=
 OpenBabel11122412253D

 34 40  0  0  1  0  0  0  0  0999 V2000
  187.3430  178.6810  141.0470 C   0  0  1  0  0  3  0  0  0  0  0  0
  186.9440  177.1650  143.0810 C   0  0  0  0  0  2  0  0  0  0  0  0
  190.3610  174.8260  136.9500 C   0  0  0  0  0  0  0  0  0  0  0  0
  187.8450  177.9400  138.6940 C   0  0  2  0  0  3  0  0  0  0  0  0
  190.1350  177.0450  138.1430 C   0  0  2  0  0  3  0  0  0  0  0  0
  192.4590  176.0530  137.6730 C   0  0  0  0  0  1  0  0  0  0  0  0
  190.7920  173.7690  137.4840 O   0  0  0  0  0  0  0  0  0  0  0  0
  188.6850  175.9590  135.4220 C   0  0  0  0  0  2  0  0  0  0  0  0
  189.0400  178.3700  142.9400 C   0  0  2  0  0  3  0  0  0  0  0  0
  191.5060  177.8250  144.7680 C   0  0  0  0  0  2  0  0  0  0  0  0
  190.3570  176.7470  139.6260 C   0  0  0  0  0  2  0  0  0  0  0  0
  188.3370  177.1530  136.3320 C   0  0  0  0  0  2  0  0  0  0  0  0
  189.9190  177.5260  141.9700 C   0  0  1  0  0  3  0  0  0  0  0  0
  187.7390  176.8250  144.3270 C   0  0  0  0  0  2  0  0  0  0  0  0
  188.6260  176.9450  137.8260 C   0  0  2  0  0  3  0  0  0  0  0  0
  189.1830  174.7840  136.1410 N   0  0  0  0  0  2  0  0  0  0  0  0
  190.2400  176.9640  144.7790 C   0  0  2  0  0  3  0  0  0  0  0  0
  188.1110  177.6720  140.1880 C   0  0  1  0  0  3  0  0  0  0  0  0
  191.0020  176.1540  137.2340 C   0  0  1  0  0  3  0  0  0  0  0  0
  189.6120  177.7700  140.4850 C   0  0  2  0  0  3  0  0  0  0  0  0
  185.6120  178.9120  139.2360 C   0  0  0  0  0  2  0  0  0  0  0  0
  191.7770  178.5550  143.4510 C   0  0  0  0  0  2  0  0  0  0  0  0
  186.3430  177.8560  138.4170 C   0  0  0  0  0  2  0  0  0  0  0  0
  191.4320  177.7190  142.2170 C   0  0  0  0  0  2  0  0  0  0  0  0
  188.9740  177.7290  144.3370 C   0  0  1  0  0  3  0  0  0  0  0  0
  185.8460  178.6720  140.7220 C   0  0  0  0  0  2  0  0  0  0  0  0
  187.5740  178.4340  142.5390 C   0  0  1  0  0  3  0  0  0  0  0  0
  190.0780  176.3870  146.1770 C   0  0  0  0  0  2  0  0  0  0  0  0
  190.4560  177.4270  147.2180 C   0  0  0  0  0  2  0  0  0  0  0  0
  187.3480  178.6860  147.4660 N   0  0  0  0  0  2  0  0  0  0  0  0
  188.2790  176.5470  147.9710 C   0  0  0  0  0  2  0  0  0  0  0  0
  189.3430  177.5810  148.2390 C   0  0  2  0  0  3  0  0  0  0  0  0
  186.9930  177.3270  147.8360 C   0  0  0  0  0  2  0  0  0  0  0  0
  188.6520  178.9220  148.0680 C   0  0  0  0  0  2  0  0  0  0  0  0
  1 26  1  1  0  0  0
  1 27  1  0  0  0  0
  2 14  1  0  0  0  0
  3 19  1  0  0  0  0
  3  7  2  0  0  0  0
  4 23  1  1  0  0  0
  4 18  1  0  0  0  0
  5 11  1  1  0  0  0
  8 16  1  0  0  0  0
  8 12  1  0  0  0  0
  9 25  1  0  0  0  0
 10 17  1  0  0  0  0
 11 20  1  0  0  0  0
 12 15  1  0  0  0  0
 13 24  1  0  0  0  0
 13  9  1  0  0  0  0
 14 25  1  0  0  0  0
 15  5  1  0  0  0  0
 15  4  1  0  0  0  0
 16  3  1  0  0  0  0
 17 28  1  0  0  0  0
 18 20  1  0  0  0  0
 18  1  1  0  0  0  0
 19  6  1  0  0  0  0
 19  5  1  0  0  0  0
 20 13  1  0  0  0  0
 21 26  1  0  0  0  0
 22 10  1  0  0  0  0
 23 21  1  0  0  0  0
 24 22  1  0  0  0  0
 25 17  1  0  0  0  0
 27  9  1  0  0  0  0
 27  2  1  0  0  0  0
 28 29  1  0  0  0  0
 29 32  1  0  0  0  0
 30 33  1  0  0  0  0
 30 34  1  0  0  0  0
 31 32  1  0  0  0  0
 33 31  1  0  0  0  0
 34 32  1  0  0  0  0
M  END
>  <MODEL>
1

>  <REMARK>
 VINA RESULT:      -8.2      0.000      0.000
  Name = 
  3 active torsions:
  status: ('A' for Active; 'I' for Inactive)
    1  A    between atoms: C_17  and  C_28
    2  A    between atoms: C_28  and  C_29
    3  A    between atoms: C_29  and  C_32
                            x       y       z     vdW  Elec       q    Type
                         _______ _______ _______ _____ _____    ______ ____

>  <TORSDO>
F 3

$$$$
=
 OpenBabel11122412253D

 34 40  0  0  1  0  0  0  0  0999 V2000
  184.5520  179.1740  142.9790 C   0  0  1  0  0  3  0  0  0  0  0  0
  186.1370  177.3790  143.9060 C   0  0  0  0  0  2  0  0  0  0  0  0
  181.3780  176.0630  138.3960 C   0  0  0  0  0  0  0  0  0  0  0  0
  182.4580  178.7840  141.6360 C   0  0  2  0  0  3  0  0  0  0  0  0
  182.6520  178.0860  139.2230 C   0  0  2  0  0  3  0  0  0  0  0  0
  182.9210  177.2820  136.7960 C   0  0  0  0  0  1  0  0  0  0  0  0
  181.9100  174.9660  138.0770 O   0  0  0  0  0  0  0  0  0  0  0  0
  179.4930  177.3080  139.5460 C   0  0  0  0  0  2  0  0  0  0  0  0
  186.8740  178.6930  142.0100 C   0  0  2  0  0  3  0  0  0  0  0  0
  189.3800  178.0280  140.2780 C   0  0  0  0  0  2  0  0  0  0  0  0
  184.0760  177.6010  139.4940 C   0  0  0  0  0  2  0  0  0  0  0  0
  180.3490  178.3500  140.2940 C   0  0  0  0  0  2  0  0  0  0  0  0
  186.1880  178.0330  140.7780 C   0  0  1  0  0  3  0  0  0  0  0  0
  187.5380  176.9130  143.5560 C   0  0  0  0  0  2  0  0  0  0  0  0
  181.8160  177.9560  140.5160 C   0  0  2  0  0  3  0  0  0  0  0  0
  180.2080  176.0730  139.2170 N   0  0  0  0  0  2  0  0  0  0  0  0
  188.8510  177.1120  141.3850 C   0  0  2  0  0  3  0  0  0  0  0  0
  183.9120  178.3300  141.8730 C   0  0  1  0  0  3  0  0  0  0  0  0
  182.0140  177.3700  138.0170 C   0  0  1  0  0  3  0  0  0  0  0  0
  184.7260  178.4610  140.5800 C   0  0  2  0  0  3  0  0  0  0  0  0
  182.2850  179.5630  143.9990 C   0  0  0  0  0  2  0  0  0  0  0  0
  188.3300  178.9430  139.6430 C   0  0  0  0  0  2  0  0  0  0  0  0
  181.6650  178.6650  142.9380 C   0  0  0  0  0  2  0  0  0  0  0  0
  186.9700  178.2650  139.4650 C   0  0  0  0  0  2  0  0  0  0  0  0
  188.0790  177.8670  142.4900 C   0  0  1  0  0  3  0  0  0  0  0  0
  183.7230  179.1350  144.2660 C   0  0  0  0  0  2  0  0  0  0  0  0
  185.9930  178.7390  143.2500 C   0  0  1  0  0  3  0  0  0  0  0  0
  190.0310  176.3430  141.9610 C   0  0  0  0  0  2  0  0  0  0  0  0
  191.2890  177.1920  141.8930 C   0  0  0  0  0  2  0  0  0  0  0  0
  190.4540  178.5780  144.8410 N   0  0  0  0  0  2  0  0  0  0  0  0
  191.2350  176.4060  144.2300 C   0  0  0  0  0  2  0  0  0  0  0  0
  191.8630  177.3990  143.2840 C   0  0  2  0  0  3  0  0  0  0  0  0
  190.6680  177.2370  145.3570 C   0  0  0  0  0  2  0  0  0  0  0  0
  191.4730  178.7650  143.8170 C   0  0  0  0  0  2  0  0  0  0  0  0
  1 27  1  0  0  0  0
  1 26  1  1  0  0  0
  3 16  1  0  0  0  0
  4 18  1  0  0  0  0
  4 23  1  1  0  0  0
  5 11  1  1  0  0  0
  5 15  1  0  0  0  0
  6 19  1  0  0  0  0
  7  3  2  0  0  0  0
  8 12  1  0  0  0  0
  9 25  1  0  0  0  0
  9 27  1  0  0  0  0
 10 17  1  0  0  0  0
 11 20  1  0  0  0  0
 12 15  1  0  0  0  0
 13  9  1  0  0  0  0
 14  2  1  0  0  0  0
 15  4  1  0  0  0  0
 16  8  1  0  0  0  0
 17 28  1  0  0  0  0
 17 25  1  0  0  0  0
 18  1  1  0  0  0  0
 19  3  1  0  0  0  0
 19  5  1  0  0  0  0
 20 13  1  0  0  0  0
 20 18  1  0  0  0  0
 21 26  1  0  0  0  0
 22 10  1  0  0  0  0
 23 21  1  0  0  0  0
 24 22  1  0  0  0  0
 24 13  1  0  0  0  0
 25 14  1  0  0  0  0
 27  2  1  0  0  0  0
 29 28  1  0  0  0  0
 29 32  1  0  0  0  0
 30 33  1  0  0  0  0
 31 33  1  0  0  0  0
 32 34  1  0  0  0  0
 32 31  1  0  0  0  0
 34 30  1  0  0  0  0
M  END
>  <MODEL>
2

>  <REMARK>
 VINA RESULT:      -7.7      3.650      6.054
  Name = 
  3 active torsions:
  status: ('A' for Active; 'I' for Inactive)
    1  A    between atoms: C_17  and  C_28
    2  A    between atoms: C_28  and  C_29
    3  A    between atoms: C_29  and  C_32
                            x       y       z     vdW  Elec       q    Type
                         _______ _______ _______ _____ _____    ______ ____

>  <TORSDO>
F 3

$$$$
=
 OpenBabel11122412253D

 34 40  0  0  1  0  0  0  0  0999 V2000
  186.9180  178.8140  140.9400 C   0  0  1  0  0  3  0  0  0  0  0  0
  186.7930  177.3110  143.0180 C   0  0  0  0  0  2  0  0  0  0  0  0
  188.7070  174.7650  136.3400 C   0  0  0  0  0  0  0  0  0  0  0  0
  186.8770  178.0660  138.5370 C   0  0  2  0  0  3  0  0  0  0  0  0
  188.9220  176.9780  137.5470 C   0  0  2  0  0  3  0  0  0  0  0  0
  191.0080  175.7880  136.6300 C   0  0  0  0  0  1  0  0  0  0  0  0
  189.1370  173.6660  136.7820 O   0  0  0  0  0  0  0  0  0  0  0  0
  186.8720  176.0650  135.1700 C   0  0  0  0  0  2  0  0  0  0  0  0
  188.9210  178.3250  142.4610 C   0  0  2  0  0  3  0  0  0  0  0  0
  191.6390  177.5350  143.7670 C   0  0  0  0  0  2  0  0  0  0  0  0
  189.4050  176.6400  138.9570 C   0  0  0  0  0  2  0  0  0  0  0  0
  186.8200  177.2720  136.1270 C   0  0  0  0  0  2  0  0  0  0  0  0
  189.5100  177.4210  141.3400 C   0  0  1  0  0  3  0  0  0  0  0  0
  187.7850  176.8830  144.0830 C   0  0  0  0  0  2  0  0  0  0  0  0
  187.3780  177.0180  137.5350 C   0  0  2  0  0  3  0  0  0  0  0  0
  187.3930  174.8400  135.7810 N   0  0  0  0  0  2  0  0  0  0  0  0
  190.3270  176.7910  144.0310 C   0  0  2  0  0  3  0  0  0  0  0  0
  187.4070  177.7530  139.9500 C   0  0  1  0  0  3  0  0  0  0  0  0
  189.5090  176.0260  136.4880 C   0  0  1  0  0  3  0  0  0  0  0  0
  188.9400  177.7130  139.9440 C   0  0  2  0  0  3  0  0  0  0  0  0
  184.8930  179.2260  139.5060 C   0  0  0  0  0  2  0  0  0  0  0  0
  191.7100  178.2580  142.4200 C   0  0  0  0  0  2  0  0  0  0  0  0
  185.3490  178.1210  138.5630 C   0  0  0  0  0  2  0  0  0  0  0  0
  191.0540  177.4730  141.2810 C   0  0  0  0  0  2  0  0  0  0  0  0
  189.0730  177.6720  143.8460 C   0  0  1  0  0  3  0  0  0  0  0  0
  185.3920  178.9430  140.9180 C   0  0  0  0  0  2  0  0  0  0  0  0
  187.4160  178.5260  142.3580 C   0  0  1  0  0  3  0  0  0  0  0  0
  190.3930  176.2100  145.4360 C   0  0  0  0  0  2  0  0  0  0  0  0
  190.6940  177.3090  146.4410 C   0  0  0  0  0  2  0  0  0  0  0  0
  188.3020  178.7120  148.3430 N   0  0  0  0  0  2  0  0  0  0  0  0
  188.5690  176.5270  147.4190 C   0  0  0  0  0  2  0  0  0  0  0  0
  189.9440  177.0580  147.7380 C   0  0  2  0  0  3  0  0  0  0  0  0
  187.6120  177.4500  148.1350 C   0  0  0  0  0  2  0  0  0  0  0  0
  189.7100  178.3660  148.4730 C   0  0  0  0  0  2  0  0  0  0  0  0
  1 26  1  1  0  0  0
  1 27  1  0  0  0  0
  2 14  1  0  0  0  0
  3 19  1  0  0  0  0
  3  7  2  0  0  0  0
  4 23  1  1  0  0  0
  4 18  1  0  0  0  0
  5 11  1  1  0  0  0
  8 16  1  0  0  0  0
  8 12  1  0  0  0  0
  9 25  1  0  0  0  0
 10 17  1  0  0  0  0
 11 20  1  0  0  0  0
 12 15  1  0  0  0  0
 13  9  1  0  0  0  0
 15  5  1  0  0  0  0
 15  4  1  0  0  0  0
 16  3  1  0  0  0  0
 17 28  1  0  0  0  0
 18  1  1  0  0  0  0
 19  6  1  0  0  0  0
 19  5  1  0  0  0  0
 20 18  1  0  0  0  0
 20 13  1  0  0  0  0
 21 26  1  0  0  0  0
 22 10  1  0  0  0  0
 23 21  1  0  0  0  0
 24 13  1  0  0  0  0
 24 22  1  0  0  0  0
 25 17  1  0  0  0  0
 25 14  1  0  0  0  0
 27  9  1  0  0  0  0
 27  2  1  0  0  0  0
 28 29  1  0  0  0  0
 29 32  1  0  0  0  0
 30 34  1  0  0  0  0
 31 32  1  0  0  0  0
 31 33  1  0  0  0  0
 32 34  1  0  0  0  0
 33 30  1  0  0  0  0
M  END
>  <MODEL>
3

>  <REMARK>
 VINA RESULT:      -7.7      0.998      1.118
  Name = 
  3 active torsions:
  status: ('A' for Active; 'I' for Inactive)
    1  A    between atoms: C_17  and  C_28
    2  A    between atoms: C_28  and  C_29
    3  A    between atoms: C_29  and  C_32
                            x       y       z     vdW  Elec       q    Type
                         _______ _______ _______ _____ _____    ______ ____

>  <TORSDO>
F 3

$$$$
=
 OpenBabel11122412253D

 34 40  0  0  1  0  0  0  0  0999 V2000
  182.3420  179.6980  142.8860 C   0  0  1  0  0  3  0  0  0  0  0  0
  183.4340  178.2820  144.7300 C   0  0  0  0  0  2  0  0  0  0  0  0
  181.0920  175.4100  138.3250 C   0  0  0  0  0  0  0  0  0  0  0  0
  180.9060  178.8600  140.9960 C   0  0  2  0  0  3  0  0  0  0  0  0
  181.9880  177.6580  139.0640 C   0  0  2  0  0  3  0  0  0  0  0  0
  183.1430  176.3550  137.1730 C   0  0  0  0  0  1  0  0  0  0  0  0
  181.6900  174.3130  138.4940 O   0  0  0  0  0  0  0  0  0  0  0  0
  178.9310  176.7330  138.3680 C   0  0  0  0  0  2  0  0  0  0  0  0
  184.8510  179.1920  142.9900 C   0  0  2  0  0  3  0  0  0  0  0  0
  187.8160  178.3500  142.5180 C   0  0  0  0  0  2  0  0  0  0  0  0
  183.1960  177.3560  139.9490 C   0  0  0  0  0  2  0  0  0  0  0  0
  179.4550  177.9770  139.1110 C   0  0  0  0  0  2  0  0  0  0  0  0
  184.6720  178.2230  141.7840 C   0  0  1  0  0  3  0  0  0  0  0  0
  184.8560  177.8580  145.0440 C   0  0  0  0  0  2  0  0  0  0  0  0
  180.7230  177.7560  139.9470 C   0  0  2  0  0  3  0  0  0  0  0  0
  179.6990  175.5140  138.6270 N   0  0  0  0  0  2  0  0  0  0  0  0
  186.8950  177.6670  143.5330 C   0  0  2  0  0  3  0  0  0  0  0  0
  182.1560  178.5820  141.8550 C   0  0  1  0  0  3  0  0  0  0  0  0
  181.8420  176.6450  137.9130 C   0  0  1  0  0  3  0  0  0  0  0  0
  183.4000  178.4830  140.9640 C   0  0  2  0  0  3  0  0  0  0  0  0
  179.8640  180.1310  142.8720 C   0  0  0  0  0  2  0  0  0  0  0  0
  187.0980  179.0170  141.3440 C   0  0  0  0  0  2  0  0  0  0  0  0
  179.6790  178.9740  141.9000 C   0  0  0  0  0  2  0  0  0  0  0  0
  185.8960  178.2150  140.8390 C   0  0  0  0  0  2  0  0  0  0  0  0
  185.7740  178.5880  144.0620 C   0  0  1  0  0  3  0  0  0  0  0  0
  181.0880  179.8850  143.7460 C   0  0  0  0  0  2  0  0  0  0  0  0
  183.5680  179.4460  143.7670 C   0  0  1  0  0  3  0  0  0  0  0  0
  187.7580  177.1380  144.6690 C   0  0  0  0  0  2  0  0  0  0  0  0
  189.2150  177.0960  144.2390 C   0  0  0  0  0  2  0  0  0  0  0  0
  190.1380  176.4180  147.4010 N   0  0  0  0  0  2  0  0  0  0  0  0
  191.3740  176.8440  145.4040 C   0  0  0  0  0  2  0  0  0  0  0  0
  190.1050  177.6550  145.3360 C   0  0  2  0  0  3  0  0  0  0  0  0
  191.4780  176.3910  146.8410 C   0  0  0  0  0  2  0  0  0  0  0  0
  189.4440  177.4830  146.6910 C   0  0  0  0  0  2  0  0  0  0  0  0
  1 26  1  1  0  0  0
  1 27  1  0  0  0  0
  2 14  1  0  0  0  0
  3  7  2  0  0  0  0
  3 16  1  0  0  0  0
  4 18  1  0  0  0  0
  4 23  1  1  0  0  0
  5 15  1  0  0  0  0
  5 11  1  1  0  0  0
  6 19  1  0  0  0  0
  8 16  1  0  0  0  0
  8 12  1  0  0  0  0
  9 27  1  0  0  0  0
  9 25  1  0  0  0  0
 10 17  1  0  0  0  0
 11 20  1  0  0  0  0
 12 15  1  0  0  0  0
 13  9  1  0  0  0  0
 15  4  1  0  0  0  0
 17 25  1  0  0  0  0
 17 28  1  0  0  0  0
 18  1  1  0  0  0  0
 19  3  1  0  0  0  0
 19  5  1  0  0  0  0
 20 13  1  0  0  0  0
 20 18  1  0  0  0  0
 21 26  1  0  0  0  0
 22 10  1  0  0  0  0
 23 21  1  0  0  0  0
 24 22  1  0  0  0  0
 24 13  1  0  0  0  0
 25 14  1  0  0  0  0
 27  2  1  0  0  0  0
 29 28  1  0  0  0  0
 29 32  1  0  0  0  0
 31 33  1  0  0  0  0
 32 31  1  0  0  0  0
 32 34  1  0  0  0  0
 33 30  1  0  0  0  0
 34 30  1  0  0  0  0
M  END
>  <MODEL>
4

>  <REMARK>
 VINA RESULT:      -7.2      4.340      6.411
  Name = 
  3 active torsions:
  status: ('A' for Active; 'I' for Inactive)
    1  A    between atoms: C_17  and  C_28
    2  A    between atoms: C_28  and  C_29
    3  A    between atoms: C_29  and  C_32
                            x       y       z     vdW  Elec       q    Type
                         _______ _______ _______ _____ _____    ______ ____

>  <TORSDO>
F 3

$$$$
=
 OpenBabel11122412253D

 34 40  0  0  1  0  0  0  0  0999 V2000
  186.1550  179.0640  141.9710 C   0  0  1  0  0  3  0  0  0  0  0  0
  187.9220  177.2190  142.2330 C   0  0  0  0  0  2  0  0  0  0  0  0
  181.5820  176.2030  138.5560 C   0  0  0  0  0  0  0  0  0  0  0  0
  183.7270  178.7500  141.3810 C   0  0  2  0  0  3  0  0  0  0  0  0
  183.0970  178.1770  139.0100 C   0  0  2  0  0  3  0  0  0  0  0  0
  182.5330  177.4990  136.5960 C   0  0  0  0  0  1  0  0  0  0  0  0
  181.9570  175.1220  138.0270 O   0  0  0  0  0  0  0  0  0  0  0  0
  180.2100  177.3910  140.3250 C   0  0  0  0  0  2  0  0  0  0  0  0
  188.0150  178.6280  140.2650 C   0  0  2  0  0  3  0  0  0  0  0  0
  189.7930  178.0460  137.7700 C   0  0  0  0  0  2  0  0  0  0  0  0
  184.5210  177.6750  138.7700 C   0  0  0  0  0  2  0  0  0  0  0  0
  181.2850  178.3910  140.7960 C   0  0  0  0  0  2  0  0  0  0  0  0
  186.9470  178.0340  139.3000 C   0  0  1  0  0  3  0  0  0  0  0  0
  189.1180  176.7680  141.4170 C   0  0  0  0  0  2  0  0  0  0  0  0
  182.7340  177.9820  140.4990 C   0  0  2  0  0  3  0  0  0  0  0  0
  180.7500  176.1730  139.7180 N   0  0  0  0  0  2  0  0  0  0  0  0
  189.6430  177.0760  138.9450 C   0  0  2  0  0  3  0  0  0  0  0  0
  185.1680  178.2800  141.1010 C   0  0  1  0  0  3  0  0  0  0  0  0
  182.0820  177.5260  138.0520 C   0  0  1  0  0  3  0  0  0  0  0  0
  185.5110  178.4750  139.6190 C   0  0  2  0  0  3  0  0  0  0  0  0
  184.3620  179.4060  143.7020 C   0  0  0  0  0  2  0  0  0  0  0  0
  188.6110  178.9950  137.5640 C   0  0  0  0  0  2  0  0  0  0  0  0
  183.4080  178.5650  142.8650 C   0  0  0  0  0  2  0  0  0  0  0  0
  187.2550  178.3310  137.8150 C   0  0  0  0  0  2  0  0  0  0  0  0
  189.2950  177.7740  140.2780 C   0  0  1  0  0  3  0  0  0  0  0  0
  185.7990  178.9610  143.4570 C   0  0  0  0  0  2  0  0  0  0  0  0
  187.5960  178.6120  141.7280 C   0  0  1  0  0  3  0  0  0  0  0  0
  190.9310  176.2750  139.0600 C   0  0  0  0  0  2  0  0  0  0  0  0
  190.9880  175.2200  137.9690 C   0  0  0  0  0  2  0  0  0  0  0  0
  194.3050  175.6270  138.3430 N   0  0  0  0  0  2  0  0  0  0  0  0
  192.9900  174.0910  137.0750 C   0  0  0  0  0  2  0  0  0  0  0  0
  192.2400  175.3980  137.1270 C   0  0  2  0  0  3  0  0  0  0  0  0
  194.3880  174.4180  137.5430 C   0  0  0  0  0  2  0  0  0  0  0  0
  193.1870  176.3790  137.7910 C   0  0  0  0  0  2  0  0  0  0  0  0
  1 26  1  1  0  0  0
  3 16  1  0  0  0  0
  4 23  1  1  0  0  0
  5 11  1  1  0  0  0
  5 15  1  0  0  0  0
  6 19  1  0  0  0  0
  7  3  2  0  0  0  0
  8 12  1  0  0  0  0
  9 25  1  0  0  0  0
  9 27  1  0  0  0  0
 10 17  1  0  0  0  0
 11 20  1  0  0  0  0
 13 20  1  0  0  0  0
 13  9  1  0  0  0  0
 14  2  1  0  0  0  0
 15 12  1  0  0  0  0
 15  4  1  0  0  0  0
 16  8  1  0  0  0  0
 17 28  1  0  0  0  0
 17 25  1  0  0  0  0
 18  4  1  0  0  0  0
 18  1  1  0  0  0  0
 19  3  1  0  0  0  0
 19  5  1  0  0  0  0
 20 18  1  0  0  0  0
 22 10  1  0  0  0  0
 22 24  1  0  0  0  0
 23 21  1  0  0  0  0
 24 13  1  0  0  0  0
 25 14  1  0  0  0  0
 26 21  1  0  0  0  0
 27  1  1  0  0  0  0
 27  2  1  0  0  0  0
 29 28  1  0  0  0  0
 31 32  1  0  0  0  0
 31 33  1  0  0  0  0
 32 34  1  0  0  0  0
 32 29  1  0  0  0  0
 33 30  1  0  0  0  0
 34 30  1  0  0  0  0
M  END
>  <MODEL>
5

>  <REMARK>
 VINA RESULT:      -7.1      3.811      7.544
  Name = 
  3 active torsions:
  status: ('A' for Active; 'I' for Inactive)
    1  A    between atoms: C_17  and  C_28
    2  A    between atoms: C_28  and  C_29
    3  A    between atoms: C_29  and  C_32
                            x       y       z     vdW  Elec       q    Type
                         _______ _______ _______ _____ _____    ______ ____

>  <TORSDO>
F 3

$$$$
=
 OpenBabel11122412253D

 34 40  0  0  1  0  0  0  0  0999 V2000
  190.5740  176.1490  136.2310 C   0  0  1  0  0  3  0  0  0  0  0  0
  189.3970  173.9570  135.5940 C   0  0  0  0  0  2  0  0  0  0  0  0
  189.3130  176.7000  142.4650 C   0  0  0  0  0  0  0  0  0  0  0  0
  191.2320  176.8860  138.5470 C   0  0  2  0  0  3  0  0  0  0  0  0
  189.4530  177.6870  140.1400 C   0  0  2  0  0  3  0  0  0  0  0  0
  187.5760  178.4000  141.7460 C   0  0  0  0  0  1  0  0  0  0  0  0
  188.3980  175.9290  142.8600 O   0  0  0  0  0  0  0  0  0  0  0  0
  191.7770  177.2910  142.4040 C   0  0  0  0  0  2  0  0  0  0  0  0
  188.1180  176.0120  135.5170 C   0  0  2  0  0  3  0  0  0  0  0  0
  185.0180  176.1420  135.2080 C   0  0  0  0  0  2  0  0  0  0  0  0
  188.4010  176.9510  139.3100 C   0  0  0  0  0  2  0  0  0  0  0  0
  191.8900  177.5870  140.8960 C   0  0  0  0  0  2  0  0  0  0  0  0
  187.7060  176.2800  136.9940 C   0  0  1  0  0  3  0  0  0  0  0  0
  188.0020  173.5970  135.1200 C   0  0  0  0  0  2  0  0  0  0  0  0
  190.8040  176.9470  140.0190 C   0  0  2  0  0  3  0  0  0  0  0  0
  190.6780  176.3900  142.7560 N   0  0  0  0  0  2  0  0  0  0  0  0
  185.7940  174.8350  135.3930 C   0  0  2  0  0  3  0  0  0  0  0  0
  190.1470  176.1900  137.7020 C   0  0  1  0  0  3  0  0  0  0  0  0
  189.0040  177.8880  141.6000 C   0  0  1  0  0  3  0  0  0  0  0  0
  188.8120  176.9330  137.8370 C   0  0  2  0  0  3  0  0  0  0  0  0
  192.9910  176.1750  136.9280 C   0  0  0  0  0  2  0  0  0  0  0  0
  185.7030  177.3840  135.7810 C   0  0  0  0  0  2  0  0  0  0  0  0
  192.5600  176.1440  138.3880 C   0  0  0  0  0  2  0  0  0  0  0  0
  186.4140  177.1200  137.1100 C   0  0  0  0  0  2  0  0  0  0  0  0
  187.2510  174.9090  134.8850 C   0  0  1  0  0  3  0  0  0  0  0  0
  191.9440  175.4860  136.0620 C   0  0  0  0  0  2  0  0  0  0  0  0
  189.5240  175.4510  135.3650 C   0  0  1  0  0  3  0  0  0  0  0  0
  185.0210  173.7270  134.6940 C   0  0  0  0  0  2  0  0  0  0  0  0
  183.9760  173.1490  135.6320 C   0  0  0  0  0  2  0  0  0  0  0  0
  183.2830  169.8620  135.8050 N   0  0  0  0  0  2  0  0  0  0  0  0
  185.2670  171.0790  135.2720 C   0  0  0  0  0  2  0  0  0  0  0  0
  184.4990  171.8830  136.2900 C   0  0  2  0  0  3  0  0  0  0  0  0
  184.6330  169.7080  135.2900 C   0  0  0  0  0  2  0  0  0  0  0  0
  183.3450  170.9950  136.7180 C   0  0  0  0  0  2  0  0  0  0  0  0
  1 26  1  1  0  0  0
  1 18  1  0  0  0  0
  3 16  1  0  0  0  0
  3  7  2  0  0  0  0
  4 23  1  1  0  0  0
  4 15  1  0  0  0  0
  5 11  1  6  0  0  0
  5 19  1  0  0  0  0
  8 16  1  0  0  0  0
  9 13  1  0  0  0  0
 10 17  1  0  0  0  0
 10 22  1  0  0  0  0
 12  8  1  0  0  0  0
 13 24  1  0  0  0  0
 13 20  1  0  0  0  0
 14  2  1  0  0  0  0
 15  5  1  0  0  0  0
 15 12  1  0  0  0  0
 18 20  1  0  0  0  0
 18  4  1  0  0  0  0
 19  6  1  0  0  0  0
 19  3  1  0  0  0  0
 20 11  1  0  0  0  0
 21 23  1  0  0  0  0
 22 24  1  0  0  0  0
 25 14  1  0  0  0  0
 25 17  1  0  0  0  0
 25  9  1  0  0  0  0
 26 21  1  0  0  0  0
 27  9  1  0  0  0  0
 27  2  1  0  0  0  0
 27  1  1  0  0  0  0
 28 17  1  0  0  0  0
 28 29  1  0  0  0  0
 29 32  1  0  0  0  0
 30 34  1  0  0  0  0
 31 33  1  0  0  0  0
 31 32  1  0  0  0  0
 32 34  1  0  0  0  0
 33 30  1  0  0  0  0
M  END
>  <MODEL>
6

>  <REMARK>
 VINA RESULT:      -6.9      3.557      9.091
  Name = 
  3 active torsions:
  status: ('A' for Active; 'I' for Inactive)
    1  A    between atoms: C_17  and  C_28
    2  A    between atoms: C_28  and  C_29
    3  A    between atoms: C_29  and  C_32
                            x       y       z     vdW  Elec       q    Type
                         _______ _______ _______ _____ _____    ______ ____

>  <TORSDO>
F 3

$$$$
=
 OpenBabel11122412253D

 34 40  0  0  1  0  0  0  0  0999 V2000
  187.2940  178.6880  141.0890 C   0  0  1  0  0  3  0  0  0  0  0  0
  187.0310  177.2170  143.1770 C   0  0  0  0  0  2  0  0  0  0  0  0
  190.0170  174.7360  136.8780 C   0  0  0  0  0  0  0  0  0  0  0  0
  187.6320  177.8960  138.7230 C   0  0  2  0  0  3  0  0  0  0  0  0
  189.8770  176.9810  138.0370 C   0  0  2  0  0  3  0  0  0  0  0  0
  192.1610  175.9700  137.4300 C   0  0  0  0  0  1  0  0  0  0  0  0
  190.4800  173.6890  137.4040 O   0  0  0  0  0  0  0  0  0  0  0  0
  188.2420  175.8420  135.4450 C   0  0  0  0  0  2  0  0  0  0  0  0
  189.1160  178.4110  142.8680 C   0  0  2  0  0  3  0  0  0  0  0  0
  191.7000  177.8950  144.5350 C   0  0  0  0  0  2  0  0  0  0  0  0
  190.1990  176.7130  139.5070 C   0  0  0  0  0  2  0  0  0  0  0  0
  187.9600  177.0570  136.3510 C   0  0  0  0  0  2  0  0  0  0  0  0
  189.9240  177.5440  141.8590 C   0  0  1  0  0  3  0  0  0  0  0  0
  187.9090  176.9010  144.3730 C   0  0  0  0  0  2  0  0  0  0  0  0
  188.3500  176.8800  137.8250 C   0  0  2  0  0  3  0  0  0  0  0  0
  188.7860  174.6810  136.1530 N   0  0  0  0  0  2  0  0  0  0  0  0
  190.4360  177.0390  144.6500 C   0  0  2  0  0  3  0  0  0  0  0  0
  187.9990  177.6580  140.2010 C   0  0  1  0  0  3  0  0  0  0  0  0
  190.6790  176.0680  137.0900 C   0  0  1  0  0  3  0  0  0  0  0  0
  189.5170  177.7570  140.3930 C   0  0  2  0  0  3  0  0  0  0  0  0
  185.4440  178.8870  139.3950 C   0  0  0  0  0  2  0  0  0  0  0  0
  191.8820  178.5970  143.1870 C   0  0  0  0  0  2  0  0  0  0  0  0
  186.1150  177.8110  138.5520 C   0  0  0  0  0  2  0  0  0  0  0  0
  191.4520  177.7360  141.9970 C   0  0  0  0  0  2  0  0  0  0  0  0
  189.1440  177.8000  144.2790 C   0  0  1  0  0  3  0  0  0  0  0  0
  185.7780  178.6770  140.8670 C   0  0  0  0  0  2  0  0  0  0  0  0
  187.6260  178.4720  142.5660 C   0  0  1  0  0  3  0  0  0  0  0  0
  190.3680  176.4930  146.0680 C   0  0  0  0  0  2  0  0  0  0  0  0
  191.7680  176.2110  146.5860 C   0  0  0  0  0  2  0  0  0  0  0  0
  193.8390  176.6980  149.1900 N   0  0  0  0  0  2  0  0  0  0  0  0
  191.6630  177.5300  148.6670 C   0  0  0  0  0  2  0  0  0  0  0  0
  191.7650  176.1350  148.1030 C   0  0  2  0  0  3  0  0  0  0  0  0
  192.8360  177.6640  149.6080 C   0  0  0  0  0  2  0  0  0  0  0  0
  193.0910  175.5940  148.6060 C   0  0  0  0  0  2  0  0  0  0  0  0
  1 26  1  1  0  0  0
  1 27  1  0  0  0  0
  2 14  1  0  0  0  0
  3 19  1  0  0  0  0
  3  7  2  0  0  0  0
  4 23  1  1  0  0  0
  4 18  1  0  0  0  0
  5 11  1  1  0  0  0
  8 16  1  0  0  0  0
  8 12  1  0  0  0  0
  9 25  1  0  0  0  0
 10 17  1  0  0  0  0
 11 20  1  0  0  0  0
 12 15  1  0  0  0  0
 13 24  1  0  0  0  0
 13  9  1  0  0  0  0
 15  5  1  0  0  0  0
 15  4  1  0  0  0  0
 16  3  1  0  0  0  0
 17 28  1  0  0  0  0
 18 20  1  0  0  0  0
 18  1  1  0  0  0  0
 19  6  1  0  0  0  0
 19  5  1  0  0  0  0
 20 13  1  0  0  0  0
 21 26  1  0  0  0  0
 22 10  1  0  0  0  0
 23 21  1  0  0  0  0
 24 22  1  0  0  0  0
 25 14  1  0  0  0  0
 25 17  1  0  0  0  0
 27  9  1  0  0  0  0
 27  2  1  0  0  0  0
 28 29  1  0  0  0  0
 29 32  1  0  0  0  0
 30 33  1  0  0  0  0
 31 33  1  0  0  0  0
 32 34  1  0  0  0  0
 32 31  1  0  0  0  0
 34 30  1  0  0  0  0
M  END
>  <MODEL>
7

>  <REMARK>
 VINA RESULT:      -6.9      1.638      2.058
  Name = 
  3 active torsions:
  status: ('A' for Active; 'I' for Inactive)
    1  A    between atoms: C_17  and  C_28
    2  A    between atoms: C_28  and  C_29
    3  A    between atoms: C_29  and  C_32
                            x       y       z     vdW  Elec       q    Type
                         _______ _______ _______ _____ _____    ______ ____

>  <TORSDO>
F 3

$$$$
=
 OpenBabel11122412253D

 34 40  0  0  1  0  0  0  0  0999 V2000
  183.4890  179.2780  139.1260 C   0  0  1  0  0  3  0  0  0  0  0  0
  183.8540  178.4270  141.5220 C   0  0  0  0  0  2  0  0  0  0  0  0
  183.8740  173.9500  135.6310 C   0  0  0  0  0  0  0  0  0  0  0  0
  182.7970  177.9070  137.1310 C   0  0  2  0  0  3  0  0  0  0  0  0
  184.4750  176.3720  136.0470 C   0  0  2  0  0  3  0  0  0  0  0  0
  186.2060  174.7540  135.0510 C   0  0  0  0  0  1  0  0  0  0  0  0
  184.3640  172.9740  136.2610 O   0  0  0  0  0  0  0  0  0  0  0  0
  181.8460  175.0710  134.6040 C   0  0  0  0  0  2  0  0  0  0  0  0
  185.7990  179.0100  140.2010 C   0  0  2  0  0  3  0  0  0  0  0  0
  188.7330  178.3160  140.9940 C   0  0  0  0  0  2  0  0  0  0  0  0
  185.2950  176.3830  137.3370 C   0  0  0  0  0  2  0  0  0  0  0  0
  182.0880  176.4930  135.1470 C   0  0  0  0  0  2  0  0  0  0  0  0
  186.0440  177.7730  139.2880 C   0  0  1  0  0  3  0  0  0  0  0  0
  185.0720  178.2020  142.3970 C   0  0  0  0  0  2  0  0  0  0  0  0
  182.9820  176.5750  136.3920 C   0  0  2  0  0  3  0  0  0  0  0  0
  182.4640  174.0110  135.4040 N   0  0  0  0  0  2  0  0  0  0  0  0
  187.5090  177.8210  141.7700 C   0  0  2  0  0  3  0  0  0  0  0  0
  183.6650  177.9390  138.4050 C   0  0  1  0  0  3  0  0  0  0  0  0
  184.7320  175.1070  135.2060 C   0  0  1  0  0  3  0  0  0  0  0  0
  185.1410  177.7300  138.0460 C   0  0  2  0  0  3  0  0  0  0  0  0
  181.1760  179.4990  138.1610 C   0  0  0  0  0  2  0  0  0  0  0  0
  188.4770  178.6280  139.5180 C   0  0  0  0  0  2  0  0  0  0  0  0
  181.3320  178.1340  137.5040 C   0  0  0  0  0  2  0  0  0  0  0  0
  187.5200  177.6380  138.8500 C   0  0  0  0  0  2  0  0  0  0  0  0
  186.2820  178.7500  141.6380 C   0  0  1  0  0  3  0  0  0  0  0  0
  182.0150  179.5630  139.4310 C   0  0  0  0  0  2  0  0  0  0  0  0
  184.3270  179.3380  140.4050 C   0  0  1  0  0  3  0  0  0  0  0  0
  187.9160  177.6450  143.2250 C   0  0  0  0  0  2  0  0  0  0  0  0
  188.7790  176.4040  143.3790 C   0  0  0  0  0  2  0  0  0  0  0  0
  191.7160  177.9740  142.9150 N   0  0  0  0  0  2  0  0  0  0  0  0
  190.0070  178.1810  144.5690 C   0  0  0  0  0  2  0  0  0  0  0  0
  190.0510  176.7370  144.1380 C   0  0  2  0  0  3  0  0  0  0  0  0
  191.2780  178.7940  144.0320 C   0  0  0  0  0  2  0  0  0  0  0  0
  191.2560  176.6270  143.2210 C   0  0  0  0  0  2  0  0  0  0  0  0
  1 26  1  1  0  0  0
  1 27  1  0  0  0  0
  2 14  1  0  0  0  0
  3  7  2  0  0  0  0
  4 23  1  1  0  0  0
  4 18  1  0  0  0  0
  5 15  1  0  0  0  0
  5 11  1  1  0  0  0
  6 19  1  0  0  0  0
  8 12  1  0  0  0  0
  8 16  1  0  0  0  0
  9 27  1  0  0  0  0
  9 25  1  0  0  0  0
 10 17  1  0  0  0  0
 11 20  1  0  0  0  0
 12 15  1  0  0  0  0
 13  9  1  0  0  0  0
 15  4  1  0  0  0  0
 16  3  1  0  0  0  0
 17 28  1  0  0  0  0
 18  1  1  0  0  0  0
 19  3  1  0  0  0  0
 19  5  1  0  0  0  0
 20 18  1  0  0  0  0
 20 13  1  0  0  0  0
 21 26  1  0  0  0  0
 22 10  1  0  0  0  0
 23 21  1  0  0  0  0
 24 13  1  0  0  0  0
 24 22  1  0  0  0  0
 25 17  1  0  0  0  0
 25 14  1  0  0  0  0
 27  2  1  0  0  0  0
 28 29  1  0  0  0  0
 29 32  1  0  0  0  0
 30 34  1  0  0  0  0
 30 33  1  0  0  0  0
 32 31  1  0  0  0  0
 33 31  1  0  0  0  0
 34 32  1  0  0  0  0
M  END
>  <MODEL>
8

>  <REMARK>
 VINA RESULT:      -6.8      3.406      5.281
  Name = 
  3 active torsions:
  status: ('A' for Active; 'I' for Inactive)
    1  A    between atoms: C_17  and  C_28
    2  A    between atoms: C_28  and  C_29
    3  A    between atoms: C_29  and  C_32
                            x       y       z     vdW  Elec       q    Type
                         _______ _______ _______ _____ _____    ______ ____

>  <TORSDO>
F 3

$$$$
=
 OpenBabel11122412253D

 34 40  0  0  1  0  0  0  0  0999 V2000
  191.5030  176.7910  138.0650 C   0  0  1  0  0  3  0  0  0  0  0  0
  190.9010  174.4820  137.1150 C   0  0  0  0  0  2  0  0  0  0  0  0
  188.3860  176.9100  143.6350 C   0  0  0  0  0  0  0  0  0  0  0  0
  191.3310  177.5190  140.4690 C   0  0  2  0  0  3  0  0  0  0  0  0
  189.0620  177.9990  141.4540 C   0  0  2  0  0  3  0  0  0  0  0  0
  186.7110  178.3770  142.4230 C   0  0  0  0  0  1  0  0  0  0  0  0
  187.5180  176.0030  143.7410 O   0  0  0  0  0  0  0  0  0  0  0  0
  190.6440  177.8430  144.3110 C   0  0  0  0  0  2  0  0  0  0  0  0
  189.4160  176.3390  136.6500 C   0  0  2  0  0  3  0  0  0  0  0  0
  186.5630  176.0440  135.4280 C   0  0  0  0  0  2  0  0  0  0  0  0
  188.4230  177.1560  140.3510 C   0  0  0  0  0  2  0  0  0  0  0  0
  191.1540  178.2120  142.9040 C   0  0  0  0  0  2  0  0  0  0  0  0
  188.5510  176.4870  137.9360 C   0  0  1  0  0  3  0  0  0  0  0  0
  189.7770  173.9490  136.2470 C   0  0  0  0  0  2  0  0  0  0  0  0
  190.4820  177.4620  141.7450 C   0  0  2  0  0  3  0  0  0  0  0  0
  189.6330  176.7830  144.3220 N   0  0  0  0  0  2  0  0  0  0  0  0
  187.4320  174.8530  135.8420 C   0  0  2  0  0  3  0  0  0  0  0  0
  190.6590  176.7120  139.3410 C   0  0  1  0  0  3  0  0  0  0  0  0
  188.1770  178.0770  142.7130 C   0  0  1  0  0  3  0  0  0  0  0  0
  189.2500  177.2550  139.0680 C   0  0  2  0  0  3  0  0  0  0  0  0
  193.5750  177.1280  139.4520 C   0  0  0  0  0  2  0  0  0  0  0  0
  186.8580  177.3460  136.1750 C   0  0  0  0  0  2  0  0  0  0  0  0
  192.7400  176.9780  140.7170 C   0  0  0  0  0  2  0  0  0  0  0  0
  187.1740  177.1320  137.6570 C   0  0  0  0  0  2  0  0  0  0  0  0
  188.9460  175.1510  135.7930 C   0  0  1  0  0  3  0  0  0  0  0  0
  192.9430  176.3330  138.3160 C   0  0  0  0  0  2  0  0  0  0  0  0
  190.8710  175.9870  136.9270 C   0  0  1  0  0  3  0  0  0  0  0  0
  187.0710  173.6760  134.9480 C   0  0  0  0  0  2  0  0  0  0  0  0
  185.6090  173.3060  135.1390 C   0  0  0  0  0  2  0  0  0  0  0  0
  183.3280  171.9720  137.2180 N   0  0  0  0  0  2  0  0  0  0  0  0
  184.7250  171.0360  135.5230 C   0  0  0  0  0  2  0  0  0  0  0  0
  185.4770  172.1820  136.1520 C   0  0  2  0  0  3  0  0  0  0  0  0
  183.5730  170.7580  136.4590 C   0  0  0  0  0  2  0  0  0  0  0  0
  184.6230  172.6280  137.3250 C   0  0  0  0  0  2  0  0  0  0  0  0
  1 26  1  1  0  0  0
  1 18  1  0  0  0  0
  3  7  2  0  0  0  0
  3 16  1  0  0  0  0
  4 23  1  1  0  0  0
  4 15  1  0  0  0  0
  5 11  1  6  0  0  0
  5 15  1  0  0  0  0
  5 19  1  0  0  0  0
  6 19  1  0  0  0  0
  8 16  1  0  0  0  0
  9 27  1  0  0  0  0
  9 13  1  0  0  0  0
 10 17  1  0  0  0  0
 10 22  1  0  0  0  0
 12  8  1  0  0  0  0
 13 20  1  0  0  0  0
 14  2  1  0  0  0  0
 15 12  1  0  0  0  0
 18  4  1  0  0  0  0
 19  3  1  0  0  0  0
 20 18  1  0  0  0  0
 20 11  1  0  0  0  0
 21 23  1  0  0  0  0
 22 24  1  0  0  0  0
 24 13  1  0  0  0  0
 25 17  1  0  0  0  0
 25 14  1  0  0  0  0
 25  9  1  0  0  0  0
 26 21  1  0  0  0  0
 27  2  1  0  0  0  0
 27  1  1  0  0  0  0
 28 29  1  0  0  0  0
 28 17  1  0  0  0  0
 29 32  1  0  0  0  0
 30 34  1  0  0  0  0
 31 32  1  0  0  0  0
 31 33  1  0  0  0  0
 32 34  1  0  0  0  0
 33 30  1  0  0  0  0
M  END
>  <MODEL>
9

>  <REMARK>
 VINA RESULT:      -6.7      3.120      8.709
  Name = 
  3 active torsions:
  status: ('A' for Active; 'I' for Inactive)
    1  A    between atoms: C_17  and  C_28
    2  A    between atoms: C_28  and  C_29
    3  A    between atoms: C_29  and  C_32
                            x       y       z     vdW  Elec       q    Type
                         _______ _______ _______ _____ _____    ______ ____

>  <TORSDO>
F 3

$$$$
