=
 OpenBabel11122410413D

 32 39  0  0  1  0  0  0  0  0999 V2000
  188.4020  178.0340  146.4890 C   0  0  1  0  0  3  0  0  0  0  0  0
  185.9230  178.2800  143.0410 C   0  0  0  0  0  0  0  0  0  0  0  0
  187.6460  177.8990  138.5120 C   0  0  0  0  0  3  0  0  0  0  0  0
  186.3220  178.2490  137.9680 C   0  0  0  0  0  3  0  0  0  0  0  0
  183.5110  178.7890  143.4630 C   0  0  0  0  0  0  0  0  0  0  0  0
  182.2410  179.0140  142.8540 N   0  0  0  0  0  0  0  0  0  0  0  0
  186.8730  176.7380  144.3550 C   0  0  1  0  0  3  0  0  0  0  0  0
  188.3840  177.7680  142.6650 C   0  0  0  0  0  2  0  0  0  0  0  0
  180.6800  179.2230  141.3360 C   0  0  0  0  0  0  0  0  0  0  0  0
  189.0670  177.9110  145.1050 C   0  0  2  0  0  3  0  0  0  0  0  0
  187.9180  178.0430  139.8120 C   0  0  0  0  0  3  0  0  0  0  0  0
  187.0430  178.1290  142.1260 N   0  0  0  0  0  0  0  0  0  0  0  0
  186.9250  178.6660  140.7670 C   0  0  2  0  0  3  0  0  0  0  0  0
  184.4550  178.6060  141.0940 C   0  0  0  0  0  0  0  0  0  0  0  0
  180.0780  179.4500  142.5230 N   0  0  0  0  0  0  0  0  0  0  0  0
  187.1120  177.2320  146.7410 C   0  0  0  0  0  2  0  0  0  0  0  0
  188.3330  177.0600  144.0530 C   0  0  1  0  0  3  0  0  0  0  0  0
  181.0650  179.3150  143.4410 C   0  0  0  0  0  3  0  0  0  0  0  0
  186.1240  177.0900  145.5770 C   0  0  1  0  0  3  0  0  0  0  0  0
  189.5350  177.0500  146.2590 C   0  0  1  0  0  3  0  0  0  0  0  0
  185.3090  178.5560  138.7790 C   0  0  0  0  0  3  0  0  0  0  0  0
  185.5030  178.5780  140.2470 C   0  0  0  0  0  0  0  0  0  0  0  0
  183.0460  178.5730  140.5310 C   0  0  0  0  0  2  0  0  0  0  0  0
  186.2710  178.1550  144.4890 C   0  0  2  0  0  3  0  0  0  0  0  0
  183.6170  178.8210  144.7180 O   0  0  0  0  0  0  0  0  0  0  0  0
  179.9720  179.2400  140.0270 C   0  0  0  0  0  1  0  0  0  0  0  0
  184.6830  178.5490  142.5750 C   0  0  0  0  0  0  0  0  0  0  0  0
  182.0120  178.9630  141.5400 C   0  0  0  0  0  0  0  0  0  0  0  0
  190.7390  177.5860  146.7860 O   0  0  0  0  0  0  0  0  0  0  0  0
  191.7210  176.7840  147.3730 C   0  0  0  0  0  0  0  0  0  0  0  0
  192.1530  175.4980  146.7510 C   0  0  0  0  0  1  0  0  0  0  0  0
  192.2540  177.1520  148.4500 O   0  0  0  0  0  0  0  0  0  0  0  0
  1 16  1  6  0  0  0
  2 24  1  0  0  0  0
  3 11  2  0  0  0  0
  4  3  1  0  0  0  0
  4 21  2  0  0  0  0
  5 25  2  0  0  0  0
  6 18  1  0  0  0  0
  6  5  1  0  0  0  0
  7 24  1  0  0  0  0
  7 19  1  0  0  0  0
  8 17  1  0  0  0  0
  9 28  2  0  0  0  0
  9 15  1  0  0  0  0
 10 20  1  0  0  0  0
 10  1  1  0  0  0  0
 11 13  1  0  0  0  0
 12  8  1  0  0  0  0
 12  2  1  0  0  0  0
 13 12  1  0  0  0  0
 14 27  1  0  0  0  0
 15 18  2  0  0  0  0
 17  7  1  0  0  0  0
 17 10  1  0  0  0  0
 19 16  1  0  0  0  0
 20  1  1  0  0  0  0
 20 29  1  0  0  0  0
 21 22  1  0  0  0  0
 22 13  1  0  0  0  0
 22 14  2  0  0  0  0
 23 14  1  0  0  0  0
 23 28  1  0  0  0  0
 24 19  1  0  0  0  0
 26  9  1  0  0  0  0
 27  2  2  0  0  0  0
 27  5  1  0  0  0  0
 28  6  1  0  0  0  0
 29 30  1  0  0  0  0
 30 32  2  0  0  0  0
 31 30  1  0  0  0  0
M  END
>  <MODEL>
1

>  <REMARK>
 VINA RESULT:     -10.5      0.000      0.000
  Name = 
  2 active torsions:
  status: ('A' for Active; 'I' for Inactive)
    1  A    between atoms: C_20  and  O_29
    2  A    between atoms: O_29  and  C_30
                            x       y       z     vdW  Elec       q    Type
                         _______ _______ _______ _____ _____    ______ ____

>  <TORSDO>
F 2

$$$$
=
 OpenBabel11122410413D

 32 39  0  0  1  0  0  0  0  0999 V2000
  188.3750  177.9600  146.2890 C   0  0  1  0  0  3  0  0  0  0  0  0
  186.9050  178.1230  142.3000 C   0  0  0  0  0  0  0  0  0  0  0  0
  189.7590  177.5640  138.4050 C   0  0  0  0  0  3  0  0  0  0  0  0
  188.6350  177.9140  137.5190 C   0  0  0  0  0  3  0  0  0  0  0  0
  184.4800  178.6810  142.0500 C   0  0  0  0  0  0  0  0  0  0  0  0
  183.4230  178.9030  141.1200 N   0  0  0  0  0  0  0  0  0  0  0  0
  187.4370  176.6140  143.8630 C   0  0  1  0  0  3  0  0  0  0  0  0
  189.3660  177.5640  142.6070 C   0  0  0  0  0  2  0  0  0  0  0  0
  182.3250  179.0810  139.2350 C   0  0  0  0  0  0  0  0  0  0  0  0
  189.3800  177.7810  145.1360 C   0  0  2  0  0  3  0  0  0  0  0  0
  189.6800  177.7480  139.7260 C   0  0  0  0  0  3  0  0  0  0  0  0
  188.2240  177.9250  141.7210 N   0  0  0  0  0  0  0  0  0  0  0  0
  188.4830  178.4170  140.3640 C   0  0  2  0  0  3  0  0  0  0  0  0
  186.0140  178.4040  140.0240 C   0  0  0  0  0  0  0  0  0  0  0  0
  181.4350  179.3580  140.2130 N   0  0  0  0  0  0  0  0  0  0  0  0
  187.0460  177.1850  146.2110 C   0  0  0  0  0  2  0  0  0  0  0  0
  188.9320  176.9050  143.9510 C   0  0  1  0  0  3  0  0  0  0  0  0
  182.1400  179.2400  141.3640 C   0  0  0  0  0  3  0  0  0  0  0  0
  186.4000  177.0180  144.8310 C   0  0  1  0  0  3  0  0  0  0  0  0
  189.5060  176.9530  146.3960 C   0  0  1  0  0  3  0  0  0  0  0  0
  187.4500  178.2630  138.0220 C   0  0  0  0  0  3  0  0  0  0  0  0
  187.2490  178.3320  139.4870 C   0  0  0  0  0  0  0  0  0  0  0  0
  184.8040  178.3720  139.1080 C   0  0  0  0  0  2  0  0  0  0  0  0
  186.8540  178.0430  143.7910 C   0  0  2  0  0  3  0  0  0  0  0  0
  184.2500  178.7540  143.2870 O   0  0  0  0  0  0  0  0  0  0  0  0
  181.9900  179.0640  137.7850 C   0  0  0  0  0  1  0  0  0  0  0  0
  185.8400  178.3940  141.5130 C   0  0  0  0  0  0  0  0  0  0  0  0
  183.5490  178.8100  139.7940 C   0  0  0  0  0  0  0  0  0  0  0  0
  190.5390  177.4900  147.2090 O   0  0  0  0  0  0  0  0  0  0  0  0
  191.6860  176.7640  147.5370 C   0  0  0  0  0  0  0  0  0  0  0  0
  192.1100  175.5740  146.7430 C   0  0  0  0  0  1  0  0  0  0  0  0
  192.3780  177.1190  148.5250 O   0  0  0  0  0  0  0  0  0  0  0  0
  1 16  1  6  0  0  0
  1 20  1  0  0  0  0
  2 24  1  0  0  0  0
  3 11  2  0  0  0  0
  4 21  2  0  0  0  0
  4  3  1  0  0  0  0
  5 25  2  0  0  0  0
  6 18  1  0  0  0  0
  6  5  1  0  0  0  0
  7 17  1  0  0  0  0
  7 19  1  0  0  0  0
  8 17  1  0  0  0  0
  9 28  2  0  0  0  0
  9 15  1  0  0  0  0
 10  1  1  0  0  0  0
 10 20  1  0  0  0  0
 11 13  1  0  0  0  0
 12  2  1  0  0  0  0
 12  8  1  0  0  0  0
 13 12  1  0  0  0  0
 14 27  1  0  0  0  0
 15 18  2  0  0  0  0
 17 10  1  0  0  0  0
 19 16  1  0  0  0  0
 20 29  1  0  0  0  0
 21 22  1  0  0  0  0
 22 14  2  0  0  0  0
 22 13  1  0  0  0  0
 23 28  1  0  0  0  0
 23 14  1  0  0  0  0
 24  7  1  0  0  0  0
 24 19  1  0  0  0  0
 26  9  1  0  0  0  0
 27  5  1  0  0  0  0
 27  2  2  0  0  0  0
 28  6  1  0  0  0  0
 29 30  1  0  0  0  0
 30 32  2  0  0  0  0
 31 30  1  0  0  0  0
M  END
>  <MODEL>
2

>  <REMARK>
 VINA RESULT:      -9.9      1.225      1.657
  Name = 
  2 active torsions:
  status: ('A' for Active; 'I' for Inactive)
    1  A    between atoms: C_20  and  O_29
    2  A    between atoms: O_29  and  C_30
                            x       y       z     vdW  Elec       q    Type
                         _______ _______ _______ _____ _____    ______ ____

>  <TORSDO>
F 2

$$$$
=
 OpenBabel11122410413D

 32 39  0  0  1  0  0  0  0  0999 V2000
  189.9570  176.9680  139.5320 C   0  0  1  0  0  3  0  0  0  0  0  0
  187.0220  177.9080  142.4660 C   0  0  0  0  0  0  0  0  0  0  0  0
  187.9900  178.0370  147.2280 C   0  0  0  0  0  3  0  0  0  0  0  0
  186.5590  178.2260  147.5230 C   0  0  0  0  0  3  0  0  0  0  0  0
  184.6960  178.2520  141.6140 C   0  0  0  0  0  0  0  0  0  0  0  0
  183.3500  178.5430  141.9810 N   0  0  0  0  0  0  0  0  0  0  0  0
  188.6710  178.8970  141.3220 C   0  0  1  0  0  3  0  0  0  0  0  0
  189.4030  177.5460  143.2810 C   0  0  0  0  0  2  0  0  0  0  0  0
  181.5910  179.0310  143.1880 C   0  0  0  0  0  0  0  0  0  0  0  0
  190.3810  176.9640  141.0130 C   0  0  2  0  0  3  0  0  0  0  0  0
  188.4030  177.6970  146.0030 C   0  0  0  0  0  3  0  0  0  0  0  0
  187.9530  177.7300  143.5690 N   0  0  0  0  0  0  0  0  0  0  0  0
  187.4240  177.3870  144.8930 C   0  0  2  0  0  3  0  0  0  0  0  0
  185.2350  178.2890  144.1130 C   0  0  0  0  0  0  0  0  0  0  0  0
  181.1530  178.9310  141.9140 N   0  0  0  0  0  0  0  0  0  0  0  0
  189.1070  178.1500  139.0310 C   0  0  0  0  0  2  0  0  0  0  0  0
  189.8430  178.1060  141.8950 C   0  0  1  0  0  3  0  0  0  0  0  0
  182.2600  178.6300  141.1920 C   0  0  0  0  0  3  0  0  0  0  0  0
  188.0600  178.7300  139.9890 C   0  0  1  0  0  3  0  0  0  0  0  0
  191.3150  177.5030  139.9500 C   0  0  1  0  0  3  0  0  0  0  0  0
  185.6520  178.2300  146.5440 C   0  0  0  0  0  3  0  0  0  0  0  0
  186.0660  178.0160  145.1390 C   0  0  0  0  0  0  0  0  0  0  0  0
  183.8620  178.8660  144.4040 C   0  0  0  0  0  2  0  0  0  0  0  0
  187.6270  177.7790  141.1050 C   0  0  2  0  0  3  0  0  0  0  0  0
  184.9900  178.0790  140.4010 O   0  0  0  0  0  0  0  0  0  0  0  0
  180.7180  179.3760  144.3430 C   0  0  0  0  0  1  0  0  0  0  0  0
  185.7110  178.1360  142.6990 C   0  0  0  0  0  0  0  0  0  0  0  0
  182.9400  178.7830  143.2290 C   0  0  0  0  0  0  0  0  0  0  0  0
  192.3110  176.5320  139.6650 O   0  0  0  0  0  0  0  0  0  0  0  0
  192.7570  176.2780  138.3660 C   0  0  0  0  0  0  0  0  0  0  0  0
  192.3100  175.0730  137.6080 C   0  0  0  0  0  1  0  0  0  0  0  0
  193.5560  177.0830  137.8210 O   0  0  0  0  0  0  0  0  0  0  0  0
  1 16  1  1  0  0  0
  1 20  1  0  0  0  0
  1 10  1  0  0  0  0
  2 27  2  0  0  0  0
  2 12  1  0  0  0  0
  3  4  1  0  0  0  0
  5  6  1  0  0  0  0
  5 27  1  0  0  0  0
  6 28  1  0  0  0  0
  7 17  1  0  0  0  0
  8 12  1  0  0  0  0
  9 28  2  0  0  0  0
  9 26  1  0  0  0  0
 10 17  1  0  0  0  0
 11  3  2  0  0  0  0
 12 13  1  0  0  0  0
 13 22  1  0  0  0  0
 13 11  1  0  0  0  0
 14 23  1  0  0  0  0
 14 22  2  0  0  0  0
 15  9  1  0  0  0  0
 16 19  1  0  0  0  0
 17  8  1  0  0  0  0
 18 15  2  0  0  0  0
 18  6  1  0  0  0  0
 19 24  1  0  0  0  0
 19  7  1  0  0  0  0
 20 10  1  0  0  0  0
 21  4  2  0  0  0  0
 22 21  1  0  0  0  0
 24  7  1  0  0  0  0
 24  2  1  0  0  0  0
 25  5  2  0  0  0  0
 27 14  1  0  0  0  0
 28 23  1  0  0  0  0
 29 20  1  0  0  0  0
 30 29  1  0  0  0  0
 31 30  1  0  0  0  0
 32 30  2  0  0  0  0
M  END
>  <MODEL>
3

>  <REMARK>
 VINA RESULT:      -9.7      2.957      5.584
  Name = 
  2 active torsions:
  status: ('A' for Active; 'I' for Inactive)
    1  A    between atoms: C_20  and  O_29
    2  A    between atoms: O_29  and  C_30
                            x       y       z     vdW  Elec       q    Type
                         _______ _______ _______ _____ _____    ______ ____

>  <TORSDO>
F 2

$$$$
=
 OpenBabel11122410413D

 32 39  0  0  1  0  0  0  0  0999 V2000
  181.9400  179.8040  139.0330 C   0  0  1  0  0  3  0  0  0  0  0  0
  185.0930  178.6170  141.6310 C   0  0  0  0  0  0  0  0  0  0  0  0
  184.5560  178.2530  146.4480 C   0  0  0  0  0  3  0  0  0  0  0  0
  186.0000  178.0070  146.6000 C   0  0  0  0  0  3  0  0  0  0  0  0
  187.3200  178.2530  140.5520 C   0  0  0  0  0  0  0  0  0  0  0  0
  188.6830  177.9020  140.7780 N   0  0  0  0  0  0  0  0  0  0  0  0
  183.3150  177.7420  140.5930 C   0  0  1  0  0  3  0  0  0  0  0  0
  182.8100  179.0030  142.6790 C   0  0  0  0  0  2  0  0  0  0  0  0
  190.5260  177.2980  141.7900 C   0  0  0  0  0  0  0  0  0  0  0  0
  181.6510  179.7380  140.5450 C   0  0  2  0  0  3  0  0  0  0  0  0
  184.0460  178.6730  145.2860 C   0  0  0  0  0  3  0  0  0  0  0  0
  184.2730  178.7610  142.8230 N   0  0  0  0  0  0  0  0  0  0  0  0
  184.9310  179.0150  144.1090 C   0  0  2  0  0  3  0  0  0  0  0  0
  187.0080  178.0940  143.0850 C   0  0  0  0  0  0  0  0  0  0  0  0
  190.8510  177.4550  140.4890 N   0  0  0  0  0  0  0  0  0  0  0  0
  182.7000  178.6260  138.3950 C   0  0  0  0  0  2  0  0  0  0  0  0
  182.2280  178.5330  141.3130 C   0  0  1  0  0  3  0  0  0  0  0  0
  189.6940  177.8280  139.8890 C   0  0  0  0  0  3  0  0  0  0  0  0
  183.8090  177.9640  139.2200 C   0  0  1  0  0  3  0  0  0  0  0  0
  180.6080  179.2860  139.5460 C   0  0  1  0  0  3  0  0  0  0  0  0
  186.8140  178.0300  145.5440 C   0  0  0  0  0  3  0  0  0  0  0  0
  186.2830  178.3330  144.1950 C   0  0  0  0  0  0  0  0  0  0  0  0
  188.3810  177.4610  143.2170 C   0  0  0  0  0  2  0  0  0  0  0  0
  184.3730  178.8390  140.3400 C   0  0  2  0  0  3  0  0  0  0  0  0
  186.9240  178.5010  139.3810 O   0  0  0  0  0  0  0  0  0  0  0  0
  191.4870  176.8640  142.8410 C   0  0  0  0  0  1  0  0  0  0  0  0
  186.4120  178.3380  141.7300 C   0  0  0  0  0  0  0  0  0  0  0  0
  189.1950  177.5820  141.9680 C   0  0  0  0  0  0  0  0  0  0  0  0
  179.6230  180.2990  139.4050 O   0  0  0  0  0  0  0  0  0  0  0  0
  179.4530  181.0160  138.2170 C   0  0  0  0  0  0  0  0  0  0  0  0
  179.6460  182.4950  138.1640 C   0  0  0  0  0  1  0  0  0  0  0  0
  179.1280  180.4030  137.1690 O   0  0  0  0  0  0  0  0  0  0  0  0
  1 16  1  1  0  0  0
  1 20  1  0  0  0  0
  1 10  1  0  0  0  0
  2 27  2  0  0  0  0
  2 12  1  0  0  0  0
  3  4  1  0  0  0  0
  5  6  1  0  0  0  0
  5 27  1  0  0  0  0
  6 28  1  0  0  0  0
  7 17  1  0  0  0  0
  8 12  1  0  0  0  0
  9 28  2  0  0  0  0
  9 26  1  0  0  0  0
 10 17  1  0  0  0  0
 11  3  2  0  0  0  0
 12 13  1  0  0  0  0
 13 22  1  0  0  0  0
 13 11  1  0  0  0  0
 14 23  1  0  0  0  0
 14 22  2  0  0  0  0
 15  9  1  0  0  0  0
 16 19  1  0  0  0  0
 17  8  1  0  0  0  0
 18 15  2  0  0  0  0
 18  6  1  0  0  0  0
 19 24  1  0  0  0  0
 19  7  1  0  0  0  0
 20 10  1  0  0  0  0
 21  4  2  0  0  0  0
 22 21  1  0  0  0  0
 24  7  1  0  0  0  0
 24  2  1  0  0  0  0
 25  5  2  0  0  0  0
 27 14  1  0  0  0  0
 28 23  1  0  0  0  0
 29 20  1  0  0  0  0
 30 29  1  0  0  0  0
 31 30  1  0  0  0  0
 32 30  2  0  0  0  0
M  END
>  <MODEL>
4

>  <REMARK>
 VINA RESULT:      -9.7      3.261      8.947
  Name = 
  2 active torsions:
  status: ('A' for Active; 'I' for Inactive)
    1  A    between atoms: C_20  and  O_29
    2  A    between atoms: O_29  and  C_30
                            x       y       z     vdW  Elec       q    Type
                         _______ _______ _______ _____ _____    ______ ____

>  <TORSDO>
F 2

$$$$
=
 OpenBabel11122410413D

 32 39  0  0  1  0  0  0  0  0999 V2000
  191.6010  176.1990  144.9250 C   0  0  1  0  0  3  0  0  0  0  0  0
  187.9090  177.6950  143.4320 C   0  0  0  0  0  0  0  0  0  0  0  0
  184.1400  178.7790  146.3050 C   0  0  0  0  0  3  0  0  0  0  0  0
  183.2940  179.0160  145.1210 C   0  0  0  0  0  3  0  0  0  0  0  0
  187.7180  177.8500  140.9430 C   0  0  0  0  0  0  0  0  0  0  0  0
  186.8640  178.2030  139.8580 N   0  0  0  0  0  0  0  0  0  0  0  0
  189.8090  178.4410  144.3460 C   0  0  1  0  0  3  0  0  0  0  0  0
  188.1510  177.5140  145.9560 C   0  0  0  0  0  2  0  0  0  0  0  0
  185.1240  178.9130  138.7370 C   0  0  0  0  0  0  0  0  0  0  0  0
  190.4750  176.4940  145.9330 C   0  0  2  0  0  3  0  0  0  0  0  0
  185.3400  178.2020  146.1900 C   0  0  0  0  0  3  0  0  0  0  0  0
  187.3030  177.7450  144.7530 N   0  0  0  0  0  0  0  0  0  0  0  0
  185.8430  177.6720  144.8660 C   0  0  2  0  0  3  0  0  0  0  0  0
  185.7480  178.3890  142.4820 C   0  0  0  0  0  0  0  0  0  0  0  0
  186.0430  178.5590  137.8130 N   0  0  0  0  0  0  0  0  0  0  0  0
  191.8890  177.2540  143.8390 C   0  0  0  0  0  2  0  0  0  0  0  0
  189.6670  177.7870  145.7170 C   0  0  1  0  0  3  0  0  0  0  0  0
  187.1060  178.1240  138.5340 C   0  0  0  0  0  3  0  0  0  0  0  0
  190.6930  178.0090  143.2470 C   0  0  1  0  0  3  0  0  0  0  0  0
  191.9140  176.8140  146.2770 C   0  0  1  0  0  3  0  0  0  0  0  0
  183.7680  178.8200  143.8900 C   0  0  0  0  0  3  0  0  0  0  0  0
  185.1510  178.3310  143.6890 C   0  0  0  0  0  0  0  0  0  0  0  0
  185.0010  179.0060  141.3140 C   0  0  0  0  0  2  0  0  0  0  0  0
  189.3490  177.2980  143.4150 C   0  0  2  0  0  3  0  0  0  0  0  0
  188.8860  177.4390  140.7110 O   0  0  0  0  0  0  0  0  0  0  0  0
  183.7880  179.4790  138.4070 C   0  0  0  0  0  1  0  0  0  0  0  0
  187.1760  177.9580  142.3270 C   0  0  0  0  0  0  0  0  0  0  0  0
  185.6270  178.6860  139.9940 C   0  0  0  0  0  0  0  0  0  0  0  0
  192.4230  175.8100  147.1430 O   0  0  0  0  0  0  0  0  0  0  0  0
  192.7060  176.0570  148.4890 C   0  0  0  0  0  0  0  0  0  0  0  0
  193.0490  174.9520  149.4300 C   0  0  0  0  0  1  0  0  0  0  0  0
  192.6680  177.2380  148.9190 O   0  0  0  0  0  0  0  0  0  0  0  0
  1 16  1  6  0  0  0
  1 10  1  0  0  0  0
  1 20  1  0  0  0  0
  2 12  1  0  0  0  0
  4  3  1  0  0  0  0
  5 27  1  0  0  0  0
  6 28  1  0  0  0  0
  6  5  1  0  0  0  0
  7 17  1  0  0  0  0
  9 28  2  0  0  0  0
 10 20  1  0  0  0  0
 11  3  2  0  0  0  0
 12 13  1  0  0  0  0
 12  8  1  0  0  0  0
 13 11  1  0  0  0  0
 14 22  2  0  0  0  0
 15 18  2  0  0  0  0
 15  9  1  0  0  0  0
 17 10  1  0  0  0  0
 17  8  1  0  0  0  0
 18  6  1  0  0  0  0
 19 24  1  0  0  0  0
 19 16  1  0  0  0  0
 19  7  1  0  0  0  0
 20 29  1  0  0  0  0
 21  4  2  0  0  0  0
 22 21  1  0  0  0  0
 22 13  1  0  0  0  0
 23 14  1  0  0  0  0
 24  2  1  0  0  0  0
 24  7  1  0  0  0  0
 25  5  2  0  0  0  0
 26  9  1  0  0  0  0
 27 14  1  0  0  0  0
 27  2  2  0  0  0  0
 28 23  1  0  0  0  0
 29 30  1  0  0  0  0
 30 32  2  0  0  0  0
 30 31  1  0  0  0  0
M  END
>  <MODEL>
5

>  <REMARK>
 VINA RESULT:      -9.6      2.602      4.647
  Name = 
  2 active torsions:
  status: ('A' for Active; 'I' for Inactive)
    1  A    between atoms: C_20  and  O_29
    2  A    between atoms: O_29  and  C_30
                            x       y       z     vdW  Elec       q    Type
                         _______ _______ _______ _____ _____    ______ ____

>  <TORSDO>
F 2

$$$$
=
 OpenBabel11122410413D

 32 39  0  0  1  0  0  0  0  0999 V2000
  182.9080  178.2380  141.5290 C   0  0  1  0  0  3  0  0  0  0  0  0
  186.9520  177.8300  142.7850 C   0  0  0  0  0  0  0  0  0  0  0  0
  190.6910  177.7380  139.6790 C   0  0  0  0  0  3  0  0  0  0  0  0
  191.6110  177.4120  140.7820 C   0  0  0  0  0  3  0  0  0  0  0  0
  187.3060  177.4820  145.2360 C   0  0  0  0  0  0  0  0  0  0  0  0
  188.2790  177.2720  146.2570 N   0  0  0  0  0  0  0  0  0  0  0  0
  185.5020  179.4250  142.1920 C   0  0  1  0  0  3  0  0  0  0  0  0
  186.5390  178.1810  140.3010 C   0  0  0  0  0  2  0  0  0  0  0  0
  190.2060  177.0170  147.2620 C   0  0  0  0  0  0  0  0  0  0  0  0
  184.0060  178.2090  140.4480 C   0  0  2  0  0  3  0  0  0  0  0  0
  189.3660  177.6910  139.8490 C   0  0  0  0  0  3  0  0  0  0  0  0
  187.4610  177.8450  141.4230 N   0  0  0  0  0  0  0  0  0  0  0  0
  188.7480  177.2020  141.1400 C   0  0  2  0  0  3  0  0  0  0  0  0
  189.2460  177.4160  143.5730 C   0  0  0  0  0  0  0  0  0  0  0  0
  189.2660  176.9210  148.2280 N   0  0  0  0  0  0  0  0  0  0  0  0
  183.1410  179.1230  142.7670 C   0  0  0  0  0  2  0  0  0  0  0  0
  185.2920  179.0050  140.7400 C   0  0  1  0  0  3  0  0  0  0  0  0
  188.0880  177.0830  147.5790 C   0  0  0  0  0  3  0  0  0  0  0  0
  184.5690  179.2170  143.3160 C   0  0  1  0  0  3  0  0  0  0  0  0
  182.8200  179.1390  140.3100 C   0  0  1  0  0  3  0  0  0  0  0  0
  191.1560  177.2270  142.0220 C   0  0  0  0  0  3  0  0  0  0  0  0
  189.7070  177.3190  142.3100 C   0  0  0  0  0  0  0  0  0  0  0  0
  190.2370  177.4740  144.7210 C   0  0  0  0  0  2  0  0  0  0  0  0
  185.4810  178.0580  142.9100 C   0  0  2  0  0  3  0  0  0  0  0  0
  186.0850  177.5510  145.5410 O   0  0  0  0  0  0  0  0  0  0  0  0
  191.6700  176.9260  147.5130 C   0  0  0  0  0  1  0  0  0  0  0  0
  187.7780  177.5860  143.8270 C   0  0  0  0  0  0  0  0  0  0  0  0
  189.5960  177.2240  146.0490 C   0  0  0  0  0  0  0  0  0  0  0  0
  181.8970  178.5880  139.3830 O   0  0  0  0  0  0  0  0  0  0  0  0
  181.9460  178.8780  138.0170 C   0  0  0  0  0  0  0  0  0  0  0  0
  182.4630  177.8880  137.0270 C   0  0  0  0  0  1  0  0  0  0  0  0
  181.5480  179.9990  137.6110 O   0  0  0  0  0  0  0  0  0  0  0  0
  1 16  1  1  0  0  0
  2 24  1  0  0  0  0
  2 27  2  0  0  0  0
  3 11  2  0  0  0  0
  3  4  1  0  0  0  0
  4 21  2  0  0  0  0
  5 25  2  0  0  0  0
  5  6  1  0  0  0  0
  6 18  1  0  0  0  0
  7 24  1  0  0  0  0
  7 19  1  0  0  0  0
  8 17  1  0  0  0  0
  8 12  1  0  0  0  0
  9 26  1  0  0  0  0
  9 15  1  0  0  0  0
 10 17  1  0  0  0  0
 10  1  1  0  0  0  0
 11 13  1  0  0  0  0
 12  2  1  0  0  0  0
 13 12  1  0  0  0  0
 13 22  1  0  0  0  0
 14 27  1  0  0  0  0
 14 23  1  0  0  0  0
 16 19  1  0  0  0  0
 17  7  1  0  0  0  0
 18 15  2  0  0  0  0
 20 10  1  0  0  0  0
 20  1  1  0  0  0  0
 21 22  1  0  0  0  0
 22 14  2  0  0  0  0
 23 28  1  0  0  0  0
 24 19  1  0  0  0  0
 27  5  1  0  0  0  0
 28  6  1  0  0  0  0
 28  9  2  0  0  0  0
 29 20  1  0  0  0  0
 30 29  1  0  0  0  0
 31 30  1  0  0  0  0
 32 30  2  0  0  0  0
M  END
>  <MODEL>
6

>  <REMARK>
 VINA RESULT:      -9.5      2.698      7.833
  Name = 
  2 active torsions:
  status: ('A' for Active; 'I' for Inactive)
    1  A    between atoms: C_20  and  O_29
    2  A    between atoms: O_29  and  C_30
                            x       y       z     vdW  Elec       q    Type
                         _______ _______ _______ _____ _____    ______ ____

>  <TORSDO>
F 2

$$$$
=
 OpenBabel11122410413D

 32 39  0  0  1  0  0  0  0  0999 V2000
  189.9550  176.6230  137.9810 C   0  0  1  0  0  3  0  0  0  0  0  0
  188.8060  177.2720  142.0250 C   0  0  0  0  0  0  0  0  0  0  0  0
  191.7920  176.4880  145.7810 C   0  0  0  0  0  3  0  0  0  0  0  0
  190.6870  176.7380  146.7230 C   0  0  0  0  0  3  0  0  0  0  0  0
  186.4260  177.9470  142.3910 C   0  0  0  0  0  0  0  0  0  0  0  0
  185.4440  178.2780  143.3690 N   0  0  0  0  0  0  0  0  0  0  0  0
  189.9060  178.3080  140.3750 C   0  0  1  0  0  3  0  0  0  0  0  0
  191.2160  176.5810  141.6010 C   0  0  0  0  0  2  0  0  0  0  0  0
  184.4990  178.6890  145.3000 C   0  0  0  0  0  0  0  0  0  0  0  0
  190.9860  176.3260  139.0860 C   0  0  2  0  0  3  0  0  0  0  0  0
  191.5610  176.3340  144.4740 C   0  0  0  0  0  3  0  0  0  0  0  0
  190.0900  176.8290  142.5450 N   0  0  0  0  0  0  0  0  0  0  0  0
  190.1570  176.3040  143.9130 C   0  0  2  0  0  3  0  0  0  0  0  0
  188.0160  177.5030  144.3440 C   0  0  0  0  0  0  0  0  0  0  0  0
  183.5320  178.8490  144.3700 N   0  0  0  0  0  0  0  0  0  0  0  0
  189.1620  177.9400  138.0720 C   0  0  0  0  0  2  0  0  0  0  0  0
  191.0750  177.3360  140.2450 C   0  0  1  0  0  3  0  0  0  0  0  0
  184.1440  178.5890  143.1890 C   0  0  0  0  0  3  0  0  0  0  0  0
  188.7500  178.4270  139.4660 C   0  0  1  0  0  3  0  0  0  0  0  0
  191.4210  176.9650  137.7850 C   0  0  1  0  0  3  0  0  0  0  0  0
  189.4530  176.9860  146.2820 C   0  0  0  0  0  3  0  0  0  0  0  0
  189.1630  176.9890  144.8300 C   0  0  0  0  0  0  0  0  0  0  0  0
  187.0190  178.1300  145.3010 C   0  0  0  0  0  2  0  0  0  0  0  0
  188.7180  177.3330  140.5350 C   0  0  2  0  0  3  0  0  0  0  0  0
  186.1210  177.9650  141.1680 O   0  0  0  0  0  0  0  0  0  0  0  0
  184.2930  178.8970  146.7590 C   0  0  0  0  0  1  0  0  0  0  0  0
  187.7850  177.5610  142.8630 C   0  0  0  0  0  0  0  0  0  0  0  0
  185.6720  178.3290  144.6840 C   0  0  0  0  0  0  0  0  0  0  0  0
  192.0280  175.9810  136.9600 O   0  0  0  0  0  0  0  0  0  0  0  0
  193.3880  175.6720  137.0410 C   0  0  0  0  0  0  0  0  0  0  0  0
  193.8580  174.3340  137.5050 C   0  0  0  0  0  1  0  0  0  0  0  0
  194.2370  176.5410  136.7180 O   0  0  0  0  0  0  0  0  0  0  0  0
  1 16  1  1  0  0  0
  1 10  1  0  0  0  0
  2 12  1  0  0  0  0
  2 27  2  0  0  0  0
  3  4  1  0  0  0  0
  5 27  1  0  0  0  0
  5  6  1  0  0  0  0
  6 28  1  0  0  0  0
  7 24  1  0  0  0  0
  8 12  1  0  0  0  0
  9 26  1  0  0  0  0
 10 17  1  0  0  0  0
 11  3  2  0  0  0  0
 12 13  1  0  0  0  0
 13 11  1  0  0  0  0
 13 22  1  0  0  0  0
 14 22  2  0  0  0  0
 14 23  1  0  0  0  0
 15  9  1  0  0  0  0
 16 19  1  0  0  0  0
 17  7  1  0  0  0  0
 17  8  1  0  0  0  0
 18  6  1  0  0  0  0
 18 15  2  0  0  0  0
 19  7  1  0  0  0  0
 19 24  1  0  0  0  0
 20  1  1  0  0  0  0
 20 10  1  0  0  0  0
 21  4  2  0  0  0  0
 22 21  1  0  0  0  0
 24  2  1  0  0  0  0
 25  5  2  0  0  0  0
 27 14  1  0  0  0  0
 28  9  2  0  0  0  0
 28 23  1  0  0  0  0
 29 30  1  0  0  0  0
 29 20  1  0  0  0  0
 30 31  1  0  0  0  0
 32 30  2  0  0  0  0
M  END
>  <MODEL>
7

>  <REMARK>
 VINA RESULT:      -9.5      3.727      6.786
  Name = 
  2 active torsions:
  status: ('A' for Active; 'I' for Inactive)
    1  A    between atoms: C_20  and  O_29
    2  A    between atoms: O_29  and  C_30
                            x       y       z     vdW  Elec       q    Type
                         _______ _______ _______ _____ _____    ______ ____

>  <TORSDO>
F 2

$$$$
=
 OpenBabel11122410413D

 32 39  0  0  1  0  0  0  0  0999 V2000
  191.3850  176.6230  145.5430 C   0  0  1  0  0  3  0  0  0  0  0  0
  188.5010  177.7270  142.6170 C   0  0  0  0  0  0  0  0  0  0  0  0
  183.9230  178.9230  143.7350 C   0  0  0  0  0  3  0  0  0  0  0  0
  183.5770  178.9740  142.3040 C   0  0  0  0  0  3  0  0  0  0  0  0
  189.2490  177.5830  140.2350 C   0  0  0  0  0  0  0  0  0  0  0  0
  188.8580  177.7590  138.8760 N   0  0  0  0  0  0  0  0  0  0  0  0
  189.9170  178.6800  144.0630 C   0  0  1  0  0  3  0  0  0  0  0  0
  187.7880  177.8530  145.0540 C   0  0  0  0  0  2  0  0  0  0  0  0
  187.6540  178.2370  137.1120 C   0  0  0  0  0  0  0  0  0  0  0  0
  189.9620  176.9690  146.0200 C   0  0  2  0  0  3  0  0  0  0  0  0
  185.0850  178.4050  144.1460 C   0  0  0  0  0  3  0  0  0  0  0  0
  187.4460  177.8960  143.6040 N   0  0  0  0  0  0  0  0  0  0  0  0
  186.0500  177.7540  143.1800 C   0  0  2  0  0  3  0  0  0  0  0  0
  186.8430  178.1850  140.8570 C   0  0  0  0  0  0  0  0  0  0  0  0
  188.8550  177.8300  136.6450 N   0  0  0  0  0  0  0  0  0  0  0  0
  192.0460  177.5600  144.5150 C   0  0  0  0  0  2  0  0  0  0  0  0
  189.2800  178.1810  145.3570 C   0  0  1  0  0  3  0  0  0  0  0  0
  189.5760  177.5420  137.7560 C   0  0  0  0  0  3  0  0  0  0  0  0
  191.1510  178.1730  143.4320 C   0  0  1  0  0  3  0  0  0  0  0  0
  191.1660  177.4060  146.8250 C   0  0  1  0  0  3  0  0  0  0  0  0
  184.4780  178.6640  141.3700 C   0  0  0  0  0  3  0  0  0  0  0  0
  185.8410  178.2330  141.7570 C   0  0  0  0  0  0  0  0  0  0  0  0
  186.5790  178.6200  139.4270 C   0  0  0  0  0  2  0  0  0  0  0  0
  189.8480  177.4120  143.1820 C   0  0  2  0  0  3  0  0  0  0  0  0
  190.4240  177.2140  140.5050 O   0  0  0  0  0  0  0  0  0  0  0  0
  186.5320  178.6850  136.2430 C   0  0  0  0  0  1  0  0  0  0  0  0
  188.2300  177.8190  141.2960 C   0  0  0  0  0  0  0  0  0  0  0  0
  187.6550  178.1840  138.4840 C   0  0  0  0  0  0  0  0  0  0  0  0
  191.3250  176.5400  147.9390 O   0  0  0  0  0  0  0  0  0  0  0  0
  192.5810  176.1280  148.3920 C   0  0  0  0  0  0  0  0  0  0  0  0
  193.2010  176.7170  149.6140 C   0  0  0  0  0  1  0  0  0  0  0  0
  193.2040  175.2410  147.7560 O   0  0  0  0  0  0  0  0  0  0  0  0
  1 16  1  6  0  0  0
  1 10  1  0  0  0  0
  1 20  1  0  0  0  0
  2 24  1  0  0  0  0
  2 12  1  0  0  0  0
  3 11  2  0  0  0  0
  4  3  1  0  0  0  0
  5 25  2  0  0  0  0
  5 27  1  0  0  0  0
  6  5  1  0  0  0  0
  7 17  1  0  0  0  0
  8 17  1  0  0  0  0
  9 28  2  0  0  0  0
 10 20  1  0  0  0  0
 12  8  1  0  0  0  0
 13 12  1  0  0  0  0
 13 11  1  0  0  0  0
 14 27  1  0  0  0  0
 14 22  2  0  0  0  0
 15  9  1  0  0  0  0
 15 18  2  0  0  0  0
 17 10  1  0  0  0  0
 18  6  1  0  0  0  0
 19  7  1  0  0  0  0
 19 16  1  0  0  0  0
 20 29  1  0  0  0  0
 21 22  1  0  0  0  0
 21  4  2  0  0  0  0
 22 13  1  0  0  0  0
 23 14  1  0  0  0  0
 24 19  1  0  0  0  0
 24  7  1  0  0  0  0
 26  9  1  0  0  0  0
 27  2  2  0  0  0  0
 28  6  1  0  0  0  0
 28 23  1  0  0  0  0
 29 30  1  0  0  0  0
 30 31  1  0  0  0  0
 32 30  2  0  0  0  0
M  END
>  <MODEL>
8

>  <REMARK>
 VINA RESULT:      -8.5      2.691      5.171
  Name = 
  2 active torsions:
  status: ('A' for Active; 'I' for Inactive)
    1  A    between atoms: C_20  and  O_29
    2  A    between atoms: O_29  and  C_30
                            x       y       z     vdW  Elec       q    Type
                         _______ _______ _______ _____ _____    ______ ____

>  <TORSDO>
F 2

$$$$
=
 OpenBabel11122410413D

 32 39  0  0  1  0  0  0  0  0999 V2000
  190.2790  178.0330  138.7770 C   0  0  1  0  0  3  0  0  0  0  0  0
  188.1740  178.0040  142.4740 C   0  0  0  0  0  0  0  0  0  0  0  0
  183.3710  178.6880  142.7870 C   0  0  0  0  0  3  0  0  0  0  0  0
  183.4620  178.7190  144.2580 C   0  0  0  0  0  3  0  0  0  0  0  0
  189.5770  177.7620  144.5290 C   0  0  0  0  0  0  0  0  0  0  0  0
  189.5610  177.6970  145.9540 N   0  0  0  0  0  0  0  0  0  0  0  0
  188.6430  176.6380  140.7660 C   0  0  1  0  0  3  0  0  0  0  0  0
  186.7920  178.2510  140.3540 C   0  0  0  0  0  2  0  0  0  0  0  0
  188.8330  177.6490  148.0170 C   0  0  0  0  0  0  0  0  0  0  0  0
  188.7580  178.2750  138.7490 C   0  0  2  0  0  3  0  0  0  0  0  0
  184.4690  178.7390  142.0270 C   0  0  0  0  0  3  0  0  0  0  0  0
  186.8960  178.2870  141.8400 N   0  0  0  0  0  0  0  0  0  0  0  0
  185.8430  178.9350  142.6280 C   0  0  2  0  0  3  0  0  0  0  0  0
  187.0530  178.1470  144.6590 C   0  0  0  0  0  0  0  0  0  0  0  0
  190.1780  177.5490  148.0930 N   0  0  0  0  0  0  0  0  0  0  0  0
  190.8080  176.8770  139.6470 C   0  0  0  0  0  2  0  0  0  0  0  0
  187.8950  177.3900  139.6690 C   0  0  1  0  0  3  0  0  0  0  0  0
  190.5990  177.5820  146.8050 C   0  0  0  0  0  3  0  0  0  0  0  0
  190.1030  176.6110  140.9820 C   0  0  1  0  0  3  0  0  0  0  0  0
  189.4210  177.4410  137.6730 C   0  0  1  0  0  3  0  0  0  0  0  0
  184.6420  178.6270  144.8730 C   0  0  0  0  0  3  0  0  0  0  0  0
  185.8910  178.5190  144.0860 C   0  0  0  0  0  0  0  0  0  0  0  0
  187.0720  177.7920  146.1350 C   0  0  0  0  0  2  0  0  0  0  0  0
  189.3140  177.8020  141.5290 C   0  0  2  0  0  3  0  0  0  0  0  0
  190.6720  177.6650  143.9120 O   0  0  0  0  0  0  0  0  0  0  0  0
  187.9290  177.6310  149.1980 C   0  0  0  0  0  1  0  0  0  0  0  0
  188.2840  177.9720  143.8200 C   0  0  0  0  0  0  0  0  0  0  0  0
  188.4560  177.7490  146.7000 C   0  0  0  0  0  0  0  0  0  0  0  0
  189.5630  178.2230  136.4970 O   0  0  0  0  0  0  0  0  0  0  0  0
  189.2810  177.7170  135.2250 C   0  0  0  0  0  0  0  0  0  0  0  0
  187.9380  177.8860  134.5980 C   0  0  0  0  0  1  0  0  0  0  0  0
  190.1790  177.1040  134.5940 O   0  0  0  0  0  0  0  0  0  0  0  0
  1 16  1  1  0  0  0
  2 27  2  0  0  0  0
  3  4  1  0  0  0  0
  4 21  2  0  0  0  0
  5  6  1  0  0  0  0
  6 28  1  0  0  0  0
  6 18  1  0  0  0  0
  7 19  1  0  0  0  0
  7 24  1  0  0  0  0
  8 12  1  0  0  0  0
  9 15  1  0  0  0  0
  9 26  1  0  0  0  0
 10  1  1  0  0  0  0
 10 17  1  0  0  0  0
 11 13  1  0  0  0  0
 11  3  2  0  0  0  0
 12  2  1  0  0  0  0
 12 13  1  0  0  0  0
 13 22  1  0  0  0  0
 14 23  1  0  0  0  0
 16 19  1  0  0  0  0
 17  8  1  0  0  0  0
 17  7  1  0  0  0  0
 18 15  2  0  0  0  0
 19 24  1  0  0  0  0
 20 10  1  0  0  0  0
 20  1  1  0  0  0  0
 22 14  2  0  0  0  0
 22 21  1  0  0  0  0
 23 28  1  0  0  0  0
 24  2  1  0  0  0  0
 25  5  2  0  0  0  0
 27  5  1  0  0  0  0
 27 14  1  0  0  0  0
 28  9  2  0  0  0  0
 29 20  1  0  0  0  0
 30 29  1  0  0  0  0
 31 30  1  0  0  0  0
 32 30  2  0  0  0  0
M  END
>  <MODEL>
9

>  <REMARK>
 VINA RESULT:      -8.4      3.580      7.804
  Name = 
  2 active torsions:
  status: ('A' for Active; 'I' for Inactive)
    1  A    between atoms: C_20  and  O_29
    2  A    between atoms: O_29  and  C_30
                            x       y       z     vdW  Elec       q    Type
                         _______ _______ _______ _____ _____    ______ ____

>  <TORSDO>
F 2

$$$$
