=
 OpenBabel11122411573D

 28 32  0  0  1  0  0  0  0  0999 V2000
  181.0910  179.1440  137.5760 C   0  0  0  0  0  0  0  0  0  0  0  0
  185.4480  176.7450  138.3570 F   0  0  0  0  0  0  0  0  0  0  0  0
  180.7410  178.6240  142.3610 O   0  0  0  0  0  0  0  0  0  0  0  0
  181.5040  181.7980  138.3720 C   0  0  0  0  0  3  0  0  0  0  0  0
  183.1050  178.6360  141.9970 C   0  0  0  0  0  0  0  0  0  0  0  0
  180.8140  177.7180  137.2110 C   0  0  0  0  0  2  0  0  0  0  0  0
  185.8990  178.3370  136.8340 F   0  0  0  0  0  0  0  0  0  0  0  0
  185.7790  178.0810  138.1870 C   0  0  0  0  0  0  0  0  0  0  0  0
  186.9330  178.2590  140.3620 C   0  0  1  0  0  3  0  0  0  0  0  0
  184.6990  179.0120  138.7780 C   0  0  2  0  0  3  0  0  0  0  0  0
  178.9310  178.5920  139.8740 C   0  0  0  0  0  1  0  0  0  0  0  0
  183.0300  177.5790  139.8600 C   0  0  1  0  0  3  0  0  0  0  0  0
  186.1320  179.3320  140.7980 O   0  0  0  0  0  0  0  0  0  0  0  0
  187.1220  178.3330  138.8550 C   0  0  0  0  0  2  0  0  0  0  0  0
  179.4360  177.2530  139.3630 C   0  0  2  0  0  3  0  0  0  0  0  0
  182.2590  179.4840  138.2860 C   0  0  0  0  0  0  0  0  0  0  0  0
  181.7400  178.3750  141.6350 C   0  0  0  0  0  0  0  0  0  0  0  0
  188.2820  178.3320  141.0430 C   0  0  0  0  0  1  0  0  0  0  0  0
  180.6550  176.7020  140.1120 C   0  0  0  0  0  2  0  0  0  0  0  0
  182.4410  180.8170  138.6970 C   0  0  0  0  0  3  0  0  0  0  0  0
  180.1650  180.1390  137.2340 C   0  0  0  0  0  3  0  0  0  0  0  0
  180.3710  181.4610  137.6300 C   0  0  0  0  0  3  0  0  0  0  0  0
  179.5190  177.1860  137.8320 C   0  0  0  0  0  2  0  0  0  0  0  0
  184.0060  178.0810  140.9530 C   0  0  1  0  0  3  0  0  0  0  0  0
  181.6650  177.7210  140.3790 N   0  0  0  0  0  0  0  0  0  0  0  0
  184.8150  179.1870  140.2970 C   0  0  2  0  0  3  0  0  0  0  0  0
  183.4800  179.2010  143.0570 O   0  0  0  0  0  0  0  0  0  0  0  0
  183.3010  178.4230  138.5930 C   0  0  1  0  0  3  0  0  0  0  0  0
  1 16  1  0  0  0  0
  4 20  1  0  0  0  0
  5 27  2  0  0  0  0
  6  1  1  0  0  0  0
  6 23  1  0  0  0  0
  7  8  1  0  0  0  0
  8  2  1  0  0  0  0
  8 14  1  0  0  0  0
  9 13  1  0  0  0  0
  9 18  1  1  0  0  0
 10  8  1  1  0  0  0
 10 26  1  0  0  0  0
 12 25  1  1  0  0  0
 12 24  1  0  0  0  0
 14  9  1  0  0  0  0
 15 11  1  6  0  0  0
 15 19  1  0  0  0  0
 16 20  2  0  0  0  0
 17  5  1  0  0  0  0
 17  3  2  0  0  0  0
 19 25  1  0  0  0  0
 21  1  2  0  0  0  0
 21 22  1  0  0  0  0
 22  4  2  0  0  0  0
 23 15  1  0  0  0  0
 24  5  1  1  0  0  0
 25 17  1  0  0  0  0
 26 13  1  1  0  0  0
 26 24  1  0  0  0  0
 28 16  1  1  0  0  0
 28 10  1  0  0  0  0
 28 12  1  0  0  0  0
M  END
>  <MODEL>
1

>  <REMARK>
 VINA RESULT:      -6.2      0.000      0.000
  Name = 
  0 active torsions:
  status: ('A' for Active; 'I' for Inactive)
                            x       y       z     vdW  Elec       q    Type
                         _______ _______ _______ _____ _____    ______ ____

>  <TORSDO>
F 0

$$$$
=
 OpenBabel11122411573D

 28 32  0  0  1  0  0  0  0  0999 V2000
  189.3170  178.3120  138.3260 C   0  0  0  0  0  0  0  0  0  0  0  0
  192.5250  176.2790  135.0200 F   0  0  0  0  0  0  0  0  0  0  0  0
  186.6860  174.4590  137.0950 O   0  0  0  0  0  0  0  0  0  0  0  0
  189.5550  176.8070  140.6770 C   0  0  0  0  0  3  0  0  0  0  0  0
  188.9270  173.7220  136.7020 C   0  0  0  0  0  0  0  0  0  0  0  0
  189.1110  179.0920  137.0640 C   0  0  0  0  0  2  0  0  0  0  0  0
  193.7970  177.0140  136.7240 F   0  0  0  0  0  0  0  0  0  0  0  0
  193.0240  175.9590  136.2750 C   0  0  0  0  0  0  0  0  0  0  0  0
  193.0150  173.5270  135.8570 C   0  0  1  0  0  3  0  0  0  0  0  0
  191.8880  175.7050  137.2880 C   0  0  2  0  0  3  0  0  0  0  0  0
  186.2830  177.4180  137.8350 C   0  0  0  0  0  1  0  0  0  0  0  0
  189.7770  175.8530  136.0520 C   0  0  1  0  0  3  0  0  0  0  0  0
  192.2110  173.2490  136.9790 O   0  0  0  0  0  0  0  0  0  0  0  0
  193.9050  174.7270  136.1420 C   0  0  0  0  0  2  0  0  0  0  0  0
  186.8390  177.9550  136.5270 C   0  0  2  0  0  3  0  0  0  0  0  0
  190.0340  177.0990  138.3070 C   0  0  0  0  0  0  0  0  0  0  0  0
  187.8800  174.7020  136.7790 C   0  0  0  0  0  0  0  0  0  0  0  0
  193.8790  172.3230  135.5490 C   0  0  0  0  0  1  0  0  0  0  0  0
  187.4950  176.8990  135.6300 C   0  0  0  0  0  2  0  0  0  0  0  0
  190.1260  176.3440  139.4900 C   0  0  0  0  0  3  0  0  0  0  0  0
  188.7660  178.7810  139.5260 C   0  0  0  0  0  3  0  0  0  0  0  0
  188.8850  178.0310  140.6980 C   0  0  0  0  0  3  0  0  0  0  0  0
  187.6320  179.2570  136.7010 C   0  0  0  0  0  2  0  0  0  0  0  0
  190.1580  174.3570  136.1620 C   0  0  1  0  0  3  0  0  0  0  0  0
  188.3500  175.9770  136.3710 N   0  0  0  0  0  0  0  0  0  0  0  0
  191.2840  174.3000  137.1820 C   0  0  2  0  0  3  0  0  0  0  0  0
  188.8040  172.5050  136.9970 O   0  0  0  0  0  0  0  0  0  0  0  0
  190.6970  176.6260  137.0250 C   0  0  1  0  0  3  0  0  0  0  0  0
  1 21  1  0  0  0  0
  2  8  1  0  0  0  0
  4 22  1  0  0  0  0
  5 17  1  0  0  0  0
  5 27  2  0  0  0  0
  6  1  1  0  0  0  0
  8  7  1  0  0  0  0
  9 18  1  1  0  0  0
  9 14  1  0  0  0  0
  9 13  1  0  0  0  0
 10  8  1  6  0  0  0
 12 24  1  0  0  0  0
 12 25  1  1  0  0  0
 12 28  1  0  0  0  0
 14  8  1  0  0  0  0
 15 23  1  0  0  0  0
 15 11  1  1  0  0  0
 16  1  2  0  0  0  0
 16 20  1  0  0  0  0
 17  3  2  0  0  0  0
 19 25  1  0  0  0  0
 19 15  1  0  0  0  0
 20  4  2  0  0  0  0
 21 22  2  0  0  0  0
 23  6  1  0  0  0  0
 24  5  1  1  0  0  0
 24 26  1  0  0  0  0
 25 17  1  0  0  0  0
 26 13  1  6  0  0  0
 26 10  1  0  0  0  0
 28 10  1  0  0  0  0
 28 16  1  1  0  0  0
M  END
>  <MODEL>
2

>  <REMARK>
 VINA RESULT:      -6.1      5.772      8.636
  Name = 
  0 active torsions:
  status: ('A' for Active; 'I' for Inactive)
                            x       y       z     vdW  Elec       q    Type
                         _______ _______ _______ _____ _____    ______ ____

>  <TORSDO>
F 0

$$$$
=
 OpenBabel11122411573D

 28 32  0  0  1  0  0  0  0  0999 V2000
  179.8130  179.1210  136.9850 C   0  0  0  0  0  0  0  0  0  0  0  0
  181.2900  174.6430  138.7520 F   0  0  0  0  0  0  0  0  0  0  0  0
  183.9880  180.5070  138.9670 O   0  0  0  0  0  0  0  0  0  0  0  0
  181.3100  179.5790  134.6620 C   0  0  0  0  0  3  0  0  0  0  0  0
  184.3800  178.2040  138.4550 C   0  0  0  0  0  0  0  0  0  0  0  0
  179.0490  178.9420  138.2600 C   0  0  0  0  0  2  0  0  0  0  0  0
  180.4070  174.2310  136.7250 F   0  0  0  0  0  0  0  0  0  0  0  0
  181.5560  174.6170  137.3910 C   0  0  0  0  0  0  0  0  0  0  0  0
  183.9550  174.1180  137.6860 C   0  0  1  0  0  3  0  0  0  0  0  0
  181.9930  176.0040  136.8730 C   0  0  2  0  0  3  0  0  0  0  0  0
  181.1360  181.5800  138.5500 C   0  0  0  0  0  1  0  0  0  0  0  0
  182.1350  177.4860  138.8190 C   0  0  1  0  0  3  0  0  0  0  0  0
  184.3690  175.2390  136.9400 O   0  0  0  0  0  0  0  0  0  0  0  0
  182.6420  173.5850  137.1330 C   0  0  0  0  0  2  0  0  0  0  0  0
  180.4980  180.6520  139.5710 C   0  0  2  0  0  3  0  0  0  0  0  0
  180.9070  178.2840  136.6850 C   0  0  0  0  0  0  0  0  0  0  0  0
  183.5660  179.3300  138.8180 C   0  0  0  0  0  0  0  0  0  0  0  0
  185.0130  173.0390  137.5980 C   0  0  0  0  0  1  0  0  0  0  0  0
  181.4290  179.5610  140.1120 C   0  0  0  0  0  2  0  0  0  0  0  0
  181.6620  178.5410  135.5260 C   0  0  0  0  0  3  0  0  0  0  0  0
  179.4530  180.1460  136.1010 C   0  0  0  0  0  3  0  0  0  0  0  0
  180.1990  180.3750  134.9430 C   0  0  0  0  0  3  0  0  0  0  0  0
  179.0970  180.1800  139.1610 C   0  0  0  0  0  2  0  0  0  0  0  0
  183.5610  176.9650  138.5150 C   0  0  1  0  0  3  0  0  0  0  0  0
  182.2290  178.9290  139.0670 N   0  0  0  0  0  0  0  0  0  0  0  0
  183.4700  176.3140  137.1450 C   0  0  2  0  0  3  0  0  0  0  0  0
  185.6070  178.2530  138.1810 O   0  0  0  0  0  0  0  0  0  0  0  0
  181.2540  177.1240  137.6020 C   0  0  1  0  0  3  0  0  0  0  0  0
  1  6  1  0  0  0  0
  4 22  2  0  0  0  0
  4 20  1  0  0  0  0
  5 17  1  0  0  0  0
  6 23  1  0  0  0  0
  7  8  1  0  0  0  0
  8  2  1  0  0  0  0
  9 18  1  6  0  0  0
 10 26  1  0  0  0  0
 10  8  1  1  0  0  0
 10 28  1  0  0  0  0
 12 25  1  6  0  0  0
 13  9  1  0  0  0  0
 14  8  1  0  0  0  0
 14  9  1  0  0  0  0
 15 11  1  6  0  0  0
 15 19  1  0  0  0  0
 16  1  1  0  0  0  0
 17  3  2  0  0  0  0
 17 25  1  0  0  0  0
 20 16  2  0  0  0  0
 21  1  2  0  0  0  0
 22 21  1  0  0  0  0
 23 15  1  0  0  0  0
 24  5  1  6  0  0  0
 24 12  1  0  0  0  0
 25 19  1  0  0  0  0
 26 13  1  1  0  0  0
 26 24  1  0  0  0  0
 27  5  2  0  0  0  0
 28 16  1  6  0  0  0
 28 12  1  0  0  0  0
M  END
>  <MODEL>
3

>  <REMARK>
 VINA RESULT:      -5.4      2.923      4.271
  Name = 
  0 active torsions:
  status: ('A' for Active; 'I' for Inactive)
                            x       y       z     vdW  Elec       q    Type
                         _______ _______ _______ _____ _____    ______ ____

>  <TORSDO>
F 0

$$$$
=
 OpenBabel11122411573D

 28 32  0  0  1  0  0  0  0  0999 V2000
  180.4680  177.7370  139.4350 C   0  0  0  0  0  0  0  0  0  0  0  0
  182.1480  180.1560  143.5190 F   0  0  0  0  0  0  0  0  0  0  0  0
  184.7960  179.0280  137.7380 O   0  0  0  0  0  0  0  0  0  0  0  0
  181.7370  175.2390  139.4270 C   0  0  0  0  0  3  0  0  0  0  0  0
  185.1610  178.9170  140.0990 C   0  0  0  0  0  0  0  0  0  0  0  0
  179.8290  179.0890  139.3690 C   0  0  0  0  0  2  0  0  0  0  0  0
  181.0830  178.3320  144.2930 F   0  0  0  0  0  0  0  0  0  0  0  0
  182.2850  178.8040  143.7990 C   0  0  0  0  0  0  0  0  0  0  0  0
  184.7060  178.9610  144.2540 C   0  0  1  0  0  3  0  0  0  0  0  0
  182.6580  178.0000  142.5360 C   0  0  2  0  0  3  0  0  0  0  0  0
  181.9070  178.6890  136.7390 C   0  0  0  0  0  1  0  0  0  0  0  0
  182.9670  179.6160  140.7200 C   0  0  1  0  0  3  0  0  0  0  0  0
  185.0380  177.9850  143.2940 O   0  0  0  0  0  0  0  0  0  0  0  0
  183.3530  178.6410  144.8700 C   0  0  0  0  0  2  0  0  0  0  0  0
  181.3760  179.9190  137.4560 C   0  0  2  0  0  3  0  0  0  0  0  0
  181.5370  177.4950  140.3220 C   0  0  0  0  0  0  0  0  0  0  0  0
  184.3730  179.1400  138.9190 C   0  0  0  0  0  0  0  0  0  0  0  0
  185.7610  178.9750  145.3380 C   0  0  0  0  0  1  0  0  0  0  0  0
  182.3650  180.5630  138.4360 C   0  0  0  0  0  2  0  0  0  0  0  0
  182.1770  176.2440  140.2900 C   0  0  0  0  0  3  0  0  0  0  0  0
  180.0170  176.7160  138.5880 C   0  0  0  0  0  3  0  0  0  0  0  0
  180.6490  175.4710  138.5840 C   0  0  0  0  0  3  0  0  0  0  0  0
  179.9480  179.7360  137.9860 C   0  0  0  0  0  2  0  0  0  0  0  0
  184.3630  179.2810  141.3000 C   0  0  1  0  0  3  0  0  0  0  0  0
  183.0700  179.5830  139.2570 N   0  0  0  0  0  0  0  0  0  0  0  0
  184.1510  178.0700  142.1920 C   0  0  2  0  0  3  0  0  0  0  0  0
  186.3570  178.5250  140.1110 O   0  0  0  0  0  0  0  0  0  0  0  0
  181.9790  178.5750  141.2940 C   0  0  1  0  0  3  0  0  0  0  0  0
  1 16  1  0  0  0  0
  2  8  1  0  0  0  0
  3 17  2  0  0  0  0
  4 20  1  0  0  0  0
  5 27  2  0  0  0  0
  6  1  1  0  0  0  0
  8  7  1  0  0  0  0
  8 14  1  0  0  0  0
  9 14  1  0  0  0  0
  9 18  1  1  0  0  0
 10  8  1  1  0  0  0
 12 25  1  6  0  0  0
 12 28  1  0  0  0  0
 12 24  1  0  0  0  0
 13  9  1  0  0  0  0
 15 11  1  1  0  0  0
 15 23  1  0  0  0  0
 15 19  1  0  0  0  0
 17 25  1  0  0  0  0
 17  5  1  0  0  0  0
 19 25  1  0  0  0  0
 20 16  2  0  0  0  0
 21  1  2  0  0  0  0
 22 21  1  0  0  0  0
 22  4  2  0  0  0  0
 23  6  1  0  0  0  0
 24  5  1  6  0  0  0
 24 26  1  0  0  0  0
 26 10  1  0  0  0  0
 26 13  1  1  0  0  0
 28 16  1  6  0  0  0
 28 10  1  0  0  0  0
M  END
>  <MODEL>
4

>  <REMARK>
 VINA RESULT:      -5.3      2.623      4.643
  Name = 
  0 active torsions:
  status: ('A' for Active; 'I' for Inactive)
                            x       y       z     vdW  Elec       q    Type
                         _______ _______ _______ _____ _____    ______ ____

>  <TORSDO>
F 0

$$$$
=
 OpenBabel11122411573D

 28 32  0  0  1  0  0  0  0  0999 V2000
  181.7500  175.7370  136.2590 C   0  0  0  0  0  0  0  0  0  0  0  0
  186.6000  175.3000  137.5410 F   0  0  0  0  0  0  0  0  0  0  0  0
  181.8490  179.0900  139.7280 O   0  0  0  0  0  0  0  0  0  0  0  0
  181.5600  178.0480  134.6870 C   0  0  0  0  0  3  0  0  0  0  0  0
  184.1100  179.0590  138.9510 C   0  0  0  0  0  0  0  0  0  0  0  0
  181.8030  174.5380  137.1540 C   0  0  0  0  0  2  0  0  0  0  0  0
  186.5520  175.1550  135.2970 F   0  0  0  0  0  0  0  0  0  0  0  0
  186.5860  176.0340  136.3640 C   0  0  0  0  0  0  0  0  0  0  0  0
  187.8020  177.9510  137.3330 C   0  0  1  0  0  3  0  0  0  0  0  0
  185.3530  176.9600  136.2880 C   0  0  2  0  0  3  0  0  0  0  0  0
  179.9420  176.9530  138.6040 C   0  0  0  0  0  1  0  0  0  0  0  0
  184.1550  176.7360  138.4140 C   0  0  1  0  0  3  0  0  0  0  0  0
  186.7950  178.8750  136.9890 O   0  0  0  0  0  0  0  0  0  0  0  0
  187.8690  176.8470  136.2890 C   0  0  0  0  0  2  0  0  0  0  0  0
  180.7220  175.7750  139.1650 C   0  0  2  0  0  3  0  0  0  0  0  0
  182.8460  176.6200  136.1840 C   0  0  0  0  0  0  0  0  0  0  0  0
  182.8290  178.4750  139.2300 C   0  0  0  0  0  0  0  0  0  0  0  0
  189.1350  178.6640  137.3980 C   0  0  0  0  0  1  0  0  0  0  0  0
  182.0840  176.1400  139.7680 C   0  0  0  0  0  2  0  0  0  0  0  0
  182.7260  177.7870  135.4090 C   0  0  0  0  0  3  0  0  0  0  0  0
  180.5910  175.9940  135.5150 C   0  0  0  0  0  3  0  0  0  0  0  0
  180.4970  177.1460  134.7310 C   0  0  0  0  0  3  0  0  0  0  0  0
  180.7180  174.5550  138.2360 C   0  0  0  0  0  2  0  0  0  0  0  0
  185.0500  177.9970  138.5040 C   0  0  1  0  0  3  0  0  0  0  0  0
  182.8330  177.0860  138.9450 N   0  0  0  0  0  0  0  0  0  0  0  0
  185.5220  178.2590  137.0840 C   0  0  2  0  0  3  0  0  0  0  0  0
  184.4060  180.2720  139.1110 O   0  0  0  0  0  0  0  0  0  0  0  0
  184.1310  176.3060  136.9300 C   0  0  1  0  0  3  0  0  0  0  0  0
  1  6  1  0  0  0  0
  4 22  2  0  0  0  0
  4 20  1  0  0  0  0
  5 27  2  0  0  0  0
  5 17  1  0  0  0  0
  6 23  1  0  0  0  0
  7  8  1  0  0  0  0
  8  2  1  0  0  0  0
  9 18  1  6  0  0  0
 10  8  1  1  0  0  0
 10 28  1  0  0  0  0
 10 26  1  0  0  0  0
 12 24  1  0  0  0  0
 12 25  1  6  0  0  0
 13  9  1  0  0  0  0
 14  8  1  0  0  0  0
 14  9  1  0  0  0  0
 15 11  1  6  0  0  0
 15 19  1  0  0  0  0
 16  1  1  0  0  0  0
 17  3  2  0  0  0  0
 20 16  2  0  0  0  0
 21  1  2  0  0  0  0
 22 21  1  0  0  0  0
 23 15  1  0  0  0  0
 24  5  1  6  0  0  0
 25 17  1  0  0  0  0
 25 19  1  0  0  0  0
 26 13  1  1  0  0  0
 26 24  1  0  0  0  0
 28 16  1  6  0  0  0
 28 12  1  0  0  0  0
M  END
>  <MODEL>
5

>  <REMARK>
 VINA RESULT:      -5.2      2.429      3.358
  Name = 
  0 active torsions:
  status: ('A' for Active; 'I' for Inactive)
                            x       y       z     vdW  Elec       q    Type
                         _______ _______ _______ _____ _____    ______ ____

>  <TORSDO>
F 0

$$$$
=
 OpenBabel11122411573D

 28 32  0  0  1  0  0  0  0  0999 V2000
  182.4020  177.9320  136.4450 C   0  0  0  0  0  0  0  0  0  0  0  0
  184.7360  177.5020  140.8860 F   0  0  0  0  0  0  0  0  0  0  0  0
  178.9330  175.5610  138.8170 O   0  0  0  0  0  0  0  0  0  0  0  0
  180.5330  179.9980  136.7390 C   0  0  0  0  0  3  0  0  0  0  0  0
  180.0900  176.7060  140.5690 C   0  0  0  0  0  0  0  0  0  0  0  0
  183.3380  176.7760  136.2750 C   0  0  0  0  0  2  0  0  0  0  0  0
  185.2030  179.5780  140.1550 F   0  0  0  0  0  0  0  0  0  0  0  0
  184.2720  178.8080  140.8290 C   0  0  0  0  0  0  0  0  0  0  0  0
  182.9670  178.6260  142.9160 C   0  0  1  0  0  3  0  0  0  0  0  0
  182.9200  178.8980  140.0890 C   0  0  2  0  0  3  0  0  0  0  0  0
  180.1490  175.7020  135.9960 C   0  0  0  0  0  1  0  0  0  0  0  0
  182.2440  176.6050  139.5500 C   0  0  1  0  0  3  0  0  0  0  0  0
  181.7610  179.0110  142.2980 O   0  0  0  0  0  0  0  0  0  0  0  0
  184.1380  179.3330  142.2500 C   0  0  0  0  0  2  0  0  0  0  0  0
  181.4440  175.0030  136.3770 C   0  0  2  0  0  3  0  0  0  0  0  0
  182.1220  178.4410  137.7290 C   0  0  0  0  0  0  0  0  0  0  0  0
  179.9900  176.0500  139.2960 C   0  0  0  0  0  0  0  0  0  0  0  0
  182.9210  179.0020  144.3810 C   0  0  0  0  0  1  0  0  0  0  0  0
  181.6310  174.7820  137.8830 C   0  0  0  0  0  2  0  0  0  0  0  0
  181.1650  179.4630  137.8620 C   0  0  0  0  0  3  0  0  0  0  0  0
  181.7790  178.4900  135.3200 C   0  0  0  0  0  3  0  0  0  0  0  0
  180.8480  179.5200  135.4660 C   0  0  0  0  0  3  0  0  0  0  0  0
  182.6670  175.5570  135.6350 C   0  0  0  0  0  2  0  0  0  0  0  0
  181.5160  177.0210  140.8520 C   0  0  1  0  0  3  0  0  0  0  0  0
  181.2620  175.9500  138.6770 N   0  0  0  0  0  0  0  0  0  0  0  0
  181.7230  178.5220  140.9690 C   0  0  2  0  0  3  0  0  0  0  0  0
  179.1270  176.9330  141.3470 O   0  0  0  0  0  0  0  0  0  0  0  0
  182.8510  177.8900  138.9430 C   0  0  1  0  0  3  0  0  0  0  0  0
  1 16  1  0  0  0  0
  3 17  2  0  0  0  0
  4 20  1  0  0  0  0
  5 27  2  0  0  0  0
  6  1  1  0  0  0  0
  7  8  1  0  0  0  0
  8  2  1  0  0  0  0
  8 14  1  0  0  0  0
  9 18  1  1  0  0  0
 10  8  1  1  0  0  0
 10 26  1  0  0  0  0
 12 25  1  6  0  0  0
 12 24  1  0  0  0  0
 13  9  1  0  0  0  0
 14  9  1  0  0  0  0
 15 11  1  1  0  0  0
 15 19  1  0  0  0  0
 16 20  2  0  0  0  0
 17  5  1  0  0  0  0
 19 25  1  0  0  0  0
 21 22  1  0  0  0  0
 21  1  2  0  0  0  0
 22  4  2  0  0  0  0
 23  6  1  0  0  0  0
 23 15  1  0  0  0  0
 24  5  1  6  0  0  0
 24 26  1  0  0  0  0
 25 17  1  0  0  0  0
 26 13  1  1  0  0  0
 28 16  1  6  0  0  0
 28 12  1  0  0  0  0
 28 10  1  0  0  0  0
M  END
>  <MODEL>
6

>  <REMARK>
 VINA RESULT:      -5.1      2.202      3.589
  Name = 
  0 active torsions:
  status: ('A' for Active; 'I' for Inactive)
                            x       y       z     vdW  Elec       q    Type
                         _______ _______ _______ _____ _____    ______ ____

>  <TORSDO>
F 0

$$$$
=
 OpenBabel11122411573D

 28 32  0  0  1  0  0  0  0  0999 V2000
  180.6170  177.5150  137.8690 C   0  0  0  0  0  0  0  0  0  0  0  0
  183.9370  173.8260  137.0140 F   0  0  0  0  0  0  0  0  0  0  0  0
  184.5710  179.7590  139.4880 O   0  0  0  0  0  0  0  0  0  0  0  0
  180.9760  179.3840  135.8130 C   0  0  0  0  0  3  0  0  0  0  0  0
  185.4510  178.2150  137.8880 C   0  0  0  0  0  0  0  0  0  0  0  0
  180.4500  176.5740  139.0220 C   0  0  0  0  0  2  0  0  0  0  0  0
  182.5690  173.8360  135.2280 F   0  0  0  0  0  0  0  0  0  0  0  0
  183.6990  174.4130  135.7790 C   0  0  0  0  0  0  0  0  0  0  0  0
  186.0750  174.9380  135.3690 C   0  0  1  0  0  3  0  0  0  0  0  0
  183.4700  175.9340  135.9090 C   0  0  2  0  0  3  0  0  0  0  0  0
  181.5730  179.5530  140.1460 C   0  0  0  0  0  1  0  0  0  0  0  0
  183.8220  176.5140  138.2640 C   0  0  1  0  0  3  0  0  0  0  0  0
  185.8290  176.3120  135.1810 O   0  0  0  0  0  0  0  0  0  0  0  0
  184.8870  174.1280  134.8740 C   0  0  0  0  0  2  0  0  0  0  0  0
  181.6590  178.1410  140.7020 C   0  0  2  0  0  3  0  0  0  0  0  0
  181.7360  177.4090  137.0190 C   0  0  0  0  0  0  0  0  0  0  0  0
  184.5110  178.6580  138.8790 C   0  0  0  0  0  0  0  0  0  0  0  0
  187.3130  174.5410  134.5940 C   0  0  0  0  0  1  0  0  0  0  0  0
  183.0110  177.4510  140.4870 C   0  0  0  0  0  2  0  0  0  0  0  0
  181.9140  178.3680  136.0060 C   0  0  0  0  0  3  0  0  0  0  0  0
  179.6690  178.5240  137.6560 C   0  0  0  0  0  3  0  0  0  0  0  0
  179.8470  179.4550  136.6310 C   0  0  0  0  0  3  0  0  0  0  0  0
  180.4250  177.2900  140.3750 C   0  0  0  0  0  2  0  0  0  0  0  0
  185.1350  176.8150  137.5000 C   0  0  1  0  0  3  0  0  0  0  0  0
  183.5440  177.6560  139.1430 N   0  0  0  0  0  0  0  0  0  0  0  0
  184.7730  176.7340  136.0260 C   0  0  2  0  0  3  0  0  0  0  0  0
  186.4220  178.8890  137.4550 O   0  0  0  0  0  0  0  0  0  0  0  0
  182.7270  176.2720  137.2000 C   0  0  1  0  0  3  0  0  0  0  0  0
  1  6  1  0  0  0  0
  4 20  2  0  0  0  0
  4 22  1  0  0  0  0
  5 17  1  0  0  0  0
  6 23  1  0  0  0  0
  7  8  1  0  0  0  0
  8  2  1  0  0  0  0
  9 18  1  6  0  0  0
 10  8  1  1  0  0  0
 10 26  1  0  0  0  0
 10 28  1  0  0  0  0
 12 25  1  1  0  0  0
 13  9  1  0  0  0  0
 14  9  1  0  0  0  0
 14  8  1  0  0  0  0
 15 11  1  6  0  0  0
 16  1  2  0  0  0  0
 17 25  1  0  0  0  0
 17  3  2  0  0  0  0
 19 15  1  0  0  0  0
 20 16  1  0  0  0  0
 21  1  1  0  0  0  0
 22 21  2  0  0  0  0
 23 15  1  0  0  0  0
 24  5  1  1  0  0  0
 24 12  1  0  0  0  0
 25 19  1  0  0  0  0
 26 13  1  6  0  0  0
 26 24  1  0  0  0  0
 27  5  2  0  0  0  0
 28 16  1  6  0  0  0
 28 12  1  0  0  0  0
M  END
>  <MODEL>
7

>  <REMARK>
 VINA RESULT:      -5.1      2.955      4.214
  Name = 
  0 active torsions:
  status: ('A' for Active; 'I' for Inactive)
                            x       y       z     vdW  Elec       q    Type
                         _______ _______ _______ _____ _____    ______ ____

>  <TORSDO>
F 0

$$$$
=
 OpenBabel11122411573D

 28 32  0  0  1  0  0  0  0  0999 V2000
  182.6830  177.7390  136.9630 C   0  0  0  0  0  0  0  0  0  0  0  0
  187.3070  177.9430  134.9800 F   0  0  0  0  0  0  0  0  0  0  0  0
  183.6610  173.0140  137.0100 O   0  0  0  0  0  0  0  0  0  0  0  0
  183.0270  177.3550  139.7160 C   0  0  0  0  0  3  0  0  0  0  0  0
  185.8320  174.0090  137.1390 C   0  0  0  0  0  0  0  0  0  0  0  0
  182.4620  177.8710  135.4880 C   0  0  0  0  0  2  0  0  0  0  0  0
  187.1810  179.6830  136.4010 F   0  0  0  0  0  0  0  0  0  0  0  0
  187.4480  178.3300  136.3060 C   0  0  0  0  0  0  0  0  0  0  0  0
  189.1110  176.5820  136.8260 C   0  0  1  0  0  3  0  0  0  0  0  0
  186.4750  177.5620  137.2260 C   0  0  2  0  0  3  0  0  0  0  0  0
  181.2710  174.8950  136.5500 C   0  0  0  0  0  1  0  0  0  0  0  0
  185.3010  175.9280  135.8260 C   0  0  1  0  0  3  0  0  0  0  0  0
  188.3520  176.0530  137.8880 O   0  0  0  0  0  0  0  0  0  0  0  0
  188.8880  178.0830  136.7280 C   0  0  0  0  0  2  0  0  0  0  0  0
  181.7540  175.3890  135.1960 C   0  0  2  0  0  3  0  0  0  0  0  0
  183.9580  177.4130  137.4670 C   0  0  0  0  0  0  0  0  0  0  0  0
  184.4520  173.9560  136.7430 C   0  0  0  0  0  0  0  0  0  0  0  0
  190.5780  176.3070  137.0750 C   0  0  0  0  0  1  0  0  0  0  0  0
  183.1750  174.9500  134.8260 C   0  0  0  0  0  2  0  0  0  0  0  0
  184.1100  177.2020  138.8490 C   0  0  0  0  0  3  0  0  0  0  0  0
  181.6060  177.9130  137.8420 C   0  0  0  0  0  3  0  0  0  0  0  0
  181.7780  177.7220  139.2150 C   0  0  0  0  0  3  0  0  0  0  0  0
  181.4360  176.8690  134.9480 C   0  0  0  0  0  2  0  0  0  0  0  0
  186.4760  175.1990  136.5230 C   0  0  1  0  0  3  0  0  0  0  0  0
  184.1140  175.0730  135.9370 N   0  0  0  0  0  0  0  0  0  0  0  0
  186.9700  176.1580  137.5930 C   0  0  2  0  0  3  0  0  0  0  0  0
  186.4150  173.1530  137.8540 O   0  0  0  0  0  0  0  0  0  0  0  0
  185.1440  177.2980  136.5240 C   0  0  1  0  0  3  0  0  0  0  0  0
  1 16  2  0  0  0  0
  1 21  1  0  0  0  0
  2  8  1  0  0  0  0
  5 27  2  0  0  0  0
  6  1  1  0  0  0  0
  8  7  1  0  0  0  0
  8 14  1  0  0  0  0
  9 18  1  1  0  0  0
  9 13  1  0  0  0  0
 10  8  1  6  0  0  0
 10 26  1  0  0  0  0
 12 25  1  1  0  0  0
 12 24  1  0  0  0  0
 12 28  1  0  0  0  0
 14  9  1  0  0  0  0
 15 11  1  1  0  0  0
 16 20  1  0  0  0  0
 17  3  2  0  0  0  0
 17  5  1  0  0  0  0
 19 15  1  0  0  0  0
 19 25  1  0  0  0  0
 20  4  2  0  0  0  0
 21 22  2  0  0  0  0
 22  4  1  0  0  0  0
 23 15  1  0  0  0  0
 23  6  1  0  0  0  0
 24  5  1  1  0  0  0
 24 26  1  0  0  0  0
 25 17  1  0  0  0  0
 26 13  1  6  0  0  0
 28 10  1  0  0  0  0
 28 16  1  1  0  0  0
M  END
>  <MODEL>
8

>  <REMARK>
 VINA RESULT:      -5.0      3.539      4.877
  Name = 
  0 active torsions:
  status: ('A' for Active; 'I' for Inactive)
                            x       y       z     vdW  Elec       q    Type
                         _______ _______ _______ _____ _____    ______ ____

>  <TORSDO>
F 0

$$$$
=
 OpenBabel11122411573D

 28 32  0  0  1  0  0  0  0  0999 V2000
  182.4260  179.0890  138.5750 C   0  0  0  0  0  0  0  0  0  0  0  0
  179.9990  175.6840  135.7700 F   0  0  0  0  0  0  0  0  0  0  0  0
  178.9820  177.9170  141.7440 O   0  0  0  0  0  0  0  0  0  0  0  0
  183.9550  177.6380  140.4200 C   0  0  0  0  0  3  0  0  0  0  0  0
  179.1790  175.9390  140.4150 C   0  0  0  0  0  0  0  0  0  0  0  0
  181.5660  179.8960  137.6520 C   0  0  0  0  0  2  0  0  0  0  0  0
  182.1880  175.3200  135.4030 F   0  0  0  0  0  0  0  0  0  0  0  0
  181.1300  175.0400  136.2490 C   0  0  0  0  0  0  0  0  0  0  0  0
  179.8590  173.2150  137.3190 C   0  0  1  0  0  3  0  0  0  0  0  0
  181.4910  175.5120  137.6730 C   0  0  2  0  0  3  0  0  0  0  0  0
  180.5760  180.3880  140.8420 C   0  0  0  0  0  1  0  0  0  0  0  0
  179.7280  177.0600  138.3840 C   0  0  1  0  0  3  0  0  0  0  0  0
  180.4230  173.4480  138.5880 O   0  0  0  0  0  0  0  0  0  0  0  0
  180.8730  173.5410  136.2330 C   0  0  0  0  0  2  0  0  0  0  0  0
  179.8610  180.5230  139.5080 C   0  0  2  0  0  3  0  0  0  0  0  0
  182.2140  177.7030  138.7180 C   0  0  0  0  0  0  0  0  0  0  0  0
  179.2340  177.3550  140.6460 C   0  0  0  0  0  0  0  0  0  0  0  0
  179.4570  171.7600  137.2100 C   0  0  0  0  0  1  0  0  0  0  0  0
  178.9360  179.3520  139.1570 C   0  0  0  0  0  2  0  0  0  0  0  0
  182.9740  176.9940  139.6640 C   0  0  0  0  0  3  0  0  0  0  0  0
  183.4270  179.7250  139.3200 C   0  0  0  0  0  3  0  0  0  0  0  0
  184.1900  179.0020  140.2390 C   0  0  0  0  0  3  0  0  0  0  0  0
  180.7840  180.9960  138.3770 C   0  0  0  0  0  2  0  0  0  0  0  0
  179.4000  175.6660  138.9700 C   0  0  1  0  0  3  0  0  0  0  0  0
  179.5320  178.0520  139.4480 N   0  0  0  0  0  0  0  0  0  0  0  0
  180.6550  174.8350  138.7660 C   0  0  2  0  0  3  0  0  0  0  0  0
  178.9310  175.0690  141.2910 O   0  0  0  0  0  0  0  0  0  0  0  0
  181.1810  176.9970  137.8580 C   0  0  1  0  0  3  0  0  0  0  0  0
  1 16  2  0  0  0  0
  1 21  1  0  0  0  0
  2  8  1  0  0  0  0
  5 17  1  0  0  0  0
  5 27  2  0  0  0  0
  6 23  1  0  0  0  0
  6  1  1  0  0  0  0
  7  8  1  0  0  0  0
  9 18  1  1  0  0  0
  9 13  1  0  0  0  0
 10  8  1  6  0  0  0
 10 28  1  0  0  0  0
 10 26  1  0  0  0  0
 12 24  1  0  0  0  0
 12 25  1  1  0  0  0
 14  8  1  0  0  0  0
 14  9  1  0  0  0  0
 15 11  1  1  0  0  0
 16 20  1  0  0  0  0
 17  3  2  0  0  0  0
 19 25  1  0  0  0  0
 19 15  1  0  0  0  0
 20  4  2  0  0  0  0
 21 22  2  0  0  0  0
 22  4  1  0  0  0  0
 23 15  1  0  0  0  0
 24  5  1  1  0  0  0
 25 17  1  0  0  0  0
 26 13  1  6  0  0  0
 26 24  1  0  0  0  0
 28 12  1  0  0  0  0
 28 16  1  1  0  0  0
M  END
>  <MODEL>
9

>  <REMARK>
 VINA RESULT:      -4.9      2.910      5.341
  Name = 
  0 active torsions:
  status: ('A' for Active; 'I' for Inactive)
                            x       y       z     vdW  Elec       q    Type
                         _______ _______ _______ _____ _____    ______ ____

>  <TORSDO>
F 0

$$$$
