=
 OpenBabel11122410423D

 32 37  0  0  1  0  0  0  0  0999 V2000
  187.9680  177.7360  136.4230 C   0  0  0  0  0  2  0  0  0  0  0  0
  188.1480  177.8330  141.6250 C   0  0  0  0  0  0  0  0  0  0  0  0
  183.5950  179.0260  142.8630 C   0  0  0  0  0  3  0  0  0  0  0  0
  183.8760  178.7370  144.1980 C   0  0  0  0  0  3  0  0  0  0  0  0
  189.8290  177.0390  143.3430 C   0  0  1  0  0  3  0  0  0  0  0  0
  190.1450  177.3160  144.7790 C   0  0  0  0  0  0  0  0  0  0  0  0
  188.6370  177.4310  139.1910 C   0  0  1  0  0  3  0  0  0  0  0  0
  186.5640  178.5620  139.8900 N   0  0  0  0  0  2  0  0  0  0  0  0
  189.8880  177.5460  146.9780 C   0  0  0  0  0  0  0  0  0  0  0  0
  186.9470  178.2240  137.4660 C   0  0  2  0  0  3  0  0  0  0  0  0
  184.5880  178.8800  141.8920 C   0  0  0  0  0  3  0  0  0  0  0  0
  186.8660  178.2950  141.2680 C   0  0  0  0  0  0  0  0  0  0  0  0
  185.8720  178.4410  142.2460 C   0  0  0  0  0  0  0  0  0  0  0  0
  187.4470  177.7060  143.9680 C   0  0  0  0  0  0  0  0  0  0  0  0
  191.1700  177.4530  146.8450 N   0  0  0  0  0  0  0  0  0  0  0  0
  189.4060  178.0580  136.8220 C   0  0  0  0  0  2  0  0  0  0  0  0
  187.5820  178.4880  138.8460 C   0  0  2  0  0  3  0  0  0  0  0  0
  191.4910  177.2910  145.4270 C   0  0  0  0  0  3  0  0  0  0  0  0
  189.7680  177.3870  138.1520 C   0  0  0  0  0  2  0  0  0  0  0  0
  185.1500  178.3000  144.5650 C   0  0  0  0  0  3  0  0  0  0  0  0
  186.1610  178.1460  143.6010 C   0  0  0  0  0  0  0  0  0  0  0  0
  187.7510  177.3870  145.4190 C   0  0  0  0  0  2  0  0  0  0  0  0
  189.2210  177.7210  140.5690 C   0  0  0  0  0  2  0  0  0  0  0  0
  189.9340  175.2850  143.0380 Cl  0  0  0  0  0  0  0  0  0  0  0  0
  189.2180  177.7030  148.2970 C   0  0  0  0  0  1  0  0  0  0  0  0
  188.4470  177.5450  142.9710 C   0  0  0  0  0  0  0  0  0  0  0  0
  189.2180  177.4690  145.6990 C   0  0  2  0  0  3  0  0  0  0  0  0
  185.9170  177.2830  137.5650 O   0  0  0  0  0  0  0  0  0  0  0  0
  186.2250  176.3110  136.6110 C   0  0  0  0  0  2  0  0  0  0  0  0
  185.6130  175.0130  137.0070 C   0  0  0  0  0  0  0  0  0  0  0  0
  184.3750  174.9410  137.2170 O   0  0  0  0  0  0  0  0  0  0  0  0
  186.4340  173.8660  137.1890 N   0  0  0  0  0  1  0  0  0  0  0  0
  1 16  1  0  0  0  0
  1 10  1  0  0  0  0
  2 26  1  0  0  0  0
  3  4  1  0  0  0  0
  4 20  2  0  0  0  0
  5 24  1  1  0  0  0
  5  6  1  0  0  0  0
  6 18  2  0  0  0  0
  6 27  1  0  0  0  0
  7 19  1  6  0  0  0
  7 23  1  0  0  0  0
  8 12  1  0  0  0  0
  9 25  1  0  0  0  0
 10 28  1  1  0  0  0
 10 17  1  0  0  0  0
 11 13  1  0  0  0  0
 11  3  2  0  0  0  0
 12  2  2  0  0  0  0
 12 13  1  0  0  0  0
 13 21  2  0  0  0  0
 14 22  1  0  0  0  0
 15  9  2  0  0  0  0
 16 19  1  0  0  0  0
 17  7  1  0  0  0  0
 17  8  1  1  0  0  0
 18 15  1  0  0  0  0
 21 14  1  0  0  0  0
 21 20  1  0  0  0  0
 23  2  1  0  0  0  0
 26  5  1  0  0  0  0
 26 14  2  0  0  0  0
 27 22  1  1  0  0  0
 27  9  1  0  0  0  0
 29 30  1  0  0  0  0
 29 28  1  0  0  0  0
 30 32  1  0  0  0  0
 30 31  2  0  0  0  0
M  END
>  <MODEL>
1

>  <REMARK>
 VINA RESULT:     -10.5      0.000      0.000
  Name = 
  3 active torsions:
  status: ('A' for Active; 'I' for Inactive)
    1  A    between atoms: C_10  and  O_20
    2  A    between atoms: O_20  and  C_29
    3  A    between atoms: C_29  and  C_30
                            x       y       z     vdW  Elec       q    Type
                         _______ _______ _______ _____ _____    ______ ____

>  <TORSDO>
F 3

$$$$
=
 OpenBabel11122410423D

 32 37  0  0  1  0  0  0  0  0999 V2000
  190.4740  176.5900  136.4400 C   0  0  0  0  0  2  0  0  0  0  0  0
  189.4280  177.2390  141.4980 C   0  0  0  0  0  0  0  0  0  0  0  0
  184.9120  179.0550  141.4650 C   0  0  0  0  0  3  0  0  0  0  0  0
  184.8280  178.8850  142.8470 C   0  0  0  0  0  3  0  0  0  0  0  0
  190.5320  176.4590  143.6380 C   0  0  1  0  0  3  0  0  0  0  0  0
  190.5330  176.8560  145.0810 C   0  0  0  0  0  0  0  0  0  0  0  0
  190.4210  176.5200  139.3030 C   0  0  1  0  0  3  0  0  0  0  0  0
  188.4120  177.9420  139.3710 N   0  0  0  0  0  2  0  0  0  0  0  0
  189.7950  177.3540  147.1210 C   0  0  0  0  0  0  0  0  0  0  0  0
  189.3100  177.2990  137.1540 C   0  0  2  0  0  3  0  0  0  0  0  0
  186.0780  178.6950  140.7870 C   0  0  0  0  0  3  0  0  0  0  0  0
  188.3400  177.7970  140.7980 C   0  0  0  0  0  0  0  0  0  0  0  0
  187.1720  178.1580  141.4830 C   0  0  0  0  0  0  0  0  0  0  0  0
  188.1810  177.4490  143.5950 C   0  0  0  0  0  0  0  0  0  0  0  0
  191.0480  177.1060  147.3190 N   0  0  0  0  0  0  0  0  0  0  0  0
  191.8070  176.7930  137.1570 C   0  0  0  0  0  2  0  0  0  0  0  0
  189.6290  177.6420  138.6220 C   0  0  2  0  0  3  0  0  0  0  0  0
  191.6720  176.7550  146.0430 C   0  0  0  0  0  2  0  0  0  0  0  0
  191.7490  176.2370  138.5850 C   0  0  0  0  0  2  0  0  0  0  0  0
  185.9080  178.3540  143.5520 C   0  0  0  0  0  3  0  0  0  0  0  0
  187.0890  177.9840  142.8860 C   0  0  0  0  0  0  0  0  0  0  0  0
  188.0870  177.2610  145.0980 C   0  0  0  0  0  2  0  0  0  0  0  0
  190.6960  176.8940  140.7550 C   0  0  0  0  0  2  0  0  0  0  0  0
  190.4710  174.6820  143.5100 Cl  0  0  0  0  0  0  0  0  0  0  0  0
  188.8600  177.7280  148.2150 C   0  0  0  0  0  1  0  0  0  0  0  0
  189.3580  177.0700  142.8950 C   0  0  0  0  0  0  0  0  0  0  0  0
  189.4440  177.2110  145.7260 C   0  0  0  0  0  0  0  0  0  0  0  0
  188.1690  176.4930  137.0680 O   0  0  0  0  0  0  0  0  0  0  0  0
  188.4670  175.5520  136.0810 C   0  0  0  0  0  2  0  0  0  0  0  0
  187.7960  174.2640  136.4030 C   0  0  0  0  0  0  0  0  0  0  0  0
  186.5470  174.1610  136.2930 O   0  0  0  0  0  0  0  0  0  0  0  0
  188.5610  173.1610  136.8740 N   0  0  0  0  0  1  0  0  0  0  0  0
  1 10  1  0  0  0  0
  1 16  1  0  0  0  0
  2 26  1  0  0  0  0
  3  4  1  0  0  0  0
  4 20  2  0  0  0  0
  5 24  1  1  0  0  0
  5  6  1  0  0  0  0
  6 27  2  0  0  0  0
  6 18  1  0  0  0  0
  7 19  1  6  0  0  0
  7 23  1  0  0  0  0
  8 12  1  0  0  0  0
  9 15  2  0  0  0  0
  9 25  1  0  0  0  0
 10 28  1  1  0  0  0
 10 17  1  0  0  0  0
 11  3  2  0  0  0  0
 11 13  1  0  0  0  0
 12 13  1  0  0  0  0
 12  2  2  0  0  0  0
 13 21  2  0  0  0  0
 14 22  1  0  0  0  0
 16 19  1  0  0  0  0
 17  7  1  0  0  0  0
 17  8  1  1  0  0  0
 18 15  1  0  0  0  0
 21 20  1  0  0  0  0
 21 14  1  0  0  0  0
 22 27  1  0  0  0  0
 23  2  1  0  0  0  0
 26 14  2  0  0  0  0
 26  5  1  0  0  0  0
 27  9  1  0  0  0  0
 29 30  1  0  0  0  0
 29 28  1  0  0  0  0
 30 32  1  0  0  0  0
 31 30  2  0  0  0  0
M  END
>  <MODEL>
2

>  <REMARK>
 VINA RESULT:      -9.6      1.408      1.745
  Name = 
  3 active torsions:
  status: ('A' for Active; 'I' for Inactive)
    1  A    between atoms: C_10  and  O_20
    2  A    between atoms: O_20  and  C_29
    3  A    between atoms: C_29  and  C_30
                            x       y       z     vdW  Elec       q    Type
                         _______ _______ _______ _____ _____    ______ ____

>  <TORSDO>
F 3

$$$$
=
 OpenBabel11122410423D

 32 37  0  0  1  0  0  0  0  0999 V2000
  191.2790  177.5030  140.9420 C   0  0  0  0  0  2  0  0  0  0  0  0
  186.1740  178.0010  141.8250 C   0  0  0  0  0  0  0  0  0  0  0  0
  185.9160  178.2640  146.6790 C   0  0  0  0  0  3  0  0  0  0  0  0
  184.5720  178.6280  146.5930 C   0  0  0  0  0  3  0  0  0  0  0  0
  184.1740  178.5100  140.3580 C   0  0  1  0  0  3  0  0  0  0  0  0
  182.6900  178.3360  140.4260 C   0  0  0  0  0  0  0  0  0  0  0  0
  188.4560  177.9520  140.7710 C   0  0  1  0  0  3  0  0  0  0  0  0
  188.1710  177.5270  143.1800 N   0  0  0  0  0  2  0  0  0  0  0  0
  180.5950  178.4580  141.1670 C   0  0  0  0  0  0  0  0  0  0  0  0
  190.4630  177.4460  142.2450 C   0  0  2  0  0  3  0  0  0  0  0  0
  186.6460  178.0110  145.5160 C   0  0  0  0  0  3  0  0  0  0  0  0
  186.7790  177.8680  143.0900 C   0  0  0  0  0  0  0  0  0  0  0  0
  186.0410  178.1220  144.2550 C   0  0  0  0  0  0  0  0  0  0  0  0
  184.0590  178.6030  142.9050 C   0  0  0  0  0  0  0  0  0  0  0  0
  180.4420  178.1790  139.9150 N   0  0  0  0  0  0  0  0  0  0  0  0
  190.5500  176.8510  139.7700 C   0  0  0  0  0  2  0  0  0  0  0  0
  188.9630  177.1900  142.0010 C   0  0  2  0  0  3  0  0  0  0  0  0
  181.7600  178.0700  139.2880 C   0  0  0  0  0  3  0  0  0  0  0  0
  189.2160  177.5560  139.4960 C   0  0  0  0  0  2  0  0  0  0  0  0
  183.9570  178.7400  145.3460 C   0  0  0  0  0  3  0  0  0  0  0  0
  184.6770  178.4910  144.1650 C   0  0  0  0  0  0  0  0  0  0  0  0
  182.5990  179.0030  142.8130 C   0  0  0  0  0  2  0  0  0  0  0  0
  186.9670  177.6840  140.5810 C   0  0  0  0  0  2  0  0  0  0  0  0
  184.5560  180.1160  139.6840 Cl  0  0  0  0  0  0  0  0  0  0  0  0
  179.4520  178.6540  142.0990 C   0  0  0  0  0  1  0  0  0  0  0  0
  184.8140  178.3610  141.7260 C   0  0  0  0  0  0  0  0  0  0  0  0
  181.9930  178.5570  141.5190 C   0  0  2  0  0  3  0  0  0  0  0  0
  190.6560  178.6380  142.9520 O   0  0  0  0  0  0  0  0  0  0  0  0
  191.6760  178.3560  143.8620 C   0  0  0  0  0  2  0  0  0  0  0  0
  191.1060  177.6570  145.0470 C   0  0  0  0  0  0  0  0  0  0  0  0
  190.1400  178.1660  145.6710 O   0  0  0  0  0  0  0  0  0  0  0  0
  191.6810  176.4370  145.4970 N   0  0  0  0  0  1  0  0  0  0  0  0
  1 10  1  0  0  0  0
  2 12  1  0  0  0  0
  4  3  1  0  0  0  0
  5 24  1  1  0  0  0
  5  6  1  0  0  0  0
  5 26  1  0  0  0  0
  6 27  1  0  0  0  0
  7 19  1  6  0  0  0
  7 17  1  0  0  0  0
  9 27  1  0  0  0  0
  9 25  1  0  0  0  0
 10 28  1  6  0  0  0
 11  3  2  0  0  0  0
 12  8  1  0  0  0  0
 12 13  2  0  0  0  0
 13 11  1  0  0  0  0
 14 21  2  0  0  0  0
 15  9  2  0  0  0  0
 16  1  1  0  0  0  0
 17 10  1  0  0  0  0
 17  8  1  1  0  0  0
 18 15  1  0  0  0  0
 18  6  2  0  0  0  0
 19 16  1  0  0  0  0
 20  4  2  0  0  0  0
 21 13  1  0  0  0  0
 21 20  1  0  0  0  0
 22 14  1  0  0  0  0
 23  7  1  0  0  0  0
 23  2  1  0  0  0  0
 26  2  2  0  0  0  0
 26 14  1  0  0  0  0
 27 22  1  6  0  0  0
 28 29  1  0  0  0  0
 29 30  1  0  0  0  0
 30 32  1  0  0  0  0
 30 31  2  0  0  0  0
M  END
>  <MODEL>
3

>  <REMARK>
 VINA RESULT:      -8.9      3.460      6.865
  Name = 
  3 active torsions:
  status: ('A' for Active; 'I' for Inactive)
    1  A    between atoms: C_10  and  O_20
    2  A    between atoms: O_20  and  C_29
    3  A    between atoms: C_29  and  C_30
                            x       y       z     vdW  Elec       q    Type
                         _______ _______ _______ _____ _____    ______ ____

>  <TORSDO>
F 3

$$$$
=
 OpenBabel11122410423D

 32 37  0  0  1  0  0  0  0  0999 V2000
  190.3700  176.8850  147.8000 C   0  0  0  0  0  2  0  0  0  0  0  0
  189.4810  177.0840  142.6750 C   0  0  0  0  0  0  0  0  0  0  0  0
  184.9320  178.7960  142.4110 C   0  0  0  0  0  3  0  0  0  0  0  0
  185.0720  178.9710  141.0340 C   0  0  0  0  0  3  0  0  0  0  0  0
  190.9540  176.9000  140.6240 C   0  0  1  0  0  3  0  0  0  0  0  0
  190.7780  176.5990  139.1690 C   0  0  0  0  0  0  0  0  0  0  0  0
  190.5580  176.9560  144.9430 C   0  0  1  0  0  3  0  0  0  0  0  0
  188.1250  177.2650  144.7190 N   0  0  0  0  0  2  0  0  0  0  0  0
  190.0280  176.7180  137.0770 C   0  0  0  0  0  0  0  0  0  0  0  0
  189.0800  177.1450  147.0020 C   0  0  2  0  0  3  0  0  0  0  0  0
  185.9900  178.2780  143.1600 C   0  0  0  0  0  3  0  0  0  0  0  0
  188.2600  177.4110  143.2970 C   0  0  0  0  0  0  0  0  0  0  0  0
  187.2000  177.9300  142.5410 C   0  0  0  0  0  0  0  0  0  0  0  0
  188.5540  177.7590  140.5110 C   0  0  0  0  0  0  0  0  0  0  0  0
  191.1290  176.0530  136.9520 N   0  0  0  0  0  0  0  0  0  0  0  0
  191.2580  175.8310  147.1440 C   0  0  0  0  0  2  0  0  0  0  0  0
  189.1760  176.6680  145.5390 C   0  0  2  0  0  3  0  0  0  0  0  0
  191.7440  175.8980  138.2710 C   0  0  0  0  0  3  0  0  0  0  0  0
  191.6800  176.2710  145.7380 C   0  0  0  0  0  2  0  0  0  0  0  0
  186.2690  178.6280  140.4040 C   0  0  0  0  0  3  0  0  0  0  0  0
  187.3450  178.1070  141.1430 C   0  0  0  0  0  0  0  0  0  0  0  0
  188.7070  177.9530  139.0140 C   0  0  0  0  0  2  0  0  0  0  0  0
  190.5990  176.4860  143.4930 C   0  0  0  0  0  2  0  0  0  0  0  0
  192.1000  178.2530  140.8180 Cl  0  0  0  0  0  0  0  0  0  0  0  0
  189.1560  177.0680  135.9240 C   0  0  0  0  0  1  0  0  0  0  0  0
  189.6310  177.2480  141.2830 C   0  0  0  0  0  0  0  0  0  0  0  0
  189.7780  177.0690  138.4570 C   0  0  2  0  0  3  0  0  0  0  0  0
  188.7790  178.5100  147.0610 O   0  0  0  0  0  0  0  0  0  0  0  0
  187.8450  178.6280  148.0920 C   0  0  0  0  0  2  0  0  0  0  0  0
  186.5210  179.0000  147.5240 C   0  0  0  0  0  0  0  0  0  0  0  0
  186.0550  180.1520  147.7180 O   0  0  0  0  0  0  0  0  0  0  0  0
  185.7630  178.0400  146.7980 N   0  0  0  0  0  1  0  0  0  0  0  0
  2 12  1  0  0  0  0
  2 23  1  0  0  0  0
  3 11  2  0  0  0  0
  4  3  1  0  0  0  0
  5 24  1  6  0  0  0
  5 26  1  0  0  0  0
  6  5  1  0  0  0  0
  7 23  1  6  0  0  0
  7 17  1  0  0  0  0
  7 19  1  0  0  0  0
  9 27  1  0  0  0  0
 10 28  1  6  0  0  0
 10  1  1  0  0  0  0
 12  8  1  0  0  0  0
 13 11  1  0  0  0  0
 13 12  2  0  0  0  0
 14 21  2  0  0  0  0
 14 26  1  0  0  0  0
 15  9  2  0  0  0  0
 15 18  1  0  0  0  0
 16  1  1  0  0  0  0
 17  8  1  6  0  0  0
 17 10  1  0  0  0  0
 18  6  2  0  0  0  0
 19 16  1  0  0  0  0
 20  4  2  0  0  0  0
 20 21  1  0  0  0  0
 21 13  1  0  0  0  0
 22 14  1  0  0  0  0
 25  9  1  0  0  0  0
 26  2  2  0  0  0  0
 27 22  1  6  0  0  0
 27  6  1  0  0  0  0
 28 29  1  0  0  0  0
 30 31  2  0  0  0  0
 30 29  1  0  0  0  0
 32 30  1  0  0  0  0
M  END
>  <MODEL>
4

>  <REMARK>
 VINA RESULT:      -8.7      3.430      7.475
  Name = 
  3 active torsions:
  status: ('A' for Active; 'I' for Inactive)
    1  A    between atoms: C_10  and  O_20
    2  A    between atoms: O_20  and  C_29
    3  A    between atoms: C_29  and  C_30
                            x       y       z     vdW  Elec       q    Type
                         _______ _______ _______ _____ _____    ______ ____

>  <TORSDO>
F 3

$$$$
=
 OpenBabel11122410423D

 32 37  0  0  1  0  0  0  0  0999 V2000
  180.2750  179.3580  142.0950 C   0  0  0  0  0  2  0  0  0  0  0  0
  185.0910  178.2620  143.7370 C   0  0  0  0  0  0  0  0  0  0  0  0
  187.6780  178.2240  139.6140 C   0  0  0  0  0  3  0  0  0  0  0  0
  188.8620  178.1710  140.3500 C   0  0  0  0  0  3  0  0  0  0  0  0
  186.2080  178.2110  146.0080 C   0  0  1  0  0  3  0  0  0  0  0  0
  187.4290  177.5970  146.6180 C   0  0  0  0  0  0  0  0  0  0  0  0
  182.6750  178.9450  143.6010 C   0  0  1  0  0  3  0  0  0  0  0  0
  183.9330  178.3510  141.5690 N   0  0  0  0  0  2  0  0  0  0  0  0
  189.5610  177.0520  146.9490 C   0  0  0  0  0  0  0  0  0  0  0  0
  181.5550  179.0020  141.3200 C   0  0  2  0  0  3  0  0  0  0  0  0
  186.4470  178.2530  140.2710 C   0  0  0  0  0  3  0  0  0  0  0  0
  185.1470  178.2620  142.3290 C   0  0  0  0  0  0  0  0  0  0  0  0
  186.3860  178.2320  141.6730 C   0  0  0  0  0  0  0  0  0  0  0  0
  187.5360  178.1540  143.8300 C   0  0  0  0  0  0  0  0  0  0  0  0
  189.0160  176.7950  148.0920 N   0  0  0  0  0  0  0  0  0  0  0  0
  180.1420  178.5690  143.3950 C   0  0  0  0  0  2  0  0  0  0  0  0
  182.6180  178.3180  142.2030 C   0  0  2  0  0  3  0  0  0  0  0  0
  187.5900  177.1140  148.0220 C   0  0  0  0  0  2  0  0  0  0  0  0
  181.3260  178.8520  144.3290 C   0  0  0  0  0  2  0  0  0  0  0  0
  188.8160  178.1480  141.7450 C   0  0  0  0  0  3  0  0  0  0  0  0
  187.5860  178.1780  142.4230 C   0  0  0  0  0  0  0  0  0  0  0  0
  188.8240  178.1010  144.6310 C   0  0  0  0  0  2  0  0  0  0  0  0
  183.7510  178.2520  144.4300 C   0  0  0  0  0  2  0  0  0  0  0  0
  186.0280  179.8850  146.5940 Cl  0  0  0  0  0  0  0  0  0  0  0  0
  191.0100  176.8550  146.6800 C   0  0  0  0  0  1  0  0  0  0  0  0
  186.2800  178.2010  144.4920 C   0  0  0  0  0  0  0  0  0  0  0  0
  188.5900  177.5510  146.0020 C   0  0  0  0  0  0  0  0  0  0  0  0
  182.0680  180.1650  140.7360 O   0  0  0  0  0  0  0  0  0  0  0  0
  181.8870  179.9870  139.3630 C   0  0  0  0  0  2  0  0  0  0  0  0
  183.1950  179.6790  138.7240 C   0  0  0  0  0  0  0  0  0  0  0  0
  184.1440  180.4990  138.8090 O   0  0  0  0  0  0  0  0  0  0  0  0
  183.3580  178.4770  137.9810 N   0  0  0  0  0  1  0  0  0  0  0  0
  1 16  1  0  0  0  0
  2 23  1  0  0  0  0
  2 26  1  0  0  0  0
  3 11  2  0  0  0  0
  3  4  1  0  0  0  0
  4 20  2  0  0  0  0
  5 24  1  1  0  0  0
  5  6  1  0  0  0  0
  6 18  1  0  0  0  0
  7 19  1  1  0  0  0
  7 23  1  0  0  0  0
  8 12  1  0  0  0  0
  9 15  2  0  0  0  0
 10 28  1  1  0  0  0
 10  1  1  0  0  0  0
 10 17  1  0  0  0  0
 11 13  1  0  0  0  0
 12  2  2  0  0  0  0
 13 12  1  0  0  0  0
 13 21  2  0  0  0  0
 14 26  2  0  0  0  0
 14 22  1  0  0  0  0
 16 19  1  0  0  0  0
 17  8  1  6  0  0  0
 17  7  1  0  0  0  0
 18 15  1  0  0  0  0
 20 21  1  0  0  0  0
 21 14  1  0  0  0  0
 22 27  1  0  0  0  0
 25  9  1  0  0  0  0
 26  5  1  0  0  0  0
 27  6  2  0  0  0  0
 27  9  1  0  0  0  0
 29 28  1  0  0  0  0
 30 31  2  0  0  0  0
 30 29  1  0  0  0  0
 32 30  1  0  0  0  0
M  END
>  <MODEL>
5

>  <REMARK>
 VINA RESULT:      -8.4      2.720      5.424
  Name = 
  3 active torsions:
  status: ('A' for Active; 'I' for Inactive)
    1  A    between atoms: C_10  and  O_20
    2  A    between atoms: O_20  and  C_29
    3  A    between atoms: C_29  and  C_30
                            x       y       z     vdW  Elec       q    Type
                         _______ _______ _______ _____ _____    ______ ____

>  <TORSDO>
F 3

$$$$
=
 OpenBabel11122410423D

 32 37  0  0  1  0  0  0  0  0999 V2000
  191.3800  176.8070  146.4140 C   0  0  0  0  0  2  0  0  0  0  0  0
  187.8680  177.5340  142.6410 C   0  0  0  0  0  0  0  0  0  0  0  0
  183.8650  178.8180  145.0940 C   0  0  0  0  0  3  0  0  0  0  0  0
  183.2380  179.1690  143.8980 C   0  0  0  0  0  3  0  0  0  0  0  0
  188.0090  177.7410  140.1220 C   0  0  1  0  0  3  0  0  0  0  0  0
  187.0820  177.6010  138.9550 C   0  0  0  0  0  0  0  0  0  0  0  0
  190.0000  177.2390  143.9420 C   0  0  1  0  0  3  0  0  0  0  0  0
  187.8240  177.3360  145.0920 N   0  0  0  0  0  2  0  0  0  0  0  0
  185.3220  177.8980  137.6260 C   0  0  0  0  0  0  0  0  0  0  0  0
  189.8590  177.0350  146.4720 C   0  0  2  0  0  3  0  0  0  0  0  0
  185.1690  178.3180  145.0790 C   0  0  0  0  0  3  0  0  0  0  0  0
  187.1690  177.6640  143.8570 C   0  0  0  0  0  0  0  0  0  0  0  0
  185.8600  178.1660  143.8670 C   0  0  0  0  0  0  0  0  0  0  0  0
  185.9110  178.3720  141.4310 C   0  0  0  0  0  0  0  0  0  0  0  0
  186.1930  177.3630  136.8370 N   0  0  0  0  0  0  0  0  0  0  0  0
  191.7930  175.9300  145.2350 C   0  0  0  0  0  2  0  0  0  0  0  0
  189.1600  176.7480  145.1280 C   0  0  2  0  0  3  0  0  0  0  0  0
  187.4240  177.1110  137.5860 C   0  0  0  0  0  3  0  0  0  0  0  0
  191.3840  176.5750  143.9050 C   0  0  0  0  0  2  0  0  0  0  0  0
  183.9140  179.0220  142.6860 C   0  0  0  0  0  3  0  0  0  0  0  0
  185.2270  178.5220  142.6520 C   0  0  0  0  0  0  0  0  0  0  0  0
  185.2300  178.7580  140.1310 C   0  0  0  0  0  2  0  0  0  0  0  0
  189.2610  176.9530  142.6390 C   0  0  0  0  0  2  0  0  0  0  0  0
  189.0550  179.1650  139.8830 Cl  0  0  0  0  0  0  0  0  0  0  0  0
  183.9600  178.2980  137.1800 C   0  0  0  0  0  1  0  0  0  0  0  0
  187.2430  177.8780  141.4260 C   0  0  0  0  0  0  0  0  0  0  0  0
  185.8480  178.0550  138.9630 C   0  0  2  0  0  3  0  0  0  0  0  0
  189.6140  178.3470  146.8900 O   0  0  0  0  0  0  0  0  0  0  0  0
  189.4070  178.2530  148.2670 C   0  0  0  0  0  2  0  0  0  0  0  0
  187.9550  178.0790  148.5410 C   0  0  0  0  0  0  0  0  0  0  0  0
  187.5560  177.0930  149.2130 O   0  0  0  0  0  0  0  0  0  0  0  0
  187.0140  179.0030  148.0070 N   0  0  0  0  0  1  0  0  0  0  0  0
  1 10  1  0  0  0  0
  2 12  1  0  0  0  0
  4  3  1  0  0  0  0
  5 24  1  6  0  0  0
  5 26  1  0  0  0  0
  6 27  1  0  0  0  0
  6  5  1  0  0  0  0
  7 23  1  6  0  0  0
  7 17  1  0  0  0  0
  9 27  1  0  0  0  0
 10 28  1  6  0  0  0
 11  3  2  0  0  0  0
 12 13  2  0  0  0  0
 12  8  1  0  0  0  0
 13 11  1  0  0  0  0
 14 21  2  0  0  0  0
 15 18  1  0  0  0  0
 15  9  2  0  0  0  0
 16  1  1  0  0  0  0
 17  8  1  1  0  0  0
 17 10  1  0  0  0  0
 18  6  2  0  0  0  0
 19  7  1  0  0  0  0
 19 16  1  0  0  0  0
 20  4  2  0  0  0  0
 21 20  1  0  0  0  0
 21 13  1  0  0  0  0
 22 14  1  0  0  0  0
 23  2  1  0  0  0  0
 25  9  1  0  0  0  0
 26 14  1  0  0  0  0
 26  2  2  0  0  0  0
 27 22  1  6  0  0  0
 28 29  1  0  0  0  0
 29 30  1  0  0  0  0
 30 31  2  0  0  0  0
 32 30  1  0  0  0  0
M  END
>  <MODEL>
6

>  <REMARK>
 VINA RESULT:      -8.4      3.305      7.531
  Name = 
  3 active torsions:
  status: ('A' for Active; 'I' for Inactive)
    1  A    between atoms: C_10  and  O_20
    2  A    between atoms: O_20  and  C_29
    3  A    between atoms: C_29  and  C_30
                            x       y       z     vdW  Elec       q    Type
                         _______ _______ _______ _____ _____    ______ ____

>  <TORSDO>
F 3

$$$$
=
 OpenBabel11122410423D

 32 37  0  0  1  0  0  0  0  0999 V2000
  186.4760  177.9460  146.2020 C   0  0  0  0  0  2  0  0  0  0  0  0
  184.3370  178.7850  141.5310 C   0  0  0  0  0  0  0  0  0  0  0  0
  188.0600  178.0870  138.4740 C   0  0  0  0  0  3  0  0  0  0  0  0
  187.1830  178.1200  137.3890 C   0  0  0  0  0  3  0  0  0  0  0  0
  181.9570  179.0070  140.6990 C   0  0  1  0  0  3  0  0  0  0  0  0
  181.2600  179.5750  139.5020 C   0  0  0  0  0  0  0  0  0  0  0  0
  184.7180  178.3150  143.9710 C   0  0  1  0  0  3  0  0  0  0  0  0
  186.6170  178.5420  142.4210 N   0  0  0  0  0  2  0  0  0  0  0  0
  180.7090  179.9580  137.3810 C   0  0  0  0  0  0  0  0  0  0  0  0
  187.1080  178.0870  144.8060 C   0  0  2  0  0  3  0  0  0  0  0  0
  187.5730  178.2510  139.7720 C   0  0  0  0  0  3  0  0  0  0  0  0
  185.7170  178.6100  141.3050 C   0  0  0  0  0  0  0  0  0  0  0  0
  186.2020  178.4470  139.9990 C   0  0  0  0  0  0  0  0  0  0  0  0
  183.9320  178.6780  139.1180 C   0  0  0  0  0  0  0  0  0  0  0  0
  179.6830  180.4000  138.0300 N   0  0  0  0  0  0  0  0  0  0  0  0
  185.2970  178.8950  146.4060 C   0  0  0  0  0  2  0  0  0  0  0  0
  186.1700  178.7720  143.7920 C   0  0  2  0  0  3  0  0  0  0  0  0
  179.9080  180.2070  139.4630 C   0  0  0  0  0  2  0  0  0  0  0  0
  184.1900  178.6190  145.3820 C   0  0  0  0  0  2  0  0  0  0  0  0
  185.8180  178.3150  137.6010 C   0  0  0  0  0  3  0  0  0  0  0  0
  185.3090  178.4800  138.9010 C   0  0  0  0  0  0  0  0  0  0  0  0
  182.9780  178.7090  137.9380 C   0  0  0  0  0  2  0  0  0  0  0  0
  183.8330  179.0010  142.9370 C   0  0  0  0  0  2  0  0  0  0  0  0
  181.2230  177.4390  141.1260 Cl  0  0  0  0  0  0  0  0  0  0  0  0
  180.8040  179.9870  135.8960 C   0  0  0  0  0  1  0  0  0  0  0  0
  183.4420  178.8270  140.4430 C   0  0  0  0  0  0  0  0  0  0  0  0
  181.7180  179.4400  138.2770 C   0  0  0  0  0  0  0  0  0  0  0  0
  187.4900  176.8200  144.3530 O   0  0  0  0  0  0  0  0  0  0  0  0
  188.8640  176.7520  144.5910 C   0  0  0  0  0  2  0  0  0  0  0  0
  189.5870  176.6240  143.2970 C   0  0  0  0  0  0  0  0  0  0  0  0
  189.8660  175.4850  142.8430 O   0  0  0  0  0  0  0  0  0  0  0  0
  190.0000  177.7900  142.5940 N   0  0  0  0  0  1  0  0  0  0  0  0
  1 16  1  0  0  0  0
  2 23  1  0  0  0  0
  3 11  2  0  0  0  0
  4 20  2  0  0  0  0
  4  3  1  0  0  0  0
  5 24  1  6  0  0  0
  6  5  1  0  0  0  0
  7 23  1  6  0  0  0
  7 19  1  0  0  0  0
  9 15  2  0  0  0  0
  9 27  1  0  0  0  0
 10 28  1  6  0  0  0
 10  1  1  0  0  0  0
 11 13  1  0  0  0  0
 12  2  1  0  0  0  0
 12  8  1  0  0  0  0
 13 12  2  0  0  0  0
 14 26  1  0  0  0  0
 15 18  1  0  0  0  0
 17  8  1  6  0  0  0
 17  7  1  0  0  0  0
 17 10  1  0  0  0  0
 18  6  1  0  0  0  0
 19 16  1  0  0  0  0
 20 21  1  0  0  0  0
 21 14  2  0  0  0  0
 21 13  1  0  0  0  0
 22 27  1  0  0  0  0
 22 14  1  0  0  0  0
 25  9  1  0  0  0  0
 26  5  1  0  0  0  0
 26  2  2  0  0  0  0
 27  6  2  0  0  0  0
 28 29  1  0  0  0  0
 30 29  1  0  0  0  0
 31 30  2  0  0  0  0
 32 30  1  0  0  0  0
M  END
>  <MODEL>
7

>  <REMARK>
 VINA RESULT:      -8.4      3.803      8.478
  Name = 
  3 active torsions:
  status: ('A' for Active; 'I' for Inactive)
    1  A    between atoms: C_10  and  O_20
    2  A    between atoms: O_20  and  C_29
    3  A    between atoms: C_29  and  C_30
                            x       y       z     vdW  Elec       q    Type
                         _______ _______ _______ _____ _____    ______ ____

>  <TORSDO>
F 3

$$$$
