=
 OpenBabel11122411113D

 31 35  0  0  1  0  0  0  0  0999 V2000
  180.6660  178.6960  143.0710 C   0  0  0  0  0  0  0  0  0  0  0  0
  184.2710  178.9620  142.0280 N   0  0  0  0  0  0  0  0  0  0  0  0
  185.1070  178.5830  143.1430 C   0  0  0  0  0  0  0  0  0  0  0  0
  183.6460  176.7050  137.3170 O   0  0  0  0  0  0  0  0  0  0  0  0
  184.7790  177.2530  137.3680 C   0  0  0  0  0  0  0  0  0  0  0  0
  185.4770  178.2050  145.5160 C   0  0  0  0  0  0  0  0  0  0  0  0
  182.8500  178.7170  142.0160 C   0  0  0  0  0  0  0  0  0  0  0  0
  180.1060  178.1610  141.9070 C   0  0  0  0  0  3  0  0  0  0  0  0
  184.6360  178.5880  144.4660 C   0  0  0  0  0  3  0  0  0  0  0  0
  184.3470  178.3470  139.6380 C   0  0  0  0  0  0  0  0  0  0  0  0
  179.6540  179.0140  144.4630 Cl  0  0  0  0  0  0  0  0  0  0  0  0
  186.8950  178.1500  141.4790 C   0  0  0  0  0  2  0  0  0  0  0  0
  184.9700  178.2130  146.9120 C   0  0  0  0  0  1  0  0  0  0  0  0
  183.1150  177.9260  139.7060 N   0  0  0  0  0  0  0  0  0  0  0  0
  184.8840  179.2610  140.7150 C   0  0  2  0  0  3  0  0  0  0  0  0
  185.1530  178.0700  138.4850 N   0  0  0  0  0  2  0  0  0  0  0  0
  182.0350  178.9720  143.1280 C   0  0  0  0  0  3  0  0  0  0  0  0
  186.7900  177.8070  145.2510 C   0  0  0  0  0  3  0  0  0  0  0  0
  182.2790  178.1940  140.8420 C   0  0  0  0  0  0  0  0  0  0  0  0
  180.9120  177.9080  140.7940 C   0  0  0  0  0  3  0  0  0  0  0  0
  186.3560  179.2990  140.7540 N   0  0  0  0  0  2  0  0  0  0  0  0
  186.4280  178.1940  142.8920 C   0  0  0  0  0  0  0  0  0  0  0  0
  187.2660  177.7980  143.9360 C   0  0  0  0  0  3  0  0  0  0  0  0
  186.4780  174.1580  136.0190 C   0  0  1  0  0  3  0  0  0  0  0  0
  185.1490  176.1120  135.1660 C   0  0  0  0  0  2  0  0  0  0  0  0
  187.7500  177.3390  137.7840 C   0  0  0  0  0  1  0  0  0  0  0  0
  186.3840  172.7210  136.4860 C   0  0  0  0  0  1  0  0  0  0  0  0
  185.0900  174.6530  135.6220 C   0  0  0  0  0  2  0  0  0  0  0  0
  187.1240  176.4790  136.7000 C   0  0  2  0  0  3  0  0  0  0  0  0
  185.7520  177.0150  136.2470 C   0  0  2  0  0  3  0  0  0  0  0  0
  187.0510  175.0190  137.1420 C   0  0  0  0  0  2  0  0  0  0  0  0
  1 17  1  0  0  0  0
  1 11  1  0  0  0  0
  2  3  1  0  0  0  0
  3  9  1  0  0  0  0
  4  5  2  0  0  0  0
  5 16  1  0  0  0  0
  6 13  1  0  0  0  0
  7  2  1  0  0  0  0
  7 17  2  0  0  0  0
  8  1  2  0  0  0  0
  9  6  2  0  0  0  0
 10 14  2  0  0  0  0
 12 22  1  0  0  0  0
 14 19  1  0  0  0  0
 15 10  1  6  0  0  0
 15 21  1  0  0  0  0
 15  2  1  0  0  0  0
 16 10  1  0  0  0  0
 18  6  1  0  0  0  0
 19  7  1  0  0  0  0
 20 19  2  0  0  0  0
 20  8  1  0  0  0  0
 21 12  1  0  0  0  0
 22  3  2  0  0  0  0
 22 23  1  0  0  0  0
 23 18  2  0  0  0  0
 24 27  1  1  0  0  0
 24 31  1  0  0  0  0
 25 28  1  0  0  0  0
 25 30  1  0  0  0  0
 28 24  1  0  0  0  0
 29 31  1  0  0  0  0
 29 26  1  1  0  0  0
 30 29  1  0  0  0  0
 30  5  1  1  0  0  0
M  END
>  <MODEL>
1

>  <REMARK>
 VINA RESULT:      -9.1      0.000      0.000
  Name = 
  1 active torsions:
  status: ('A' for Active; 'I' for Inactive)
    1  A    between atoms: C_5  and  C_30
                            x       y       z     vdW  Elec       q    Type
                         _______ _______ _______ _____ _____    ______ ____

>  <TORSDO>
F 1

$$$$
=
 OpenBabel11122411113D

 31 35  0  0  1  0  0  0  0  0999 V2000
  180.6730  178.7160  142.7440 C   0  0  0  0  0  0  0  0  0  0  0  0
  184.3200  178.7820  141.8200 N   0  0  0  0  0  0  0  0  0  0  0  0
  185.1040  178.5060  143.0020 C   0  0  0  0  0  0  0  0  0  0  0  0
  183.8050  176.0470  137.3570 O   0  0  0  0  0  0  0  0  0  0  0  0
  184.9500  176.5690  137.3940 C   0  0  0  0  0  0  0  0  0  0  0  0
  185.3760  178.3760  145.4140 C   0  0  0  0  0  0  0  0  0  0  0  0
  182.8950  178.5710  141.7790 C   0  0  0  0  0  0  0  0  0  0  0  0
  180.1420  178.0720  141.6230 C   0  0  0  0  0  3  0  0  0  0  0  0
  184.5860  178.6640  144.2970 C   0  0  0  0  0  3  0  0  0  0  0  0
  184.4660  177.9110  139.5150 C   0  0  0  0  0  0  0  0  0  0  0  0
  179.6200  179.2060  144.0530 Cl  0  0  0  0  0  0  0  0  0  0  0  0
  186.9390  177.8540  141.4650 C   0  0  0  0  0  2  0  0  0  0  0  0
  184.8190  178.5470  146.7810 C   0  0  0  0  0  1  0  0  0  0  0  0
  183.2210  177.5290  139.5800 N   0  0  0  0  0  0  0  0  0  0  0  0
  184.9880  178.9230  140.5080 C   0  0  2  0  0  3  0  0  0  0  0  0
  185.3050  177.4930  138.4310 N   0  0  0  0  0  2  0  0  0  0  0  0
  182.0470  178.9640  142.8250 C   0  0  0  0  0  3  0  0  0  0  0  0
  186.6870  177.9210  145.2450 C   0  0  0  0  0  3  0  0  0  0  0  0
  182.3520  177.9390  140.6470 C   0  0  0  0  0  0  0  0  0  0  0  0
  180.9800  177.6810  140.5750 C   0  0  0  0  0  3  0  0  0  0  0  0
  186.4590  178.9300  140.6010 N   0  0  0  0  0  2  0  0  0  0  0  0
  186.4220  178.0600  142.8460 C   0  0  0  0  0  0  0  0  0  0  0  0
  187.2100  177.7590  143.9590 C   0  0  0  0  0  3  0  0  0  0  0  0
  188.3600  177.9060  136.4650 C   0  0  1  0  0  3  0  0  0  0  0  0
  187.2650  175.7030  136.9730 C   0  0  0  0  0  2  0  0  0  0  0  0
  184.9550  177.8120  134.6620 C   0  0  0  0  0  1  0  0  0  0  0  0
  189.1460  179.0520  137.0650 C   0  0  0  0  0  1  0  0  0  0  0  0
  188.0790  176.8650  137.5450 C   0  0  0  0  0  2  0  0  0  0  0  0
  186.2310  177.2910  135.3000 C   0  0  2  0  0  3  0  0  0  0  0  0
  185.9560  176.1900  136.3430 C   0  0  2  0  0  3  0  0  0  0  0  0
  187.0530  178.4390  135.8830 C   0  0  0  0  0  2  0  0  0  0  0  0
  1 17  1  0  0  0  0
  1 11  1  0  0  0  0
  2  3  1  0  0  0  0
  3  9  1  0  0  0  0
  4  5  2  0  0  0  0
  5 16  1  0  0  0  0
  6 13  1  0  0  0  0
  7  2  1  0  0  0  0
  7 17  2  0  0  0  0
  8  1  2  0  0  0  0
  9  6  2  0  0  0  0
 10 14  2  0  0  0  0
 12 22  1  0  0  0  0
 14 19  1  0  0  0  0
 15 10  1  6  0  0  0
 15 21  1  0  0  0  0
 15  2  1  0  0  0  0
 16 10  1  0  0  0  0
 18  6  1  0  0  0  0
 19  7  1  0  0  0  0
 20 19  2  0  0  0  0
 20  8  1  0  0  0  0
 21 12  1  0  0  0  0
 22  3  2  0  0  0  0
 22 23  1  0  0  0  0
 23 18  2  0  0  0  0
 24 27  1  1  0  0  0
 24 28  1  0  0  0  0
 25 28  1  0  0  0  0
 29 26  1  1  0  0  0
 29 31  1  0  0  0  0
 29 30  1  0  0  0  0
 30 25  1  0  0  0  0
 30  5  1  1  0  0  0
 31 24  1  0  0  0  0
M  END
>  <MODEL>
2

>  <REMARK>
 VINA RESULT:      -9.0      0.901      2.046
  Name = 
  1 active torsions:
  status: ('A' for Active; 'I' for Inactive)
    1  A    between atoms: C_5  and  C_30
                            x       y       z     vdW  Elec       q    Type
                         _______ _______ _______ _____ _____    ______ ____

>  <TORSDO>
F 1

$$$$
=
 OpenBabel11122411113D

 31 35  0  0  1  0  0  0  0  0999 V2000
  189.3080  177.5450  141.8590 C   0  0  0  0  0  0  0  0  0  0  0  0
  185.6720  177.8180  142.7880 N   0  0  0  0  0  0  0  0  0  0  0  0
  185.5740  178.1510  144.1900 C   0  0  0  0  0  0  0  0  0  0  0  0
  184.2210  180.5460  138.5300 O   0  0  0  0  0  0  0  0  0  0  0  0
  183.1930  180.1280  139.1260 C   0  0  0  0  0  0  0  0  0  0  0  0
  186.4990  178.2780  146.4350 C   0  0  0  0  0  0  0  0  0  0  0  0
  186.9170  177.9010  142.0650 C   0  0  0  0  0  0  0  0  0  0  0  0
  189.2910  178.1510  140.6000 C   0  0  0  0  0  3  0  0  0  0  0  0
  186.6320  177.9320  145.0870 C   0  0  0  0  0  3  0  0  0  0  0  0
  184.5160  178.7240  140.8030 C   0  0  0  0  0  0  0  0  0  0  0  0
  190.8120  176.9490  142.5240 Cl  0  0  0  0  0  0  0  0  0  0  0  0
  183.2900  178.9830  143.6930 C   0  0  0  0  0  2  0  0  0  0  0  0
  187.6250  178.0430  147.3760 C   0  0  0  0  0  1  0  0  0  0  0  0
  185.6690  178.9920  140.2540 N   0  0  0  0  0  0  0  0  0  0  0  0
  184.4490  177.7520  141.9590 C   0  0  2  0  0  3  0  0  0  0  0  0
  183.3000  179.2280  140.2370 N   0  0  0  0  0  2  0  0  0  0  0  0
  188.1240  177.4220  142.5930 C   0  0  0  0  0  3  0  0  0  0  0  0
  185.3100  178.8510  146.8960 C   0  0  0  0  0  3  0  0  0  0  0  0
  186.9030  178.4940  140.7910 C   0  0  0  0  0  0  0  0  0  0  0  0
  188.0900  178.6280  140.0660 C   0  0  0  0  0  3  0  0  0  0  0  0
  183.2060  177.8780  142.7410 N   0  0  0  0  0  2  0  0  0  0  0  0
  184.3840  178.7150  144.6670 C   0  0  0  0  0  0  0  0  0  0  0  0
  184.2520  179.0740  146.0100 C   0  0  0  0  0  3  0  0  0  0  0  0
  179.6580  179.0180  139.8690 C   0  0  1  0  0  3  0  0  0  0  0  0
  181.0120  181.1350  139.8430 C   0  0  0  0  0  2  0  0  0  0  0  0
  181.8390  179.0130  136.6910 C   0  0  0  0  0  1  0  0  0  0  0  0
  179.1630  177.8900  140.7470 C   0  0  0  0  0  1  0  0  0  0  0  0
  180.4780  179.9930  140.7100 C   0  0  0  0  0  2  0  0  0  0  0  0
  181.0420  179.5720  137.8580 C   0  0  2  0  0  3  0  0  0  0  0  0
  181.8440  180.6080  138.6700 C   0  0  2  0  0  3  0  0  0  0  0  0
  180.5080  178.4440  138.7380 C   0  0  0  0  0  2  0  0  0  0  0  0
  1 11  1  0  0  0  0
  1 17  1  0  0  0  0
  2  3  1  0  0  0  0
  3 22  2  0  0  0  0
  3  9  1  0  0  0  0
  4  5  2  0  0  0  0
  5 16  1  0  0  0  0
  6 18  1  0  0  0  0
  6 13  1  0  0  0  0
  7 17  2  0  0  0  0
  7  2  1  0  0  0  0
  8  1  2  0  0  0  0
  9  6  2  0  0  0  0
 12 22  1  0  0  0  0
 14 19  1  0  0  0  0
 14 10  2  0  0  0  0
 15 10  1  6  0  0  0
 15 21  1  0  0  0  0
 15  2  1  0  0  0  0
 16 10  1  0  0  0  0
 19  7  1  0  0  0  0
 20  8  1  0  0  0  0
 20 19  2  0  0  0  0
 21 12  1  0  0  0  0
 22 23  1  0  0  0  0
 23 18  2  0  0  0  0
 24 28  1  0  0  0  0
 24 27  1  1  0  0  0
 25 28  1  0  0  0  0
 29 26  1  6  0  0  0
 29 30  1  0  0  0  0
 29 31  1  0  0  0  0
 30  5  1  1  0  0  0
 30 25  1  0  0  0  0
 31 24  1  0  0  0  0
M  END
>  <MODEL>
3

>  <REMARK>
 VINA RESULT:      -8.5      3.641      5.851
  Name = 
  1 active torsions:
  status: ('A' for Active; 'I' for Inactive)
    1  A    between atoms: C_5  and  C_30
                            x       y       z     vdW  Elec       q    Type
                         _______ _______ _______ _____ _____    ______ ____

>  <TORSDO>
F 1

$$$$
=
 OpenBabel11122411113D

 31 35  0  0  1  0  0  0  0  0999 V2000
  185.3680  178.7530  145.9470 C   0  0  0  0  0  0  0  0  0  0  0  0
  187.2510  178.5330  142.6970 N   0  0  0  0  0  0  0  0  0  0  0  0
  188.4440  177.7440  142.9030 C   0  0  0  0  0  0  0  0  0  0  0  0
  183.0390  177.6140  139.6830 O   0  0  0  0  0  0  0  0  0  0  0  0
  184.0210  177.8980  138.9480 C   0  0  0  0  0  0  0  0  0  0  0  0
  190.1400  176.7530  144.3360 C   0  0  0  0  0  0  0  0  0  0  0  0
  186.1890  178.5850  143.6700 C   0  0  0  0  0  0  0  0  0  0  0  0
  184.0550  178.6280  145.4850 C   0  0  0  0  0  3  0  0  0  0  0  0
  188.9890  177.5320  144.1800 C   0  0  0  0  0  3  0  0  0  0  0  0
  185.5470  178.4920  140.9110 C   0  0  0  0  0  0  0  0  0  0  0  0
  185.6800  178.9300  147.6590 Cl  0  0  0  0  0  0  0  0  0  0  0  0
  188.4530  177.3660  140.4510 C   0  0  0  0  0  2  0  0  0  0  0  0
  190.7090  176.5340  145.6900 C   0  0  0  0  0  1  0  0  0  0  0  0
  184.6130  178.3210  141.8050 N   0  0  0  0  0  0  0  0  0  0  0  0
  186.9040  179.0030  141.3380 C   0  0  2  0  0  3  0  0  0  0  0  0
  185.2620  178.3390  139.5140 N   0  0  0  0  0  2  0  0  0  0  0  0
  186.4340  178.7290  145.0420 C   0  0  0  0  0  3  0  0  0  0  0  0
  190.7500  176.1750  143.2180 C   0  0  0  0  0  3  0  0  0  0  0  0
  184.8650  178.4760  143.2090 C   0  0  0  0  0  0  0  0  0  0  0  0
  183.8020  178.4870  144.1170 C   0  0  0  0  0  3  0  0  0  0  0  0
  187.9570  178.7360  140.3420 N   0  0  0  0  0  2  0  0  0  0  0  0
  189.0710  177.1690  141.7910 C   0  0  0  0  0  0  0  0  0  0  0  0
  190.2130  176.3800  141.9440 C   0  0  0  0  0  3  0  0  0  0  0  0
  183.9890  174.9000  136.6470 C   0  0  1  0  0  3  0  0  0  0  0  0
  182.6180  176.9580  137.0940 C   0  0  0  0  0  2  0  0  0  0  0  0
  186.3990  177.8700  137.1170 C   0  0  0  0  0  1  0  0  0  0  0  0
  184.1340  173.4290  136.9720 C   0  0  0  0  0  1  0  0  0  0  0  0
  182.7790  175.4650  137.3860 C   0  0  0  0  0  2  0  0  0  0  0  0
  185.1190  177.1310  136.7680 C   0  0  2  0  0  3  0  0  0  0  0  0
  183.8840  177.7410  137.4590 C   0  0  2  0  0  3  0  0  0  0  0  0
  185.2590  175.6380  137.0610 C   0  0  0  0  0  2  0  0  0  0  0  0
  1 11  1  0  0  0  0
  2  3  1  0  0  0  0
  2  7  1  0  0  0  0
  3  9  1  0  0  0  0
  5 16  1  0  0  0  0
  5  4  2  0  0  0  0
  6 13  1  0  0  0  0
  7 17  1  0  0  0  0
  8  1  1  0  0  0  0
  9  6  2  0  0  0  0
 10 15  1  0  0  0  0
 10 14  2  0  0  0  0
 12 22  1  0  0  0  0
 14 19  1  0  0  0  0
 15 21  1  6  0  0  0
 15  2  1  0  0  0  0
 16 10  1  0  0  0  0
 17  1  2  0  0  0  0
 18  6  1  0  0  0  0
 19  7  2  0  0  0  0
 19 20  1  0  0  0  0
 20  8  2  0  0  0  0
 21 12  1  0  0  0  0
 22 23  1  0  0  0  0
 22  3  2  0  0  0  0
 23 18  2  0  0  0  0
 24 27  1  1  0  0  0
 24 31  1  0  0  0  0
 24 28  1  0  0  0  0
 25 28  1  0  0  0  0
 25 30  1  0  0  0  0
 29 31  1  0  0  0  0
 29 26  1  1  0  0  0
 29 30  1  0  0  0  0
 30  5  1  1  0  0  0
M  END
>  <MODEL>
4

>  <REMARK>
 VINA RESULT:      -8.5      2.317      3.624
  Name = 
  1 active torsions:
  status: ('A' for Active; 'I' for Inactive)
    1  A    between atoms: C_5  and  C_30
                            x       y       z     vdW  Elec       q    Type
                         _______ _______ _______ _____ _____    ______ ____

>  <TORSDO>
F 1

$$$$
=
 OpenBabel11122411113D

 31 35  0  0  1  0  0  0  0  0999 V2000
  185.0130  178.7700  145.2300 C   0  0  0  0  0  0  0  0  0  0  0  0
  187.4520  178.5150  142.3760 N   0  0  0  0  0  0  0  0  0  0  0  0
  188.5920  177.7400  142.8070 C   0  0  0  0  0  0  0  0  0  0  0  0
  183.8570  177.5120  138.6700 O   0  0  0  0  0  0  0  0  0  0  0  0
  184.9540  177.7920  138.1190 C   0  0  0  0  0  0  0  0  0  0  0  0
  190.0080  176.7870  144.5390 C   0  0  0  0  0  0  0  0  0  0  0  0
  186.2310  178.5740  143.1410 C   0  0  0  0  0  0  0  0  0  0  0  0
  183.8050  178.6270  144.5420 C   0  0  0  0  0  3  0  0  0  0  0  0
  188.9000  177.5540  144.1650 C   0  0  0  0  0  3  0  0  0  0  0  0
  186.0980  178.4310  140.3130 C   0  0  0  0  0  0  0  0  0  0  0  0
  185.0110  178.9780  146.9670 Cl  0  0  0  0  0  0  0  0  0  0  0  0
  189.0450  177.3240  140.4040 C   0  0  0  0  0  2  0  0  0  0  0  0
  190.3260  176.5960  145.9780 C   0  0  0  0  0  1  0  0  0  0  0  0
  185.0190  178.2660  141.0280 N   0  0  0  0  0  0  0  0  0  0  0  0
  187.3520  178.9610  140.9690 C   0  0  2  0  0  3  0  0  0  0  0  0
  186.0690  178.2540  138.8920 N   0  0  0  0  0  2  0  0  0  0  0  0
  186.2250  178.7420  144.5330 C   0  0  0  0  0  3  0  0  0  0  0  0
  190.8130  176.1980  143.5600 C   0  0  0  0  0  3  0  0  0  0  0  0
  185.0130  178.4460  142.4520 C   0  0  0  0  0  0  0  0  0  0  0  0
  183.8040  178.4620  143.1530 C   0  0  0  0  0  3  0  0  0  0  0  0
  188.5690  178.6870  140.1840 N   0  0  0  0  0  2  0  0  0  0  0  0
  189.4130  177.1530  141.8360 C   0  0  0  0  0  0  0  0  0  0  0  0
  190.5130  176.3770  142.2070 C   0  0  0  0  0  3  0  0  0  0  0  0
  186.2740  174.9880  135.9570 C   0  0  1  0  0  3  0  0  0  0  0  0
  184.2320  176.4420  136.1320 C   0  0  0  0  0  2  0  0  0  0  0  0
  187.4270  178.6040  136.6260 C   0  0  0  0  0  1  0  0  0  0  0  0
  186.8690  173.6560  136.3570 C   0  0  0  0  0  1  0  0  0  0  0  0
  184.8530  175.0940  136.5030 C   0  0  0  0  0  2  0  0  0  0  0  0
  186.5410  177.4710  136.1380 C   0  0  2  0  0  3  0  0  0  0  0  0
  185.0880  177.6110  136.6320 C   0  0  2  0  0  3  0  0  0  0  0  0
  187.1430  176.1160  136.5070 C   0  0  0  0  0  2  0  0  0  0  0  0
  1 11  1  0  0  0  0
  2  3  1  0  0  0  0
  2  7  1  0  0  0  0
  3  9  1  0  0  0  0
  5  4  2  0  0  0  0
  5 16  1  0  0  0  0
  6 13  1  0  0  0  0
  7 17  1  0  0  0  0
  8  1  1  0  0  0  0
  9  6  2  0  0  0  0
 10 15  1  0  0  0  0
 10 14  2  0  0  0  0
 12 22  1  0  0  0  0
 14 19  1  0  0  0  0
 15 21  1  6  0  0  0
 15  2  1  0  0  0  0
 16 10  1  0  0  0  0
 17  1  2  0  0  0  0
 18  6  1  0  0  0  0
 19  7  2  0  0  0  0
 19 20  1  0  0  0  0
 20  8  2  0  0  0  0
 21 12  1  0  0  0  0
 22 23  1  0  0  0  0
 22  3  2  0  0  0  0
 23 18  2  0  0  0  0
 24 27  1  1  0  0  0
 24 28  1  0  0  0  0
 24 31  1  0  0  0  0
 25 28  1  0  0  0  0
 25 30  1  0  0  0  0
 29 31  1  0  0  0  0
 29 26  1  1  0  0  0
 29 30  1  0  0  0  0
 30  5  1  1  0  0  0
M  END
>  <MODEL>
5

>  <REMARK>
 VINA RESULT:      -8.5      2.149      3.246
  Name = 
  1 active torsions:
  status: ('A' for Active; 'I' for Inactive)
    1  A    between atoms: C_5  and  C_30
                            x       y       z     vdW  Elec       q    Type
                         _______ _______ _______ _____ _____    ______ ____

>  <TORSDO>
F 1

$$$$
=
 OpenBabel11122411113D

 31 35  0  0  1  0  0  0  0  0999 V2000
  186.6330  178.2660  147.0450 C   0  0  0  0  0  0  0  0  0  0  0  0
  187.7000  178.4370  143.4420 N   0  0  0  0  0  0  0  0  0  0  0  0
  188.8780  177.6180  143.2660 C   0  0  0  0  0  0  0  0  0  0  0  0
  182.8720  177.9380  141.4150 O   0  0  0  0  0  0  0  0  0  0  0  0
  183.6670  178.3030  140.5080 C   0  0  0  0  0  0  0  0  0  0  0  0
  190.8210  176.4410  144.1320 C   0  0  0  0  0  0  0  0  0  0  0  0
  186.8960  178.3770  144.6360 C   0  0  0  0  0  0  0  0  0  0  0  0
  185.2440  178.2120  146.8940 C   0  0  0  0  0  3  0  0  0  0  0  0
  189.6960  177.2440  144.3440 C   0  0  0  0  0  3  0  0  0  0  0  0
  185.6280  178.6340  142.1140 C   0  0  0  0  0  0  0  0  0  0  0  0
  187.3400  178.2260  148.6450 Cl  0  0  0  0  0  0  0  0  0  0  0  0
  188.3030  177.5490  140.8540 C   0  0  0  0  0  2  0  0  0  0  0  0
  191.6810  176.0510  145.2790 C   0  0  0  0  0  1  0  0  0  0  0  0
  184.9210  178.3610  143.1750 N   0  0  0  0  0  0  0  0  0  0  0  0
  187.0650  179.0760  142.2680 C   0  0  2  0  0  3  0  0  0  0  0  0
  185.0210  178.6590  140.8160 N   0  0  0  0  0  2  0  0  0  0  0  0
  187.4580  178.3460  145.9190 C   0  0  0  0  0  3  0  0  0  0  0  0
  191.1330  176.0030  142.8420 C   0  0  0  0  0  3  0  0  0  0  0  0
  185.4980  178.3380  144.4900 C   0  0  0  0  0  0  0  0  0  0  0  0
  184.6760  178.2450  145.6170 C   0  0  0  0  0  3  0  0  0  0  0  0
  187.8470  178.9260  141.0280 N   0  0  0  0  0  2  0  0  0  0  0  0
  189.2080  177.1810  141.9770 C   0  0  0  0  0  0  0  0  0  0  0  0
  190.3230  176.3690  141.7630 C   0  0  0  0  0  3  0  0  0  0  0  0
  180.2730  178.8410  138.9370 C   0  0  1  0  0  3  0  0  0  0  0  0
  182.6200  179.7110  138.7170 C   0  0  0  0  0  2  0  0  0  0  0  0
  182.6870  175.8420  139.0980 C   0  0  0  0  0  1  0  0  0  0  0  0
  178.9310  179.0850  139.5930 C   0  0  0  0  0  1  0  0  0  0  0  0
  181.2450  179.9430  139.3480 C   0  0  0  0  0  2  0  0  0  0  0  0
  182.1730  177.2240  138.7340 C   0  0  2  0  0  3  0  0  0  0  0  0
  183.1820  178.3340  139.0860 C   0  0  2  0  0  3  0  0  0  0  0  0
  180.8030  177.4750  139.3630 C   0  0  0  0  0  2  0  0  0  0  0  0
  1 11  1  0  0  0  0
  2  7  1  0  0  0  0
  3  2  1  0  0  0  0
  3  9  1  0  0  0  0
  5 16  1  0  0  0  0
  5  4  2  0  0  0  0
  6  9  2  0  0  0  0
  6 13  1  0  0  0  0
  7 17  1  0  0  0  0
  8  1  1  0  0  0  0
 10 15  1  0  0  0  0
 10 14  2  0  0  0  0
 12 21  1  0  0  0  0
 12 22  1  0  0  0  0
 14 19  1  0  0  0  0
 15 21  1  6  0  0  0
 15  2  1  0  0  0  0
 16 10  1  0  0  0  0
 17  1  2  0  0  0  0
 18  6  1  0  0  0  0
 19  7  2  0  0  0  0
 19 20  1  0  0  0  0
 20  8  2  0  0  0  0
 22  3  2  0  0  0  0
 23 22  1  0  0  0  0
 23 18  2  0  0  0  0
 24 28  1  0  0  0  0
 24 31  1  0  0  0  0
 24 27  1  1  0  0  0
 25 30  1  0  0  0  0
 25 28  1  0  0  0  0
 29 30  1  0  0  0  0
 29 26  1  1  0  0  0
 29 31  1  0  0  0  0
 30  5  1  1  0  0  0
M  END
>  <MODEL>
6

>  <REMARK>
 VINA RESULT:      -8.4      3.287      5.563
  Name = 
  1 active torsions:
  status: ('A' for Active; 'I' for Inactive)
    1  A    between atoms: C_5  and  C_30
                            x       y       z     vdW  Elec       q    Type
                         _______ _______ _______ _____ _____    ______ ____

>  <TORSDO>
F 1

$$$$
=
 OpenBabel11122411113D

 31 35  0  0  1  0  0  0  0  0999 V2000
  184.3350  178.7830  144.1620 C   0  0  0  0  0  0  0  0  0  0  0  0
  187.4000  178.5710  141.9890 N   0  0  0  0  0  0  0  0  0  0  0  0
  188.4190  177.8290  142.6940 C   0  0  0  0  0  0  0  0  0  0  0  0
  184.8370  177.4470  137.5350 O   0  0  0  0  0  0  0  0  0  0  0  0
  186.0290  177.7510  137.2630 C   0  0  0  0  0  0  0  0  0  0  0  0
  189.3940  176.9260  144.7310 C   0  0  0  0  0  0  0  0  0  0  0  0
  186.0290  178.6030  142.4340 C   0  0  0  0  0  0  0  0  0  0  0  0
  183.3340  178.6030  143.2020 C   0  0  0  0  0  3  0  0  0  0  0  0
  188.3920  177.6600  144.0880 C   0  0  0  0  0  3  0  0  0  0  0  0
  186.5900  178.4360  139.6600 C   0  0  0  0  0  0  0  0  0  0  0  0
  183.9060  179.0030  145.8430 Cl  0  0  0  0  0  0  0  0  0  0  0  0
  189.4520  177.4060  140.4790 C   0  0  0  0  0  2  0  0  0  0  0  0
  189.3560  176.7530  146.2060 C   0  0  0  0  0  1  0  0  0  0  0  0
  185.3740  178.2480  140.0940 N   0  0  0  0  0  0  0  0  0  0  0  0
  187.6350  179.0030  140.5940 C   0  0  2  0  0  3  0  0  0  0  0  0
  186.9120  178.2470  138.2770 N   0  0  0  0  0  2  0  0  0  0  0  0
  185.6800  178.7810  143.7800 C   0  0  0  0  0  3  0  0  0  0  0  0
  190.4260  176.3500  143.9840 C   0  0  0  0  0  3  0  0  0  0  0  0
  185.0170  178.4380  141.4710 C   0  0  0  0  0  0  0  0  0  0  0  0
  183.6740  178.4280  141.8580 C   0  0  0  0  0  3  0  0  0  0  0  0
  189.0110  178.7550  140.1310 N   0  0  0  0  0  2  0  0  0  0  0  0
  189.4650  177.2560  141.9600 C   0  0  0  0  0  0  0  0  0  0  0  0
  190.4600  176.5110  142.5960 C   0  0  0  0  0  3  0  0  0  0  0  0
  187.5210  174.8150  135.4100 C   0  0  1  0  0  3  0  0  0  0  0  0
  185.6950  176.5140  135.1070 C   0  0  0  0  0  2  0  0  0  0  0  0
  188.8860  178.2530  136.4930 C   0  0  0  0  0  1  0  0  0  0  0  0
  187.8250  173.4160  135.9000 C   0  0  0  0  0  1  0  0  0  0  0  0
  186.0300  175.0960  135.5740 C   0  0  0  0  0  2  0  0  0  0  0  0
  188.0280  177.2430  135.7500 C   0  0  2  0  0  3  0  0  0  0  0  0
  186.5240  177.5630  135.8560 C   0  0  2  0  0  3  0  0  0  0  0  0
  188.3450  175.8210  136.2100 C   0  0  0  0  0  2  0  0  0  0  0  0
  1 11  1  0  0  0  0
  2  7  1  0  0  0  0
  2  3  1  0  0  0  0
  3  9  1  0  0  0  0
  5  4  2  0  0  0  0
  5 16  1  0  0  0  0
  6 13  1  0  0  0  0
  7 17  2  0  0  0  0
  8  1  2  0  0  0  0
  9  6  2  0  0  0  0
 10 14  2  0  0  0  0
 12 22  1  0  0  0  0
 14 19  1  0  0  0  0
 15 10  1  6  0  0  0
 15  2  1  0  0  0  0
 16 10  1  0  0  0  0
 17  1  1  0  0  0  0
 18  6  1  0  0  0  0
 19 20  2  0  0  0  0
 19  7  1  0  0  0  0
 20  8  1  0  0  0  0
 21 12  1  0  0  0  0
 21 15  1  0  0  0  0
 22 23  1  0  0  0  0
 22  3  2  0  0  0  0
 23 18  2  0  0  0  0
 24 28  1  0  0  0  0
 24 27  1  1  0  0  0
 24 31  1  0  0  0  0
 25 28  1  0  0  0  0
 25 30  1  0  0  0  0
 29 30  1  0  0  0  0
 29 31  1  0  0  0  0
 29 26  1  1  0  0  0
 30  5  1  1  0  0  0
M  END
>  <MODEL>
7

>  <REMARK>
 VINA RESULT:      -8.4      2.018      2.915
  Name = 
  1 active torsions:
  status: ('A' for Active; 'I' for Inactive)
    1  A    between atoms: C_5  and  C_30
                            x       y       z     vdW  Elec       q    Type
                         _______ _______ _______ _____ _____    ______ ____

>  <TORSDO>
F 1

$$$$
=
 OpenBabel11122411113D

 31 35  0  0  1  0  0  0  0  0999 V2000
  184.4830  178.6280  144.1230 C   0  0  0  0  0  0  0  0  0  0  0  0
  188.1760  178.5610  143.4050 N   0  0  0  0  0  0  0  0  0  0  0  0
  188.8470  177.8780  144.4870 C   0  0  0  0  0  0  0  0  0  0  0  0
  187.7250  177.2750  138.3250 O   0  0  0  0  0  0  0  0  0  0  0  0
  188.9070  177.6400  138.5570 C   0  0  0  0  0  0  0  0  0  0  0  0
  188.9380  177.0410  146.7680 C   0  0  0  0  0  0  0  0  0  0  0  0
  186.7430  178.5240  143.2470 C   0  0  0  0  0  0  0  0  0  0  0  0
  183.9740  178.3890  142.8430 C   0  0  0  0  0  3  0  0  0  0  0  0
  188.2570  177.7180  145.7510 C   0  0  0  0  0  3  0  0  0  0  0  0
  188.4020  178.3690  140.9540 C   0  0  0  0  0  0  0  0  0  0  0  0
  183.3910  178.8360  145.4730 Cl  0  0  0  0  0  0  0  0  0  0  0  0
  190.7170  177.4950  142.9020 C   0  0  0  0  0  2  0  0  0  0  0  0
  188.3050  176.8770  148.1020 C   0  0  0  0  0  1  0  0  0  0  0  0
  187.1250  178.1210  140.8550 N   0  0  0  0  0  0  0  0  0  0  0  0
  188.9440  178.9960  142.2180 C   0  0  2  0  0  3  0  0  0  0  0  0
  189.2730  178.1880  139.8300 N   0  0  0  0  0  2  0  0  0  0  0  0
  185.8650  178.6930  144.3260 C   0  0  0  0  0  3  0  0  0  0  0  0
  190.2110  176.5150  146.5270 C   0  0  0  0  0  3  0  0  0  0  0  0
  186.2260  178.3010  141.9590 C   0  0  0  0  0  0  0  0  0  0  0  0
  184.8440  178.2240  141.7610 C   0  0  0  0  0  3  0  0  0  0  0  0
  190.3990  178.8170  142.3680 N   0  0  0  0  0  2  0  0  0  0  0  0
  190.1270  177.3560  144.2620 C   0  0  0  0  0  0  0  0  0  0  0  0
  190.8050  176.6690  145.2710 C   0  0  0  0  0  3  0  0  0  0  0  0
  189.9550  174.7130  136.4080 C   0  0  1  0  0  3  0  0  0  0  0  0
  189.3030  177.1240  136.1350 C   0  0  0  0  0  2  0  0  0  0  0  0
  191.7080  176.7530  139.1680 C   0  0  0  0  0  1  0  0  0  0  0  0
  189.4350  173.2920  136.3880 C   0  0  0  0  0  1  0  0  0  0  0  0
  188.8120  175.6760  136.1000 C   0  0  0  0  0  2  0  0  0  0  0  0
  191.0550  176.4560  137.8290 C   0  0  2  0  0  3  0  0  0  0  0  0
  189.9450  177.4680  137.4830 C   0  0  2  0  0  3  0  0  0  0  0  0
  190.5520  175.0150  137.7800 C   0  0  0  0  0  2  0  0  0  0  0  0
  1 17  1  0  0  0  0
  1 11  1  0  0  0  0
  2  3  1  0  0  0  0
  3  9  1  0  0  0  0
  4  5  2  0  0  0  0
  5 16  1  0  0  0  0
  6 13  1  0  0  0  0
  7  2  1  0  0  0  0
  7 17  2  0  0  0  0
  8  1  2  0  0  0  0
  9  6  2  0  0  0  0
 12 22  1  0  0  0  0
 14 10  2  0  0  0  0
 14 19  1  0  0  0  0
 15 10  1  6  0  0  0
 15 21  1  0  0  0  0
 15  2  1  0  0  0  0
 16 10  1  0  0  0  0
 18  6  1  0  0  0  0
 19  7  1  0  0  0  0
 20 19  2  0  0  0  0
 20  8  1  0  0  0  0
 21 12  1  0  0  0  0
 22  3  2  0  0  0  0
 22 23  1  0  0  0  0
 23 18  2  0  0  0  0
 24 27  1  1  0  0  0
 24 31  1  0  0  0  0
 25 30  1  0  0  0  0
 28 25  1  0  0  0  0
 28 24  1  0  0  0  0
 29 26  1  1  0  0  0
 30 29  1  0  0  0  0
 30  5  1  1  0  0  0
 31 29  1  0  0  0  0
M  END
>  <MODEL>
8

>  <REMARK>
 VINA RESULT:      -8.3      2.798      4.045
  Name = 
  1 active torsions:
  status: ('A' for Active; 'I' for Inactive)
    1  A    between atoms: C_5  and  C_30
                            x       y       z     vdW  Elec       q    Type
                         _______ _______ _______ _____ _____    ______ ____

>  <TORSDO>
F 1

$$$$
=
 OpenBabel11122411113D

 31 35  0  0  1  0  0  0  0  0999 V2000
  188.0380  177.8780  144.1020 C   0  0  0  0  0  0  0  0  0  0  0  0
  186.4300  178.6860  140.7980 N   0  0  0  0  0  0  0  0  0  0  0  0
  187.1890  178.0520  139.7440 C   0  0  0  0  0  0  0  0  0  0  0  0
  181.4800  177.8830  142.3860 O   0  0  0  0  0  0  0  0  0  0  0  0
  181.4680  178.4670  141.2700 C   0  0  0  0  0  0  0  0  0  0  0  0
  189.2120  177.0150  138.8830 C   0  0  0  0  0  0  0  0  0  0  0  0
  186.6270  178.3580  142.1880 C   0  0  0  0  0  0  0  0  0  0  0  0
  186.9030  177.6730  144.8910 C   0  0  0  0  0  3  0  0  0  0  0  0
  188.5170  177.6340  139.9260 C   0  0  0  0  0  3  0  0  0  0  0  0
  184.0010  178.8100  141.2220 C   0  0  0  0  0  0  0  0  0  0  0  0
  189.6320  177.7000  144.8010 Cl  0  0  0  0  0  0  0  0  0  0  0  0
  185.1510  178.2530  138.3430 C   0  0  0  0  0  2  0  0  0  0  0  0
  190.6170  176.5770  139.0850 C   0  0  0  0  0  1  0  0  0  0  0  0
  184.1820  178.3040  142.4100 N   0  0  0  0  0  0  0  0  0  0  0  0
  185.1750  179.4000  140.4760 C   0  0  2  0  0  3  0  0  0  0  0  0
  182.6830  178.9420  140.6750 N   0  0  0  0  0  2  0  0  0  0  0  0
  187.9020  178.2170  142.7520 C   0  0  0  0  0  3  0  0  0  0  0  0
  188.5830  176.8050  137.6520 C   0  0  0  0  0  3  0  0  0  0  0  0
  185.4880  178.1680  142.9900 C   0  0  0  0  0  0  0  0  0  0  0  0
  185.6270  177.8160  144.3350 C   0  0  0  0  0  3  0  0  0  0  0  0
  184.9300  179.5240  139.0280 N   0  0  0  0  0  2  0  0  0  0  0  0
  186.5740  177.8450  138.5030 C   0  0  0  0  0  0  0  0  0  0  0  0
  187.2610  177.2160  137.4630 C   0  0  0  0  0  3  0  0  0  0  0  0
  180.3560  180.6360  138.3830 C   0  0  1  0  0  3  0  0  0  0  0  0
  180.2670  178.2250  139.0820 C   0  0  0  0  0  2  0  0  0  0  0  0
  179.4350  180.5030  142.1220 C   0  0  0  0  0  1  0  0  0  0  0  0
  181.1390  181.6520  137.5780 C   0  0  0  0  0  1  0  0  0  0  0  0
  181.0240  179.2700  138.2600 C   0  0  0  0  0  2  0  0  0  0  0  0
  179.5470  180.0480  140.6780 C   0  0  2  0  0  3  0  0  0  0  0  0
  180.1580  178.6390  140.5540 C   0  0  2  0  0  3  0  0  0  0  0  0
  180.3070  181.0780  139.8440 C   0  0  0  0  0  2  0  0  0  0  0  0
  1 11  1  0  0  0  0
  1  8  1  0  0  0  0
  2  7  1  0  0  0  0
  3  9  1  0  0  0  0
  3  2  1  0  0  0  0
  5  4  2  0  0  0  0
  6 13  1  0  0  0  0
  6  9  2  0  0  0  0
  7 17  1  0  0  0  0
  7 19  2  0  0  0  0
 10 14  2  0  0  0  0
 12 22  1  0  0  0  0
 12 21  1  0  0  0  0
 14 19  1  0  0  0  0
 15 21  1  6  0  0  0
 15  2  1  0  0  0  0
 15 10  1  0  0  0  0
 16 10  1  0  0  0  0
 16  5  1  0  0  0  0
 17  1  2  0  0  0  0
 18  6  1  0  0  0  0
 19 20  1  0  0  0  0
 20  8  2  0  0  0  0
 22  3  2  0  0  0  0
 23 18  2  0  0  0  0
 23 22  1  0  0  0  0
 24 27  1  6  0  0  0
 24 31  1  0  0  0  0
 25 30  1  0  0  0  0
 28 24  1  0  0  0  0
 28 25  1  0  0  0  0
 29 26  1  1  0  0  0
 30 29  1  0  0  0  0
 30  5  1  6  0  0  0
 31 29  1  0  0  0  0
M  END
>  <MODEL>
9

>  <REMARK>
 VINA RESULT:      -8.3      2.822      6.620
  Name = 
  1 active torsions:
  status: ('A' for Active; 'I' for Inactive)
    1  A    between atoms: C_5  and  C_30
                            x       y       z     vdW  Elec       q    Type
                         _______ _______ _______ _____ _____    ______ ____

>  <TORSDO>
F 1

$$$$
