=
 OpenBabel11122412093D

 34 42  0  0  1  0  0  0  0  0999 V2000
  182.3110  178.8010  143.5760 C   0  0  0  0  0  0  0  0  0  0  0  0
  183.8230  178.7530  145.6180 C   0  0  0  0  0  2  0  0  0  0  0  0
  181.3030  179.3110  137.1510 C   0  0  2  0  0  3  0  0  0  0  0  0
  180.9980  178.4580  141.5630 C   0  0  0  0  0  0  0  0  0  0  0  0
  182.0990  178.7760  139.2750 C   0  0  1  0  0  0  0  0  0  0  0  0
  182.0180  180.1920  139.2290 O   0  0  0  0  0  0  0  0  0  0  0  0
  181.7640  180.5530  137.8910 C   0  0  0  0  0  2  0  0  0  0  0  0
  179.3410  179.4210  138.4560 C   0  0  0  0  0  2  0  0  0  0  0  0
  184.7990  179.2800  143.4670 C   0  0  2  0  0  3  0  0  0  0  0  0
  187.1050  177.2100  142.7170 C   0  0  0  0  0  2  0  0  0  0  0  0
  183.4020  178.3590  139.9530 C   0  0  0  0  0  2  0  0  0  0  0  0
  179.5080  178.2960  139.4740 C   0  0  0  0  0  2  0  0  0  0  0  0
  184.7730  178.5880  142.0920 C   0  0  1  0  0  3  0  0  0  0  0  0
  185.3100  178.9660  145.8210 C   0  0  0  0  0  2  0  0  0  0  0  0
  180.9230  178.1850  140.0810 C   0  0  2  0  0  3  0  0  0  0  0  0
  179.8980  179.0730  137.2020 O   0  0  0  0  0  0  0  0  0  0  0  0
  186.8100  177.6780  144.1380 C   0  0  1  0  0  0  0  0  0  0  0  0
  182.2440  178.7120  142.1760 C   0  0  0  0  0  0  0  0  0  0  0  0
  182.0530  178.2330  137.8650 C   0  0  0  0  0  2  0  0  0  0  0  0
  183.4880  178.9870  141.3500 C   0  0  2  0  0  3  0  0  0  0  0  0
  179.9380  178.3780  143.6940 C   0  0  0  0  0  3  0  0  0  0  0  0
  187.3180  178.4060  141.8010 C   0  0  0  0  0  2  0  0  0  0  0  0
  179.8920  178.2840  142.3400 N   0  0  0  0  0  0  0  0  0  0  0  0
  186.0020  178.9680  141.2590 C   0  0  0  0  0  2  0  0  0  0  0  0
  185.9610  178.9630  144.4310 C   0  0  1  0  0  3  0  0  0  0  0  0
  181.1490  178.6320  144.3370 C   0  0  0  0  0  3  0  0  0  0  0  0
  183.5820  179.0050  144.2120 N   0  0  0  0  0  0  0  0  0  0  0  0
  186.6060  176.6190  145.0410 O   0  0  0  0  0  0  0  0  0  0  0  0
  187.8820  177.2280  145.0730 C   0  0  2  0  0  3  0  0  0  0  0  0
  188.1080  177.7910  148.6350 C   0  0  0  0  0  2  0  0  0  0  0  0
  189.5070  178.1600  146.7100 C   0  0  0  0  0  2  0  0  0  0  0  0
  188.0440  178.0570  146.3390 C   0  0  2  0  0  3  0  0  0  0  0  0
  189.5390  178.0560  148.2150 C   0  0  0  0  0  2  0  0  0  0  0  0
  187.3550  177.4170  147.4470 N   0  0  0  0  0  2  0  0  0  0  0  0
  1 27  1  0  0  0  0
  1 26  1  0  0  0  0
  2 14  1  0  0  0  0
  3 16  1  0  0  0  0
  3 19  1  1  0  0  0
  3  7  1  0  0  0  0
  4 18  1  0  0  0  0
  4 23  2  0  0  0  0
  5 19  1  6  0  0  0
  5 11  1  0  0  0  0
  5 15  1  0  0  0  0
  6  5  1  0  0  0  0
  7  6  1  0  0  0  0
  8 12  1  0  0  0  0
  9 27  1  1  0  0  0
  9 25  1  0  0  0  0
 13 24  1  6  0  0  0
 13  9  1  0  0  0  0
 15 12  1  6  0  0  0
 15  4  1  0  0  0  0
 16  8  1  0  0  0  0
 17 10  1  6  0  0  0
 17 25  1  0  0  0  0
 17 28  1  0  0  0  0
 17 29  1  0  0  0  0
 18  1  2  0  0  0  0
 20 11  1  6  0  0  0
 20 13  1  0  0  0  0
 20 18  1  0  0  0  0
 21 26  2  0  0  0  0
 22 10  1  0  0  0  0
 23 21  1  0  0  0  0
 24 22  1  0  0  0  0
 25 14  1  1  0  0  0
 27  2  1  0  0  0  0
 29 28  1  1  0  0  0
 29 32  1  0  0  0  0
 31 33  1  0  0  0  0
 32 31  1  1  0  0  0
 32 34  1  0  0  0  0
 33 30  1  0  0  0  0
 34 30  1  0  0  0  0
M  END
>  <MODEL>
1

>  <REMARK>
 VINA RESULT:      -9.5      0.000      0.000
  Name = 
  1 active torsions:
  status: ('A' for Active; 'I' for Inactive)
    1  A    between atoms: C_29  and  C_32
                            x       y       z     vdW  Elec       q    Type
                         _______ _______ _______ _____ _____    ______ ____

>  <TORSDO>
F 1

$$$$
=
 OpenBabel11122412093D

 34 42  0  0  1  0  0  0  0  0999 V2000
  188.0650  177.7230  140.2890 C   0  0  0  0  0  0  0  0  0  0  0  0
  186.3440  178.3260  138.5190 C   0  0  0  0  0  2  0  0  0  0  0  0
  190.1000  177.3690  146.4770 C   0  0  2  0  0  3  0  0  0  0  0  0
  189.4670  176.8160  142.0520 C   0  0  0  0  0  0  0  0  0  0  0  0
  188.8750  177.2890  144.4960 C   0  0  1  0  0  0  0  0  0  0  0  0
  189.4240  178.5950  144.5680 O   0  0  0  0  0  0  0  0  0  0  0  0
  189.9740  178.7480  145.8570 C   0  0  0  0  0  2  0  0  0  0  0  0
  191.7790  176.9450  144.8750 C   0  0  0  0  0  2  0  0  0  0  0  0
  185.9180  178.9660  140.8140 C   0  0  2  0  0  3  0  0  0  0  0  0
  183.1920  177.6960  141.8700 C   0  0  0  0  0  2  0  0  0  0  0  0
  187.4240  177.3690  144.0280 C   0  0  0  0  0  2  0  0  0  0  0  0
  191.1040  176.0180  143.8660 C   0  0  0  0  0  2  0  0  0  0  0  0
  185.9120  178.1960  142.1470 C   0  0  1  0  0  3  0  0  0  0  0  0
  184.9980  179.0220  138.5660 C   0  0  0  0  0  2  0  0  0  0  0  0
  189.6600  176.4170  143.4940 C   0  0  2  0  0  3  0  0  0  0  0  0
  191.3250  176.6970  146.1920 O   0  0  0  0  0  0  0  0  0  0  0  0
  183.4160  178.1560  140.4330 C   0  0  1  0  0  0  0  0  0  0  0  0
  188.3000  177.5060  141.6570 C   0  0  0  0  0  0  0  0  0  0  0  0
  188.9410  176.6500  145.8640 C   0  0  0  0  0  2  0  0  0  0  0  0
  187.3490  178.1000  142.6810 C   0  0  2  0  0  3  0  0  0  0  0  0
  190.1220  176.5690  139.7760 C   0  0  0  0  0  3  0  0  0  0  0  0
  183.5200  178.8200  142.8410 C   0  0  0  0  0  2  0  0  0  0  0  0
  190.3290  176.3570  141.1020 N   0  0  0  0  0  0  0  0  0  0  0  0
  185.0110  178.8840  143.1780 C   0  0  0  0  0  2  0  0  0  0  0  0
  184.5900  179.1180  140.0420 C   0  0  1  0  0  3  0  0  0  0  0  0
  188.9830  177.2500  139.3460 C   0  0  0  0  0  3  0  0  0  0  0  0
  186.8550  178.3740  139.8740 N   0  0  0  0  0  0  0  0  0  0  0  0
  183.1270  177.1620  139.4800 O   0  0  0  0  0  0  0  0  0  0  0  0
  182.1340  178.1500  139.6720 C   0  0  2  0  0  3  0  0  0  0  0  0
  180.9410  179.3290  136.4720 C   0  0  0  0  0  2  0  0  0  0  0  0
  181.0640  180.1830  138.7200 C   0  0  0  0  0  2  0  0  0  0  0  0
  182.0740  179.0850  138.4730 C   0  0  2  0  0  3  0  0  0  0  0  0
  180.3750  180.3890  137.3930 C   0  0  0  0  0  2  0  0  0  0  0  0
  181.6460  178.3550  137.2910 N   0  0  0  0  0  2  0  0  0  0  0  0
  1 18  1  0  0  0  0
  2 14  1  0  0  0  0
  2 27  1  0  0  0  0
  3  7  1  6  0  0  0
  4 15  1  0  0  0  0
  5 11  1  6  0  0  0
  5  6  1  0  0  0  0
  5 19  1  0  0  0  0
  6  7  1  0  0  0  0
  8 16  1  0  0  0  0
  9 27  1  6  0  0  0
  9 13  1  0  0  0  0
 10 22  1  0  0  0  0
 12  8  1  0  0  0  0
 13 20  1  0  0  0  0
 13 24  1  1  0  0  0
 15 12  1  1  0  0  0
 15  5  1  0  0  0  0
 16  3  1  0  0  0  0
 17 10  1  1  0  0  0
 18  4  2  0  0  0  0
 18 20  1  0  0  0  0
 19  3  1  0  0  0  0
 20 11  1  1  0  0  0
 21 23  2  0  0  0  0
 22 24  1  0  0  0  0
 23  4  1  0  0  0  0
 25 14  1  6  0  0  0
 25 17  1  0  0  0  0
 25  9  1  0  0  0  0
 26 21  1  0  0  0  0
 26  1  2  0  0  0  0
 27  1  1  0  0  0  0
 28 17  1  0  0  0  0
 29 28  1  6  0  0  0
 29 17  1  0  0  0  0
 30 34  1  0  0  0  0
 30 33  1  0  0  0  0
 32 31  1  1  0  0  0
 32 29  1  0  0  0  0
 33 31  1  0  0  0  0
 34 32  1  0  0  0  0
M  END
>  <MODEL>
2

>  <REMARK>
 VINA RESULT:      -8.9      2.737      9.239
  Name = 
  1 active torsions:
  status: ('A' for Active; 'I' for Inactive)
    1  A    between atoms: C_29  and  C_32
                            x       y       z     vdW  Elec       q    Type
                         _______ _______ _______ _____ _____    ______ ____

>  <TORSDO>
F 1

$$$$
=
 OpenBabel11122412093D

 34 42  0  0  1  0  0  0  0  0999 V2000
  189.9190  177.4560  143.1340 C   0  0  0  0  0  0  0  0  0  0  0  0
  191.8420  177.0260  141.5290 C   0  0  0  0  0  2  0  0  0  0  0  0
  183.8010  179.2970  144.4500 C   0  0  2  0  0  3  0  0  0  0  0  0
  187.9330  177.5050  144.5290 C   0  0  0  0  0  0  0  0  0  0  0  0
  185.7260  178.3480  143.5430 C   0  0  1  0  0  0  0  0  0  0  0  0
  185.9900  179.7370  143.6640 O   0  0  0  0  0  0  0  0  0  0  0  0
  184.7730  180.3680  143.9900 C   0  0  0  0  0  2  0  0  0  0  0  0
  185.1740  179.0520  146.3520 C   0  0  0  0  0  2  0  0  0  0  0  0
  189.8200  178.0390  140.6680 C   0  0  2  0  0  3  0  0  0  0  0  0
  188.5520  176.2640  138.3430 C   0  0  0  0  0  2  0  0  0  0  0  0
  186.2470  177.8440  142.1990 C   0  0  0  0  0  2  0  0  0  0  0  0
  185.9170  177.7410  146.1070 C   0  0  0  0  0  2  0  0  0  0  0  0
  188.3300  177.6580  140.7380 C   0  0  1  0  0  3  0  0  0  0  0  0
  192.0290  177.2450  140.0410 C   0  0  0  0  0  2  0  0  0  0  0  0
  186.4310  177.5550  144.6640 C   0  0  2  0  0  3  0  0  0  0  0  0
  183.8540  179.0030  145.8440 O   0  0  0  0  0  0  0  0  0  0  0  0
  190.0500  176.4050  138.5850 C   0  0  1  0  0  0  0  0  0  0  0  0
  188.5370  177.6670  143.2630 C   0  0  0  0  0  0  0  0  0  0  0  0
  184.2350  178.1200  143.6380 C   0  0  0  0  0  2  0  0  0  0  0  0
  187.7420  178.1590  142.0660 C   0  0  2  0  0  3  0  0  0  0  0  0
  190.0350  176.9310  145.4860 C   0  0  0  0  0  3  0  0  0  0  0  0
  187.9080  177.6360  138.2050 C   0  0  0  0  0  2  0  0  0  0  0  0
  188.6950  177.1280  145.5930 N   0  0  0  0  0  0  0  0  0  0  0  0
  187.5520  178.2530  139.5590 C   0  0  0  0  0  2  0  0  0  0  0  0
  190.6470  177.5650  139.4550 C   0  0  1  0  0  3  0  0  0  0  0  0
  190.6700  177.0850  144.2550 C   0  0  0  0  0  3  0  0  0  0  0  0
  190.5340  177.5650  141.8410 N   0  0  0  0  0  0  0  0  0  0  0  0
  190.7100  175.1690  138.7180 O   0  0  0  0  0  0  0  0  0  0  0  0
  190.8240  175.8040  137.4600 C   0  0  2  0  0  3  0  0  0  0  0  0
  194.4020  175.5920  137.0100 C   0  0  0  0  0  2  0  0  0  0  0  0
  192.5320  176.4900  135.7870 C   0  0  0  0  0  2  0  0  0  0  0  0
  192.2320  176.3470  137.2630 C   0  0  2  0  0  3  0  0  0  0  0  0
  193.9710  176.0630  135.6360 C   0  0  0  0  0  2  0  0  0  0  0  0
  193.2060  175.4240  137.8210 N   0  0  0  0  0  2  0  0  0  0  0  0
  1 18  2  0  0  0  0
  1 26  1  0  0  0  0
  2 27  1  0  0  0  0
  3 19  1  6  0  0  0
  3 16  1  0  0  0  0
  4 15  1  0  0  0  0
  4 23  2  0  0  0  0
  5 11  1  6  0  0  0
  5 19  1  0  0  0  0
  5  6  1  0  0  0  0
  5 15  1  0  0  0  0
  6  7  1  0  0  0  0
  7  3  1  0  0  0  0
  9 13  1  0  0  0  0
  9 27  1  1  0  0  0
 12  8  1  0  0  0  0
 13 24  1  6  0  0  0
 13 20  1  0  0  0  0
 14  2  1  0  0  0  0
 15 12  1  1  0  0  0
 16  8  1  0  0  0  0
 17 10  1  6  0  0  0
 17 28  1  0  0  0  0
 17 25  1  0  0  0  0
 18  4  1  0  0  0  0
 20 11  1  1  0  0  0
 20 18  1  0  0  0  0
 21 23  1  0  0  0  0
 22 10  1  0  0  0  0
 22 24  1  0  0  0  0
 25 14  1  1  0  0  0
 25  9  1  0  0  0  0
 26 21  2  0  0  0  0
 27  1  1  0  0  0  0
 29 17  1  0  0  0  0
 29 28  1  1  0  0  0
 30 34  1  0  0  0  0
 32 31  1  6  0  0  0
 32 29  1  0  0  0  0
 32 34  1  0  0  0  0
 33 31  1  0  0  0  0
 33 30  1  0  0  0  0
M  END
>  <MODEL>
3

>  <REMARK>
 VINA RESULT:      -8.9      4.709      8.182
  Name = 
  1 active torsions:
  status: ('A' for Active; 'I' for Inactive)
    1  A    between atoms: C_29  and  C_32
                            x       y       z     vdW  Elec       q    Type
                         _______ _______ _______ _____ _____    ______ ____

>  <TORSDO>
F 1

$$$$
=
 OpenBabel11122412093D

 34 42  0  0  1  0  0  0  0  0999 V2000
  186.9260  178.2530  141.2100 C   0  0  0  0  0  0  0  0  0  0  0  0
  185.9380  178.5380  138.8860 C   0  0  0  0  0  2  0  0  0  0  0  0
  186.4930  178.3540  147.7180 C   0  0  2  0  0  3  0  0  0  0  0  0
  187.6670  177.6170  143.4330 C   0  0  0  0  0  0  0  0  0  0  0  0
  186.1330  178.0400  145.4380 C   0  0  1  0  0  0  0  0  0  0  0  0
  186.4260  179.4180  145.6050 O   0  0  0  0  0  0  0  0  0  0  0  0
  186.4190  179.6830  146.9890 C   0  0  0  0  0  2  0  0  0  0  0  0
  188.6940  178.1710  146.8930 C   0  0  0  0  0  2  0  0  0  0  0  0
  184.5890  179.1490  140.8010 C   0  0  2  0  0  3  0  0  0  0  0  0
  181.8730  177.4820  140.8660 C   0  0  0  0  0  2  0  0  0  0  0  0
  184.9730  177.8780  144.4590 C   0  0  0  0  0  2  0  0  0  0  0  0
  188.5890  177.1280  145.7830 C   0  0  0  0  0  2  0  0  0  0  0  0
  184.1870  178.4150  142.0930 C   0  0  1  0  0  3  0  0  0  0  0  0
  184.5920  179.0110  138.3750 C   0  0  0  0  0  2  0  0  0  0  0  0
  187.3540  177.2840  144.8710 C   0  0  2  0  0  3  0  0  0  0  0  0
  187.8150  177.8800  147.9630 O   0  0  0  0  0  0  0  0  0  0  0  0
  182.5580  177.9420  139.5840 C   0  0  1  0  0  0  0  0  0  0  0  0
  186.6530  178.1040  142.5800 C   0  0  0  0  0  0  0  0  0  0  0  0
  185.7650  177.4480  146.7790 C   0  0  0  0  0  2  0  0  0  0  0  0
  185.3120  178.5600  143.1280 C   0  0  2  0  0  3  0  0  0  0  0  0
  189.1630  177.4320  141.5900 C   0  0  0  0  0  3  0  0  0  0  0  0
  181.6480  178.6640  141.7980 C   0  0  0  0  0  2  0  0  0  0  0  0
  188.8800  177.2830  142.9110 N   0  0  0  0  0  0  0  0  0  0  0  0
  182.8750  178.9710  142.6580 C   0  0  0  0  0  2  0  0  0  0  0  0
  183.6460  179.0710  139.5820 C   0  0  1  0  0  3  0  0  0  0  0  0
  188.1900  177.9130  140.7160 C   0  0  0  0  0  3  0  0  0  0  0  0
  185.8850  178.6950  140.3260 N   0  0  0  0  0  0  0  0  0  0  0  0
  182.7930  176.8960  138.6740 O   0  0  0  0  0  0  0  0  0  0  0  0
  181.6740  177.7170  138.4050 C   0  0  2  0  0  3  0  0  0  0  0  0
  181.5560  178.6640  134.9200 C   0  0  0  0  0  2  0  0  0  0  0  0
  180.8080  179.5880  137.0140 C   0  0  0  0  0  2  0  0  0  0  0  0
  181.9420  178.6060  137.1990 C   0  0  2  0  0  3  0  0  0  0  0  0
  180.6040  179.6770  135.5220 C   0  0  0  0  0  2  0  0  0  0  0  0
  182.0240  177.7990  135.9920 N   0  0  0  0  0  2  0  0  0  0  0  0
  1 18  1  0  0  0  0
  2 27  1  0  0  0  0
  3 19  1  6  0  0  0
  3 16  1  0  0  0  0
  4 15  1  0  0  0  0
  5 11  1  6  0  0  0
  5  6  1  0  0  0  0
  5 19  1  0  0  0  0
  6  7  1  0  0  0  0
  7  3  1  0  0  0  0
  8 16  1  0  0  0  0
  9 27  1  6  0  0  0
  9 13  1  0  0  0  0
 10 22  1  0  0  0  0
 12  8  1  0  0  0  0
 13 24  1  1  0  0  0
 13 20  1  0  0  0  0
 14  2  1  0  0  0  0
 15  5  1  0  0  0  0
 15 12  1  1  0  0  0
 17 10  1  1  0  0  0
 18 20  1  0  0  0  0
 18  4  2  0  0  0  0
 20 11  1  1  0  0  0
 21 23  2  0  0  0  0
 22 24  1  0  0  0  0
 23  4  1  0  0  0  0
 25 14  1  6  0  0  0
 25 17  1  0  0  0  0
 25  9  1  0  0  0  0
 26  1  2  0  0  0  0
 26 21  1  0  0  0  0
 27  1  1  0  0  0  0
 28 17  1  0  0  0  0
 29 28  1  6  0  0  0
 29 17  1  0  0  0  0
 30 33  1  0  0  0  0
 30 34  1  0  0  0  0
 32 31  1  6  0  0  0
 32 29  1  0  0  0  0
 33 31  1  0  0  0  0
 34 32  1  0  0  0  0
M  END
>  <MODEL>
4

>  <REMARK>
 VINA RESULT:      -8.0      2.260      8.890
  Name = 
  1 active torsions:
  status: ('A' for Active; 'I' for Inactive)
    1  A    between atoms: C_29  and  C_32
                            x       y       z     vdW  Elec       q    Type
                         _______ _______ _______ _____ _____    ______ ____

>  <TORSDO>
F 1

$$$$
=
 OpenBabel11122412093D

 34 42  0  0  1  0  0  0  0  0999 V2000
  186.5390  178.4430  140.4020 C   0  0  0  0  0  0  0  0  0  0  0  0
  189.0030  177.9410  140.0340 C   0  0  0  0  0  2  0  0  0  0  0  0
  180.4290  179.2440  138.2640 C   0  0  2  0  0  3  0  0  0  0  0  0
  184.1330  178.5120  140.7190 C   0  0  0  0  0  0  0  0  0  0  0  0
  182.5950  178.4910  138.6730 C   0  0  1  0  0  0  0  0  0  0  0  0
  182.7110  179.8660  138.3440 O   0  0  0  0  0  0  0  0  0  0  0  0
  181.4540  180.2900  137.8680 C   0  0  0  0  0  2  0  0  0  0  0  0
  180.7780  179.9330  140.4920 C   0  0  0  0  0  2  0  0  0  0  0  0
  187.5630  178.1560  138.1000 C   0  0  2  0  0  3  0  0  0  0  0  0
  187.5920  175.4930  136.3490 C   0  0  0  0  0  2  0  0  0  0  0  0
  183.6990  177.7020  137.9730 C   0  0  0  0  0  2  0  0  0  0  0  0
  181.6080  178.8070  141.1040 C   0  0  0  0  0  2  0  0  0  0  0  0
  186.2280  177.5070  137.6940 C   0  0  1  0  0  3  0  0  0  0  0  0
  189.8450  177.6990  138.7970 C   0  0  0  0  0  2  0  0  0  0  0  0
  182.7380  178.2780  140.1950 C   0  0  2  0  0  3  0  0  0  0  0  0
  179.8450  179.4370  139.5500 O   0  0  0  0  0  0  0  0  0  0  0  0
  188.8020  176.0250  137.1090 C   0  0  1  0  0  0  0  0  0  0  0  0
  185.2450  178.3800  139.8590 C   0  0  0  0  0  0  0  0  0  0  0  0
  181.2410  177.9900  138.2290 C   0  0  0  0  0  2  0  0  0  0  0  0
  185.0720  178.2730  138.3550 C   0  0  2  0  0  3  0  0  0  0  0  0
  185.5790  178.7490  142.5950 C   0  0  0  0  0  3  0  0  0  0  0  0
  187.0240  176.5720  135.4390 C   0  0  0  0  0  2  0  0  0  0  0  0
  184.3340  178.6750  142.0570 N   0  0  0  0  0  0  0  0  0  0  0  0
  186.0560  177.5030  136.1710 C   0  0  0  0  0  2  0  0  0  0  0  0
  188.8780  177.5040  137.6220 C   0  0  1  0  0  3  0  0  0  0  0  0
  186.7030  178.6280  141.7790 C   0  0  0  0  0  3  0  0  0  0  0  0
  187.6760  178.2560  139.5460 N   0  0  0  0  0  0  0  0  0  0  0  0
  189.3810  175.0730  137.9690 O   0  0  0  0  0  0  0  0  0  0  0  0
  190.0340  175.2730  136.7300 C   0  0  2  0  0  3  0  0  0  0  0  0
  193.5260  175.6060  137.5950 C   0  0  0  0  0  2  0  0  0  0  0  0
  192.1550  176.0030  135.6560 C   0  0  0  0  0  2  0  0  0  0  0  0
  191.3480  176.0130  136.9350 C   0  0  2  0  0  3  0  0  0  0  0  0
  193.5850  175.8070  136.0950 C   0  0  0  0  0  2  0  0  0  0  0  0
  192.1400  175.3500  137.9580 N   0  0  0  0  0  2  0  0  0  0  0  0
  1 26  1  0  0  0  0
  3  7  1  1  0  0  0
  3 16  1  0  0  0  0
  4 23  2  0  0  0  0
  5 11  1  6  0  0  0
  5 15  1  0  0  0  0
  6  5  1  0  0  0  0
  7  6  1  0  0  0  0
  8 12  1  0  0  0  0
  9 27  1  1  0  0  0
 13 24  1  6  0  0  0
 13  9  1  0  0  0  0
 13 20  1  0  0  0  0
 14  2  1  0  0  0  0
 15  4  1  0  0  0  0
 15 12  1  1  0  0  0
 16  8  1  0  0  0  0
 17 10  1  6  0  0  0
 17 25  1  0  0  0  0
 17 28  1  0  0  0  0
 18  1  2  0  0  0  0
 18  4  1  0  0  0  0
 19  3  1  0  0  0  0
 19  5  1  0  0  0  0
 20 11  1  1  0  0  0
 20 18  1  0  0  0  0
 22 24  1  0  0  0  0
 22 10  1  0  0  0  0
 23 21  1  0  0  0  0
 25  9  1  0  0  0  0
 25 14  1  1  0  0  0
 26 21  2  0  0  0  0
 27  2  1  0  0  0  0
 27  1  1  0  0  0  0
 29 32  1  0  0  0  0
 29 17  1  0  0  0  0
 29 28  1  1  0  0  0
 30 34  1  0  0  0  0
 31 33  1  0  0  0  0
 32 31  1  6  0  0  0
 32 34  1  0  0  0  0
 33 30  1  0  0  0  0
M  END
>  <MODEL>
5

>  <REMARK>
 VINA RESULT:      -7.7      4.664      6.561
  Name = 
  1 active torsions:
  status: ('A' for Active; 'I' for Inactive)
    1  A    between atoms: C_29  and  C_32
                            x       y       z     vdW  Elec       q    Type
                         _______ _______ _______ _____ _____    ______ ____

>  <TORSDO>
F 1

$$$$
=
 OpenBabel11122412093D

 34 42  0  0  1  0  0  0  0  0999 V2000
  185.6090  178.6470  140.8210 C   0  0  0  0  0  0  0  0  0  0  0  0
  187.8800  178.1700  139.7840 C   0  0  0  0  0  2  0  0  0  0  0  0
  179.1510  179.4810  140.4430 C   0  0  2  0  0  3  0  0  0  0  0  0
  183.3790  178.6920  141.7790 C   0  0  0  0  0  0  0  0  0  0  0  0
  181.3450  178.7280  140.2260 C   0  0  1  0  0  0  0  0  0  0  0  0
  181.3720  180.1140  139.9220 O   0  0  0  0  0  0  0  0  0  0  0  0
  180.0340  180.5460  139.8180 C   0  0  0  0  0  2  0  0  0  0  0  0
  180.0920  180.1010  142.5150 C   0  0  0  0  0  2  0  0  0  0  0  0
  185.9710  178.4400  138.3200 C   0  0  2  0  0  3  0  0  0  0  0  0
  185.5170  175.8340  136.5400 C   0  0  0  0  0  2  0  0  0  0  0  0
  182.2160  177.9690  139.2280 C   0  0  0  0  0  2  0  0  0  0  0  0
  181.0540  178.9610  142.8420 C   0  0  0  0  0  2  0  0  0  0  0  0
  184.5740  177.7960  138.2690 C   0  0  1  0  0  3  0  0  0  0  0  0
  188.3560  177.9730  138.3580 C   0  0  0  0  0  2  0  0  0  0  0  0
  181.8930  178.4670  141.6440 C   0  0  2  0  0  3  0  0  0  0  0  0
  178.9380  179.6300  141.8440 O   0  0  0  0  0  0  0  0  0  0  0  0
  186.8890  176.3480  136.9610 C   0  0  1  0  0  0  0  0  0  0  0  0
  184.2170  178.5940  140.6470 C   0  0  0  0  0  0  0  0  0  0  0  0
  179.9190  178.2340  140.1480 C   0  0  0  0  0  2  0  0  0  0  0  0
  183.6420  178.5340  139.2420 C   0  0  2  0  0  3  0  0  0  0  0  0
  185.2800  178.8760  143.2010 C   0  0  0  0  0  3  0  0  0  0  0  0
  184.7280  176.9390  135.8530 C   0  0  0  0  0  2  0  0  0  0  0  0
  183.9350  178.8130  143.0170 N   0  0  0  0  0  0  0  0  0  0  0  0
  183.9960  177.8400  136.8500 C   0  0  0  0  0  2  0  0  0  0  0  0
  187.1050  177.8110  137.4830 C   0  0  1  0  0  3  0  0  0  0  0  0
  186.1410  178.7880  142.1080 C   0  0  0  0  0  3  0  0  0  0  0  0
  186.4710  178.4940  139.6830 N   0  0  0  0  0  0  0  0  0  0  0  0
  187.6750  175.3730  137.6010 O   0  0  0  0  0  0  0  0  0  0  0  0
  187.9700  175.6160  136.2400 C   0  0  2  0  0  3  0  0  0  0  0  0
  191.5620  175.9260  136.0190 C   0  0  0  0  0  2  0  0  0  0  0  0
  189.6670  176.4910  134.6460 C   0  0  0  0  0  2  0  0  0  0  0  0
  189.2930  176.3570  136.1050 C   0  0  2  0  0  3  0  0  0  0  0  0
  191.1600  176.2790  134.6020 C   0  0  0  0  0  2  0  0  0  0  0  0
  190.3520  175.6090  136.7620 N   0  0  0  0  0  2  0  0  0  0  0  0
  1 26  1  0  0  0  0
  3  7  1  1  0  0  0
  3 16  1  0  0  0  0
  4 23  2  0  0  0  0
  5 11  1  6  0  0  0
  5 15  1  0  0  0  0
  6  5  1  0  0  0  0
  7  6  1  0  0  0  0
  8 12  1  0  0  0  0
  9 27  1  1  0  0  0
 13 24  1  6  0  0  0
 13  9  1  0  0  0  0
 13 20  1  0  0  0  0
 14  2  1  0  0  0  0
 15  4  1  0  0  0  0
 15 12  1  1  0  0  0
 16  8  1  0  0  0  0
 17 10  1  6  0  0  0
 17 25  1  0  0  0  0
 17 28  1  0  0  0  0
 18  1  2  0  0  0  0
 18  4  1  0  0  0  0
 19  5  1  0  0  0  0
 19  3  1  0  0  0  0
 20 11  1  1  0  0  0
 20 18  1  0  0  0  0
 22 10  1  0  0  0  0
 22 24  1  0  0  0  0
 23 21  1  0  0  0  0
 25  9  1  0  0  0  0
 25 14  1  1  0  0  0
 26 21  2  0  0  0  0
 27  2  1  0  0  0  0
 27  1  1  0  0  0  0
 29 17  1  0  0  0  0
 29 28  1  1  0  0  0
 30 34  1  0  0  0  0
 32 31  1  6  0  0  0
 32 29  1  0  0  0  0
 32 34  1  0  0  0  0
 33 31  1  0  0  0  0
 33 30  1  0  0  0  0
M  END
>  <MODEL>
6

>  <REMARK>
 VINA RESULT:      -7.6      4.258      6.641
  Name = 
  1 active torsions:
  status: ('A' for Active; 'I' for Inactive)
    1  A    between atoms: C_29  and  C_32
                            x       y       z     vdW  Elec       q    Type
                         _______ _______ _______ _____ _____    ______ ____

>  <TORSDO>
F 1

$$$$
=
 OpenBabel11122412093D

 34 42  0  0  1  0  0  0  0  0999 V2000
  184.5530  178.3220  143.5910 C   0  0  0  0  0  0  0  0  0  0  0  0
  182.3370  178.7570  142.4250 C   0  0  0  0  0  2  0  0  0  0  0  0
  190.8750  176.7150  143.5600 C   0  0  2  0  0  3  0  0  0  0  0  0
  186.7750  178.2830  144.5690 C   0  0  0  0  0  0  0  0  0  0  0  0
  188.7750  177.6210  143.1160 C   0  0  1  0  0  0  0  0  0  0  0  0
  188.5920  176.2160  143.1820 O   0  0  0  0  0  0  0  0  0  0  0  0
  189.8720  175.6280  143.2180 C   0  0  0  0  0  2  0  0  0  0  0  0
  189.8940  176.7620  145.7050 C   0  0  0  0  0  2  0  0  0  0  0  0
  184.1880  177.9090  141.1160 C   0  0  2  0  0  3  0  0  0  0  0  0
  184.9090  179.8970  138.7300 C   0  0  0  0  0  2  0  0  0  0  0  0
  187.9820  178.1860  141.9390 C   0  0  0  0  0  2  0  0  0  0  0  0
  189.0680  178.0470  145.7070 C   0  0  0  0  0  2  0  0  0  0  0  0
  185.6480  178.3610  140.9260 C   0  0  1  0  0  3  0  0  0  0  0  0
  181.8710  178.6280  140.9880 C   0  0  0  0  0  2  0  0  0  0  0  0
  188.2750  178.3010  144.4080 C   0  0  2  0  0  3  0  0  0  0  0  0
  191.0850  176.9130  144.9560 O   0  0  0  0  0  0  0  0  0  0  0  0
  183.4930  179.6630  139.2450 C   0  0  1  0  0  0  0  0  0  0  0  0
  185.9400  178.1740  143.4350 C   0  0  0  0  0  0  0  0  0  0  0  0
  190.2460  177.9200  142.9390 C   0  0  0  0  0  2  0  0  0  0  0  0
  186.5030  177.8030  142.0740 C   0  0  2  0  0  3  0  0  0  0  0  0
  184.8810  178.6840  145.9550 C   0  0  0  0  0  3  0  0  0  0  0  0
  185.5630  178.5720  138.3680 C   0  0  0  0  0  2  0  0  0  0  0  0
  186.2220  178.5490  145.7850 N   0  0  0  0  0  0  0  0  0  0  0  0
  186.2020  177.8860  139.5770 C   0  0  0  0  0  2  0  0  0  0  0  0
  183.1220  178.4190  140.1240 C   0  0  1  0  0  3  0  0  0  0  0  0
  184.0230  178.5780  144.8610 C   0  0  0  0  0  3  0  0  0  0  0  0
  183.7010  178.2670  142.4370 N   0  0  0  0  0  0  0  0  0  0  0  0
  182.8260  180.8520  139.5950 O   0  0  0  0  0  0  0  0  0  0  0  0
  182.4920  180.2970  138.3380 C   0  0  2  0  0  3  0  0  0  0  0  0
  178.9310  180.2030  137.7380 C   0  0  0  0  0  2  0  0  0  0  0  0
  180.8460  178.8770  137.1290 C   0  0  0  0  0  2  0  0  0  0  0  0
  181.0940  179.6960  138.3760 C   0  0  2  0  0  3  0  0  0  0  0  0
  179.4110  179.1550  136.7550 C   0  0  0  0  0  2  0  0  0  0  0  0
  180.0970  180.7530  138.4110 N   0  0  0  0  0  2  0  0  0  0  0  0
  1 26  1  0  0  0  0
  2 27  1  0  0  0  0
  3 19  1  1  0  0  0
  3 16  1  0  0  0  0
  4 23  2  0  0  0  0
  5 11  1  6  0  0  0
  5  6  1  0  0  0  0
  5 15  1  0  0  0  0
  6  7  1  0  0  0  0
  7  3  1  0  0  0  0
  8 12  1  0  0  0  0
  9 27  1  1  0  0  0
 13 24  1  6  0  0  0
 13  9  1  0  0  0  0
 13 20  1  0  0  0  0
 14  2  1  0  0  0  0
 15  4  1  0  0  0  0
 15 12  1  1  0  0  0
 16  8  1  0  0  0  0
 17 10  1  6  0  0  0
 17 28  1  0  0  0  0
 17 25  1  0  0  0  0
 18  1  2  0  0  0  0
 18  4  1  0  0  0  0
 19  5  1  0  0  0  0
 20 11  1  6  0  0  0
 20 18  1  0  0  0  0
 22 10  1  0  0  0  0
 22 24  1  0  0  0  0
 23 21  1  0  0  0  0
 25 14  1  1  0  0  0
 25  9  1  0  0  0  0
 26 21  2  0  0  0  0
 27  1  1  0  0  0  0
 29 32  1  0  0  0  0
 29 17  1  0  0  0  0
 29 28  1  1  0  0  0
 30 34  1  0  0  0  0
 32 31  1  6  0  0  0
 32 34  1  0  0  0  0
 33 31  1  0  0  0  0
 33 30  1  0  0  0  0
M  END
>  <MODEL>
7

>  <REMARK>
 VINA RESULT:      -7.2      2.000      8.455
  Name = 
  1 active torsions:
  status: ('A' for Active; 'I' for Inactive)
    1  A    between atoms: C_29  and  C_32
                            x       y       z     vdW  Elec       q    Type
                         _______ _______ _______ _____ _____    ______ ____

>  <TORSDO>
F 1

$$$$
=
 OpenBabel11122412093D

 34 42  0  0  1  0  0  0  0  0999 V2000
  191.1750  176.7220  139.0980 C   0  0  0  0  0  0  0  0  0  0  0  0
  189.0610  177.8010  140.0060 C   0  0  0  0  0  2  0  0  0  0  0  0
  194.3370  172.8440  134.9130 C   0  0  2  0  0  3  0  0  0  0  0  0
  193.1690  175.9780  137.9300 C   0  0  0  0  0  0  0  0  0  0  0  0
  192.9360  174.4100  135.9210 C   0  0  1  0  0  0  0  0  0  0  0  0
  192.7680  173.2040  136.6480 O   0  0  0  0  0  0  0  0  0  0  0  0
  193.4200  172.1840  135.9270 C   0  0  0  0  0  2  0  0  0  0  0  0
  195.6350  173.5600  136.7470 C   0  0  0  0  0  2  0  0  0  0  0  0
  188.8540  176.1390  138.2590 C   0  0  2  0  0  3  0  0  0  0  0  0
  187.3980  177.3490  135.6940 C   0  0  0  0  0  2  0  0  0  0  0  0
  191.5750  175.0640  135.6920 C   0  0  0  0  0  2  0  0  0  0  0  0
  195.3180  175.0490  136.8690 C   0  0  0  0  0  2  0  0  0  0  0  0
  189.5040  175.9700  136.8730 C   0  0  1  0  0  3  0  0  0  0  0  0
  187.5890  177.6590  139.6700 C   0  0  0  0  0  2  0  0  0  0  0  0
  193.8250  175.4020  136.6990 C   0  0  2  0  0  3  0  0  0  0  0  0
  195.6450  173.1400  135.3960 O   0  0  0  0  0  0  0  0  0  0  0  0
  187.0650  177.7460  137.1280 C   0  0  1  0  0  0  0  0  0  0  0  0
  191.7610  176.0380  138.0210 C   0  0  0  0  0  0  0  0  0  0  0  0
  193.5890  174.0980  134.5940 C   0  0  0  0  0  2  0  0  0  0  0  0
  190.8740  175.2950  137.0370 C   0  0  2  0  0  3  0  0  0  0  0  0
  193.3770  177.2580  139.9260 C   0  0  0  0  0  3  0  0  0  0  0  0
  187.3170  175.8380  135.5330 C   0  0  0  0  0  2  0  0  0  0  0  0
  193.9290  176.6010  138.8730 N   0  0  0  0  0  0  0  0  0  0  0  0
  188.6140  175.1370  135.9440 C   0  0  0  0  0  2  0  0  0  0  0  0
  187.5000  176.8720  138.3550 C   0  0  1  0  0  3  0  0  0  0  0  0
  191.9910  177.3360  140.0540 C   0  0  0  0  0  3  0  0  0  0  0  0
  189.7460  176.8360  139.1710 N   0  0  0  0  0  0  0  0  0  0  0  0
  187.1170  179.1350  137.3460 O   0  0  0  0  0  0  0  0  0  0  0  0
  185.8290  178.5790  137.1700 C   0  0  2  0  0  3  0  0  0  0  0  0
  183.3670  179.7040  139.5620 C   0  0  0  0  0  2  0  0  0  0  0  0
  183.8610  177.6630  138.3850 C   0  0  0  0  0  2  0  0  0  0  0  0
  185.0690  178.5670  138.4890 C   0  0  2  0  0  3  0  0  0  0  0  0
  182.7710  178.3750  139.1470 C   0  0  0  0  0  2  0  0  0  0  0  0
  184.5900  179.9040  138.8020 N   0  0  0  0  0  2  0  0  0  0  0  0
  1 27  1  0  0  0  0
  1 26  1  0  0  0  0
  3 19  1  1  0  0  0
  3 16  1  0  0  0  0
  3  7  1  0  0  0  0
  4 18  1  0  0  0  0
  4 23  2  0  0  0  0
  5 19  1  6  0  0  0
  5  6  1  0  0  0  0
  5 15  1  0  0  0  0
  7  6  1  0  0  0  0
  8 12  1  0  0  0  0
  9 25  1  0  0  0  0
  9 27  1  1  0  0  0
 11  5  1  0  0  0  0
 13 24  1  6  0  0  0
 13 20  1  0  0  0  0
 13  9  1  0  0  0  0
 14  2  1  0  0  0  0
 15 12  1  1  0  0  0
 15  4  1  0  0  0  0
 16  8  1  0  0  0  0
 17 10  1  6  0  0  0
 17 29  1  0  0  0  0
 17 28  1  0  0  0  0
 17 25  1  0  0  0  0
 18  1  2  0  0  0  0
 20 11  1  6  0  0  0
 20 18  1  0  0  0  0
 21 26  2  0  0  0  0
 22 10  1  0  0  0  0
 22 24  1  0  0  0  0
 23 21  1  0  0  0  0
 25 14  1  1  0  0  0
 27  2  1  0  0  0  0
 29 28  1  1  0  0  0
 29 32  1  0  0  0  0
 31 33  1  0  0  0  0
 32 31  1  6  0  0  0
 32 34  1  0  0  0  0
 33 30  1  0  0  0  0
 34 30  1  0  0  0  0
M  END
>  <MODEL>
8

>  <REMARK>
 VINA RESULT:      -6.7      7.323     11.133
  Name = 
  1 active torsions:
  status: ('A' for Active; 'I' for Inactive)
    1  A    between atoms: C_29  and  C_32
                            x       y       z     vdW  Elec       q    Type
                         _______ _______ _______ _____ _____    ______ ____

>  <TORSDO>
F 1

$$$$
=
 OpenBabel11122412093D

 34 42  0  0  1  0  0  0  0  0999 V2000
  187.6980  177.6700  140.9580 C   0  0  0  0  0  0  0  0  0  0  0  0
  189.7340  176.9460  142.2950 C   0  0  0  0  0  2  0  0  0  0  0  0
  181.3360  178.9950  140.3940 C   0  0  2  0  0  3  0  0  0  0  0  0
  185.8010  178.7260  139.8720 C   0  0  0  0  0  0  0  0  0  0  0  0
  183.5530  178.8300  141.0900 C   0  0  1  0  0  0  0  0  0  0  0  0
  183.1300  177.5070  140.8060 O   0  0  0  0  0  0  0  0  0  0  0  0
  181.7350  177.5460  140.6070 C   0  0  0  0  0  2  0  0  0  0  0  0
  182.4900  178.8740  138.3410 C   0  0  0  0  0  2  0  0  0  0  0  0
  187.5580  176.8360  143.3490 C   0  0  2  0  0  3  0  0  0  0  0  0
  187.4710  178.6260  145.9860 C   0  0  0  0  0  2  0  0  0  0  0  0
  184.3650  178.8420  142.3830 C   0  0  0  0  0  2  0  0  0  0  0  0
  183.7760  179.6580  138.5910 C   0  0  0  0  0  2  0  0  0  0  0  0
  186.4160  177.8520  143.5330 C   0  0  1  0  0  3  0  0  0  0  0  0
  189.9290  176.4490  143.7140 C   0  0  0  0  0  2  0  0  0  0  0  0
  184.4430  179.3780  139.9540 C   0  0  2  0  0  3  0  0  0  0  0  0
  181.3950  179.4360  139.0400 O   0  0  0  0  0  0  0  0  0  0  0  0
  188.7050  177.8630  145.5150 C   0  0  1  0  0  0  0  0  0  0  0  0
  186.3700  178.1240  141.0150 C   0  0  0  0  0  0  0  0  0  0  0  0
  182.3370  179.7160  141.2360 C   0  0  0  0  0  2  0  0  0  0  0  0
  185.5480  177.8710  142.2660 C   0  0  2  0  0  3  0  0  0  0  0  0
  187.8350  178.4280  138.6710 C   0  0  0  0  0  3  0  0  0  0  0  0
  186.2790  177.6860  146.0920 C   0  0  0  0  0  2  0  0  0  0  0  0
  186.5540  178.8730  138.7460 N   0  0  0  0  0  0  0  0  0  0  0  0
  185.5580  177.5040  144.7550 C   0  0  0  0  0  2  0  0  0  0  0  0
  188.6150  176.7020  144.4660 C   0  0  1  0  0  3  0  0  0  0  0  0
  188.4320  177.8250  139.7770 C   0  0  0  0  0  3  0  0  0  0  0  0
  188.3040  177.1060  142.1310 N   0  0  0  0  0  0  0  0  0  0  0  0
  189.8490  178.6750  145.3980 O   0  0  0  0  0  0  0  0  0  0  0  0
  189.7650  177.8780  146.5640 C   0  0  2  0  0  3  0  0  0  0  0  0
  192.6640  175.9850  147.5940 C   0  0  0  0  0  2  0  0  0  0  0  0
  190.3020  175.5840  147.3610 C   0  0  0  0  0  2  0  0  0  0  0  0
  190.7710  176.7370  146.5020 C   0  0  2  0  0  3  0  0  0  0  0  0
  191.5500  175.0500  148.0180 C   0  0  0  0  0  2  0  0  0  0  0  0
  192.0560  177.1750  147.0220 N   0  0  0  0  0  2  0  0  0  0  0  0
  1 18  1  0  0  0  0
  1 27  1  0  0  0  0
  2 14  1  0  0  0  0
  3  7  1  6  0  0  0
  3 19  1  0  0  0  0
  4 15  1  0  0  0  0
  4 18  2  0  0  0  0
  5 19  1  1  0  0  0
  5 11  1  0  0  0  0
  6  5  1  0  0  0  0
  7  6  1  0  0  0  0
  8 12  1  0  0  0  0
  8 16  1  0  0  0  0
  9 27  1  6  0  0  0
  9 13  1  0  0  0  0
  9 25  1  0  0  0  0
 10 22  1  0  0  0  0
 13 24  1  1  0  0  0
 15 12  1  6  0  0  0
 15  5  1  0  0  0  0
 16  3  1  0  0  0  0
 17 10  1  1  0  0  0
 17 29  1  0  0  0  0
 18 20  1  0  0  0  0
 20 11  1  1  0  0  0
 20 13  1  0  0  0  0
 21 23  2  0  0  0  0
 21 26  1  0  0  0  0
 23  4  1  0  0  0  0
 24 22  1  0  0  0  0
 25 14  1  6  0  0  0
 25 17  1  0  0  0  0
 26  1  2  0  0  0  0
 27  2  1  0  0  0  0
 28 17  1  0  0  0  0
 29 28  1  6  0  0  0
 30 33  1  0  0  0  0
 31 33  1  0  0  0  0
 32 29  1  0  0  0  0
 32 34  1  0  0  0  0
 32 31  1  1  0  0  0
 34 30  1  0  0  0  0
M  END
>  <MODEL>
9

>  <REMARK>
 VINA RESULT:      -6.6      2.531      4.591
  Name = 
  1 active torsions:
  status: ('A' for Active; 'I' for Inactive)
    1  A    between atoms: C_29  and  C_32
                            x       y       z     vdW  Elec       q    Type
                         _______ _______ _______ _____ _____    ______ ____

>  <TORSDO>
F 1

$$$$
