=
 OpenBabel11122410213D

 30 35  0  0  1  0  0  0  0  0999 V2000
  188.6990  177.9910  144.9910 C   0  0  1  0  0  3  0  0  0  0  0  0
  186.9010  178.0610  146.6430 C   0  0  0  0  0  0  0  0  0  0  0  0
  185.9140  178.4090  141.8710 N   0  0  0  0  0  0  0  0  0  0  0  0
  189.1960  178.2100  143.5700 C   0  0  1  0  0  3  0  0  0  0  0  0
  189.6890  177.7950  146.0120 N   0  0  0  0  0  2  0  0  0  0  0  0
  192.0540  178.9870  144.3660 C   0  0  0  0  0  1  0  0  0  0  0  0
  190.1580  176.4580  140.9480 C   0  0  1  0  0  3  0  0  0  0  0  0
  191.5230  177.5600  144.3640 C   0  0  1  0  0  3  0  0  0  0  0  0
  188.8090  176.9820  140.4450 C   0  0  2  0  0  3  0  0  0  0  0  0
  186.8170  178.4460  140.7750 C   0  0  0  0  0  0  0  0  0  0  0  0
  191.0010  177.1990  145.7550 C   0  0  2  0  0  3  0  0  0  0  0  0
  190.4310  177.3350  143.3060 C   0  0  2  0  0  3  0  0  0  0  0  0
  185.5390  178.2110  146.9210 C   0  0  0  0  0  3  0  0  0  0  0  0
  188.9230  177.2380  139.0670 O   0  0  0  0  0  0  0  0  0  0  0  0
  190.9200  176.1480  139.6940 C   0  0  0  0  0  2  0  0  0  0  0  0
  187.7590  177.9040  147.7260 O   0  0  0  0  0  1  0  0  0  0  0  0
  186.7750  178.1630  142.9730 C   0  0  0  0  0  0  0  0  0  0  0  0
  184.6170  178.3770  145.8930 C   0  0  0  0  0  3  0  0  0  0  0  0
  187.3710  178.0860  145.2990 C   0  0  0  0  0  0  0  0  0  0  0  0
  188.1310  177.9640  142.6040 N   0  0  0  0  0  0  0  0  0  0  0  0
  186.4420  178.6960  139.6000 O   0  0  0  0  0  0  0  0  0  0  0  0
  188.2440  178.2100  141.1700 C   0  0  1  0  0  3  0  0  0  0  0  0
  189.8950  176.3390  138.6030 C   0  0  0  0  0  2  0  0  0  0  0  0
  191.2330  178.7680  141.3250 C   0  0  0  0  0  1  0  0  0  0  0  0
  185.0440  178.3760  144.5710 C   0  0  0  0  0  3  0  0  0  0  0  0
  186.4000  178.2150  144.2580 C   0  0  0  0  0  0  0  0  0  0  0  0
  190.9800  177.3640  141.8760 C   0  0  2  0  0  3  0  0  0  0  0  0
  190.9290  175.6840  145.9070 C   0  0  0  0  0  2  0  0  0  0  0  0
  192.4190  175.9140  147.8950 C   0  0  0  0  0  1  0  0  0  0  0  0
  192.1600  175.1400  146.6160 C   0  0  0  0  0  2  0  0  0  0  0  0
  1 19  1  1  0  0  0
  1  5  1  0  0  0  0
  2 13  1  0  0  0  0
  2 16  1  0  0  0  0
  3 17  2  0  0  0  0
  4 20  1  6  0  0  0
  4  1  1  0  0  0  0
  7 15  1  6  0  0  0
  7 27  1  0  0  0  0
  8  6  1  1  0  0  0
  8 11  1  0  0  0  0
  9 14  1  6  0  0  0
  9  7  1  0  0  0  0
  9 22  1  0  0  0  0
 10 22  1  0  0  0  0
 10  3  1  0  0  0  0
 11 28  1  6  0  0  0
 11  5  1  0  0  0  0
 12  4  1  0  0  0  0
 12  8  1  0  0  0  0
 17 26  1  0  0  0  0
 18 13  2  0  0  0  0
 19  2  2  0  0  0  0
 20 17  1  0  0  0  0
 21 10  2  0  0  0  0
 22 20  1  0  0  0  0
 23 14  1  0  0  0  0
 23 15  1  0  0  0  0
 24 27  1  0  0  0  0
 25 18  1  0  0  0  0
 26 25  2  0  0  0  0
 26 19  1  0  0  0  0
 27 12  1  0  0  0  0
 28 30  1  0  0  0  0
 30 29  1  0  0  0  0
M  END
>  <MODEL>
1

>  <REMARK>
 VINA RESULT:      -7.3      0.000      0.000
  Name = 
  2 active torsions:
  status: ('A' for Active; 'I' for Inactive)
    1  A    between atoms: C_11  and  C_28
    2  A    between atoms: C_28  and  C_30
                            x       y       z     vdW  Elec       q    Type
                         _______ _______ _______ _____ _____    ______ ____

>  <TORSDO>
F 2

$$$$
=
 OpenBabel11122410213D

 30 35  0  0  1  0  0  0  0  0999 V2000
  189.3370  177.1460  138.7190 C   0  0  1  0  0  3  0  0  0  0  0  0
  190.5890  177.2340  140.8150 C   0  0  0  0  0  0  0  0  0  0  0  0
  186.0230  178.9560  140.5650 N   0  0  0  0  0  0  0  0  0  0  0  0
  188.1530  177.5810  137.8680 C   0  0  1  0  0  3  0  0  0  0  0  0
  190.4190  176.4790  138.0510 N   0  0  0  0  0  2  0  0  0  0  0  0
  189.6390  177.4430  135.1890 C   0  0  0  0  0  1  0  0  0  0  0  0
  185.3550  176.3430  136.6410 C   0  0  1  0  0  3  0  0  0  0  0  0
  189.1300  176.2260  135.9510 C   0  0  1  0  0  3  0  0  0  0  0  0
  184.7900  177.2770  137.7170 C   0  0  2  0  0  3  0  0  0  0  0  0
  185.1650  179.0450  139.4370 C   0  0  0  0  0  0  0  0  0  0  0  0
  190.2410  175.6710  136.8430 C   0  0  2  0  0  3  0  0  0  0  0  0
  187.8740  176.5300  136.7830 C   0  0  2  0  0  3  0  0  0  0  0  0
  190.6490  177.6300  142.1550 C   0  0  0  0  0  3  0  0  0  0  0  0
  183.5890  177.8260  137.2360 O   0  0  0  0  0  0  0  0  0  0  0  0
  184.2220  176.1770  135.6720 C   0  0  0  0  0  2  0  0  0  0  0  0
  191.7160  176.6200  140.2810 O   0  0  0  0  0  1  0  0  0  0  0  0
  187.1440  178.2530  140.0480 C   0  0  0  0  0  0  0  0  0  0  0  0
  189.5650  178.2530  142.7620 C   0  0  0  0  0  3  0  0  0  0  0  0
  189.4160  177.4740  140.0440 C   0  0  0  0  0  0  0  0  0  0  0  0
  186.9820  177.8360  138.7010 N   0  0  0  0  0  0  0  0  0  0  0  0
  184.0650  179.6550  139.4720 O   0  0  0  0  0  0  0  0  0  0  0  0
  185.7250  178.3890  138.2090 C   0  0  1  0  0  3  0  0  0  0  0  0
  183.0680  176.8640  136.3590 C   0  0  0  0  0  2  0  0  0  0  0  0
  186.5680  178.1710  135.2920 C   0  0  0  0  0  1  0  0  0  0  0  0
  188.3970  178.4730  142.0410 C   0  0  0  0  0  3  0  0  0  0  0  0
  188.3000  178.0780  140.7010 C   0  0  0  0  0  0  0  0  0  0  0  0
  186.6360  176.7760  135.9140 C   0  0  2  0  0  3  0  0  0  0  0  0
  189.9340  174.2260  137.2180 C   0  0  0  0  0  2  0  0  0  0  0  0
  188.1920  172.6300  136.4150 C   0  0  0  0  0  1  0  0  0  0  0  0
  189.4110  173.4440  136.0230 C   0  0  0  0  0  2  0  0  0  0  0  0
  1  5  1  6  0  0  0
  1 19  1  0  0  0  0
  2 13  1  0  0  0  0
  4 20  1  1  0  0  0
  4  1  1  0  0  0  0
  7 15  1  6  0  0  0
  7  9  1  0  0  0  0
  8  6  1  1  0  0  0
  8 12  1  0  0  0  0
  8 11  1  0  0  0  0
  9 14  1  6  0  0  0
  9 22  1  0  0  0  0
 10 21  2  0  0  0  0
 10  3  1  0  0  0  0
 11 28  1  1  0  0  0
 11  5  1  0  0  0  0
 12  4  1  0  0  0  0
 13 18  2  0  0  0  0
 15 23  1  0  0  0  0
 16  2  1  0  0  0  0
 17  3  2  0  0  0  0
 17 26  1  0  0  0  0
 19 26  1  0  0  0  0
 19  2  2  0  0  0  0
 20 17  1  0  0  0  0
 22 20  1  0  0  0  0
 22 10  1  0  0  0  0
 23 14  1  0  0  0  0
 24 27  1  0  0  0  0
 25 18  1  0  0  0  0
 26 25  2  0  0  0  0
 27  7  1  0  0  0  0
 27 12  1  0  0  0  0
 30 29  1  0  0  0  0
 30 28  1  0  0  0  0
M  END
>  <MODEL>
2

>  <REMARK>
 VINA RESULT:      -6.6      3.644      6.959
  Name = 
  2 active torsions:
  status: ('A' for Active; 'I' for Inactive)
    1  A    between atoms: C_11  and  C_28
    2  A    between atoms: C_28  and  C_30
                            x       y       z     vdW  Elec       q    Type
                         _______ _______ _______ _____ _____    ______ ____

>  <TORSDO>
F 2

$$$$
=
 OpenBabel11122410213D

 30 35  0  0  1  0  0  0  0  0999 V2000
  184.0650  178.4350  141.0310 C   0  0  1  0  0  3  0  0  0  0  0  0
  183.3450  178.9600  143.3070 C   0  0  0  0  0  0  0  0  0  0  0  0
  188.0340  177.9880  142.3390 N   0  0  0  0  0  0  0  0  0  0  0  0
  185.1120  177.8960  140.0690 C   0  0  1  0  0  3  0  0  0  0  0  0
  182.7370  178.6260  140.5200 N   0  0  0  0  0  2  0  0  0  0  0  0
  183.1070  176.7790  138.0350 C   0  0  0  0  0  1  0  0  0  0  0  0
  187.1970  178.9850  137.7590 C   0  0  1  0  0  3  0  0  0  0  0  0
  183.4510  178.2560  138.1780 C   0  0  1  0  0  3  0  0  0  0  0  0
  188.1880  178.6270  138.8730 C   0  0  2  0  0  3  0  0  0  0  0  0
  188.6300  177.6090  141.1060 C   0  0  0  0  0  0  0  0  0  0  0  0
  182.4520  178.9320  139.1180 C   0  0  2  0  0  3  0  0  0  0  0  0
  184.8890  178.4860  138.6680 C   0  0  2  0  0  3  0  0  0  0  0  0
  183.6680  179.0980  144.6590 C   0  0  0  0  0  3  0  0  0  0  0  0
  189.3570  178.1260  138.2750 O   0  0  0  0  0  0  0  0  0  0  0  0
  188.0230  178.9410  136.5080 C   0  0  0  0  0  2  0  0  0  0  0  0
  182.0150  179.1460  142.9460 O   0  0  0  0  0  1  0  0  0  0  0  0
  186.6920  178.2630  141.9640 C   0  0  0  0  0  0  0  0  0  0  0  0
  184.9750  178.9250  145.1010 C   0  0  0  0  0  3  0  0  0  0  0  0
  184.3500  178.6270  142.3550 C   0  0  0  0  0  0  0  0  0  0  0  0
  186.4580  178.1570  140.5670 N   0  0  0  0  0  0  0  0  0  0  0  0
  189.8280  177.2330  141.0230 O   0  0  0  0  0  0  0  0  0  0  0  0
  187.6800  177.6570  139.9460 C   0  0  1  0  0  3  0  0  0  0  0  0
  189.4290  178.7500  137.0210 C   0  0  0  0  0  2  0  0  0  0  0  0
  186.2130  176.6210  137.4880 C   0  0  0  0  0  1  0  0  0  0  0  0
  185.9810  178.6280  144.1900 C   0  0  0  0  0  3  0  0  0  0  0  0
  185.6930  178.4950  142.8250 C   0  0  0  0  0  0  0  0  0  0  0  0
  185.9380  178.1200  137.6120 C   0  0  2  0  0  3  0  0  0  0  0  0
  182.4670  180.4400  138.8960 C   0  0  0  0  0  2  0  0  0  0  0  0
  181.2100  182.3830  137.9610 C   0  0  0  0  0  1  0  0  0  0  0  0
  181.3490  180.8720  137.9580 C   0  0  0  0  0  2  0  0  0  0  0  0
  1  5  1  1  0  0  0
  1 19  1  0  0  0  0
  2 13  1  0  0  0  0
  4 20  1  1  0  0  0
  4  1  1  0  0  0  0
  7 15  1  6  0  0  0
  7  9  1  0  0  0  0
  8  6  1  1  0  0  0
  8 12  1  0  0  0  0
  8 11  1  0  0  0  0
  9 14  1  6  0  0  0
  9 22  1  0  0  0  0
 10  3  1  0  0  0  0
 11 28  1  1  0  0  0
 11  5  1  0  0  0  0
 12  4  1  0  0  0  0
 13 18  2  0  0  0  0
 15 23  1  0  0  0  0
 16  2  1  0  0  0  0
 17  3  2  0  0  0  0
 17 26  1  0  0  0  0
 19 26  1  0  0  0  0
 19  2  2  0  0  0  0
 20 17  1  0  0  0  0
 21 10  2  0  0  0  0
 22 20  1  0  0  0  0
 22 10  1  0  0  0  0
 23 14  1  0  0  0  0
 24 27  1  0  0  0  0
 25 18  1  0  0  0  0
 26 25  2  0  0  0  0
 27  7  1  0  0  0  0
 27 12  1  0  0  0  0
 30 29  1  0  0  0  0
 30 28  1  0  0  0  0
M  END
>  <MODEL>
3

>  <REMARK>
 VINA RESULT:      -6.5      3.529      7.041
  Name = 
  2 active torsions:
  status: ('A' for Active; 'I' for Inactive)
    1  A    between atoms: C_11  and  C_28
    2  A    between atoms: C_28  and  C_30
                            x       y       z     vdW  Elec       q    Type
                         _______ _______ _______ _____ _____    ______ ____

>  <TORSDO>
F 2

$$$$
=
 OpenBabel11122410213D

 30 35  0  0  1  0  0  0  0  0999 V2000
  188.0810  177.7290  140.0600 C   0  0  1  0  0  3  0  0  0  0  0  0
  190.0610  177.0710  141.3320 C   0  0  0  0  0  0  0  0  0  0  0  0
  186.0030  178.5450  143.6220 N   0  0  0  0  0  0  0  0  0  0  0  0
  186.7170  178.3980  139.9930 C   0  0  1  0  0  3  0  0  0  0  0  0
  188.7240  177.4170  138.8150 N   0  0  0  0  0  2  0  0  0  0  0  0
  186.9950  179.3590  137.0930 C   0  0  0  0  0  1  0  0  0  0  0  0
  183.5380  177.5910  139.6610 C   0  0  1  0  0  3  0  0  0  0  0  0
  186.6900  177.9220  137.4950 C   0  0  1  0  0  3  0  0  0  0  0  0
  183.5580  178.0190  141.1330 C   0  0  2  0  0  3  0  0  0  0  0  0
  184.7860  179.0160  143.0620 C   0  0  0  0  0  0  0  0  0  0  0  0
  187.9900  177.1210  137.5830 C   0  0  2  0  0  3  0  0  0  0  0  0
  185.9110  177.8270  138.8160 C   0  0  2  0  0  3  0  0  0  0  0  0
  190.6910  176.9300  142.5720 C   0  0  0  0  0  3  0  0  0  0  0  0
  182.3370  178.6530  141.4230 O   0  0  0  0  0  0  0  0  0  0  0  0
  182.1030  177.7530  139.2540 C   0  0  0  0  0  2  0  0  0  0  0  0
  190.8040  176.7600  140.2000 O   0  0  0  0  0  1  0  0  0  0  0  0
  186.7380  178.1440  142.4740 C   0  0  0  0  0  0  0  0  0  0  0  0
  190.0160  177.2250  143.7520 C   0  0  0  0  0  3  0  0  0  0  0  0
  188.7150  177.5320  141.2550 C   0  0  0  0  0  0  0  0  0  0  0  0
  186.0090  178.2630  141.2610 N   0  0  0  0  0  0  0  0  0  0  0  0
  183.8690  179.5150  143.7640 O   0  0  0  0  0  0  0  0  0  0  0  0
  184.7340  178.9030  141.5670 C   0  0  1  0  0  3  0  0  0  0  0  0
  181.4030  178.0730  140.5520 C   0  0  0  0  0  2  0  0  0  0  0  0
  184.3230  179.8490  138.7030 C   0  0  0  0  0  1  0  0  0  0  0  0
  188.6940  177.6480  143.7070 C   0  0  0  0  0  3  0  0  0  0  0  0
  188.0280  177.7880  142.4820 C   0  0  0  0  0  0  0  0  0  0  0  0
  184.4680  178.3270  138.6870 C   0  0  2  0  0  3  0  0  0  0  0  0
  187.6900  175.6290  137.4960 C   0  0  0  0  0  2  0  0  0  0  0  0
  185.5350  174.4870  136.9730 C   0  0  0  0  0  1  0  0  0  0  0  0
  186.6620  175.3350  136.4150 C   0  0  0  0  0  2  0  0  0  0  0  0
  1  5  1  6  0  0  0
  1 19  1  0  0  0  0
  2 13  1  0  0  0  0
  4  1  1  0  0  0  0
  4 20  1  1  0  0  0
  7 15  1  6  0  0  0
  7  9  1  0  0  0  0
  8  6  1  1  0  0  0
  8 11  1  0  0  0  0
  8 12  1  0  0  0  0
  9 14  1  6  0  0  0
  9 22  1  0  0  0  0
 10  3  1  0  0  0  0
 10 21  2  0  0  0  0
 11 28  1  1  0  0  0
 11  5  1  0  0  0  0
 12  4  1  0  0  0  0
 13 18  2  0  0  0  0
 15 23  1  0  0  0  0
 16  2  1  0  0  0  0
 17 26  1  0  0  0  0
 17  3  2  0  0  0  0
 19  2  2  0  0  0  0
 19 26  1  0  0  0  0
 20 22  1  0  0  0  0
 20 17  1  0  0  0  0
 22 10  1  0  0  0  0
 23 14  1  0  0  0  0
 25 18  1  0  0  0  0
 26 25  2  0  0  0  0
 27 24  1  0  0  0  0
 27 12  1  0  0  0  0
 27  7  1  0  0  0  0
 30 29  1  0  0  0  0
 30 28  1  0  0  0  0
M  END
>  <MODEL>
4

>  <REMARK>
 VINA RESULT:      -6.5      2.986      6.897
  Name = 
  2 active torsions:
  status: ('A' for Active; 'I' for Inactive)
    1  A    between atoms: C_11  and  C_28
    2  A    between atoms: C_28  and  C_30
                            x       y       z     vdW  Elec       q    Type
                         _______ _______ _______ _____ _____    ______ ____

>  <TORSDO>
F 2

$$$$
=
 OpenBabel11122410213D

 30 35  0  0  1  0  0  0  0  0999 V2000
  186.1750  177.8240  138.3330 C   0  0  1  0  0  3  0  0  0  0  0  0
  184.2970  178.8810  139.4850 C   0  0  0  0  0  0  0  0  0  0  0  0
  183.5420  175.2570  136.2960 N   0  0  0  0  0  0  0  0  0  0  0  0
  186.7100  176.9320  137.2220 C   0  0  1  0  0  3  0  0  0  0  0  0
  187.1230  178.6380  139.0380 N   0  0  0  0  0  2  0  0  0  0  0  0
  189.3520  178.4470  136.8670 C   0  0  0  0  0  1  0  0  0  0  0  0
  188.0930  173.9650  136.8320 C   0  0  1  0  0  3  0  0  0  0  0  0
  189.0620  177.4880  138.0140 C   0  0  1  0  0  3  0  0  0  0  0  0
  186.7070  173.7000  136.2330 C   0  0  2  0  0  3  0  0  0  0  0  0
  184.4880  174.5650  135.4940 C   0  0  0  0  0  0  0  0  0  0  0  0
  188.5270  178.2660  139.2170 C   0  0  2  0  0  3  0  0  0  0  0  0
  188.0830  176.3700  137.6190 C   0  0  2  0  0  3  0  0  0  0  0  0
  182.9150  178.9890  139.6670 C   0  0  0  0  0  3  0  0  0  0  0  0
  186.8580  172.8090  135.1570 O   0  0  0  0  0  0  0  0  0  0  0  0
  188.9660  172.9160  136.2110 C   0  0  0  0  0  2  0  0  0  0  0  0
  185.1050  179.7480  140.2110 O   0  0  0  0  0  1  0  0  0  0  0  0
  184.3670  176.0860  137.1020 C   0  0  0  0  0  0  0  0  0  0  0  0
  182.0390  178.1600  138.9750 C   0  0  0  0  0  3  0  0  0  0  0  0
  184.8330  177.9260  138.5750 C   0  0  0  0  0  0  0  0  0  0  0  0
  185.7560  175.8760  136.8990 N   0  0  0  0  0  0  0  0  0  0  0  0
  184.1450  173.7550  134.5940 O   0  0  0  0  0  0  0  0  0  0  0  0
  185.9100  174.9350  135.7950 C   0  0  1  0  0  3  0  0  0  0  0  0
  187.9870  172.0390  135.4690 C   0  0  0  0  0  2  0  0  0  0  0  0
  188.7540  175.8370  135.1920 C   0  0  0  0  0  1  0  0  0  0  0  0
  182.5360  177.1990  138.1030 C   0  0  0  0  0  3  0  0  0  0  0  0
  183.9160  177.0570  137.9060 C   0  0  0  0  0  0  0  0  0  0  0  0
  188.7020  175.3620  136.6440 C   0  0  2  0  0  3  0  0  0  0  0  0
  188.6940  177.4390  140.4870 C   0  0  0  0  0  2  0  0  0  0  0  0
  187.9280  177.1480  142.8440 C   0  0  0  0  0  1  0  0  0  0  0  0
  188.0220  178.1110  141.6750 C   0  0  0  0  0  2  0  0  0  0  0  0
  1 19  1  6  0  0  0
  1  5  1  0  0  0  0
  2 13  1  0  0  0  0
  2 16  1  0  0  0  0
  3 17  2  0  0  0  0
  4 20  1  1  0  0  0
  4 12  1  0  0  0  0
  4  1  1  0  0  0  0
  5 11  1  0  0  0  0
  7 15  1  6  0  0  0
  8  6  1  6  0  0  0
  8 11  1  0  0  0  0
  9 14  1  6  0  0  0
  9  7  1  0  0  0  0
 10 22  1  0  0  0  0
 10  3  1  0  0  0  0
 11 28  1  1  0  0  0
 12  8  1  0  0  0  0
 14 23  1  0  0  0  0
 17 26  1  0  0  0  0
 18 13  2  0  0  0  0
 19  2  2  0  0  0  0
 20 17  1  0  0  0  0
 21 10  2  0  0  0  0
 22  9  1  0  0  0  0
 22 20  1  0  0  0  0
 23 15  1  0  0  0  0
 24 27  1  0  0  0  0
 25 18  1  0  0  0  0
 26 25  2  0  0  0  0
 26 19  1  0  0  0  0
 27  7  1  0  0  0  0
 27 12  1  0  0  0  0
 28 30  1  0  0  0  0
 30 29  1  0  0  0  0
M  END
>  <MODEL>
5

>  <REMARK>
 VINA RESULT:      -6.4      4.192      6.848
  Name = 
  2 active torsions:
  status: ('A' for Active; 'I' for Inactive)
    1  A    between atoms: C_11  and  C_28
    2  A    between atoms: C_28  and  C_30
                            x       y       z     vdW  Elec       q    Type
                         _______ _______ _______ _____ _____    ______ ____

>  <TORSDO>
F 2

$$$$
=
 OpenBabel11122410213D

 30 35  0  0  1  0  0  0  0  0999 V2000
  186.1750  178.2520  139.2210 C   0  0  1  0  0  3  0  0  0  0  0  0
  184.6010  178.9480  140.9560 C   0  0  0  0  0  0  0  0  0  0  0  0
  183.0790  176.3520  137.1060 N   0  0  0  0  0  0  0  0  0  0  0  0
  186.4480  177.7050  137.8280 C   0  0  1  0  0  3  0  0  0  0  0  0
  187.2790  178.8390  139.9260 N   0  0  0  0  0  2  0  0  0  0  0  0
  189.0560  179.2590  137.3990 C   0  0  0  0  0  1  0  0  0  0  0  0
  187.5760  174.9630  136.3860 C   0  0  1  0  0  3  0  0  0  0  0  0
  188.9320  178.0190  138.2740 C   0  0  1  0  0  3  0  0  0  0  0  0
  186.0920  174.8750  136.0150 C   0  0  2  0  0  3  0  0  0  0  0  0
  183.8230  175.9100  135.9800 C   0  0  0  0  0  0  0  0  0  0  0  0
  188.6700  178.4320  139.7230 C   0  0  2  0  0  3  0  0  0  0  0  0
  187.8390  177.0550  137.7850 C   0  0  2  0  0  3  0  0  0  0  0  0
  183.2840  179.0000  141.4220 C   0  0  0  0  0  3  0  0  0  0  0  0
  185.9930  174.3170  134.7280 O   0  0  0  0  0  0  0  0  0  0  0  0
  188.2630  174.1280  135.3460 C   0  0  0  0  0  2  0  0  0  0  0  0
  185.5740  179.5790  141.7220 O   0  0  0  0  0  1  0  0  0  0  0  0
  184.0820  176.9240  137.9340 C   0  0  0  0  0  0  0  0  0  0  0  0
  182.2530  178.3950  140.7130 C   0  0  0  0  0  3  0  0  0  0  0  0
  184.9080  178.2830  139.7340 C   0  0  0  0  0  0  0  0  0  0  0  0
  185.3970  176.7800  137.4190 N   0  0  0  0  0  0  0  0  0  0  0  0
  183.2770  175.3820  134.9760 O   0  0  0  0  0  0  0  0  0  0  0  0
  185.2940  176.1820  136.0920 C   0  0  1  0  0  3  0  0  0  0  0  0
  187.1190  173.4910  134.5950 C   0  0  0  0  0  2  0  0  0  0  0  0
  188.0210  177.2180  135.2230 C   0  0  0  0  0  1  0  0  0  0  0  0
  182.5280  177.7150  139.5330 C   0  0  0  0  0  3  0  0  0  0  0  0
  183.8390  177.6330  139.0440 C   0  0  0  0  0  0  0  0  0  0  0  0
  188.2130  176.3580  136.4730 C   0  0  2  0  0  3  0  0  0  0  0  0
  189.0240  177.2850  140.6630 C   0  0  0  0  0  2  0  0  0  0  0  0
  188.8300  176.3700  142.9760 C   0  0  0  0  0  1  0  0  0  0  0  0
  188.4610  177.5190  142.0570 C   0  0  0  0  0  2  0  0  0  0  0  0
  1 19  1  6  0  0  0
  1  5  1  0  0  0  0
  2 13  1  0  0  0  0
  2 16  1  0  0  0  0
  3 17  2  0  0  0  0
  4 20  1  1  0  0  0
  4  1  1  0  0  0  0
  7 15  1  6  0  0  0
  7 27  1  0  0  0  0
  8  6  1  6  0  0  0
  8 11  1  0  0  0  0
  9 14  1  6  0  0  0
  9 22  1  0  0  0  0
  9  7  1  0  0  0  0
 10 22  1  0  0  0  0
 10  3  1  0  0  0  0
 11  5  1  0  0  0  0
 11 28  1  1  0  0  0
 12  4  1  0  0  0  0
 12  8  1  0  0  0  0
 17 26  1  0  0  0  0
 18 13  2  0  0  0  0
 19  2  2  0  0  0  0
 20 17  1  0  0  0  0
 21 10  2  0  0  0  0
 22 20  1  0  0  0  0
 23 14  1  0  0  0  0
 23 15  1  0  0  0  0
 24 27  1  0  0  0  0
 25 18  1  0  0  0  0
 26 25  2  0  0  0  0
 26 19  1  0  0  0  0
 27 12  1  0  0  0  0
 28 30  1  0  0  0  0
 30 29  1  0  0  0  0
M  END
>  <MODEL>
6

>  <REMARK>
 VINA RESULT:      -6.4      3.902      6.171
  Name = 
  2 active torsions:
  status: ('A' for Active; 'I' for Inactive)
    1  A    between atoms: C_11  and  C_28
    2  A    between atoms: C_28  and  C_30
                            x       y       z     vdW  Elec       q    Type
                         _______ _______ _______ _____ _____    ______ ____

>  <TORSDO>
F 2

$$$$
=
 OpenBabel11122410213D

 30 35  0  0  1  0  0  0  0  0999 V2000
  185.1650  177.5880  138.2100 C   0  0  1  0  0  3  0  0  0  0  0  0
  183.8480  178.7870  139.8830 C   0  0  0  0  0  0  0  0  0  0  0  0
  182.1630  174.6640  137.8730 N   0  0  0  0  0  0  0  0  0  0  0  0
  185.2680  176.5330  137.1190 C   0  0  1  0  0  3  0  0  0  0  0  0
  186.2440  178.5280  138.3220 N   0  0  0  0  0  2  0  0  0  0  0  0
  187.3790  178.0180  135.4630 C   0  0  0  0  0  1  0  0  0  0  0  0
  186.6220  173.5700  136.6110 C   0  0  1  0  0  3  0  0  0  0  0  0
  187.6770  177.2600  136.7500 C   0  0  1  0  0  3  0  0  0  0  0  0
  185.1430  173.1810  136.7010 C   0  0  2  0  0  3  0  0  0  0  0  0
  182.7490  173.8650  136.8550 C   0  0  0  0  0  0  0  0  0  0  0  0
  187.6220  178.2180  137.9400 C   0  0  2  0  0  3  0  0  0  0  0  0
  186.7260  176.0720  136.9720 C   0  0  2  0  0  3  0  0  0  0  0  0
  182.6630  178.8960  140.6160 C   0  0  0  0  0  3  0  0  0  0  0  0
  184.9120  172.1240  135.8030 O   0  0  0  0  0  0  0  0  0  0  0  0
  187.2480  172.4490  135.8370 C   0  0  0  0  0  2  0  0  0  0  0  0
  184.8040  179.7790  140.0650 O   0  0  0  0  0  1  0  0  0  0  0  0
  183.1720  175.6320  138.1260 C   0  0  0  0  0  0  0  0  0  0  0  0
  181.6560  177.9460  140.4880 C   0  0  0  0  0  3  0  0  0  0  0  0
  184.0410  177.7030  138.9800 C   0  0  0  0  0  0  0  0  0  0  0  0
  184.3640  175.4190  137.3860 N   0  0  0  0  0  0  0  0  0  0  0  0
  182.1370  172.9090  136.3120 O   0  0  0  0  0  0  0  0  0  0  0  0
  184.1290  174.3090  136.4690 C   0  0  1  0  0  3  0  0  0  0  0  0
  186.1330  171.4400  135.7150 C   0  0  0  0  0  2  0  0  0  0  0  0
  186.3740  175.1520  134.5950 C   0  0  0  0  0  1  0  0  0  0  0  0
  181.8300  176.8620  139.6360 C   0  0  0  0  0  3  0  0  0  0  0  0
  183.0100  176.7160  138.8960 C   0  0  0  0  0  0  0  0  0  0  0  0
  186.9720  174.9270  135.9840 C   0  0  2  0  0  3  0  0  0  0  0  0
  188.3730  177.6200  139.1240 C   0  0  0  0  0  2  0  0  0  0  0  0
  188.5150  177.5770  141.6150 C   0  0  0  0  0  1  0  0  0  0  0  0
  188.0830  178.3860  140.4060 C   0  0  0  0  0  2  0  0  0  0  0  0
  1  5  1  6  0  0  0
  1 19  1  0  0  0  0
  2 16  1  0  0  0  0
  2 13  1  0  0  0  0
  3 17  2  0  0  0  0
  4 20  1  1  0  0  0
  4  1  1  0  0  0  0
  7 15  1  6  0  0  0
  7  9  1  0  0  0  0
  8  6  1  6  0  0  0
  8 12  1  0  0  0  0
  8 11  1  0  0  0  0
  9 14  1  6  0  0  0
 10  3  1  0  0  0  0
 11  5  1  0  0  0  0
 11 28  1  1  0  0  0
 12  4  1  0  0  0  0
 17 26  1  0  0  0  0
 18 13  2  0  0  0  0
 19  2  2  0  0  0  0
 20 17  1  0  0  0  0
 21 10  2  0  0  0  0
 22  9  1  0  0  0  0
 22 10  1  0  0  0  0
 22 20  1  0  0  0  0
 23 14  1  0  0  0  0
 23 15  1  0  0  0  0
 24 27  1  0  0  0  0
 25 18  1  0  0  0  0
 26 19  1  0  0  0  0
 26 25  2  0  0  0  0
 27  7  1  0  0  0  0
 27 12  1  0  0  0  0
 28 30  1  0  0  0  0
 30 29  1  0  0  0  0
M  END
>  <MODEL>
7

>  <REMARK>
 VINA RESULT:      -6.4      4.869      7.491
  Name = 
  2 active torsions:
  status: ('A' for Active; 'I' for Inactive)
    1  A    between atoms: C_11  and  C_28
    2  A    between atoms: C_28  and  C_30
                            x       y       z     vdW  Elec       q    Type
                         _______ _______ _______ _____ _____    ______ ____

>  <TORSDO>
F 2

$$$$
=
 OpenBabel11122410213D

 30 35  0  0  1  0  0  0  0  0999 V2000
  188.5630  177.8370  140.2870 C   0  0  1  0  0  3  0  0  0  0  0  0
  186.5280  178.8280  141.2090 C   0  0  0  0  0  0  0  0  0  0  0  0
  186.6850  177.3310  136.5600 N   0  0  0  0  0  0  0  0  0  0  0  0
  189.3860  177.3840  139.0910 C   0  0  1  0  0  3  0  0  0  0  0  0
  189.2360  177.9380  141.5510 N   0  0  0  0  0  2  0  0  0  0  0  0
  192.1120  178.0080  140.3480 C   0  0  0  0  0  1  0  0  0  0  0  0
  190.4240  174.5980  137.6670 C   0  0  1  0  0  3  0  0  0  0  0  0
  191.2630  176.7950  140.7020 C   0  0  1  0  0  3  0  0  0  0  0  0
  189.3800  175.0550  136.6420 C   0  0  2  0  0  3  0  0  0  0  0  0
  187.7810  176.7900  135.8350 C   0  0  0  0  0  0  0  0  0  0  0  0
  190.3880  177.1110  141.9160 C   0  0  2  0  0  3  0  0  0  0  0  0
  190.3970  176.3130  139.5270 C   0  0  2  0  0  3  0  0  0  0  0  0
  185.2170  179.2680  141.0070 C   0  0  0  0  0  3  0  0  0  0  0  0
  189.8410  174.7060  135.3610 O   0  0  0  0  0  0  0  0  0  0  0  0
  191.3340  173.6990  136.8850 C   0  0  0  0  0  2  0  0  0  0  0  0
  187.0730  179.0080  142.4750 O   0  0  0  0  0  1  0  0  0  0  0  0
  187.2080  177.4380  137.8770 C   0  0  0  0  0  0  0  0  0  0  0  0
  184.6010  179.1270  139.7680 C   0  0  0  0  0  3  0  0  0  0  0  0
  187.2630  178.2360  140.1420 C   0  0  0  0  0  0  0  0  0  0  0  0
  188.5220  176.9170  138.0120 N   0  0  0  0  0  0  0  0  0  0  0  0
  187.7340  176.5890  134.5940 O   0  0  0  0  0  0  0  0  0  0  0  0
  188.9910  176.5380  136.6840 C   0  0  1  0  0  3  0  0  0  0  0  0
  190.6400  173.5700  135.5510 C   0  0  0  0  0  2  0  0  0  0  0  0
  191.9230  176.6840  137.4880 C   0  0  0  0  0  1  0  0  0  0  0  0
  185.2840  178.5270  138.7180 C   0  0  0  0  0  3  0  0  0  0  0  0
  186.5950  178.0630  138.8900 C   0  0  0  0  0  0  0  0  0  0  0  0
  191.2270  175.6790  138.4050 C   0  0  2  0  0  3  0  0  0  0  0  0
  189.9180  175.8170  142.5700 C   0  0  0  0  0  2  0  0  0  0  0  0
  188.9450  176.8170  144.6390 C   0  0  0  0  0  1  0  0  0  0  0  0
  188.6450  176.0340  143.3740 C   0  0  0  0  0  2  0  0  0  0  0  0
  1 19  1  6  0  0  0
  1  5  1  0  0  0  0
  2 16  1  0  0  0  0
  3 17  2  0  0  0  0
  4 20  1  6  0  0  0
  4 12  1  0  0  0  0
  4  1  1  0  0  0  0
  5 11  1  0  0  0  0
  7 15  1  6  0  0  0
  7 27  1  0  0  0  0
  8  6  1  6  0  0  0
  8 11  1  0  0  0  0
  9 14  1  6  0  0  0
  9 22  1  0  0  0  0
  9  7  1  0  0  0  0
 10  3  1  0  0  0  0
 10 22  1  0  0  0  0
 11 28  1  6  0  0  0
 12  8  1  0  0  0  0
 13  2  1  0  0  0  0
 14 23  1  0  0  0  0
 17 20  1  0  0  0  0
 17 26  1  0  0  0  0
 18 13  2  0  0  0  0
 19  2  2  0  0  0  0
 21 10  2  0  0  0  0
 22 20  1  0  0  0  0
 23 15  1  0  0  0  0
 24 27  1  0  0  0  0
 25 26  2  0  0  0  0
 25 18  1  0  0  0  0
 26 19  1  0  0  0  0
 27 12  1  0  0  0  0
 28 30  1  0  0  0  0
 30 29  1  0  0  0  0
M  END
>  <MODEL>
8

>  <REMARK>
 VINA RESULT:      -6.3      2.936      4.793
  Name = 
  2 active torsions:
  status: ('A' for Active; 'I' for Inactive)
    1  A    between atoms: C_11  and  C_28
    2  A    between atoms: C_28  and  C_30
                            x       y       z     vdW  Elec       q    Type
                         _______ _______ _______ _____ _____    ______ ____

>  <TORSDO>
F 2

$$$$
=
 OpenBabel11122410213D

 30 35  0  0  1  0  0  0  0  0999 V2000
  185.7260  175.3040  136.1580 C   0  0  1  0  0  3  0  0  0  0  0  0
  188.1410  175.2380  135.7900 C   0  0  0  0  0  0  0  0  0  0  0  0
  186.1260  178.7930  138.4680 N   0  0  0  0  0  0  0  0  0  0  0  0
  184.4790  176.0500  136.6070 C   0  0  1  0  0  3  0  0  0  0  0  0
  185.5370  174.0860  135.4230 N   0  0  0  0  0  2  0  0  0  0  0  0
  182.5780  174.6750  134.6310 C   0  0  0  0  0  1  0  0  0  0  0  0
  182.2940  176.0330  139.0750 C   0  0  1  0  0  3  0  0  0  0  0  0
  183.1080  174.0270  135.9040 C   0  0  1  0  0  3  0  0  0  0  0  0
  183.0540  177.3250  139.3940 C   0  0  2  0  0  3  0  0  0  0  0  0
  184.7530  179.0310  138.7440 C   0  0  0  0  0  0  0  0  0  0  0  0
  184.3680  173.2200  135.5890 C   0  0  2  0  0  3  0  0  0  0  0  0
  183.3890  175.0490  137.0170 C   0  0  2  0  0  3  0  0  0  0  0  0
  189.3930  175.8310  135.9700 C   0  0  0  0  0  3  0  0  0  0  0  0
  182.1380  178.2550  139.9160 O   0  0  0  0  0  0  0  0  0  0  0  0
  180.9680  176.2140  139.7510 C   0  0  0  0  0  2  0  0  0  0  0  0
  188.0910  174.0720  135.0330 O   0  0  0  0  0  1  0  0  0  0  0  0
  186.0920  177.5570  137.7680 C   0  0  0  0  0  0  0  0  0  0  0  0
  189.5270  177.0000  136.7110 C   0  0  0  0  0  3  0  0  0  0  0  0
  186.9740  175.8280  136.3530 C   0  0  0  0  0  0  0  0  0  0  0  0
  184.7930  176.9900  137.6770 N   0  0  0  0  0  0  0  0  0  0  0  0
  184.3530  180.0760  139.3200 O   0  0  0  0  0  0  0  0  0  0  0  0
  183.8470  177.9490  138.2380 C   0  0  1  0  0  3  0  0  0  0  0  0
  181.1460  177.4870  140.5410 C   0  0  0  0  0  2  0  0  0  0  0  0
  181.4810  176.7540  136.7410 C   0  0  0  0  0  1  0  0  0  0  0  0
  188.4090  177.5820  137.2970 C   0  0  0  0  0  3  0  0  0  0  0  0
  187.1410  177.0050  137.1460 C   0  0  0  0  0  0  0  0  0  0  0  0
  182.1070  175.6550  137.5990 C   0  0  2  0  0  3  0  0  0  0  0  0
  184.6230  172.2010  136.6930 C   0  0  0  0  0  2  0  0  0  0  0  0
  183.4840  170.0740  136.0550 C   0  0  0  0  0  1  0  0  0  0  0  0
  183.4050  171.3170  136.9210 C   0  0  0  0  0  2  0  0  0  0  0  0
  1  5  1  6  0  0  0
  1 19  1  0  0  0  0
  1  4  1  0  0  0  0
  2 13  2  0  0  0  0
  2 19  1  0  0  0  0
  3 10  1  0  0  0  0
  4 12  1  0  0  0  0
  4 20  1  1  0  0  0
  5 11  1  0  0  0  0
  7  9  1  0  0  0  0
  7 15  1  6  0  0  0
  8  6  1  6  0  0  0
  8 12  1  0  0  0  0
  9 14  1  6  0  0  0
 10 21  2  0  0  0  0
 11  8  1  0  0  0  0
 11 28  1  1  0  0  0
 12 27  1  0  0  0  0
 13 18  1  0  0  0  0
 14 23  1  0  0  0  0
 15 23  1  0  0  0  0
 16  2  1  0  0  0  0
 17  3  2  0  0  0  0
 18 25  2  0  0  0  0
 19 26  2  0  0  0  0
 20 17  1  0  0  0  0
 20 22  1  0  0  0  0
 22 10  1  0  0  0  0
 22  9  1  0  0  0  0
 24 27  1  0  0  0  0
 26 25  1  0  0  0  0
 26 17  1  0  0  0  0
 27  7  1  0  0  0  0
 28 30  1  0  0  0  0
 29 30  1  0  0  0  0
M  END
>  <MODEL>
9

>  <REMARK>
 VINA RESULT:      -6.0      6.624      9.880
  Name = 
  2 active torsions:
  status: ('A' for Active; 'I' for Inactive)
    1  A    between atoms: C_11  and  C_28
    2  A    between atoms: C_28  and  C_30
                            x       y       z     vdW  Elec       q    Type
                         _______ _______ _______ _____ _____    ______ ____

>  <TORSDO>
F 2

$$$$
