=
 OpenBabel11122410293D

 30 35  0  0  1  0  0  0  0  0999 V2000
  188.2560  178.1330  141.2580 C   0  0  0  0  0  0  0  0  0  0  0  0
  189.6720  178.2840  143.3130 C   0  0  0  0  0  0  0  0  0  0  0  0
  191.1170  176.0860  138.8970 C   0  0  0  0  0  2  0  0  0  0  0  0
  188.0210  177.7350  139.8380 C   0  0  0  0  0  0  0  0  0  0  0  0
  187.2160  178.7490  141.9580 O   0  0  0  0  0  0  0  0  0  0  0  0
  184.6580  179.0850  139.5250 O   0  0  0  0  0  0  0  0  0  0  0  0
  187.6820  178.5400  136.9340 C   0  0  1  0  0  3  0  0  0  0  0  0
  185.7220  178.6540  140.0500 C   0  0  0  0  0  0  0  0  0  0  0  0
  188.8660  177.6640  136.8000 N   0  0  2  0  0  0  0  0  0  0  0  0
  190.2870  175.8200  137.6350 C   0  0  1  0  0  3  0  0  0  0  0  0
  185.8540  178.6370  141.5480 C   0  0  2  0  0  3  0  0  0  0  0  0
  186.7640  178.1010  139.2230 N   0  0  0  0  0  0  0  0  0  0  0  0
  191.1250  178.2010  143.7030 C   0  0  0  0  0  3  0  0  0  0  0  0
  188.7670  177.0960  135.4600 C   0  0  0  0  0  2  0  0  0  0  0  0
  187.1910  178.8880  135.5400 C   0  0  0  0  0  2  0  0  0  0  0  0
  188.8730  177.3600  144.2160 C   0  0  0  0  0  1  0  0  0  0  0  0
  190.2340  176.8040  139.7880 N   0  0  0  0  0  0  0  0  0  0  0  0
  192.0490  177.6430  142.9150 C   0  0  0  0  0  3  0  0  0  0  0  0
  189.4430  177.9220  141.8640 C   0  0  0  0  0  0  0  0  0  0  0  0
  188.9990  177.0910  139.1710 C   0  0  0  0  0  0  0  0  0  0  0  0
  190.0240  174.3310  137.5100 C   0  0  0  0  0  1  0  0  0  0  0  0
  188.9440  176.5680  137.7780 C   0  0  1  0  0  3  0  0  0  0  0  0
  188.0810  178.1230  134.5940 C   0  0  0  0  0  2  0  0  0  0  0  0
  186.0020  176.6160  137.3870 C   0  0  0  0  0  1  0  0  0  0  0  0
  191.7160  177.1340  141.6140 N   0  0  0  0  0  0  0  0  0  0  0  0
  190.5260  177.2560  141.1090 C   0  0  2  0  0  3  0  0  0  0  0  0
  186.5140  177.9980  137.7820 C   0  0  2  0  0  3  0  0  0  0  0  0
  185.1100  179.6700  142.1230 O   0  0  0  0  0  0  0  0  0  0  0  0
  184.8550  179.0090  144.3920 C   0  0  0  0  0  1  0  0  0  0  0  0
  184.2400  179.0320  143.0080 C   0  0  0  0  0  2  0  0  0  0  0  0
  1 19  2  0  0  0  0
  1  5  1  0  0  0  0
  2 13  2  0  0  0  0
  2 16  1  0  0  0  0
  3 17  1  0  0  0  0
  4  1  1  0  0  0  0
  6  8  2  0  0  0  0
  7 15  1  6  0  0  0
  7 27  1  0  0  0  0
  8 11  1  0  0  0  0
  9 14  1  6  0  0  0
  9  7  1  0  0  0  0
  9 22  1  0  0  0  0
 10 21  1  1  0  0  0
 10 22  1  0  0  0  0
 10  3  1  0  0  0  0
 11  5  1  0  0  0  0
 11 28  1  1  0  0  0
 12  4  1  0  0  0  0
 12  8  1  0  0  0  0
 17 26  1  0  0  0  0
 18 13  1  0  0  0  0
 19  2  1  0  0  0  0
 20 17  1  0  0  0  0
 20  4  2  0  0  0  0
 22 20  1  1  0  0  0
 23 14  1  0  0  0  0
 23 15  1  0  0  0  0
 25 18  2  0  0  0  0
 26 25  1  6  0  0  0
 26 19  1  0  0  0  0
 27 24  1  6  0  0  0
 27 12  1  0  0  0  0
 28 30  1  0  0  0  0
 30 29  1  0  0  0  0
M  END
>  <MODEL>
1

>  <REMARK>
 VINA RESULT:      -7.5      0.000      0.000
  Name = 
  2 active torsions:
  status: ('A' for Active; 'I' for Inactive)
    1  A    between atoms: C_11  and  O_28
    2  A    between atoms: O_28  and  C_30
                            x       y       z     vdW  Elec       q    Type
                         _______ _______ _______ _____ _____    ______ ____

>  <TORSDO>
F 2

$$$$
=
 OpenBabel11122410293D

 30 35  0  0  1  0  0  0  0  0999 V2000
  184.8850  178.6480  141.7410 C   0  0  0  0  0  0  0  0  0  0  0  0
  187.3760  178.5570  141.9220 C   0  0  0  0  0  0  0  0  0  0  0  0
  184.7130  177.8390  137.5850 C   0  0  0  0  0  2  0  0  0  0  0  0
  183.6100  178.5750  140.9660 C   0  0  0  0  0  0  0  0  0  0  0  0
  184.8150  178.8600  143.1200 O   0  0  0  0  0  0  0  0  0  0  0  0
  181.3470  179.2850  143.7240 O   0  0  0  0  0  0  0  0  0  0  0  0
  181.2100  179.9910  139.7700 C   0  0  1  0  0  3  0  0  0  0  0  0
  182.3920  178.9520  143.0990 C   0  0  0  0  0  0  0  0  0  0  0  0
  181.7890  179.4220  138.5340 N   0  0  2  0  0  0  0  0  0  0  0  0
  183.1950  177.7380  137.3910 C   0  0  1  0  0  3  0  0  0  0  0  0
  183.6320  178.5910  143.8700 C   0  0  2  0  0  3  0  0  0  0  0  0
  182.3690  178.8330  141.6640 N   0  0  0  0  0  0  0  0  0  0  0  0
  188.5880  178.6620  141.0330 C   0  0  0  0  0  3  0  0  0  0  0  0
  180.6490  179.1940  137.6520 C   0  0  0  0  0  2  0  0  0  0  0  0
  179.8490  180.5720  139.4300 C   0  0  0  0  0  2  0  0  0  0  0  0
  187.5040  177.3030  142.7700 C   0  0  0  0  0  1  0  0  0  0  0  0
  184.8980  178.1300  138.9880 N   0  0  0  0  0  0  0  0  0  0  0  0
  188.5200  178.5050  139.7070 C   0  0  0  0  0  3  0  0  0  0  0  0
  186.0860  178.5270  141.1370 C   0  0  0  0  0  0  0  0  0  0  0  0
  183.6630  178.3170  139.6440 C   0  0  0  0  0  0  0  0  0  0  0  0
  182.8240  176.3050  137.0610 C   0  0  0  0  0  1  0  0  0  0  0  0
  182.5140  178.1540  138.7120 C   0  0  1  0  0  3  0  0  0  0  0  0
  179.6220  180.2500  137.9750 C   0  0  0  0  0  2  0  0  0  0  0  0
  180.3600  177.7290  140.7110 C   0  0  0  0  0  1  0  0  0  0  0  0
  187.2680  178.2790  139.0420 N   0  0  0  0  0  0  0  0  0  0  0  0
  186.1360  178.2900  139.6790 C   0  0  2  0  0  3  0  0  0  0  0  0
  181.0900  179.0420  140.9780 C   0  0  2  0  0  3  0  0  0  0  0  0
  183.6820  179.2870  145.0810 O   0  0  0  0  0  0  0  0  0  0  0  0
  185.2100  178.3860  146.6640 C   0  0  0  0  0  1  0  0  0  0  0  0
  185.0290  179.2680  145.4460 C   0  0  0  0  0  2  0  0  0  0  0  0
  1  5  1  0  0  0  0
  2 16  1  0  0  0  0
  3 17  1  0  0  0  0
  4 12  1  0  0  0  0
  4  1  1  0  0  0  0
  5 11  1  0  0  0  0
  7 15  1  6  0  0  0
  7 27  1  0  0  0  0
  8  6  2  0  0  0  0
  8 11  1  0  0  0  0
  9 14  1  6  0  0  0
  9 22  1  0  0  0  0
  9  7  1  0  0  0  0
 10 21  1  1  0  0  0
 10  3  1  0  0  0  0
 10 22  1  0  0  0  0
 11 28  1  1  0  0  0
 12  8  1  0  0  0  0
 13  2  2  0  0  0  0
 14 23  1  0  0  0  0
 17 20  1  0  0  0  0
 17 26  1  0  0  0  0
 18 13  1  0  0  0  0
 19  1  2  0  0  0  0
 19  2  1  0  0  0  0
 20  4  2  0  0  0  0
 22 20  1  1  0  0  0
 23 15  1  0  0  0  0
 25 18  2  0  0  0  0
 26 25  1  6  0  0  0
 26 19  1  0  0  0  0
 27 24  1  6  0  0  0
 27 12  1  0  0  0  0
 28 30  1  0  0  0  0
 30 29  1  0  0  0  0
M  END
>  <MODEL>
2

>  <REMARK>
 VINA RESULT:      -7.5      3.250      5.624
  Name = 
  2 active torsions:
  status: ('A' for Active; 'I' for Inactive)
    1  A    between atoms: C_11  and  O_28
    2  A    between atoms: O_28  and  C_30
                            x       y       z     vdW  Elec       q    Type
                         _______ _______ _______ _____ _____    ______ ____

>  <TORSDO>
F 2

$$$$
=
 OpenBabel11122410293D

 30 35  0  0  1  0  0  0  0  0999 V2000
  187.9040  177.9730  141.8970 C   0  0  0  0  0  0  0  0  0  0  0  0
  189.6280  177.4770  143.6380 C   0  0  2  0  0  3  0  0  0  0  0  0
  184.6480  178.3290  144.5840 C   0  0  0  0  0  2  0  0  0  0  0  0
  186.5050  178.2660  141.4640 C   0  0  0  0  0  0  0  0  0  0  0  0
  188.9090  177.9410  140.9260 O   0  0  0  0  0  0  0  0  0  0  0  0
  187.1500  178.4390  137.8880 O   0  0  0  0  0  0  0  0  0  0  0  0
  183.9650  177.3490  140.0850 C   0  0  1  0  0  3  0  0  0  0  0  0
  187.3520  178.4370  139.1340 C   0  0  0  0  0  0  0  0  0  0  0  0
  183.4180  177.6190  141.4320 N   0  0  2  0  0  0  0  0  0  0  0  0
  183.5440  178.7730  143.6160 C   0  0  1  0  0  3  0  0  0  0  0  0
  188.7570  178.5700  139.6550 C   0  0  2  0  0  3  0  0  0  0  0  0
  186.2390  178.3970  140.0480 N   0  0  0  0  0  0  0  0  0  0  0  0
  189.7020  176.9830  145.0600 C   0  0  0  0  0  3  0  0  0  0  0  0
  182.0330  178.0160  141.2060 C   0  0  0  0  0  2  0  0  0  0  0  0
  182.8010  177.0810  139.1470 C   0  0  0  0  0  2  0  0  0  0  0  0
  190.4490  178.7500  143.5240 C   0  0  0  0  0  1  0  0  0  0  0  0
  185.8270  178.1610  143.7650 N   0  0  0  0  0  0  0  0  0  0  0  0
  188.6470  177.0030  145.8810 C   0  0  0  0  0  3  0  0  0  0  0  0
  188.2080  177.7320  143.1890 C   0  0  0  0  0  0  0  0  0  0  0  0
  185.5380  178.3540  142.3980 C   0  0  0  0  0  0  0  0  0  0  0  0
  183.1550  180.2070  143.9190 C   0  0  0  0  0  1  0  0  0  0  0  0
  184.1030  178.6850  142.1800 C   0  0  1  0  0  3  0  0  0  0  0  0
  181.5580  177.2830  139.9750 C   0  0  0  0  0  2  0  0  0  0  0  0
  184.3110  179.8400  139.4530 C   0  0  0  0  0  1  0  0  0  0  0  0
  187.3580  177.4490  145.4360 N   0  0  0  0  0  0  0  0  0  0  0  0
  187.1320  177.7850  144.2010 C   0  0  0  0  0  0  0  0  0  0  0  0
  184.8870  178.4280  139.4830 C   0  0  2  0  0  3  0  0  0  0  0  0
  189.6740  178.0240  138.7540 O   0  0  0  0  0  0  0  0  0  0  0  0
  191.2460  176.2440  138.6430 C   0  0  0  0  0  1  0  0  0  0  0  0
  190.5020  177.2170  139.5350 C   0  0  0  0  0  2  0  0  0  0  0  0
  1 19  2  0  0  0  0
  2 16  1  1  0  0  0
  2 13  1  0  0  0  0
  4  1  1  0  0  0  0
  4 20  2  0  0  0  0
  5  1  1  0  0  0  0
  6  8  2  0  0  0  0
  7 15  1  6  0  0  0
  7  9  1  0  0  0  0
  8 11  1  0  0  0  0
  8 12  1  0  0  0  0
  9 14  1  6  0  0  0
  9 22  1  0  0  0  0
 10 21  1  1  0  0  0
 10  3  1  0  0  0  0
 11 28  1  6  0  0  0
 11  5  1  0  0  0  0
 12  4  1  0  0  0  0
 13 18  2  0  0  0  0
 15 23  1  0  0  0  0
 17 26  1  0  0  0  0
 17  3  1  0  0  0  0
 19  2  1  0  0  0  0
 19 26  1  0  0  0  0
 20 17  1  0  0  0  0
 22 20  1  1  0  0  0
 22 10  1  0  0  0  0
 23 14  1  0  0  0  0
 25 18  1  0  0  0  0
 26 25  2  0  0  0  0
 27 24  1  1  0  0  0
 27 12  1  0  0  0  0
 27  7  1  0  0  0  0
 28 30  1  0  0  0  0
 29 30  1  0  0  0  0
M  END
>  <MODEL>
3

>  <REMARK>
 VINA RESULT:      -7.3      2.612      5.728
  Name = 
  2 active torsions:
  status: ('A' for Active; 'I' for Inactive)
    1  A    between atoms: C_11  and  O_28
    2  A    between atoms: O_28  and  C_30
                            x       y       z     vdW  Elec       q    Type
                         _______ _______ _______ _____ _____    ______ ____

>  <TORSDO>
F 2

$$$$
=
 OpenBabel11122410293D

 30 35  0  0  1  0  0  0  0  0999 V2000
  187.5490  177.8620  139.6110 C   0  0  0  0  0  0  0  0  0  0  0  0
  185.5090  178.5820  138.3600 C   0  0  2  0  0  3  0  0  0  0  0  0
  185.9360  178.4740  143.4810 C   0  0  0  0  0  2  0  0  0  0  0  0
  188.3110  177.6140  140.8720 C   0  0  0  0  0  0  0  0  0  0  0  0
  188.1640  177.5650  138.3920 O   0  0  0  0  0  0  0  0  0  0  0  0
  191.4260  176.5390  139.3300 O   0  0  0  0  0  0  0  0  0  0  0  0
  190.5360  178.4260  142.7660 C   0  0  1  0  0  3  0  0  0  0  0  0
  190.2030  176.8160  139.4710 C   0  0  0  0  0  0  0  0  0  0  0  0
  189.3870  178.5370  143.6900 N   0  0  2  0  0  0  0  0  0  0  0  0
  187.0800  177.9250  144.3420 C   0  0  1  0  0  3  0  0  0  0  0  0
  189.2710  176.6710  138.2980 C   0  0  2  0  0  3  0  0  0  0  0  0
  189.6870  177.1800  140.7660 N   0  0  0  0  0  0  0  0  0  0  0  0
  184.2570  179.3890  138.5900 C   0  0  0  0  0  3  0  0  0  0  0  0
  189.9310  178.2360  145.0090 C   0  0  0  0  0  2  0  0  0  0  0  0
  191.8110  178.5780  143.5770 C   0  0  0  0  0  2  0  0  0  0  0  0
  185.1190  177.2440  137.7560 C   0  0  0  0  0  1  0  0  0  0  0  0
  186.3840  178.3270  142.1150 N   0  0  0  0  0  0  0  0  0  0  0  0
  183.7990  179.6680  139.8140 C   0  0  0  0  0  3  0  0  0  0  0  0
  186.2990  178.3710  139.6290 C   0  0  0  0  0  0  0  0  0  0  0  0
  187.7090  177.8460  142.0550 C   0  0  0  0  0  0  0  0  0  0  0  0
  186.6290  176.6490  145.0250 C   0  0  0  0  0  1  0  0  0  0  0  0
  188.2730  177.6160  143.4120 C   0  0  1  0  0  3  0  0  0  0  0  0
  191.3660  178.7010  145.0120 C   0  0  0  0  0  2  0  0  0  0  0  0
  190.5300  175.8340  142.6730 C   0  0  0  0  0  1  0  0  0  0  0  0
  184.5100  179.2580  140.9920 N   0  0  0  0  0  0  0  0  0  0  0  0
  185.6640  178.6650  140.9310 C   0  0  0  0  0  0  0  0  0  0  0  0
  190.6100  177.1490  141.9040 C   0  0  2  0  0  3  0  0  0  0  0  0
  189.9490  176.8960  137.0980 O   0  0  0  0  0  0  0  0  0  0  0  0
  189.0290  177.3250  134.9480 C   0  0  0  0  0  1  0  0  0  0  0  0
  189.1340  177.7800  136.3890 C   0  0  0  0  0  2  0  0  0  0  0  0
  1 19  2  0  0  0  0
  1  4  1  0  0  0  0
  2 16  1  1  0  0  0
  2 13  1  0  0  0  0
  2 19  1  0  0  0  0
  3 10  1  0  0  0  0
  4 20  2  0  0  0  0
  5  1  1  0  0  0  0
  6  8  2  0  0  0  0
  7 15  1  1  0  0  0
  7  9  1  0  0  0  0
  8 12  1  0  0  0  0
  9 14  1  1  0  0  0
 10 21  1  6  0  0  0
 11 28  1  6  0  0  0
 11  5  1  0  0  0  0
 11  8  1  0  0  0  0
 12  4  1  0  0  0  0
 12 27  1  0  0  0  0
 13 18  2  0  0  0  0
 14 23  1  0  0  0  0
 15 23  1  0  0  0  0
 17  3  1  0  0  0  0
 18 25  1  0  0  0  0
 19 26  1  0  0  0  0
 20 17  1  0  0  0  0
 22 20  1  6  0  0  0
 22  9  1  0  0  0  0
 22 10  1  0  0  0  0
 26 25  2  0  0  0  0
 26 17  1  0  0  0  0
 27 24  1  1  0  0  0
 27  7  1  0  0  0  0
 29 30  1  0  0  0  0
 30 28  1  0  0  0  0
M  END
>  <MODEL>
4

>  <REMARK>
 VINA RESULT:      -7.0      2.265      6.946
  Name = 
  2 active torsions:
  status: ('A' for Active; 'I' for Inactive)
    1  A    between atoms: C_11  and  O_28
    2  A    between atoms: O_28  and  C_30
                            x       y       z     vdW  Elec       q    Type
                         _______ _______ _______ _____ _____    ______ ____

>  <TORSDO>
F 2

$$$$
=
 OpenBabel11122410293D

 30 35  0  0  1  0  0  0  0  0999 V2000
  185.2350  178.6530  142.2620 C   0  0  0  0  0  0  0  0  0  0  0  0
  187.6110  178.5590  141.4930 C   0  0  0  0  0  0  0  0  0  0  0  0
  183.5130  177.7520  138.4970 C   0  0  0  0  0  2  0  0  0  0  0  0
  183.7620  178.5660  142.0280 C   0  0  0  0  0  0  0  0  0  0  0  0
  185.6890  178.8950  143.5610 O   0  0  0  0  0  0  0  0  0  0  0  0
  182.7030  179.3440  145.4190 O   0  0  0  0  0  0  0  0  0  0  0  0
  181.0810  179.9630  141.7940 C   0  0  1  0  0  3  0  0  0  0  0  0
  183.4370  178.9950  144.4540 C   0  0  0  0  0  0  0  0  0  0  0  0
  181.1530  179.3640  140.4440 N   0  0  2  0  0  0  0  0  0  0  0  0
  182.0340  177.6510  138.8920 C   0  0  1  0  0  3  0  0  0  0  0  0
  184.8780  178.6470  144.7080 C   0  0  2  0  0  3  0  0  0  0  0  0
  182.8750  178.8430  143.1360 N   0  0  0  0  0  0  0  0  0  0  0  0
  188.3970  178.6400  140.2100 C   0  0  0  0  0  3  0  0  0  0  0  0
  179.7670  179.1200  140.0630 C   0  0  0  0  0  2  0  0  0  0  0  0
  179.6880  180.5400  141.9810 C   0  0  0  0  0  2  0  0  0  0  0  0
  188.0560  177.3230  142.2560 C   0  0  0  0  0  1  0  0  0  0  0  0
  184.2120  178.0740  139.7200 N   0  0  0  0  0  0  0  0  0  0  0  0
  187.8350  178.4540  139.0110 C   0  0  0  0  0  3  0  0  0  0  0  0
  186.1210  178.5140  141.2530 C   0  0  0  0  0  0  0  0  0  0  0  0
  183.3150  178.2790  140.7900 C   0  0  0  0  0  0  0  0  0  0  0  0
  181.5750  176.2130  138.7580 C   0  0  0  0  0  1  0  0  0  0  0  0
  181.9000  178.0990  140.3630 C   0  0  1  0  0  3  0  0  0  0  0  0
  178.9310  180.1870  140.7260 C   0  0  0  0  0  2  0  0  0  0  0  0
  180.6620  177.7250  143.0360 C   0  0  0  0  0  1  0  0  0  0  0  0
  186.4260  178.2170  138.8730 N   0  0  0  0  0  0  0  0  0  0  0  0
  185.6180  178.2450  139.8900 C   0  0  2  0  0  3  0  0  0  0  0  0
  181.4310  179.0410  142.9800 C   0  0  2  0  0  3  0  0  0  0  0  0
  185.3780  179.3690  145.7940 O   0  0  0  0  0  0  0  0  0  0  0  0
  187.1620  177.8500  146.1920 C   0  0  0  0  0  1  0  0  0  0  0  0
  185.8390  178.3990  146.6850 C   0  0  0  0  0  2  0  0  0  0  0  0
  1  5  1  0  0  0  0
  2 16  1  0  0  0  0
  3 10  1  0  0  0  0
  3 17  1  0  0  0  0
  4  1  1  0  0  0  0
  4 12  1  0  0  0  0
  5 11  1  0  0  0  0
  7 15  1  1  0  0  0
  7 27  1  0  0  0  0
  8 11  1  0  0  0  0
  8  6  2  0  0  0  0
  9 14  1  1  0  0  0
  9  7  1  0  0  0  0
 10 21  1  1  0  0  0
 10 22  1  0  0  0  0
 11 28  1  1  0  0  0
 12  8  1  0  0  0  0
 13  2  2  0  0  0  0
 14 23  1  0  0  0  0
 17 26  1  0  0  0  0
 17 20  1  0  0  0  0
 18 13  1  0  0  0  0
 19  2  1  0  0  0  0
 19  1  2  0  0  0  0
 20  4  2  0  0  0  0
 22  9  1  0  0  0  0
 22 20  1  6  0  0  0
 23 15  1  0  0  0  0
 25 18  2  0  0  0  0
 26 25  1  6  0  0  0
 26 19  1  0  0  0  0
 27 24  1  6  0  0  0
 27 12  1  0  0  0  0
 28 30  1  0  0  0  0
 29 30  1  0  0  0  0
M  END
>  <MODEL>
5

>  <REMARK>
 VINA RESULT:      -6.4      3.250      6.483
  Name = 
  2 active torsions:
  status: ('A' for Active; 'I' for Inactive)
    1  A    between atoms: C_11  and  O_28
    2  A    between atoms: O_28  and  C_30
                            x       y       z     vdW  Elec       q    Type
                         _______ _______ _______ _____ _____    ______ ____

>  <TORSDO>
F 2

$$$$
=
 OpenBabel11122410293D

 30 35  0  0  1  0  0  0  0  0999 V2000
  186.8180  178.0370  138.3540 C   0  0  0  0  0  0  0  0  0  0  0  0
  188.8840  177.5460  137.0360 C   0  0  0  0  0  0  0  0  0  0  0  0
  184.0800  176.8400  135.3490 C   0  0  0  0  0  2  0  0  0  0  0  0
  185.3340  178.1000  138.5160 C   0  0  0  0  0  0  0  0  0  0  0  0
  187.6230  178.3990  139.4370 O   0  0  0  0  0  0  0  0  0  0  0  0
  185.2930  179.4640  141.8880 O   0  0  0  0  0  0  0  0  0  0  0  0
  182.8120  179.7680  138.7390 C   0  0  1  0  0  3  0  0  0  0  0  0
  185.7080  178.8970  140.8400 C   0  0  0  0  0  0  0  0  0  0  0  0
  182.4700  178.9840  137.5330 N   0  0  2  0  0  0  0  0  0  0  0  0
  182.7590  176.9770  136.1150 C   0  0  1  0  0  3  0  0  0  0  0  0
  187.1320  178.4140  140.7760 C   0  0  2  0  0  3  0  0  0  0  0  0
  184.8030  178.6340  139.7510 N   0  0  0  0  0  0  0  0  0  0  0  0
  189.3010  177.3520  135.6000 C   0  0  0  0  0  3  0  0  0  0  0  0
  181.0180  178.8610  137.5600 C   0  0  0  0  0  2  0  0  0  0  0  0
  181.5730  180.5320  139.1730 C   0  0  0  0  0  2  0  0  0  0  0  0
  189.4150  176.3830  137.8560 C   0  0  0  0  0  1  0  0  0  0  0  0
  185.1060  177.2410  136.2850 N   0  0  0  0  0  0  0  0  0  0  0  0
  188.4240  177.0710  134.6310 C   0  0  0  0  0  3  0  0  0  0  0  0
  187.3860  177.6520  137.1910 C   0  0  0  0  0  0  0  0  0  0  0  0
  184.5490  177.7000  137.4970 C   0  0  0  0  0  0  0  0  0  0  0  0
  182.1640  175.6010  136.3430 C   0  0  0  0  0  1  0  0  0  0  0  0
  183.0620  177.6380  137.4780 C   0  0  1  0  0  3  0  0  0  0  0  0
  180.4810  180.1040  138.2270 C   0  0  0  0  0  2  0  0  0  0  0  0
  182.5610  177.7920  140.4000 C   0  0  0  0  0  1  0  0  0  0  0  0
  187.0150  176.9920  134.8940 N   0  0  0  0  0  0  0  0  0  0  0  0
  186.5150  177.2600  136.0630 C   0  0  2  0  0  3  0  0  0  0  0  0
  183.3910  178.9840  139.9340 C   0  0  2  0  0  3  0  0  0  0  0  0
  187.9620  179.2120  141.5650 O   0  0  0  0  0  0  0  0  0  0  0  0
  188.2490  177.1860  142.7750 C   0  0  0  0  0  1  0  0  0  0  0  0
  188.9280  178.3380  142.0640 C   0  0  0  0  0  2  0  0  0  0  0  0
  1  4  1  0  0  0  0
  1  5  1  0  0  0  0
  2 19  1  0  0  0  0
  2 16  1  0  0  0  0
  3 10  1  0  0  0  0
  3 17  1  0  0  0  0
  4 12  1  0  0  0  0
  5 11  1  0  0  0  0
  7 15  1  1  0  0  0
  7 27  1  0  0  0  0
  8  6  2  0  0  0  0
  9 14  1  1  0  0  0
  9  7  1  0  0  0  0
 10 21  1  1  0  0  0
 10 22  1  0  0  0  0
 11  8  1  0  0  0  0
 11 28  1  1  0  0  0
 12 27  1  0  0  0  0
 12  8  1  0  0  0  0
 13  2  2  0  0  0  0
 14 23  1  0  0  0  0
 17 20  1  0  0  0  0
 18 25  2  0  0  0  0
 18 13  1  0  0  0  0
 19  1  2  0  0  0  0
 20  4  2  0  0  0  0
 22 20  1  6  0  0  0
 22  9  1  0  0  0  0
 23 15  1  0  0  0  0
 26 25  1  6  0  0  0
 26 17  1  0  0  0  0
 26 19  1  0  0  0  0
 27 24  1  6  0  0  0
 28 30  1  0  0  0  0
 30 29  1  0  0  0  0
M  END
>  <MODEL>
6

>  <REMARK>
 VINA RESULT:      -6.4      2.758      5.896
  Name = 
  2 active torsions:
  status: ('A' for Active; 'I' for Inactive)
    1  A    between atoms: C_11  and  O_28
    2  A    between atoms: O_28  and  C_30
                            x       y       z     vdW  Elec       q    Type
                         _______ _______ _______ _____ _____    ______ ____

>  <TORSDO>
F 2

$$$$
=
 OpenBabel11122410293D

 30 35  0  0  1  0  0  0  0  0999 V2000
  185.2740  178.5200  141.5860 C   0  0  0  0  0  0  0  0  0  0  0  0
  184.3430  178.7950  143.8890 C   0  0  0  0  0  0  0  0  0  0  0  0
  181.5530  178.7620  139.5720 C   0  0  0  0  0  2  0  0  0  0  0  0
  185.1290  178.4080  140.1030 C   0  0  0  0  0  0  0  0  0  0  0  0
  186.5590  178.4890  142.1330 O   0  0  0  0  0  0  0  0  0  0  0  0
  188.6490  177.9240  139.3260 O   0  0  0  0  0  0  0  0  0  0  0  0
  185.2310  176.6950  137.6030 C   0  0  1  0  0  3  0  0  0  0  0  0
  187.6040  178.2380  139.9590 C   0  0  0  0  0  0  0  0  0  0  0  0
  183.8210  177.1330  137.5320 N   0  0  2  0  0  0  0  0  0  0  0  0
  182.0310  178.7380  138.1150 C   0  0  1  0  0  3  0  0  0  0  0  0
  187.7210  178.7770  141.3590 C   0  0  2  0  0  3  0  0  0  0  0  0
  186.3170  178.1660  139.3150 N   0  0  0  0  0  0  0  0  0  0  0  0
  183.0280  178.6520  144.6110 C   0  0  0  0  0  3  0  0  0  0  0  0
  183.5070  177.1690  136.1080 C   0  0  0  0  0  2  0  0  0  0  0  0
  185.5730  175.9890  136.3030 C   0  0  0  0  0  2  0  0  0  0  0  0
  184.9320  180.1550  144.2190 C   0  0  0  0  0  1  0  0  0  0  0  0
  182.7560  178.6700  140.3680 N   0  0  0  0  0  0  0  0  0  0  0  0
  181.8560  178.6280  143.9680 C   0  0  0  0  0  3  0  0  0  0  0  0
  184.1990  178.6380  142.3940 C   0  0  0  0  0  0  0  0  0  0  0  0
  183.8990  178.4930  139.5600 C   0  0  0  0  0  0  0  0  0  0  0  0
  181.7680  180.0890  137.4770 C   0  0  0  0  0  1  0  0  0  0  0  0
  183.5490  178.4570  138.1130 C   0  0  1  0  0  3  0  0  0  0  0  0
  184.3390  176.1000  135.4440 C   0  0  0  0  0  2  0  0  0  0  0  0
  186.2390  179.0030  136.9800 C   0  0  0  0  0  1  0  0  0  0  0  0
  181.7860  178.6830  142.5360 N   0  0  0  0  0  0  0  0  0  0  0  0
  182.8500  178.6830  141.7910 C   0  0  2  0  0  3  0  0  0  0  0  0
  186.2800  177.7860  137.9000 C   0  0  2  0  0  3  0  0  0  0  0  0
  188.8470  178.2520  141.9990 O   0  0  0  0  0  0  0  0  0  0  0  0
  189.3030  176.0770  142.8430 C   0  0  0  0  0  1  0  0  0  0  0  0
  188.3470  177.2530  142.8350 C   0  0  0  0  0  2  0  0  0  0  0  0
  1  5  1  0  0  0  0
  1 19  2  0  0  0  0
  2 16  1  0  0  0  0
  2 13  2  0  0  0  0
  3 17  1  0  0  0  0
  4  1  1  0  0  0  0
  6  8  2  0  0  0  0
  7 15  1  6  0  0  0
  7 27  1  0  0  0  0
  8 11  1  0  0  0  0
  9 14  1  6  0  0  0
  9  7  1  0  0  0  0
  9 22  1  0  0  0  0
 10 21  1  1  0  0  0
 10  3  1  0  0  0  0
 11 28  1  1  0  0  0
 11  5  1  0  0  0  0
 12  8  1  0  0  0  0
 12  4  1  0  0  0  0
 17 26  1  0  0  0  0
 18 13  1  0  0  0  0
 19  2  1  0  0  0  0
 20  4  2  0  0  0  0
 20 17  1  0  0  0  0
 22 10  1  0  0  0  0
 22 20  1  1  0  0  0
 23 14  1  0  0  0  0
 23 15  1  0  0  0  0
 25 18  2  0  0  0  0
 26 19  1  1  0  0  0
 26 25  1  0  0  0  0
 27 24  1  6  0  0  0
 27 12  1  0  0  0  0
 28 30  1  0  0  0  0
 30 29  1  0  0  0  0
M  END
>  <MODEL>
7

>  <REMARK>
 VINA RESULT:      -6.3      2.692      5.846
  Name = 
  2 active torsions:
  status: ('A' for Active; 'I' for Inactive)
    1  A    between atoms: C_11  and  O_28
    2  A    between atoms: O_28  and  C_30
                            x       y       z     vdW  Elec       q    Type
                         _______ _______ _______ _____ _____    ______ ____

>  <TORSDO>
F 2

$$$$
=
 OpenBabel11122410293D

 30 35  0  0  1  0  0  0  0  0999 V2000
  187.7990  177.9400  139.5870 C   0  0  0  0  0  0  0  0  0  0  0  0
  189.1440  177.2780  137.5870 C   0  0  2  0  0  3  0  0  0  0  0  0
  190.9980  177.7390  142.3590 C   0  0  0  0  0  2  0  0  0  0  0  0
  187.6470  178.2250  141.0460 C   0  0  0  0  0  0  0  0  0  0  0  0
  186.6870  178.0990  138.7580 O   0  0  0  0  0  0  0  0  0  0  0  0
  184.0830  178.9520  141.0080 O   0  0  0  0  0  0  0  0  0  0  0  0
  186.5700  177.3980  143.7570 C   0  0  1  0  0  3  0  0  0  0  0  0
  185.2650  178.7770  140.6020 C   0  0  0  0  0  0  0  0  0  0  0  0
  188.0130  177.4410  144.0790 N   0  0  2  0  0  0  0  0  0  0  0  0
  190.2990  178.2660  143.6190 C   0  0  1  0  0  3  0  0  0  0  0  0
  185.5680  178.9000  139.1330 C   0  0  2  0  0  3  0  0  0  0  0  0
  186.3290  178.5490  141.5460 N   0  0  0  0  0  0  0  0  0  0  0  0
  190.4430  176.5840  137.2660 C   0  0  0  0  0  3  0  0  0  0  0  0
  188.0760  177.7990  145.4910 C   0  0  0  0  0  2  0  0  0  0  0  0
  185.8020  177.2150  145.0540 C   0  0  0  0  0  2  0  0  0  0  0  0
  189.0960  178.5920  136.8270 C   0  0  0  0  0  1  0  0  0  0  0  0
  189.9840  177.7500  141.3290 N   0  0  0  0  0  0  0  0  0  0  0  0
  191.4170  176.4310  138.1700 C   0  0  0  0  0  3  0  0  0  0  0  0
  188.9740  177.5260  139.0670 C   0  0  0  0  0  0  0  0  0  0  0  0
  188.7270  178.1270  141.8460 C   0  0  0  0  0  0  0  0  0  0  0  0
  190.8760  179.6190  143.9860 C   0  0  0  0  0  1  0  0  0  0  0  0
  188.7950  178.4170  143.3040 C   0  0  1  0  0  3  0  0  0  0  0  0
  186.8410  177.2330  146.1470 C   0  0  0  0  0  2  0  0  0  0  0  0
  186.2790  179.9690  143.5800 C   0  0  0  0  0  1  0  0  0  0  0  0
  191.2580  176.8750  139.5250 N   0  0  0  0  0  0  0  0  0  0  0  0
  190.1420  177.3770  139.9610 C   0  0  0  0  0  0  0  0  0  0  0  0
  186.0010  178.5980  142.9740 C   0  0  2  0  0  3  0  0  0  0  0  0
  184.4590  178.5370  138.3670 O   0  0  0  0  0  0  0  0  0  0  0  0
  183.8730  176.4090  137.4830 C   0  0  0  0  0  1  0  0  0  0  0  0
  184.9160  177.5060  137.5450 C   0  0  0  0  0  2  0  0  0  0  0  0
  1  4  1  0  0  0  0
  2 16  1  6  0  0  0
  2 19  1  0  0  0  0
  3 10  1  0  0  0  0
  4 12  1  0  0  0  0
  4 20  2  0  0  0  0
  5 11  1  0  0  0  0
  5  1  1  0  0  0  0
  7  9  1  0  0  0  0
  7 15  1  1  0  0  0
  8  6  2  0  0  0  0
  8 12  1  0  0  0  0
  9 14  1  1  0  0  0
 10 21  1  6  0  0  0
 11 28  1  6  0  0  0
 11  8  1  0  0  0  0
 12 27  1  0  0  0  0
 13  2  1  0  0  0  0
 13 18  2  0  0  0  0
 14 23  1  0  0  0  0
 15 23  1  0  0  0  0
 17 20  1  0  0  0  0
 17  3  1  0  0  0  0
 18 25  1  0  0  0  0
 19  1  2  0  0  0  0
 19 26  1  0  0  0  0
 22 20  1  6  0  0  0
 22 10  1  0  0  0  0
 22  9  1  0  0  0  0
 25 26  2  0  0  0  0
 26 17  1  0  0  0  0
 27 24  1  1  0  0  0
 27  7  1  0  0  0  0
 29 30  1  0  0  0  0
 30 28  1  0  0  0  0
M  END
>  <MODEL>
8

>  <REMARK>
 VINA RESULT:      -6.3      1.692      5.755
  Name = 
  2 active torsions:
  status: ('A' for Active; 'I' for Inactive)
    1  A    between atoms: C_11  and  O_28
    2  A    between atoms: O_28  and  C_30
                            x       y       z     vdW  Elec       q    Type
                         _______ _______ _______ _____ _____    ______ ____

>  <TORSDO>
F 2

$$$$
=
 OpenBabel11122410293D

 30 35  0  0  1  0  0  0  0  0999 V2000
  186.1330  175.2620  136.8990 C   0  0  0  0  0  0  0  0  0  0  0  0
  184.9760  173.2800  135.9100 C   0  0  2  0  0  3  0  0  0  0  0  0
  190.0610  173.7150  136.5280 C   0  0  0  0  0  2  0  0  0  0  0  0
  187.3550  175.9960  137.3460 C   0  0  0  0  0  0  0  0  0  0  0  0
  184.8950  175.8990  137.0140 O   0  0  0  0  0  0  0  0  0  0  0  0
  185.6800  178.9700  138.6020 O   0  0  0  0  0  0  0  0  0  0  0  0
  189.0660  177.0560  139.6140 C   0  0  1  0  0  3  0  0  0  0  0  0
  185.8820  177.8980  137.9680 C   0  0  0  0  0  0  0  0  0  0  0  0
  190.0530  176.1600  138.9730 N   0  0  2  0  0  0  0  0  0  0  0  0
  190.8760  174.9290  136.9920 C   0  0  1  0  0  3  0  0  0  0  0  0
  184.7770  177.3150  137.1290 C   0  0  2  0  0  3  0  0  0  0  0  0
  187.1870  177.2880  137.9750 N   0  0  0  0  0  0  0  0  0  0  0  0
  185.2430  171.8210  135.6430 C   0  0  0  0  0  3  0  0  0  0  0  0
  191.3490  176.7740  139.2360 C   0  0  0  0  0  2  0  0  0  0  0  0
  189.7880  177.8780  140.6680 C   0  0  0  0  0  2  0  0  0  0  0  0
  184.4650  173.9210  134.6310 C   0  0  0  0  0  1  0  0  0  0  0  0
  188.6790  174.1260  136.6250 N   0  0  0  0  0  0  0  0  0  0  0  0
  186.4780  171.3090  135.6230 C   0  0  0  0  0  3  0  0  0  0  0  0
  186.2040  174.0090  136.4030 C   0  0  0  0  0  0  0  0  0  0  0  0
  188.5600  175.4130  137.1890 C   0  0  0  0  0  0  0  0  0  0  0  0
  191.6480  175.4950  135.8160 C   0  0  0  0  0  1  0  0  0  0  0  0
  189.8900  175.9930  137.5200 C   0  0  1  0  0  3  0  0  0  0  0  0
  191.2410  177.4860  140.5620 C   0  0  0  0  0  2  0  0  0  0  0  0
  189.1020  178.8480  137.7400 C   0  0  0  0  0  1  0  0  0  0  0  0
  187.6290  172.1180  135.9120 N   0  0  0  0  0  0  0  0  0  0  0  0
  187.5260  173.3600  136.2770 C   0  0  0  0  0  0  0  0  0  0  0  0
  188.2660  177.9850  138.6800 C   0  0  2  0  0  3  0  0  0  0  0  0
  183.5280  177.6350  137.6640 O   0  0  0  0  0  0  0  0  0  0  0  0
  182.6950  176.8500  139.7480 C   0  0  0  0  0  1  0  0  0  0  0  0
  183.1260  176.4840  138.3420 C   0  0  0  0  0  2  0  0  0  0  0  0
  1  5  1  0  0  0  0
  1  4  1  0  0  0  0
  2 16  1  6  0  0  0
  2 19  1  0  0  0  0
  3 17  1  0  0  0  0
  3 10  1  0  0  0  0
  4 12  1  0  0  0  0
  5 11  1  0  0  0  0
  7 15  1  1  0  0  0
  8 12  1  0  0  0  0
  8  6  2  0  0  0  0
  9 14  1  6  0  0  0
  9  7  1  0  0  0  0
 10 21  1  6  0  0  0
 10 22  1  0  0  0  0
 11 28  1  1  0  0  0
 11  8  1  0  0  0  0
 12 27  1  0  0  0  0
 13  2  1  0  0  0  0
 14 23  1  0  0  0  0
 17 20  1  0  0  0  0
 18 13  2  0  0  0  0
 18 25  1  0  0  0  0
 19  1  2  0  0  0  0
 20  4  2  0  0  0  0
 22 20  1  1  0  0  0
 22  9  1  0  0  0  0
 23 15  1  0  0  0  0
 25 26  2  0  0  0  0
 26 19  1  0  0  0  0
 26 17  1  0  0  0  0
 27 24  1  6  0  0  0
 27  7  1  0  0  0  0
 28 30  1  0  0  0  0
 30 29  1  0  0  0  0
M  END
>  <MODEL>
9

>  <REMARK>
 VINA RESULT:      -6.3      2.708      5.925
  Name = 
  2 active torsions:
  status: ('A' for Active; 'I' for Inactive)
    1  A    between atoms: C_11  and  O_28
    2  A    between atoms: O_28  and  C_30
                            x       y       z     vdW  Elec       q    Type
                         _______ _______ _______ _____ _____    ______ ____

>  <TORSDO>
F 2

$$$$
