=
 OpenBabel11122411303D

 37 43  0  0  1  0  0  0  0  0999 V2000
  179.7710  178.8950  143.2830 C   0  0  0  0  0  0  0  0  0  0  0  0
  181.9860  177.5890  139.9990 C   0  0  0  0  0  0  0  0  0  0  0  0
  183.6510  179.5890  138.2760 C   0  0  0  0  0  1  0  0  0  0  0  0
  179.8010  177.7740  140.9790 C   0  0  0  0  0  0  0  0  0  0  0  0
  183.2870  178.1250  140.2110 N   0  0  0  0  0  0  0  0  0  0  0  0
  181.1770  177.9180  141.0290 C   0  0  0  0  0  0  0  0  0  0  0  0
  184.2060  178.4470  139.1200 C   0  0  1  0  0  3  0  0  0  0  0  0
  179.2460  177.1880  139.8260 C   0  0  0  0  0  3  0  0  0  0  0  0
  181.8670  178.6580  142.0030 N   0  0  0  0  0  0  0  0  0  0  0  0
  179.9960  177.7130  144.2090 C   0  0  0  0  0  1  0  0  0  0  0  0
  182.3840  176.7280  137.6800 C   0  0  0  0  0  2  0  0  0  0  0  0
  180.0880  176.7930  138.7590 C   0  0  0  0  0  3  0  0  0  0  0  0
  181.1310  179.5300  142.9120 C   0  0  0  0  0  2  0  0  0  0  0  0
  181.4800  177.0080  138.8360 C   0  0  0  0  0  0  0  0  0  0  0  0
  183.2250  178.8780  141.4830 C   0  0  1  0  0  3  0  0  0  0  0  0
  178.9620  178.4310  142.0450 C   0  0  0  0  0  2  0  0  0  0  0  0
  184.5680  177.1910  138.2860 C   0  0  1  0  0  3  0  0  0  0  0  0
  178.9510  179.9270  144.0280 C   0  0  0  0  0  1  0  0  0  0  0  0
  183.5890  176.1730  138.1470 O   0  0  0  0  0  0  0  0  0  0  0  0
  185.6260  179.0910  142.3710 C   0  0  0  0  0  2  0  0  0  0  0  0
  186.7940  178.2260  142.7960 C   0  0  0  0  0  0  0  0  0  0  0  0
  186.1590  178.2390  145.1420 C   0  0  0  0  0  0  0  0  0  0  0  0
  187.0290  177.9340  144.0460 N   0  0  0  0  0  0  0  0  0  0  0  0
  184.7810  178.4620  144.8920 N   0  0  0  0  0  0  0  0  0  0  0  0
  183.6810  179.4420  144.6460 C   0  0  0  0  0  2  0  0  0  0  0  0
  183.6730  178.2720  143.9160 C   0  0  1  0  0  3  0  0  0  0  0  0
  186.6040  178.2700  146.3170 O   0  0  0  0  0  0  0  0  0  0  0  0
  184.2620  178.3760  142.4940 C   0  0  1  0  0  3  0  0  0  0  0  0
  187.6260  178.1460  140.4070 C   0  0  0  0  0  1  0  0  0  0  0  0
  187.7430  177.8040  141.8150 N   0  0  0  0  0  2  0  0  0  0  0  0
  184.8720  177.1490  135.7770 C   0  0  0  0  0  3  0  0  0  0  0  0
  185.3860  177.4270  137.0510 C   0  0  0  0  0  0  0  0  0  0  0  0
  186.6730  177.9630  137.1760 C   0  0  0  0  0  3  0  0  0  0  0  0
  188.6920  178.7240  136.1630 F   0  0  0  0  0  0  0  0  0  0  0  0
  186.9310  177.9250  134.7680 C   0  0  0  0  0  3  0  0  0  0  0  0
  187.4450  178.2090  136.0370 C   0  0  0  0  0  0  0  0  0  0  0  0
  185.6450  177.3950  134.6380 C   0  0  0  0  0  3  0  0  0  0  0  0
  1 18  1  0  0  0  0
  1 10  1  0  0  0  0
  2  5  1  0  0  0  0
  2  6  1  0  0  0  0
  4  6  2  0  0  0  0
  4 16  1  0  0  0  0
  6  9  1  0  0  0  0
  7  3  1  6  0  0  0
  7  5  1  0  0  0  0
  8  4  1  0  0  0  0
  9 13  1  0  0  0  0
 11 19  1  0  0  0  0
 11 14  1  0  0  0  0
 12 14  1  0  0  0  0
 12  8  2  0  0  0  0
 13  1  1  0  0  0  0
 14  2  2  0  0  0  0
 15  5  1  6  0  0  0
 15  9  1  0  0  0  0
 15 28  1  0  0  0  0
 16  1  1  0  0  0  0
 17 32  1  6  0  0  0
 17  7  1  0  0  0  0
 19 17  1  0  0  0  0
 20 21  1  0  0  0  0
 21 23  2  0  0  0  0
 22 27  2  0  0  0  0
 23 22  1  0  0  0  0
 24 22  1  0  0  0  0
 25 24  1  0  0  0  0
 26 25  1  1  0  0  0
 26 24  1  0  0  0  0
 28 20  1  1  0  0  0
 28 26  1  0  0  0  0
 29 30  1  0  0  0  0
 30 21  1  0  0  0  0
 31 32  1  0  0  0  0
 32 33  2  0  0  0  0
 35 36  2  0  0  0  0
 36 34  1  0  0  0  0
 36 33  1  0  0  0  0
 37 35  1  0  0  0  0
 37 31  2  0  0  0  0
M  END
>  <MODEL>
1

>  <REMARK>
 VINA RESULT:      -8.1      0.000      0.000
  Name = 
  2 active torsions:
  status: ('A' for Active; 'I' for Inactive)
    1  A    between atoms: C_21  and  C_27
    2  A    between atoms: C_23  and  C_30
                            x       y       z     vdW  Elec       q    Type
                         _______ _______ _______ _____ _____    ______ ____

>  <TORSDO>
F 2

$$$$
=
 OpenBabel11122411303D

 37 43  0  0  1  0  0  0  0  0999 V2000
  182.8330  179.0600  138.9880 C   0  0  0  0  0  0  0  0  0  0  0  0
  186.3960  177.2120  137.8510 C   0  0  0  0  0  0  0  0  0  0  0  0
  189.0470  178.8380  137.5950 C   0  0  0  0  0  1  0  0  0  0  0  0
  184.1400  177.7430  137.2210 C   0  0  0  0  0  0  0  0  0  0  0  0
  187.3340  177.6060  138.8460 N   0  0  0  0  0  0  0  0  0  0  0  0
  185.1790  177.7250  138.1350 C   0  0  0  0  0  0  0  0  0  0  0  0
  188.7690  177.7180  138.5910 C   0  0  1  0  0  3  0  0  0  0  0  0
  184.3550  177.1280  135.9730 C   0  0  0  0  0  3  0  0  0  0  0  0
  185.2020  178.4610  139.3310 N   0  0  0  0  0  0  0  0  0  0  0  0
  182.2460  177.9470  139.8370 C   0  0  0  0  0  1  0  0  0  0  0  0
  188.0310  176.1070  136.3080 C   0  0  0  0  0  2  0  0  0  0  0  0
  185.6110  176.5410  135.6820 C   0  0  0  0  0  3  0  0  0  0  0  0
  184.1980  179.4920  139.5710 C   0  0  0  0  0  2  0  0  0  0  0  0
  186.6560  176.5950  136.6280 C   0  0  0  0  0  0  0  0  0  0  0  0
  186.5980  178.4710  139.7940 C   0  0  1  0  0  3  0  0  0  0  0  0
  182.9270  178.5870  137.5140 C   0  0  0  0  0  2  0  0  0  0  0  0
  189.3840  176.3590  138.1680 C   0  0  1  0  0  3  0  0  0  0  0  0
  181.8920  180.2440  139.0500 C   0  0  0  0  0  1  0  0  0  0  0  0
  188.5740  175.4560  137.4310 O   0  0  0  0  0  0  0  0  0  0  0  0
  187.9750  178.3530  141.9590 C   0  0  0  0  0  2  0  0  0  0  0  0
  188.4130  177.3560  143.0110 C   0  0  0  0  0  0  0  0  0  0  0  0
  186.5450  177.8510  144.4860 C   0  0  0  0  0  0  0  0  0  0  0  0
  187.7850  177.2200  144.1470 N   0  0  0  0  0  0  0  0  0  0  0  0
  185.6860  178.2930  143.4480 N   0  0  0  0  0  0  0  0  0  0  0  0
  185.2240  179.4160  142.5780 C   0  0  0  0  0  2  0  0  0  0  0  0
  185.3610  178.1710  142.0000 C   0  0  1  0  0  3  0  0  0  0  0  0
  186.2030  177.9760  145.6890 O   0  0  0  0  0  0  0  0  0  0  0  0
  186.6780  177.9410  141.2300 C   0  0  1  0  0  3  0  0  0  0  0  0
  190.4400  176.7530  141.6220 C   0  0  0  0  0  1  0  0  0  0  0  0
  189.6180  176.6140  142.8130 N   0  0  0  0  0  2  0  0  0  0  0  0
  191.8390  176.7530  138.6260 C   0  0  0  0  0  3  0  0  0  0  0  0
  190.8200  176.3850  137.7360 C   0  0  0  0  0  0  0  0  0  0  0  0
  191.1470  176.0040  136.4290 C   0  0  0  0  0  3  0  0  0  0  0  0
  192.7930  175.6370  134.7440 F   0  0  0  0  0  0  0  0  0  0  0  0
  193.4940  176.3770  136.8990 C   0  0  0  0  0  3  0  0  0  0  0  0
  192.4810  176.0030  136.0110 C   0  0  0  0  0  0  0  0  0  0  0  0
  193.1730  176.7520  138.2070 C   0  0  0  0  0  3  0  0  0  0  0  0
  1 18  1  0  0  0  0
  1 13  1  0  0  0  0
  1 10  1  0  0  0  0
  2  6  1  0  0  0  0
  2  5  1  0  0  0  0
  4 16  1  0  0  0  0
  4  6  2  0  0  0  0
  6  9  1  0  0  0  0
  7  3  1  6  0  0  0
  7  5  1  0  0  0  0
  8  4  1  0  0  0  0
  9 13  1  0  0  0  0
  9 15  1  0  0  0  0
 11 14  1  0  0  0  0
 11 19  1  0  0  0  0
 12  8  2  0  0  0  0
 12 14  1  0  0  0  0
 14  2  2  0  0  0  0
 15  5  1  6  0  0  0
 15 28  1  0  0  0  0
 16  1  1  0  0  0  0
 17 32  1  6  0  0  0
 17  7  1  0  0  0  0
 19 17  1  0  0  0  0
 20 21  1  0  0  0  0
 21 23  2  0  0  0  0
 22 27  2  0  0  0  0
 23 22  1  0  0  0  0
 24 22  1  0  0  0  0
 25 24  1  0  0  0  0
 26 25  1  6  0  0  0
 26 24  1  0  0  0  0
 28 20  1  1  0  0  0
 28 26  1  0  0  0  0
 29 30  1  0  0  0  0
 30 21  1  0  0  0  0
 32 31  2  0  0  0  0
 33 32  1  0  0  0  0
 34 36  1  0  0  0  0
 35 37  2  0  0  0  0
 36 33  2  0  0  0  0
 36 35  1  0  0  0  0
 37 31  1  0  0  0  0
M  END
>  <MODEL>
2

>  <REMARK>
 VINA RESULT:      -7.9      2.892      4.843
  Name = 
  2 active torsions:
  status: ('A' for Active; 'I' for Inactive)
    1  A    between atoms: C_21  and  C_27
    2  A    between atoms: C_23  and  C_30
                            x       y       z     vdW  Elec       q    Type
                         _______ _______ _______ _____ _____    ______ ____

>  <TORSDO>
F 2

$$$$
=
 OpenBabel11122411303D

 37 43  0  0  1  0  0  0  0  0999 V2000
  187.6060  178.4630  137.2290 C   0  0  0  0  0  0  0  0  0  0  0  0
  188.9920  177.1120  140.9240 C   0  0  0  0  0  0  0  0  0  0  0  0
  189.8170  179.1160  143.1700 C   0  0  0  0  0  1  0  0  0  0  0  0
  189.3620  177.1460  138.5510 C   0  0  0  0  0  0  0  0  0  0  0  0
  188.1950  177.8040  141.8780 N   0  0  0  0  0  0  0  0  0  0  0  0
  188.6070  177.4430  139.6730 C   0  0  0  0  0  0  0  0  0  0  0  0
  188.6610  178.1230  143.2260 C   0  0  1  0  0  3  0  0  0  0  0  0
  190.5410  176.4000  138.7340 C   0  0  0  0  0  3  0  0  0  0  0  0
  187.5270  178.3400  139.6930 N   0  0  0  0  0  0  0  0  0  0  0  0
  186.5510  177.4030  136.9670 C   0  0  0  0  0  1  0  0  0  0  0  0
  190.6000  176.0910  142.5510 C   0  0  0  0  0  2  0  0  0  0  0  0
  190.9310  176.0030  140.0370 C   0  0  0  0  0  3  0  0  0  0  0  0
  187.2780  179.2060  138.5450 C   0  0  0  0  0  2  0  0  0  0  0  0
  190.1540  176.3750  141.1540 C   0  0  0  0  0  0  0  0  0  0  0  0
  187.2690  178.6590  141.1050 C   0  0  1  0  0  3  0  0  0  0  0  0
  189.0080  177.8020  137.2410 C   0  0  0  0  0  2  0  0  0  0  0  0
  188.9940  176.8440  144.0360 C   0  0  1  0  0  3  0  0  0  0  0  0
  187.5600  179.4630  136.0930 C   0  0  0  0  0  1  0  0  0  0  0  0
  189.4930  175.7160  143.3330 O   0  0  0  0  0  0  0  0  0  0  0  0
  185.2390  179.3000  142.5430 C   0  0  0  0  0  2  0  0  0  0  0  0
  184.1450  178.6590  143.3690 C   0  0  0  0  0  0  0  0  0  0  0  0
  182.5540  178.6280  141.5310 C   0  0  0  0  0  0  0  0  0  0  0  0
  182.9470  178.4450  142.8960 N   0  0  0  0  0  0  0  0  0  0  0  0
  183.5440  178.6060  140.5170 N   0  0  0  0  0  0  0  0  0  0  0  0
  184.4680  179.3780  139.6310 C   0  0  0  0  0  2  0  0  0  0  0  0
  184.9390  178.2040  140.1820 C   0  0  1  0  0  3  0  0  0  0  0  0
  181.3410  178.7660  141.2320 O   0  0  0  0  0  0  0  0  0  0  0  0
  185.8030  178.3680  141.4490 C   0  0  1  0  0  3  0  0  0  0  0  0
  185.6540  178.6570  145.4000 C   0  0  0  0  0  1  0  0  0  0  0  0
  184.3850  178.3780  144.7490 N   0  0  0  0  0  2  0  0  0  0  0  0
  190.9650  176.7230  145.6150 C   0  0  0  0  0  3  0  0  0  0  0  0
  189.6230  177.0540  145.3820 C   0  0  0  0  0  0  0  0  0  0  0  0
  188.8600  177.6180  146.4120 C   0  0  0  0  0  3  0  0  0  0  0  0
  188.6890  178.3830  148.6630 F   0  0  0  0  0  0  0  0  0  0  0  0
  190.7690  177.5030  147.8980 C   0  0  0  0  0  3  0  0  0  0  0  0
  189.4320  177.8400  147.6680 C   0  0  0  0  0  0  0  0  0  0  0  0
  191.5360  176.9450  146.8720 C   0  0  0  0  0  3  0  0  0  0  0  0
  1 16  1  0  0  0  0
  1 13  1  0  0  0  0
  2 14  1  0  0  0  0
  2  5  1  0  0  0  0
  4  8  2  0  0  0  0
  4  6  1  0  0  0  0
  5  7  1  0  0  0  0
  6  9  1  0  0  0  0
  6  2  2  0  0  0  0
  7  3  1  6  0  0  0
  7 17  1  0  0  0  0
  8 12  1  0  0  0  0
 10  1  1  0  0  0  0
 11 19  1  0  0  0  0
 12 14  2  0  0  0  0
 13  9  1  0  0  0  0
 14 11  1  0  0  0  0
 15  9  1  6  0  0  0
 15 28  1  0  0  0  0
 15  5  1  0  0  0  0
 16  4  1  0  0  0  0
 17 32  1  1  0  0  0
 18  1  1  0  0  0  0
 19 17  1  0  0  0  0
 20 21  1  0  0  0  0
 21 30  1  0  0  0  0
 22 23  1  0  0  0  0
 23 21  2  0  0  0  0
 24 22  1  0  0  0  0
 25 24  1  0  0  0  0
 26 25  1  6  0  0  0
 26 24  1  0  0  0  0
 26 28  1  0  0  0  0
 27 22  2  0  0  0  0
 28 20  1  1  0  0  0
 30 29  1  0  0  0  0
 31 37  1  0  0  0  0
 32 31  2  0  0  0  0
 32 33  1  0  0  0  0
 33 36  2  0  0  0  0
 36 35  1  0  0  0  0
 36 34  1  0  0  0  0
 37 35  2  0  0  0  0
M  END
>  <MODEL>
3

>  <REMARK>
 VINA RESULT:      -7.6      3.480      8.438
  Name = 
  2 active torsions:
  status: ('A' for Active; 'I' for Inactive)
    1  A    between atoms: C_21  and  C_27
    2  A    between atoms: C_23  and  C_30
                            x       y       z     vdW  Elec       q    Type
                         _______ _______ _______ _____ _____    ______ ____

>  <TORSDO>
F 2

$$$$
=
 OpenBabel11122411303D

 37 43  0  0  1  0  0  0  0  0999 V2000
  190.7500  177.6710  144.3160 C   0  0  0  0  0  0  0  0  0  0  0  0
  186.7760  177.9320  143.0740 C   0  0  0  0  0  0  0  0  0  0  0  0
  185.7380  180.4160  141.4960 C   0  0  0  0  0  1  0  0  0  0  0  0
  188.2680  177.7500  144.9480 C   0  0  0  0  0  0  0  0  0  0  0  0
  186.8560  178.2400  141.6870 N   0  0  0  0  0  0  0  0  0  0  0  0
  188.0160  177.7840  143.5870 C   0  0  0  0  0  0  0  0  0  0  0  0
  185.8210  178.9860  140.9740 C   0  0  1  0  0  3  0  0  0  0  0  0
  187.1630  177.7960  145.8180 C   0  0  0  0  0  3  0  0  0  0  0  0
  189.0000  177.9500  142.5980 N   0  0  0  0  0  0  0  0  0  0  0  0
  190.9710  176.1850  144.1020 C   0  0  0  0  0  1  0  0  0  0  0  0
  184.3000  178.2280  143.3110 C   0  0  0  0  0  2  0  0  0  0  0  0
  185.8520  177.9010  145.2920 C   0  0  0  0  0  3  0  0  0  0  0  0
  190.3550  178.3360  142.9770 C   0  0  0  0  0  2  0  0  0  0  0  0
  185.6520  177.9840  143.8980 C   0  0  0  0  0  0  0  0  0  0  0  0
  188.2970  178.3180  141.3600 C   0  0  1  0  0  3  0  0  0  0  0  0
  189.6900  177.8780  145.4290 C   0  0  0  0  0  2  0  0  0  0  0  0
  184.4590  178.2450  141.0030 C   0  0  1  0  0  3  0  0  0  0  0  0
  192.0550  178.2780  144.7840 C   0  0  0  0  0  1  0  0  0  0  0  0
  184.1470  177.4590  142.1430 O   0  0  0  0  0  0  0  0  0  0  0  0
  188.4260  177.9310  138.8250 C   0  0  0  0  0  2  0  0  0  0  0  0
  188.1180  176.8700  137.7890 C   0  0  0  0  0  0  0  0  0  0  0  0
  190.3700  175.9570  137.8200 C   0  0  0  0  0  0  0  0  0  0  0  0
  189.0320  176.0630  137.3220 N   0  0  0  0  0  0  0  0  0  0  0  0
  190.6530  176.3820  139.1430 N   0  0  0  0  0  0  0  0  0  0  0  0
  191.1410  177.4660  140.0480 C   0  0  0  0  0  2  0  0  0  0  0  0
  190.0640  176.7150  140.4700 C   0  0  1  0  0  3  0  0  0  0  0  0
  191.2760  175.4550  137.1070 O   0  0  0  0  0  0  0  0  0  0  0  0
  188.6790  177.3520  140.2330 C   0  0  1  0  0  3  0  0  0  0  0  0
  185.7440  177.7250  137.5940 C   0  0  0  0  0  1  0  0  0  0  0  0
  186.8130  176.8170  137.2110 N   0  0  0  0  0  2  0  0  0  0  0  0
  183.4130  179.7540  139.2650 C   0  0  0  0  0  3  0  0  0  0  0  0
  183.2870  178.9870  140.4310 C   0  0  0  0  0  0  0  0  0  0  0  0
  182.0400  178.8830  141.0600 C   0  0  0  0  0  3  0  0  0  0  0  0
  179.7270  179.4500  141.1480 F   0  0  0  0  0  0  0  0  0  0  0  0
  181.0610  180.3190  139.3730 C   0  0  0  0  0  3  0  0  0  0  0  0
  180.9310  179.5500  140.5340 C   0  0  0  0  0  0  0  0  0  0  0  0
  182.3020  180.4210  138.7390 C   0  0  0  0  0  3  0  0  0  0  0  0
  1 18  1  0  0  0  0
  1 16  1  0  0  0  0
  2  6  2  0  0  0  0
  2 14  1  0  0  0  0
  4 16  1  0  0  0  0
  4  8  2  0  0  0  0
  5  2  1  0  0  0  0
  6  4  1  0  0  0  0
  7 17  1  0  0  0  0
  7  3  1  1  0  0  0
  7  5  1  0  0  0  0
  9 13  1  0  0  0  0
  9  6  1  0  0  0  0
 10  1  1  0  0  0  0
 11 14  1  0  0  0  0
 12  8  1  0  0  0  0
 13  1  1  0  0  0  0
 14 12  2  0  0  0  0
 15  5  1  1  0  0  0
 15  9  1  0  0  0  0
 17 32  1  1  0  0  0
 17 19  1  0  0  0  0
 19 11  1  0  0  0  0
 21 20  1  0  0  0  0
 22 24  1  0  0  0  0
 23 21  2  0  0  0  0
 23 22  1  0  0  0  0
 24 25  1  0  0  0  0
 24 26  1  0  0  0  0
 26 25  1  6  0  0  0
 27 22  2  0  0  0  0
 28 20  1  6  0  0  0
 28 26  1  0  0  0  0
 28 15  1  0  0  0  0
 30 29  1  0  0  0  0
 30 21  1  0  0  0  0
 31 32  1  0  0  0  0
 32 33  2  0  0  0  0
 35 36  2  0  0  0  0
 36 33  1  0  0  0  0
 36 34  1  0  0  0  0
 37 31  2  0  0  0  0
 37 35  1  0  0  0  0
M  END
>  <MODEL>
4

>  <REMARK>
 VINA RESULT:      -7.2      3.434      7.559
  Name = 
  2 active torsions:
  status: ('A' for Active; 'I' for Inactive)
    1  A    between atoms: C_21  and  C_27
    2  A    between atoms: C_23  and  C_30
                            x       y       z     vdW  Elec       q    Type
                         _______ _______ _______ _____ _____    ______ ____

>  <TORSDO>
F 2

$$$$
=
 OpenBabel11122411303D

 37 43  0  0  1  0  0  0  0  0999 V2000
  188.1550  178.0610  142.6290 C   0  0  0  0  0  0  0  0  0  0  0  0
  184.3380  178.4060  140.9830 C   0  0  0  0  0  0  0  0  0  0  0  0
  183.5970  180.7880  139.1080 C   0  0  0  0  0  1  0  0  0  0  0  0
  185.6330  178.3180  143.0040 C   0  0  0  0  0  0  0  0  0  0  0  0
  184.5660  178.5860  139.5900 N   0  0  0  0  0  0  0  0  0  0  0  0
  185.5140  178.2430  141.6270 C   0  0  0  0  0  0  0  0  0  0  0  0
  183.6460  179.3150  138.7190 C   0  0  1  0  0  3  0  0  0  0  0  0
  184.4560  178.4960  143.7540 C   0  0  0  0  0  3  0  0  0  0  0  0
  186.5940  178.2720  140.7300 N   0  0  0  0  0  0  0  0  0  0  0  0
  188.3090  176.5520  142.5630 C   0  0  0  0  0  1  0  0  0  0  0  0
  181.8720  178.8440  140.9490 C   0  0  0  0  0  2  0  0  0  0  0  0
  183.2090  178.6170  143.0940 C   0  0  0  0  0  3  0  0  0  0  0  0
  187.9270  178.6230  141.2070 C   0  0  0  0  0  2  0  0  0  0  0  0
  183.1460  178.5870  141.6850 C   0  0  0  0  0  0  0  0  0  0  0  0
  186.0330  178.5630  139.4020 C   0  0  1  0  0  3  0  0  0  0  0  0
  187.0090  178.4180  143.6110 C   0  0  0  0  0  2  0  0  0  0  0  0
  182.2470  178.6480  138.6750 C   0  0  1  0  0  3  0  0  0  0  0  0
  189.4440  178.6420  143.1710 C   0  0  0  0  0  1  0  0  0  0  0  0
  181.7850  177.9830  139.8400 O   0  0  0  0  0  0  0  0  0  0  0  0
  185.3810  177.1670  137.3470 C   0  0  0  0  0  2  0  0  0  0  0  0
  185.4420  175.7420  136.8370 C   0  0  0  0  0  0  0  0  0  0  0  0
  187.5440  176.0830  135.6640 C   0  0  0  0  0  0  0  0  0  0  0  0
  186.3850  175.3280  136.0350 N   0  0  0  0  0  0  0  0  0  0  0  0
  187.9780  177.1410  136.5020 N   0  0  0  0  0  0  0  0  0  0  0  0
  187.9720  178.6050  136.7990 C   0  0  0  0  0  2  0  0  0  0  0  0
  187.8870  177.7340  137.8650 C   0  0  1  0  0  3  0  0  0  0  0  0
  188.1930  175.7850  134.6290 O   0  0  0  0  0  0  0  0  0  0  0  0
  186.4630  177.4830  138.4030 C   0  0  1  0  0  3  0  0  0  0  0  0
  183.2330  175.2260  137.9580 C   0  0  0  0  0  1  0  0  0  0  0  0
  184.3760  174.8430  137.1450 N   0  0  0  0  0  2  0  0  0  0  0  0
  179.9790  179.7570  138.5560 C   0  0  0  0  0  3  0  0  0  0  0  0
  181.1790  179.3930  137.9300 C   0  0  0  0  0  0  0  0  0  0  0  0
  181.4020  179.7540  136.5960 C   0  0  0  0  0  3  0  0  0  0  0  0
  180.6460  180.8090  134.5970 F   0  0  0  0  0  0  0  0  0  0  0  0
  179.2290  180.8210  136.5140 C   0  0  0  0  0  3  0  0  0  0  0  0
  180.4280  180.4640  135.8890 C   0  0  0  0  0  0  0  0  0  0  0  0
  179.0050  180.4680  137.8480 C   0  0  0  0  0  3  0  0  0  0  0  0
  1 18  1  0  0  0  0
  1 16  1  0  0  0  0
  2  6  2  0  0  0  0
  2 14  1  0  0  0  0
  4 16  1  0  0  0  0
  4  8  2  0  0  0  0
  5  2  1  0  0  0  0
  6  4  1  0  0  0  0
  7  3  1  1  0  0  0
  7  5  1  0  0  0  0
  9 13  1  0  0  0  0
  9  6  1  0  0  0  0
 10  1  1  0  0  0  0
 11 14  1  0  0  0  0
 12  8  1  0  0  0  0
 13  1  1  0  0  0  0
 14 12  2  0  0  0  0
 15  5  1  1  0  0  0
 15  9  1  0  0  0  0
 17 32  1  1  0  0  0
 17  7  1  0  0  0  0
 17 19  1  0  0  0  0
 19 11  1  0  0  0  0
 21 30  1  0  0  0  0
 21 20  1  0  0  0  0
 22 23  1  0  0  0  0
 22 24  1  0  0  0  0
 23 21  2  0  0  0  0
 24 25  1  0  0  0  0
 24 26  1  0  0  0  0
 26 25  1  6  0  0  0
 26 28  1  0  0  0  0
 27 22  2  0  0  0  0
 28 20  1  6  0  0  0
 28 15  1  0  0  0  0
 30 29  1  0  0  0  0
 32 31  1  0  0  0  0
 33 32  2  0  0  0  0
 34 36  1  0  0  0  0
 35 37  1  0  0  0  0
 36 35  2  0  0  0  0
 36 33  1  0  0  0  0
 37 31  2  0  0  0  0
M  END
>  <MODEL>
5

>  <REMARK>
 VINA RESULT:      -7.0      2.980      6.692
  Name = 
  2 active torsions:
  status: ('A' for Active; 'I' for Inactive)
    1  A    between atoms: C_21  and  C_27
    2  A    between atoms: C_23  and  C_30
                            x       y       z     vdW  Elec       q    Type
                         _______ _______ _______ _____ _____    ______ ____

>  <TORSDO>
F 2

$$$$
=
 OpenBabel11122411303D

 37 43  0  0  1  0  0  0  0  0999 V2000
  185.0470  178.9430  144.7240 C   0  0  0  0  0  0  0  0  0  0  0  0
  182.7630  178.5670  141.2530 C   0  0  0  0  0  0  0  0  0  0  0  0
  182.7040  180.8310  139.1060 C   0  0  0  0  0  1  0  0  0  0  0  0
  182.7360  178.6530  143.6540 C   0  0  0  0  0  0  0  0  0  0  0  0
  183.6700  178.8570  140.1970 N   0  0  0  0  0  0  0  0  0  0  0  0
  183.4030  178.6210  142.4410 C   0  0  0  0  0  0  0  0  0  0  0  0
  183.2500  179.4210  138.9150 C   0  0  1  0  0  3  0  0  0  0  0  0
  181.3330  178.5470  143.6320 C   0  0  0  0  0  3  0  0  0  0  0  0
  184.7660  178.9170  142.2720 N   0  0  0  0  0  0  0  0  0  0  0  0
  185.5090  177.5040  144.8630 C   0  0  0  0  0  1  0  0  0  0  0  0
  180.6840  178.4850  139.8580 C   0  0  0  0  0  2  0  0  0  0  0  0
  180.6520  178.4390  142.3940 C   0  0  0  0  0  3  0  0  0  0  0  0
  185.5230  179.5130  143.3680 C   0  0  0  0  0  2  0  0  0  0  0  0
  181.3730  178.4640  141.1830 C   0  0  0  0  0  0  0  0  0  0  0  0
  184.9730  179.1480  140.8350 C   0  0  1  0  0  3  0  0  0  0  0  0
  183.5070  179.0070  144.8990 C   0  0  0  0  0  2  0  0  0  0  0  0
  182.2670  178.4810  138.1710 C   0  0  1  0  0  3  0  0  0  0  0  0
  185.6860  179.7520  145.8320 C   0  0  0  0  0  1  0  0  0  0  0  0
  181.3880  177.6800  138.9460 O   0  0  0  0  0  0  0  0  0  0  0  0
  186.5310  178.5770  138.8740 C   0  0  0  0  0  2  0  0  0  0  0  0
  187.0450  177.3800  138.1020 C   0  0  0  0  0  0  0  0  0  0  0  0
  189.0430  177.1550  139.4680 C   0  0  0  0  0  0  0  0  0  0  0  0
  188.2000  176.8270  138.3580 N   0  0  0  0  0  0  0  0  0  0  0  0
  188.4740  177.7650  140.6140 N   0  0  0  0  0  0  0  0  0  0  0  0
  188.1730  179.0240  141.3610 C   0  0  0  0  0  2  0  0  0  0  0  0
  187.2070  178.0390  141.3490 C   0  0  1  0  0  3  0  0  0  0  0  0
  190.2670  176.8670  139.4440 O   0  0  0  0  0  0  0  0  0  0  0  0
  186.0820  178.2290  140.3100 C   0  0  1  0  0  3  0  0  0  0  0  0
  185.0480  177.4990  136.5530 C   0  0  0  0  0  1  0  0  0  0  0  0
  186.3030  176.9020  136.9790 N   0  0  0  0  0  2  0  0  0  0  0  0
  181.5820  178.2470  135.7480 C   0  0  0  0  0  3  0  0  0  0  0  0
  181.6530  179.0230  136.9140 C   0  0  0  0  0  0  0  0  0  0  0  0
  181.1150  180.3150  136.9180 C   0  0  0  0  0  3  0  0  0  0  0  0
  180.0050  182.0860  135.7720 F   0  0  0  0  0  0  0  0  0  0  0  0
  180.4580  180.0580  134.6010 C   0  0  0  0  0  3  0  0  0  0  0  0
  180.5210  180.8330  135.7640 C   0  0  0  0  0  0  0  0  0  0  0  0
  180.9880  178.7650  134.5940 C   0  0  0  0  0  3  0  0  0  0  0  0
  1 10  1  0  0  0  0
  1 16  1  0  0  0  0
  1 18  1  0  0  0  0
  2  6  1  0  0  0  0
  4 16  1  0  0  0  0
  5  2  1  0  0  0  0
  6  4  2  0  0  0  0
  7  3  1  1  0  0  0
  7  5  1  0  0  0  0
  8  4  1  0  0  0  0
  9  6  1  0  0  0  0
  9 13  1  0  0  0  0
 11 14  1  0  0  0  0
 12  8  2  0  0  0  0
 13  1  1  0  0  0  0
 14  2  2  0  0  0  0
 14 12  1  0  0  0  0
 15  5  1  6  0  0  0
 15  9  1  0  0  0  0
 17 32  1  6  0  0  0
 17  7  1  0  0  0  0
 17 19  1  0  0  0  0
 19 11  1  0  0  0  0
 21 23  2  0  0  0  0
 21 20  1  0  0  0  0
 22 24  1  0  0  0  0
 23 22  1  0  0  0  0
 24 26  1  0  0  0  0
 24 25  1  0  0  0  0
 26 25  1  6  0  0  0
 27 22  2  0  0  0  0
 28 20  1  6  0  0  0
 28 15  1  0  0  0  0
 28 26  1  0  0  0  0
 29 30  1  0  0  0  0
 30 21  1  0  0  0  0
 31 32  1  0  0  0  0
 32 33  2  0  0  0  0
 35 36  2  0  0  0  0
 36 34  1  0  0  0  0
 36 33  1  0  0  0  0
 37 35  1  0  0  0  0
 37 31  2  0  0  0  0
M  END
>  <MODEL>
6

>  <REMARK>
 VINA RESULT:      -6.7      2.863      4.833
  Name = 
  2 active torsions:
  status: ('A' for Active; 'I' for Inactive)
    1  A    between atoms: C_21  and  C_27
    2  A    between atoms: C_23  and  C_30
                            x       y       z     vdW  Elec       q    Type
                         _______ _______ _______ _____ _____    ______ ____

>  <TORSDO>
F 2

$$$$
=
 OpenBabel11122411303D

 37 43  0  0  1  0  0  0  0  0999 V2000
  183.3190  176.2030  135.7020 C   0  0  0  0  0  0  0  0  0  0  0  0
  187.2010  174.8020  136.3100 C   0  0  0  0  0  0  0  0  0  0  0  0
  189.6810  176.5110  135.4920 C   0  0  0  0  0  1  0  0  0  0  0  0
  185.0980  174.4250  135.2110 C   0  0  0  0  0  0  0  0  0  0  0  0
  187.8570  175.8600  136.9990 N   0  0  0  0  0  0  0  0  0  0  0  0
  185.9090  175.1270  136.0870 C   0  0  0  0  0  0  0  0  0  0  0  0
  189.2960  176.0990  136.9090 C   0  0  1  0  0  3  0  0  0  0  0  0
  185.6380  173.2820  134.5940 C   0  0  0  0  0  3  0  0  0  0  0  0
  185.6010  176.3880  136.6230 N   0  0  0  0  0  0  0  0  0  0  0  0
  182.6660  175.6540  136.9580 C   0  0  0  0  0  1  0  0  0  0  0  0
  189.2300  173.3860  135.9180 C   0  0  0  0  0  2  0  0  0  0  0  0
  186.9760  172.9010  134.8580 C   0  0  0  0  0  3  0  0  0  0  0  0
  184.4770  177.1500  136.0900 C   0  0  0  0  0  2  0  0  0  0  0  0
  187.7790  173.6790  135.7180 C   0  0  0  0  0  0  0  0  0  0  0  0
  186.8540  176.9340  137.1650 C   0  0  1  0  0  3  0  0  0  0  0  0
  183.7770  175.0250  134.8040 C   0  0  0  0  0  2  0  0  0  0  0  0
  190.1120  174.8910  137.4370 C   0  0  1  0  0  3  0  0  0  0  0  0
  182.2810  177.0030  134.9450 C   0  0  0  0  0  1  0  0  0  0  0  0
  189.5710  173.5910  137.2670 O   0  0  0  0  0  0  0  0  0  0  0  0
  187.7750  178.2490  139.1700 C   0  0  0  0  0  2  0  0  0  0  0  0
  188.0320  178.0870  140.6540 C   0  0  0  0  0  0  0  0  0  0  0  0
  185.8900  179.0440  141.2920 C   0  0  0  0  0  0  0  0  0  0  0  0
  187.1960  178.5200  141.5580 N   0  0  0  0  0  0  0  0  0  0  0  0
  185.2400  178.6990  140.0800 N   0  0  0  0  0  0  0  0  0  0  0  0
  184.9180  179.0620  138.6670 C   0  0  0  0  0  2  0  0  0  0  0  0
  185.2140  177.7430  138.9380 C   0  0  1  0  0  3  0  0  0  0  0  0
  185.3110  179.7690  142.1390 O   0  0  0  0  0  0  0  0  0  0  0  0
  186.6660  177.3160  138.6380 C   0  0  1  0  0  3  0  0  0  0  0  0
  190.3170  177.1130  140.1710 C   0  0  0  0  0  1  0  0  0  0  0  0
  189.2790  177.5460  141.0920 N   0  0  0  0  0  2  0  0  0  0  0  0
  192.3020  176.1540  137.4910 C   0  0  0  0  0  3  0  0  0  0  0  0
  191.6000  174.9640  137.2550 C   0  0  0  0  0  0  0  0  0  0  0  0
  192.2980  173.8130  136.8710 C   0  0  0  0  0  3  0  0  0  0  0  0
  194.3580  172.7370  136.3400 F   0  0  0  0  0  0  0  0  0  0  0  0
  194.3830  175.0430  136.9450 C   0  0  0  0  0  3  0  0  0  0  0  0
  193.6860  173.8530  136.7150 C   0  0  0  0  0  0  0  0  0  0  0  0
  193.6910  176.1940  137.3340 C   0  0  0  0  0  3  0  0  0  0  0  0
  1 13  1  0  0  0  0
  1 10  1  0  0  0  0
  2  5  1  0  0  0  0
  4  6  2  0  0  0  0
  5 15  1  0  0  0  0
  6  2  1  0  0  0  0
  6  9  1  0  0  0  0
  7  3  1  6  0  0  0
  7  5  1  0  0  0  0
  7 17  1  0  0  0  0
  8 12  2  0  0  0  0
  8  4  1  0  0  0  0
 11 19  1  0  0  0  0
 12 14  1  0  0  0  0
 13  9  1  0  0  0  0
 14 11  1  0  0  0  0
 14  2  2  0  0  0  0
 15  9  1  1  0  0  0
 15 28  1  0  0  0  0
 16  4  1  0  0  0  0
 16  1  1  0  0  0  0
 17 32  1  6  0  0  0
 18  1  1  0  0  0  0
 19 17  1  0  0  0  0
 20 21  1  0  0  0  0
 21 30  1  0  0  0  0
 21 23  2  0  0  0  0
 22 23  1  0  0  0  0
 22 27  2  0  0  0  0
 24 22  1  0  0  0  0
 25 24  1  0  0  0  0
 26 25  1  6  0  0  0
 26 24  1  0  0  0  0
 28 26  1  0  0  0  0
 28 20  1  6  0  0  0
 29 30  1  0  0  0  0
 32 31  2  0  0  0  0
 33 32  1  0  0  0  0
 34 36  1  0  0  0  0
 35 37  2  0  0  0  0
 36 33  2  0  0  0  0
 36 35  1  0  0  0  0
 37 31  1  0  0  0  0
M  END
>  <MODEL>
7

>  <REMARK>
 VINA RESULT:      -6.4      4.146      6.878
  Name = 
  2 active torsions:
  status: ('A' for Active; 'I' for Inactive)
    1  A    between atoms: C_21  and  C_27
    2  A    between atoms: C_23  and  C_30
                            x       y       z     vdW  Elec       q    Type
                         _______ _______ _______ _____ _____    ______ ____

>  <TORSDO>
F 2

$$$$
=
 OpenBabel11122411303D

 37 43  0  0  1  0  0  0  0  0999 V2000
  182.2360  179.3640  138.6770 C   0  0  0  0  0  0  0  0  0  0  0  0
  185.7800  177.2810  137.9690 C   0  0  0  0  0  0  0  0  0  0  0  0
  188.4150  178.7810  137.2280 C   0  0  0  0  0  1  0  0  0  0  0  0
  183.5050  177.6300  137.2810 C   0  0  0  0  0  0  0  0  0  0  0  0
  186.7410  177.9190  138.8020 N   0  0  0  0  0  0  0  0  0  0  0  0
  184.5680  177.8510  138.1410 C   0  0  0  0  0  0  0  0  0  0  0  0
  188.1680  177.9600  138.4890 C   0  0  1  0  0  3  0  0  0  0  0  0
  183.6920  176.7110  136.2330 C   0  0  0  0  0  3  0  0  0  0  0  0
  184.6170  178.8740  139.1020 N   0  0  0  0  0  0  0  0  0  0  0  0
  181.6780  178.5120  139.8020 C   0  0  0  0  0  1  0  0  0  0  0  0
  187.3820  175.8100  136.7260 C   0  0  0  0  0  2  0  0  0  0  0  0
  184.9440  176.0670  136.0710 C   0  0  0  0  0  3  0  0  0  0  0  0
  183.6140  179.9320  139.0910 C   0  0  0  0  0  2  0  0  0  0  0  0
  186.0120  176.3650  136.9430 C   0  0  0  0  0  0  0  0  0  0  0  0
  186.0240  179.0030  139.5100 C   0  0  1  0  0  3  0  0  0  0  0  0
  182.2950  178.5230  137.3760 C   0  0  0  0  0  2  0  0  0  0  0  0
  188.7800  176.5370  138.4190 C   0  0  1  0  0  3  0  0  0  0  0  0
  181.2900  180.5240  138.4520 C   0  0  0  0  0  1  0  0  0  0  0  0
  187.9570  175.4740  137.9650 O   0  0  0  0  0  0  0  0  0  0  0  0
  185.1010  177.9030  141.6390 C   0  0  0  0  0  2  0  0  0  0  0  0
  184.7230  178.2520  143.0640 C   0  0  0  0  0  0  0  0  0  0  0  0
  186.9000  177.6460  143.9590 C   0  0  0  0  0  0  0  0  0  0  0  0
  185.5320  178.0540  144.0690 N   0  0  0  0  0  0  0  0  0  0  0  0
  187.5980  177.8790  142.7470 N   0  0  0  0  0  0  0  0  0  0  0  0
  188.0560  177.3500  141.4270 C   0  0  0  0  0  2  0  0  0  0  0  0
  187.6070  178.6530  141.4750 C   0  0  1  0  0  3  0  0  0  0  0  0
  187.4880  177.1230  144.9400 O   0  0  0  0  0  0  0  0  0  0  0  0
  186.1440  178.8660  141.0320 C   0  0  1  0  0  3  0  0  0  0  0  0
  182.3910  178.8820  142.3100 C   0  0  0  0  0  1  0  0  0  0  0  0
  183.3990  178.7090  143.3430 N   0  0  0  0  0  2  0  0  0  0  0  0
  190.5200  176.0620  136.6470 C   0  0  0  0  0  3  0  0  0  0  0  0
  190.2050  176.4480  137.9580 C   0  0  0  0  0  0  0  0  0  0  0  0
  191.2330  176.7850  138.8470 C   0  0  0  0  0  3  0  0  0  0  0  0
  193.5580  177.0520  139.2960 F   0  0  0  0  0  0  0  0  0  0  0  0
  192.8770  176.3370  137.1260 C   0  0  0  0  0  3  0  0  0  0  0  0
  192.5660  176.7270  138.4320 C   0  0  0  0  0  0  0  0  0  0  0  0
  191.8540  176.0050  136.2340 C   0  0  0  0  0  3  0  0  0  0  0  0
  1 13  1  0  0  0  0
  1 10  1  0  0  0  0
  2  6  1  0  0  0  0
  2  5  1  0  0  0  0
  4 16  1  0  0  0  0
  4  6  2  0  0  0  0
  6  9  1  0  0  0  0
  7  3  1  6  0  0  0
  7  5  1  0  0  0  0
  8  4  1  0  0  0  0
  9 15  1  0  0  0  0
 11 14  1  0  0  0  0
 11 19  1  0  0  0  0
 12  8  2  0  0  0  0
 12 14  1  0  0  0  0
 13  9  1  0  0  0  0
 14  2  2  0  0  0  0
 15  5  1  6  0  0  0
 15 28  1  0  0  0  0
 16  1  1  0  0  0  0
 17 32  1  6  0  0  0
 17  7  1  0  0  0  0
 18  1  1  0  0  0  0
 19 17  1  0  0  0  0
 20 21  1  0  0  0  0
 21 30  1  0  0  0  0
 21 23  2  0  0  0  0
 22 23  1  0  0  0  0
 22 27  2  0  0  0  0
 24 22  1  0  0  0  0
 25 24  1  0  0  0  0
 26 25  1  6  0  0  0
 26 24  1  0  0  0  0
 28 26  1  0  0  0  0
 28 20  1  6  0  0  0
 29 30  1  0  0  0  0
 31 32  1  0  0  0  0
 32 33  2  0  0  0  0
 35 36  2  0  0  0  0
 36 33  1  0  0  0  0
 36 34  1  0  0  0  0
 37 31  2  0  0  0  0
 37 35  1  0  0  0  0
M  END
>  <MODEL>
8

>  <REMARK>
 VINA RESULT:      -6.4      2.708      4.726
  Name = 
  2 active torsions:
  status: ('A' for Active; 'I' for Inactive)
    1  A    between atoms: C_21  and  C_27
    2  A    between atoms: C_23  and  C_30
                            x       y       z     vdW  Elec       q    Type
                         _______ _______ _______ _____ _____    ______ ____

>  <TORSDO>
F 2

$$$$
=
 OpenBabel11122411303D

 37 43  0  0  1  0  0  0  0  0999 V2000
  184.2040  176.4870  136.7260 C   0  0  0  0  0  0  0  0  0  0  0  0
  188.0960  174.9920  136.8720 C   0  0  0  0  0  0  0  0  0  0  0  0
  190.4170  176.3770  135.3120 C   0  0  0  0  0  1  0  0  0  0  0  0
  185.8150  174.5490  136.2630 C   0  0  0  0  0  0  0  0  0  0  0  0
  188.8960  176.1160  137.2200 N   0  0  0  0  0  0  0  0  0  0  0  0
  186.7940  175.3470  136.8300 C   0  0  0  0  0  0  0  0  0  0  0  0
  190.2980  176.2510  136.8270 C   0  0  1  0  0  3  0  0  0  0  0  0
  186.2010  173.2830  135.7830 C   0  0  0  0  0  3  0  0  0  0  0  0
  186.6230  176.7000  137.1670 N   0  0  0  0  0  0  0  0  0  0  0  0
  183.7880  176.2120  138.1590 C   0  0  0  0  0  1  0  0  0  0  0  0
  189.9800  173.4120  136.3920 C   0  0  0  0  0  2  0  0  0  0  0  0
  187.5550  172.8780  135.8670 C   0  0  0  0  0  3  0  0  0  0  0  0
  185.4380  177.4190  136.7130 C   0  0  0  0  0  2  0  0  0  0  0  0
  188.5250  173.7490  136.4070 C   0  0  0  0  0  0  0  0  0  0  0  0
  187.9690  177.2600  137.3600 C   0  0  1  0  0  3  0  0  0  0  0  0
  184.4560  175.1420  135.9970 C   0  0  0  0  0  2  0  0  0  0  0  0
  191.1700  175.1110  137.4150 C   0  0  1  0  0  3  0  0  0  0  0  0
  183.0620  177.1980  136.0330 C   0  0  0  0  0  1  0  0  0  0  0  0
  190.5750  173.8350  137.5930 O   0  0  0  0  0  0  0  0  0  0  0  0
  186.8840  177.5670  139.6680 C   0  0  0  0  0  2  0  0  0  0  0  0
  186.5790  178.6510  140.6800 C   0  0  0  0  0  0  0  0  0  0  0  0
  188.6260  178.2770  141.9370 C   0  0  0  0  0  0  0  0  0  0  0  0
  187.3480  178.8810  141.7100 N   0  0  0  0  0  0  0  0  0  0  0  0
  189.3460  177.7450  140.8370 N   0  0  0  0  0  0  0  0  0  0  0  0
  189.7000  176.5500  140.0130 C   0  0  0  0  0  2  0  0  0  0  0  0
  189.4800  177.7420  139.3540 C   0  0  1  0  0  3  0  0  0  0  0  0
  189.1220  178.2530  143.0920 O   0  0  0  0  0  0  0  0  0  0  0  0
  188.0720  177.9110  138.7450 C   0  0  1  0  0  3  0  0  0  0  0  0
  184.3840  179.1420  139.5200 C   0  0  0  0  0  1  0  0  0  0  0  0
  185.3540  179.3780  140.5780 N   0  0  0  0  0  2  0  0  0  0  0  0
  193.3020  173.8520  136.9060 C   0  0  0  0  0  3  0  0  0  0  0  0
  192.5970  175.0620  136.9560 C   0  0  0  0  0  0  0  0  0  0  0  0
  193.2230  176.2450  136.5440 C   0  0  0  0  0  3  0  0  0  0  0  0
  195.1490  177.3670  135.6990 F   0  0  0  0  0  0  0  0  0  0  0  0
  195.2480  175.0110  136.0510 C   0  0  0  0  0  3  0  0  0  0  0  0
  194.5460  176.2190  136.0950 C   0  0  0  0  0  0  0  0  0  0  0  0
  194.6260  173.8270  136.4570 C   0  0  0  0  0  3  0  0  0  0  0  0
  1 10  1  0  0  0  0
  2  5  1  0  0  0  0
  4  6  2  0  0  0  0
  5 15  1  0  0  0  0
  6  2  1  0  0  0  0
  6  9  1  0  0  0  0
  7  3  1  6  0  0  0
  7  5  1  0  0  0  0
  7 17  1  0  0  0  0
  8 12  2  0  0  0  0
  8  4  1  0  0  0  0
 11 14  1  0  0  0  0
 11 19  1  0  0  0  0
 12 14  1  0  0  0  0
 13  1  1  0  0  0  0
 13  9  1  0  0  0  0
 14  2  2  0  0  0  0
 15  9  1  1  0  0  0
 15 28  1  0  0  0  0
 16  4  1  0  0  0  0
 16  1  1  0  0  0  0
 17 32  1  6  0  0  0
 17 19  1  0  0  0  0
 18  1  1  0  0  0  0
 20 21  1  0  0  0  0
 21 23  2  0  0  0  0
 22 27  2  0  0  0  0
 23 22  1  0  0  0  0
 24 22  1  0  0  0  0
 25 24  1  0  0  0  0
 26 25  1  6  0  0  0
 26 24  1  0  0  0  0
 28 26  1  0  0  0  0
 28 20  1  1  0  0  0
 29 30  1  0  0  0  0
 30 21  1  0  0  0  0
 31 32  1  0  0  0  0
 33 32  2  0  0  0  0
 34 36  1  0  0  0  0
 35 36  2  0  0  0  0
 35 37  1  0  0  0  0
 36 33  1  0  0  0  0
 37 31  2  0  0  0  0
M  END
>  <MODEL>
9

>  <REMARK>
 VINA RESULT:      -6.3      4.358      7.168
  Name = 
  2 active torsions:
  status: ('A' for Active; 'I' for Inactive)
    1  A    between atoms: C_21  and  C_27
    2  A    between atoms: C_23  and  C_30
                            x       y       z     vdW  Elec       q    Type
                         _______ _______ _______ _____ _____    ______ ____

>  <TORSDO>
F 2

$$$$
