=
 OpenBabel11122410213D

 30 35  0  0  1  0  0  0  0  0999 V2000
  187.7560  177.9200  140.7740 C   0  0  0  0  0  0  0  0  0  0  0  0
  189.5590  177.1830  142.3540 C   0  0  0  0  0  0  0  0  0  0  0  0
  184.9910  178.2610  143.9200 N   0  0  0  0  0  2  0  0  0  0  0  0
  186.4350  178.3960  140.5800 C   0  0  0  0  0  0  0  0  0  0  0  0
  188.5810  177.7450  139.6530 O   0  0  0  0  0  0  0  0  0  0  0  0
  186.8610  179.2100  137.0470 O   0  0  0  0  0  0  0  0  0  0  0  0
  183.9750  177.4260  139.4870 C   0  0  1  0  0  3  0  0  0  0  0  0
  186.9680  178.6360  138.1190 C   0  0  0  0  0  0  0  0  0  0  0  0
  183.4120  177.7240  140.8890 C   0  0  2  0  0  3  0  0  0  0  0  0
  183.8600  178.6660  143.1510 C   0  0  0  0  0  0  0  0  0  0  0  0
  188.0700  177.6460  138.3230 C   0  0  2  0  0  3  0  0  0  0  0  0
  185.9820  178.9110  139.2210 C   0  0  1  0  0  3  0  0  0  0  0  0
  189.9460  176.8760  143.6610 C   0  0  0  0  0  3  0  0  0  0  0  0
  181.9440  178.0210  140.6860 C   0  0  0  0  0  2  0  0  0  0  0  0
  182.7910  176.9160  138.6770 C   0  0  0  0  0  2  0  0  0  0  0  0
  190.6080  177.0510  141.3010 C   0  0  0  0  0  1  0  0  0  0  0  0
  186.0250  178.1610  142.9510 C   0  0  0  0  0  0  0  0  0  0  0  0
  189.0470  176.9870  144.7200 C   0  0  0  0  0  3  0  0  0  0  0  0
  188.2300  177.6160  142.0870 C   0  0  0  0  0  0  0  0  0  0  0  0
  185.5980  178.4970  141.6910 C   0  0  0  0  0  0  0  0  0  0  0  0
  182.7370  178.8910  143.6740 O   0  0  0  0  0  0  0  0  0  0  0  0
  184.1420  178.8110  141.6840 C   0  0  1  0  0  3  0  0  0  0  0  0
  181.5370  177.1590  139.5080 C   0  0  0  0  0  2  0  0  0  0  0  0
  183.7970  179.7800  138.8010 C   0  0  0  0  0  1  0  0  0  0  0  0
  187.7440  177.4140  144.4840 C   0  0  0  0  0  3  0  0  0  0  0  0
  187.3300  177.7340  143.1880 C   0  0  0  0  0  0  0  0  0  0  0  0
  184.6110  178.5680  138.7930 N   0  0  0  0  0  0  0  0  0  0  0  0
  187.5470  176.2390  138.0470 C   0  0  0  0  0  2  0  0  0  0  0  0
  189.7870  175.3090  137.4840 C   0  0  0  0  0  1  0  0  0  0  0  0
  188.3750  175.5410  136.9830 C   0  0  0  0  0  2  0  0  0  0  0  0
  1 19  1  0  0  0  0
  2 13  1  0  0  0  0
  4  1  2  0  0  0  0
  4 20  1  0  0  0  0
  5  1  1  0  0  0  0
  6  8  2  0  0  0  0
  7 15  1  6  0  0  0
  7  9  1  0  0  0  0
  8 11  1  0  0  0  0
  9 14  1  6  0  0  0
  9 22  1  0  0  0  0
 10 21  2  0  0  0  0
 10  3  1  0  0  0  0
 11 28  1  1  0  0  0
 11  5  1  0  0  0  0
 12  8  1  6  0  0  0
 12  4  1  0  0  0  0
 13 18  2  0  0  0  0
 15 23  1  0  0  0  0
 16  2  1  0  0  0  0
 17 26  1  0  0  0  0
 17  3  1  0  0  0  0
 19  2  2  0  0  0  0
 19 26  1  0  0  0  0
 20 17  2  0  0  0  0
 22 20  1  1  0  0  0
 22 10  1  0  0  0  0
 23 14  1  0  0  0  0
 25 18  1  0  0  0  0
 26 25  2  0  0  0  0
 27 24  1  0  0  0  0
 27 12  1  0  0  0  0
 27  7  1  0  0  0  0
 30 29  1  0  0  0  0
 30 28  1  0  0  0  0
M  END
>  <MODEL>
1

>  <REMARK>
 VINA RESULT:      -7.5      0.000      0.000
  Name = 
  2 active torsions:
  status: ('A' for Active; 'I' for Inactive)
    1  A    between atoms: C_11  and  C_28
    2  A    between atoms: C_28  and  C_30
                            x       y       z     vdW  Elec       q    Type
                         _______ _______ _______ _____ _____    ______ ____

>  <TORSDO>
F 2

$$$$
=
 OpenBabel11122410213D

 30 35  0  0  1  0  0  0  0  0999 V2000
  189.7610  177.3140  138.5610 C   0  0  0  0  0  0  0  0  0  0  0  0
  190.8000  177.4750  140.8380 C   0  0  0  0  0  0  0  0  0  0  0  0
  186.0600  178.6490  140.0380 N   0  0  0  0  0  2  0  0  0  0  0  0
  188.6400  177.5350  137.7230 C   0  0  0  0  0  0  0  0  0  0  0  0
  190.9270  176.7730  138.0000 O   0  0  0  0  0  0  0  0  0  0  0  0
  190.3920  176.8570  134.5940 O   0  0  0  0  0  0  0  0  0  0  0  0
  186.6970  175.9640  136.3280 C   0  0  1  0  0  3  0  0  0  0  0  0
  190.0580  176.7900  135.7660 C   0  0  0  0  0  0  0  0  0  0  0  0
  185.6780  176.7580  137.1670 C   0  0  2  0  0  3  0  0  0  0  0  0
  185.3230  178.5880  138.8200 C   0  0  0  0  0  0  0  0  0  0  0  0
  190.9370  176.0850  136.7480 C   0  0  2  0  0  3  0  0  0  0  0  0
  188.7560  177.3960  136.2110 C   0  0  1  0  0  3  0  0  0  0  0  0
  190.6560  177.7740  142.1960 C   0  0  0  0  0  3  0  0  0  0  0  0
  184.4120  176.7980  136.3430 C   0  0  0  0  0  2  0  0  0  0  0  0
  185.8640  175.0530  135.4380 C   0  0  0  0  0  2  0  0  0  0  0  0
  192.1520  177.0230  140.3970 C   0  0  0  0  0  1  0  0  0  0  0  0
  187.3690  178.2600  139.6480 C   0  0  0  0  0  0  0  0  0  0  0  0
  189.4390  178.2230  142.7060 C   0  0  0  0  0  3  0  0  0  0  0  0
  189.6950  177.6260  139.9540 C   0  0  0  0  0  0  0  0  0  0  0  0
  187.4610  178.0030  138.3030 C   0  0  0  0  0  0  0  0  0  0  0  0
  184.1050  178.8970  138.7540 O   0  0  0  0  0  0  0  0  0  0  0  0
  186.1350  178.1410  137.6390 C   0  0  1  0  0  3  0  0  0  0  0  0
  184.4120  175.4920  135.5750 C   0  0  0  0  0  2  0  0  0  0  0  0
  186.9440  177.7960  134.7070 C   0  0  0  0  0  1  0  0  0  0  0  0
  188.3470  178.3850  141.8590 C   0  0  0  0  0  3  0  0  0  0  0  0
  188.4630  178.1000  140.4960 C   0  0  0  0  0  0  0  0  0  0  0  0
  187.6200  176.7750  135.5020 N   0  0  0  0  0  0  0  0  0  0  0  0
  190.4590  174.6460  136.9180 C   0  0  0  0  0  2  0  0  0  0  0  0
  192.8650  174.0700  137.1980 C   0  0  0  0  0  1  0  0  0  0  0  0
  191.5530  173.6560  136.5620 C   0  0  0  0  0  2  0  0  0  0  0  0
  1 19  1  0  0  0  0
  2 13  1  0  0  0  0
  4 20  1  0  0  0  0
  4  1  2  0  0  0  0
  5  1  1  0  0  0  0
  6  8  2  0  0  0  0
  7 15  1  6  0  0  0
  7  9  1  0  0  0  0
  8 11  1  0  0  0  0
  9 14  1  6  0  0  0
  9 22  1  0  0  0  0
 10  3  1  0  0  0  0
 11 28  1  1  0  0  0
 11  5  1  0  0  0  0
 12  8  1  1  0  0  0
 12  4  1  0  0  0  0
 13 18  2  0  0  0  0
 15 23  1  0  0  0  0
 16  2  1  0  0  0  0
 17  3  1  0  0  0  0
 17 26  1  0  0  0  0
 19 26  1  0  0  0  0
 19  2  2  0  0  0  0
 20 17  2  0  0  0  0
 21 10  2  0  0  0  0
 22 20  1  1  0  0  0
 22 10  1  0  0  0  0
 23 14  1  0  0  0  0
 24 27  1  0  0  0  0
 25 18  1  0  0  0  0
 26 25  2  0  0  0  0
 27 12  1  0  0  0  0
 27  7  1  0  0  0  0
 30 28  1  0  0  0  0
 30 29  1  0  0  0  0
M  END
>  <MODEL>
2

>  <REMARK>
 VINA RESULT:      -6.9      2.578      3.939
  Name = 
  2 active torsions:
  status: ('A' for Active; 'I' for Inactive)
    1  A    between atoms: C_11  and  C_28
    2  A    between atoms: C_28  and  C_30
                            x       y       z     vdW  Elec       q    Type
                         _______ _______ _______ _____ _____    ______ ____

>  <TORSDO>
F 2

$$$$
=
 OpenBabel11122410213D

 30 35  0  0  1  0  0  0  0  0999 V2000
  186.7830  177.7490  141.1870 C   0  0  0  0  0  0  0  0  0  0  0  0
  184.4520  178.6000  140.8270 C   0  0  0  0  0  0  0  0  0  0  0  0
  186.3330  177.9650  145.3590 N   0  0  0  0  0  2  0  0  0  0  0  0
  187.7900  177.3170  142.0860 C   0  0  0  0  0  0  0  0  0  0  0  0
  187.0560  177.7330  139.8110 O   0  0  0  0  0  0  0  0  0  0  0  0
  190.0350  176.0200  139.5160 O   0  0  0  0  0  0  0  0  0  0  0  0
  190.3210  178.2520  143.0370 C   0  0  1  0  0  3  0  0  0  0  0  0
  189.2140  176.7260  140.0810 C   0  0  0  0  0  0  0  0  0  0  0  0
  189.6580  178.1700  144.4250 C   0  0  2  0  0  3  0  0  0  0  0  0
  187.6360  177.5170  145.7260 C   0  0  0  0  0  0  0  0  0  0  0  0
  188.3830  177.6800  139.2840 C   0  0  2  0  0  3  0  0  0  0  0  0
  189.0590  176.6480  141.5750 C   0  0  1  0  0  3  0  0  0  0  0  0
  183.2520  179.0590  141.3780 C   0  0  0  0  0  3  0  0  0  0  0  0
  190.7820  177.9220  145.4020 C   0  0  0  0  0  2  0  0  0  0  0  0
  191.7500  178.7060  143.3000 C   0  0  0  0  0  2  0  0  0  0  0  0
  184.5190  178.5400  139.3380 C   0  0  0  0  0  1  0  0  0  0  0  0
  186.3470  177.8850  143.9420 C   0  0  0  0  0  0  0  0  0  0  0  0
  183.0790  179.1340  142.7590 C   0  0  0  0  0  3  0  0  0  0  0  0
  185.5200  178.2020  141.6780 C   0  0  0  0  0  0  0  0  0  0  0  0
  187.5380  177.4050  143.4550 C   0  0  0  0  0  0  0  0  0  0  0  0
  188.0010  177.4180  146.9270 O   0  0  0  0  0  0  0  0  0  0  0  0
  188.5100  177.1650  144.5570 C   0  0  1  0  0  3  0  0  0  0  0  0
  191.9760  178.6380  144.8050 C   0  0  0  0  0  2  0  0  0  0  0  0
  190.7920  175.8390  143.0060 C   0  0  0  0  0  1  0  0  0  0  0  0
  184.1080  178.7440  143.6110 C   0  0  0  0  0  3  0  0  0  0  0  0
  185.3160  178.2750  143.0880 C   0  0  0  0  0  0  0  0  0  0  0  0
  190.3240  176.9970  142.2510 N   0  0  0  0  0  0  0  0  0  0  0  0
  189.0300  179.0610  139.3060 C   0  0  0  0  0  2  0  0  0  0  0  0
  189.0060  178.5180  136.8760 C   0  0  0  0  0  1  0  0  0  0  0  0
  189.1870  179.6190  137.9030 C   0  0  0  0  0  2  0  0  0  0  0  0
  1 19  2  0  0  0  0
  1  4  1  0  0  0  0
  2 13  2  0  0  0  0
  2 19  1  0  0  0  0
  3 10  1  0  0  0  0
  4 20  2  0  0  0  0
  5  1  1  0  0  0  0
  6  8  2  0  0  0  0
  7 15  1  1  0  0  0
  7  9  1  0  0  0  0
  9 22  1  0  0  0  0
  9 14  1  1  0  0  0
 10 21  2  0  0  0  0
 11 28  1  1  0  0  0
 11  5  1  0  0  0  0
 11  8  1  0  0  0  0
 12  8  1  6  0  0  0
 12  4  1  0  0  0  0
 12 27  1  0  0  0  0
 13 18  1  0  0  0  0
 15 23  1  0  0  0  0
 16  2  1  0  0  0  0
 17  3  1  0  0  0  0
 18 25  2  0  0  0  0
 19 26  1  0  0  0  0
 20 17  1  0  0  0  0
 22 20  1  6  0  0  0
 22 10  1  0  0  0  0
 23 14  1  0  0  0  0
 26 25  1  0  0  0  0
 26 17  2  0  0  0  0
 27 24  1  0  0  0  0
 27  7  1  0  0  0  0
 29 30  1  0  0  0  0
 30 28  1  0  0  0  0
M  END
>  <MODEL>
3

>  <REMARK>
 VINA RESULT:      -6.9      2.340      5.759
  Name = 
  2 active torsions:
  status: ('A' for Active; 'I' for Inactive)
    1  A    between atoms: C_11  and  C_28
    2  A    between atoms: C_28  and  C_30
                            x       y       z     vdW  Elec       q    Type
                         _______ _______ _______ _____ _____    ______ ____

>  <TORSDO>
F 2

$$$$
=
 OpenBabel11122410213D

 30 35  0  0  1  0  0  0  0  0999 V2000
  187.2790  178.2550  143.0930 C   0  0  0  0  0  0  0  0  0  0  0  0
  185.8500  178.2100  145.1530 C   0  0  0  0  0  0  0  0  0  0  0  0
  183.9560  179.1370  140.6760 N   0  0  0  0  0  2  0  0  0  0  0  0
  187.3910  178.4970  141.7010 C   0  0  0  0  0  0  0  0  0  0  0  0
  188.4250  177.8700  143.8040 O   0  0  0  0  0  0  0  0  0  0  0  0
  191.0360  178.3300  141.5980 O   0  0  0  0  0  0  0  0  0  0  0  0
  187.8100  176.9750  139.3140 C   0  0  1  0  0  3  0  0  0  0  0  0
  189.8790  178.0970  141.9120 C   0  0  0  0  0  0  0  0  0  0  0  0
  186.4670  177.5870  138.8710 C   0  0  2  0  0  3  0  0  0  0  0  0
  184.6260  179.1730  139.4180 C   0  0  0  0  0  0  0  0  0  0  0  0
  189.5900  177.3410  143.1700 C   0  0  2  0  0  3  0  0  0  0  0  0
  188.7540  178.5520  141.0240 C   0  0  1  0  0  3  0  0  0  0  0  0
  184.5800  178.3310  145.7260 C   0  0  0  0  0  3  0  0  0  0  0  0
  186.5190  177.6380  137.3620 C   0  0  0  0  0  2  0  0  0  0  0  0
  188.2700  176.1220  138.1410 C   0  0  0  0  0  2  0  0  0  0  0  0
  186.9750  177.9120  146.0860 C   0  0  0  0  0  1  0  0  0  0  0  0
  185.0070  178.8920  141.5990 C   0  0  0  0  0  0  0  0  0  0  0  0
  183.4660  178.6280  144.9440 C   0  0  0  0  0  3  0  0  0  0  0  0
  186.0190  178.3900  143.7510 C   0  0  0  0  0  0  0  0  0  0  0  0
  186.2340  178.8070  140.9870 C   0  0  0  0  0  0  0  0  0  0  0  0
  184.0190  179.4010  138.3390 O   0  0  0  0  0  0  0  0  0  0  0  0
  186.1050  178.9310  139.5090 C   0  0  1  0  0  3  0  0  0  0  0  0
  187.3550  176.4380  136.9650 C   0  0  0  0  0  2  0  0  0  0  0  0
  189.0560  179.0030  138.6980 C   0  0  0  0  0  1  0  0  0  0  0  0
  183.6080  178.8140  143.5720 C   0  0  0  0  0  3  0  0  0  0  0  0
  184.8650  178.7060  142.9730 C   0  0  0  0  0  0  0  0  0  0  0  0
  188.8670  177.9430  139.6850 N   0  0  0  0  0  0  0  0  0  0  0  0
  189.4050  175.8630  142.8440 C   0  0  0  0  0  2  0  0  0  0  0  0
  191.5410  175.8690  144.1230 C   0  0  0  0  0  1  0  0  0  0  0  0
  190.6360  175.0570  143.2180 C   0  0  0  0  0  2  0  0  0  0  0  0
  1 19  1  0  0  0  0
  1  5  1  0  0  0  0
  2 13  1  0  0  0  0
  2 16  1  0  0  0  0
  3 17  1  0  0  0  0
  4  1  2  0  0  0  0
  6  8  2  0  0  0  0
  7 15  1  6  0  0  0
  7 27  1  0  0  0  0
  8 11  1  0  0  0  0
  9 14  1  6  0  0  0
  9  7  1  0  0  0  0
  9 22  1  0  0  0  0
 10  3  1  0  0  0  0
 11 28  1  6  0  0  0
 11  5  1  0  0  0  0
 12  4  1  1  0  0  0
 12  8  1  0  0  0  0
 17 26  1  0  0  0  0
 18 13  2  0  0  0  0
 19  2  2  0  0  0  0
 20 17  2  0  0  0  0
 20  4  1  0  0  0  0
 21 10  2  0  0  0  0
 22 10  1  1  0  0  0
 22 20  1  0  0  0  0
 23 14  1  0  0  0  0
 23 15  1  0  0  0  0
 24 27  1  0  0  0  0
 25 18  1  0  0  0  0
 26 25  2  0  0  0  0
 26 19  1  0  0  0  0
 27 12  1  0  0  0  0
 28 30  1  0  0  0  0
 30 29  1  0  0  0  0
M  END
>  <MODEL>
4

>  <REMARK>
 VINA RESULT:      -6.8      2.104      4.678
  Name = 
  2 active torsions:
  status: ('A' for Active; 'I' for Inactive)
    1  A    between atoms: C_11  and  C_28
    2  A    between atoms: C_28  and  C_30
                            x       y       z     vdW  Elec       q    Type
                         _______ _______ _______ _____ _____    ______ ____

>  <TORSDO>
F 2

$$$$
=
 OpenBabel11122410213D

 30 35  0  0  1  0  0  0  0  0999 V2000
  185.6360  178.5320  140.2080 C   0  0  0  0  0  0  0  0  0  0  0  0
  184.1340  178.9460  142.1730 C   0  0  0  0  0  0  0  0  0  0  0  0
  182.4120  177.1370  137.9010 N   0  0  0  0  0  2  0  0  0  0  0  0
  185.7770  178.1560  138.8490 C   0  0  0  0  0  0  0  0  0  0  0  0
  186.7830  178.8920  140.9310 O   0  0  0  0  0  0  0  0  0  0  0  0
  189.2800  179.1410  138.5650 O   0  0  0  0  0  0  0  0  0  0  0  0
  186.8510  175.9610  137.3610 C   0  0  1  0  0  3  0  0  0  0  0  0
  188.2370  178.7130  139.0330 C   0  0  0  0  0  0  0  0  0  0  0  0
  185.4240  175.8470  136.7920 C   0  0  2  0  0  3  0  0  0  0  0  0
  183.1350  176.8260  136.7120 C   0  0  0  0  0  0  0  0  0  0  0  0
  188.1040  178.5430  140.5120 C   0  0  2  0  0  3  0  0  0  0  0  0
  187.1010  178.3410  138.1200 C   0  0  1  0  0  3  0  0  0  0  0  0
  182.8500  178.8930  142.7250 C   0  0  0  0  0  3  0  0  0  0  0  0
  185.5790  175.2400  135.4170 C   0  0  0  0  0  2  0  0  0  0  0  0
  187.6530  174.8760  136.6560 C   0  0  0  0  0  2  0  0  0  0  0  0
  185.2160  179.4700  143.0570 C   0  0  0  0  0  1  0  0  0  0  0  0
  183.4090  177.6760  138.7570 C   0  0  0  0  0  0  0  0  0  0  0  0
  181.7660  178.4380  141.9760 C   0  0  0  0  0  3  0  0  0  0  0  0
  184.3490  178.5320  140.8290 C   0  0  0  0  0  0  0  0  0  0  0  0
  184.6430  177.7290  138.1590 C   0  0  0  0  0  0  0  0  0  0  0  0
  182.5760  176.3460  135.6920 O   0  0  0  0  0  0  0  0  0  0  0  0
  184.6010  177.1390  136.7920 C   0  0  1  0  0  3  0  0  0  0  0  0
  186.7830  174.3280  135.5330 C   0  0  0  0  0  2  0  0  0  0  0  0
  187.4300  177.7880  135.8200 C   0  0  0  0  0  1  0  0  0  0  0  0
  181.9520  178.0340  140.6570 C   0  0  0  0  0  3  0  0  0  0  0  0
  183.2220  178.0820  140.0780 C   0  0  0  0  0  0  0  0  0  0  0  0
  187.5110  177.2750  137.1850 N   0  0  0  0  0  0  0  0  0  0  0  0
  188.4270  177.1010  140.8900 C   0  0  0  0  0  2  0  0  0  0  0  0
  187.8740  176.5700  143.2590 C   0  0  0  0  0  1  0  0  0  0  0  0
  188.9680  177.0090  142.3060 C   0  0  0  0  0  2  0  0  0  0  0  0
  1 19  1  0  0  0  0
  1  5  1  0  0  0  0
  2 13  1  0  0  0  0
  2 16  1  0  0  0  0
  3 17  1  0  0  0  0
  4  1  2  0  0  0  0
  6  8  2  0  0  0  0
  7 15  1  6  0  0  0
  8 11  1  0  0  0  0
  9 14  1  6  0  0  0
  9  7  1  0  0  0  0
 10  3  1  0  0  0  0
 11 28  1  6  0  0  0
 11  5  1  0  0  0  0
 12  4  1  1  0  0  0
 12  8  1  0  0  0  0
 14 23  1  0  0  0  0
 17 26  1  0  0  0  0
 18 13  2  0  0  0  0
 19  2  2  0  0  0  0
 20 17  2  0  0  0  0
 20  4  1  0  0  0  0
 21 10  2  0  0  0  0
 22 10  1  1  0  0  0
 22  9  1  0  0  0  0
 22 20  1  0  0  0  0
 23 15  1  0  0  0  0
 24 27  1  0  0  0  0
 25 18  1  0  0  0  0
 26 25  2  0  0  0  0
 26 19  1  0  0  0  0
 27  7  1  0  0  0  0
 27 12  1  0  0  0  0
 28 30  1  0  0  0  0
 30 29  1  0  0  0  0
M  END
>  <MODEL>
5

>  <REMARK>
 VINA RESULT:      -6.6      2.079      5.258
  Name = 
  2 active torsions:
  status: ('A' for Active; 'I' for Inactive)
    1  A    between atoms: C_11  and  C_28
    2  A    between atoms: C_28  and  C_30
                            x       y       z     vdW  Elec       q    Type
                         _______ _______ _______ _____ _____    ______ ____

>  <TORSDO>
F 2

$$$$
=
 OpenBabel11122410213D

 30 35  0  0  1  0  0  0  0  0999 V2000
  187.9500  178.0200  142.3230 C   0  0  0  0  0  0  0  0  0  0  0  0
  186.1970  178.2640  144.1010 C   0  0  0  0  0  0  0  0  0  0  0  0
  185.0910  178.5240  139.2850 N   0  0  0  0  0  2  0  0  0  0  0  0
  188.2960  178.0600  140.9500 C   0  0  0  0  0  0  0  0  0  0  0  0
  188.9540  177.7500  143.2640 O   0  0  0  0  0  0  0  0  0  0  0  0
  191.9040  177.9030  141.4830 O   0  0  0  0  0  0  0  0  0  0  0  0
  189.0780  176.2130  138.9100 C   0  0  1  0  0  3  0  0  0  0  0  0
  190.7070  177.7110  141.6290 C   0  0  0  0  0  0  0  0  0  0  0  0
  187.8400  176.7460  138.1650 C   0  0  2  0  0  3  0  0  0  0  0  0
  185.9610  178.3820  138.1640 C   0  0  0  0  0  0  0  0  0  0  0  0
  190.1990  177.1420  142.9150 C   0  0  2  0  0  3  0  0  0  0  0  0
  189.7530  178.0260  140.5100 C   0  0  1  0  0  3  0  0  0  0  0  0
  184.8530  178.4590  144.4300 C   0  0  0  0  0  3  0  0  0  0  0  0
  188.1420  176.5790  136.6950 C   0  0  0  0  0  2  0  0  0  0  0  0
  189.7120  175.2030  137.9640 C   0  0  0  0  0  2  0  0  0  0  0  0
  187.1460  178.1110  145.2410 C   0  0  0  0  0  1  0  0  0  0  0  0
  185.9700  178.4210  140.3950 C   0  0  0  0  0  0  0  0  0  0  0  0
  183.8890  178.6320  143.4390 C   0  0  0  0  0  3  0  0  0  0  0  0
  186.6000  178.2410  142.7360 C   0  0  0  0  0  0  0  0  0  0  0  0
  187.2790  178.2560  140.0160 C   0  0  0  0  0  0  0  0  0  0  0  0
  185.5460  178.4490  136.9780 O   0  0  0  0  0  0  0  0  0  0  0  0
  187.4000  178.1660  138.5340 C   0  0  1  0  0  3  0  0  0  0  0  0
  189.0100  175.3400  136.6190 C   0  0  0  0  0  2  0  0  0  0  0  0
  190.4450  178.1380  138.2260 C   0  0  0  0  0  1  0  0  0  0  0  0
  184.2610  178.6200  142.0980 C   0  0  0  0  0  3  0  0  0  0  0  0
  185.5980  178.4340  141.7390 C   0  0  0  0  0  0  0  0  0  0  0  0
  190.0760  177.2310  139.3090 N   0  0  0  0  0  0  0  0  0  0  0  0
  190.0450  175.6310  142.7780 C   0  0  0  0  0  2  0  0  0  0  0  0
  191.6750  175.8210  144.6510 C   0  0  0  0  0  1  0  0  0  0  0  0
  191.0770  174.8930  143.6120 C   0  0  0  0  0  2  0  0  0  0  0  0
  1 19  1  0  0  0  0
  1  5  1  0  0  0  0
  2 13  1  0  0  0  0
  2 16  1  0  0  0  0
  3 17  1  0  0  0  0
  4  1  2  0  0  0  0
  6  8  2  0  0  0  0
  7 15  1  6  0  0  0
  7 27  1  0  0  0  0
  8 11  1  0  0  0  0
  9 14  1  6  0  0  0
  9 22  1  0  0  0  0
  9  7  1  0  0  0  0
 10  3  1  0  0  0  0
 11 28  1  6  0  0  0
 11  5  1  0  0  0  0
 12  4  1  1  0  0  0
 12  8  1  0  0  0  0
 17 26  1  0  0  0  0
 18 13  2  0  0  0  0
 19  2  2  0  0  0  0
 20 17  2  0  0  0  0
 20  4  1  0  0  0  0
 21 10  2  0  0  0  0
 22 10  1  6  0  0  0
 22 20  1  0  0  0  0
 23 14  1  0  0  0  0
 23 15  1  0  0  0  0
 24 27  1  0  0  0  0
 25 18  1  0  0  0  0
 26 25  2  0  0  0  0
 26 19  1  0  0  0  0
 27 12  1  0  0  0  0
 28 30  1  0  0  0  0
 30 29  1  0  0  0  0
M  END
>  <MODEL>
6

>  <REMARK>
 VINA RESULT:      -6.5      2.194      5.328
  Name = 
  2 active torsions:
  status: ('A' for Active; 'I' for Inactive)
    1  A    between atoms: C_11  and  C_28
    2  A    between atoms: C_28  and  C_30
                            x       y       z     vdW  Elec       q    Type
                         _______ _______ _______ _____ _____    ______ ____

>  <TORSDO>
F 2

$$$$
=
 OpenBabel11122410213D

 30 35  0  0  1  0  0  0  0  0999 V2000
  189.0240  177.5970  139.9920 C   0  0  0  0  0  0  0  0  0  0  0  0
  189.7180  177.3740  142.3920 C   0  0  0  0  0  0  0  0  0  0  0  0
  185.1200  178.6780  141.1110 N   0  0  0  0  0  2  0  0  0  0  0  0
  188.0320  177.9580  139.0470 C   0  0  0  0  0  0  0  0  0  0  0  0
  190.2700  177.1540  139.5260 O   0  0  0  0  0  0  0  0  0  0  0  0
  190.2330  177.8060  136.1390 O   0  0  0  0  0  0  0  0  0  0  0  0
  186.3460  176.6470  137.1430 C   0  0  1  0  0  3  0  0  0  0  0  0
  189.7340  177.5450  137.2230 C   0  0  0  0  0  0  0  0  0  0  0  0
  185.1990  177.2920  137.9420 C   0  0  2  0  0  3  0  0  0  0  0  0
  184.5690  178.8230  139.8050 C   0  0  0  0  0  0  0  0  0  0  0  0
  190.4770  176.6840  138.1930 C   0  0  2  0  0  3  0  0  0  0  0  0
  188.3680  178.0730  137.5670 C   0  0  1  0  0  3  0  0  0  0  0  0
  189.3720  177.4430  143.7450 C   0  0  0  0  0  3  0  0  0  0  0  0
  184.0660  177.4730  136.9600 C   0  0  0  0  0  2  0  0  0  0  0  0
  185.6700  175.8990  136.0020 C   0  0  0  0  0  2  0  0  0  0  0  0
  191.1290  176.9980  142.0850 C   0  0  0  0  0  1  0  0  0  0  0  0
  186.4800  178.3560  140.8580 C   0  0  0  0  0  0  0  0  0  0  0  0
  188.0850  177.8030  144.1380 C   0  0  0  0  0  3  0  0  0  0  0  0
  188.7500  177.6730  141.3930 C   0  0  0  0  0  0  0  0  0  0  0  0
  186.7710  178.3260  139.5170 C   0  0  0  0  0  0  0  0  0  0  0  0
  183.3660  179.1420  139.6130 O   0  0  0  0  0  0  0  0  0  0  0  0
  185.5530  178.5770  138.6980 C   0  0  1  0  0  3  0  0  0  0  0  0
  184.2040  176.3130  135.9950 C   0  0  0  0  0  2  0  0  0  0  0  0
  186.7850  178.7220  135.9000 C   0  0  0  0  0  1  0  0  0  0  0  0
  187.1240  178.1070  143.1780 C   0  0  0  0  0  3  0  0  0  0  0  0
  187.4430  178.0530  141.8190 C   0  0  0  0  0  0  0  0  0  0  0  0
  187.3610  177.5820  136.6060 N   0  0  0  0  0  0  0  0  0  0  0  0
  190.0110  175.2380  138.0510 C   0  0  0  0  0  2  0  0  0  0  0  0
  192.4040  174.7270  137.5910 C   0  0  0  0  0  1  0  0  0  0  0  0
  190.9710  174.4310  137.1960 C   0  0  0  0  0  2  0  0  0  0  0  0
  1 19  1  0  0  0  0
  2 13  1  0  0  0  0
  4 20  1  0  0  0  0
  4  1  2  0  0  0  0
  5  1  1  0  0  0  0
  6  8  2  0  0  0  0
  7 15  1  6  0  0  0
  7  9  1  0  0  0  0
  8 11  1  0  0  0  0
  9 14  1  6  0  0  0
  9 22  1  0  0  0  0
 10  3  1  0  0  0  0
 11 28  1  1  0  0  0
 11  5  1  0  0  0  0
 12  8  1  1  0  0  0
 12  4  1  0  0  0  0
 13 18  2  0  0  0  0
 16  2  1  0  0  0  0
 17  3  1  0  0  0  0
 17 26  1  0  0  0  0
 19 26  1  0  0  0  0
 19  2  2  0  0  0  0
 20 17  2  0  0  0  0
 21 10  2  0  0  0  0
 22 20  1  1  0  0  0
 22 10  1  0  0  0  0
 23 15  1  0  0  0  0
 23 14  1  0  0  0  0
 24 27  1  0  0  0  0
 25 18  1  0  0  0  0
 26 25  2  0  0  0  0
 27  7  1  0  0  0  0
 27 12  1  0  0  0  0
 30 29  1  0  0  0  0
 30 28  1  0  0  0  0
M  END
>  <MODEL>
7

>  <REMARK>
 VINA RESULT:      -6.3      1.960      2.892
  Name = 
  2 active torsions:
  status: ('A' for Active; 'I' for Inactive)
    1  A    between atoms: C_11  and  C_28
    2  A    between atoms: C_28  and  C_30
                            x       y       z     vdW  Elec       q    Type
                         _______ _______ _______ _____ _____    ______ ____

>  <TORSDO>
F 2

$$$$
=
 OpenBabel11122410213D

 30 35  0  0  1  0  0  0  0  0999 V2000
  185.9710  175.0290  136.5480 C   0  0  0  0  0  0  0  0  0  0  0  0
  188.4540  174.6770  136.6230 C   0  0  0  0  0  0  0  0  0  0  0  0
  186.3100  178.6340  138.6810 N   0  0  0  0  0  2  0  0  0  0  0  0
  184.8570  175.8590  136.8250 C   0  0  0  0  0  0  0  0  0  0  0  0
  185.7540  173.7950  135.9170 O   0  0  0  0  0  0  0  0  0  0  0  0
  182.4530  173.8780  134.9220 O   0  0  0  0  0  0  0  0  0  0  0  0
  182.6090  175.8630  138.5960 C   0  0  1  0  0  3  0  0  0  0  0  0
  183.4030  174.1680  135.6310 C   0  0  0  0  0  0  0  0  0  0  0  0
  183.1800  177.2130  139.0710 C   0  0  2  0  0  3  0  0  0  0  0  0
  184.9240  178.9620  138.7440 C   0  0  0  0  0  0  0  0  0  0  0  0
  184.4760  173.1570  135.8830 C   0  0  2  0  0  3  0  0  0  0  0  0
  183.4800  175.5300  136.2650 C   0  0  1  0  0  3  0  0  0  0  0  0
  189.7100  175.1280  137.0390 C   0  0  0  0  0  3  0  0  0  0  0  0
  181.9950  178.0080  139.5660 C   0  0  0  0  0  2  0  0  0  0  0  0
  181.3320  175.6620  139.3990 C   0  0  0  0  0  2  0  0  0  0  0  0
  188.4270  173.3970  135.8580 C   0  0  0  0  0  1  0  0  0  0  0  0
  186.3280  177.4330  137.9220 C   0  0  0  0  0  0  0  0  0  0  0  0
  189.8450  176.3230  137.7430 C   0  0  0  0  0  3  0  0  0  0  0  0
  187.2890  175.4400  136.9170 C   0  0  0  0  0  0  0  0  0  0  0  0
  185.0730  177.0490  137.5180 C   0  0  0  0  0  0  0  0  0  0  0  0
  184.5040  179.9980  139.3210 O   0  0  0  0  0  0  0  0  0  0  0  0
  184.0330  177.9720  138.0500 C   0  0  1  0  0  3  0  0  0  0  0  0
  181.0420  176.9700  140.1230 C   0  0  0  0  0  2  0  0  0  0  0  0
  181.5490  176.8880  136.6280 C   0  0  0  0  0  1  0  0  0  0  0  0
  188.7210  177.0890  138.0370 C   0  0  0  0  0  3  0  0  0  0  0  0
  187.4540  176.6670  137.6280 C   0  0  0  0  0  0  0  0  0  0  0  0
  182.3200  175.7620  137.1470 N   0  0  0  0  0  0  0  0  0  0  0  0
  184.1960  172.4340  137.1960 C   0  0  0  0  0  2  0  0  0  0  0  0
  183.8010  170.4050  135.8070 C   0  0  0  0  0  1  0  0  0  0  0  0
  183.3030  171.2250  136.9810 C   0  0  0  0  0  2  0  0  0  0  0  0
  1  4  2  0  0  0  0
  1 19  1  0  0  0  0
  2 19  2  0  0  0  0
  2 13  1  0  0  0  0
  3 10  1  0  0  0  0
  4 20  1  0  0  0  0
  5  1  1  0  0  0  0
  6  8  2  0  0  0  0
  7  9  1  0  0  0  0
  7 15  1  1  0  0  0
  8 11  1  0  0  0  0
  9 14  1  6  0  0  0
 10 21  2  0  0  0  0
 11  5  1  0  0  0  0
 11 28  1  1  0  0  0
 12  8  1  1  0  0  0
 12  4  1  0  0  0  0
 12 27  1  0  0  0  0
 13 18  2  0  0  0  0
 14 23  1  0  0  0  0
 15 23  1  0  0  0  0
 16  2  1  0  0  0  0
 17  3  1  0  0  0  0
 18 25  1  0  0  0  0
 19 26  1  0  0  0  0
 20 17  2  0  0  0  0
 22 20  1  1  0  0  0
 22 10  1  0  0  0  0
 22  9  1  0  0  0  0
 24 27  1  0  0  0  0
 26 17  1  0  0  0  0
 26 25  2  0  0  0  0
 27  7  1  0  0  0  0
 29 30  1  0  0  0  0
 30 28  1  0  0  0  0
M  END
>  <MODEL>
8

>  <REMARK>
 VINA RESULT:      -6.2      3.515      5.334
  Name = 
  2 active torsions:
  status: ('A' for Active; 'I' for Inactive)
    1  A    between atoms: C_11  and  C_28
    2  A    between atoms: C_28  and  C_30
                            x       y       z     vdW  Elec       q    Type
                         _______ _______ _______ _____ _____    ______ ____

>  <TORSDO>
F 2

$$$$
=
 OpenBabel11122410213D

 30 35  0  0  1  0  0  0  0  0999 V2000
  185.0810  178.6710  141.1570 C   0  0  0  0  0  0  0  0  0  0  0  0
  187.1400  178.1810  142.5030 C   0  0  0  0  0  0  0  0  0  0  0  0
  182.6730  178.5510  144.5990 N   0  0  0  0  0  2  0  0  0  0  0  0
  183.6920  178.9510  141.1260 C   0  0  0  0  0  0  0  0  0  0  0  0
  185.7890  178.6370  139.9470 O   0  0  0  0  0  0  0  0  0  0  0  0
  183.5890  179.8770  137.5970 O   0  0  0  0  0  0  0  0  0  0  0  0
  181.2890  177.6490  140.2810 C   0  0  1  0  0  3  0  0  0  0  0  0
  183.9000  179.3080  138.6310 C   0  0  0  0  0  0  0  0  0  0  0  0
  180.8520  177.8380  141.7460 C   0  0  2  0  0  3  0  0  0  0  0  0
  181.4160  178.7990  143.9750 C   0  0  0  0  0  0  0  0  0  0  0  0
  185.1480  178.4860  138.6790 C   0  0  2  0  0  3  0  0  0  0  0  0
  183.0170  179.4170  139.8440 C   0  0  1  0  0  3  0  0  0  0  0  0
  187.7140  177.9130  143.7490 C   0  0  0  0  0  3  0  0  0  0  0  0
  179.3440  177.9190  141.7170 C   0  0  0  0  0  2  0  0  0  0  0  0
  180.1050  176.9850  139.5910 C   0  0  0  0  0  2  0  0  0  0  0  0
  188.0700  178.2210  141.3370 C   0  0  0  0  0  1  0  0  0  0  0  0
  183.5930  178.6200  143.5200 C   0  0  0  0  0  0  0  0  0  0  0  0
  186.9350  177.8730  144.9030 C   0  0  0  0  0  3  0  0  0  0  0  0
  185.7410  178.4180  142.3990 C   0  0  0  0  0  0  0  0  0  0  0  0
  182.9810  178.9100  142.3260 C   0  0  0  0  0  0  0  0  0  0  0  0
  180.3390  178.8480  144.6250 O   0  0  0  0  0  0  0  0  0  0  0  0
  181.5040  179.0070  142.4900 C   0  0  1  0  0  3  0  0  0  0  0  0
  178.9330  177.0270  140.5630 C   0  0  0  0  0  2  0  0  0  0  0  0
  180.6960  179.9620  139.6970 C   0  0  0  0  0  1  0  0  0  0  0  0
  185.5650  178.1080  144.8270 C   0  0  0  0  0  3  0  0  0  0  0  0
  184.9650  178.3850  143.5960 C   0  0  0  0  0  0  0  0  0  0  0  0
  181.6700  178.8840  139.5590 N   0  0  0  0  0  0  0  0  0  0  0  0
  184.8060  177.0230  138.4160 C   0  0  0  0  0  2  0  0  0  0  0  0
  186.5860  177.3220  136.7020 C   0  0  0  0  0  1  0  0  0  0  0  0
  185.3200  176.5710  137.0620 C   0  0  0  0  0  2  0  0  0  0  0  0
  1 19  1  0  0  0  0
  2 13  1  0  0  0  0
  4  1  2  0  0  0  0
  4 20  1  0  0  0  0
  5  1  1  0  0  0  0
  6  8  2  0  0  0  0
  7 15  1  6  0  0  0
  7  9  1  0  0  0  0
  8 11  1  0  0  0  0
  9 14  1  6  0  0  0
  9 22  1  0  0  0  0
 10  3  1  0  0  0  0
 10 21  2  0  0  0  0
 11 28  1  1  0  0  0
 11  5  1  0  0  0  0
 12  8  1  6  0  0  0
 12  4  1  0  0  0  0
 13 18  2  0  0  0  0
 15 23  1  0  0  0  0
 16  2  1  0  0  0  0
 17 26  1  0  0  0  0
 17  3  1  0  0  0  0
 19  2  2  0  0  0  0
 19 26  1  0  0  0  0
 20 17  2  0  0  0  0
 22 20  1  6  0  0  0
 22 10  1  0  0  0  0
 23 14  1  0  0  0  0
 25 18  1  0  0  0  0
 26 25  2  0  0  0  0
 27 24  1  0  0  0  0
 27 12  1  0  0  0  0
 27  7  1  0  0  0  0
 29 30  1  0  0  0  0
 30 28  1  0  0  0  0
M  END
>  <MODEL>
9

>  <REMARK>
 VINA RESULT:      -6.2      1.946      2.844
  Name = 
  2 active torsions:
  status: ('A' for Active; 'I' for Inactive)
    1  A    between atoms: C_11  and  C_28
    2  A    between atoms: C_28  and  C_30
                            x       y       z     vdW  Elec       q    Type
                         _______ _______ _______ _____ _____    ______ ____

>  <TORSDO>
F 2

$$$$
