=
 OpenBabel11122411123D

 31 35  0  0  1  0  0  0  0  0999 V2000
  190.1310  175.8270  142.7280 C   0  0  0  0  0  0  0  0  0  0  0  0
  186.8910  177.2090  144.1590 C   0  0  2  0  0  3  0  0  0  0  0  0
  187.3000  178.1490  145.3170 C   0  0  2  0  0  3  0  0  0  0  0  0
  188.6360  178.3800  147.4210 C   0  0  2  0  0  3  0  0  0  0  0  0
  188.0420  176.9670  143.2110 C   0  0  0  0  0  0  0  0  0  0  0  0
  190.2620  176.5560  141.5450 C   0  0  0  0  0  3  0  0  0  0  0  0
  188.3950  177.5220  146.1890 C   0  0  0  0  0  2  0  0  0  0  0  0
  186.0540  178.9830  142.5700 C   0  0  2  0  0  3  0  0  0  0  0  0
  191.0800  174.9260  143.0760 F   0  0  0  0  0  0  0  0  0  0  0  0
  184.8620  179.0260  145.4170 C   0  0  0  0  0  2  0  0  0  0  0  0
  189.6930  177.8510  148.1590 O   0  0  0  0  0  1  0  0  0  0  0  0
  187.0860  178.6080  141.5050 C   0  0  0  0  0  2  0  0  0  0  0  0
  185.6650  177.7440  143.3900 C   0  0  2  0  0  3  0  0  0  0  0  0
  189.0260  176.0320  143.5560 C   0  0  0  0  0  3  0  0  0  0  0  0
  187.3720  178.3800  148.2720 C   0  0  0  0  0  2  0  0  0  0  0  0
  188.1740  177.7010  142.0100 C   0  0  0  0  0  0  0  0  0  0  0  0
  189.2810  177.4820  141.1840 C   0  0  0  0  0  3  0  0  0  0  0  0
  184.4930  178.0090  144.3430 C   0  0  0  0  0  2  0  0  0  0  0  0
  186.0920  178.5760  146.1360 C   0  0  0  0  0  0  0  0  0  0  0  0
  186.1640  178.7690  147.4640 C   0  0  0  0  0  3  0  0  0  0  0  0
  184.2000  177.5460  140.9490 O   0  0  0  0  0  0  0  0  0  0  0  0
  183.9860  178.7760  141.1300 C   0  0  0  0  0  0  0  0  0  0  0  0
  184.8810  179.5560  141.9230 N   0  0  0  0  0  2  0  0  0  0  0  0
  181.6070  177.8610  138.3980 C   0  0  1  0  0  3  0  0  0  0  0  0
  181.5250  178.6020  140.6590 C   0  0  0  0  0  2  0  0  0  0  0  0
  184.2300  180.4690  138.8440 O   0  0  0  0  0  1  0  0  0  0  0  0
  181.5140  176.7510  137.5610 O   0  0  0  0  0  1  0  0  0  0  0  0
  181.5700  177.4220  139.7930 N   0  0  0  0  0  2  0  0  0  0  0  0
  183.0080  179.8200  139.0290 C   0  0  2  0  0  3  0  0  0  0  0  0
  182.7960  179.4450  140.5040 C   0  0  2  0  0  3  0  0  0  0  0  0
  182.9120  178.6000  138.1170 C   0  0  0  0  0  2  0  0  0  0  0  0
  1  9  1  0  0  0  0
  1 14  1  0  0  0  0
  2  5  1  6  0  0  0
  2  3  1  0  0  0  0
  3 19  1  0  0  0  0
  3  7  1  1  0  0  0
  4 11  1  1  0  0  0
  4 15  1  0  0  0  0
  5 14  2  0  0  0  0
  6  1  2  0  0  0  0
  7  4  1  0  0  0  0
  8 23  1  6  0  0  0
  8 13  1  0  0  0  0
 10 19  1  0  0  0  0
 12 16  1  0  0  0  0
 12  8  1  0  0  0  0
 13  2  1  0  0  0  0
 13 18  1  1  0  0  0
 16  5  1  0  0  0  0
 17  6  1  0  0  0  0
 17 16  2  0  0  0  0
 18 10  1  0  0  0  0
 19 20  2  0  0  0  0
 20 15  1  0  0  0  0
 21 22  2  0  0  0  0
 22 23  1  0  0  0  0
 24 27  1  6  0  0  0
 24 28  1  0  0  0  0
 28 25  1  0  0  0  0
 29 26  1  1  0  0  0
 29 30  1  0  0  0  0
 30 25  1  0  0  0  0
 30 22  1  6  0  0  0
 31 24  1  0  0  0  0
 31 29  1  0  0  0  0
M  END
>  <MODEL>
1

>  <REMARK>
 VINA RESULT:     -10.2      0.000      0.000
  Name = 
  2 active torsions:
  status: ('A' for Active; 'I' for Inactive)
    1  A    between atoms: C_5  and  C_30
    2  A    between atoms: C_10  and  N_16
                            x       y       z     vdW  Elec       q    Type
                         _______ _______ _______ _____ _____    ______ ____

>  <TORSDO>
F 2

$$$$
=
 OpenBabel11122411123D

 31 35  0  0  1  0  0  0  0  0999 V2000
  190.5230  176.6220  146.6510 C   0  0  0  0  0  0  0  0  0  0  0  0
  187.8980  177.1330  143.9490 C   0  0  2  0  0  3  0  0  0  0  0  0
  187.0110  178.3060  144.4290 C   0  0  2  0  0  3  0  0  0  0  0  0
  185.6370  179.2270  146.3080 C   0  0  2  0  0  3  0  0  0  0  0  0
  189.2330  177.1250  144.6560 C   0  0  0  0  0  0  0  0  0  0  0  0
  191.6590  177.1830  146.0640 C   0  0  0  0  0  3  0  0  0  0  0  0
  186.6600  178.1720  145.9160 C   0  0  0  0  0  2  0  0  0  0  0  0
  189.0120  178.3260  142.0230 C   0  0  2  0  0  3  0  0  0  0  0  0
  190.5900  176.1120  147.9030 F   0  0  0  0  0  0  0  0  0  0  0  0
  185.9270  178.4010  142.0760 C   0  0  0  0  0  2  0  0  0  0  0  0
  185.3930  179.1550  147.6780 O   0  0  0  0  0  1  0  0  0  0  0  0
  190.4040  178.1390  142.6280 C   0  0  0  0  0  2  0  0  0  0  0  0
  188.1010  177.1560  142.4190 C   0  0  2  0  0  3  0  0  0  0  0  0
  189.3170  176.5940  145.9490 C   0  0  0  0  0  3  0  0  0  0  0  0
  184.3440  178.9590  145.5480 C   0  0  0  0  0  2  0  0  0  0  0  0
  190.3850  177.6890  144.0620 C   0  0  0  0  0  0  0  0  0  0  0  0
  191.5910  177.7050  144.7700 C   0  0  0  0  0  3  0  0  0  0  0  0
  186.7530  177.1800  141.6880 C   0  0  0  0  0  2  0  0  0  0  0  0
  185.7710  178.4540  143.5610 C   0  0  0  0  0  0  0  0  0  0  0  0
  184.5890  178.8430  144.0670 C   0  0  0  0  0  3  0  0  0  0  0  0
  190.3470  176.4400  140.3530 O   0  0  0  0  0  0  0  0  0  0  0  0
  189.8010  177.4300  139.7940 C   0  0  0  0  0  0  0  0  0  0  0  0
  189.1250  178.4170  140.5730 N   0  0  0  0  0  2  0  0  0  0  0  0
  187.2690  177.3930  137.0460 C   0  0  1  0  0  3  0  0  0  0  0  0
  189.0290  178.7920  137.8300 C   0  0  0  0  0  2  0  0  0  0  0  0
  190.1180  175.2040  138.0340 O   0  0  0  0  0  1  0  0  0  0  0  0
  185.8890  177.1980  137.0370 O   0  0  0  0  0  1  0  0  0  0  0  0
  187.5970  178.5050  137.9370 N   0  0  0  0  0  2  0  0  0  0  0  0
  189.4700  176.3310  137.5260 C   0  0  2  0  0  3  0  0  0  0  0  0
  189.8650  177.5970  138.3030 C   0  0  2  0  0  3  0  0  0  0  0  0
  187.9580  176.1190  137.5250 C   0  0  0  0  0  2  0  0  0  0  0  0
  1  9  1  0  0  0  0
  2  3  1  0  0  0  0
  2  5  1  1  0  0  0
  3  7  1  1  0  0  0
  4 11  1  1  0  0  0
  5 14  1  0  0  0  0
  6  1  1  0  0  0  0
  7  4  1  0  0  0  0
  8 23  1  6  0  0  0
  8 13  1  0  0  0  0
  8 12  1  0  0  0  0
 10 19  1  0  0  0  0
 12 16  1  0  0  0  0
 13 18  1  6  0  0  0
 13  2  1  0  0  0  0
 14  1  2  0  0  0  0
 15  4  1  0  0  0  0
 16  5  2  0  0  0  0
 16 17  1  0  0  0  0
 17  6  2  0  0  0  0
 18 10  1  0  0  0  0
 19 20  2  0  0  0  0
 19  3  1  0  0  0  0
 20 15  1  0  0  0  0
 22 21  2  0  0  0  0
 22 23  1  0  0  0  0
 24 27  1  1  0  0  0
 24 31  1  0  0  0  0
 24 28  1  0  0  0  0
 25 28  1  0  0  0  0
 25 30  1  0  0  0  0
 29 26  1  1  0  0  0
 29 30  1  0  0  0  0
 30 22  1  1  0  0  0
 31 29  1  0  0  0  0
M  END
>  <MODEL>
2

>  <REMARK>
 VINA RESULT:      -9.2      3.214      4.740
  Name = 
  2 active torsions:
  status: ('A' for Active; 'I' for Inactive)
    1  A    between atoms: C_5  and  C_30
    2  A    between atoms: C_10  and  N_16
                            x       y       z     vdW  Elec       q    Type
                         _______ _______ _______ _____ _____    ______ ____

>  <TORSDO>
F 2

$$$$
=
 OpenBabel11122411123D

 31 35  0  0  1  0  0  0  0  0999 V2000
  189.9140  176.0480  142.5460 C   0  0  0  0  0  0  0  0  0  0  0  0
  186.7540  177.2170  144.3070 C   0  0  2  0  0  3  0  0  0  0  0  0
  187.2200  178.1370  145.4590 C   0  0  2  0  0  3  0  0  0  0  0  0
  188.7270  178.3640  147.4450 C   0  0  2  0  0  3  0  0  0  0  0  0
  187.8250  177.0650  143.2530 C   0  0  0  0  0  0  0  0  0  0  0  0
  189.9040  176.8220  141.3840 C   0  0  0  0  0  3  0  0  0  0  0  0
  188.4170  177.5370  146.2080 C   0  0  0  0  0  2  0  0  0  0  0  0
  185.6960  179.0000  142.8660 C   0  0  2  0  0  3  0  0  0  0  0  0
  190.9310  175.1840  142.7750 F   0  0  0  0  0  0  0  0  0  0  0  0
  184.7630  178.8870  145.8050 C   0  0  0  0  0  2  0  0  0  0  0  0
  189.8700  177.8640  148.0670 O   0  0  0  0  0  1  0  0  0  0  0  0
  186.6450  178.7120  141.7010 C   0  0  0  0  0  2  0  0  0  0  0  0
  185.4400  177.7160  143.6690 C   0  0  2  0  0  3  0  0  0  0  0  0
  188.8790  176.1690  143.4750 C   0  0  0  0  0  3  0  0  0  0  0  0
  187.5460  178.2720  148.4030 C   0  0  0  0  0  2  0  0  0  0  0  0
  187.8150  177.8450  142.0730 C   0  0  0  0  0  0  0  0  0  0  0  0
  188.8530  177.7090  141.1460 C   0  0  0  0  0  3  0  0  0  0  0  0
  184.3470  177.8900  144.7300 C   0  0  0  0  0  2  0  0  0  0  0  0
  186.0720  178.4760  146.3970 C   0  0  0  0  0  0  0  0  0  0  0  0
  186.2530  178.6270  147.7190 C   0  0  0  0  0  3  0  0  0  0  0  0
  183.8100  177.5490  141.2940 O   0  0  0  0  0  0  0  0  0  0  0  0
  183.5380  178.7500  141.5720 C   0  0  0  0  0  0  0  0  0  0  0  0
  184.4450  179.5350  142.3460 N   0  0  0  0  0  2  0  0  0  0  0  0
  180.0210  177.5570  141.1620 C   0  0  1  0  0  3  0  0  0  0  0  0
  181.1800  179.3790  142.1630 C   0  0  0  0  0  2  0  0  0  0  0  0
  182.7360  178.6050  138.8350 O   0  0  0  0  0  1  0  0  0  0  0  0
  179.4060  176.3300  141.4020 O   0  0  0  0  0  1  0  0  0  0  0  0
  180.6620  178.0290  142.3880 N   0  0  0  0  0  2  0  0  0  0  0  0
  181.7270  178.7430  139.7890 C   0  0  2  0  0  3  0  0  0  0  0  0
  182.2660  179.3780  141.0810 C   0  0  2  0  0  3  0  0  0  0  0  0
  181.0610  177.3960  140.0570 C   0  0  0  0  0  2  0  0  0  0  0  0
  1  9  1  0  0  0  0
  1 14  1  0  0  0  0
  2  5  1  6  0  0  0
  2  3  1  0  0  0  0
  3  7  1  1  0  0  0
  3 19  1  0  0  0  0
  4 11  1  1  0  0  0
  4 15  1  0  0  0  0
  5 14  2  0  0  0  0
  6  1  2  0  0  0  0
  7  4  1  0  0  0  0
  8 23  1  6  0  0  0
  8 13  1  0  0  0  0
 10 19  1  0  0  0  0
 12 16  1  0  0  0  0
 12  8  1  0  0  0  0
 13  2  1  0  0  0  0
 13 18  1  1  0  0  0
 16  5  1  0  0  0  0
 17  6  1  0  0  0  0
 17 16  2  0  0  0  0
 18 10  1  0  0  0  0
 19 20  2  0  0  0  0
 20 15  1  0  0  0  0
 21 22  2  0  0  0  0
 22 23  1  0  0  0  0
 24 27  1  1  0  0  0
 24 28  1  0  0  0  0
 25 28  1  0  0  0  0
 29 26  1  6  0  0  0
 29 31  1  0  0  0  0
 29 30  1  0  0  0  0
 30 22  1  1  0  0  0
 30 25  1  0  0  0  0
 31 24  1  0  0  0  0
M  END
>  <MODEL>
3

>  <REMARK>
 VINA RESULT:      -9.1      1.224      1.417
  Name = 
  2 active torsions:
  status: ('A' for Active; 'I' for Inactive)
    1  A    between atoms: C_5  and  C_30
    2  A    between atoms: C_10  and  N_16
                            x       y       z     vdW  Elec       q    Type
                         _______ _______ _______ _____ _____    ______ ____

>  <TORSDO>
F 2

$$$$
=
 OpenBabel11122411123D

 31 35  0  0  1  0  0  0  0  0999 V2000
  191.2110  176.4350  144.6080 C   0  0  0  0  0  0  0  0  0  0  0  0
  187.5720  177.1850  143.8020 C   0  0  2  0  0  3  0  0  0  0  0  0
  187.1160  178.2490  144.8270 C   0  0  2  0  0  3  0  0  0  0  0  0
  186.9800  178.8630  147.2500 C   0  0  2  0  0  3  0  0  0  0  0  0
  189.0780  177.1390  143.6860 C   0  0  0  0  0  0  0  0  0  0  0  0
  191.8810  177.1120  143.5880 C   0  0  0  0  0  3  0  0  0  0  0  0
  187.6020  177.9100  146.2410 C   0  0  0  0  0  2  0  0  0  0  0  0
  187.5370  178.6610  141.7530 C   0  0  2  0  0  3  0  0  0  0  0  0
  191.9140  175.7700  145.5560 F   0  0  0  0  0  0  0  0  0  0  0  0
  184.9540  178.6040  143.4420 C   0  0  0  0  0  2  0  0  0  0  0  0
  187.4980  178.6050  148.5180 O   0  0  0  0  0  1  0  0  0  0  0  0
  189.0300  178.4530  141.4980 C   0  0  0  0  0  2  0  0  0  0  0  0
  186.9340  177.4130  142.4150 C   0  0  2  0  0  3  0  0  0  0  0  0
  189.8160  176.4480  144.6560 C   0  0  0  0  0  3  0  0  0  0  0  0
  185.4720  178.6450  147.2630 C   0  0  0  0  0  2  0  0  0  0  0  0
  189.7590  177.8210  142.6510 C   0  0  0  0  0  0  0  0  0  0  0  0
  191.1560  177.7930  142.6090 C   0  0  0  0  0  3  0  0  0  0  0  0
  185.4050  177.4780  142.5190 C   0  0  0  0  0  2  0  0  0  0  0  0
  185.6100  178.4580  144.7750 C   0  0  0  0  0  0  0  0  0  0  0  0
  184.8920  178.7310  145.8770 C   0  0  0  0  0  3  0  0  0  0  0  0
  188.0090  177.2920  139.2970 O   0  0  0  0  0  0  0  0  0  0  0  0
  187.1440  178.2110  139.2960 C   0  0  0  0  0  0  0  0  0  0  0  0
  186.8670  178.9420  140.4900 N   0  0  0  0  0  2  0  0  0  0  0  0
  186.6650  176.5380  135.9900 C   0  0  1  0  0  3  0  0  0  0  0  0
  185.3320  177.5180  137.7020 C   0  0  0  0  0  2  0  0  0  0  0  0
  188.3880  179.6300  137.1530 O   0  0  0  0  0  1  0  0  0  0  0  0
  187.1360  175.3380  135.4620 O   0  0  0  0  0  1  0  0  0  0  0  0
  185.9420  176.2730  137.2330 N   0  0  0  0  0  2  0  0  0  0  0  0
  187.3230  178.7890  136.8280 C   0  0  2  0  0  3  0  0  0  0  0  0
  186.4040  178.5620  138.0380 C   0  0  2  0  0  3  0  0  0  0  0  0
  187.8420  177.4710  136.2580 C   0  0  0  0  0  2  0  0  0  0  0  0
  1 14  1  0  0  0  0
  1  9  1  0  0  0  0
  2  5  1  6  0  0  0
  2  3  1  0  0  0  0
  3  7  1  1  0  0  0
  4 15  1  0  0  0  0
  4 11  1  1  0  0  0
  5 14  2  0  0  0  0
  6  1  2  0  0  0  0
  7  4  1  0  0  0  0
  8 23  1  6  0  0  0
  8 13  1  0  0  0  0
 10 19  1  0  0  0  0
 12  8  1  0  0  0  0
 12 16  1  0  0  0  0
 13 18  1  1  0  0  0
 13  2  1  0  0  0  0
 16  5  1  0  0  0  0
 17 16  2  0  0  0  0
 17  6  1  0  0  0  0
 18 10  1  0  0  0  0
 19  3  1  0  0  0  0
 19 20  2  0  0  0  0
 20 15  1  0  0  0  0
 22 21  2  0  0  0  0
 22 23  1  0  0  0  0
 24 27  1  1  0  0  0
 24 31  1  0  0  0  0
 24 28  1  0  0  0  0
 25 30  1  0  0  0  0
 28 25  1  0  0  0  0
 29 26  1  1  0  0  0
 29 30  1  0  0  0  0
 30 22  1  1  0  0  0
 31 29  1  0  0  0  0
M  END
>  <MODEL>
4

>  <REMARK>
 VINA RESULT:      -9.0      2.822      3.237
  Name = 
  2 active torsions:
  status: ('A' for Active; 'I' for Inactive)
    1  A    between atoms: C_5  and  C_30
    2  A    between atoms: C_10  and  N_16
                            x       y       z     vdW  Elec       q    Type
                         _______ _______ _______ _____ _____    ______ ____

>  <TORSDO>
F 2

$$$$
=
 OpenBabel11122411123D

 31 35  0  0  1  0  0  0  0  0999 V2000
  191.2570  176.3720  144.2380 C   0  0  0  0  0  0  0  0  0  0  0  0
  187.5570  177.1650  143.8650 C   0  0  2  0  0  3  0  0  0  0  0  0
  187.2290  178.2050  144.9610 C   0  0  2  0  0  3  0  0  0  0  0  0
  187.3710  178.7580  147.3990 C   0  0  2  0  0  3  0  0  0  0  0  0
  189.0390  177.1130  143.5790 C   0  0  0  0  0  0  0  0  0  0  0  0
  191.8140  177.0720  143.1660 C   0  0  0  0  0  3  0  0  0  0  0  0
  187.8680  177.8270  146.3030 C   0  0  0  0  0  2  0  0  0  0  0  0
  187.3040  178.6920  141.8710 C   0  0  2  0  0  3  0  0  0  0  0  0
  192.0560  175.6800  145.0830 F   0  0  0  0  0  0  0  0  0  0  0  0
  184.9270  178.6080  143.8380 C   0  0  0  0  0  2  0  0  0  0  0  0
  188.0260  178.4650  148.5930 O   0  0  0  0  0  1  0  0  0  0  0  0
  188.7580  178.4820  141.4440 C   0  0  0  0  0  2  0  0  0  0  0  0
  186.7690  177.4320  142.5650 C   0  0  2  0  0  3  0  0  0  0  0  0
  189.8760  176.3930  144.4420 C   0  0  0  0  0  3  0  0  0  0  0  0
  185.8730  178.5480  147.5760 C   0  0  0  0  0  2  0  0  0  0  0  0
  189.6060  177.8160  142.4910 C   0  0  0  0  0  0  0  0  0  0  0  0
  190.9890  177.7820  142.2910 C   0  0  0  0  0  3  0  0  0  0  0  0
  185.2620  177.5030  142.8430 C   0  0  0  0  0  2  0  0  0  0  0  0
  185.7290  178.4240  145.0850 C   0  0  0  0  0  0  0  0  0  0  0  0
  185.1410  178.6730  146.2670 C   0  0  0  0  0  3  0  0  0  0  0  0
  187.5600  177.4600  139.3120 O   0  0  0  0  0  0  0  0  0  0  0  0
  186.6730  178.3470  139.4470 C   0  0  0  0  0  0  0  0  0  0  0  0
  186.4990  179.0100  140.6990 N   0  0  0  0  0  2  0  0  0  0  0  0
  183.8820  176.6720  137.6120 C   0  0  1  0  0  3  0  0  0  0  0  0
  184.3140  178.7520  138.6860 C   0  0  0  0  0  2  0  0  0  0  0  0
  187.3560  177.7050  136.7500 O   0  0  0  0  0  1  0  0  0  0  0  0
  183.2760  175.4250  137.7500 O   0  0  0  0  0  1  0  0  0  0  0  0
  183.8040  177.3940  138.8810 N   0  0  0  0  0  2  0  0  0  0  0  0
  186.0010  177.8520  137.0460 C   0  0  2  0  0  3  0  0  0  0  0  0
  185.7960  178.7310  138.2910 C   0  0  2  0  0  3  0  0  0  0  0  0
  185.3410  176.4850  137.2060 C   0  0  0  0  0  2  0  0  0  0  0  0
  1 14  1  0  0  0  0
  1  9  1  0  0  0  0
  2  5  1  6  0  0  0
  2  3  1  0  0  0  0
  3 19  1  0  0  0  0
  3  7  1  1  0  0  0
  4 15  1  0  0  0  0
  4 11  1  1  0  0  0
  5 14  2  0  0  0  0
  6  1  2  0  0  0  0
  7  4  1  0  0  0  0
  8 23  1  6  0  0  0
  8 13  1  0  0  0  0
 10 19  1  0  0  0  0
 12  8  1  0  0  0  0
 12 16  1  0  0  0  0
 13 18  1  1  0  0  0
 13  2  1  0  0  0  0
 16  5  1  0  0  0  0
 17 16  2  0  0  0  0
 17  6  1  0  0  0  0
 18 10  1  0  0  0  0
 19 20  2  0  0  0  0
 20 15  1  0  0  0  0
 21 22  2  0  0  0  0
 22 23  1  0  0  0  0
 24 27  1  1  0  0  0
 24 28  1  0  0  0  0
 25 28  1  0  0  0  0
 29 26  1  1  0  0  0
 29 31  1  0  0  0  0
 29 30  1  0  0  0  0
 30 25  1  0  0  0  0
 30 22  1  1  0  0  0
 31 24  1  0  0  0  0
M  END
>  <MODEL>
5

>  <REMARK>
 VINA RESULT:      -8.6      2.024      2.354
  Name = 
  2 active torsions:
  status: ('A' for Active; 'I' for Inactive)
    1  A    between atoms: C_5  and  C_30
    2  A    between atoms: C_10  and  N_16
                            x       y       z     vdW  Elec       q    Type
                         _______ _______ _______ _____ _____    ______ ____

>  <TORSDO>
F 2

$$$$
=
 OpenBabel11122411123D

 31 35  0  0  1  0  0  0  0  0999 V2000
  184.6640  178.9200  144.8310 C   0  0  0  0  0  0  0  0  0  0  0  0
  188.3920  178.5340  144.1910 C   0  0  2  0  0  3  0  0  0  0  0  0
  188.8640  177.3710  145.0940 C   0  0  2  0  0  3  0  0  0  0  0  0
  188.8970  176.4350  147.4160 C   0  0  2  0  0  3  0  0  0  0  0  0
  186.8970  178.4960  143.9760 C   0  0  0  0  0  0  0  0  0  0  0  0
  184.1110  178.3480  143.6840 C   0  0  0  0  0  3  0  0  0  0  0  0
  188.2670  177.4760  146.5030 C   0  0  0  0  0  2  0  0  0  0  0  0
  188.6650  177.3640  141.9710 C   0  0  2  0  0  3  0  0  0  0  0  0
  183.8560  179.3980  145.8070 F   0  0  0  0  0  0  0  0  0  0  0  0
  191.1280  177.3580  143.8310 C   0  0  0  0  0  2  0  0  0  0  0  0
  188.2850  176.4790  148.6670 O   0  0  0  0  0  1  0  0  0  0  0  0
  187.1780  177.5050  141.6410 C   0  0  0  0  0  2  0  0  0  0  0  0
  189.1290  178.5450  142.8360 C   0  0  2  0  0  3  0  0  0  0  0  0
  186.0510  178.9930  144.9750 C   0  0  0  0  0  3  0  0  0  0  0  0
  190.3800  176.7500  147.5650 C   0  0  0  0  0  2  0  0  0  0  0  0
  186.3340  177.9210  142.8130 C   0  0  0  0  0  0  0  0  0  0  0  0
  184.9440  177.8600  142.6760 C   0  0  0  0  0  3  0  0  0  0  0  0
  190.6490  178.5690  143.0390 C   0  0  0  0  0  2  0  0  0  0  0  0
  190.3810  177.2720  145.1220 C   0  0  0  0  0  0  0  0  0  0  0  0
  191.0500  176.8970  146.2250 C   0  0  0  0  0  3  0  0  0  0  0  0
  187.9210  178.6070  139.5150 O   0  0  0  0  0  0  0  0  0  0  0  0
  189.0040  177.9610  139.5380 C   0  0  0  0  0  0  0  0  0  0  0  0
  189.4300  177.3070  140.7320 N   0  0  0  0  0  2  0  0  0  0  0  0
  188.4820  176.5850  136.1040 C   0  0  1  0  0  3  0  0  0  0  0  0
  189.2330  178.6010  137.1200 C   0  0  0  0  0  2  0  0  0  0  0  0
  190.6270  175.6720  139.0100 O   0  0  0  0  0  1  0  0  0  0  0  0
  187.4000  175.9520  135.4950 O   0  0  0  0  0  1  0  0  0  0  0  0
  188.0600  177.8890  136.6110 N   0  0  0  0  0  2  0  0  0  0  0  0
  190.1870  176.4090  137.9100 C   0  0  2  0  0  3  0  0  0  0  0  0
  189.8570  177.8570  138.3060 C   0  0  2  0  0  3  0  0  0  0  0  0
  188.9960  175.7190  137.2500 C   0  0  0  0  0  2  0  0  0  0  0  0
  1 14  1  0  0  0  0
  1  9  1  0  0  0  0
  2  5  1  6  0  0  0
  2  3  1  0  0  0  0
  3 19  1  0  0  0  0
  3  7  1  1  0  0  0
  4 15  1  0  0  0  0
  4 11  1  1  0  0  0
  5 14  2  0  0  0  0
  6  1  2  0  0  0  0
  7  4  1  0  0  0  0
  8 23  1  6  0  0  0
  8 13  1  0  0  0  0
 10 19  1  0  0  0  0
 12  8  1  0  0  0  0
 12 16  1  0  0  0  0
 13 18  1  1  0  0  0
 13  2  1  0  0  0  0
 16  5  1  0  0  0  0
 17 16  2  0  0  0  0
 17  6  1  0  0  0  0
 18 10  1  0  0  0  0
 19 20  2  0  0  0  0
 20 15  1  0  0  0  0
 21 22  2  0  0  0  0
 22 23  1  0  0  0  0
 24 27  1  1  0  0  0
 24 28  1  0  0  0  0
 24 31  1  0  0  0  0
 25 30  1  0  0  0  0
 28 25  1  0  0  0  0
 29 30  1  0  0  0  0
 29 26  1  1  0  0  0
 30 22  1  1  0  0  0
 31 29  1  0  0  0  0
M  END
>  <MODEL>
6

>  <REMARK>
 VINA RESULT:      -8.2      3.555      5.467
  Name = 
  2 active torsions:
  status: ('A' for Active; 'I' for Inactive)
    1  A    between atoms: C_5  and  C_30
    2  A    between atoms: C_10  and  N_16
                            x       y       z     vdW  Elec       q    Type
                         _______ _______ _______ _____ _____    ______ ____

>  <TORSDO>
F 2

$$$$
=
 OpenBabel11122411123D

 31 35  0  0  1  0  0  0  0  0999 V2000
  193.3080  175.4110  135.7780 C   0  0  0  0  0  0  0  0  0  0  0  0
  190.0230  176.8160  137.0810 C   0  0  2  0  0  3  0  0  0  0  0  0
  189.0240  175.6360  137.0850 C   0  0  2  0  0  3  0  0  0  0  0  0
  188.0040  173.7830  135.7440 C   0  0  2  0  0  3  0  0  0  0  0  0
  191.4530  176.3280  137.0500 C   0  0  0  0  0  0  0  0  0  0  0  0
  194.0640  175.3080  136.9460 C   0  0  0  0  0  3  0  0  0  0  0  0
  189.1230  174.8120  135.7950 C   0  0  0  0  0  2  0  0  0  0  0  0
  190.2460  177.0700  139.5820 C   0  0  2  0  0  3  0  0  0  0  0  0
  193.8310  175.0120  134.5940 F   0  0  0  0  0  0  0  0  0  0  0  0
  187.3720  177.0870  138.4570 C   0  0  0  0  0  2  0  0  0  0  0  0
  188.1570  172.9810  134.6150 O   0  0  0  0  0  1  0  0  0  0  0  0
  191.7480  176.7840  139.5440 C   0  0  0  0  0  2  0  0  0  0  0  0
  189.8040  177.7580  138.2830 C   0  0  2  0  0  3  0  0  0  0  0  0
  192.0080  175.9190  135.8300 C   0  0  0  0  0  3  0  0  0  0  0  0
  186.6700  174.5160  135.6700 C   0  0  0  0  0  2  0  0  0  0  0  0
  192.2240  176.2270  138.2310 C   0  0  0  0  0  0  0  0  0  0  0  0
  193.5270  175.7240  138.1650 C   0  0  0  0  0  3  0  0  0  0  0  0
  188.3520  178.2490  138.3360 C   0  0  0  0  0  2  0  0  0  0  0  0
  187.6040  176.1130  137.3490 C   0  0  0  0  0  0  0  0  0  0  0  0
  186.5390  175.5330  136.7720 C   0  0  0  0  0  3  0  0  0  0  0  0
  190.0950  176.1760  142.2860 O   0  0  0  0  0  0  0  0  0  0  0  0
  189.8950  177.4020  142.0650 C   0  0  0  0  0  0  0  0  0  0  0  0
  189.9460  177.9130  140.7330 N   0  0  0  0  0  2  0  0  0  0  0  0
  190.7420  177.4860  145.7030 C   0  0  1  0  0  3  0  0  0  0  0  0
  190.8610  178.9260  143.8110 C   0  0  0  0  0  2  0  0  0  0  0  0
  187.6060  177.0570  143.7370 O   0  0  0  0  0  1  0  0  0  0  0  0
  191.4650  176.6230  146.5240 O   0  0  0  0  0  1  0  0  0  0  0  0
  191.5820  177.9130  144.5850 N   0  0  0  0  0  2  0  0  0  0  0  0
  188.7050  177.7160  144.2880 C   0  0  2  0  0  3  0  0  0  0  0  0
  189.5850  178.3410  143.1940 C   0  0  2  0  0  3  0  0  0  0  0  0
  189.5010  176.7670  145.1800 C   0  0  0  0  0  2  0  0  0  0  0  0
  1 14  2  0  0  0  0
  1  6  1  0  0  0  0
  2  5  1  1  0  0  0
  2  3  1  0  0  0  0
  2 13  1  0  0  0  0
  3  7  1  6  0  0  0
  3 19  1  0  0  0  0
  4 11  1  6  0  0  0
  4  7  1  0  0  0  0
  5 16  2  0  0  0  0
  6 17  2  0  0  0  0
  8 23  1  1  0  0  0
  9  1  1  0  0  0  0
 12  8  1  0  0  0  0
 13 18  1  1  0  0  0
 13  8  1  0  0  0  0
 14  5  1  0  0  0  0
 15  4  1  0  0  0  0
 15 20  1  0  0  0  0
 16 12  1  0  0  0  0
 17 16  1  0  0  0  0
 18 10  1  0  0  0  0
 19 10  1  0  0  0  0
 20 19  2  0  0  0  0
 22 21  2  0  0  0  0
 23 22  1  0  0  0  0
 24 27  1  1  0  0  0
 25 28  1  0  0  0  0
 28 24  1  0  0  0  0
 29 26  1  6  0  0  0
 29 31  1  0  0  0  0
 30 22  1  6  0  0  0
 30 25  1  0  0  0  0
 30 29  1  0  0  0  0
 31 24  1  0  0  0  0
M  END
>  <MODEL>
7

>  <REMARK>
 VINA RESULT:      -8.0      4.879      8.943
  Name = 
  2 active torsions:
  status: ('A' for Active; 'I' for Inactive)
    1  A    between atoms: C_5  and  C_30
    2  A    between atoms: C_10  and  N_16
                            x       y       z     vdW  Elec       q    Type
                         _______ _______ _______ _____ _____    ______ ____

>  <TORSDO>
F 2

$$$$
=
 OpenBabel11122411123D

 31 35  0  0  1  0  0  0  0  0999 V2000
  183.9120  178.7410  144.5640 C   0  0  0  0  0  0  0  0  0  0  0  0
  182.7930  178.1310  140.9820 C   0  0  2  0  0  3  0  0  0  0  0  0
  181.8140  179.2770  140.6380 C   0  0  2  0  0  3  0  0  0  0  0  0
  179.7650  180.5320  141.3430 C   0  0  2  0  0  3  0  0  0  0  0  0
  183.6680  178.4870  142.1610 C   0  0  0  0  0  0  0  0  0  0  0  0
  185.2040  179.2400  144.3850 C   0  0  0  0  0  3  0  0  0  0  0  0
  180.8300  179.5390  141.7840 C   0  0  0  0  0  2  0  0  0  0  0  0
  184.6820  178.8400  139.4650 C   0  0  2  0  0  3  0  0  0  0  0  0
  183.3970  178.6270  145.8110 F   0  0  0  0  0  0  0  0  0  0  0  0
  181.9040  178.5570  138.1490 C   0  0  0  0  0  2  0  0  0  0  0  0
  178.9310  180.8310  142.4180 O   0  0  0  0  0  1  0  0  0  0  0  0
  185.6490  179.0030  140.6380 C   0  0  0  0  0  2  0  0  0  0  0  0
  183.6620  177.7340  139.7700 C   0  0  2  0  0  3  0  0  0  0  0  0
  183.1490  178.3670  143.4570 C   0  0  0  0  0  3  0  0  0  0  0  0
  178.9450  179.9030  140.2230 C   0  0  0  0  0  2  0  0  0  0  0  0
  184.9780  178.9890  141.9830 C   0  0  0  0  0  0  0  0  0  0  0  0
  185.7360  179.3530  143.1000 C   0  0  0  0  0  3  0  0  0  0  0  0
  182.7870  177.3840  138.5600 C   0  0  0  0  0  2  0  0  0  0  0  0
  181.1000  179.0190  139.3200 C   0  0  0  0  0  0  0  0  0  0  0  0
  179.8270  179.3940  139.1150 C   0  0  0  0  0  3  0  0  0  0  0  0
  187.4560  178.1820  139.3830 O   0  0  0  0  0  0  0  0  0  0  0  0
  186.8240  178.1890  138.2900 C   0  0  0  0  0  0  0  0  0  0  0  0
  185.4360  178.5200  138.2600 N   0  0  0  0  0  2  0  0  0  0  0  0
  189.7410  176.0450  137.3660 C   0  0  1  0  0  3  0  0  0  0  0  0
  187.4800  176.3640  136.6950 C   0  0  0  0  0  2  0  0  0  0  0  0
  189.0550  179.7070  137.3560 O   0  0  0  0  0  1  0  0  0  0  0  0
  190.6040  175.2500  138.1170 O   0  0  0  0  0  1  0  0  0  0  0  0
  188.3620  175.6180  137.5940 N   0  0  0  0  0  2  0  0  0  0  0  0
  188.9730  178.3760  136.9450 C   0  0  2  0  0  3  0  0  0  0  0  0
  187.5240  177.8650  137.0020 C   0  0  2  0  0  3  0  0  0  0  0  0
  189.9120  177.5050  137.7760 C   0  0  0  0  0  2  0  0  0  0  0  0
  1  9  1  0  0  0  0
  2  5  1  1  0  0  0
  3  2  1  0  0  0  0
  3  7  1  1  0  0  0
  4  7  1  0  0  0  0
  4 11  1  1  0  0  0
  5 14  1  0  0  0  0
  6  1  1  0  0  0  0
  8 23  1  6  0  0  0
  8 13  1  0  0  0  0
  8 12  1  0  0  0  0
 10 18  1  0  0  0  0
 10 19  1  0  0  0  0
 12 16  1  0  0  0  0
 13 18  1  6  0  0  0
 13  2  1  0  0  0  0
 14  1  2  0  0  0  0
 15  4  1  0  0  0  0
 16  5  2  0  0  0  0
 16 17  1  0  0  0  0
 17  6  2  0  0  0  0
 19  3  1  0  0  0  0
 20 19  2  0  0  0  0
 20 15  1  0  0  0  0
 22 21  2  0  0  0  0
 23 22  1  0  0  0  0
 24 28  1  0  0  0  0
 24 31  1  0  0  0  0
 24 27  1  1  0  0  0
 25 30  1  0  0  0  0
 25 28  1  0  0  0  0
 29 30  1  0  0  0  0
 29 26  1  1  0  0  0
 29 31  1  0  0  0  0
 30 22  1  1  0  0  0
M  END
>  <MODEL>
8

>  <REMARK>
 VINA RESULT:      -7.8      3.880      7.233
  Name = 
  2 active torsions:
  status: ('A' for Active; 'I' for Inactive)
    1  A    between atoms: C_5  and  C_30
    2  A    between atoms: C_10  and  N_16
                            x       y       z     vdW  Elec       q    Type
                         _______ _______ _______ _____ _____    ______ ____

>  <TORSDO>
F 2

$$$$
=
 OpenBabel11122411123D

 31 35  0  0  1  0  0  0  0  0999 V2000
  190.6380  176.7970  139.8820 C   0  0  0  0  0  0  0  0  0  0  0  0
  187.9380  177.1200  142.5390 C   0  0  2  0  0  3  0  0  0  0  0  0
  188.5870  177.8810  143.7190 C   0  0  2  0  0  3  0  0  0  0  0  0
  190.5250  177.9820  145.3000 C   0  0  2  0  0  3  0  0  0  0  0  0
  188.7090  177.3300  141.2560 C   0  0  0  0  0  0  0  0  0  0  0  0
  190.2430  177.7550  138.9470 C   0  0  0  0  0  3  0  0  0  0  0  0
  189.9940  177.3510  144.0220 C   0  0  0  0  0  2  0  0  0  0  0  0
  186.3580  178.9440  141.7980 C   0  0  2  0  0  3  0  0  0  0  0  0
  191.7660  176.0760  139.6780 F   0  0  0  0  0  0  0  0  0  0  0  0
  186.2390  178.1620  144.7810 C   0  0  0  0  0  2  0  0  0  0  0  0
  191.8370  177.5640  145.5170 O   0  0  0  0  0  1  0  0  0  0  0  0
  186.9960  179.0230  140.4100 C   0  0  0  0  0  2  0  0  0  0  0  0
  186.4580  177.5140  142.3460 C   0  0  2  0  0  3  0  0  0  0  0  0
  189.8740  176.5860  141.0310 C   0  0  0  0  0  3  0  0  0  0  0  0
  189.6510  177.5350  146.4650 C   0  0  0  0  0  2  0  0  0  0  0  0
  188.3090  178.2980  140.3060 C   0  0  0  0  0  0  0  0  0  0  0  0
  189.0780  178.4950  139.1550 C   0  0  0  0  0  3  0  0  0  0  0  0
  185.6670  177.3200  143.6460 C   0  0  0  0  0  2  0  0  0  0  0  0
  187.6920  177.8620  144.9490 C   0  0  0  0  0  0  0  0  0  0  0  0
  188.1950  177.8000  146.1930 C   0  0  0  0  0  3  0  0  0  0  0  0
  184.5160  178.1260  139.7800 O   0  0  0  0  0  0  0  0  0  0  0  0
  184.0910  178.9050  140.6780 C   0  0  0  0  0  0  0  0  0  0  0  0
  184.9640  179.3600  141.7110 N   0  0  0  0  0  2  0  0  0  0  0  0
  180.9630  177.7440  138.9960 C   0  0  1  0  0  3  0  0  0  0  0  0
  181.7070  178.3010  141.1870 C   0  0  0  0  0  2  0  0  0  0  0  0
  183.1290  180.7640  138.7360 O   0  0  0  0  0  1  0  0  0  0  0  0
  180.6970  176.6960  138.1170 O   0  0  0  0  0  1  0  0  0  0  0  0
  181.5640  177.2130  140.2190 N   0  0  0  0  0  2  0  0  0  0  0  0
  182.1990  179.8850  139.2930 C   0  0  2  0  0  3  0  0  0  0  0  0
  182.6660  179.3780  140.6660 C   0  0  2  0  0  3  0  0  0  0  0  0
  181.9160  178.7330  138.3320 C   0  0  0  0  0  2  0  0  0  0  0  0
  1 14  1  0  0  0  0
  2  5  1  6  0  0  0
  2  3  1  0  0  0  0
  3  7  1  1  0  0  0
  3 19  1  0  0  0  0
  4 11  1  1  0  0  0
  4 15  1  0  0  0  0
  6 17  1  0  0  0  0
  6  1  2  0  0  0  0
  7  4  1  0  0  0  0
  8 23  1  6  0  0  0
  8 13  1  0  0  0  0
  9  1  1  0  0  0  0
 10 19  1  0  0  0  0
 12  8  1  0  0  0  0
 13  2  1  0  0  0  0
 13 18  1  1  0  0  0
 14  5  2  0  0  0  0
 16 12  1  0  0  0  0
 16  5  1  0  0  0  0
 17 16  2  0  0  0  0
 18 10  1  0  0  0  0
 19 20  2  0  0  0  0
 20 15  1  0  0  0  0
 21 22  2  0  0  0  0
 22 23  1  0  0  0  0
 24 27  1  6  0  0  0
 24 28  1  0  0  0  0
 28 25  1  0  0  0  0
 29 26  1  6  0  0  0
 29 30  1  0  0  0  0
 30 22  1  6  0  0  0
 30 25  1  0  0  0  0
 31 24  1  0  0  0  0
 31 29  1  0  0  0  0
M  END
>  <MODEL>
9

>  <REMARK>
 VINA RESULT:      -7.7      1.478      1.996
  Name = 
  2 active torsions:
  status: ('A' for Active; 'I' for Inactive)
    1  A    between atoms: C_5  and  C_30
    2  A    between atoms: C_10  and  N_16
                            x       y       z     vdW  Elec       q    Type
                         _______ _______ _______ _____ _____    ______ ____

>  <TORSDO>
F 2

$$$$
