=
 OpenBabel11122411483D

 37 41  0  0  1  0  0  0  0  0999 V2000
  186.5510  177.4030  144.7210 C   0  0  1  0  0  3  0  0  0  0  0  0
  185.2140  178.0100  141.3140 O   0  0  0  0  0  0  0  0  0  0  0  0
  188.8590  177.2370  145.7610 C   0  0  2  0  0  3  0  0  0  0  0  0
  186.6590  177.8790  143.3220 C   0  0  2  0  0  3  0  0  0  0  0  0
  187.8040  176.5730  144.8560 C   0  0  2  0  0  3  0  0  0  0  0  0
  185.2410  177.8960  142.7210 C   0  0  1  0  0  3  0  0  0  0  0  0
  188.2280  177.7780  147.0570 C   0  0  0  0  0  2  0  0  0  0  0  0
  188.3310  176.3130  143.5730 O   0  0  0  0  0  0  0  0  0  0  0  0
  185.1640  179.0820  145.6780 C   0  0  0  0  0  2  0  0  0  0  0  0
  186.7900  178.0460  146.9310 N   0  0  0  0  0  2  0  0  0  0  0  0
  187.0210  179.5020  141.1450 O   0  0  0  0  0  0  0  0  0  0  0  0
  185.6460  179.2970  140.9170 C   0  0  0  0  0  2  0  0  0  0  0  0
  186.5240  178.5460  145.6420 N   0  0  1  0  0  0  0  0  0  0  0  0
  187.5420  176.9350  142.6340 N   0  0  2  0  0  0  0  0  0  0  0  0
  184.3180  178.8450  143.3810 N   0  0  0  0  0  0  0  0  0  0  0  0
  187.7040  178.4000  140.6150 C   0  0  0  0  0  2  0  0  0  0  0  0
  188.4560  177.6620  141.7270 C   0  0  2  0  0  3  0  0  0  0  0  0
  184.8200  179.8020  144.3740 C   0  0  0  0  0  2  0  0  0  0  0  0
  182.0030  178.6980  144.2480 C   0  0  0  0  0  3  0  0  0  0  0  0
  182.8960  178.7370  143.1630 C   0  0  0  0  0  0  0  0  0  0  0  0
  182.3750  178.6690  141.8590 C   0  0  0  0  0  3  0  0  0  0  0  0
  180.3690  178.4830  140.0150 Cl  0  0  0  0  0  0  0  0  0  0  0  0
  180.1230  178.5280  142.7340 C   0  0  0  0  0  3  0  0  0  0  0  0
  180.9980  178.5650  141.6460 C   0  0  0  0  0  0  0  0  0  0  0  0
  180.6250  178.5940  144.0350 C   0  0  0  0  0  3  0  0  0  0  0  0
  189.4340  176.6660  141.0730 C   0  0  0  0  0  2  0  0  0  0  0  0
  190.4870  177.2800  140.2470 N   0  0  0  0  0  0  0  0  0  0  0  0
  192.8600  177.4260  140.1450 N   0  0  0  0  0  1  0  0  0  0  0  0
  191.7050  177.4650  141.0250 C   0  0  0  0  0  2  0  0  0  0  0  0
  190.7960  176.4310  139.1040 C   0  0  0  0  0  2  0  0  0  0  0  0
  189.7580  176.6230  138.0140 C   0  0  0  0  0  2  0  0  0  0  0  0
  189.6440  177.9770  137.6950 O   0  0  0  0  0  1  0  0  0  0  0  0
  189.5010  178.2890  145.0820 O   0  0  0  0  0  0  0  0  0  0  0  0
  190.8590  177.9450  144.9250 C   0  0  0  0  0  0  0  0  0  0  0  0
  190.9950  176.8070  144.1450 F   0  0  0  0  0  0  0  0  0  0  0  0
  191.5700  178.9900  144.3560 F   0  0  0  0  0  0  0  0  0  0  0  0
  191.3920  177.6790  146.1710 F   0  0  0  0  0  0  0  0  0  0  0  0
  1  5  1  0  0  0  0
  1 13  1  0  0  0  0
  2  6  1  0  0  0  0
  3  7  1  0  0  0  0
  4  1  1  0  0  0  0
  5  3  1  0  0  0  0
  6  4  1  0  0  0  0
  6 15  1  0  0  0  0
  8  5  1  0  0  0  0
 10  7  1  0  0  0  0
 12 11  1  0  0  0  0
 12  2  1  0  0  0  0
 13  9  1  0  0  0  0
 13 10  1  0  0  0  0
 14  4  1  0  0  0  0
 14  8  1  0  0  0  0
 15 18  1  0  0  0  0
 16 11  1  0  0  0  0
 16 17  1  0  0  0  0
 17 14  1  0  0  0  0
 18  9  1  0  0  0  0
 20 15  1  0  0  0  0
 20 19  2  0  0  0  0
 21 20  1  0  0  0  0
 22 24  1  0  0  0  0
 23 25  2  0  0  0  0
 24 21  2  0  0  0  0
 24 23  1  0  0  0  0
 25 19  1  0  0  0  0
 26 17  1  0  0  0  0
 27 29  1  0  0  0  0
 27 26  1  0  0  0  0
 28 29  1  0  0  0  0
 30 27  1  0  0  0  0
 31 30  1  0  0  0  0
 32 31  1  0  0  0  0
 33  3  1  0  0  0  0
 34 33  1  0  0  0  0
 34 37  1  0  0  0  0
 35 34  1  0  0  0  0
 36 34  1  0  0  0  0
M  END
>  <MODEL>
1

>  <REMARK>
 VINA RESULT:      -8.1      0.000      0.000
  Name = 
  8 active torsions:
  status: ('A' for Active; 'I' for Inactive)
    1  A    between atoms: C_1  and  N_4
    2  A    between atoms: C_1  and  C_27
    3  A    between atoms: C_2  and  O_22
    4  A    between atoms: N_4  and  C_12
    5  A    between atoms: N_4  and  C_37
    6  A    between atoms: C_6  and  O_22
    7  A    between atoms: C_8  and  C_12
    8  A    between atoms: N_23  and  C_30
                            x       y       z     vdW  Elec       q    Type
                         _______ _______ _______ _____ _____    ______ ____

>  <TORSDO>
F 8

$$$$
=
 OpenBabel11122411483D

 37 41  0  0  1  0  0  0  0  0999 V2000
  187.2300  177.2780  143.1820 C   0  0  1  0  0  3  0  0  0  0  0  0
  190.8660  177.2610  142.4430 O   0  0  0  0  0  0  0  0  0  0  0  0
  185.7930  177.8030  145.2050 C   0  0  2  0  0  3  0  0  0  0  0  0
  188.6360  177.6630  143.4460 C   0  0  2  0  0  3  0  0  0  0  0  0
  186.7800  176.8210  144.5480 C   0  0  2  0  0  3  0  0  0  0  0  0
  189.4720  177.2610  142.2160 C   0  0  1  0  0  3  0  0  0  0  0  0
  184.7010  178.2520  144.2160 C   0  0  0  0  0  2  0  0  0  0  0  0
  187.9110  176.6170  145.3670 O   0  0  0  0  0  0  0  0  0  0  0  0
  186.7400  178.5960  141.2640 C   0  0  0  0  0  2  0  0  0  0  0  0
  185.1070  178.1210  142.8110 N   0  0  0  0  0  2  0  0  0  0  0  0
  190.8980  179.1620  143.8240 O   0  0  0  0  0  0  0  0  0  0  0  0
  191.3350  178.5850  142.6150 C   0  0  0  0  0  2  0  0  0  0  0  0
  186.4730  178.4370  142.6920 N   0  0  1  0  0  0  0  0  0  0  0  0
  189.0410  176.9390  144.6520 N   0  0  2  0  0  0  0  0  0  0  0  0
  189.1030  177.9780  140.9770 N   0  0  0  0  0  0  0  0  0  0  0  0
  191.1640  178.2440  144.8480 C   0  0  0  0  0  2  0  0  0  0  0  0
  189.8570  177.8130  145.5210 C   0  0  2  0  0  3  0  0  0  0  0  0
  188.1610  179.1030  141.0200 C   0  0  0  0  0  2  0  0  0  0  0  0
  190.5340  176.4820  139.6170 C   0  0  0  0  0  3  0  0  0  0  0  0
  189.5490  177.4830  139.6970 C   0  0  0  0  0  0  0  0  0  0  0  0
  189.0070  177.9900  138.5040 C   0  0  0  0  0  3  0  0  0  0  0  0
  188.7490  178.1570  135.7900 Cl  0  0  0  0  0  0  0  0  0  0  0  0
  190.4160  176.5170  137.2010 C   0  0  0  0  0  3  0  0  0  0  0  0
  189.4370  177.5110  137.2640 C   0  0  0  0  0  0  0  0  0  0  0  0
  190.9650  176.0020  138.3770 C   0  0  0  0  0  3  0  0  0  0  0  0
  190.2060  177.0660  146.8250 C   0  0  0  0  0  2  0  0  0  0  0  0
  191.6200  176.6810  146.9610 N   0  0  0  0  0  0  0  0  0  0  0  0
  193.2110  176.0120  148.5990 N   0  0  0  0  0  1  0  0  0  0  0  0
  192.0730  176.8740  148.3330 C   0  0  0  0  0  2  0  0  0  0  0  0
  191.8010  175.2790  146.6100 C   0  0  0  0  0  2  0  0  0  0  0  0
  192.1930  175.1520  145.1490 C   0  0  0  0  0  2  0  0  0  0  0  0
  192.5790  173.8410  144.8700 O   0  0  0  0  0  1  0  0  0  0  0  0
  186.4730  178.9360  145.6920 O   0  0  0  0  0  0  0  0  0  0  0  0
  186.2240  179.0360  147.0750 C   0  0  0  0  0  0  0  0  0  0  0  0
  186.1130  180.3620  147.4640 F   0  0  0  0  0  0  0  0  0  0  0  0
  185.0700  178.3490  147.4200 F   0  0  0  0  0  0  0  0  0  0  0  0
  187.2880  178.4750  147.7550 F   0  0  0  0  0  0  0  0  0  0  0  0
  1  4  1  0  0  0  0
  1  5  1  0  0  0  0
  2 12  1  0  0  0  0
  3 33  1  0  0  0  0
  4 14  1  0  0  0  0
  5  3  1  0  0  0  0
  5  8  1  0  0  0  0
  6  2  1  0  0  0  0
  6  4  1  0  0  0  0
  7  3  1  0  0  0  0
  9 13  1  0  0  0  0
 10  7  1  0  0  0  0
 11 16  1  0  0  0  0
 12 11  1  0  0  0  0
 13 10  1  0  0  0  0
 13  1  1  0  0  0  0
 14  8  1  0  0  0  0
 14 17  1  0  0  0  0
 15 18  1  0  0  0  0
 15  6  1  0  0  0  0
 16 17  1  0  0  0  0
 17 26  1  0  0  0  0
 18  9  1  0  0  0  0
 19 20  1  0  0  0  0
 20 15  1  0  0  0  0
 21 20  2  0  0  0  0
 22 24  1  0  0  0  0
 23 24  2  0  0  0  0
 23 25  1  0  0  0  0
 24 21  1  0  0  0  0
 25 19  2  0  0  0  0
 26 27  1  0  0  0  0
 27 29  1  0  0  0  0
 29 28  1  0  0  0  0
 30 27  1  0  0  0  0
 31 30  1  0  0  0  0
 32 31  1  0  0  0  0
 33 34  1  0  0  0  0
 34 36  1  0  0  0  0
 34 35  1  0  0  0  0
 34 37  1  0  0  0  0
M  END
>  <MODEL>
2

>  <REMARK>
 VINA RESULT:      -7.5      3.275      6.466
  Name = 
  8 active torsions:
  status: ('A' for Active; 'I' for Inactive)
    1  A    between atoms: C_1  and  N_4
    2  A    between atoms: C_1  and  C_27
    3  A    between atoms: C_2  and  O_22
    4  A    between atoms: N_4  and  C_12
    5  A    between atoms: N_4  and  C_37
    6  A    between atoms: C_6  and  O_22
    7  A    between atoms: C_8  and  C_12
    8  A    between atoms: N_23  and  C_30
                            x       y       z     vdW  Elec       q    Type
                         _______ _______ _______ _____ _____    ______ ____

>  <TORSDO>
F 8

$$$$
=
 OpenBabel11122411483D

 37 41  0  0  1  0  0  0  0  0999 V2000
  186.5030  178.7820  142.7220 C   0  0  1  0  0  3  0  0  0  0  0  0
  189.9380  177.4960  143.2810 O   0  0  0  0  0  0  0  0  0  0  0  0
  184.9390  178.9720  140.7340 C   0  0  2  0  0  3  0  0  0  0  0  0
  187.6880  177.9710  142.3580 C   0  0  2  0  0  3  0  0  0  0  0  0
  186.2120  179.4940  141.4240 C   0  0  2  0  0  3  0  0  0  0  0  0
  188.6320  177.9460  143.5760 C   0  0  1  0  0  3  0  0  0  0  0  0
  183.7770  178.8260  141.7350 C   0  0  0  0  0  2  0  0  0  0  0  0
  187.3310  179.3810  140.5710 O   0  0  0  0  0  0  0  0  0  0  0  0
  185.6250  177.5290  144.5430 C   0  0  0  0  0  2  0  0  0  0  0  0
  184.2260  178.6760  143.1240 N   0  0  0  0  0  2  0  0  0  0  0  0
  189.2950  175.8390  141.7440 O   0  0  0  0  0  0  0  0  0  0  0  0
  189.9240  176.1150  142.9750 C   0  0  0  0  0  2  0  0  0  0  0  0
  185.4040  177.9060  143.1480 N   0  0  1  0  0  0  0  0  0  0  0  0
  188.2950  178.6290  141.1990 N   0  0  2  0  0  0  0  0  0  0  0  0
  188.0610  177.2800  144.7660 N   0  0  0  0  0  0  0  0  0  0  0  0
  189.8420  176.7070  140.7890 C   0  0  0  0  0  2  0  0  0  0  0  0
  188.7480  177.6180  140.2200 C   0  0  2  0  0  3  0  0  0  0  0  0
  186.7910  176.5500  144.6740 C   0  0  0  0  0  2  0  0  0  0  0  0
  188.0130  178.1970  147.0660 C   0  0  0  0  0  3  0  0  0  0  0  0
  188.6720  177.4690  146.0600 C   0  0  0  0  0  0  0  0  0  0  0  0
  189.9390  176.9280  146.3390 C   0  0  0  0  0  3  0  0  0  0  0  0
  192.1100  176.4270  147.9180 Cl  0  0  0  0  0  0  0  0  0  0  0  0
  189.8650  177.8350  148.5810 C   0  0  0  0  0  3  0  0  0  0  0  0
  190.5320  177.1090  147.5910 C   0  0  0  0  0  0  0  0  0  0  0  0
  188.6070  178.3790  148.3190 C   0  0  0  0  0  3  0  0  0  0  0  0
  189.3090  178.3250  138.9700 C   0  0  0  0  0  2  0  0  0  0  0  0
  189.0280  177.6470  137.6940 N   0  0  0  0  0  0  0  0  0  0  0  0
  187.5900  179.4040  136.9790 N   0  0  0  0  0  1  0  0  0  0  0  0
  188.7670  178.6230  136.6430 C   0  0  0  0  0  2  0  0  0  0  0  0
  190.1640  176.8300  137.2910 C   0  0  0  0  0  2  0  0  0  0  0  0
  189.7850  175.3600  137.3130 C   0  0  0  0  0  2  0  0  0  0  0  0
  190.7410  174.6310  138.0210 O   0  0  0  0  0  1  0  0  0  0  0  0
  185.1820  177.7290  140.1210 O   0  0  0  0  0  0  0  0  0  0  0  0
  184.7760  177.8170  138.7750 C   0  0  0  0  0  0  0  0  0  0  0  0
  184.6530  179.1410  138.3800 F   0  0  0  0  0  0  0  0  0  0  0  0
  185.6720  177.1630  137.9440 F   0  0  0  0  0  0  0  0  0  0  0  0
  183.5390  177.2140  138.6480 F   0  0  0  0  0  0  0  0  0  0  0  0
  1 13  1  0  0  0  0
  2  6  1  0  0  0  0
  3  5  1  0  0  0  0
  3  7  1  0  0  0  0
  4  1  1  0  0  0  0
  4  6  1  0  0  0  0
  5  1  1  0  0  0  0
  6 15  1  0  0  0  0
  7 10  1  0  0  0  0
  8 14  1  0  0  0  0
  8  5  1  0  0  0  0
  9 18  1  0  0  0  0
 10 13  1  0  0  0  0
 11 12  1  0  0  0  0
 12  2  1  0  0  0  0
 13  9  1  0  0  0  0
 14  4  1  0  0  0  0
 15 20  1  0  0  0  0
 16 11  1  0  0  0  0
 17 16  1  0  0  0  0
 17 14  1  0  0  0  0
 18 15  1  0  0  0  0
 19 25  1  0  0  0  0
 20 21  1  0  0  0  0
 20 19  2  0  0  0  0
 21 24  2  0  0  0  0
 24 22  1  0  0  0  0
 24 23  1  0  0  0  0
 25 23  2  0  0  0  0
 26 17  1  0  0  0  0
 27 26  1  0  0  0  0
 29 28  1  0  0  0  0
 29 27  1  0  0  0  0
 30 31  1  0  0  0  0
 30 27  1  0  0  0  0
 31 32  1  0  0  0  0
 33  3  1  0  0  0  0
 34 33  1  0  0  0  0
 35 34  1  0  0  0  0
 36 34  1  0  0  0  0
 37 34  1  0  0  0  0
M  END
>  <MODEL>
3

>  <REMARK>
 VINA RESULT:      -6.7      4.036      6.426
  Name = 
  8 active torsions:
  status: ('A' for Active; 'I' for Inactive)
    1  A    between atoms: C_1  and  N_4
    2  A    between atoms: C_1  and  C_27
    3  A    between atoms: C_2  and  O_22
    4  A    between atoms: N_4  and  C_12
    5  A    between atoms: N_4  and  C_37
    6  A    between atoms: C_6  and  O_22
    7  A    between atoms: C_8  and  C_12
    8  A    between atoms: N_23  and  C_30
                            x       y       z     vdW  Elec       q    Type
                         _______ _______ _______ _____ _____    ______ ____

>  <TORSDO>
F 8

$$$$
=
 OpenBabel11122411483D

 37 41  0  0  1  0  0  0  0  0999 V2000
  184.8160  177.5470  137.0430 C   0  0  1  0  0  3  0  0  0  0  0  0
  184.9360  179.8180  139.9750 O   0  0  0  0  0  0  0  0  0  0  0  0
  186.3310  175.7620  136.0680 C   0  0  2  0  0  3  0  0  0  0  0  0
  185.3180  177.9670  138.3720 C   0  0  2  0  0  3  0  0  0  0  0  0
  186.1030  177.2660  136.3080 C   0  0  2  0  0  3  0  0  0  0  0  0
  184.4030  179.0960  138.8840 C   0  0  1  0  0  3  0  0  0  0  0  0
  185.0550  175.0760  135.5450 C   0  0  0  0  0  2  0  0  0  0  0  0
  187.1810  177.8320  137.0220 O   0  0  0  0  0  0  0  0  0  0  0  0
  182.6300  176.7850  137.5910 C   0  0  0  0  0  2  0  0  0  0  0  0
  183.8260  175.8000  135.8920 N   0  0  0  0  0  2  0  0  0  0  0  0
  185.9220  177.9720  141.0440 O   0  0  0  0  0  0  0  0  0  0  0  0
  184.9680  179.0060  141.1330 C   0  0  0  0  0  2  0  0  0  0  0  0
  183.9660  176.3580  137.1770 N   0  0  1  0  0  0  0  0  0  0  0  0
  186.6950  178.4200  138.1670 N   0  0  2  0  0  0  0  0  0  0  0  0
  183.0030  178.6780  139.1160 N   0  0  0  0  0  0  0  0  0  0  0  0
  187.1280  178.5480  140.6260 C   0  0  0  0  0  2  0  0  0  0  0  0
  187.5540  177.9570  139.2770 C   0  0  2  0  0  3  0  0  0  0  0  0
  182.6270  177.2610  139.0430 C   0  0  0  0  0  2  0  0  0  0  0  0
  180.9890  179.5460  140.2660 C   0  0  0  0  0  3  0  0  0  0  0  0
  181.9700  179.6740  139.2670 C   0  0  0  0  0  0  0  0  0  0  0  0
  181.9250  180.7930  138.4180 C   0  0  0  0  0  3  0  0  0  0  0  0
  180.8880  183.1450  137.4960 Cl  0  0  0  0  0  0  0  0  0  0  0  0
  179.9570  181.6180  139.5600 C   0  0  0  0  0  3  0  0  0  0  0  0
  180.9260  181.7590  138.5630 C   0  0  0  0  0  0  0  0  0  0  0  0
  179.9880  180.5120  140.4110 C   0  0  0  0  0  3  0  0  0  0  0  0
  189.0150  178.3680  139.0070 C   0  0  0  0  0  2  0  0  0  0  0  0
  189.9880  177.2640  139.0390 N   0  0  0  0  0  0  0  0  0  0  0  0
  191.9740  176.4920  137.9800 N   0  0  0  0  0  1  0  0  0  0  0  0
  190.7130  177.1850  137.7780 C   0  0  0  0  0  2  0  0  0  0  0  0
  190.9530  177.4680  140.1120 C   0  0  0  0  0  2  0  0  0  0  0  0
  190.4650  176.8040  141.3870 C   0  0  0  0  0  2  0  0  0  0  0  0
  190.1770  177.7730  142.3490 O   0  0  0  0  0  1  0  0  0  0  0  0
  186.7460  175.1290  137.2540 O   0  0  0  0  0  0  0  0  0  0  0  0
  187.7670  174.2140  136.9290 C   0  0  0  0  0  0  0  0  0  0  0  0
  188.0050  174.2020  135.5630 F   0  0  0  0  0  0  0  0  0  0  0  0
  188.9370  174.5190  137.6050 F   0  0  0  0  0  0  0  0  0  0  0  0
  187.3590  172.9480  137.3060 F   0  0  0  0  0  0  0  0  0  0  0  0
  1 13  1  0  0  0  0
  1  4  1  0  0  0  0
  2 12  1  0  0  0  0
  3  5  1  0  0  0  0
  3 33  1  0  0  0  0
  4  6  1  0  0  0  0
  5  8  1  0  0  0  0
  5  1  1  0  0  0  0
  6 15  1  0  0  0  0
  6  2  1  0  0  0  0
  7 10  1  0  0  0  0
  7  3  1  0  0  0  0
  8 14  1  0  0  0  0
  9 18  1  0  0  0  0
 10 13  1  0  0  0  0
 11 12  1  0  0  0  0
 13  9  1  0  0  0  0
 14  4  1  0  0  0  0
 14 17  1  0  0  0  0
 15 20  1  0  0  0  0
 16 11  1  0  0  0  0
 17 16  1  0  0  0  0
 18 15  1  0  0  0  0
 19 25  1  0  0  0  0
 20 19  2  0  0  0  0
 21 24  2  0  0  0  0
 21 20  1  0  0  0  0
 22 24  1  0  0  0  0
 23 25  2  0  0  0  0
 24 23  1  0  0  0  0
 26 27  1  0  0  0  0
 26 17  1  0  0  0  0
 27 30  1  0  0  0  0
 29 28  1  0  0  0  0
 29 27  1  0  0  0  0
 30 31  1  0  0  0  0
 31 32  1  0  0  0  0
 34 33  1  0  0  0  0
 34 37  1  0  0  0  0
 34 36  1  0  0  0  0
 35 34  1  0  0  0  0
M  END
>  <MODEL>
4

>  <REMARK>
 VINA RESULT:      -6.5      4.243      6.409
  Name = 
  8 active torsions:
  status: ('A' for Active; 'I' for Inactive)
    1  A    between atoms: C_1  and  N_4
    2  A    between atoms: C_1  and  C_27
    3  A    between atoms: C_2  and  O_22
    4  A    between atoms: N_4  and  C_12
    5  A    between atoms: N_4  and  C_37
    6  A    between atoms: C_6  and  O_22
    7  A    between atoms: C_8  and  C_12
    8  A    between atoms: N_23  and  C_30
                            x       y       z     vdW  Elec       q    Type
                         _______ _______ _______ _____ _____    ______ ____

>  <TORSDO>
F 8

$$$$
=
 OpenBabel11122411483D

 37 41  0  0  1  0  0  0  0  0999 V2000
  186.1660  178.3840  137.9310 C   0  0  1  0  0  3  0  0  0  0  0  0
  184.9640  179.4130  141.2870 O   0  0  0  0  0  0  0  0  0  0  0  0
  188.1980  177.1650  137.0280 C   0  0  2  0  0  3  0  0  0  0  0  0
  186.1460  178.3080  139.4110 C   0  0  2  0  0  3  0  0  0  0  0  0
  187.6470  178.4590  137.6520 C   0  0  2  0  0  3  0  0  0  0  0  0
  184.9330  179.1190  139.9060 C   0  0  1  0  0  3  0  0  0  0  0  0
  187.2910  176.6570  135.8920 C   0  0  0  0  0  2  0  0  0  0  0  0
  188.3300  178.7760  138.8460 O   0  0  0  0  0  0  0  0  0  0  0  0
  184.0880  177.3640  137.3850 C   0  0  0  0  0  2  0  0  0  0  0  0
  185.9080  177.1390  135.9980 N   0  0  0  0  0  2  0  0  0  0  0  0
  185.8740  177.3550  141.9650 O   0  0  0  0  0  0  0  0  0  0  0  0
  184.7740  178.2330  142.0450 C   0  0  0  0  0  2  0  0  0  0  0  0
  185.5390  177.1880  137.3560 N   0  0  1  0  0  0  0  0  0  0  0  0
  187.4160  178.8730  139.8680 N   0  0  2  0  0  0  0  0  0  0  0  0
  183.6280  178.5760  139.4750 N   0  0  0  0  0  0  0  0  0  0  0  0
  187.0300  178.1050  142.2160 C   0  0  0  0  0  2  0  0  0  0  0  0
  187.9520  178.0770  140.9920 C   0  0  2  0  0  3  0  0  0  0  0  0
  183.5480  177.2690  138.8110 C   0  0  0  0  0  2  0  0  0  0  0  0
  181.4390  179.0990  140.5110 C   0  0  0  0  0  3  0  0  0  0  0  0
  182.4410  179.3920  139.5680 C   0  0  0  0  0  0  0  0  0  0  0  0
  182.2640  180.4970  138.7190 C   0  0  0  0  0  3  0  0  0  0  0  0
  180.9160  182.6610  137.7400 Cl  0  0  0  0  0  0  0  0  0  0  0  0
  180.1300  180.9860  139.7490 C   0  0  0  0  0  3  0  0  0  0  0  0
  181.1160  181.2890  138.8080 C   0  0  0  0  0  0  0  0  0  0  0  0
  180.2910  179.8910  140.6000 C   0  0  0  0  0  3  0  0  0  0  0  0
  189.3280  178.6320  141.4100 C   0  0  0  0  0  2  0  0  0  0  0  0
  189.9310  177.9820  142.5850 N   0  0  0  0  0  0  0  0  0  0  0  0
  190.1820  175.6270  142.8220 N   0  0  0  0  0  1  0  0  0  0  0  0
  190.7110  176.8190  142.1820 C   0  0  0  0  0  2  0  0  0  0  0  0
  190.8140  178.9080  143.2820 C   0  0  0  0  0  2  0  0  0  0  0  0
  191.0240  178.4520  144.7140 C   0  0  0  0  0  2  0  0  0  0  0  0
  189.7920  178.2520  145.3380 O   0  0  0  0  0  1  0  0  0  0  0  0
  188.3250  176.1600  138.0050 O   0  0  0  0  0  0  0  0  0  0  0  0
  189.6500  175.6790  137.9690 C   0  0  0  0  0  0  0  0  0  0  0  0
  189.6810  174.3380  137.6180 F   0  0  0  0  0  0  0  0  0  0  0  0
  190.4180  176.4140  137.0790 F   0  0  0  0  0  0  0  0  0  0  0  0
  190.1980  175.8070  139.2310 F   0  0  0  0  0  0  0  0  0  0  0  0
  1  4  1  0  0  0  0
  2 12  1  0  0  0  0
  3  5  1  0  0  0  0
  3 33  1  0  0  0  0
  4 14  1  0  0  0  0
  4  6  1  0  0  0  0
  5  1  1  0  0  0  0
  5  8  1  0  0  0  0
  6  2  1  0  0  0  0
  7 10  1  0  0  0  0
  7  3  1  0  0  0  0
  8 14  1  0  0  0  0
  9 18  1  0  0  0  0
 10 13  1  0  0  0  0
 11 12  1  0  0  0  0
 11 16  1  0  0  0  0
 13  9  1  0  0  0  0
 13  1  1  0  0  0  0
 14 17  1  0  0  0  0
 15 20  1  0  0  0  0
 15  6  1  0  0  0  0
 17 26  1  0  0  0  0
 17 16  1  0  0  0  0
 18 15  1  0  0  0  0
 19 25  1  0  0  0  0
 20 19  2  0  0  0  0
 21 24  2  0  0  0  0
 21 20  1  0  0  0  0
 22 24  1  0  0  0  0
 23 25  2  0  0  0  0
 24 23  1  0  0  0  0
 26 27  1  0  0  0  0
 27 30  1  0  0  0  0
 29 27  1  0  0  0  0
 29 28  1  0  0  0  0
 30 31  1  0  0  0  0
 31 32  1  0  0  0  0
 34 33  1  0  0  0  0
 34 37  1  0  0  0  0
 35 34  1  0  0  0  0
 36 34  1  0  0  0  0
M  END
>  <MODEL>
5

>  <REMARK>
 VINA RESULT:      -6.4      3.308      5.821
  Name = 
  8 active torsions:
  status: ('A' for Active; 'I' for Inactive)
    1  A    between atoms: C_1  and  N_4
    2  A    between atoms: C_1  and  C_27
    3  A    between atoms: C_2  and  O_22
    4  A    between atoms: N_4  and  C_12
    5  A    between atoms: N_4  and  C_37
    6  A    between atoms: C_6  and  O_22
    7  A    between atoms: C_8  and  C_12
    8  A    between atoms: N_23  and  C_30
                            x       y       z     vdW  Elec       q    Type
                         _______ _______ _______ _____ _____    ______ ____

>  <TORSDO>
F 8

$$$$
=
 OpenBabel11122411483D

 37 41  0  0  1  0  0  0  0  0999 V2000
  187.3700  177.1060  142.7670 C   0  0  1  0  0  3  0  0  0  0  0  0
  191.0140  176.7580  142.1630 O   0  0  0  0  0  0  0  0  0  0  0  0
  185.9040  177.6020  144.7760 C   0  0  2  0  0  3  0  0  0  0  0  0
  188.7950  177.3100  143.1170 C   0  0  2  0  0  3  0  0  0  0  0  0
  186.8110  176.5810  144.0670 C   0  0  2  0  0  3  0  0  0  0  0  0
  189.6400  176.9300  141.8860 C   0  0  1  0  0  3  0  0  0  0  0  0
  184.9120  178.2530  143.7940 C   0  0  0  0  0  2  0  0  0  0  0  0
  187.8750  176.1820  144.9040 O   0  0  0  0  0  0  0  0  0  0  0  0
  187.1110  178.6340  140.9630 C   0  0  0  0  0  2  0  0  0  0  0  0
  185.3670  178.2040  142.3980 N   0  0  0  0  0  2  0  0  0  0  0  0
  191.1820  178.5140  143.7170 O   0  0  0  0  0  0  0  0  0  0  0  0
  191.6120  178.0020  142.4760 C   0  0  0  0  0  2  0  0  0  0  0  0
  186.7630  178.3790  142.3600 N   0  0  1  0  0  0  0  0  0  0  0  0
  189.0640  176.4410  144.2650 N   0  0  2  0  0  0  0  0  0  0  0  0
  189.4060  177.7910  140.7070 N   0  0  0  0  0  0  0  0  0  0  0  0
  191.3020  177.4840  144.6600 C   0  0  0  0  0  2  0  0  0  0  0  0
  189.9260  177.1410  145.2410 C   0  0  2  0  0  3  0  0  0  0  0  0
  188.5870  179.0030  140.8200 C   0  0  0  0  0  2  0  0  0  0  0  0
  190.9840  176.5350  139.2690 C   0  0  0  0  0  3  0  0  0  0  0  0
  189.8580  177.3650  139.4040 C   0  0  0  0  0  0  0  0  0  0  0  0
  189.1780  177.7720  138.2430 C   0  0  0  0  0  3  0  0  0  0  0  0
  188.7510  177.8780  135.5480 Cl  0  0  0  0  0  0  0  0  0  0  0  0
  190.7330  176.5360  136.8620 C   0  0  0  0  0  3  0  0  0  0  0  0
  189.6120  177.3600  136.9800 C   0  0  0  0  0  0  0  0  0  0  0  0
  191.4190  176.1230  138.0050 C   0  0  0  0  0  3  0  0  0  0  0  0
  190.1340  176.2470  146.4800 C   0  0  0  0  0  2  0  0  0  0  0  0
  190.1930  176.9670  147.7630 N   0  0  0  0  0  0  0  0  0  0  0  0
  192.4320  176.1670  147.8580 N   0  0  0  0  0  1  0  0  0  0  0  0
  191.5700  177.3120  148.0940 C   0  0  0  0  0  2  0  0  0  0  0  0
  189.4150  178.1970  147.6920 C   0  0  0  0  0  2  0  0  0  0  0  0
  188.4190  178.2530  148.8360 C   0  0  0  0  0  2  0  0  0  0  0  0
  187.5560  177.1580  148.7710 O   0  0  0  0  0  1  0  0  0  0  0  0
  186.6750  178.6060  145.3910 O   0  0  0  0  0  0  0  0  0  0  0  0
  185.8250  179.3660  146.2190 C   0  0  0  0  0  0  0  0  0  0  0  0
  185.3050  180.4520  145.5310 F   0  0  0  0  0  0  0  0  0  0  0  0
  184.7910  178.5870  146.7130 F   0  0  0  0  0  0  0  0  0  0  0  0
  186.5620  179.8450  147.2850 F   0  0  0  0  0  0  0  0  0  0  0  0
  1  4  1  0  0  0  0
  1  5  1  0  0  0  0
  2 12  1  0  0  0  0
  3 33  1  0  0  0  0
  4 14  1  0  0  0  0
  5  3  1  0  0  0  0
  5  8  1  0  0  0  0
  6  2  1  0  0  0  0
  6  4  1  0  0  0  0
  7  3  1  0  0  0  0
  9 13  1  0  0  0  0
 10  7  1  0  0  0  0
 11 16  1  0  0  0  0
 12 11  1  0  0  0  0
 13 10  1  0  0  0  0
 13  1  1  0  0  0  0
 14  8  1  0  0  0  0
 14 17  1  0  0  0  0
 15 18  1  0  0  0  0
 15  6  1  0  0  0  0
 16 17  1  0  0  0  0
 17 26  1  0  0  0  0
 18  9  1  0  0  0  0
 19 20  1  0  0  0  0
 20 15  1  0  0  0  0
 21 20  2  0  0  0  0
 22 24  1  0  0  0  0
 23 24  2  0  0  0  0
 23 25  1  0  0  0  0
 24 21  1  0  0  0  0
 25 19  2  0  0  0  0
 26 27  1  0  0  0  0
 27 29  1  0  0  0  0
 28 29  1  0  0  0  0
 30 27  1  0  0  0  0
 30 31  1  0  0  0  0
 32 31  1  0  0  0  0
 33 34  1  0  0  0  0
 34 36  1  0  0  0  0
 34 37  1  0  0  0  0
 35 34  1  0  0  0  0
M  END
>  <MODEL>
6

>  <REMARK>
 VINA RESULT:      -6.2      3.343      6.901
  Name = 
  8 active torsions:
  status: ('A' for Active; 'I' for Inactive)
    1  A    between atoms: C_1  and  N_4
    2  A    between atoms: C_1  and  C_27
    3  A    between atoms: C_2  and  O_22
    4  A    between atoms: N_4  and  C_12
    5  A    between atoms: N_4  and  C_37
    6  A    between atoms: C_6  and  O_22
    7  A    between atoms: C_8  and  C_12
    8  A    between atoms: N_23  and  C_30
                            x       y       z     vdW  Elec       q    Type
                         _______ _______ _______ _____ _____    ______ ____

>  <TORSDO>
F 8

$$$$
=
 OpenBabel11122411483D

 37 41  0  0  1  0  0  0  0  0999 V2000
  187.7010  177.1310  142.0850 C   0  0  1  0  0  3  0  0  0  0  0  0
  187.4190  177.6150  138.4170 O   0  0  0  0  0  0  0  0  0  0  0  0
  189.5800  177.2110  143.7860 C   0  0  2  0  0  3  0  0  0  0  0  0
  188.1820  177.6280  140.7750 C   0  0  2  0  0  3  0  0  0  0  0  0
  188.9330  176.4430  142.6190 C   0  0  2  0  0  3  0  0  0  0  0  0
  187.0240  177.4930  139.7670 C   0  0  1  0  0  3  0  0  0  0  0  0
  188.5270  177.6690  144.8120 C   0  0  0  0  0  2  0  0  0  0  0  0
  189.8530  176.2530  141.5660 O   0  0  0  0  0  0  0  0  0  0  0  0
  185.9150  178.6390  142.5260 C   0  0  0  0  0  2  0  0  0  0  0  0
  187.1770  177.7780  144.2440 N   0  0  0  0  0  2  0  0  0  0  0  0
  189.0190  179.2990  138.7720 O   0  0  0  0  0  0  0  0  0  0  0  0
  187.8110  178.9460  138.1380 C   0  0  0  0  0  2  0  0  0  0  0  0
  187.2690  178.2560  142.9230 N   0  0  1  0  0  0  0  0  0  0  0  0
  189.3290  176.7930  140.4150 N   0  0  2  0  0  0  0  0  0  0  0  0
  185.8470  178.3300  140.0870 N   0  0  0  0  0  0  0  0  0  0  0  0
  189.9470  178.2830  138.5050 C   0  0  0  0  0  2  0  0  0  0  0  0
  190.3940  177.6230  139.8130 C   0  0  2  0  0  3  0  0  0  0  0  0
  185.9130  179.3280  141.1620 C   0  0  0  0  0  2  0  0  0  0  0  0
  184.4790  178.0280  138.0450 C   0  0  0  0  0  3  0  0  0  0  0  0
  184.5810  178.0680  139.4470 C   0  0  0  0  0  0  0  0  0  0  0  0
  183.4240  177.8450  140.2130 C   0  0  0  0  0  3  0  0  0  0  0  0
  180.7680  177.3150  140.5680 Cl  0  0  0  0  0  0  0  0  0  0  0  0
  182.1110  177.5540  138.2010 C   0  0  0  0  0  3  0  0  0  0  0  0
  182.1970  177.5900  139.5950 C   0  0  0  0  0  0  0  0  0  0  0  0
  183.2510  177.7730  137.4260 C   0  0  0  0  0  3  0  0  0  0  0  0
  191.6270  176.7460  139.5160 C   0  0  0  0  0  2  0  0  0  0  0  0
  191.8010  176.3760  138.1020 N   0  0  0  0  0  0  0  0  0  0  0  0
  194.0650  175.6670  138.2890 N   0  0  0  0  0  1  0  0  0  0  0  0
  193.1700  176.6300  137.6710 C   0  0  0  0  0  2  0  0  0  0  0  0
  191.5130  174.9620  137.9080 C   0  0  0  0  0  2  0  0  0  0  0  0
  190.1380  174.7880  137.2870 C   0  0  0  0  0  2  0  0  0  0  0  0
  189.7480  173.4500  137.3580 O   0  0  0  0  0  1  0  0  0  0  0  0
  190.2840  178.3330  143.3100 O   0  0  0  0  0  0  0  0  0  0  0  0
  191.6320  178.2020  143.6980 C   0  0  0  0  0  0  0  0  0  0  0  0
  191.7560  177.3370  144.7740 F   0  0  0  0  0  0  0  0  0  0  0  0
  192.4080  177.7490  142.6420 F   0  0  0  0  0  0  0  0  0  0  0  0
  192.1010  179.4430  144.0850 F   0  0  0  0  0  0  0  0  0  0  0  0
  1  5  1  0  0  0  0
  1 13  1  0  0  0  0
  2  6  1  0  0  0  0
  3  7  1  0  0  0  0
  4  1  1  0  0  0  0
  5  3  1  0  0  0  0
  6 15  1  0  0  0  0
  6  4  1  0  0  0  0
  8  5  1  0  0  0  0
  9 13  1  0  0  0  0
 10  7  1  0  0  0  0
 12  2  1  0  0  0  0
 12 11  1  0  0  0  0
 13 10  1  0  0  0  0
 14  4  1  0  0  0  0
 14  8  1  0  0  0  0
 15 18  1  0  0  0  0
 16 11  1  0  0  0  0
 16 17  1  0  0  0  0
 17 14  1  0  0  0  0
 18  9  1  0  0  0  0
 19 20  1  0  0  0  0
 20 15  1  0  0  0  0
 20 21  2  0  0  0  0
 23 24  2  0  0  0  0
 24 21  1  0  0  0  0
 24 22  1  0  0  0  0
 25 19  2  0  0  0  0
 25 23  1  0  0  0  0
 26 17  1  0  0  0  0
 27 26  1  0  0  0  0
 29 27  1  0  0  0  0
 29 28  1  0  0  0  0
 30 27  1  0  0  0  0
 31 32  1  0  0  0  0
 31 30  1  0  0  0  0
 33 34  1  0  0  0  0
 33  3  1  0  0  0  0
 34 37  1  0  0  0  0
 34 35  1  0  0  0  0
 36 34  1  0  0  0  0
M  END
>  <MODEL>
7

>  <REMARK>
 VINA RESULT:      -5.9      2.289      3.291
  Name = 
  8 active torsions:
  status: ('A' for Active; 'I' for Inactive)
    1  A    between atoms: C_1  and  N_4
    2  A    between atoms: C_1  and  C_27
    3  A    between atoms: C_2  and  O_22
    4  A    between atoms: N_4  and  C_12
    5  A    between atoms: N_4  and  C_37
    6  A    between atoms: C_6  and  O_22
    7  A    between atoms: C_8  and  C_12
    8  A    between atoms: N_23  and  C_30
                            x       y       z     vdW  Elec       q    Type
                         _______ _______ _______ _____ _____    ______ ____

>  <TORSDO>
F 8

$$$$
=
 OpenBabel11122411483D

 37 41  0  0  1  0  0  0  0  0999 V2000
  181.8940  176.5400  137.4710 C   0  0  1  0  0  3  0  0  0  0  0  0
  183.4470  179.6940  138.6590 O   0  0  0  0  0  0  0  0  0  0  0  0
  182.7410  174.2670  136.7300 C   0  0  2  0  0  3  0  0  0  0  0  0
  183.0060  177.3340  138.0420 C   0  0  2  0  0  3  0  0  0  0  0  0
  182.6010  175.7620  136.3890 C   0  0  2  0  0  3  0  0  0  0  0  0
  182.4510  178.7230  138.4110 C   0  0  1  0  0  3  0  0  0  0  0  0
  181.4200  173.6860  137.2680 C   0  0  0  0  0  2  0  0  0  0  0  0
  183.8630  176.3450  136.1460 O   0  0  0  0  0  0  0  0  0  0  0  0
  180.3810  176.4720  139.3050 C   0  0  0  0  0  2  0  0  0  0  0  0
  180.5320  174.7060  137.8410 N   0  0  0  0  0  2  0  0  0  0  0  0
  184.9440  178.2470  139.7500 O   0  0  0  0  0  0  0  0  0  0  0  0
  184.1340  179.3960  139.8590 C   0  0  0  0  0  2  0  0  0  0  0  0
  181.3080  175.6760  138.5030 N   0  0  1  0  0  0  0  0  0  0  0  0
  184.0360  177.4060  137.0040 N   0  0  2  0  0  0  0  0  0  0  0  0
  181.4150  178.6970  139.4660 N   0  0  0  0  0  0  0  0  0  0  0  0
  185.7090  178.3810  138.5840 C   0  0  0  0  0  2  0  0  0  0  0  0
  185.3770  177.2510  137.6050 C   0  0  2  0  0  3  0  0  0  0  0  0
  181.1310  177.4590  140.2000 C   0  0  0  0  0  2  0  0  0  0  0  0
  180.0260  180.1180  140.9450 C   0  0  0  0  0  3  0  0  0  0  0  0
  180.5730  179.8500  139.6770 C   0  0  0  0  0  0  0  0  0  0  0  0
  180.2850  180.7300  138.6200 C   0  0  0  0  0  3  0  0  0  0  0  0
  179.1250  182.9300  137.4920 Cl  0  0  0  0  0  0  0  0  0  0  0  0
  178.9340  182.1000  140.0870 C   0  0  0  0  0  3  0  0  0  0  0  0
  179.4710  181.8480  138.8220 C   0  0  0  0  0  0  0  0  0  0  0  0
  179.2110  181.2360  141.1480 C   0  0  0  0  0  3  0  0  0  0  0  0
  186.4450  177.2450  136.4920 C   0  0  0  0  0  2  0  0  0  0  0  0
  187.7330  176.6410  136.8700 N   0  0  0  0  0  0  0  0  0  0  0  0
  189.2080  174.8080  136.5130 N   0  0  0  0  0  1  0  0  0  0  0  0
  187.8630  175.3090  136.2930 C   0  0  0  0  0  2  0  0  0  0  0  0
  188.8380  177.4590  136.3900 C   0  0  0  0  0  2  0  0  0  0  0  0
  189.4470  178.2420  137.5390 C   0  0  0  0  0  2  0  0  0  0  0  0
  189.0030  179.5640  137.5060 O   0  0  0  0  0  1  0  0  0  0  0  0
  183.7570  174.0710  137.6840 O   0  0  0  0  0  0  0  0  0  0  0  0
  184.6620  173.1190  137.1710 C   0  0  0  0  0  0  0  0  0  0  0  0
  185.0290  173.4350  135.8730 F   0  0  0  0  0  0  0  0  0  0  0  0
  185.7920  173.0320  137.9700 F   0  0  0  0  0  0  0  0  0  0  0  0
  184.0400  171.8850  137.1550 F   0  0  0  0  0  0  0  0  0  0  0  0
  1  4  1  0  0  0  0
  1 13  1  0  0  0  0
  2 12  1  0  0  0  0
  3  7  1  0  0  0  0
  3 33  1  0  0  0  0
  4  6  1  0  0  0  0
  5  3  1  0  0  0  0
  5  1  1  0  0  0  0
  6  2  1  0  0  0  0
  6 15  1  0  0  0  0
  7 10  1  0  0  0  0
  8  5  1  0  0  0  0
  8 14  1  0  0  0  0
  9 18  1  0  0  0  0
 10 13  1  0  0  0  0
 11 12  1  0  0  0  0
 13  9  1  0  0  0  0
 14 17  1  0  0  0  0
 14  4  1  0  0  0  0
 15 20  1  0  0  0  0
 15 18  1  0  0  0  0
 16 11  1  0  0  0  0
 17 16  1  0  0  0  0
 19 25  1  0  0  0  0
 20 19  2  0  0  0  0
 21 24  2  0  0  0  0
 21 20  1  0  0  0  0
 22 24  1  0  0  0  0
 23 25  2  0  0  0  0
 24 23  1  0  0  0  0
 26 27  1  0  0  0  0
 26 17  1  0  0  0  0
 29 28  1  0  0  0  0
 29 27  1  0  0  0  0
 30 27  1  0  0  0  0
 30 31  1  0  0  0  0
 32 31  1  0  0  0  0
 34 33  1  0  0  0  0
 34 36  1  0  0  0  0
 35 34  1  0  0  0  0
 37 34  1  0  0  0  0
M  END
>  <MODEL>
8

>  <REMARK>
 VINA RESULT:      -5.8      5.638      7.286
  Name = 
  8 active torsions:
  status: ('A' for Active; 'I' for Inactive)
    1  A    between atoms: C_1  and  N_4
    2  A    between atoms: C_1  and  C_27
    3  A    between atoms: C_2  and  O_22
    4  A    between atoms: N_4  and  C_12
    5  A    between atoms: N_4  and  C_37
    6  A    between atoms: C_6  and  O_22
    7  A    between atoms: C_8  and  C_12
    8  A    between atoms: N_23  and  C_30
                            x       y       z     vdW  Elec       q    Type
                         _______ _______ _______ _____ _____    ______ ____

>  <TORSDO>
F 8

$$$$
=
 OpenBabel11122411483D

 37 41  0  0  1  0  0  0  0  0999 V2000
  181.6480  178.8830  136.5790 C   0  0  1  0  0  3  0  0  0  0  0  0
  181.2920  181.4070  139.2740 O   0  0  0  0  0  0  0  0  0  0  0  0
  181.9690  176.3680  136.4800 C   0  0  2  0  0  3  0  0  0  0  0  0
  181.3580  179.3010  137.9700 C   0  0  2  0  0  3  0  0  0  0  0  0
  182.6020  177.7350  136.8010 C   0  0  2  0  0  3  0  0  0  0  0  0
  181.2400  180.8370  137.9830 C   0  0  1  0  0  3  0  0  0  0  0  0
  181.2050  176.4020  135.1430 C   0  0  0  0  0  2  0  0  0  0  0  0
  183.0750  177.7730  138.1300 O   0  0  0  0  0  0  0  0  0  0  0  0
  179.7110  179.6680  135.4440 C   0  0  0  0  0  2  0  0  0  0  0  0
  180.7800  177.7530  134.7550 N   0  0  0  0  0  2  0  0  0  0  0  0
  180.0610  179.7170  140.3470 O   0  0  0  0  0  0  0  0  0  0  0  0
  180.1230  181.0820  140.0020 C   0  0  0  0  0  2  0  0  0  0  0  0
  180.4090  178.4700  135.9080 N   0  0  1  0  0  0  0  0  0  0  0  0
  182.4770  178.8240  138.7840 N   0  0  2  0  0  0  0  0  0  0  0  0
  180.1140  181.3620  137.1810 N   0  0  0  0  0  0  0  0  0  0  0  0
  181.2930  179.3720  140.9170 C   0  0  0  0  0  2  0  0  0  0  0  0
  181.9800  178.2940  140.0720 C   0  0  2  0  0  3  0  0  0  0  0  0
  179.1140  180.4490  136.6150 C   0  0  0  0  0  2  0  0  0  0  0  0
  180.5140  183.1910  135.5590 C   0  0  0  0  0  3  0  0  0  0  0  0
  180.0740  182.7590  136.8230 C   0  0  0  0  0  0  0  0  0  0  0  0
  179.5910  183.7170  137.7320 C   0  0  0  0  0  3  0  0  0  0  0  0
  178.9460  186.2470  138.5330 Cl  0  0  0  0  0  0  0  0  0  0  0  0
  179.9920  185.4840  136.1280 C   0  0  0  0  0  3  0  0  0  0  0  0
  179.5500  185.0710  137.3870 C   0  0  0  0  0  0  0  0  0  0  0  0
  180.4740  184.5450  135.2150 C   0  0  0  0  0  3  0  0  0  0  0  0
  183.1580  177.7190  140.8840 C   0  0  0  0  0  2  0  0  0  0  0  0
  183.9870  178.7230  141.5720 N   0  0  0  0  0  0  0  0  0  0  0  0
  183.3920  178.8500  143.8730 N   0  0  0  0  0  1  0  0  0  0  0  0
  184.3220  178.2740  142.9170 C   0  0  0  0  0  2  0  0  0  0  0  0
  185.2270  178.9470  140.8400 C   0  0  0  0  0  2  0  0  0  0  0  0
  186.4190  178.7470  141.7580 C   0  0  0  0  0  2  0  0  0  0  0  0
  187.5750  178.5480  141.0030 O   0  0  0  0  0  1  0  0  0  0  0  0
  181.0910  175.9760  137.5070 O   0  0  0  0  0  0  0  0  0  0  0  0
  181.5180  174.7240  137.9940 C   0  0  0  0  0  0  0  0  0  0  0  0
  181.4350  173.7540  137.0070 F   0  0  0  0  0  0  0  0  0  0  0  0
  182.8170  174.7970  138.4710 F   0  0  0  0  0  0  0  0  0  0  0  0
  180.6890  174.3520  139.0350 F   0  0  0  0  0  0  0  0  0  0  0  0
  1  5  1  0  0  0  0
  1  4  1  0  0  0  0
  2 12  1  0  0  0  0
  3  5  1  0  0  0  0
  3 33  1  0  0  0  0
  4  6  1  0  0  0  0
  4 14  1  0  0  0  0
  5  8  1  0  0  0  0
  6  2  1  0  0  0  0
  7  3  1  0  0  0  0
  8 14  1  0  0  0  0
  9 13  1  0  0  0  0
  9 18  1  0  0  0  0
 10  7  1  0  0  0  0
 10 13  1  0  0  0  0
 11 16  1  0  0  0  0
 12 11  1  0  0  0  0
 13  1  1  0  0  0  0
 14 17  1  0  0  0  0
 15  6  1  0  0  0  0
 17 26  1  0  0  0  0
 17 16  1  0  0  0  0
 18 15  1  0  0  0  0
 19 20  1  0  0  0  0
 20 15  1  0  0  0  0
 20 21  2  0  0  0  0
 23 24  2  0  0  0  0
 24 21  1  0  0  0  0
 24 22  1  0  0  0  0
 25 19  2  0  0  0  0
 25 23  1  0  0  0  0
 26 27  1  0  0  0  0
 27 29  1  0  0  0  0
 29 28  1  0  0  0  0
 30 27  1  0  0  0  0
 30 31  1  0  0  0  0
 32 31  1  0  0  0  0
 33 34  1  0  0  0  0
 34 36  1  0  0  0  0
 34 37  1  0  0  0  0
 35 34  1  0  0  0  0
M  END
>  <MODEL>
9

>  <REMARK>
 VINA RESULT:      -5.6      6.308      9.226
  Name = 
  8 active torsions:
  status: ('A' for Active; 'I' for Inactive)
    1  A    between atoms: C_1  and  N_4
    2  A    between atoms: C_1  and  C_27
    3  A    between atoms: C_2  and  O_22
    4  A    between atoms: N_4  and  C_12
    5  A    between atoms: N_4  and  C_37
    6  A    between atoms: C_6  and  O_22
    7  A    between atoms: C_8  and  C_12
    8  A    between atoms: N_23  and  C_30
                            x       y       z     vdW  Elec       q    Type
                         _______ _______ _______ _____ _____    ______ ____

>  <TORSDO>
F 8

$$$$
