=
 OpenBabel11122410223D

 30 35  0  0  1  0  0  0  0  0999 V2000
  188.8530  177.4750  143.1260 C   0  0  1  0  0  3  0  0  0  0  0  0
  191.0070  177.4650  144.5710 C   0  0  0  0  0  0  0  0  0  0  0  0
  186.6300  177.1610  146.6470 O   0  0  0  0  0  0  0  0  0  0  0  0
  187.5180  178.1920  143.3560 C   0  0  1  0  0  3  0  0  0  0  0  0
  189.5810  178.1730  142.1410 O   0  0  0  0  0  0  0  0  0  0  0  0
  186.9770  178.6140  139.7600 O   0  0  0  0  0  0  0  0  0  0  0  0
  184.3640  178.1550  142.7100 C   0  0  1  0  0  3  0  0  0  0  0  0
  187.5370  178.3560  140.8590 C   0  0  0  0  0  0  0  0  0  0  0  0
  184.2990  178.0900  144.1880 N   0  0  2  0  0  0  0  0  0  0  0  0
  185.5830  177.9870  146.2950 C   0  0  0  0  0  0  0  0  0  0  0  0
  188.9840  177.9430  140.8770 C   0  0  2  0  0  3  0  0  0  0  0  0
  186.8050  178.4320  142.0930 N   0  0  0  0  0  0  0  0  0  0  0  0
  191.6110  177.3400  145.8250 C   0  0  0  0  0  3  0  0  0  0  0  0
  183.3440  179.1220  144.5670 C   0  0  0  0  0  2  0  0  0  0  0  0
  183.0050  178.6280  142.2320 C   0  0  0  0  0  2  0  0  0  0  0  0
  191.9150  177.6710  143.4060 C   0  0  0  0  0  1  0  0  0  0  0  0
  187.3600  176.7430  145.5050 C   0  0  1  0  0  3  0  0  0  0  0  0
  190.8480  177.0790  146.9600 C   0  0  0  0  0  3  0  0  0  0  0  0
  189.5960  177.3610  144.4500 C   0  0  0  0  0  0  0  0  0  0  0  0
  186.6430  177.3900  144.3000 C   0  0  1  0  0  3  0  0  0  0  0  0
  184.7760  178.4550  147.1390 O   0  0  0  0  0  0  0  0  0  0  0  0
  185.5850  178.3350  144.8530 C   0  0  1  0  0  3  0  0  0  0  0  0
  182.3240  179.2130  143.4510 C   0  0  0  0  0  2  0  0  0  0  0  0
  185.5140  180.4830  142.6200 C   0  0  0  0  0  1  0  0  0  0  0  0
  189.4680  176.9250  146.8490 C   0  0  0  0  0  3  0  0  0  0  0  0
  188.8340  177.0660  145.6100 C   0  0  0  0  0  0  0  0  0  0  0  0
  185.4720  179.0540  142.0880 C   0  0  2  0  0  3  0  0  0  0  0  0
  189.1640  176.5040  140.4030 C   0  0  0  0  0  2  0  0  0  0  0  0
  190.8520  176.7370  139.0020 C   0  0  0  0  0  1  0  0  0  0  0  0
  190.5230  176.2210  140.2550 O   0  0  0  0  0  0  0  0  0  0  0  0
  1  5  1  6  0  0  0
  1  4  1  0  0  0  0
  1 19  1  0  0  0  0
  2 13  1  0  0  0  0
  4 12  1  6  0  0  0
  4 20  1  0  0  0  0
  6  8  2  0  0  0  0
  7 15  1  1  0  0  0
  7  9  1  0  0  0  0
  8 11  1  0  0  0  0
  8 12  1  0  0  0  0
  9 14  1  1  0  0  0
  9 22  1  0  0  0  0
 10  3  1  0  0  0  0
 10 21  2  0  0  0  0
 11 28  1  1  0  0  0
 11  5  1  0  0  0  0
 13 18  2  0  0  0  0
 15 23  1  0  0  0  0
 16  2  1  0  0  0  0
 17 26  1  1  0  0  0
 17  3  1  0  0  0  0
 19  2  2  0  0  0  0
 19 26  1  0  0  0  0
 20 22  1  0  0  0  0
 20 17  1  0  0  0  0
 22 10  1  0  0  0  0
 23 14  1  0  0  0  0
 25 18  1  0  0  0  0
 26 25  2  0  0  0  0
 27 12  1  0  0  0  0
 27 24  1  0  0  0  0
 27  7  1  0  0  0  0
 29 30  1  0  0  0  0
 30 28  1  0  0  0  0
M  END
>  <MODEL>
1

>  <REMARK>
 VINA RESULT:      -8.0      0.000      0.000
  Name = 
  2 active torsions:
  status: ('A' for Active; 'I' for Inactive)
    1  A    between atoms: C_11  and  C_28
    2  A    between atoms: C_28  and  O_30
                            x       y       z     vdW  Elec       q    Type
                         _______ _______ _______ _____ _____    ______ ____

>  <TORSDO>
F 2

$$$$
=
 OpenBabel11122410223D

 30 35  0  0  1  0  0  0  0  0999 V2000
  187.1040  178.3010  140.2740 C   0  0  1  0  0  3  0  0  0  0  0  0
  184.7030  178.0880  139.3140 C   0  0  0  0  0  0  0  0  0  0  0  0
  185.4240  178.7050  144.0740 O   0  0  0  0  0  0  0  0  0  0  0  0
  187.7140  177.6950  141.5410 C   0  0  1  0  0  3  0  0  0  0  0  0
  187.5580  177.5720  139.1550 O   0  0  0  0  0  0  0  0  0  0  0  0
  191.0140  177.4200  139.9800 O   0  0  0  0  0  0  0  0  0  0  0  0
  190.0130  178.0170  143.7720 C   0  0  1  0  0  3  0  0  0  0  0  0
  189.7750  177.6000  140.1250 C   0  0  0  0  0  0  0  0  0  0  0  0
  188.8250  178.0470  144.6570 N   0  0  2  0  0  0  0  0  0  0  0  0
  186.3600  177.9810  144.7830 C   0  0  0  0  0  0  0  0  0  0  0  0
  188.9190  177.8870  138.9210 C   0  0  2  0  0  3  0  0  0  0  0  0
  189.1730  177.5510  141.4290 N   0  0  0  0  0  0  0  0  0  0  0  0
  183.3210  178.1260  139.5180 C   0  0  0  0  0  3  0  0  0  0  0  0
  189.1220  177.0890  145.7140 C   0  0  0  0  0  2  0  0  0  0  0  0
  191.2030  177.6760  144.6480 C   0  0  0  0  0  2  0  0  0  0  0  0
  185.1700  177.8370  137.9200 C   0  0  0  0  0  1  0  0  0  0  0  0
  185.9270  179.0900  142.8060 C   0  0  1  0  0  3  0  0  0  0  0  0
  182.7940  178.4180  140.7740 C   0  0  0  0  0  3  0  0  0  0  0  0
  185.5870  178.3140  140.4020 C   0  0  0  0  0  0  0  0  0  0  0  0
  187.3690  178.5420  142.7510 C   0  0  1  0  0  3  0  0  0  0  0  0
  186.1500  177.5600  145.9500 O   0  0  0  0  0  0  0  0  0  0  0  0
  187.5740  177.6750  143.9870 C   0  0  1  0  0  3  0  0  0  0  0  0
  190.6210  177.1170  145.9290 C   0  0  0  0  0  2  0  0  0  0  0  0
  189.6080  175.6030  142.9010 C   0  0  0  0  0  1  0  0  0  0  0  0
  183.6480  178.6930  141.8380 C   0  0  0  0  0  3  0  0  0  0  0  0
  185.0360  178.6410  141.6690 C   0  0  0  0  0  0  0  0  0  0  0  0
  189.9690  177.0460  142.5570 C   0  0  2  0  0  3  0  0  0  0  0  0
  189.1070  179.3180  138.4260 C   0  0  0  0  0  2  0  0  0  0  0  0
  189.1170  178.3300  136.4550 C   0  0  0  0  0  1  0  0  0  0  0  0
  188.6090  179.4390  137.1290 O   0  0  0  0  0  0  0  0  0  0  0  0
  1  5  1  6  0  0  0
  1 19  1  0  0  0  0
  1  4  1  0  0  0  0
  2 13  2  0  0  0  0
  2 19  1  0  0  0  0
  3 10  1  0  0  0  0
  4 12  1  6  0  0  0
  4 20  1  0  0  0  0
  6  8  2  0  0  0  0
  7 15  1  1  0  0  0
  7  9  1  0  0  0  0
  8 12  1  0  0  0  0
  9 14  1  1  0  0  0
 10 21  2  0  0  0  0
 11 28  1  1  0  0  0
 11  5  1  0  0  0  0
 11  8  1  0  0  0  0
 12 27  1  0  0  0  0
 13 18  1  0  0  0  0
 14 23  1  0  0  0  0
 15 23  1  0  0  0  0
 16  2  1  0  0  0  0
 17 26  1  6  0  0  0
 17  3  1  0  0  0  0
 18 25  2  0  0  0  0
 19 26  2  0  0  0  0
 20 17  1  0  0  0  0
 20 22  1  0  0  0  0
 22  9  1  0  0  0  0
 22 10  1  0  0  0  0
 26 25  1  0  0  0  0
 27 24  1  0  0  0  0
 27  7  1  0  0  0  0
 29 30  1  0  0  0  0
 30 28  1  0  0  0  0
M  END
>  <MODEL>
2

>  <REMARK>
 VINA RESULT:      -7.7      1.980      5.625
  Name = 
  2 active torsions:
  status: ('A' for Active; 'I' for Inactive)
    1  A    between atoms: C_11  and  C_28
    2  A    between atoms: C_28  and  O_30
                            x       y       z     vdW  Elec       q    Type
                         _______ _______ _______ _____ _____    ______ ____

>  <TORSDO>
F 2

$$$$
=
 OpenBabel11122410223D

 30 35  0  0  1  0  0  0  0  0999 V2000
  186.2630  178.2530  142.9140 C   0  0  1  0  0  3  0  0  0  0  0  0
  188.4740  177.0220  143.4850 C   0  0  0  0  0  0  0  0  0  0  0  0
  187.5080  178.3960  138.9320 O   0  0  0  0  0  0  0  0  0  0  0  0
  185.3180  178.0750  141.7220 C   0  0  1  0  0  3  0  0  0  0  0  0
  185.6900  177.6360  144.0460 O   0  0  0  0  0  0  0  0  0  0  0  0
  182.3900  178.9260  143.7470 O   0  0  0  0  0  0  0  0  0  0  0  0
  183.0950  179.5080  139.8870 C   0  0  1  0  0  3  0  0  0  0  0  0
  183.5720  178.6270  143.4270 C   0  0  0  0  0  0  0  0  0  0  0  0
  184.0830  179.1740  138.8350 N   0  0  2  0  0  0  0  0  0  0  0  0
  186.2850  178.1750  138.3330 C   0  0  0  0  0  0  0  0  0  0  0  0
  184.6050  178.4250  144.5010 C   0  0  2  0  0  3  0  0  0  0  0  0
  183.9470  178.4950  142.0460 N   0  0  0  0  0  0  0  0  0  0  0  0
  189.7220  176.5450  143.0770 C   0  0  0  0  0  3  0  0  0  0  0  0
  183.3080  178.5300  137.7840 C   0  0  0  0  0  2  0  0  0  0  0  0
  181.7730  179.7530  139.1840 C   0  0  0  0  0  2  0  0  0  0  0  0
  188.1130  176.8180  144.9180 C   0  0  0  0  0  1  0  0  0  0  0  0
  187.3520  178.8020  140.2810 C   0  0  1  0  0  3  0  0  0  0  0  0
  190.1720  176.7490  141.7750 C   0  0  0  0  0  3  0  0  0  0  0  0
  187.6330  177.6920  142.5580 C   0  0  0  0  0  0  0  0  0  0  0  0
  185.8280  178.8520  140.5230 C   0  0  1  0  0  3  0  0  0  0  0  0
  186.1710  177.8380  137.1260 O   0  0  0  0  0  0  0  0  0  0  0  0
  185.1520  178.2750  139.2860 C   0  0  1  0  0  3  0  0  0  0  0  0
  181.9310  179.1590  137.8000 C   0  0  0  0  0  2  0  0  0  0  0  0
  182.6030  177.0450  140.5490 C   0  0  0  0  0  1  0  0  0  0  0  0
  189.3790  177.4490  140.8690 C   0  0  0  0  0  3  0  0  0  0  0  0
  188.1160  177.9200  141.2430 C   0  0  0  0  0  0  0  0  0  0  0  0
  182.8900  178.4660  141.0250 C   0  0  2  0  0  3  0  0  0  0  0  0
  185.0630  179.7530  145.0980 C   0  0  0  0  0  2  0  0  0  0  0  0
  184.9310  178.5120  146.9170 C   0  0  0  0  0  1  0  0  0  0  0  0
  185.6800  179.5300  146.3290 O   0  0  0  0  0  0  0  0  0  0  0  0
  1 19  1  6  0  0  0
  1  5  1  0  0  0  0
  2 16  1  0  0  0  0
  4 12  1  1  0  0  0
  4  1  1  0  0  0  0
  5 11  1  0  0  0  0
  7 15  1  6  0  0  0
  7 27  1  0  0  0  0
  8  6  2  0  0  0  0
  8 11  1  0  0  0  0
  9 14  1  6  0  0  0
  9 22  1  0  0  0  0
  9  7  1  0  0  0  0
 10  3  1  0  0  0  0
 10 22  1  0  0  0  0
 11 28  1  6  0  0  0
 12  8  1  0  0  0  0
 13  2  1  0  0  0  0
 14 23  1  0  0  0  0
 17  3  1  6  0  0  0
 17 20  1  0  0  0  0
 17 26  1  0  0  0  0
 18 13  2  0  0  0  0
 19  2  2  0  0  0  0
 20  4  1  0  0  0  0
 21 10  2  0  0  0  0
 22 20  1  0  0  0  0
 23 15  1  0  0  0  0
 24 27  1  0  0  0  0
 25 26  2  0  0  0  0
 25 18  1  0  0  0  0
 26 19  1  0  0  0  0
 27 12  1  0  0  0  0
 28 30  1  0  0  0  0
 30 29  1  0  0  0  0
M  END
>  <MODEL>
3

>  <REMARK>
 VINA RESULT:      -7.5      2.331      5.647
  Name = 
  2 active torsions:
  status: ('A' for Active; 'I' for Inactive)
    1  A    between atoms: C_11  and  C_28
    2  A    between atoms: C_28  and  O_30
                            x       y       z     vdW  Elec       q    Type
                         _______ _______ _______ _____ _____    ______ ____

>  <TORSDO>
F 2

$$$$
=
 OpenBabel11122410223D

 30 35  0  0  1  0  0  0  0  0999 V2000
  188.6300  177.2880  145.7570 C   0  0  1  0  0  3  0  0  0  0  0  0
  186.9670  178.3400  147.4480 C   0  0  0  0  0  0  0  0  0  0  0  0
  185.7840  177.8910  142.7620 O   0  0  0  0  0  0  0  0  0  0  0  0
  188.9780  177.7120  144.3270 C   0  0  1  0  0  3  0  0  0  0  0  0
  189.6730  177.6860  146.6180 O   0  0  0  0  0  0  0  0  0  0  0  0
  192.4300  176.5460  144.6820 O   0  0  0  0  0  0  0  0  0  0  0  0
  190.0940  176.7070  141.4800 C   0  0  1  0  0  3  0  0  0  0  0  0
  191.2480  176.8770  144.9690 C   0  0  0  0  0  0  0  0  0  0  0  0
  188.7740  177.2170  141.0440 N   0  0  2  0  0  0  0  0  0  0  0  0
  186.6420  178.2490  141.7430 C   0  0  0  0  0  0  0  0  0  0  0  0
  190.7940  176.8470  146.4020 C   0  0  2  0  0  3  0  0  0  0  0  0
  190.3240  177.2650  143.9390 N   0  0  0  0  0  0  0  0  0  0  0  0
  185.6990  178.8600  147.7190 C   0  0  0  0  0  3  0  0  0  0  0  0
  189.0610  178.0680  139.8970 C   0  0  0  0  0  2  0  0  0  0  0  0
  190.9650  176.6290  140.2400 C   0  0  0  0  0  2  0  0  0  0  0  0
  187.9230  178.2700  148.5910 C   0  0  0  0  0  1  0  0  0  0  0  0
  186.4790  177.2350  143.8100 C   0  0  1  0  0  3  0  0  0  0  0  0
  184.7200  178.9030  146.7290 C   0  0  0  0  0  3  0  0  0  0  0  0
  187.2800  177.8780  146.1420 C   0  0  0  0  0  0  0  0  0  0  0  0
  187.9520  177.1720  143.3500 C   0  0  1  0  0  3  0  0  0  0  0  0
  186.2460  178.8150  140.6910 O   0  0  0  0  0  0  0  0  0  0  0  0
  188.0650  177.9900  142.0710 C   0  0  1  0  0  3  0  0  0  0  0  0
  190.2660  177.4760  139.1970 C   0  0  0  0  0  2  0  0  0  0  0  0
  190.9850  179.0050  142.3000 C   0  0  0  0  0  1  0  0  0  0  0  0
  184.9970  178.4080  145.4570 C   0  0  0  0  0  3  0  0  0  0  0  0
  186.2640  177.8990  145.1520 C   0  0  0  0  0  0  0  0  0  0  0  0
  190.8380  177.5130  142.5840 C   0  0  2  0  0  3  0  0  0  0  0  0
  190.5520  175.4190  146.8850 C   0  0  0  0  0  2  0  0  0  0  0  0
  192.3120  175.9820  148.0900 C   0  0  0  0  0  1  0  0  0  0  0  0
  191.7240  174.9000  147.4350 O   0  0  0  0  0  0  0  0  0  0  0  0
  1 19  1  1  0  0  0
  1  5  1  0  0  0  0
  2 13  1  0  0  0  0
  2 16  1  0  0  0  0
  4 12  1  6  0  0  0
  4  1  1  0  0  0  0
  6  8  2  0  0  0  0
  7 15  1  6  0  0  0
  7 27  1  0  0  0  0
  8 11  1  0  0  0  0
  9 14  1  6  0  0  0
  9  7  1  0  0  0  0
  9 22  1  0  0  0  0
 10 22  1  0  0  0  0
 10  3  1  0  0  0  0
 11  5  1  0  0  0  0
 11 28  1  6  0  0  0
 12  8  1  0  0  0  0
 17  3  1  6  0  0  0
 17 26  1  0  0  0  0
 18 13  2  0  0  0  0
 19  2  2  0  0  0  0
 20 17  1  0  0  0  0
 20  4  1  0  0  0  0
 21 10  2  0  0  0  0
 22 20  1  0  0  0  0
 23 14  1  0  0  0  0
 23 15  1  0  0  0  0
 24 27  1  0  0  0  0
 25 18  1  0  0  0  0
 26 25  2  0  0  0  0
 26 19  1  0  0  0  0
 27 12  1  0  0  0  0
 28 30  1  0  0  0  0
 30 29  1  0  0  0  0
M  END
>  <MODEL>
4

>  <REMARK>
 VINA RESULT:      -7.2      2.370      5.756
  Name = 
  2 active torsions:
  status: ('A' for Active; 'I' for Inactive)
    1  A    between atoms: C_11  and  C_28
    2  A    between atoms: C_28  and  O_30
                            x       y       z     vdW  Elec       q    Type
                         _______ _______ _______ _____ _____    ______ ____

>  <TORSDO>
F 2

$$$$
=
 OpenBabel11122410223D

 30 35  0  0  1  0  0  0  0  0999 V2000
  188.4830  177.3590  144.5710 C   0  0  1  0  0  3  0  0  0  0  0  0
  189.7170  177.8510  146.8000 C   0  0  0  0  0  0  0  0  0  0  0  0
  184.8710  178.0030  146.5630 O   0  0  0  0  0  0  0  0  0  0  0  0
  187.2770  178.0610  143.9390 C   0  0  1  0  0  3  0  0  0  0  0  0
  189.6530  177.7650  143.8960 O   0  0  0  0  0  0  0  0  0  0  0  0
  188.4990  177.3950  140.5520 O   0  0  0  0  0  0  0  0  0  0  0  0
  184.7910  177.7200  141.9230 C   0  0  1  0  0  3  0  0  0  0  0  0
  188.4600  177.4890  141.8090 C   0  0  0  0  0  0  0  0  0  0  0  0
  184.0460  178.0870  143.1500 N   0  0  2  0  0  0  0  0  0  0  0  0
  184.1980  178.6500  145.5490 C   0  0  0  0  0  0  0  0  0  0  0  0
  189.6830  177.1550  142.6180 C   0  0  2  0  0  3  0  0  0  0  0  0
  187.2550  177.8950  142.4780 N   0  0  0  0  0  0  0  0  0  0  0  0
  189.6590  178.1190  148.1700 C   0  0  0  0  0  3  0  0  0  0  0  0
  183.1390  179.1480  142.7350 C   0  0  0  0  0  2  0  0  0  0  0  0
  183.8620  177.9820  140.7520 C   0  0  0  0  0  2  0  0  0  0  0  0
  191.0750  177.7420  146.1930 C   0  0  0  0  0  1  0  0  0  0  0  0
  185.9960  177.2980  146.0640 C   0  0  1  0  0  3  0  0  0  0  0  0
  188.4360  178.1740  148.8340 C   0  0  0  0  0  3  0  0  0  0  0  0
  188.5180  177.6640  146.0620 C   0  0  0  0  0  0  0  0  0  0  0  0
  185.9860  177.5370  144.5380 C   0  0  1  0  0  3  0  0  0  0  0  0
  183.1470  179.3140  145.7480 O   0  0  0  0  0  0  0  0  0  0  0  0
  184.8990  178.5630  144.2450 C   0  0  1  0  0  3  0  0  0  0  0  0
  182.7630  178.8710  141.2940 C   0  0  0  0  0  2  0  0  0  0  0  0
  186.0930  179.9620  141.7490 C   0  0  0  0  0  1  0  0  0  0  0  0
  187.2550  177.9420  148.1340 C   0  0  0  0  0  3  0  0  0  0  0  0
  187.2810  177.6910  146.7570 C   0  0  0  0  0  0  0  0  0  0  0  0
  186.1490  178.4390  141.6760 C   0  0  2  0  0  3  0  0  0  0  0  0
  189.9080  175.6470  142.7000 C   0  0  0  0  0  2  0  0  0  0  0  0
  191.9850  176.3580  142.9170 C   0  0  0  0  0  1  0  0  0  0  0  0
  191.1000  175.3830  143.3750 O   0  0  0  0  0  0  0  0  0  0  0  0
  1  5  1  6  0  0  0
  1 19  1  0  0  0  0
  2 13  1  0  0  0  0
  4 12  1  6  0  0  0
  4 20  1  0  0  0  0
  4  1  1  0  0  0  0
  6  8  2  0  0  0  0
  7 15  1  6  0  0  0
  7  9  1  0  0  0  0
  8 12  1  0  0  0  0
  8 11  1  0  0  0  0
  9 14  1  6  0  0  0
  9 22  1  0  0  0  0
 10 21  2  0  0  0  0
 10  3  1  0  0  0  0
 11 28  1  1  0  0  0
 11  5  1  0  0  0  0
 13 18  2  0  0  0  0
 15 23  1  0  0  0  0
 16  2  1  0  0  0  0
 17  3  1  1  0  0  0
 17 26  1  0  0  0  0
 19 26  1  0  0  0  0
 19  2  2  0  0  0  0
 20 17  1  0  0  0  0
 22 20  1  0  0  0  0
 22 10  1  0  0  0  0
 23 14  1  0  0  0  0
 25 18  1  0  0  0  0
 26 25  2  0  0  0  0
 27 24  1  0  0  0  0
 27  7  1  0  0  0  0
 27 12  1  0  0  0  0
 28 30  1  0  0  0  0
 29 30  1  0  0  0  0
M  END
>  <MODEL>
5

>  <REMARK>
 VINA RESULT:      -7.1      1.522      2.122
  Name = 
  2 active torsions:
  status: ('A' for Active; 'I' for Inactive)
    1  A    between atoms: C_11  and  C_28
    2  A    between atoms: C_28  and  O_30
                            x       y       z     vdW  Elec       q    Type
                         _______ _______ _______ _____ _____    ______ ____

>  <TORSDO>
F 2

$$$$
=
 OpenBabel11122410223D

 30 35  0  0  1  0  0  0  0  0999 V2000
  182.4700  178.7980  141.2040 C   0  0  1  0  0  3  0  0  0  0  0  0
  183.9200  178.6240  143.3480 C   0  0  0  0  0  0  0  0  0  0  0  0
  185.9630  178.4120  138.9500 O   0  0  0  0  0  0  0  0  0  0  0  0
  182.5530  178.0090  139.8940 C   0  0  1  0  0  3  0  0  0  0  0  0
  181.3860  178.3100  141.9630 O   0  0  0  0  0  0  0  0  0  0  0  0
  178.9320  178.2100  139.3900 O   0  0  0  0  0  0  0  0  0  0  0  0
  181.8840  178.0540  136.7450 C   0  0  1  0  0  3  0  0  0  0  0  0
  180.0670  178.2890  139.9340 C   0  0  0  0  0  0  0  0  0  0  0  0
  183.3500  177.8550  136.6680 N   0  0  2  0  0  0  0  0  0  0  0  0
  185.4580  177.6270  137.9340 C   0  0  0  0  0  0  0  0  0  0  0  0
  180.1750  178.7390  141.3650 C   0  0  2  0  0  3  0  0  0  0  0  0
  181.2590  177.9720  139.1980 N   0  0  0  0  0  0  0  0  0  0  0  0
  185.1840  178.5450  143.9390 C   0  0  0  0  0  3  0  0  0  0  0  0
  183.5290  176.7410  135.7470 C   0  0  0  0  0  2  0  0  0  0  0  0
  181.3140  177.6290  135.4050 C   0  0  0  0  0  2  0  0  0  0  0  0
  182.7480  178.6560  144.2690 C   0  0  0  0  0  1  0  0  0  0  0  0
  184.9220  179.0480  139.6720 C   0  0  1  0  0  3  0  0  0  0  0  0
  186.3380  178.5760  143.1600 C   0  0  0  0  0  3  0  0  0  0  0  0
  183.8020  178.7010  141.9350 C   0  0  0  0  0  0  0  0  0  0  0  0
  183.6130  178.6020  138.9850 C   0  0  1  0  0  3  0  0  0  0  0  0
  186.1960  176.9910  137.1380 O   0  0  0  0  0  0  0  0  0  0  0  0
  183.9770  177.5390  137.9570 C   0  0  1  0  0  3  0  0  0  0  0  0
  182.4020  176.8160  134.7380 C   0  0  0  0  0  2  0  0  0  0  0  0
  181.3990  175.8180  137.9750 C   0  0  0  0  0  1  0  0  0  0  0  0
  186.2390  178.7020  141.7770 C   0  0  0  0  0  3  0  0  0  0  0  0
  184.9860  178.7610  141.1560 C   0  0  0  0  0  0  0  0  0  0  0  0
  181.1270  177.3170  137.8870 C   0  0  2  0  0  3  0  0  0  0  0  0
  179.9650  180.2450  141.4990 C   0  0  0  0  0  2  0  0  0  0  0  0
  178.9310  180.0700  143.4400 C   0  0  0  0  0  1  0  0  0  0  0  0
  180.0630  180.6190  142.8400 O   0  0  0  0  0  0  0  0  0  0  0  0
  1 19  1  1  0  0  0
  1  5  1  0  0  0  0
  2 13  1  0  0  0  0
  2 16  1  0  0  0  0
  4 12  1  6  0  0  0
  4  1  1  0  0  0  0
  6  8  2  0  0  0  0
  7 15  1  6  0  0  0
  7 27  1  0  0  0  0
  8 11  1  0  0  0  0
  9 14  1  6  0  0  0
  9  7  1  0  0  0  0
  9 22  1  0  0  0  0
 10 22  1  0  0  0  0
 10  3  1  0  0  0  0
 11 28  1  6  0  0  0
 11  5  1  0  0  0  0
 12  8  1  0  0  0  0
 17  3  1  6  0  0  0
 17 26  1  0  0  0  0
 18 13  2  0  0  0  0
 19  2  2  0  0  0  0
 20 17  1  0  0  0  0
 20  4  1  0  0  0  0
 21 10  2  0  0  0  0
 22 20  1  0  0  0  0
 23 15  1  0  0  0  0
 23 14  1  0  0  0  0
 25 18  1  0  0  0  0
 26 25  2  0  0  0  0
 26 19  1  0  0  0  0
 27 24  1  0  0  0  0
 27 12  1  0  0  0  0
 28 30  1  0  0  0  0
 30 29  1  0  0  0  0
M  END
>  <MODEL>
6

>  <REMARK>
 VINA RESULT:      -7.0      4.414      8.007
  Name = 
  2 active torsions:
  status: ('A' for Active; 'I' for Inactive)
    1  A    between atoms: C_11  and  C_28
    2  A    between atoms: C_28  and  O_30
                            x       y       z     vdW  Elec       q    Type
                         _______ _______ _______ _____ _____    ______ ____

>  <TORSDO>
F 2

$$$$
=
 OpenBabel11122410223D

 30 35  0  0  1  0  0  0  0  0999 V2000
  187.3170  177.9220  140.3380 C   0  0  1  0  0  3  0  0  0  0  0  0
  189.6150  177.9450  139.1360 C   0  0  0  0  0  0  0  0  0  0  0  0
  189.2790  176.7040  143.8170 O   0  0  0  0  0  0  0  0  0  0  0  0
  186.9360  178.4030  141.7420 C   0  0  1  0  0  3  0  0  0  0  0  0
  186.8740  178.8710  139.3940 O   0  0  0  0  0  0  0  0  0  0  0  0
  183.5810  179.3730  140.6420 O   0  0  0  0  0  0  0  0  0  0  0  0
  184.8460  178.0630  144.1660 C   0  0  1  0  0  3  0  0  0  0  0  0
  184.7860  179.0030  140.6100 C   0  0  0  0  0  0  0  0  0  0  0  0
  186.0960  177.7320  144.8890 N   0  0  2  0  0  0  0  0  0  0  0  0
  188.5410  177.4330  144.7260 C   0  0  0  0  0  0  0  0  0  0  0  0
  185.4640  178.7890  139.2850 C   0  0  2  0  0  3  0  0  0  0  0  0
  185.5140  178.7640  141.8260 N   0  0  0  0  0  0  0  0  0  0  0  0
  190.9880  177.6830  139.1650 C   0  0  0  0  0  3  0  0  0  0  0  0
  186.0570  178.5460  146.0970 C   0  0  0  0  0  2  0  0  0  0  0  0
  183.8150  178.4270  145.2180 C   0  0  0  0  0  2  0  0  0  0  0  0
  189.0580  178.4700  137.8560 C   0  0  0  0  0  1  0  0  0  0  0  0
  188.6000  176.5940  142.5770 C   0  0  1  0  0  3  0  0  0  0  0  0
  191.5840  177.1290  140.2950 C   0  0  0  0  0  3  0  0  0  0  0  0
  188.8180  177.6780  140.2810 C   0  0  0  0  0  0  0  0  0  0  0  0
  187.2630  177.3400  142.7730 C   0  0  1  0  0  3  0  0  0  0  0  0
  188.9280  177.6350  145.9060 O   0  0  0  0  0  0  0  0  0  0  0  0
  187.3180  178.0250  144.1320 C   0  0  1  0  0  3  0  0  0  0  0  0
  184.6010  178.6940  146.4840 C   0  0  0  0  0  2  0  0  0  0  0  0
  185.5340  180.5020  143.5960 C   0  0  0  0  0  1  0  0  0  0  0  0
  190.8060  176.8150  141.4060 C   0  0  0  0  0  3  0  0  0  0  0  0
  189.4330  177.0850  141.4140 C   0  0  0  0  0  0  0  0  0  0  0  0
  184.9210  179.1950  143.1020 C   0  0  2  0  0  3  0  0  0  0  0  0
  185.0080  177.4910  138.6230 C   0  0  0  0  0  2  0  0  0  0  0  0
  185.9100  176.5280  136.8550 C   0  0  0  0  0  1  0  0  0  0  0  0
  185.1120  177.6060  137.2360 O   0  0  0  0  0  0  0  0  0  0  0  0
  1  5  1  6  0  0  0
  1  4  1  0  0  0  0
  2 13  2  0  0  0  0
  2 19  1  0  0  0  0
  3 10  1  0  0  0  0
  4 12  1  6  0  0  0
  4 20  1  0  0  0  0
  7  9  1  0  0  0  0
  7 15  1  1  0  0  0
  8  6  2  0  0  0  0
  8 12  1  0  0  0  0
  9 14  1  1  0  0  0
 10 21  2  0  0  0  0
 11 28  1  1  0  0  0
 11  5  1  0  0  0  0
 11  8  1  0  0  0  0
 12 27  1  0  0  0  0
 13 18  1  0  0  0  0
 14 23  1  0  0  0  0
 15 23  1  0  0  0  0
 16  2  1  0  0  0  0
 17 26  1  6  0  0  0
 17 20  1  0  0  0  0
 17  3  1  0  0  0  0
 18 25  2  0  0  0  0
 19  1  1  0  0  0  0
 19 26  2  0  0  0  0
 20 22  1  0  0  0  0
 22 10  1  0  0  0  0
 22  9  1  0  0  0  0
 25 26  1  0  0  0  0
 27 24  1  0  0  0  0
 27  7  1  0  0  0  0
 29 30  1  0  0  0  0
 30 28  1  0  0  0  0
M  END
>  <MODEL>
7

>  <REMARK>
 VINA RESULT:      -7.0      1.981      4.050
  Name = 
  2 active torsions:
  status: ('A' for Active; 'I' for Inactive)
    1  A    between atoms: C_11  and  C_28
    2  A    between atoms: C_28  and  O_30
                            x       y       z     vdW  Elec       q    Type
                         _______ _______ _______ _____ _____    ______ ____

>  <TORSDO>
F 2

$$$$
=
 OpenBabel11122410223D

 30 35  0  0  1  0  0  0  0  0999 V2000
  183.2020  179.0390  140.8130 C   0  0  1  0  0  3  0  0  0  0  0  0
  182.6190  178.8110  143.3310 C   0  0  0  0  0  0  0  0  0  0  0  0
  187.2380  178.7560  141.8410 O   0  0  0  0  0  0  0  0  0  0  0  0
  184.2420  178.2920  139.9730 C   0  0  1  0  0  3  0  0  0  0  0  0
  181.9230  178.5170  140.5250 O   0  0  0  0  0  0  0  0  0  0  0  0
  182.1470  178.4760  136.9760 O   0  0  0  0  0  0  0  0  0  0  0  0
  186.0970  178.4310  137.3450 C   0  0  1  0  0  3  0  0  0  0  0  0
  182.5160  178.5490  138.1790 C   0  0  0  0  0  0  0  0  0  0  0  0
  187.1540  178.2480  138.3660 N   0  0  2  0  0  0  0  0  0  0  0  0
  187.6630  177.9990  140.7690 C   0  0  0  0  0  0  0  0  0  0  0  0
  181.5270  178.9540  139.2370 C   0  0  2  0  0  3  0  0  0  0  0  0
  183.8750  178.2660  138.5490 N   0  0  0  0  0  0  0  0  0  0  0  0
  183.0460  178.7260  144.6580 C   0  0  0  0  0  3  0  0  0  0  0  0
  187.9840  177.1650  137.8550 C   0  0  0  0  0  2  0  0  0  0  0  0
  186.7050  178.0430  136.0100 C   0  0  0  0  0  2  0  0  0  0  0  0
  181.1460  178.8040  143.0960 C   0  0  0  0  0  1  0  0  0  0  0  0
  185.9830  179.3600  141.5760 C   0  0  1  0  0  3  0  0  0  0  0  0
  184.4000  178.7910  144.9770 C   0  0  0  0  0  3  0  0  0  0  0  0
  183.5730  178.9310  142.2850 C   0  0  0  0  0  0  0  0  0  0  0  0
  185.6110  178.9230  140.1420 C   0  0  1  0  0  3  0  0  0  0  0  0
  188.7670  177.3950  140.7610 O   0  0  0  0  0  0  0  0  0  0  0  0
  186.6440  177.8970  139.6960 C   0  0  1  0  0  3  0  0  0  0  0  0
  187.9570  177.2610  136.3440 C   0  0  0  0  0  2  0  0  0  0  0  0
  184.9310  176.1530  137.7910 C   0  0  0  0  0  1  0  0  0  0  0  0
  185.3430  178.9600  143.9670 C   0  0  0  0  0  3  0  0  0  0  0  0
  184.9470  179.0270  142.6270 C   0  0  0  0  0  0  0  0  0  0  0  0
  184.7660  177.6510  137.5540 C   0  0  2  0  0  3  0  0  0  0  0  0
  181.2420  180.4530  139.1950 C   0  0  0  0  0  2  0  0  0  0  0  0
  179.4950  181.7640  139.5060 C   0  0  0  0  0  1  0  0  0  0  0  0
  180.2540  180.7730  140.1270 O   0  0  0  0  0  0  0  0  0  0  0  0
  1  5  1  1  0  0  0
  1 19  1  0  0  0  0
  2 13  1  0  0  0  0
  4 12  1  6  0  0  0
  4 20  1  0  0  0  0
  4  1  1  0  0  0  0
  6  8  2  0  0  0  0
  7 15  1  6  0  0  0
  7 27  1  0  0  0  0
  7  9  1  0  0  0  0
  8 12  1  0  0  0  0
  8 11  1  0  0  0  0
  9 14  1  6  0  0  0
  9 22  1  0  0  0  0
 10  3  1  0  0  0  0
 11 28  1  1  0  0  0
 11  5  1  0  0  0  0
 13 18  2  0  0  0  0
 15 23  1  0  0  0  0
 16  2  1  0  0  0  0
 17  3  1  1  0  0  0
 17 26  1  0  0  0  0
 19 26  1  0  0  0  0
 19  2  2  0  0  0  0
 20 17  1  0  0  0  0
 21 10  2  0  0  0  0
 22 20  1  0  0  0  0
 22 10  1  0  0  0  0
 23 14  1  0  0  0  0
 25 18  1  0  0  0  0
 26 25  2  0  0  0  0
 27 24  1  0  0  0  0
 27 12  1  0  0  0  0
 28 30  1  0  0  0  0
 29 30  1  0  0  0  0
M  END
>  <MODEL>
8

>  <REMARK>
 VINA RESULT:      -6.8      3.533      7.268
  Name = 
  2 active torsions:
  status: ('A' for Active; 'I' for Inactive)
    1  A    between atoms: C_11  and  C_28
    2  A    between atoms: C_28  and  O_30
                            x       y       z     vdW  Elec       q    Type
                         _______ _______ _______ _____ _____    ______ ____

>  <TORSDO>
F 2

$$$$
=
 OpenBabel11122410223D

 30 35  0  0  1  0  0  0  0  0999 V2000
  186.9450  178.3560  141.4640 C   0  0  1  0  0  3  0  0  0  0  0  0
  184.4090  178.2940  140.9210 C   0  0  0  0  0  0  0  0  0  0  0  0
  185.9520  178.6680  145.5080 O   0  0  0  0  0  0  0  0  0  0  0  0
  187.7270  177.6670  142.5870 C   0  0  1  0  0  3  0  0  0  0  0  0
  187.1660  177.6570  140.2590 O   0  0  0  0  0  0  0  0  0  0  0  0
  190.6990  177.3130  140.4770 O   0  0  0  0  0  0  0  0  0  0  0  0
  190.3830  177.7870  144.4030 C   0  0  1  0  0  3  0  0  0  0  0  0
  189.5120  177.5420  140.8370 C   0  0  0  0  0  0  0  0  0  0  0  0
  189.3640  177.8310  145.4780 N   0  0  2  0  0  0  0  0  0  0  0  0
  186.9560  177.8720  146.0200 C   0  0  0  0  0  0  0  0  0  0  0  0
  188.4830  177.9200  139.8080 C   0  0  2  0  0  3  0  0  0  0  0  0
  189.1370  177.4630  142.2220 N   0  0  0  0  0  0  0  0  0  0  0  0
  183.0850  178.3860  141.3580 C   0  0  0  0  0  3  0  0  0  0  0  0
  189.7840  176.8150  146.4340 C   0  0  0  0  0  2  0  0  0  0  0  0
  191.6840  177.3530  145.0510 C   0  0  0  0  0  2  0  0  0  0  0  0
  184.6210  178.0840  139.4590 C   0  0  0  0  0  1  0  0  0  0  0  0
  186.2540  179.0850  144.1860 C   0  0  1  0  0  3  0  0  0  0  0  0
  182.7930  178.6460  142.6950 C   0  0  0  0  0  3  0  0  0  0  0  0
  185.4740  178.4320  141.8500 C   0  0  0  0  0  0  0  0  0  0  0  0
  187.6360  178.4750  143.8670 C   0  0  1  0  0  3  0  0  0  0  0  0
  186.9230  177.4090  147.1900 O   0  0  0  0  0  0  0  0  0  0  0  0
  188.0000  177.5460  145.0180 C   0  0  1  0  0  3  0  0  0  0  0  0
  191.2970  176.7660  146.3910 C   0  0  0  0  0  2  0  0  0  0  0  0
  189.7120  175.4340  143.5290 C   0  0  0  0  0  1  0  0  0  0  0  0
  183.8280  178.8340  143.6080 C   0  0  0  0  0  3  0  0  0  0  0  0
  185.1630  178.7270  143.2020 C   0  0  0  0  0  0  0  0  0  0  0  0
  190.0840  176.8720  143.1800 C   0  0  2  0  0  3  0  0  0  0  0  0
  188.6590  179.3620  139.3400 C   0  0  0  0  0  2  0  0  0  0  0  0
  188.7550  178.1050  137.5300 C   0  0  0  0  0  1  0  0  0  0  0  0
  189.0620  179.3800  138.0050 O   0  0  0  0  0  0  0  0  0  0  0  0
  1  5  1  6  0  0  0
  1 19  1  0  0  0  0
  1  4  1  0  0  0  0
  2 13  2  0  0  0  0
  2 19  1  0  0  0  0
  3 10  1  0  0  0  0
  4 12  1  6  0  0  0
  4 20  1  0  0  0  0
  6  8  2  0  0  0  0
  7 15  1  1  0  0  0
  7  9  1  0  0  0  0
  8 12  1  0  0  0  0
  9 14  1  1  0  0  0
 10 21  2  0  0  0  0
 11 28  1  1  0  0  0
 11  5  1  0  0  0  0
 11  8  1  0  0  0  0
 12 27  1  0  0  0  0
 13 18  1  0  0  0  0
 15 23  1  0  0  0  0
 16  2  1  0  0  0  0
 17 26  1  6  0  0  0
 17  3  1  0  0  0  0
 18 25  2  0  0  0  0
 19 26  2  0  0  0  0
 20 17  1  0  0  0  0
 20 22  1  0  0  0  0
 22  9  1  0  0  0  0
 22 10  1  0  0  0  0
 23 14  1  0  0  0  0
 26 25  1  0  0  0  0
 27 24  1  0  0  0  0
 27  7  1  0  0  0  0
 29 30  1  0  0  0  0
 30 28  1  0  0  0  0
M  END
>  <MODEL>
9

>  <REMARK>
 VINA RESULT:      -6.6      1.683      5.407
  Name = 
  2 active torsions:
  status: ('A' for Active; 'I' for Inactive)
    1  A    between atoms: C_11  and  C_28
    2  A    between atoms: C_28  and  O_30
                            x       y       z     vdW  Elec       q    Type
                         _______ _______ _______ _____ _____    ______ ____

>  <TORSDO>
F 2

$$$$
