=
 OpenBabel11122411363D

 37 44  0  0  1  0  0  0  0  0999 V2000
  184.0410  177.8260  140.7810 C   0  0  0  0  0  2  0  0  0  0  0  0
  187.2250  177.6840  137.3670 C   0  0  0  0  0  0  0  0  0  0  0  0
  188.6640  177.7760  141.2830 C   0  0  0  0  0  0  0  0  0  0  0  0
  182.6120  178.3700  140.5260 C   0  0  1  0  0  3  0  0  0  0  0  0
  186.2160  178.6730  144.1870 C   0  0  0  0  0  2  0  0  0  0  0  0
  189.2220  177.6060  138.9340 C   0  0  0  0  0  0  0  0  0  0  0  0
  187.5190  178.1210  142.0070 C   0  0  0  0  0  0  0  0  0  0  0  0
  182.3360  178.8880  143.0290 C   0  0  0  0  0  0  0  0  0  0  0  0
  188.3320  177.8650  139.9600 C   0  0  0  0  0  0  0  0  0  0  0  0
  187.4180  178.1710  143.4760 N   0  0  0  0  0  0  0  0  0  0  0  0
  190.5360  177.2500  139.2800 C   0  0  0  0  0  3  0  0  0  0  0  0
  181.9040  179.1950  141.6310 C   0  0  0  0  0  2  0  0  0  0  0  0
  187.0590  178.2170  139.7790 N   0  0  0  0  0  0  0  0  0  0  0  0
  186.8110  176.2230  137.4170 C   0  0  0  0  0  1  0  0  0  0  0  0
  190.3660  177.2390  143.0950 C   0  0  0  0  0  2  0  0  0  0  0  0
  190.9010  177.1480  140.6420 C   0  0  0  0  0  3  0  0  0  0  0  0
  186.4710  178.4690  138.4640 C   0  0  0  0  0  2  0  0  0  0  0  0
  183.7160  178.9810  143.3100 N   0  0  0  0  0  0  0  0  0  0  0  0
  185.0160  178.2210  143.4220 C   0  0  1  0  0  3  0  0  0  0  0  0
  189.9680  177.4210  141.6640 C   0  0  0  0  0  0  0  0  0  0  0  0
  186.5220  178.3990  141.0080 C   0  0  0  0  0  0  0  0  0  0  0  0
  188.7640  177.7920  137.5130 C   0  0  0  0  0  2  0  0  0  0  0  0
  188.5190  177.5880  144.2640 C   0  0  1  0  0  3  0  0  0  0  0  0
  186.8290  178.2420  136.0170 C   0  0  0  0  0  1  0  0  0  0  0  0
  184.9670  179.3450  142.6350 C   0  0  1  0  0  3  0  0  0  0  0  0
  181.5120  178.5480  143.9170 O   0  0  0  0  0  0  0  0  0  0  0  0
  185.0930  178.8810  141.2010 C   0  0  2  0  0  3  0  0  0  0  0  0
  189.7350  178.1840  143.9090 O   0  0  0  0  0  0  0  0  0  0  0  0
  187.0340  177.4930  146.2810 C   0  0  0  0  0  3  0  0  0  0  0  0
  188.3200  177.6570  145.7530 C   0  0  0  0  0  0  0  0  0  0  0  0
  189.3970  177.9160  146.6140 C   0  0  0  0  0  3  0  0  0  0  0  0
  190.2290  178.2470  148.8230 F   0  0  0  0  0  0  0  0  0  0  0  0
  187.9020  177.8290  148.5170 C   0  0  0  0  0  3  0  0  0  0  0  0
  189.1870  177.9990  147.9940 C   0  0  0  0  0  0  0  0  0  0  0  0
  186.8260  177.5760  147.6600 C   0  0  0  0  0  3  0  0  0  0  0  0
  182.9410  178.2960  138.1590 O   0  0  0  0  0  1  0  0  0  0  0  0
  182.5450  179.1250  139.2090 C   0  0  0  0  0  2  0  0  0  0  0  0
  2 14  1  0  0  0  0
  2 22  1  0  0  0  0
  2 17  1  0  0  0  0
  3 20  1  0  0  0  0
  3  7  1  0  0  0  0
  4 37  1  6  0  0  0
  4  1  1  0  0  0  0
  4 12  1  0  0  0  0
  6 11  2  0  0  0  0
  6  9  1  0  0  0  0
  7 10  1  0  0  0  0
  8 18  1  0  0  0  0
  8 26  2  0  0  0  0
  9  3  2  0  0  0  0
 10  5  1  0  0  0  0
 10 23  1  0  0  0  0
 11 16  1  0  0  0  0
 12  8  1  0  0  0  0
 13  9  1  0  0  0  0
 13 21  1  0  0  0  0
 15 28  1  0  0  0  0
 16 20  2  0  0  0  0
 17 13  1  0  0  0  0
 18 19  1  0  0  0  0
 19  5  1  1  0  0  0
 20 15  1  0  0  0  0
 21 27  1  0  0  0  0
 21  7  2  0  0  0  0
 22  6  1  0  0  0  0
 23 30  1  1  0  0  0
 24  2  1  0  0  0  0
 25 18  1  6  0  0  0
 25 19  1  0  0  0  0
 27  1  1  1  0  0  0
 27 25  1  0  0  0  0
 28 23  1  0  0  0  0
 29 35  1  0  0  0  0
 30 29  2  0  0  0  0
 30 31  1  0  0  0  0
 31 34  2  0  0  0  0
 34 33  1  0  0  0  0
 34 32  1  0  0  0  0
 35 33  2  0  0  0  0
 36 37  1  0  0  0  0
M  END
>  <MODEL>
1

>  <REMARK>
 VINA RESULT:     -11.0      0.000      0.000
  Name = 
  2 active torsions:
  status: ('A' for Active; 'I' for Inactive)
    1  A    between atoms: C_4  and  C_37
    2  A    between atoms: C_23  and  C_30
                            x       y       z     vdW  Elec       q    Type
                         _______ _______ _______ _____ _____    ______ ____

>  <TORSDO>
F 2

$$$$
=
 OpenBabel11122411363D

 37 44  0  0  1  0  0  0  0  0999 V2000
  189.5900  176.6480  142.7110 C   0  0  0  0  0  2  0  0  0  0  0  0
  188.7320  177.5760  147.2070 C   0  0  0  0  0  0  0  0  0  0  0  0
  185.6640  178.3840  144.4960 C   0  0  0  0  0  0  0  0  0  0  0  0
  191.0400  176.5940  142.1630 C   0  0  1  0  0  3  0  0  0  0  0  0
  186.4600  178.4120  140.6770 C   0  0  0  0  0  2  0  0  0  0  0  0
  186.3390  178.3340  146.8200 C   0  0  0  0  0  0  0  0  0  0  0  0
  186.3280  178.3000  143.2690 C   0  0  0  0  0  0  0  0  0  0  0  0
  190.1850  177.0810  139.7860 C   0  0  0  0  0  0  0  0  0  0  0  0
  186.6200  178.2810  145.4670 C   0  0  0  0  0  0  0  0  0  0  0  0
  185.6890  178.3730  141.9440 N   0  0  0  0  0  0  0  0  0  0  0  0
  185.0020  178.5220  147.2050 C   0  0  0  0  0  3  0  0  0  0  0  0
  191.3350  177.1370  140.7410 C   0  0  0  0  0  2  0  0  0  0  0  0
  187.8420  178.1130  144.9600 N   0  0  0  0  0  0  0  0  0  0  0  0
  188.5230  176.0710  147.1920 C   0  0  0  0  0  1  0  0  0  0  0  0
  183.2210  178.6180  143.8290 C   0  0  0  0  0  2  0  0  0  0  0  0
  183.9950  178.6280  146.2190 C   0  0  0  0  0  3  0  0  0  0  0  0
  189.0550  178.0630  145.7760 C   0  0  0  0  0  2  0  0  0  0  0  0
  188.9850  177.7050  140.1900 N   0  0  0  0  0  0  0  0  0  0  0  0
  187.6340  177.5030  140.8330 C   0  0  1  0  0  3  0  0  0  0  0  0
  184.3170  178.5700  144.8460 C   0  0  0  0  0  0  0  0  0  0  0  0
  187.7150  178.1320  143.6130 C   0  0  0  0  0  0  0  0  0  0  0  0
  187.4800  178.2680  147.8000 C   0  0  0  0  0  2  0  0  0  0  0  0
  184.2190  178.2900  141.8800 C   0  0  1  0  0  3  0  0  0  0  0  0
  189.9180  177.8800  148.0980 C   0  0  0  0  0  1  0  0  0  0  0  0
  188.4620  178.4860  141.3160 C   0  0  1  0  0  3  0  0  0  0  0  0
  190.2730  176.4930  138.6780 O   0  0  0  0  0  0  0  0  0  0  0  0
  188.9180  178.0420  142.6870 C   0  0  2  0  0  3  0  0  0  0  0  0
  183.6440  179.2870  142.6760 O   0  0  0  0  0  0  0  0  0  0  0  0
  183.5840  179.5750  139.8250 C   0  0  0  0  0  3  0  0  0  0  0  0
  183.6540  178.3450  140.4880 C   0  0  0  0  0  0  0  0  0  0  0  0
  183.1690  177.1880  139.8580 C   0  0  0  0  0  3  0  0  0  0  0  0
  182.1610  176.1460  137.9670 F   0  0  0  0  0  0  0  0  0  0  0  0
  182.5630  178.4950  137.9120 C   0  0  0  0  0  3  0  0  0  0  0  0
  182.6280  177.2650  138.5720 C   0  0  0  0  0  0  0  0  0  0  0  0
  183.0420  179.6510  138.5390 C   0  0  0  0  0  3  0  0  0  0  0  0
  191.7760  176.7140  144.4340 O   0  0  0  0  0  1  0  0  0  0  0  0
  192.0180  177.2080  143.1510 C   0  0  0  0  0  2  0  0  0  0  0  0
  2 22  1  0  0  0  0
  2 24  1  0  0  0  0
  3 20  2  0  0  0  0
  3  9  1  0  0  0  0
  4  1  1  0  0  0  0
  4 37  1  1  0  0  0
  5 10  1  0  0  0  0
  6 11  1  0  0  0  0
  6 22  1  0  0  0  0
  7 21  2  0  0  0  0
  7  3  1  0  0  0  0
  8 18  1  0  0  0  0
  8 12  1  0  0  0  0
  9  6  2  0  0  0  0
 10  7  1  0  0  0  0
 12  4  1  0  0  0  0
 13  9  1  0  0  0  0
 13 17  1  0  0  0  0
 14  2  1  0  0  0  0
 15 20  1  0  0  0  0
 16 11  2  0  0  0  0
 17  2  1  0  0  0  0
 18 19  1  0  0  0  0
 19  5  1  6  0  0  0
 19 25  1  0  0  0  0
 20 16  1  0  0  0  0
 21 13  1  0  0  0  0
 23 30  1  6  0  0  0
 23 10  1  0  0  0  0
 23 28  1  0  0  0  0
 25 18  1  6  0  0  0
 25 27  1  0  0  0  0
 26  8  2  0  0  0  0
 27  1  1  6  0  0  0
 27 21  1  0  0  0  0
 28 15  1  0  0  0  0
 29 30  1  0  0  0  0
 31 30  2  0  0  0  0
 32 34  1  0  0  0  0
 33 35  1  0  0  0  0
 33 34  2  0  0  0  0
 34 31  1  0  0  0  0
 35 29  2  0  0  0  0
 37 36  1  0  0  0  0
M  END
>  <MODEL>
2

>  <REMARK>
 VINA RESULT:     -10.4      2.970      8.220
  Name = 
  2 active torsions:
  status: ('A' for Active; 'I' for Inactive)
    1  A    between atoms: C_4  and  C_37
    2  A    between atoms: C_23  and  C_30
                            x       y       z     vdW  Elec       q    Type
                         _______ _______ _______ _____ _____    ______ ____

>  <TORSDO>
F 2

$$$$
=
 OpenBabel11122411363D

 37 44  0  0  1  0  0  0  0  0999 V2000
  189.2570  176.4960  138.7370 C   0  0  0  0  0  2  0  0  0  0  0  0
  190.2510  176.9120  143.2810 C   0  0  0  0  0  0  0  0  0  0  0  0
  186.4760  178.1990  142.0510 C   0  0  0  0  0  0  0  0  0  0  0  0
  190.3810  176.4360  137.6700 C   0  0  1  0  0  3  0  0  0  0  0  0
  185.7700  178.6510  138.2400 C   0  0  0  0  0  2  0  0  0  0  0  0
  187.9710  177.8330  143.9200 C   0  0  0  0  0  0  0  0  0  0  0  0
  186.6170  178.2310  140.6610 C   0  0  0  0  0  0  0  0  0  0  0  0
  188.7420  177.2500  135.8630 C   0  0  0  0  0  0  0  0  0  0  0  0
  187.7140  177.9300  142.5640 C   0  0  0  0  0  0  0  0  0  0  0  0
  185.5350  178.4970  139.6970 N   0  0  0  0  0  0  0  0  0  0  0  0
  186.9020  178.0390  144.8060 C   0  0  0  0  0  3  0  0  0  0  0  0
  190.1670  177.1320  136.3010 C   0  0  0  0  0  2  0  0  0  0  0  0
  188.6320  177.7630  141.6120 N   0  0  0  0  0  0  0  0  0  0  0  0
  189.9110  175.4330  143.2090 C   0  0  0  0  0  1  0  0  0  0  0  0
  183.9950  178.6360  142.4020 C   0  0  0  0  0  2  0  0  0  0  0  0
  185.6110  178.3150  144.2980 C   0  0  0  0  0  3  0  0  0  0  0  0
  190.0530  177.5530  141.8890 C   0  0  0  0  0  2  0  0  0  0  0  0
  187.8470  177.8810  136.7550 N   0  0  0  0  0  0  0  0  0  0  0  0
  186.8260  177.6710  137.8470 C   0  0  1  0  0  3  0  0  0  0  0  0
  185.3840  178.4090  142.9090 C   0  0  0  0  0  0  0  0  0  0  0  0
  188.0080  177.9530  140.4260 C   0  0  0  0  0  0  0  0  0  0  0  0
  189.3850  177.5900  144.3730 C   0  0  0  0  0  2  0  0  0  0  0  0
  184.1490  178.4970  140.1980 C   0  0  1  0  0  3  0  0  0  0  0  0
  191.7070  177.0450  143.6700 C   0  0  0  0  0  1  0  0  0  0  0  0
  187.8630  178.5450  138.0620 C   0  0  1  0  0  3  0  0  0  0  0  0
  188.3490  176.7980  134.7570 O   0  0  0  0  0  0  0  0  0  0  0  0
  188.7590  177.9140  139.1040 C   0  0  2  0  0  3  0  0  0  0  0  0
  184.0120  179.4180  141.2430 O   0  0  0  0  0  0  0  0  0  0  0  0
  182.6150  177.6740  138.3940 C   0  0  0  0  0  3  0  0  0  0  0  0
  183.1080  178.7490  139.1420 C   0  0  0  0  0  0  0  0  0  0  0  0
  182.6490  180.0480  138.8760 C   0  0  0  0  0  3  0  0  0  0  0  0
  181.2560  181.5200  137.6210 F   0  0  0  0  0  0  0  0  0  0  0  0
  181.2060  179.1870  137.1330 C   0  0  0  0  0  3  0  0  0  0  0  0
  181.6980  180.2650  137.8750 C   0  0  0  0  0  0  0  0  0  0  0  0
  181.6640  177.8910  137.3930 C   0  0  0  0  0  3  0  0  0  0  0  0
  192.7630  176.3860  137.4800 O   0  0  0  0  0  1  0  0  0  0  0  0
  191.7120  176.8740  138.2580 C   0  0  0  0  0  2  0  0  0  0  0  0
  2 24  1  0  0  0  0
  2 22  1  0  0  0  0
  3  9  2  0  0  0  0
  3 20  1  0  0  0  0
  4 37  1  1  0  0  0
  4  1  1  0  0  0  0
  5 10  1  0  0  0  0
  6 22  1  0  0  0  0
  6 11  2  0  0  0  0
  7  3  1  0  0  0  0
  8 12  1  0  0  0  0
  8 18  1  0  0  0  0
  9  6  1  0  0  0  0
 10 23  1  0  0  0  0
 10  7  1  0  0  0  0
 12  4  1  0  0  0  0
 13 17  1  0  0  0  0
 13  9  1  0  0  0  0
 14  2  1  0  0  0  0
 15 20  1  0  0  0  0
 16 11  1  0  0  0  0
 17  2  1  0  0  0  0
 18 19  1  0  0  0  0
 19 25  1  0  0  0  0
 19  5  1  6  0  0  0
 20 16  2  0  0  0  0
 21  7  2  0  0  0  0
 21 13  1  0  0  0  0
 23 30  1  6  0  0  0
 23 28  1  0  0  0  0
 25 18  1  6  0  0  0
 25 27  1  0  0  0  0
 26  8  2  0  0  0  0
 27  1  1  6  0  0  0
 27 21  1  0  0  0  0
 28 15  1  0  0  0  0
 29 30  1  0  0  0  0
 31 30  2  0  0  0  0
 32 34  1  0  0  0  0
 33 35  1  0  0  0  0
 33 34  2  0  0  0  0
 34 31  1  0  0  0  0
 35 29  2  0  0  0  0
 36 37  1  0  0  0  0
M  END
>  <MODEL>
3

>  <REMARK>
 VINA RESULT:     -10.2      3.259      7.891
  Name = 
  2 active torsions:
  status: ('A' for Active; 'I' for Inactive)
    1  A    between atoms: C_4  and  C_37
    2  A    between atoms: C_23  and  C_30
                            x       y       z     vdW  Elec       q    Type
                         _______ _______ _______ _____ _____    ______ ____

>  <TORSDO>
F 2

$$$$
=
 OpenBabel11122411363D

 37 44  0  0  1  0  0  0  0  0999 V2000
  186.8060  178.8430  144.9440 C   0  0  0  0  0  2  0  0  0  0  0  0
  191.1490  177.5430  143.8210 C   0  0  0  0  0  0  0  0  0  0  0  0
  188.4030  177.8460  140.6930 C   0  0  0  0  0  0  0  0  0  0  0  0
  186.2470  178.6310  146.3750 C   0  0  1  0  0  3  0  0  0  0  0  0
  184.6030  178.1500  141.5220 C   0  0  0  0  0  2  0  0  0  0  0  0
  190.7020  177.4230  141.3240 C   0  0  0  0  0  0  0  0  0  0  0  0
  187.1880  177.9380  141.3780 C   0  0  0  0  0  0  0  0  0  0  0  0
  183.8410  178.6830  145.4680 C   0  0  0  0  0  0  0  0  0  0  0  0
  189.3640  177.5920  141.6310 C   0  0  0  0  0  0  0  0  0  0  0  0
  185.8750  178.1960  140.7610 N   0  0  0  0  0  0  0  0  0  0  0  0
  191.0790  177.5030  139.9740 C   0  0  0  0  0  3  0  0  0  0  0  0
  184.7600  178.2310  146.5580 C   0  0  0  0  0  2  0  0  0  0  0  0
  188.8640  177.5370  142.8660 N   0  0  0  0  0  0  0  0  0  0  0  0
  191.3400  179.0430  143.9680 C   0  0  0  0  0  1  0  0  0  0  0  0
  187.7490  178.2810  138.2740 C   0  0  0  0  0  2  0  0  0  0  0  0
  190.1030  177.7690  138.9850 C   0  0  0  0  0  3  0  0  0  0  0  0
  189.6600  177.1920  144.0440 C   0  0  0  0  0  2  0  0  0  0  0  0
  184.1760  178.3070  144.1500 N   0  0  0  0  0  0  0  0  0  0  0  0
  184.8620  178.7300  142.8730 C   0  0  1  0  0  3  0  0  0  0  0  0
  188.7460  177.9350  139.3340 C   0  0  0  0  0  0  0  0  0  0  0  0
  187.5290  177.7300  142.7600 C   0  0  0  0  0  0  0  0  0  0  0  0
  191.6630  177.0890  142.4320 C   0  0  0  0  0  2  0  0  0  0  0  0
  185.8470  178.6280  139.3520 C   0  0  1  0  0  3  0  0  0  0  0  0
  191.9710  176.8530  144.8880 C   0  0  0  0  0  1  0  0  0  0  0  0
  185.1940  177.5250  143.4400 C   0  0  1  0  0  3  0  0  0  0  0  0
  182.8210  179.3780  145.7090 O   0  0  0  0  0  0  0  0  0  0  0  0
  186.6050  177.6620  143.9650 C   0  0  2  0  0  3  0  0  0  0  0  0
  186.5110  177.6940  138.5470 O   0  0  0  0  0  0  0  0  0  0  0  0
  183.8460  177.9280  138.0150 C   0  0  0  0  0  3  0  0  0  0  0  0
  184.4690  178.8950  138.8130 C   0  0  0  0  0  0  0  0  0  0  0  0
  183.8150  180.1080  139.0710 C   0  0  0  0  0  3  0  0  0  0  0  0
  181.9130  181.5180  138.7930 F   0  0  0  0  0  0  0  0  0  0  0  0
  181.9230  179.3760  137.7490 C   0  0  0  0  0  3  0  0  0  0  0  0
  182.5430  180.3460  138.5410 C   0  0  0  0  0  0  0  0  0  0  0  0
  182.5750  178.1660  137.4860 C   0  0  0  0  0  3  0  0  0  0  0  0
  187.7760  178.3660  148.1940 O   0  0  0  0  0  1  0  0  0  0  0  0
  187.1280  177.6790  147.1670 C   0  0  0  0  0  2  0  0  0  0  0  0
  1  4  1  0  0  0  0
  2 14  1  0  0  0  0
  2 17  1  0  0  0  0
  2 24  1  0  0  0  0
  3  7  1  0  0  0  0
  3  9  1  0  0  0  0
  4 12  1  0  0  0  0
  4 37  1  6  0  0  0
  6  9  2  0  0  0  0
  6 22  1  0  0  0  0
  7 21  2  0  0  0  0
  8 26  2  0  0  0  0
  8 12  1  0  0  0  0
  9 13  1  0  0  0  0
 10  7  1  0  0  0  0
 10  5  1  0  0  0  0
 11  6  1  0  0  0  0
 13 17  1  0  0  0  0
 15 28  1  0  0  0  0
 15 20  1  0  0  0  0
 16 20  1  0  0  0  0
 16 11  2  0  0  0  0
 18  8  1  0  0  0  0
 19  5  1  6  0  0  0
 19 25  1  0  0  0  0
 19 18  1  0  0  0  0
 20  3  2  0  0  0  0
 21 13  1  0  0  0  0
 21 27  1  0  0  0  0
 22  2  1  0  0  0  0
 23 30  1  6  0  0  0
 23 10  1  0  0  0  0
 25 27  1  0  0  0  0
 25 18  1  1  0  0  0
 27  1  1  6  0  0  0
 28 23  1  0  0  0  0
 29 30  1  0  0  0  0
 30 31  2  0  0  0  0
 33 34  2  0  0  0  0
 34 32  1  0  0  0  0
 34 31  1  0  0  0  0
 35 33  1  0  0  0  0
 35 29  2  0  0  0  0
 37 36  1  0  0  0  0
M  END
>  <MODEL>
4

>  <REMARK>
 VINA RESULT:     -10.1      2.822      6.692
  Name = 
  2 active torsions:
  status: ('A' for Active; 'I' for Inactive)
    1  A    between atoms: C_4  and  C_37
    2  A    between atoms: C_23  and  C_30
                            x       y       z     vdW  Elec       q    Type
                         _______ _______ _______ _____ _____    ______ ____

>  <TORSDO>
F 2

$$$$
=
 OpenBabel11122411363D

 37 44  0  0  1  0  0  0  0  0999 V2000
  185.4050  179.2410  144.1170 C   0  0  0  0  0  2  0  0  0  0  0  0
  188.2050  177.8310  147.5780 C   0  0  0  0  0  0  0  0  0  0  0  0
  189.6230  177.3340  143.6840 C   0  0  0  0  0  0  0  0  0  0  0  0
  183.8710  179.3490  144.3160 C   0  0  1  0  0  3  0  0  0  0  0  0
  187.1450  177.7200  140.6950 C   0  0  0  0  0  2  0  0  0  0  0  0
  190.1070  177.1280  146.0470 C   0  0  0  0  0  0  0  0  0  0  0  0
  188.4700  177.5490  142.9230 C   0  0  0  0  0  0  0  0  0  0  0  0
  183.5010  179.1280  141.7800 C   0  0  0  0  0  0  0  0  0  0  0  0
  189.2320  177.3280  144.9940 C   0  0  0  0  0  0  0  0  0  0  0  0
  188.4170  177.6230  141.4530 N   0  0  0  0  0  0  0  0  0  0  0  0
  191.4590  176.9040  145.7430 C   0  0  0  0  0  3  0  0  0  0  0  0
  182.9240  178.9630  143.1500 C   0  0  0  0  0  2  0  0  0  0  0  0
  187.9250  177.5460  145.1340 N   0  0  0  0  0  0  0  0  0  0  0  0
  188.4560  179.3290  147.6140 C   0  0  0  0  0  1  0  0  0  0  0  0
  191.4630  177.1830  141.9350 C   0  0  0  0  0  2  0  0  0  0  0  0
  191.8870  176.9100  144.3960 C   0  0  0  0  0  3  0  0  0  0  0  0
  187.2330  177.5020  146.4220 C   0  0  0  0  0  2  0  0  0  0  0  0
  184.7200  178.4680  141.5140 N   0  0  0  0  0  0  0  0  0  0  0  0
  186.2230  178.6030  141.4690 C   0  0  1  0  0  3  0  0  0  0  0  0
  190.9680  177.1160  143.3450 C   0  0  0  0  0  0  0  0  0  0  0  0
  187.4110  177.6740  143.8890 C   0  0  0  0  0  0  0  0  0  0  0  0
  189.5550  177.0830  147.4470 C   0  0  0  0  0  2  0  0  0  0  0  0
  189.6920  177.7180  140.7200 C   0  0  1  0  0  3  0  0  0  0  0  0
  187.5550  177.4270  148.8840 C   0  0  0  0  0  1  0  0  0  0  0  0
  185.6680  177.5690  142.1830 C   0  0  1  0  0  3  0  0  0  0  0  0
  182.9370  179.8320  140.9050 O   0  0  0  0  0  0  0  0  0  0  0  0
  185.9220  177.8610  143.6450 C   0  0  2  0  0  3  0  0  0  0  0  0
  190.5220  176.6420  141.0530 O   0  0  0  0  0  0  0  0  0  0  0  0
  189.0560  179.0030  138.6640 C   0  0  0  0  0  3  0  0  0  0  0  0
  189.5420  177.8180  139.2260 C   0  0  0  0  0  0  0  0  0  0  0  0
  189.8530  176.7310  138.3960 C   0  0  0  0  0  3  0  0  0  0  0  0
  189.9870  175.7850  136.2120 F   0  0  0  0  0  0  0  0  0  0  0  0
  189.2030  178.0230  136.4540 C   0  0  0  0  0  3  0  0  0  0  0  0
  189.6850  176.8360  137.0120 C   0  0  0  0  0  0  0  0  0  0  0  0
  188.8880  179.1070  137.2800 C   0  0  0  0  0  3  0  0  0  0  0  0
  184.3750  178.8250  146.5930 O   0  0  0  0  0  1  0  0  0  0  0  0
  183.4350  178.6280  145.5810 C   0  0  0  0  0  2  0  0  0  0  0  0
  1  4  1  0  0  0  0
  2 14  1  0  0  0  0
  2 24  1  0  0  0  0
  3  9  1  0  0  0  0
  4 37  1  1  0  0  0
  5 10  1  0  0  0  0
  6 22  1  0  0  0  0
  7  3  1  0  0  0  0
  7 21  2  0  0  0  0
  8 12  1  0  0  0  0
  9 13  1  0  0  0  0
  9  6  2  0  0  0  0
 10  7  1  0  0  0  0
 11  6  1  0  0  0  0
 12  4  1  0  0  0  0
 13 17  1  0  0  0  0
 15 20  1  0  0  0  0
 16 11  2  0  0  0  0
 17  2  1  0  0  0  0
 18  8  1  0  0  0  0
 19  5  1  6  0  0  0
 19 18  1  0  0  0  0
 19 25  1  0  0  0  0
 20  3  2  0  0  0  0
 20 16  1  0  0  0  0
 21 13  1  0  0  0  0
 22  2  1  0  0  0  0
 23 30  1  6  0  0  0
 23 28  1  0  0  0  0
 23 10  1  0  0  0  0
 25 18  1  1  0  0  0
 25 27  1  0  0  0  0
 26  8  2  0  0  0  0
 27 21  1  0  0  0  0
 27  1  1  6  0  0  0
 28 15  1  0  0  0  0
 29 30  1  0  0  0  0
 31 30  2  0  0  0  0
 32 34  1  0  0  0  0
 33 34  2  0  0  0  0
 33 35  1  0  0  0  0
 34 31  1  0  0  0  0
 35 29  2  0  0  0  0
 37 36  1  0  0  0  0
M  END
>  <MODEL>
5

>  <REMARK>
 VINA RESULT:      -9.9      2.745      6.783
  Name = 
  2 active torsions:
  status: ('A' for Active; 'I' for Inactive)
    1  A    between atoms: C_4  and  C_37
    2  A    between atoms: C_23  and  C_30
                            x       y       z     vdW  Elec       q    Type
                         _______ _______ _______ _____ _____    ______ ____

>  <TORSDO>
F 2

$$$$
=
 OpenBabel11122411363D

 37 44  0  0  1  0  0  0  0  0999 V2000
  188.1640  178.6610  139.9720 C   0  0  0  0  0  2  0  0  0  0  0  0
  183.5770  178.9340  139.1360 C   0  0  0  0  0  0  0  0  0  0  0  0
  184.7410  178.3890  143.1070 C   0  0  0  0  0  0  0  0  0  0  0  0
  189.1600  178.2290  138.8640 C   0  0  1  0  0  3  0  0  0  0  0  0
  188.4260  177.3690  143.8850 C   0  0  0  0  0  2  0  0  0  0  0  0
  182.8990  178.7460  141.5770 C   0  0  0  0  0  0  0  0  0  0  0  0
  186.0890  178.0450  142.9720 C   0  0  0  0  0  0  0  0  0  0  0  0
  190.8620  177.4950  140.6460 C   0  0  0  0  0  0  0  0  0  0  0  0
  184.2230  178.4450  141.8440 C   0  0  0  0  0  0  0  0  0  0  0  0
  187.0410  177.8640  144.0820 N   0  0  0  0  0  0  0  0  0  0  0  0
  182.0500  178.9890  142.6680 C   0  0  0  0  0  3  0  0  0  0  0  0
  190.3780  177.3470  139.2390 C   0  0  0  0  0  2  0  0  0  0  0  0
  185.1380  178.1880  140.9080 N   0  0  0  0  0  0  0  0  0  0  0  0
  183.9530  180.4060  139.0940 C   0  0  0  0  0  1  0  0  0  0  0  0
  184.4490  178.6510  145.6200 C   0  0  0  0  0  2  0  0  0  0  0  0
  182.5640  178.9400  143.9840 C   0  0  0  0  0  3  0  0  0  0  0  0
  184.8290  178.0960  139.4810 C   0  0  0  0  0  2  0  0  0  0  0  0
  189.9160  177.2940  141.6750 N   0  0  0  0  0  0  0  0  0  0  0  0
  188.9430  177.9610  142.6160 C   0  0  1  0  0  3  0  0  0  0  0  0
  183.9200  178.6280  144.2210 C   0  0  0  0  0  0  0  0  0  0  0  0
  186.2970  177.9230  141.5540 C   0  0  0  0  0  0  0  0  0  0  0  0
  182.4250  178.7220  140.1490 C   0  0  0  0  0  2  0  0  0  0  0  0
  186.6260  178.3030  145.4260 C   0  0  1  0  0  3  0  0  0  0  0  0
  183.0910  178.5300  137.7610 C   0  0  0  0  0  1  0  0  0  0  0  0
  188.5060  176.9220  141.8320 C   0  0  1  0  0  3  0  0  0  0  0  0
  192.0540  177.7980  140.9080 O   0  0  0  0  0  0  0  0  0  0  0  0
  187.5580  177.5110  140.8110 C   0  0  2  0  0  3  0  0  0  0  0  0
  185.4320  177.6720  145.7930 O   0  0  0  0  0  0  0  0  0  0  0  0
  187.3550  178.4090  147.8220 C   0  0  0  0  0  3  0  0  0  0  0  0
  187.6690  178.1060  146.4920 C   0  0  0  0  0  0  0  0  0  0  0  0
  188.9580  177.6560  146.1680 C   0  0  0  0  0  3  0  0  0  0  0  0
  191.1620  177.0650  146.8540 F   0  0  0  0  0  0  0  0  0  0  0  0
  189.6000  177.8000  148.4980 C   0  0  0  0  0  3  0  0  0  0  0  0
  189.9190  177.5010  147.1700 C   0  0  0  0  0  0  0  0  0  0  0  0
  188.3170  178.2530  148.8230 C   0  0  0  0  0  3  0  0  0  0  0  0
  187.4780  178.4990  137.1870 O   0  0  0  0  0  1  0  0  0  0  0  0
  188.4270  177.6060  137.6880 C   0  0  0  0  0  2  0  0  0  0  0  0
  2 17  1  0  0  0  0
  2 22  1  0  0  0  0
  3 20  1  0  0  0  0
  4 37  1  6  0  0  0
  4 12  1  0  0  0  0
  4  1  1  0  0  0  0
  5 10  1  0  0  0  0
  6  9  1  0  0  0  0
  6 11  2  0  0  0  0
  7  3  1  0  0  0  0
  7 10  1  0  0  0  0
  8 26  2  0  0  0  0
  8 18  1  0  0  0  0
  9  3  2  0  0  0  0
 10 23  1  0  0  0  0
 11 16  1  0  0  0  0
 12  8  1  0  0  0  0
 13 21  1  0  0  0  0
 13  9  1  0  0  0  0
 14  2  1  0  0  0  0
 15 28  1  0  0  0  0
 16 20  2  0  0  0  0
 17 13  1  0  0  0  0
 18 19  1  0  0  0  0
 19  5  1  1  0  0  0
 20 15  1  0  0  0  0
 21  7  2  0  0  0  0
 22  6  1  0  0  0  0
 23 28  1  0  0  0  0
 23 30  1  1  0  0  0
 24  2  1  0  0  0  0
 25 18  1  6  0  0  0
 25 19  1  0  0  0  0
 27  1  1  1  0  0  0
 27 21  1  0  0  0  0
 27 25  1  0  0  0  0
 29 35  1  0  0  0  0
 30 29  2  0  0  0  0
 31 30  1  0  0  0  0
 31 34  2  0  0  0  0
 32 34  1  0  0  0  0
 33 35  2  0  0  0  0
 34 33  1  0  0  0  0
 36 37  1  0  0  0  0
M  END
>  <MODEL>
6

>  <REMARK>
 VINA RESULT:      -9.9      1.754      5.248
  Name = 
  2 active torsions:
  status: ('A' for Active; 'I' for Inactive)
    1  A    between atoms: C_4  and  C_37
    2  A    between atoms: C_23  and  C_30
                            x       y       z     vdW  Elec       q    Type
                         _______ _______ _______ _____ _____    ______ ____

>  <TORSDO>
F 2

$$$$
=
 OpenBabel11122411363D

 37 44  0  0  1  0  0  0  0  0999 V2000
  188.2950  176.8960  139.0320 C   0  0  0  0  0  2  0  0  0  0  0  0
  190.1900  177.1960  143.2900 C   0  0  0  0  0  0  0  0  0  0  0  0
  186.1500  178.1860  142.9510 C   0  0  0  0  0  0  0  0  0  0  0  0
  189.1680  176.9880  137.7550 C   0  0  1  0  0  3  0  0  0  0  0  0
  184.6200  178.7420  139.4050 C   0  0  0  0  0  2  0  0  0  0  0  0
  188.0300  177.8740  144.4430 C   0  0  0  0  0  0  0  0  0  0  0  0
  185.9900  178.2930  141.5670 C   0  0  0  0  0  0  0  0  0  0  0  0
  187.1240  177.7290  136.3810 C   0  0  0  0  0  0  0  0  0  0  0  0
  187.4860  178.0080  143.1790 C   0  0  0  0  0  0  0  0  0  0  0  0
  184.7110  178.5020  140.8660 N   0  0  0  0  0  0  0  0  0  0  0  0
  187.1600  177.9410  145.5430 C   0  0  0  0  0  3  0  0  0  0  0  0
  188.6140  177.7220  136.5070 C   0  0  0  0  0  2  0  0  0  0  0  0
  188.1920  177.9690  142.0490 N   0  0  0  0  0  0  0  0  0  0  0  0
  189.9620  175.6970  143.1960 C   0  0  0  0  0  1  0  0  0  0  0  0
  183.7720  178.3770  143.8340 C   0  0  0  0  0  2  0  0  0  0  0  0
  185.7730  178.1210  145.3320 C   0  0  0  0  0  3  0  0  0  0  0  0
  189.6520  177.8780  142.0120 C   0  0  0  0  0  2  0  0  0  0  0  0
  186.3900  178.2340  137.4760 N   0  0  0  0  0  0  0  0  0  0  0  0
  185.6440  177.8820  138.7410 C   0  0  1  0  0  3  0  0  0  0  0  0
  185.2510  178.2560  144.0280 C   0  0  0  0  0  0  0  0  0  0  0  0
  187.3180  178.1540  141.0320 C   0  0  0  0  0  0  0  0  0  0  0  0
  189.5230  177.7410  144.5780 C   0  0  0  0  0  2  0  0  0  0  0  0
  183.4670  178.3520  141.6420 C   0  0  1  0  0  3  0  0  0  0  0  0
  191.6800  177.4440  143.3770 C   0  0  0  0  0  1  0  0  0  0  0  0
  186.6290  178.8370  138.7920 C   0  0  1  0  0  3  0  0  0  0  0  0
  186.5440  177.2940  135.3540 O   0  0  0  0  0  0  0  0  0  0  0  0
  187.7730  178.2450  139.5840 C   0  0  2  0  0  3  0  0  0  0  0  0
  183.4810  179.2090  142.7490 O   0  0  0  0  0  0  0  0  0  0  0  0
  181.6700  177.4800  140.1280 C   0  0  0  0  0  3  0  0  0  0  0  0
  182.2090  178.5560  140.8430 C   0  0  0  0  0  0  0  0  0  0  0  0
  181.5900  179.8130  140.7770 C   0  0  0  0  0  3  0  0  0  0  0  0
  179.8390  181.2020  139.9500 F   0  0  0  0  0  0  0  0  0  0  0  0
  179.8970  178.9080  139.3020 C   0  0  0  0  0  3  0  0  0  0  0  0
  180.4350  179.9870  140.0100 C   0  0  0  0  0  0  0  0  0  0  0  0
  180.5140  177.6550  139.3620 C   0  0  0  0  0  3  0  0  0  0  0  0
  191.1370  176.7510  139.0890 O   0  0  0  0  0  1  0  0  0  0  0  0
  190.5540  177.5190  138.0810 C   0  0  0  0  0  2  0  0  0  0  0  0
  2 24  1  0  0  0  0
  2 22  1  0  0  0  0
  3  9  2  0  0  0  0
  3 20  1  0  0  0  0
  4 37  1  1  0  0  0
  4  1  1  0  0  0  0
  5 10  1  0  0  0  0
  6 22  1  0  0  0  0
  6 11  2  0  0  0  0
  7  3  1  0  0  0  0
  8 12  1  0  0  0  0
  8 18  1  0  0  0  0
  9  6  1  0  0  0  0
 10  7  1  0  0  0  0
 10 23  1  0  0  0  0
 12  4  1  0  0  0  0
 13  9  1  0  0  0  0
 14  2  1  0  0  0  0
 15 20  1  0  0  0  0
 16 11  1  0  0  0  0
 17 13  1  0  0  0  0
 17  2  1  0  0  0  0
 18 19  1  0  0  0  0
 19 25  1  0  0  0  0
 19  5  1  6  0  0  0
 20 16  2  0  0  0  0
 21  7  2  0  0  0  0
 21 13  1  0  0  0  0
 23 30  1  6  0  0  0
 23 28  1  0  0  0  0
 25 18  1  6  0  0  0
 25 27  1  0  0  0  0
 26  8  2  0  0  0  0
 27  1  1  6  0  0  0
 27 21  1  0  0  0  0
 28 15  1  0  0  0  0
 29 30  1  0  0  0  0
 31 30  2  0  0  0  0
 32 34  1  0  0  0  0
 33 35  1  0  0  0  0
 33 34  2  0  0  0  0
 34 31  1  0  0  0  0
 35 29  2  0  0  0  0
 37 36  1  0  0  0  0
M  END
>  <MODEL>
7

>  <REMARK>
 VINA RESULT:      -9.6      2.980      7.284
  Name = 
  2 active torsions:
  status: ('A' for Active; 'I' for Inactive)
    1  A    between atoms: C_4  and  C_37
    2  A    between atoms: C_23  and  C_30
                            x       y       z     vdW  Elec       q    Type
                         _______ _______ _______ _____ _____    ______ ____

>  <TORSDO>
F 2

$$$$
=
 OpenBabel11122411363D

 37 44  0  0  1  0  0  0  0  0999 V2000
  189.0800  178.3330  141.5290 C   0  0  0  0  0  2  0  0  0  0  0  0
  184.5140  178.7680  142.4050 C   0  0  0  0  0  0  0  0  0  0  0  0
  186.9640  177.7630  145.6300 C   0  0  0  0  0  0  0  0  0  0  0  0
  189.5990  178.0130  140.1040 C   0  0  1  0  0  3  0  0  0  0  0  0
  190.6280  176.6060  144.9460 C   0  0  0  0  0  2  0  0  0  0  0  0
  184.7250  178.3180  144.8960 C   0  0  0  0  0  0  0  0  0  0  0  0
  188.1590  177.4170  144.9930 C   0  0  0  0  0  0  0  0  0  0  0  0
  191.7760  177.0580  141.0840 C   0  0  0  0  0  0  0  0  0  0  0  0
  186.0400  177.9680  144.6450 C   0  0  0  0  0  0  0  0  0  0  0  0
  189.4290  177.0970  145.6690 N   0  0  0  0  0  0  0  0  0  0  0  0
  184.3270  178.4490  146.2360 C   0  0  0  0  0  3  0  0  0  0  0  0
  190.8220  177.0760  139.9330 C   0  0  0  0  0  2  0  0  0  0  0  0
  186.5540  177.8040  143.4260 N   0  0  0  0  0  0  0  0  0  0  0  0
  184.9290  180.2290  142.3800 C   0  0  0  0  0  1  0  0  0  0  0  0
  187.5870  177.7460  148.0960 C   0  0  0  0  0  2  0  0  0  0  0  0
  185.2670  178.2460  147.2720 C   0  0  0  0  0  3  0  0  0  0  0  0
  185.7600  177.8770  142.1990 C   0  0  0  0  0  2  0  0  0  0  0  0
  191.2420  176.7570  142.3550 N   0  0  0  0  0  0  0  0  0  0  0  0
  190.6970  177.3300  143.6420 C   0  0  1  0  0  3  0  0  0  0  0  0
  186.6000  177.8890  146.9810 C   0  0  0  0  0  0  0  0  0  0  0  0
  187.8500  177.4500  143.5890 C   0  0  0  0  0  0  0  0  0  0  0  0
  183.7800  178.4610  143.7350 C   0  0  0  0  0  2  0  0  0  0  0  0
  189.5360  177.3890  147.1100 C   0  0  1  0  0  3  0  0  0  0  0  0
  183.5550  178.5280  141.2590 C   0  0  0  0  0  1  0  0  0  0  0  0
  189.9590  176.3910  142.9640 C   0  0  1  0  0  3  0  0  0  0  0  0
  192.9990  177.3110  140.9350 O   0  0  0  0  0  0  0  0  0  0  0  0
  188.7460  177.1050  142.4100 C   0  0  2  0  0  3  0  0  0  0  0  0
  188.5140  176.7390  147.8120 O   0  0  0  0  0  0  0  0  0  0  0  0
  191.5670  175.9290  147.2620 C   0  0  0  0  0  3  0  0  0  0  0  0
  190.8740  177.0580  147.7110 C   0  0  0  0  0  0  0  0  0  0  0  0
  191.4200  177.8450  148.7370 C   0  0  0  0  0  3  0  0  0  0  0  0
  193.1790  178.2700  150.2870 F   0  0  0  0  0  0  0  0  0  0  0  0
  193.3450  176.3800  148.8430 C   0  0  0  0  0  3  0  0  0  0  0  0
  192.6540  177.5070  149.2980 C   0  0  0  0  0  0  0  0  0  0  0  0
  192.8010  175.5910  147.8240 C   0  0  0  0  0  3  0  0  0  0  0  0
  187.3380  178.3340  139.3980 O   0  0  0  0  0  1  0  0  0  0  0  0
  188.4680  177.5370  139.2070 C   0  0  0  0  0  2  0  0  0  0  0  0
  2 22  1  0  0  0  0
  3 20  1  0  0  0  0
  4 37  1  6  0  0  0
  4  1  1  0  0  0  0
  5 10  1  0  0  0  0
  6 11  2  0  0  0  0
  7  3  1  0  0  0  0
  7 10  1  0  0  0  0
  8 18  1  0  0  0  0
  9  6  1  0  0  0  0
  9  3  2  0  0  0  0
 10 23  1  0  0  0  0
 11 16  1  0  0  0  0
 12  4  1  0  0  0  0
 12  8  1  0  0  0  0
 13 21  1  0  0  0  0
 13  9  1  0  0  0  0
 14  2  1  0  0  0  0
 17  2  1  0  0  0  0
 17 13  1  0  0  0  0
 18 19  1  0  0  0  0
 19  5  1  1  0  0  0
 20 16  2  0  0  0  0
 20 15  1  0  0  0  0
 21  7  2  0  0  0  0
 22  6  1  0  0  0  0
 23 30  1  1  0  0  0
 23 28  1  0  0  0  0
 24  2  1  0  0  0  0
 25 18  1  6  0  0  0
 25 19  1  0  0  0  0
 26  8  2  0  0  0  0
 27  1  1  1  0  0  0
 27 25  1  0  0  0  0
 27 21  1  0  0  0  0
 28 15  1  0  0  0  0
 29 30  2  0  0  0  0
 29 35  1  0  0  0  0
 30 31  1  0  0  0  0
 31 34  2  0  0  0  0
 33 34  1  0  0  0  0
 34 32  1  0  0  0  0
 35 33  2  0  0  0  0
 37 36  1  0  0  0  0
M  END
>  <MODEL>
8

>  <REMARK>
 VINA RESULT:      -9.6      2.359      6.107
  Name = 
  2 active torsions:
  status: ('A' for Active; 'I' for Inactive)
    1  A    between atoms: C_4  and  C_37
    2  A    between atoms: C_23  and  C_30
                            x       y       z     vdW  Elec       q    Type
                         _______ _______ _______ _____ _____    ______ ____

>  <TORSDO>
F 2

$$$$
=
 OpenBabel11122411363D

 37 44  0  0  1  0  0  0  0  0999 V2000
  183.6360  177.8360  141.1700 C   0  0  0  0  0  2  0  0  0  0  0  0
  184.1730  177.3710  136.5540 C   0  0  0  0  0  0  0  0  0  0  0  0
  187.6530  177.5000  138.8530 C   0  0  0  0  0  0  0  0  0  0  0  0
  182.3520  178.4630  141.7710 C   0  0  1  0  0  3  0  0  0  0  0  0
  187.4330  178.6530  142.5740 C   0  0  0  0  0  2  0  0  0  0  0  0
  186.7070  177.2150  136.6430 C   0  0  0  0  0  0  0  0  0  0  0  0
  187.1720  177.9440  140.0880 C   0  0  0  0  0  0  0  0  0  0  0  0
  183.6300  179.0820  143.9160 C   0  0  0  0  0  0  0  0  0  0  0  0
  186.6060  177.5660  137.9770 C   0  0  0  0  0  0  0  0  0  0  0  0
  187.9620  178.0500  141.3270 N   0  0  0  0  0  0  0  0  0  0  0  0
  187.9570  176.7860  136.1700 C   0  0  0  0  0  3  0  0  0  0  0  0
  182.4650  179.3700  143.0240 C   0  0  0  0  0  2  0  0  0  0  0  0
  185.4850  177.9940  138.5590 N   0  0  0  0  0  0  0  0  0  0  0  0
  183.8210  175.9430  136.9350 C   0  0  0  0  0  1  0  0  0  0  0  0
  190.0790  176.9150  139.3430 C   0  0  0  0  0  2  0  0  0  0  0  0
  189.0540  176.7070  137.0580 C   0  0  0  0  0  3  0  0  0  0  0  0
  184.2410  178.2400  137.8300 C   0  0  0  0  0  2  0  0  0  0  0  0
  184.9110  179.0940  143.3220 N   0  0  0  0  0  0  0  0  0  0  0  0
  185.9980  178.2550  142.6960 C   0  0  1  0  0  3  0  0  0  0  0  0
  188.9170  177.0740  138.4140 C   0  0  0  0  0  0  0  0  0  0  0  0
  185.7870  178.2530  139.8530 C   0  0  0  0  0  0  0  0  0  0  0  0
  185.5020  177.3840  135.7570 C   0  0  0  0  0  2  0  0  0  0  0  0
  189.2960  177.4230  141.3500 C   0  0  1  0  0  3  0  0  0  0  0  0
  183.0730  177.9090  135.6640 C   0  0  0  0  0  1  0  0  0  0  0  0
  185.5290  179.3520  142.0170 C   0  0  1  0  0  3  0  0  0  0  0  0
  183.4820  178.8270  145.1380 O   0  0  0  0  0  0  0  0  0  0  0  0
  184.7660  178.8330  140.8190 C   0  0  2  0  0  3  0  0  0  0  0  0
  190.0840  177.9260  140.3080 O   0  0  0  0  0  0  0  0  0  0  0  0
  189.7740  176.6240  143.6770 C   0  0  0  0  0  3  0  0  0  0  0  0
  190.0200  177.5550  142.6610 C   0  0  0  0  0  0  0  0  0  0  0  0
  190.9120  178.6130  142.8910 C   0  0  0  0  0  3  0  0  0  0  0  0
  192.4200  179.7530  144.3430 F   0  0  0  0  0  0  0  0  0  0  0  0
  191.3120  177.7960  145.1350 C   0  0  0  0  0  3  0  0  0  0  0  0
  191.5580  178.7310  144.1250 C   0  0  0  0  0  0  0  0  0  0  0  0
  190.4200  176.7430  144.9100 C   0  0  0  0  0  3  0  0  0  0  0  0
  181.0800  178.2590  139.7580 O   0  0  0  0  0  1  0  0  0  0  0  0
  181.5430  179.1770  140.7010 C   0  0  0  0  0  2  0  0  0  0  0  0
  1  4  1  0  0  0  0
  2 14  1  0  0  0  0
  2 17  1  0  0  0  0
  3  7  1  0  0  0  0
  4 37  1  6  0  0  0
  4 12  1  0  0  0  0
  6  9  1  0  0  0  0
  7 10  1  0  0  0  0
  8 26  2  0  0  0  0
  9 13  1  0  0  0  0
  9  3  2  0  0  0  0
 10 23  1  0  0  0  0
 10  5  1  0  0  0  0
 11  6  2  0  0  0  0
 11 16  1  0  0  0  0
 12  8  1  0  0  0  0
 13 21  1  0  0  0  0
 15 28  1  0  0  0  0
 16 20  2  0  0  0  0
 17 13  1  0  0  0  0
 18  8  1  0  0  0  0
 19  5  1  1  0  0  0
 19 18  1  0  0  0  0
 20  3  1  0  0  0  0
 20 15  1  0  0  0  0
 21  7  2  0  0  0  0
 21 27  1  0  0  0  0
 22  2  1  0  0  0  0
 22  6  1  0  0  0  0
 23 30  1  1  0  0  0
 24  2  1  0  0  0  0
 25 19  1  0  0  0  0
 25 18  1  1  0  0  0
 27  1  1  1  0  0  0
 27 25  1  0  0  0  0
 28 23  1  0  0  0  0
 29 35  1  0  0  0  0
 30 31  1  0  0  0  0
 30 29  2  0  0  0  0
 31 34  2  0  0  0  0
 34 32  1  0  0  0  0
 34 33  1  0  0  0  0
 35 33  2  0  0  0  0
 36 37  1  0  0  0  0
M  END
>  <MODEL>
9

>  <REMARK>
 VINA RESULT:      -9.5      2.140      3.035
  Name = 
  2 active torsions:
  status: ('A' for Active; 'I' for Inactive)
    1  A    between atoms: C_4  and  C_37
    2  A    between atoms: C_23  and  C_30
                            x       y       z     vdW  Elec       q    Type
                         _______ _______ _______ _____ _____    ______ ____

>  <TORSDO>
F 2

$$$$
