=
 OpenBabel11122411073D

 31 35  0  0  1  0  0  0  0  0999 V2000
  185.6560  178.8960  143.4430 C   0  0  0  0  0  0  0  0  0  0  0  0
  188.8700  176.9190  143.6060 C   0  0  1  0  0  3  0  0  0  0  0  0
  189.2740  177.0930  145.0600 C   0  0  0  0  0  0  0  0  0  0  0  0
  189.4180  176.5350  138.3760 O   0  0  0  0  0  0  0  0  0  0  0  0
  190.5360  176.2910  138.9070 C   0  0  0  0  0  0  0  0  0  0  0  0
  188.7420  177.4280  147.4080 C   0  0  0  0  0  0  0  0  0  0  0  0
  187.7170  177.7600  143.0960 C   0  0  0  0  0  0  0  0  0  0  0  0
  185.5010  179.0880  142.0670 C   0  0  0  0  0  3  0  0  0  0  0  0
  188.3340  177.3270  146.0760 C   0  0  0  0  0  3  0  0  0  0  0  0
  189.7340  176.9630  141.2410 C   0  0  0  0  0  0  0  0  0  0  0  0
  184.7140  179.3580  144.2990 F   0  0  0  0  0  0  0  0  0  0  0  0
  191.5780  176.5700  144.3940 N   0  0  0  0  0  2  0  0  0  0  0  0
  187.5610  177.7480  148.6600 Cl  0  0  0  0  0  0  0  0  0  0  0  0
  188.5850  177.4060  140.8160 N   0  0  0  0  0  0  0  0  0  0  0  0
  190.0980  177.1220  142.6960 C   0  0  2  0  0  3  0  0  0  0  0  0
  190.7190  176.4780  140.3170 N   0  0  0  0  0  2  0  0  0  0  0  0
  186.7400  178.2300  143.9210 N   0  0  0  0  0  0  0  0  0  0  0  0
  190.0900  177.2730  147.7430 C   0  0  0  0  0  3  0  0  0  0  0  0
  187.5870  177.9260  141.7050 C   0  0  0  0  0  0  0  0  0  0  0  0
  186.4730  178.5940  141.1960 C   0  0  0  0  0  3  0  0  0  0  0  0
  191.1660  176.2080  143.0970 N   0  0  0  0  0  2  0  0  0  0  0  0
  190.6220  176.8850  145.4130 C   0  0  0  0  0  0  0  0  0  0  0  0
  191.0300  176.9990  146.7460 C   0  0  0  0  0  3  0  0  0  0  0  0
  193.8140  174.9930  136.5020 C   0  0  0  0  0  0  0  0  0  0  0  0
  192.8130  176.5850  137.9480 C   0  0  0  0  0  3  0  0  0  0  0  0
  190.5100  173.7780  137.4230 F   0  0  0  0  0  0  0  0  0  0  0  0
  194.9730  174.5730  135.6730 C   0  0  0  0  0  1  0  0  0  0  0  0
  193.8550  176.1690  137.1810 N   0  0  0  0  0  0  0  0  0  0  0  0
  191.5980  174.5840  137.3620 C   0  0  0  0  0  0  0  0  0  0  0  0
  191.6520  175.8060  138.0630 C   0  0  0  0  0  0  0  0  0  0  0  0
  192.6830  174.1810  136.5820 C   0  0  0  0  0  3  0  0  0  0  0  0
  1 17  1  0  0  0  0
  1 11  1  0  0  0  0
  2  7  1  6  0  0  0
  2  3  1  0  0  0  0
  3 22  2  0  0  0  0
  3  9  1  0  0  0  0
  4  5  2  0  0  0  0
  5 16  1  0  0  0  0
  6 18  1  0  0  0  0
  6 13  1  0  0  0  0
  7 17  2  0  0  0  0
  8  1  2  0  0  0  0
  9  6  2  0  0  0  0
 12 22  1  0  0  0  0
 14 10  2  0  0  0  0
 14 19  1  0  0  0  0
 15 10  1  6  0  0  0
 15 21  1  0  0  0  0
 15  2  1  0  0  0  0
 16 10  1  0  0  0  0
 19  7  1  0  0  0  0
 20 19  2  0  0  0  0
 20  8  1  0  0  0  0
 21 12  1  0  0  0  0
 22 23  1  0  0  0  0
 23 18  2  0  0  0  0
 24 31  2  0  0  0  0
 24 28  1  0  0  0  0
 25 30  1  0  0  0  0
 27 24  1  0  0  0  0
 28 25  2  0  0  0  0
 29 26  1  0  0  0  0
 29 30  2  0  0  0  0
 30  5  1  0  0  0  0
 31 29  1  0  0  0  0
M  END
>  <MODEL>
1

>  <REMARK>
 VINA RESULT:     -10.8      0.000      0.000
  Name = 
  1 active torsions:
  status: ('A' for Active; 'I' for Inactive)
    1  A    between atoms: C_5  and  C_30
                            x       y       z     vdW  Elec       q    Type
                         _______ _______ _______ _____ _____    ______ ____

>  <TORSDO>
F 1

$$$$
=
 OpenBabel11122411073D

 31 35  0  0  1  0  0  0  0  0999 V2000
  185.2650  178.8700  144.1110 C   0  0  0  0  0  0  0  0  0  0  0  0
  188.5570  177.0740  143.6630 C   0  0  1  0  0  3  0  0  0  0  0  0
  189.1540  177.1570  145.0570 C   0  0  0  0  0  0  0  0  0  0  0  0
  188.3760  177.1300  138.3930 O   0  0  0  0  0  0  0  0  0  0  0  0
  189.5680  176.9100  138.7440 C   0  0  0  0  0  0  0  0  0  0  0  0
  188.9450  177.2770  147.4760 C   0  0  0  0  0  0  0  0  0  0  0  0
  187.3060  177.8850  143.3900 C   0  0  0  0  0  0  0  0  0  0  0  0
  184.9080  179.1600  142.7910 C   0  0  0  0  0  3  0  0  0  0  0  0
  188.3580  177.2570  146.2080 C   0  0  0  0  0  3  0  0  0  0  0  0
  189.0750  177.3510  141.2140 C   0  0  0  0  0  0  0  0  0  0  0  0
  184.4330  179.2100  145.1250 F   0  0  0  0  0  0  0  0  0  0  0  0
  191.3620  176.8210  144.0400 N   0  0  0  0  0  2  0  0  0  0  0  0
  187.9400  177.4310  148.9010 Cl  0  0  0  0  0  0  0  0  0  0  0  0
  187.8580  177.7590  140.9900 N   0  0  0  0  0  0  0  0  0  0  0  0
  189.6330  177.4170  142.6140 C   0  0  2  0  0  3  0  0  0  0  0  0
  189.9400  176.9970  140.1260 N   0  0  0  0  0  2  0  0  0  0  0  0
  186.4360  178.2320  144.3780 N   0  0  0  0  0  0  0  0  0  0  0  0
  190.3320  177.1740  147.6080 C   0  0  0  0  0  3  0  0  0  0  0  0
  186.9730  178.1510  142.0490 C   0  0  0  0  0  0  0  0  0  0  0  0
  185.7680  178.7920  141.7560 C   0  0  0  0  0  3  0  0  0  0  0  0
  190.7870  176.5380  142.7850 N   0  0  0  0  0  2  0  0  0  0  0  0
  190.5460  177.0000  145.2030 C   0  0  0  0  0  0  0  0  0  0  0  0
  191.1330  177.0330  146.4720 C   0  0  0  0  0  3  0  0  0  0  0  0
  192.3800  175.8810  135.7030 C   0  0  0  0  0  0  0  0  0  0  0  0
  190.1490  176.2700  136.4100 C   0  0  0  0  0  3  0  0  0  0  0  0
  192.4420  176.7600  139.2330 F   0  0  0  0  0  0  0  0  0  0  0  0
  193.3310  175.5190  134.6200 C   0  0  0  0  0  1  0  0  0  0  0  0
  191.0470  175.9420  135.4440 N   0  0  0  0  0  0  0  0  0  0  0  0
  191.9560  176.4960  137.9950 C   0  0  0  0  0  0  0  0  0  0  0  0
  190.5750  176.5570  137.7160 C   0  0  0  0  0  0  0  0  0  0  0  0
  192.8550  176.1570  136.9850 C   0  0  0  0  0  3  0  0  0  0  0  0
  1 17  1  0  0  0  0
  1 11  1  0  0  0  0
  2  7  1  1  0  0  0
  2  3  1  0  0  0  0
  3 22  2  0  0  0  0
  3  9  1  0  0  0  0
  4  5  2  0  0  0  0
  5 16  1  0  0  0  0
  6 18  1  0  0  0  0
  6 13  1  0  0  0  0
  7 17  2  0  0  0  0
  8  1  2  0  0  0  0
  9  6  2  0  0  0  0
 12 22  1  0  0  0  0
 14 10  2  0  0  0  0
 14 19  1  0  0  0  0
 15 10  1  6  0  0  0
 15 21  1  0  0  0  0
 15  2  1  0  0  0  0
 16 10  1  0  0  0  0
 19  7  1  0  0  0  0
 20 19  2  0  0  0  0
 20  8  1  0  0  0  0
 21 12  1  0  0  0  0
 22 23  1  0  0  0  0
 23 18  2  0  0  0  0
 24 31  1  0  0  0  0
 25 30  2  0  0  0  0
 27 24  1  0  0  0  0
 28 24  2  0  0  0  0
 28 25  1  0  0  0  0
 29 26  1  0  0  0  0
 30 29  1  0  0  0  0
 30  5  1  0  0  0  0
 31 29  2  0  0  0  0
M  END
>  <MODEL>
2

>  <REMARK>
 VINA RESULT:     -10.5      1.314      1.455
  Name = 
  1 active torsions:
  status: ('A' for Active; 'I' for Inactive)
    1  A    between atoms: C_5  and  C_30
                            x       y       z     vdW  Elec       q    Type
                         _______ _______ _______ _____ _____    ______ ____

>  <TORSDO>
F 1

$$$$
=
 OpenBabel11122411073D

 31 35  0  0  1  0  0  0  0  0999 V2000
  186.6430  178.0360  147.0020 C   0  0  0  0  0  0  0  0  0  0  0  0
  187.3570  177.4290  143.3420 C   0  0  1  0  0  3  0  0  0  0  0  0
  188.8740  177.3640  143.3240 C   0  0  0  0  0  0  0  0  0  0  0  0
  182.4800  178.6280  141.7370 O   0  0  0  0  0  0  0  0  0  0  0  0
  183.2490  178.6920  140.7390 C   0  0  0  0  0  0  0  0  0  0  0  0
  191.0130  176.8640  144.3670 C   0  0  0  0  0  0  0  0  0  0  0  0
  186.6940  177.8800  144.6280 C   0  0  0  0  0  0  0  0  0  0  0  0
  185.3260  178.5010  146.9690 C   0  0  0  0  0  3  0  0  0  0  0  0
  189.6210  176.9620  144.4430 C   0  0  0  0  0  3  0  0  0  0  0  0
  185.3540  178.3960  142.1610 C   0  0  0  0  0  0  0  0  0  0  0  0
  187.2740  177.8780  148.1900 F   0  0  0  0  0  0  0  0  0  0  0  0
  188.7850  177.9270  140.9370 N   0  0  0  0  0  2  0  0  0  0  0  0
  191.9310  176.3890  145.7800 Cl  0  0  0  0  0  0  0  0  0  0  0  0
  184.7080  178.4700  143.2910 N   0  0  0  0  0  0  0  0  0  0  0  0
  186.8590  178.3010  142.1720 C   0  0  2  0  0  3  0  0  0  0  0  0
  184.6670  178.5670  140.9140 N   0  0  0  0  0  2  0  0  0  0  0  0
  187.2860  177.7240  145.8450 N   0  0  0  0  0  0  0  0  0  0  0  0
  191.6710  177.1440  143.1670 C   0  0  0  0  0  3  0  0  0  0  0  0
  185.3640  178.3350  144.5600 C   0  0  0  0  0  0  0  0  0  0  0  0
  184.6840  178.6450  145.7380 C   0  0  0  0  0  3  0  0  0  0  0  0
  187.3840  177.7820  140.9120 N   0  0  0  0  0  2  0  0  0  0  0  0
  189.5430  177.5910  142.1050 C   0  0  0  0  0  0  0  0  0  0  0  0
  190.9370  177.5040  142.0350 C   0  0  0  0  0  3  0  0  0  0  0  0
  181.5550  179.3770  136.8820 C   0  0  0  0  0  0  0  0  0  0  0  0
  182.0400  180.1060  139.0870 C   0  0  0  0  0  3  0  0  0  0  0  0
  183.3310  176.7060  138.6010 F   0  0  0  0  0  0  0  0  0  0  0  0
  180.9550  179.6490  135.5500 C   0  0  0  0  0  1  0  0  0  0  0  0
  181.5010  180.3210  137.8570 N   0  0  0  0  0  0  0  0  0  0  0  0
  182.7350  177.9040  138.3840 C   0  0  0  0  0  0  0  0  0  0  0  0
  182.6740  178.8920  139.3890 C   0  0  0  0  0  0  0  0  0  0  0  0
  182.1740  178.1520  137.1300 C   0  0  0  0  0  3  0  0  0  0  0  0
  1 11  1  0  0  0  0
  2  3  1  1  0  0  0
  2  7  1  0  0  0  0
  3  9  1  0  0  0  0
  5 16  1  0  0  0  0
  5  4  2  0  0  0  0
  6  9  2  0  0  0  0
  6 13  1  0  0  0  0
  7 17  1  0  0  0  0
  8  1  1  0  0  0  0
 10 15  1  0  0  0  0
 10 14  2  0  0  0  0
 12 22  1  0  0  0  0
 14 19  1  0  0  0  0
 15 21  1  6  0  0  0
 15  2  1  0  0  0  0
 16 10  1  0  0  0  0
 17  1  2  0  0  0  0
 18  6  1  0  0  0  0
 19  7  2  0  0  0  0
 19 20  1  0  0  0  0
 20  8  2  0  0  0  0
 21 12  1  0  0  0  0
 22  3  2  0  0  0  0
 23 22  1  0  0  0  0
 23 18  2  0  0  0  0
 24 31  2  0  0  0  0
 24 28  1  0  0  0  0
 25 30  1  0  0  0  0
 27 24  1  0  0  0  0
 28 25  2  0  0  0  0
 29 26  1  0  0  0  0
 29 30  2  0  0  0  0
 30  5  1  0  0  0  0
 31 29  1  0  0  0  0
M  END
>  <MODEL>
3

>  <REMARK>
 VINA RESULT:     -10.3      4.168      7.071
  Name = 
  1 active torsions:
  status: ('A' for Active; 'I' for Inactive)
    1  A    between atoms: C_5  and  C_30
                            x       y       z     vdW  Elec       q    Type
                         _______ _______ _______ _____ _____    ______ ____

>  <TORSDO>
F 1

$$$$
=
 OpenBabel11122411073D

 31 35  0  0  1  0  0  0  0  0999 V2000
  191.1630  177.1160  141.9410 C   0  0  0  0  0  0  0  0  0  0  0  0
  188.0010  178.2600  143.6620 C   0  0  1  0  0  3  0  0  0  0  0  0
  188.2430  177.8160  145.0940 C   0  0  0  0  0  0  0  0  0  0  0  0
  185.3650  179.1610  139.1850 O   0  0  0  0  0  0  0  0  0  0  0  0
  184.5260  179.0710  140.1240 C   0  0  0  0  0  0  0  0  0  0  0  0
  189.7120  177.3210  146.9670 C   0  0  0  0  0  0  0  0  0  0  0  0
  188.9780  177.7790  142.6070 C   0  0  0  0  0  0  0  0  0  0  0  0
  190.7880  177.1400  140.5950 C   0  0  0  0  0  3  0  0  0  0  0  0
  189.5340  177.6800  145.6280 C   0  0  0  0  0  3  0  0  0  0  0  0
  186.2880  178.3150  141.8160 C   0  0  0  0  0  0  0  0  0  0  0  0
  192.4300  176.7810  142.2830 F   0  0  0  0  0  0  0  0  0  0  0  0
  185.8130  177.8710  145.4320 N   0  0  0  0  0  2  0  0  0  0  0  0
  191.3280  177.1280  147.6110 Cl  0  0  0  0  0  0  0  0  0  0  0  0
  187.2300  178.2070  140.9220 N   0  0  0  0  0  0  0  0  0  0  0  0
  186.5640  177.8950  143.2390 C   0  0  2  0  0  3  0  0  0  0  0  0
  184.9530  178.6710  141.4330 N   0  0  0  0  0  2  0  0  0  0  0  0
  190.2650  177.4480  142.9060 N   0  0  0  0  0  0  0  0  0  0  0  0
  188.6020  177.1160  147.7910 C   0  0  0  0  0  3  0  0  0  0  0  0
  188.5700  177.8240  141.2610 C   0  0  0  0  0  0  0  0  0  0  0  0
  189.4840  177.5010  140.2570 C   0  0  0  0  0  3  0  0  0  0  0  0
  185.6090  178.4790  144.1770 N   0  0  0  0  0  2  0  0  0  0  0  0
  187.1330  177.6610  145.9470 C   0  0  0  0  0  0  0  0  0  0  0  0
  187.3130  177.2890  147.2830 C   0  0  0  0  0  3  0  0  0  0  0  0
  180.4590  180.0390  139.2670 C   0  0  0  0  0  0  0  0  0  0  0  0
  182.7660  180.1280  138.7180 C   0  0  0  0  0  3  0  0  0  0  0  0
  182.3110  178.2530  141.8390 F   0  0  0  0  0  0  0  0  0  0  0  0
  179.0540  180.3940  138.9370 C   0  0  0  0  0  1  0  0  0  0  0  0
  181.4700  180.4350  138.4490 N   0  0  0  0  0  0  0  0  0  0  0  0
  182.0630  178.9710  140.7170 C   0  0  0  0  0  0  0  0  0  0  0  0
  183.1030  179.3870  139.8610 C   0  0  0  0  0  0  0  0  0  0  0  0
  180.7410  179.3000  140.4150 C   0  0  0  0  0  3  0  0  0  0  0  0
  1 11  1  0  0  0  0
  1 17  1  0  0  0  0
  2  7  1  6  0  0  0
  2  3  1  0  0  0  0
  3  9  2  0  0  0  0
  3 22  1  0  0  0  0
  4  5  2  0  0  0  0
  5 16  1  0  0  0  0
  6 13  1  0  0  0  0
  6 18  2  0  0  0  0
  7 17  2  0  0  0  0
  8  1  2  0  0  0  0
  9  6  1  0  0  0  0
 12 22  1  0  0  0  0
 14 19  1  0  0  0  0
 14 10  2  0  0  0  0
 15 10  1  6  0  0  0
 15  2  1  0  0  0  0
 15 21  1  0  0  0  0
 16 10  1  0  0  0  0
 19  7  1  0  0  0  0
 20  8  1  0  0  0  0
 20 19  2  0  0  0  0
 21 12  1  0  0  0  0
 22 23  2  0  0  0  0
 23 18  1  0  0  0  0
 24 31  1  0  0  0  0
 25 30  2  0  0  0  0
 27 24  1  0  0  0  0
 28 25  1  0  0  0  0
 28 24  2  0  0  0  0
 29 26  1  0  0  0  0
 30  5  1  0  0  0  0
 30 29  1  0  0  0  0
 31 29  2  0  0  0  0
M  END
>  <MODEL>
4

>  <REMARK>
 VINA RESULT:      -9.9      3.355      7.469
  Name = 
  1 active torsions:
  status: ('A' for Active; 'I' for Inactive)
    1  A    between atoms: C_5  and  C_30
                            x       y       z     vdW  Elec       q    Type
                         _______ _______ _______ _____ _____    ______ ____

>  <TORSDO>
F 1

$$$$
=
 OpenBabel11122411073D

 31 35  0  0  1  0  0  0  0  0999 V2000
  184.3700  179.0220  139.4120 C   0  0  0  0  0  0  0  0  0  0  0  0
  188.0450  178.2510  139.8240 C   0  0  1  0  0  3  0  0  0  0  0  0
  188.4370  177.8250  138.4200 C   0  0  0  0  0  0  0  0  0  0  0  0
  187.9030  178.2360  145.0950 O   0  0  0  0  0  0  0  0  0  0  0  0
  188.9520  177.6370  144.7280 C   0  0  0  0  0  0  0  0  0  0  0  0
  188.1850  177.9110  136.0040 C   0  0  0  0  0  0  0  0  0  0  0  0
  186.5680  178.4390  140.1100 C   0  0  0  0  0  0  0  0  0  0  0  0
  183.9190  179.0100  140.7350 C   0  0  0  0  0  3  0  0  0  0  0  0
  187.7580  178.2840  137.2810 C   0  0  0  0  0  3  0  0  0  0  0  0
  188.2750  177.6630  142.2620 C   0  0  0  0  0  0  0  0  0  0  0  0
  183.5100  179.3190  138.4090 F   0  0  0  0  0  0  0  0  0  0  0  0
  190.3430  176.6350  139.4050 N   0  0  0  0  0  2  0  0  0  0  0  0
  187.3110  178.4690  134.5940 Cl  0  0  0  0  0  0  0  0  0  0  0  0
  187.0850  178.1360  142.5020 N   0  0  0  0  0  0  0  0  0  0  0  0
  188.6490  177.2750  140.8530 C   0  0  2  0  0  3  0  0  0  0  0  0
  189.1700  177.3540  143.3390 N   0  0  0  0  0  2  0  0  0  0  0  0
  185.6740  178.7550  139.1330 N   0  0  0  0  0  0  0  0  0  0  0  0
  189.3080  177.0930  135.8510 C   0  0  0  0  0  3  0  0  0  0  0  0
  186.1500  178.4290  141.4540 C   0  0  0  0  0  0  0  0  0  0  0  0
  184.8190  178.7160  141.7590 C   0  0  0  0  0  3  0  0  0  0  0  0
  190.0970  177.2010  140.6720 N   0  0  0  0  0  2  0  0  0  0  0  0
  189.5990  177.0460  138.2530 C   0  0  0  0  0  0  0  0  0  0  0  0
  190.0160  176.6630  136.9750 C   0  0  0  0  0  3  0  0  0  0  0  0
  191.9060  176.4360  147.5650 C   0  0  0  0  0  0  0  0  0  0  0  0
  191.1170  176.5690  145.3310 C   0  0  0  0  0  3  0  0  0  0  0  0
  188.6900  178.1390  147.5920 F   0  0  0  0  0  0  0  0  0  0  0  0
  192.9540  176.0020  148.5250 C   0  0  0  0  0  1  0  0  0  0  0  0
  192.0550  176.1870  146.2370 N   0  0  0  0  0  0  0  0  0  0  0  0
  189.7880  177.4990  147.1180 C   0  0  0  0  0  0  0  0  0  0  0  0
  189.9540  177.2370  145.7430 C   0  0  0  0  0  0  0  0  0  0  0  0
  190.7670  177.0960  148.0270 C   0  0  0  0  0  3  0  0  0  0  0  0
  1  8  1  0  0  0  0
  2  3  1  6  0  0  0
  2  7  1  0  0  0  0
  2 15  1  0  0  0  0
  5  4  2  0  0  0  0
  5 30  1  0  0  0  0
  6  9  1  0  0  0  0
  7 19  2  0  0  0  0
  8 20  2  0  0  0  0
  9  3  2  0  0  0  0
 10 14  2  0  0  0  0
 10 16  1  0  0  0  0
 11  1  1  0  0  0  0
 12 21  1  0  0  0  0
 13  6  1  0  0  0  0
 15 21  1  1  0  0  0
 15 10  1  0  0  0  0
 16  5  1  0  0  0  0
 17  1  2  0  0  0  0
 17  7  1  0  0  0  0
 18  6  2  0  0  0  0
 18 23  1  0  0  0  0
 19 20  1  0  0  0  0
 19 14  1  0  0  0  0
 22  3  1  0  0  0  0
 22 12  1  0  0  0  0
 23 22  2  0  0  0  0
 24 31  1  0  0  0  0
 24 27  1  0  0  0  0
 25 30  2  0  0  0  0
 25 28  1  0  0  0  0
 28 24  2  0  0  0  0
 29 26  1  0  0  0  0
 29 31  2  0  0  0  0
 30 29  1  0  0  0  0
M  END
>  <MODEL>
5

>  <REMARK>
 VINA RESULT:      -9.4      3.989      7.811
  Name = 
  1 active torsions:
  status: ('A' for Active; 'I' for Inactive)
    1  A    between atoms: C_5  and  C_30
                            x       y       z     vdW  Elec       q    Type
                         _______ _______ _______ _____ _____    ______ ____

>  <TORSDO>
F 1

$$$$
=
 OpenBabel11122411073D

 31 35  0  0  1  0  0  0  0  0999 V2000
  191.6850  175.8650  146.3250 C   0  0  0  0  0  0  0  0  0  0  0  0
  188.8520  177.7410  144.6740 C   0  0  1  0  0  3  0  0  0  0  0  0
  187.8840  177.9310  145.8290 C   0  0  0  0  0  0  0  0  0  0  0  0
  190.4910  176.7760  139.7560 O   0  0  0  0  0  0  0  0  0  0  0  0
  189.2780  177.1190  139.7060 C   0  0  0  0  0  0  0  0  0  0  0  0
  187.3950  178.2140  148.1940 C   0  0  0  0  0  0  0  0  0  0  0  0
  190.0390  176.8260  144.9010 C   0  0  0  0  0  0  0  0  0  0  0  0
  192.3640  175.3350  145.2250 C   0  0  0  0  0  3  0  0  0  0  0  0
  188.3120  177.9840  147.1650 C   0  0  0  0  0  3  0  0  0  0  0  0
  189.0130  177.0790  142.2500 C   0  0  0  0  0  0  0  0  0  0  0  0
  192.1600  175.6570  147.5760 F   0  0  0  0  0  0  0  0  0  0  0  0
  186.0950  178.2120  144.1730 N   0  0  0  0  0  2  0  0  0  0  0  0
  187.9410  178.2500  149.8570 Cl  0  0  0  0  0  0  0  0  0  0  0  0
  190.1960  176.5710  142.4540 N   0  0  0  0  0  0  0  0  0  0  0  0
  188.0820  177.2850  143.4190 C   0  0  2  0  0  3  0  0  0  0  0  0
  188.5280  177.2900  140.9170 N   0  0  0  0  0  2  0  0  0  0  0  0
  190.5580  176.6040  146.1410 N   0  0  0  0  0  0  0  0  0  0  0  0
  186.0450  178.4160  147.8970 C   0  0  0  0  0  3  0  0  0  0  0  0
  190.7050  176.3170  143.7710 C   0  0  0  0  0  0  0  0  0  0  0  0
  191.8700  175.5690  143.9410 C   0  0  0  0  0  3  0  0  0  0  0  0
  187.0240  178.2440  143.1130 N   0  0  0  0  0  2  0  0  0  0  0  0
  186.5300  178.1890  145.5370 C   0  0  0  0  0  0  0  0  0  0  0  0
  185.6120  178.4060  146.5690 C   0  0  0  0  0  3  0  0  0  0  0  0
  187.4000  177.6650  135.9130 C   0  0  0  0  0  0  0  0  0  0  0  0
  187.9080  176.3100  137.7930 C   0  0  0  0  0  3  0  0  0  0  0  0
  189.4310  179.6220  138.2120 F   0  0  0  0  0  0  0  0  0  0  0  0
  186.7340  177.8190  134.5940 C   0  0  0  0  0  1  0  0  0  0  0  0
  187.3120  176.4870  136.5850 N   0  0  0  0  0  0  0  0  0  0  0  0
  188.7390  178.5740  137.7000 C   0  0  0  0  0  0  0  0  0  0  0  0
  188.6410  177.3480  138.3890 C   0  0  0  0  0  0  0  0  0  0  0  0
  188.1170  178.7280  136.4610 C   0  0  0  0  0  3  0  0  0  0  0  0
  1 11  1  0  0  0  0
  2  7  1  1  0  0  0
  2  3  1  0  0  0  0
  3  9  1  0  0  0  0
  5  4  2  0  0  0  0
  5 16  1  0  0  0  0
  6 13  1  0  0  0  0
  7 17  2  0  0  0  0
  8  1  2  0  0  0  0
  9  6  2  0  0  0  0
 10 14  2  0  0  0  0
 12 22  1  0  0  0  0
 14 19  1  0  0  0  0
 15 10  1  6  0  0  0
 15  2  1  0  0  0  0
 16 10  1  0  0  0  0
 17  1  1  0  0  0  0
 18  6  1  0  0  0  0
 19 20  2  0  0  0  0
 19  7  1  0  0  0  0
 20  8  1  0  0  0  0
 21 15  1  0  0  0  0
 21 12  1  0  0  0  0
 22  3  2  0  0  0  0
 22 23  1  0  0  0  0
 23 18  2  0  0  0  0
 24 31  2  0  0  0  0
 24 28  1  0  0  0  0
 25 30  1  0  0  0  0
 27 24  1  0  0  0  0
 28 25  2  0  0  0  0
 29 26  1  0  0  0  0
 29 30  2  0  0  0  0
 30  5  1  0  0  0  0
 31 29  1  0  0  0  0
M  END
>  <MODEL>
6

>  <REMARK>
 VINA RESULT:      -9.1      3.407      4.968
  Name = 
  1 active torsions:
  status: ('A' for Active; 'I' for Inactive)
    1  A    between atoms: C_5  and  C_30
                            x       y       z     vdW  Elec       q    Type
                         _______ _______ _______ _____ _____    ______ ____

>  <TORSDO>
F 1

$$$$
=
 OpenBabel11122411073D

 31 35  0  0  1  0  0  0  0  0999 V2000
  187.4650  177.9230  147.5710 C   0  0  0  0  0  0  0  0  0  0  0  0
  187.0420  177.4310  143.8500 C   0  0  1  0  0  3  0  0  0  0  0  0
  188.4810  177.2920  143.3850 C   0  0  0  0  0  0  0  0  0  0  0  0
  181.9880  178.9330  143.7790 O   0  0  0  0  0  0  0  0  0  0  0  0
  182.4340  178.9990  142.6010 C   0  0  0  0  0  0  0  0  0  0  0  0
  190.7970  176.6450  143.7410 C   0  0  0  0  0  0  0  0  0  0  0  0
  186.8110  177.8620  145.2850 C   0  0  0  0  0  0  0  0  0  0  0  0
  186.2250  178.4540  147.9380 C   0  0  0  0  0  3  0  0  0  0  0  0
  189.4960  176.8090  144.2250 C   0  0  0  0  0  3  0  0  0  0  0  0
  184.8410  178.5420  143.3340 C   0  0  0  0  0  0  0  0  0  0  0  0
  188.4050  177.6860  148.5170 F   0  0  0  0  0  0  0  0  0  0  0  0
  187.7310  177.9550  141.1440 N   0  0  0  0  0  2  0  0  0  0  0  0
  192.0590  176.0680  144.8090 Cl  0  0  0  0  0  0  0  0  0  0  0  0
  184.5600  178.6030  144.6050 N   0  0  0  0  0  0  0  0  0  0  0  0
  186.2760  178.3730  142.9000 C   0  0  2  0  0  3  0  0  0  0  0  0
  183.8310  178.7980  142.3480 N   0  0  0  0  0  2  0  0  0  0  0  0
  187.7220  177.6270  146.2690 N   0  0  0  0  0  0  0  0  0  0  0  0
  191.0920  176.9400  142.4070 C   0  0  0  0  0  3  0  0  0  0  0  0
  185.5480  178.3840  145.6220 C   0  0  0  0  0  0  0  0  0  0  0  0
  185.2620  178.6790  146.9550 C   0  0  0  0  0  3  0  0  0  0  0  0
  186.3780  177.8800  141.5280 N   0  0  0  0  0  2  0  0  0  0  0  0
  188.7760  177.5350  142.0290 C   0  0  0  0  0  0  0  0  0  0  0  0
  190.0810  177.3820  141.5500 C   0  0  0  0  0  3  0  0  0  0  0  0
  179.8190  179.7490  139.3130 C   0  0  0  0  0  0  0  0  0  0  0  0
  181.7700  178.7460  140.2160 C   0  0  0  0  0  3  0  0  0  0  0  0
  180.0230  180.6280  142.8380 F   0  0  0  0  0  0  0  0  0  0  0  0
  178.9310  179.9890  138.1460 C   0  0  0  0  0  1  0  0  0  0  0  0
  180.9350  178.9870  139.1710 N   0  0  0  0  0  0  0  0  0  0  0  0
  180.3470  180.0750  141.6430 C   0  0  0  0  0  0  0  0  0  0  0  0
  181.5020  179.2820  141.4850 C   0  0  0  0  0  0  0  0  0  0  0  0
  179.5080  180.3060  140.5530 C   0  0  0  0  0  3  0  0  0  0  0  0
  1  8  1  0  0  0  0
  1 11  1  0  0  0  0
  2  3  1  6  0  0  0
  2  7  1  0  0  0  0
  3  9  1  0  0  0  0
  5  4  2  0  0  0  0
  6  9  2  0  0  0  0
  6 13  1  0  0  0  0
  7 19  2  0  0  0  0
  7 17  1  0  0  0  0
 10 14  2  0  0  0  0
 12 21  1  0  0  0  0
 12 22  1  0  0  0  0
 14 19  1  0  0  0  0
 15 21  1  6  0  0  0
 15 10  1  0  0  0  0
 15  2  1  0  0  0  0
 16  5  1  0  0  0  0
 16 10  1  0  0  0  0
 17  1  2  0  0  0  0
 18  6  1  0  0  0  0
 19 20  1  0  0  0  0
 20  8  2  0  0  0  0
 22  3  2  0  0  0  0
 23 22  1  0  0  0  0
 23 18  2  0  0  0  0
 24 31  1  0  0  0  0
 25 30  2  0  0  0  0
 27 24  1  0  0  0  0
 28 24  2  0  0  0  0
 28 25  1  0  0  0  0
 29 26  1  0  0  0  0
 30 29  1  0  0  0  0
 30  5  1  0  0  0  0
 31 29  2  0  0  0  0
M  END
>  <MODEL>
7

>  <REMARK>
 VINA RESULT:      -9.0      4.653      8.447
  Name = 
  1 active torsions:
  status: ('A' for Active; 'I' for Inactive)
    1  A    between atoms: C_5  and  C_30
                            x       y       z     vdW  Elec       q    Type
                         _______ _______ _______ _____ _____    ______ ____

>  <TORSDO>
F 1

$$$$
=
 OpenBabel11122411073D

 31 35  0  0  1  0  0  0  0  0999 V2000
  185.5010  178.1440  146.4840 C   0  0  0  0  0  0  0  0  0  0  0  0
  185.7070  178.6720  142.7490 C   0  0  1  0  0  3  0  0  0  0  0  0
  184.2410  178.7320  142.3580 C   0  0  0  0  0  0  0  0  0  0  0  0
  190.8270  177.4530  142.4150 O   0  0  0  0  0  0  0  0  0  0  0  0
  190.3250  177.3660  141.2600 C   0  0  0  0  0  0  0  0  0  0  0  0
  181.9140  179.2480  142.8340 C   0  0  0  0  0  0  0  0  0  0  0  0
  186.0340  178.2490  144.1680 C   0  0  0  0  0  0  0  0  0  0  0  0
  186.7850  177.6810  146.7850 C   0  0  0  0  0  3  0  0  0  0  0  0
  183.2440  179.1550  143.2510 C   0  0  0  0  0  3  0  0  0  0  0  0
  187.9370  177.6860  142.1160 C   0  0  0  0  0  0  0  0  0  0  0  0
  184.5980  178.3240  147.4770 F   0  0  0  0  0  0  0  0  0  0  0  0
  184.9120  178.1200  140.0780 N   0  0  0  0  0  2  0  0  0  0  0  0
  180.6780  179.7500  143.9680 Cl  0  0  0  0  0  0  0  0  0  0  0  0
  188.2860  177.6370  143.3710 N   0  0  0  0  0  0  0  0  0  0  0  0
  186.4750  177.7770  141.7560 C   0  0  2  0  0  3  0  0  0  0  0  0
  188.9080  177.4910  141.0790 N   0  0  0  0  0  2  0  0  0  0  0  0
  185.1620  178.4290  145.1980 N   0  0  0  0  0  0  0  0  0  0  0  0
  181.5690  178.9420  141.5150 C   0  0  0  0  0  3  0  0  0  0  0  0
  187.3390  177.7970  144.4370 C   0  0  0  0  0  0  0  0  0  0  0  0
  187.7080  177.5130  145.7520 C   0  0  0  0  0  3  0  0  0  0  0  0
  186.2770  178.2680  140.3940 N   0  0  0  0  0  2  0  0  0  0  0  0
  183.8920  178.4780  141.0170 C   0  0  0  0  0  0  0  0  0  0  0  0
  182.5580  178.5600  140.6060 C   0  0  0  0  0  3  0  0  0  0  0  0
  192.9780  176.7520  137.9740 C   0  0  0  0  0  0  0  0  0  0  0  0
  192.5850  177.4100  140.2190 C   0  0  0  0  0  3  0  0  0  0  0  0
  189.4250  176.3790  138.6650 F   0  0  0  0  0  0  0  0  0  0  0  0
  193.9300  176.5500  136.8510 C   0  0  0  0  0  1  0  0  0  0  0  0
  193.4270  177.2140  139.1700 N   0  0  0  0  0  0  0  0  0  0  0  0
  190.7370  176.6610  138.8590 C   0  0  0  0  0  0  0  0  0  0  0  0
  191.2140  177.1400  140.0970 C   0  0  0  0  0  0  0  0  0  0  0  0
  191.6240  176.4680  137.7990 C   0  0  0  0  0  3  0  0  0  0  0  0
  1  8  1  0  0  0  0
  1 11  1  0  0  0  0
  2  3  1  6  0  0  0
  2  7  1  0  0  0  0
  3  9  1  0  0  0  0
  5  4  2  0  0  0  0
  6  9  2  0  0  0  0
  6 13  1  0  0  0  0
  7 19  2  0  0  0  0
  7 17  1  0  0  0  0
 10 14  2  0  0  0  0
 12 21  1  0  0  0  0
 12 22  1  0  0  0  0
 14 19  1  0  0  0  0
 15 21  1  6  0  0  0
 15 10  1  0  0  0  0
 15  2  1  0  0  0  0
 16  5  1  0  0  0  0
 16 10  1  0  0  0  0
 17  1  2  0  0  0  0
 18  6  1  0  0  0  0
 19 20  1  0  0  0  0
 20  8  2  0  0  0  0
 22  3  2  0  0  0  0
 23 22  1  0  0  0  0
 23 18  2  0  0  0  0
 24 28  1  0  0  0  0
 26 29  1  0  0  0  0
 27 24  1  0  0  0  0
 28 25  2  0  0  0  0
 29 30  2  0  0  0  0
 30 25  1  0  0  0  0
 30  5  1  0  0  0  0
 31 24  2  0  0  0  0
 31 29  1  0  0  0  0
M  END
>  <MODEL>
8

>  <REMARK>
 VINA RESULT:      -8.7      2.714      5.148
  Name = 
  1 active torsions:
  status: ('A' for Active; 'I' for Inactive)
    1  A    between atoms: C_5  and  C_30
                            x       y       z     vdW  Elec       q    Type
                         _______ _______ _______ _____ _____    ______ ____

>  <TORSDO>
F 1

$$$$
=
 OpenBabel11122411073D

 31 35  0  0  1  0  0  0  0  0999 V2000
  185.3490  178.8120  140.4020 C   0  0  0  0  0  0  0  0  0  0  0  0
  188.5230  177.1950  141.6570 C   0  0  1  0  0  3  0  0  0  0  0  0
  188.4720  177.5110  143.1410 C   0  0  0  0  0  0  0  0  0  0  0  0
  190.5950  176.5080  136.8570 O   0  0  0  0  0  0  0  0  0  0  0  0
  191.5270  176.4190  137.7040 C   0  0  0  0  0  0  0  0  0  0  0  0
  187.2560  177.9510  145.2000 C   0  0  0  0  0  0  0  0  0  0  0  0
  187.5050  177.8750  140.7630 C   0  0  0  0  0  0  0  0  0  0  0  0
  185.5860  178.8920  139.0260 C   0  0  0  0  0  3  0  0  0  0  0  0
  187.2620  177.7160  143.8230 C   0  0  0  0  0  3  0  0  0  0  0  0
  190.0310  177.1640  139.6400 C   0  0  0  0  0  0  0  0  0  0  0  0
  184.1650  179.2330  140.9080 F   0  0  0  0  0  0  0  0  0  0  0  0
  190.9030  177.1850  143.2080 N   0  0  0  0  0  2  0  0  0  0  0  0
  185.7410  178.2330  146.0300 Cl  0  0  0  0  0  0  0  0  0  0  0  0
  189.0230  177.4550  138.8660 N   0  0  0  0  0  0  0  0  0  0  0  0
  189.9420  177.4610  141.1160 C   0  0  2  0  0  3  0  0  0  0  0  0
  191.2760  176.7220  139.0830 N   0  0  0  0  0  2  0  0  0  0  0  0
  186.2970  178.2970  141.2290 N   0  0  0  0  0  0  0  0  0  0  0  0
  188.4560  177.9610  145.9150 C   0  0  0  0  0  3  0  0  0  0  0  0
  187.7720  177.9300  139.3820 C   0  0  0  0  0  0  0  0  0  0  0  0
  186.8040  178.4420  138.5180 C   0  0  0  0  0  3  0  0  0  0  0  0
  190.9160  176.6930  141.8880 N   0  0  0  0  0  2  0  0  0  0  0  0
  189.6710  177.4690  143.8800 C   0  0  0  0  0  0  0  0  0  0  0  0
  189.6640  177.7170  145.2560 C   0  0  0  0  0  3  0  0  0  0  0  0
  195.4400  175.1770  136.5400 C   0  0  0  0  0  0  0  0  0  0  0  0
  193.8120  175.5800  138.2180 C   0  0  0  0  0  3  0  0  0  0  0  0
  192.4110  176.3790  134.9220 F   0  0  0  0  0  0  0  0  0  0  0  0
  196.8110  174.7390  136.1710 C   0  0  0  0  0  1  0  0  0  0  0  0
  195.0580  175.1850  137.8440 N   0  0  0  0  0  0  0  0  0  0  0  0
  193.2610  175.9910  135.9040 C   0  0  0  0  0  0  0  0  0  0  0  0
  192.8750  175.9950  137.2600 C   0  0  0  0  0  0  0  0  0  0  0  0
  194.5460  175.5810  135.5490 C   0  0  0  0  0  3  0  0  0  0  0  0
  1 11  1  0  0  0  0
  1 17  1  0  0  0  0
  2  7  1  6  0  0  0
  2  3  1  0  0  0  0
  3  9  2  0  0  0  0
  3 22  1  0  0  0  0
  4  5  2  0  0  0  0
  5 16  1  0  0  0  0
  6 18  2  0  0  0  0
  6 13  1  0  0  0  0
  7 17  2  0  0  0  0
  8  1  2  0  0  0  0
  9  6  1  0  0  0  0
 12 22  1  0  0  0  0
 14 19  1  0  0  0  0
 14 10  2  0  0  0  0
 15 10  1  6  0  0  0
 15  2  1  0  0  0  0
 15 21  1  0  0  0  0
 16 10  1  0  0  0  0
 19  7  1  0  0  0  0
 20  8  1  0  0  0  0
 20 19  2  0  0  0  0
 21 12  1  0  0  0  0
 22 23  2  0  0  0  0
 23 18  1  0  0  0  0
 24 28  1  0  0  0  0
 26 29  1  0  0  0  0
 27 24  1  0  0  0  0
 28 25  2  0  0  0  0
 29 30  2  0  0  0  0
 30  5  1  0  0  0  0
 30 25  1  0  0  0  0
 31 29  1  0  0  0  0
 31 24  2  0  0  0  0
M  END
>  <MODEL>
9

>  <REMARK>
 VINA RESULT:      -8.5      1.836      2.330
  Name = 
  1 active torsions:
  status: ('A' for Active; 'I' for Inactive)
    1  A    between atoms: C_5  and  C_30
                            x       y       z     vdW  Elec       q    Type
                         _______ _______ _______ _____ _____    ______ ____

>  <TORSDO>
F 1

$$$$
