=
 OpenBabel11122410303D

 30 35  0  0  1  0  0  0  0  0999 V2000
  186.1470  178.2600  141.8210 C   0  0  0  0  0  0  0  0  0  0  0  0
  183.7050  178.6910  141.6100 C   0  0  0  0  0  0  0  0  0  0  0  0
  185.9340  178.2660  145.9260 N   0  0  0  0  0  2  0  0  0  0  0  0
  187.2780  177.9980  142.6330 C   0  0  0  0  0  0  0  0  0  0  0  0
  186.3180  178.3000  140.4360 O   0  0  0  0  0  0  0  0  0  0  0  0
  189.9170  177.9550  140.1530 O   0  0  0  0  0  1  0  0  0  0  0  0
  190.2130  177.7880  143.7300 C   0  0  1  0  0  3  0  0  0  0  0  0
  188.6300  177.5600  140.5310 C   0  0  2  0  0  3  0  0  0  0  0  0
  189.4850  177.9880  145.0520 C   0  0  2  0  0  3  0  0  0  0  0  0
  187.2500  178.0830  146.1600 C   0  0  0  0  0  0  0  0  0  0  0  0
  187.6050  178.4730  139.8580 C   0  0  1  0  0  3  0  0  0  0  0  0
  188.5060  177.5840  141.9950 N   0  0  0  0  0  0  0  0  0  0  0  0
  182.4670  178.8910  142.2270 C   0  0  0  0  0  3  0  0  0  0  0  0
  190.0940  176.9820  146.0080 C   0  0  0  0  0  2  0  0  0  0  0  0
  191.5740  177.2140  144.0930 C   0  0  0  0  0  2  0  0  0  0  0  0
  183.7610  178.7190  140.2220 O   0  0  0  0  0  1  0  0  0  0  0  0
  185.8670  178.2500  144.5840 C   0  0  0  0  0  0  0  0  0  0  0  0
  182.3520  178.8740  143.6170 C   0  0  0  0  0  3  0  0  0  0  0  0
  184.8620  178.4660  142.3960 C   0  0  0  0  0  0  0  0  0  0  0  0
  187.1080  178.0500  144.0340 C   0  0  0  0  0  0  0  0  0  0  0  0
  187.7290  178.0940  147.3250 O   0  0  0  0  0  0  0  0  0  0  0  0
  188.0110  177.9310  145.0420 N   0  0  0  0  0  0  0  0  0  0  0  0
  191.5380  176.8610  145.5710 C   0  0  0  0  0  2  0  0  0  0  0  0
  188.9310  175.3050  143.3880 Cl  0  0  0  0  0  0  0  0  0  0  0  0
  183.4780  178.6560  144.4070 C   0  0  0  0  0  3  0  0  0  0  0  0
  184.7270  178.4510  143.8100 C   0  0  0  0  0  0  0  0  0  0  0  0
  189.5310  176.8650  142.7340 C   0  0  2  0  0  3  0  0  0  0  0  0
  187.5400  178.2240  138.3580 C   0  0  0  0  0  2  0  0  0  0  0  0
  189.0130  178.5210  136.7420 C   0  0  0  0  0  1  0  0  0  0  0  0
  188.2330  179.2180  137.6640 O   0  0  0  0  0  0  0  0  0  0  0  0
  1 19  2  0  0  0  0
  1  4  1  0  0  0  0
  2 13  2  0  0  0  0
  2 19  1  0  0  0  0
  3 10  1  0  0  0  0
  4 20  2  0  0  0  0
  5  1  1  0  0  0  0
  7 15  1  1  0  0  0
  7  9  1  0  0  0  0
  8  6  1  1  0  0  0
  8 12  1  0  0  0  0
  9 14  1  1  0  0  0
 10 21  2  0  0  0  0
 11 28  1  6  0  0  0
 11  5  1  0  0  0  0
 11  8  1  0  0  0  0
 12  4  1  0  0  0  0
 12 27  1  0  0  0  0
 13 18  1  0  0  0  0
 15 23  1  0  0  0  0
 16  2  1  0  0  0  0
 17  3  1  0  0  0  0
 18 25  2  0  0  0  0
 19 26  1  0  0  0  0
 20 17  1  0  0  0  0
 20 22  1  0  0  0  0
 22  9  1  0  0  0  0
 22 10  1  0  0  0  0
 23 14  1  0  0  0  0
 26 25  1  0  0  0  0
 26 17  2  0  0  0  0
 27 24  1  1  0  0  0
 27  7  1  0  0  0  0
 29 30  1  0  0  0  0
 30 28  1  0  0  0  0
M  END
>  <MODEL>
1

>  <REMARK>
 VINA RESULT:      -9.9      0.000      0.000
  Name = 
  2 active torsions:
  status: ('A' for Active; 'I' for Inactive)
    1  A    between atoms: C_11  and  C_28
    2  A    between atoms: C_28  and  O_30
                            x       y       z     vdW  Elec       q    Type
                         _______ _______ _______ _____ _____    ______ ____

>  <TORSDO>
F 2

$$$$
=
 OpenBabel11122410303D

 30 35  0  0  1  0  0  0  0  0999 V2000
  186.9290  178.3130  141.0900 C   0  0  0  0  0  0  0  0  0  0  0  0
  184.6220  178.7600  140.2720 C   0  0  0  0  0  0  0  0  0  0  0  0
  185.6670  178.1960  145.0000 N   0  0  0  0  0  2  0  0  0  0  0  0
  187.8140  178.0220  142.1570 C   0  0  0  0  0  0  0  0  0  0  0  0
  187.4500  178.3930  139.7980 O   0  0  0  0  0  0  0  0  0  0  0  0
  191.0010  178.0440  140.4390 O   0  0  0  0  0  1  0  0  0  0  0  0
  190.3700  177.7680  143.9650 C   0  0  1  0  0  3  0  0  0  0  0  0
  189.6630  177.6420  140.4610 C   0  0  2  0  0  3  0  0  0  0  0  0
  189.3250  177.9310  145.0610 C   0  0  2  0  0  3  0  0  0  0  0  0
  186.8800  178.0010  145.5590 C   0  0  0  0  0  0  0  0  0  0  0  0
  188.8420  178.5790  139.5750 C   0  0  1  0  0  3  0  0  0  0  0  0
  189.1670  177.6220  141.8450 N   0  0  0  0  0  0  0  0  0  0  0  0
  183.2650  178.9450  140.5550 C   0  0  0  0  0  3  0  0  0  0  0  0
  189.6720  176.8940  146.1100 C   0  0  0  0  0  2  0  0  0  0  0  0
  191.5930  177.1780  144.6480 C   0  0  0  0  0  2  0  0  0  0  0  0
  185.0320  178.8280  138.9460 O   0  0  0  0  0  1  0  0  0  0  0  0
  185.9480  178.2200  143.6870 C   0  0  0  0  0  0  0  0  0  0  0  0
  182.7970  178.8870  141.8670 C   0  0  0  0  0  3  0  0  0  0  0  0
  185.5380  178.5060  141.3210 C   0  0  0  0  0  0  0  0  0  0  0  0
  187.2900  178.0330  143.4680 C   0  0  0  0  0  0  0  0  0  0  0  0
  187.0440  177.9750  146.8080 O   0  0  0  0  0  0  0  0  0  0  0  0
  187.9030  177.8800  144.6700 N   0  0  0  0  0  0  0  0  0  0  0  0
  191.1810  176.7810  146.0560 C   0  0  0  0  0  2  0  0  0  0  0  0
  189.2290  175.3010  143.2300 Cl  0  0  0  0  0  0  0  0  0  0  0  0
  183.6830  178.6410  142.9140 C   0  0  0  0  0  3  0  0  0  0  0  0
  185.0440  178.4490  142.6520 C   0  0  0  0  0  0  0  0  0  0  0  0
  189.9700  176.8780  142.8000 C   0  0  2  0  0  3  0  0  0  0  0  0
  189.1650  178.3750  138.1020 C   0  0  0  0  0  2  0  0  0  0  0  0
  187.7710  178.5380  136.3980 C   0  0  0  0  0  1  0  0  0  0  0  0
  188.4840  179.3080  137.3160 O   0  0  0  0  0  0  0  0  0  0  0  0
  1 19  2  0  0  0  0
  1  4  1  0  0  0  0
  2 13  2  0  0  0  0
  2 19  1  0  0  0  0
  3 10  1  0  0  0  0
  4 20  2  0  0  0  0
  5  1  1  0  0  0  0
  7 15  1  1  0  0  0
  7  9  1  0  0  0  0
  8  6  1  1  0  0  0
  8 12  1  0  0  0  0
  9 14  1  1  0  0  0
 10 21  2  0  0  0  0
 11 28  1  6  0  0  0
 11  5  1  0  0  0  0
 11  8  1  0  0  0  0
 12  4  1  0  0  0  0
 12 27  1  0  0  0  0
 13 18  1  0  0  0  0
 15 23  1  0  0  0  0
 16  2  1  0  0  0  0
 17  3  1  0  0  0  0
 18 25  2  0  0  0  0
 19 26  1  0  0  0  0
 20 17  1  0  0  0  0
 20 22  1  0  0  0  0
 22  9  1  0  0  0  0
 22 10  1  0  0  0  0
 23 14  1  0  0  0  0
 26 25  1  0  0  0  0
 26 17  2  0  0  0  0
 27 24  1  1  0  0  0
 27  7  1  0  0  0  0
 29 30  1  0  0  0  0
 30 28  1  0  0  0  0
M  END
>  <MODEL>
2

>  <REMARK>
 VINA RESULT:      -9.8      0.953      1.081
  Name = 
  2 active torsions:
  status: ('A' for Active; 'I' for Inactive)
    1  A    between atoms: C_11  and  C_28
    2  A    between atoms: C_28  and  O_30
                            x       y       z     vdW  Elec       q    Type
                         _______ _______ _______ _____ _____    ______ ____

>  <TORSDO>
F 2

$$$$
=
 OpenBabel11122410303D

 30 35  0  0  1  0  0  0  0  0999 V2000
  186.1980  178.5090  140.9740 C   0  0  0  0  0  0  0  0  0  0  0  0
  184.2950  178.9260  139.4260 C   0  0  0  0  0  0  0  0  0  0  0  0
  183.7330  178.6420  144.2600 N   0  0  0  0  0  2  0  0  0  0  0  0
  186.6800  178.2750  142.2850 C   0  0  0  0  0  0  0  0  0  0  0  0
  187.1120  178.5060  139.9200 O   0  0  0  0  0  0  0  0  0  0  0  0
  190.2520  178.1630  141.7000 O   0  0  0  0  0  1  0  0  0  0  0  0
  188.5020  178.1070  144.8380 C   0  0  1  0  0  3  0  0  0  0  0  0
  188.9680  177.7760  141.3070 C   0  0  2  0  0  3  0  0  0  0  0  0
  187.1630  178.3460  145.5230 C   0  0  2  0  0  3  0  0  0  0  0  0
  184.6920  178.4690  145.1930 C   0  0  0  0  0  0  0  0  0  0  0  0
  188.5060  178.6650  140.1520 C   0  0  1  0  0  3  0  0  0  0  0  0
  188.0490  177.8450  142.4520 N   0  0  0  0  0  0  0  0  0  0  0  0
  182.9260  179.1410  139.2410 C   0  0  0  0  0  3  0  0  0  0  0  0
  187.1210  177.3710  146.6830 C   0  0  0  0  0  2  0  0  0  0  0  0
  189.4200  177.5480  145.9130 C   0  0  0  0  0  2  0  0  0  0  0  0
  185.1160  178.9110  138.3040 O   0  0  0  0  0  1  0  0  0  0  0  0
  184.4250  178.5830  143.1110 C   0  0  0  0  0  0  0  0  0  0  0  0
  182.0560  179.1670  140.3300 C   0  0  0  0  0  3  0  0  0  0  0  0
  184.8140  178.7290  140.7280 C   0  0  0  0  0  0  0  0  0  0  0  0
  185.7590  178.3700  143.3510 C   0  0  0  0  0  0  0  0  0  0  0  0
  184.4410  178.5170  146.4270 O   0  0  0  0  0  0  0  0  0  0  0  0
  185.9440  178.2850  144.6940 N   0  0  0  0  0  0  0  0  0  0  0  0
  188.5620  177.2410  147.1300 C   0  0  0  0  0  2  0  0  0  0  0  0
  187.5910  175.6110  143.9070 Cl  0  0  0  0  0  0  0  0  0  0  0  0
  182.5460  178.9770  141.6200 C   0  0  0  0  0  3  0  0  0  0  0  0
  183.9130  178.7570  141.8270 C   0  0  0  0  0  0  0  0  0  0  0  0
  188.4770  177.1520  143.6560 C   0  0  2  0  0  3  0  0  0  0  0  0
  189.2840  178.3690  138.8780 C   0  0  0  0  0  2  0  0  0  0  0  0
  188.9460  178.5870  136.7080 C   0  0  0  0  0  1  0  0  0  0  0  0
  188.9950  179.3170  137.8950 O   0  0  0  0  0  0  0  0  0  0  0  0
  1  4  1  0  0  0  0
  2 19  1  0  0  0  0
  3 10  1  0  0  0  0
  4 12  1  0  0  0  0
  4 20  2  0  0  0  0
  5 11  1  0  0  0  0
  5  1  1  0  0  0  0
  7  9  1  0  0  0  0
  7 15  1  1  0  0  0
  8  6  1  1  0  0  0
  8 12  1  0  0  0  0
  9 14  1  1  0  0  0
 10 21  2  0  0  0  0
 11 28  1  6  0  0  0
 11  8  1  0  0  0  0
 12 27  1  0  0  0  0
 13  2  2  0  0  0  0
 13 18  1  0  0  0  0
 14 23  1  0  0  0  0
 15 23  1  0  0  0  0
 16  2  1  0  0  0  0
 17 20  1  0  0  0  0
 17  3  1  0  0  0  0
 18 25  2  0  0  0  0
 19  1  2  0  0  0  0
 19 26  1  0  0  0  0
 20 22  1  0  0  0  0
 22 10  1  0  0  0  0
 22  9  1  0  0  0  0
 25 26  1  0  0  0  0
 26 17  2  0  0  0  0
 27 24  1  1  0  0  0
 27  7  1  0  0  0  0
 29 30  1  0  0  0  0
 30 28  1  0  0  0  0
M  END
>  <MODEL>
3

>  <REMARK>
 VINA RESULT:      -9.3      1.526      2.158
  Name = 
  2 active torsions:
  status: ('A' for Active; 'I' for Inactive)
    1  A    between atoms: C_11  and  C_28
    2  A    between atoms: C_28  and  O_30
                            x       y       z     vdW  Elec       q    Type
                         _______ _______ _______ _____ _____    ______ ____

>  <TORSDO>
F 2

$$$$
=
 OpenBabel11122410303D

 30 35  0  0  1  0  0  0  0  0999 V2000
  186.8270  177.9260  145.1260 C   0  0  0  0  0  0  0  0  0  0  0  0
  184.4570  178.5700  145.5230 C   0  0  0  0  0  0  0  0  0  0  0  0
  186.4530  178.5170  141.0750 N   0  0  0  0  0  2  0  0  0  0  0  0
  187.9210  177.7720  144.2390 C   0  0  0  0  0  0  0  0  0  0  0  0
  187.0240  177.6480  146.4790 O   0  0  0  0  0  0  0  0  0  0  0  0
  190.4160  176.3660  146.4560 O   0  0  0  0  0  1  0  0  0  0  0  0
  190.5990  176.8260  142.8970 C   0  0  1  0  0  3  0  0  0  0  0  0
  189.4190  177.3210  146.2370 C   0  0  2  0  0  3  0  0  0  0  0  0
  189.7990  177.1250  141.6350 C   0  0  2  0  0  3  0  0  0  0  0  0
  187.7040  178.1410  140.7370 C   0  0  0  0  0  0  0  0  0  0  0  0
  188.1280  176.8660  146.9170 C   0  0  1  0  0  3  0  0  0  0  0  0
  189.2330  177.5330  144.7950 N   0  0  0  0  0  0  0  0  0  0  0  0
  183.2310  179.0030  145.0090 C   0  0  0  0  0  3  0  0  0  0  0  0
  190.7470  177.8780  140.7230 C   0  0  0  0  0  2  0  0  0  0  0  0
  192.0560  176.7960  142.4630 C   0  0  0  0  0  2  0  0  0  0  0  0
  184.5550  178.3510  146.8920 O   0  0  0  0  0  1  0  0  0  0  0  0
  186.4600  178.3960  142.4130 C   0  0  0  0  0  0  0  0  0  0  0  0
  183.0740  179.2380  143.6430 C   0  0  0  0  0  3  0  0  0  0  0  0
  185.5590  178.3680  144.6570 C   0  0  0  0  0  0  0  0  0  0  0  0
  187.6850  177.9700  142.8610 C   0  0  0  0  0  0  0  0  0  0  0  0
  188.0780  178.0670  139.5360 O   0  0  0  0  0  0  0  0  0  0  0  0
  188.5020  177.8110  141.7890 N   0  0  0  0  0  0  0  0  0  0  0  0
  192.1140  177.3080  141.0320 C   0  0  0  0  0  2  0  0  0  0  0  0
  190.5560  179.5570  143.5820 Cl  0  0  0  0  0  0  0  0  0  0  0  0
  184.1450  179.0440  142.7740 C   0  0  0  0  0  3  0  0  0  0  0  0
  185.3820  178.6140  143.2680 C   0  0  0  0  0  0  0  0  0  0  0  0
  190.4360  177.8240  144.0320 C   0  0  2  0  0  3  0  0  0  0  0  0
  188.2450  176.9330  148.4330 C   0  0  0  0  0  2  0  0  0  0  0  0
  189.4480  178.6280  149.1740 C   0  0  0  0  0  1  0  0  0  0  0  0
  188.1390  178.2530  148.8750 O   0  0  0  0  0  0  0  0  0  0  0  0
  1  5  1  0  0  0  0
  2 16  1  0  0  0  0
  3 17  1  0  0  0  0
  4 12  1  0  0  0  0
  4  1  2  0  0  0  0
  5 11  1  0  0  0  0
  7 15  1  6  0  0  0
  7 27  1  0  0  0  0
  8  6  1  6  0  0  0
  8 11  1  0  0  0  0
  9 14  1  6  0  0  0
  9 22  1  0  0  0  0
  9  7  1  0  0  0  0
 10  3  1  0  0  0  0
 10 22  1  0  0  0  0
 11 28  1  1  0  0  0
 12  8  1  0  0  0  0
 13  2  1  0  0  0  0
 14 23  1  0  0  0  0
 17 20  2  0  0  0  0
 17 26  1  0  0  0  0
 18 13  2  0  0  0  0
 19  1  1  0  0  0  0
 19  2  2  0  0  0  0
 20  4  1  0  0  0  0
 21 10  2  0  0  0  0
 22 20  1  0  0  0  0
 23 15  1  0  0  0  0
 25 26  2  0  0  0  0
 25 18  1  0  0  0  0
 26 19  1  0  0  0  0
 27 24  1  6  0  0  0
 27 12  1  0  0  0  0
 28 30  1  0  0  0  0
 30 29  1  0  0  0  0
M  END
>  <MODEL>
4

>  <REMARK>
 VINA RESULT:      -9.0      1.953      5.408
  Name = 
  2 active torsions:
  status: ('A' for Active; 'I' for Inactive)
    1  A    between atoms: C_11  and  C_28
    2  A    between atoms: C_28  and  O_30
                            x       y       z     vdW  Elec       q    Type
                         _______ _______ _______ _____ _____    ______ ____

>  <TORSDO>
F 2

$$$$
=
 OpenBabel11122410303D

 30 35  0  0  1  0  0  0  0  0999 V2000
  189.0400  177.4710  143.4850 C   0  0  0  0  0  0  0  0  0  0  0  0
  191.0780  176.9400  144.8110 C   0  0  0  0  0  0  0  0  0  0  0  0
  186.7530  177.8190  146.8830 N   0  0  0  0  0  2  0  0  0  0  0  0
  187.6740  177.8420  143.4380 C   0  0  0  0  0  0  0  0  0  0  0  0
  189.7290  177.3160  142.2820 O   0  0  0  0  0  0  0  0  0  0  0  0
  187.0580  177.7570  139.8700 O   0  0  0  0  0  1  0  0  0  0  0  0
  184.6940  178.2480  142.5310 C   0  0  1  0  0  3  0  0  0  0  0  0
  187.8890  178.1400  140.9260 C   0  0  2  0  0  3  0  0  0  0  0  0
  184.4670  178.1400  144.0330 C   0  0  2  0  0  3  0  0  0  0  0  0
  185.5780  178.0670  146.2670 C   0  0  0  0  0  0  0  0  0  0  0  0
  189.0350  177.1360  141.0540 C   0  0  1  0  0  3  0  0  0  0  0  0
  187.1090  178.2400  142.1680 N   0  0  0  0  0  0  0  0  0  0  0  0
  191.6800  176.7540  146.0580 C   0  0  0  0  0  3  0  0  0  0  0  0
  183.4910  179.2470  144.3760 C   0  0  0  0  0  2  0  0  0  0  0  0
  183.4390  178.8970  141.9710 C   0  0  0  0  0  2  0  0  0  0  0  0
  191.8620  176.7930  143.6730 O   0  0  0  0  0  1  0  0  0  0  0  0
  187.6100  177.7150  145.8540 C   0  0  0  0  0  0  0  0  0  0  0  0
  190.9410  176.8890  147.2340 C   0  0  0  0  0  3  0  0  0  0  0  0
  189.7040  177.2730  144.7280 C   0  0  0  0  0  0  0  0  0  0  0  0
  186.9660  177.9080  144.6580 C   0  0  0  0  0  0  0  0  0  0  0  0
  184.4980  178.1750  146.9060 O   0  0  0  0  0  0  0  0  0  0  0  0
  185.6530  178.1460  144.9100 N   0  0  0  0  0  0  0  0  0  0  0  0
  182.6100  179.3780  143.1520 C   0  0  0  0  0  2  0  0  0  0  0  0
  186.1200  180.6460  142.9080 Cl  0  0  0  0  0  0  0  0  0  0  0  0
  189.5880  177.2140  147.1740 C   0  0  0  0  0  3  0  0  0  0  0  0
  188.9660  177.4080  145.9350 C   0  0  0  0  0  0  0  0  0  0  0  0
  185.9080  179.0560  142.1030 C   0  0  2  0  0  3  0  0  0  0  0  0
  190.0050  177.2510  139.8860 C   0  0  0  0  0  2  0  0  0  0  0  0
  191.1870  176.1910  138.3530 C   0  0  0  0  0  1  0  0  0  0  0  0
  190.5550  176.0040  139.5810 O   0  0  0  0  0  0  0  0  0  0  0  0
  1 19  1  0  0  0  0
  2 13  1  0  0  0  0
  4  1  2  0  0  0  0
  4 20  1  0  0  0  0
  5  1  1  0  0  0  0
  7 15  1  6  0  0  0
  7  9  1  0  0  0  0
  8  6  1  6  0  0  0
  8 11  1  0  0  0  0
  8 12  1  0  0  0  0
  9 14  1  1  0  0  0
  9 22  1  0  0  0  0
 10  3  1  0  0  0  0
 10 21  2  0  0  0  0
 11 28  1  6  0  0  0
 11  5  1  0  0  0  0
 12  4  1  0  0  0  0
 13 18  2  0  0  0  0
 15 23  1  0  0  0  0
 16  2  1  0  0  0  0
 17 26  1  0  0  0  0
 17  3  1  0  0  0  0
 19  2  2  0  0  0  0
 19 26  1  0  0  0  0
 20 22  1  0  0  0  0
 20 17  2  0  0  0  0
 22 10  1  0  0  0  0
 23 14  1  0  0  0  0
 25 18  1  0  0  0  0
 26 25  2  0  0  0  0
 27 12  1  0  0  0  0
 27  7  1  0  0  0  0
 27 24  1  1  0  0  0
 29 30  1  0  0  0  0
 30 28  1  0  0  0  0
M  END
>  <MODEL>
5

>  <REMARK>
 VINA RESULT:      -9.0      1.958      5.441
  Name = 
  2 active torsions:
  status: ('A' for Active; 'I' for Inactive)
    1  A    between atoms: C_11  and  C_28
    2  A    between atoms: C_28  and  O_30
                            x       y       z     vdW  Elec       q    Type
                         _______ _______ _______ _____ _____    ______ ____

>  <TORSDO>
F 2

$$$$
=
 OpenBabel11122410303D

 30 35  0  0  1  0  0  0  0  0999 V2000
  187.8580  177.9470  141.7620 C   0  0  0  0  0  0  0  0  0  0  0  0
  188.7710  177.4250  144.0170 C   0  0  0  0  0  0  0  0  0  0  0  0
  191.3650  176.8300  139.9320 N   0  0  0  0  0  2  0  0  0  0  0  0
  188.0060  177.9530  140.3530 C   0  0  0  0  0  0  0  0  0  0  0  0
  186.6550  178.4000  142.3060 O   0  0  0  0  0  0  0  0  0  0  0  0
  184.9310  179.5780  139.3410 O   0  0  0  0  0  1  0  0  0  0  0  0
  187.7360  178.6410  137.3000 C   0  0  1  0  0  3  0  0  0  0  0  0
  185.5680  178.6280  140.1450 C   0  0  2  0  0  3  0  0  0  0  0  0
  189.1930  178.1970  137.3110 C   0  0  2  0  0  3  0  0  0  0  0  0
  190.9930  177.1250  138.6680 C   0  0  0  0  0  0  0  0  0  0  0  0
  185.7600  179.2040  141.5480 C   0  0  1  0  0  3  0  0  0  0  0  0
  186.8460  178.2300  139.5370 N   0  0  0  0  0  0  0  0  0  0  0  0
  189.8300  176.9590  144.8020 C   0  0  0  0  0  3  0  0  0  0  0  0
  189.3550  177.3040  136.0970 C   0  0  0  0  0  2  0  0  0  0  0  0
  187.2970  178.5750  135.8460 C   0  0  0  0  0  2  0  0  0  0  0  0
  187.6030  177.8220  144.6570 O   0  0  0  0  0  1  0  0  0  0  0  0
  190.2640  177.1290  140.6410 C   0  0  0  0  0  0  0  0  0  0  0  0
  191.0260  176.5470  144.2140 C   0  0  0  0  0  3  0  0  0  0  0  0
  188.9020  177.4800  142.6080 C   0  0  0  0  0  0  0  0  0  0  0  0
  189.2590  177.5780  139.8220 C   0  0  0  0  0  0  0  0  0  0  0  0
  191.7890  177.0270  137.6970 O   0  0  0  0  0  0  0  0  0  0  0  0
  189.7130  177.5720  138.5420 N   0  0  0  0  0  0  0  0  0  0  0  0
  188.4010  177.8740  135.0700 C   0  0  0  0  0  2  0  0  0  0  0  0
  186.9260  176.0290  137.9690 Cl  0  0  0  0  0  0  0  0  0  0  0  0
  191.1750  176.5960  142.8300 C   0  0  0  0  0  3  0  0  0  0  0  0
  190.1270  177.0550  142.0250 C   0  0  0  0  0  0  0  0  0  0  0  0
  186.7880  177.8090  138.1470 C   0  0  2  0  0  3  0  0  0  0  0  0
  184.4330  179.3370  142.2800 C   0  0  0  0  0  2  0  0  0  0  0  0
  183.7910  179.0030  144.3650 C   0  0  0  0  0  1  0  0  0  0  0  0
  184.3050  178.3410  143.2510 O   0  0  0  0  0  0  0  0  0  0  0  0
  1  5  1  0  0  0  0
  1 19  1  0  0  0  0
  2 16  1  0  0  0  0
  2 13  1  0  0  0  0
  3 17  1  0  0  0  0
  4  1  2  0  0  0  0
  7 15  1  6  0  0  0
  7  9  1  0  0  0  0
  7 27  1  0  0  0  0
  8  6  1  6  0  0  0
  8 11  1  0  0  0  0
  9 14  1  6  0  0  0
  9 22  1  0  0  0  0
 10  3  1  0  0  0  0
 11 28  1  1  0  0  0
 11  5  1  0  0  0  0
 12  8  1  0  0  0  0
 12  4  1  0  0  0  0
 17 26  1  0  0  0  0
 18 13  2  0  0  0  0
 19  2  2  0  0  0  0
 20  4  1  0  0  0  0
 20 17  2  0  0  0  0
 21 10  2  0  0  0  0
 22 10  1  0  0  0  0
 22 20  1  0  0  0  0
 23 15  1  0  0  0  0
 23 14  1  0  0  0  0
 25 18  1  0  0  0  0
 26 19  1  0  0  0  0
 26 25  2  0  0  0  0
 27 24  1  1  0  0  0
 27 12  1  0  0  0  0
 28 30  1  0  0  0  0
 30 29  1  0  0  0  0
M  END
>  <MODEL>
6

>  <REMARK>
 VINA RESULT:      -8.3      2.542      6.808
  Name = 
  2 active torsions:
  status: ('A' for Active; 'I' for Inactive)
    1  A    between atoms: C_11  and  C_28
    2  A    between atoms: C_28  and  O_30
                            x       y       z     vdW  Elec       q    Type
                         _______ _______ _______ _____ _____    ______ ____

>  <TORSDO>
F 2

$$$$
=
 OpenBabel11122410303D

 30 35  0  0  1  0  0  0  0  0999 V2000
  189.5640  177.7940  142.1680 C   0  0  0  0  0  0  0  0  0  0  0  0
  190.9330  177.3900  140.1300 C   0  0  0  0  0  0  0  0  0  0  0  0
  186.2220  178.6280  139.9240 N   0  0  0  0  0  2  0  0  0  0  0  0
  188.3100  178.0790  142.7630 C   0  0  0  0  0  0  0  0  0  0  0  0
  190.6620  177.5820  143.0020 O   0  0  0  0  0  0  0  0  0  0  0  0
  189.2400  178.3170  146.2550 O   0  0  0  0  0  1  0  0  0  0  0  0
  186.0620  179.0330  144.7390 C   0  0  1  0  0  3  0  0  0  0  0  0
  189.3410  177.6350  145.0390 C   0  0  2  0  0  3  0  0  0  0  0  0
  185.3360  179.2810  143.4230 C   0  0  2  0  0  3  0  0  0  0  0  0
  185.3990  178.9170  140.9550 C   0  0  0  0  0  0  0  0  0  0  0  0
  190.6540  178.0160  144.3560 C   0  0  1  0  0  3  0  0  0  0  0  0
  188.1770  177.9380  144.1950 N   0  0  0  0  0  0  0  0  0  0  0  0
  191.0160  177.3250  138.7360 C   0  0  0  0  0  3  0  0  0  0  0  0
  183.9330  178.7460  143.6280 C   0  0  0  0  0  2  0  0  0  0  0  0
  184.9810  179.0030  145.8070 C   0  0  0  0  0  2  0  0  0  0  0  0
  192.0800  177.1310  140.8700 O   0  0  0  0  0  1  0  0  0  0  0  0
  187.3670  178.2990  140.5440 C   0  0  0  0  0  0  0  0  0  0  0  0
  189.8960  177.5770  137.9430 C   0  0  0  0  0  3  0  0  0  0  0  0
  189.7030  177.7120  140.7540 C   0  0  0  0  0  0  0  0  0  0  0  0
  187.2280  178.3800  141.9070 C   0  0  0  0  0  0  0  0  0  0  0  0
  184.2220  179.3290  140.7750 O   0  0  0  0  0  0  0  0  0  0  0  0
  185.9570  178.7690  142.1870 N   0  0  0  0  0  0  0  0  0  0  0  0
  183.6380  178.9870  145.0930 C   0  0  0  0  0  2  0  0  0  0  0  0
  186.0530  176.2640  144.2350 Cl  0  0  0  0  0  0  0  0  0  0  0  0
  188.6780  177.8960  138.5380 C   0  0  0  0  0  3  0  0  0  0  0  0
  188.5720  177.9630  139.9320 C   0  0  0  0  0  0  0  0  0  0  0  0
  186.8740  177.7510  144.8130 C   0  0  2  0  0  3  0  0  0  0  0  0
  191.8530  177.4380  145.0950 C   0  0  0  0  0  2  0  0  0  0  0  0
  192.0550  176.0010  146.7570 C   0  0  0  0  0  1  0  0  0  0  0  0
  191.6220  176.1030  145.4360 O   0  0  0  0  0  0  0  0  0  0  0  0
  1  4  1  0  0  0  0
  1  5  1  0  0  0  0
  2 19  1  0  0  0  0
  2 16  1  0  0  0  0
  3 17  1  0  0  0  0
  3 10  1  0  0  0  0
  4 12  1  0  0  0  0
  5 11  1  0  0  0  0
  7 27  1  0  0  0  0
  7 15  1  1  0  0  0
  8  6  1  1  0  0  0
  9 14  1  1  0  0  0
  9  7  1  0  0  0  0
 10 22  1  0  0  0  0
 11  8  1  0  0  0  0
 11 28  1  1  0  0  0
 12 27  1  0  0  0  0
 12  8  1  0  0  0  0
 13  2  2  0  0  0  0
 14 23  1  0  0  0  0
 17 20  1  0  0  0  0
 18 25  2  0  0  0  0
 18 13  1  0  0  0  0
 19  1  2  0  0  0  0
 20 22  1  0  0  0  0
 20  4  2  0  0  0  0
 21 10  2  0  0  0  0
 22  9  1  0  0  0  0
 23 15  1  0  0  0  0
 25 26  1  0  0  0  0
 26 17  2  0  0  0  0
 26 19  1  0  0  0  0
 27 24  1  6  0  0  0
 28 30  1  0  0  0  0
 30 29  1  0  0  0  0
M  END
>  <MODEL>
7

>  <REMARK>
 VINA RESULT:      -8.1      1.894      6.345
  Name = 
  2 active torsions:
  status: ('A' for Active; 'I' for Inactive)
    1  A    between atoms: C_11  and  C_28
    2  A    between atoms: C_28  and  O_30
                            x       y       z     vdW  Elec       q    Type
                         _______ _______ _______ _____ _____    ______ ____

>  <TORSDO>
F 2

$$$$
=
 OpenBabel11122410303D

 30 35  0  0  1  0  0  0  0  0999 V2000
  189.5260  177.6680  139.6660 C   0  0  0  0  0  0  0  0  0  0  0  0
  189.0470  177.7800  137.2270 C   0  0  0  0  0  0  0  0  0  0  0  0
  185.6420  178.6220  140.6140 N   0  0  0  0  0  2  0  0  0  0  0  0
  189.0710  177.7240  141.0070 C   0  0  0  0  0  0  0  0  0  0  0  0
  190.8750  177.3960  139.4340 O   0  0  0  0  0  0  0  0  0  0  0  0
  192.1910  177.3710  142.8120 O   0  0  0  0  0  1  0  0  0  0  0  0
  188.9230  178.0860  144.1240 C   0  0  1  0  0  3  0  0  0  0  0  0
  191.3630  176.9450  141.7700 C   0  0  2  0  0  3  0  0  0  0  0  0
  187.5050  178.5160  143.7710 C   0  0  2  0  0  3  0  0  0  0  0  0
  185.7980  178.6370  141.9540 C   0  0  0  0  0  0  0  0  0  0  0  0
  191.8470  177.5610  140.4580 C   0  0  1  0  0  3  0  0  0  0  0  0
  189.9660  177.3010  142.0590 N   0  0  0  0  0  0  0  0  0  0  0  0
  188.1270  177.9900  136.1960 C   0  0  0  0  0  3  0  0  0  0  0  0
  186.6100  177.8330  144.7860 C   0  0  0  0  0  2  0  0  0  0  0  0
  188.8970  177.7600  145.6080 C   0  0  0  0  0  2  0  0  0  0  0  0
  190.3610  177.4840  136.8860 O   0  0  0  0  0  1  0  0  0  0  0  0
  186.8660  178.2820  140.1780 C   0  0  0  0  0  0  0  0  0  0  0  0
  186.7950  178.2900  136.4800 C   0  0  0  0  0  3  0  0  0  0  0  0
  188.6320  177.8690  138.5780 C   0  0  0  0  0  0  0  0  0  0  0  0
  187.7260  178.0880  141.2300 C   0  0  0  0  0  0  0  0  0  0  0  0
  184.8650  178.9730  142.7320 O   0  0  0  0  0  0  0  0  0  0  0  0
  187.0450  178.3050  142.3850 N   0  0  0  0  0  0  0  0  0  0  0  0
  187.4420  177.7640  146.0490 C   0  0  0  0  0  2  0  0  0  0  0  0
  188.3600  175.4730  143.2390 Cl  0  0  0  0  0  0  0  0  0  0  0  0
  186.3670  178.3830  137.8020 C   0  0  0  0  0  3  0  0  0  0  0  0
  187.2710  178.1740  138.8500 C   0  0  0  0  0  0  0  0  0  0  0  0
  189.4580  176.8880  143.3570 C   0  0  2  0  0  3  0  0  0  0  0  0
  193.1740  176.9590  140.0180 C   0  0  0  0  0  2  0  0  0  0  0  0
  193.6310  175.7780  138.2100 C   0  0  0  0  0  1  0  0  0  0  0  0
  193.3300  177.0720  138.6350 O   0  0  0  0  0  0  0  0  0  0  0  0
  1  4  1  0  0  0  0
  2 19  1  0  0  0  0
  3 10  1  0  0  0  0
  4 20  2  0  0  0  0
  4 12  1  0  0  0  0
  5  1  1  0  0  0  0
  5 11  1  0  0  0  0
  7 15  1  1  0  0  0
  8 12  1  0  0  0  0
  8  6  1  1  0  0  0
  9  7  1  0  0  0  0
  9 14  1  1  0  0  0
 10 22  1  0  0  0  0
 10 21  2  0  0  0  0
 11 28  1  6  0  0  0
 11  8  1  0  0  0  0
 12 27  1  0  0  0  0
 13 18  1  0  0  0  0
 13  2  2  0  0  0  0
 14 23  1  0  0  0  0
 15 23  1  0  0  0  0
 16  2  1  0  0  0  0
 17  3  1  0  0  0  0
 17 20  1  0  0  0  0
 18 25  2  0  0  0  0
 19 26  1  0  0  0  0
 19  1  2  0  0  0  0
 20 22  1  0  0  0  0
 22  9  1  0  0  0  0
 25 26  1  0  0  0  0
 26 17  2  0  0  0  0
 27 24  1  6  0  0  0
 27  7  1  0  0  0  0
 29 30  1  0  0  0  0
 30 28  1  0  0  0  0
M  END
>  <MODEL>
8

>  <REMARK>
 VINA RESULT:      -7.9      2.235      4.865
  Name = 
  2 active torsions:
  status: ('A' for Active; 'I' for Inactive)
    1  A    between atoms: C_11  and  C_28
    2  A    between atoms: C_28  and  O_30
                            x       y       z     vdW  Elec       q    Type
                         _______ _______ _______ _____ _____    ______ ____

>  <TORSDO>
F 2

$$$$
=
 OpenBabel11122410303D

 30 35  0  0  1  0  0  0  0  0999 V2000
  186.4430  178.4430  140.2180 C   0  0  0  0  0  0  0  0  0  0  0  0
  188.0970  178.2620  138.3680 C   0  0  0  0  0  0  0  0  0  0  0  0
  189.2660  177.4220  143.0260 N   0  0  0  0  0  2  0  0  0  0  0  0
  186.1480  178.4080  141.6030 C   0  0  0  0  0  0  0  0  0  0  0  0
  185.4110  178.7400  139.3260 O   0  0  0  0  0  0  0  0  0  0  0  0
  182.5570  178.8740  141.5570 O   0  0  0  0  0  1  0  0  0  0  0  0
  184.6720  178.1160  144.3610 C   0  0  1  0  0  3  0  0  0  0  0  0
  183.8140  179.2570  141.0810 C   0  0  2  0  0  3  0  0  0  0  0  0
  186.0570  177.6450  144.7860 C   0  0  2  0  0  3  0  0  0  0  0  0
  188.4470  177.4420  144.0980 C   0  0  0  0  0  0  0  0  0  0  0  0
  184.0480  178.6210  139.7110 C   0  0  1  0  0  3  0  0  0  0  0  0
  184.8540  178.8760  142.0460 N   0  0  0  0  0  0  0  0  0  0  0  0
  189.4070  178.0070  137.9530 C   0  0  0  0  0  3  0  0  0  0  0  0
  186.3290  178.3310  146.1100 C   0  0  0  0  0  2  0  0  0  0  0  0
  183.9470  178.4770  145.6470 C   0  0  0  0  0  2  0  0  0  0  0  0
  187.1510  178.5800  137.4000 O   0  0  0  0  0  1  0  0  0  0  0  0
  188.4480  177.7800  142.0230 C   0  0  0  0  0  0  0  0  0  0  0  0
  190.3980  177.6830  138.8810 C   0  0  0  0  0  3  0  0  0  0  0  0
  187.7600  178.1960  139.7420 C   0  0  0  0  0  0  0  0  0  0  0  0
  187.1780  178.0180  142.4860 C   0  0  0  0  0  0  0  0  0  0  0  0
  188.8410  177.1030  145.2460 O   0  0  0  0  0  0  0  0  0  0  0  0
  187.1660  177.8130  143.8280 N   0  0  0  0  0  0  0  0  0  0  0  0
  184.9710  178.4490  146.7700 C   0  0  0  0  0  2  0  0  0  0  0  0
  185.6900  180.6930  143.8660 Cl  0  0  0  0  0  0  0  0  0  0  0  0
  190.0870  177.6110  140.2370 C   0  0  0  0  0  3  0  0  0  0  0  0
  188.7820  177.8650  140.6730 C   0  0  0  0  0  0  0  0  0  0  0  0
  184.6420  179.3070  143.4180 C   0  0  2  0  0  3  0  0  0  0  0  0
  183.1520  179.2440  138.6500 C   0  0  0  0  0  2  0  0  0  0  0  0
  181.8240  180.9930  138.4310 C   0  0  0  0  0  1  0  0  0  0  0  0
  183.1240  180.6340  138.7840 O   0  0  0  0  0  0  0  0  0  0  0  0
  1  4  1  0  0  0  0
  2 19  1  0  0  0  0
  3 10  1  0  0  0  0
  4 12  1  0  0  0  0
  4 20  2  0  0  0  0
  5 11  1  0  0  0  0
  5  1  1  0  0  0  0
  7  9  1  0  0  0  0
  7 15  1  1  0  0  0
  8  6  1  1  0  0  0
  8 12  1  0  0  0  0
  9 14  1  1  0  0  0
 10 21  2  0  0  0  0
 11 28  1  6  0  0  0
 11  8  1  0  0  0  0
 12 27  1  0  0  0  0
 13  2  2  0  0  0  0
 13 18  1  0  0  0  0
 14 23  1  0  0  0  0
 15 23  1  0  0  0  0
 16  2  1  0  0  0  0
 17 20  1  0  0  0  0
 17  3  1  0  0  0  0
 18 25  2  0  0  0  0
 19  1  2  0  0  0  0
 19 26  1  0  0  0  0
 20 22  1  0  0  0  0
 22 10  1  0  0  0  0
 22  9  1  0  0  0  0
 25 26  1  0  0  0  0
 26 17  2  0  0  0  0
 27 24  1  1  0  0  0
 27  7  1  0  0  0  0
 28 30  1  0  0  0  0
 29 30  1  0  0  0  0
M  END
>  <MODEL>
9

>  <REMARK>
 VINA RESULT:      -7.8      2.139      5.253
  Name = 
  2 active torsions:
  status: ('A' for Active; 'I' for Inactive)
    1  A    between atoms: C_11  and  C_28
    2  A    between atoms: C_28  and  O_30
                            x       y       z     vdW  Elec       q    Type
                         _______ _______ _______ _____ _____    ______ ____

>  <TORSDO>
F 2

$$$$
