=
 OpenBabel11122412223D

 34 40  0  0  1  0  0  0  0  0999 V2000
  190.4790  177.1160  142.8720 C   0  0  0  0  0  0  0  0  0  0  0  0
  192.4080  177.1170  141.1610 C   0  0  0  0  0  3  0  0  0  0  0  0
  184.7300  179.4010  144.4310 C   0  0  0  0  0  0  0  0  0  0  0  0
  188.5480  177.2310  144.3440 C   0  0  0  0  0  0  0  0  0  0  0  0
  186.3630  177.8140  143.4280 C   0  0  0  0  0  0  0  0  0  0  0  0
  184.0440  178.0330  142.4060 C   0  0  0  0  0  1  0  0  0  0  0  0
  184.0370  180.3350  143.9450 O   0  0  0  0  0  0  0  0  0  0  0  0
  186.1640  178.7580  146.3950 C   0  0  0  0  0  3  0  0  0  0  0  0
  190.2150  177.6000  140.4540 C   0  0  0  0  0  0  0  0  0  0  0  0
  189.2510  176.6410  137.7420 C   0  0  0  0  0  3  0  0  0  0  0  0
  186.9380  177.9540  142.1560 C   0  0  0  0  0  3  0  0  0  0  0  0
  186.5490  177.3940  145.8960 C   0  0  0  0  0  2  0  0  0  0  0  0
  188.9130  177.8630  140.6030 C   0  0  0  0  0  0  0  0  0  0  0  0
  192.4280  177.3840  139.6470 C   0  0  0  0  0  3  0  0  0  0  0  0
  187.1720  177.4660  144.5290 C   0  0  0  0  0  0  0  0  0  0  0  0
  185.3620  179.6160  145.7510 C   0  0  0  0  0  3  0  0  0  0  0  0
  190.5420  176.9140  138.0280 C   0  0  0  0  0  0  0  0  0  0  0  0
  189.1050  177.3530  143.0550 C   0  0  0  0  0  0  0  0  0  0  0  0
  184.9040  178.1120  143.6660 C   0  0  2  0  0  3  0  0  0  0  0  0
  188.3010  177.7200  141.9530 C   0  0  0  0  0  0  0  0  0  0  0  0
  190.7470  176.6570  145.1840 C   0  0  0  0  0  3  0  0  0  0  0  0
  188.0050  176.9430  138.5350 C   0  0  0  0  0  2  0  0  0  0  0  0
  189.3860  176.8820  145.4120 C   0  0  0  0  0  3  0  0  0  0  0  0
  188.0950  178.1910  139.3970 C   0  0  0  0  0  2  0  0  0  0  0  0
  190.9990  177.7590  139.2050 C   0  0  1  0  0  3  0  0  0  0  0  0
  191.2630  176.7770  143.9300 N   0  0  0  0  0  0  0  0  0  0  0  0
  191.0220  177.2410  141.5540 N   0  0  0  0  0  0  0  0  0  0  0  0
  191.5390  176.4870  137.1380 O   0  0  0  0  0  0  0  0  0  0  0  0
  191.5540  175.1980  136.5330 C   0  0  0  0  0  2  0  0  0  0  0  0
  194.7910  175.8620  137.2450 O   0  0  0  0  0  0  0  0  0  0  0  0
  193.5270  174.0470  137.4720 C   0  0  0  0  0  3  0  0  0  0  0  0
  192.9860  174.7630  136.2780 C   0  0  2  0  0  3  0  0  0  0  0  0
  194.5470  174.7150  137.9730 C   0  0  0  0  0  3  0  0  0  0  0  0
  193.8800  175.9950  136.1690 C   0  0  0  0  0  2  0  0  0  0  0  0
  1 18  2  0  0  0  0
  1 26  1  0  0  0  0
  2 27  1  0  0  0  0
  3 16  1  0  0  0  0
  4 15  1  0  0  0  0
  4 23  2  0  0  0  0
  5 19  1  0  0  0  0
  5 15  2  0  0  0  0
  7  3  2  0  0  0  0
  9 13  2  0  0  0  0
  9 27  1  0  0  0  0
 10 17  2  0  0  0  0
 10 22  1  0  0  0  0
 11  5  1  0  0  0  0
 12  8  1  0  0  0  0
 13 20  1  0  0  0  0
 14  2  2  0  0  0  0
 15 12  1  0  0  0  0
 16  8  2  0  0  0  0
 17 25  1  0  0  0  0
 18  4  1  0  0  0  0
 19  6  1  6  0  0  0
 19  3  1  0  0  0  0
 20 11  2  0  0  0  0
 20 18  1  0  0  0  0
 21 23  1  0  0  0  0
 22 24  1  0  0  0  0
 24 13  1  0  0  0  0
 25 14  1  1  0  0  0
 25  9  1  0  0  0  0
 26 21  2  0  0  0  0
 27  1  1  0  0  0  0
 28 17  1  0  0  0  0
 29 28  1  0  0  0  0
 30 33  1  0  0  0  0
 31 33  2  0  0  0  0
 32 29  1  1  0  0  0
 32 31  1  0  0  0  0
 34 32  1  0  0  0  0
 34 30  1  0  0  0  0
M  END
>  <MODEL>
1

>  <REMARK>
 VINA RESULT:      -9.7      0.000      0.000
  Name = 
  3 active torsions:
  status: ('A' for Active; 'I' for Inactive)
    1  A    between atoms: C_17  and  O_28
    2  A    between atoms: O_28  and  C_29
    3  A    between atoms: C_29  and  C_32
                            x       y       z     vdW  Elec       q    Type
                         _______ _______ _______ _____ _____    ______ ____

>  <TORSDO>
F 3

$$$$
=
 OpenBabel11122412223D

 34 40  0  0  1  0  0  0  0  0999 V2000
  186.5580  178.3040  146.4370 C   0  0  0  0  0  0  0  0  0  0  0  0
  184.0840  178.6430  145.7910 C   0  0  0  0  0  3  0  0  0  0  0  0
  192.0550  175.3450  145.1250 C   0  0  0  0  0  0  0  0  0  0  0  0
  188.9110  177.8710  146.8640 C   0  0  0  0  0  0  0  0  0  0  0  0
  190.3620  177.1660  145.0340 C   0  0  0  0  0  0  0  0  0  0  0  0
  191.9300  176.8180  143.0620 C   0  0  0  0  0  1  0  0  0  0  0  0
  192.3330  174.3970  144.3430 O   0  0  0  0  0  0  0  0  0  0  0  0
  191.7450  175.9440  147.5490 C   0  0  0  0  0  3  0  0  0  0  0  0
  185.6480  178.0160  144.1480 C   0  0  0  0  0  0  0  0  0  0  0  0
  185.4100  179.1180  141.3300 C   0  0  0  0  0  3  0  0  0  0  0  0
  189.2660  177.1970  144.1580 C   0  0  0  0  0  3  0  0  0  0  0  0
  191.3540  177.3780  147.3300 C   0  0  0  0  0  2  0  0  0  0  0  0
  186.8340  177.6170  143.6780 C   0  0  0  0  0  0  0  0  0  0  0  0
  183.3550  178.5160  144.4430 C   0  0  0  0  0  3  0  0  0  0  0  0
  190.1820  177.4890  146.3940 C   0  0  0  0  0  0  0  0  0  0  0  0
  192.0590  175.0740  146.5790 C   0  0  0  0  0  3  0  0  0  0  0  0
  184.3600  178.9460  142.1630 C   0  0  0  0  0  0  0  0  0  0  0  0
  187.8260  177.9200  145.9660 C   0  0  0  0  0  0  0  0  0  0  0  0
  191.7230  176.7090  144.5700 C   0  0  2  0  0  3  0  0  0  0  0  0
  187.9980  177.5790  144.6060 C   0  0  0  0  0  0  0  0  0  0  0  0
  187.4120  178.5760  148.6320 C   0  0  0  0  0  3  0  0  0  0  0  0
  186.8290  178.6280  141.4590 C   0  0  0  0  0  2  0  0  0  0  0  0
  188.6910  178.2020  148.2080 C   0  0  0  0  0  3  0  0  0  0  0  0
  186.9770  177.3230  142.2210 C   0  0  0  0  0  2  0  0  0  0  0  0
  184.3750  178.0470  143.3860 C   0  0  1  0  0  3  0  0  0  0  0  0
  186.3790  178.6200  147.7470 N   0  0  0  0  0  0  0  0  0  0  0  0
  185.4710  178.3510  145.5060 N   0  0  0  0  0  0  0  0  0  0  0  0
  183.1330  179.5460  141.8400 O   0  0  0  0  0  0  0  0  0  0  0  0
  182.1940  178.9780  140.9340 C   0  0  0  0  0  2  0  0  0  0  0  0
  179.2950  177.8630  142.2660 O   0  0  0  0  0  0  0  0  0  0  0  0
  180.6840  179.5100  142.8140 C   0  0  0  0  0  3  0  0  0  0  0  0
  180.7850  179.3810  141.3300 C   0  0  2  0  0  3  0  0  0  0  0  0
  179.8250  178.6280  143.2860 C   0  0  0  0  0  3  0  0  0  0  0  0
  179.8210  178.2420  141.0080 C   0  0  0  0  0  2  0  0  0  0  0  0
  1 26  1  0  0  0  0
  3 16  1  0  0  0  0
  4 23  2  0  0  0  0
  5 15  2  0  0  0  0
  7  3  2  0  0  0  0
  9 27  1  0  0  0  0
 10 22  1  0  0  0  0
 10 17  2  0  0  0  0
 11 20  2  0  0  0  0
 11  5  1  0  0  0  0
 12  8  1  0  0  0  0
 13  9  2  0  0  0  0
 13 20  1  0  0  0  0
 14  2  2  0  0  0  0
 15  4  1  0  0  0  0
 15 12  1  0  0  0  0
 16  8  2  0  0  0  0
 17 25  1  0  0  0  0
 18  1  2  0  0  0  0
 18  4  1  0  0  0  0
 19  6  1  6  0  0  0
 19  5  1  0  0  0  0
 19  3  1  0  0  0  0
 20 18  1  0  0  0  0
 22 24  1  0  0  0  0
 23 21  1  0  0  0  0
 24 13  1  0  0  0  0
 25  9  1  0  0  0  0
 25 14  1  1  0  0  0
 26 21  2  0  0  0  0
 27  2  1  0  0  0  0
 27  1  1  0  0  0  0
 28 17  1  0  0  0  0
 29 28  1  0  0  0  0
 30 33  1  0  0  0  0
 31 33  2  0  0  0  0
 32 29  1  1  0  0  0
 32 31  1  0  0  0  0
 34 32  1  0  0  0  0
 34 30  1  0  0  0  0
M  END
>  <MODEL>
2

>  <REMARK>
 VINA RESULT:      -9.7      4.096      8.515
  Name = 
  3 active torsions:
  status: ('A' for Active; 'I' for Inactive)
    1  A    between atoms: C_17  and  O_28
    2  A    between atoms: O_28  and  C_29
    3  A    between atoms: C_29  and  C_32
                            x       y       z     vdW  Elec       q    Type
                         _______ _______ _______ _____ _____    ______ ____

>  <TORSDO>
F 3

$$$$
=
 OpenBabel11122412223D

 34 40  0  0  1  0  0  0  0  0999 V2000
  189.6370  177.1940  142.1500 C   0  0  0  0  0  0  0  0  0  0  0  0
  190.0760  177.6200  139.6440 C   0  0  0  0  0  3  0  0  0  0  0  0
  186.5320  179.0360  147.4090 C   0  0  0  0  0  0  0  0  0  0  0  0
  189.0690  176.9420  144.4990 C   0  0  0  0  0  0  0  0  0  0  0  0
  186.9150  177.7480  145.3160 C   0  0  0  0  0  0  0  0  0  0  0  0
  184.5340  178.2290  146.0680 C   0  0  0  0  0  1  0  0  0  0  0  0
  185.8520  180.0650  147.6660 O   0  0  0  0  0  0  0  0  0  0  0  0
  188.7390  177.9090  147.8420 C   0  0  0  0  0  3  0  0  0  0  0  0
  188.0290  178.2770  140.6030 C   0  0  0  0  0  0  0  0  0  0  0  0
  185.4610  178.0420  139.0030 C   0  0  0  0  0  3  0  0  0  0  0  0
  186.6010  178.2030  144.0260 C   0  0  0  0  0  3  0  0  0  0  0  0
  188.5050  176.7150  146.9610 C   0  0  0  0  0  2  0  0  0  0  0  0
  187.1580  178.5000  141.5930 C   0  0  0  0  0  0  0  0  0  0  0  0
  189.2060  178.2630  138.5510 C   0  0  0  0  0  3  0  0  0  0  0  0
  188.1590  177.1280  145.5580 C   0  0  0  0  0  0  0  0  0  0  0  0
  187.8650  178.9070  148.0360 C   0  0  0  0  0  3  0  0  0  0  0  0
  186.6790  178.2270  138.4490 C   0  0  0  0  0  0  0  0  0  0  0  0
  188.7280  177.3840  143.2050 C   0  0  0  0  0  0  0  0  0  0  0  0
  185.9840  177.9820  146.4780 C   0  0  2  0  0  3  0  0  0  0  0  0
  187.4910  178.0220  142.9630 C   0  0  0  0  0  0  0  0  0  0  0  0
  191.1870  176.1630  143.6190 C   0  0  0  0  0  3  0  0  0  0  0  0
  185.0360  178.1380  140.4460 C   0  0  0  0  0  2  0  0  0  0  0  0
  190.3140  176.3290  144.6980 C   0  0  0  0  0  3  0  0  0  0  0  0
  185.8400  179.1260  141.2740 C   0  0  0  0  0  2  0  0  0  0  0  0
  187.8930  178.7440  139.2010 C   0  0  1  0  0  3  0  0  0  0  0  0
  190.8360  176.5950  142.3770 N   0  0  0  0  0  0  0  0  0  0  0  0
  189.2680  177.6470  140.8430 N   0  0  0  0  0  0  0  0  0  0  0  0
  186.8320  178.0340  137.0680 O   0  0  0  0  0  0  0  0  0  0  0  0
  185.9930  177.1840  136.2940 C   0  0  0  0  0  2  0  0  0  0  0  0
  189.0790  175.8130  136.1450 O   0  0  0  0  0  0  0  0  0  0  0  0
  187.0850  175.0070  136.7070 C   0  0  0  0  0  3  0  0  0  0  0  0
  186.8150  176.0620  135.6850 C   0  0  2  0  0  3  0  0  0  0  0  0
  188.3820  174.9110  136.9230 C   0  0  0  0  0  3  0  0  0  0  0  0
  188.2060  176.5820  135.3370 C   0  0  0  0  0  2  0  0  0  0  0  0
  1 26  2  0  0  0  0
  1 18  1  0  0  0  0
  2 27  1  0  0  0  0
  3  7  2  0  0  0  0
  3 16  1  0  0  0  0
  4 23  1  0  0  0  0
  4 15  1  0  0  0  0
  5 15  2  0  0  0  0
  5 19  1  0  0  0  0
  8 16  2  0  0  0  0
  9 27  1  0  0  0  0
  9 13  2  0  0  0  0
 10 22  1  0  0  0  0
 11  5  1  0  0  0  0
 12  8  1  0  0  0  0
 13 20  1  0  0  0  0
 14  2  2  0  0  0  0
 15 12  1  0  0  0  0
 17 10  2  0  0  0  0
 17 25  1  0  0  0  0
 18  4  2  0  0  0  0
 19  6  1  6  0  0  0
 19  3  1  0  0  0  0
 20 18  1  0  0  0  0
 20 11  2  0  0  0  0
 21 23  2  0  0  0  0
 22 24  1  0  0  0  0
 24 13  1  0  0  0  0
 25 14  1  6  0  0  0
 25  9  1  0  0  0  0
 26 21  1  0  0  0  0
 27  1  1  0  0  0  0
 28 17  1  0  0  0  0
 29 28  1  0  0  0  0
 30 33  1  0  0  0  0
 31 33  2  0  0  0  0
 32 29  1  1  0  0  0
 32 31  1  0  0  0  0
 34 32  1  0  0  0  0
 34 30  1  0  0  0  0
M  END
>  <MODEL>
3

>  <REMARK>
 VINA RESULT:      -9.7      2.610      3.642
  Name = 
  3 active torsions:
  status: ('A' for Active; 'I' for Inactive)
    1  A    between atoms: C_17  and  O_28
    2  A    between atoms: O_28  and  C_29
    3  A    between atoms: C_29  and  C_32
                            x       y       z     vdW  Elec       q    Type
                         _______ _______ _______ _____ _____    ______ ____

>  <TORSDO>
F 3

$$$$
=
 OpenBabel11122412223D

 34 40  0  0  1  0  0  0  0  0999 V2000
  186.5080  178.3150  146.2270 C   0  0  0  0  0  0  0  0  0  0  0  0
  184.0760  178.6640  145.4420 C   0  0  0  0  0  3  0  0  0  0  0  0
  192.0570  175.3280  145.2340 C   0  0  0  0  0  0  0  0  0  0  0  0
  188.8310  177.8720  146.7880 C   0  0  0  0  0  0  0  0  0  0  0  0
  190.3800  177.1560  145.0440 C   0  0  0  0  0  0  0  0  0  0  0  0
  192.0550  176.7970  143.1640 C   0  0  0  0  0  1  0  0  0  0  0  0
  192.3740  174.3770  144.4710 O   0  0  0  0  0  0  0  0  0  0  0  0
  191.6130  175.9320  147.6350 C   0  0  0  0  0  3  0  0  0  0  0  0
  185.7280  178.0270  143.8910 C   0  0  0  0  0  0  0  0  0  0  0  0
  185.6550  179.1250  141.0620 C   0  0  0  0  0  3  0  0  0  0  0  0
  189.3350  177.1900  144.1070 C   0  0  0  0  0  3  0  0  0  0  0  0
  191.2410  177.3670  147.3920 C   0  0  0  0  0  2  0  0  0  0  0  0
  186.9370  177.6210  143.4890 C   0  0  0  0  0  0  0  0  0  0  0  0
  183.4240  178.5380  144.0550 C   0  0  0  0  0  3  0  0  0  0  0  0
  190.1250  177.4830  146.3910 C   0  0  0  0  0  0  0  0  0  0  0  0
  191.9770  175.0590  146.6860 C   0  0  0  0  0  3  0  0  0  0  0  0
  184.5590  178.9600  141.8340 C   0  0  0  0  0  0  0  0  0  0  0  0
  187.7980  177.9240  145.8300 C   0  0  0  0  0  0  0  0  0  0  0  0
  191.7620  176.6920  144.6590 C   0  0  2  0  0  3  0  0  0  0  0  0
  188.0460  177.5790  144.4820 C   0  0  0  0  0  0  0  0  0  0  0  0
  187.2380  178.5870  148.4670 C   0  0  0  0  0  3  0  0  0  0  0  0
  187.0620  178.6280  141.2720 C   0  0  0  0  0  2  0  0  0  0  0  0
  188.5370  178.2060  148.1170 C   0  0  0  0  0  3  0  0  0  0  0  0
  187.1610  177.3230  142.0430 C   0  0  0  0  0  2  0  0  0  0  0  0
  184.5000  178.0620  143.0580 C   0  0  1  0  0  3  0  0  0  0  0  0
  186.2570  178.6340  147.5240 N   0  0  0  0  0  0  0  0  0  0  0  0
  185.4760  178.3650  145.2360 N   0  0  0  0  0  0  0  0  0  0  0  0
  183.3550  179.5650  141.4420 O   0  0  0  0  0  0  0  0  0  0  0  0
  182.4750  179.0080  140.4710 C   0  0  0  0  0  2  0  0  0  0  0  0
  181.6460  178.8960  137.1960 O   0  0  0  0  0  0  0  0  0  0  0  0
  181.7420  180.5460  138.6830 C   0  0  0  0  0  3  0  0  0  0  0  0
  182.7960  179.5730  139.0990 C   0  0  2  0  0  3  0  0  0  0  0  0
  181.1290  180.1100  137.6000 C   0  0  0  0  0  3  0  0  0  0  0  0
  182.6870  178.4650  138.0550 C   0  0  0  0  0  2  0  0  0  0  0  0
  1 26  1  0  0  0  0
  3 16  1  0  0  0  0
  4 23  2  0  0  0  0
  5 15  2  0  0  0  0
  7  3  2  0  0  0  0
  9 27  1  0  0  0  0
 10 22  1  0  0  0  0
 10 17  2  0  0  0  0
 11 20  2  0  0  0  0
 11  5  1  0  0  0  0
 12  8  1  0  0  0  0
 13  9  2  0  0  0  0
 13 20  1  0  0  0  0
 14  2  2  0  0  0  0
 15  4  1  0  0  0  0
 15 12  1  0  0  0  0
 16  8  2  0  0  0  0
 17 25  1  0  0  0  0
 18  1  2  0  0  0  0
 18  4  1  0  0  0  0
 19  6  1  6  0  0  0
 19  5  1  0  0  0  0
 19  3  1  0  0  0  0
 20 18  1  0  0  0  0
 22 24  1  0  0  0  0
 23 21  1  0  0  0  0
 24 13  1  0  0  0  0
 25  9  1  0  0  0  0
 25 14  1  1  0  0  0
 26 21  2  0  0  0  0
 27  2  1  0  0  0  0
 27  1  1  0  0  0  0
 28 17  1  0  0  0  0
 29 28  1  0  0  0  0
 30 33  1  0  0  0  0
 30 34  1  0  0  0  0
 31 32  1  0  0  0  0
 32 29  1  1  0  0  0
 33 31  2  0  0  0  0
 34 32  1  0  0  0  0
M  END
>  <MODEL>
4

>  <REMARK>
 VINA RESULT:      -9.3      4.098      7.834
  Name = 
  3 active torsions:
  status: ('A' for Active; 'I' for Inactive)
    1  A    between atoms: C_17  and  O_28
    2  A    between atoms: O_28  and  C_29
    3  A    between atoms: C_29  and  C_32
                            x       y       z     vdW  Elec       q    Type
                         _______ _______ _______ _____ _____    ______ ____

>  <TORSDO>
F 3

$$$$
=
 OpenBabel11122412223D

 34 40  0  0  1  0  0  0  0  0999 V2000
  186.3120  178.3100  141.2790 C   0  0  0  0  0  0  0  0  0  0  0  0
  188.5430  177.5900  142.3540 C   0  0  0  0  0  3  0  0  0  0  0  0
  179.9430  178.0240  141.5090 C   0  0  0  0  0  0  0  0  0  0  0  0
  184.1110  178.9030  140.4360 C   0  0  0  0  0  0  0  0  0  0  0  0
  182.2060  178.9540  141.9600 C   0  0  0  0  0  0  0  0  0  0  0  0
  180.3250  179.3830  143.6180 C   0  0  0  0  0  1  0  0  0  0  0  0
  179.1580  177.3160  142.1940 O   0  0  0  0  0  0  0  0  0  0  0  0
  180.8900  178.3390  139.1990 C   0  0  0  0  0  3  0  0  0  0  0  0
  186.6040  177.7530  143.6770 C   0  0  0  0  0  0  0  0  0  0  0  0
  186.7990  178.7580  146.5340 C   0  0  0  0  0  3  0  0  0  0  0  0
  183.0420  178.5500  143.0130 C   0  0  0  0  0  3  0  0  0  0  0  0
  181.8100  179.4780  139.5370 C   0  0  0  0  0  2  0  0  0  0  0  0
  185.2990  177.9150  143.9200 C   0  0  0  0  0  0  0  0  0  0  0  0
  188.9050  177.2180  143.8010 C   0  0  0  0  0  3  0  0  0  0  0  0
  182.7380  179.1170  140.6650 C   0  0  0  0  0  0  0  0  0  0  0  0
  180.0740  177.7240  140.0660 C   0  0  0  0  0  3  0  0  0  0  0  0
  187.8020  178.1240  145.8890 C   0  0  0  0  0  0  0  0  0  0  0  0
  184.9410  178.5210  141.5090 C   0  0  0  0  0  0  0  0  0  0  0  0
  180.7230  179.1370  142.1640 C   0  0  2  0  0  3  0  0  0  0  0  0
  184.4080  178.3390  142.8040 C   0  0  0  0  0  0  0  0  0  0  0  0
  186.0470  178.8350  138.9810 C   0  0  0  0  0  3  0  0  0  0  0  0
  185.3510  178.9130  146.1440 C   0  0  0  0  0  2  0  0  0  0  0  0
  184.6790  179.0570  139.1630 C   0  0  0  0  0  3  0  0  0  0  0  0
  184.7960  177.7660  145.3180 C   0  0  0  0  0  2  0  0  0  0  0  0
  187.6170  177.2690  144.6480 C   0  0  1  0  0  3  0  0  0  0  0  0
  186.8300  178.4690  140.0320 N   0  0  0  0  0  0  0  0  0  0  0  0
  187.1370  177.9270  142.3840 N   0  0  0  0  0  0  0  0  0  0  0  0
  189.0910  178.1570  146.4410 O   0  0  0  0  0  0  0  0  0  0  0  0
  189.6150  177.1330  147.2800 C   0  0  0  0  0  2  0  0  0  0  0  0
  192.1850  175.0930  146.4670 O   0  0  0  0  0  0  0  0  0  0  0  0
  191.4880  177.0490  145.6730 C   0  0  0  0  0  3  0  0  0  0  0  0
  191.1220  177.0540  147.1210 C   0  0  2  0  0  3  0  0  0  0  0  0
  192.0870  175.9160  145.3630 C   0  0  0  0  0  3  0  0  0  0  0  0
  191.6160  175.6970  147.6140 C   0  0  0  0  0  2  0  0  0  0  0  0
  1 18  1  0  0  0  0
  1 27  1  0  0  0  0
  2 27  1  0  0  0  0
  2 14  2  0  0  0  0
  3 19  1  0  0  0  0
  3  7  2  0  0  0  0
  4 15  2  0  0  0  0
  4 18  1  0  0  0  0
  5 19  1  0  0  0  0
  5 11  2  0  0  0  0
  8 12  1  0  0  0  0
  8 16  2  0  0  0  0
  9 13  2  0  0  0  0
  9 25  1  0  0  0  0
 12 15  1  0  0  0  0
 13 24  1  0  0  0  0
 15  5  1  0  0  0  0
 16  3  1  0  0  0  0
 17 28  1  0  0  0  0
 17 10  2  0  0  0  0
 18 20  2  0  0  0  0
 19  6  1  1  0  0  0
 20 11  1  0  0  0  0
 20 13  1  0  0  0  0
 21 23  2  0  0  0  0
 21 26  1  0  0  0  0
 22 10  1  0  0  0  0
 23  4  1  0  0  0  0
 24 22  1  0  0  0  0
 25 14  1  6  0  0  0
 25 17  1  0  0  0  0
 26  1  2  0  0  0  0
 27  9  1  0  0  0  0
 28 29  1  0  0  0  0
 30 34  1  0  0  0  0
 31 32  1  0  0  0  0
 32 29  1  6  0  0  0
 32 34  1  0  0  0  0
 33 31  2  0  0  0  0
 33 30  1  0  0  0  0
M  END
>  <MODEL>
5

>  <REMARK>
 VINA RESULT:      -9.1      4.519      7.273
  Name = 
  3 active torsions:
  status: ('A' for Active; 'I' for Inactive)
    1  A    between atoms: C_17  and  O_28
    2  A    between atoms: O_28  and  C_29
    3  A    between atoms: C_29  and  C_32
                            x       y       z     vdW  Elec       q    Type
                         _______ _______ _______ _____ _____    ______ ____

>  <TORSDO>
F 3

$$$$
=
 OpenBabel11122412223D

 34 40  0  0  1  0  0  0  0  0999 V2000
  183.7970  178.6820  144.0140 C   0  0  0  0  0  0  0  0  0  0  0  0
  181.2950  178.8120  143.4060 C   0  0  0  0  0  3  0  0  0  0  0  0
  189.5930  176.6100  142.3370 C   0  0  0  0  0  0  0  0  0  0  0  0
  186.1900  178.4760  144.3930 C   0  0  0  0  0  0  0  0  0  0  0  0
  187.6960  178.2110  142.4910 C   0  0  0  0  0  0  0  0  0  0  0  0
  189.2740  178.3320  140.5000 C   0  0  0  0  0  1  0  0  0  0  0  0
  189.9740  175.8210  141.4320 O   0  0  0  0  0  0  0  0  0  0  0  0
  189.2390  176.8210  144.8180 C   0  0  0  0  0  3  0  0  0  0  0  0
  182.9060  178.6130  141.7020 C   0  0  0  0  0  0  0  0  0  0  0  0
  182.5100  180.0630  139.0660 C   0  0  0  0  0  3  0  0  0  0  0  0
  186.5950  178.2350  141.6210 C   0  0  0  0  0  3  0  0  0  0  0  0
  188.6790  178.2150  144.8010 C   0  0  0  0  0  2  0  0  0  0  0  0
  184.1260  178.4270  141.1880 C   0  0  0  0  0  0  0  0  0  0  0  0
  180.5720  178.7900  142.0490 C   0  0  0  0  0  3  0  0  0  0  0  0
  187.4930  178.3170  143.8820 C   0  0  0  0  0  0  0  0  0  0  0  0
  189.6440  176.1390  143.7380 C   0  0  0  0  0  3  0  0  0  0  0  0
  181.4970  179.6530  139.8580 C   0  0  0  0  0  0  0  0  0  0  0  0
  185.0970  178.5210  143.5030 C   0  0  0  0  0  0  0  0  0  0  0  0
  189.0960  177.9890  141.9770 C   0  0  2  0  0  3  0  0  0  0  0  0
  185.2950  178.3970  142.1100 C   0  0  0  0  0  0  0  0  0  0  0  0
  184.6360  178.7430  146.2320 C   0  0  0  0  0  3  0  0  0  0  0  0
  183.9790  179.7320  139.1330 C   0  0  0  0  0  2  0  0  0  0  0  0
  185.9450  178.5860  145.7680 C   0  0  0  0  0  3  0  0  0  0  0  0
  184.2880  178.3590  139.7050 C   0  0  0  0  0  2  0  0  0  0  0  0
  181.6300  178.5990  140.9430 C   0  0  1  0  0  3  0  0  0  0  0  0
  183.5960  178.7880  145.3550 N   0  0  0  0  0  0  0  0  0  0  0  0
  182.7040  178.7300  143.0920 N   0  0  0  0  0  0  0  0  0  0  0  0
  180.2050  180.1430  139.6150 O   0  0  0  0  0  0  0  0  0  0  0  0
  179.8750  181.5270  139.6160 C   0  0  0  0  0  2  0  0  0  0  0  0
  180.6280  182.4440  136.4500 O   0  0  0  0  0  0  0  0  0  0  0  0
  179.4140  180.7890  137.3040 C   0  0  0  0  0  3  0  0  0  0  0  0
  179.2850  181.9190  138.2730 C   0  0  2  0  0  3  0  0  0  0  0  0
  180.1830  181.1470  136.2940 C   0  0  0  0  0  3  0  0  0  0  0  0
  180.1340  183.0210  137.6460 C   0  0  0  0  0  2  0  0  0  0  0  0
  1 26  1  0  0  0  0
  3 16  1  0  0  0  0
  4 23  2  0  0  0  0
  5 15  2  0  0  0  0
  7  3  2  0  0  0  0
  9 27  1  0  0  0  0
 10 22  1  0  0  0  0
 10 17  2  0  0  0  0
 11 20  2  0  0  0  0
 11  5  1  0  0  0  0
 12  8  1  0  0  0  0
 13  9  2  0  0  0  0
 13 20  1  0  0  0  0
 14  2  2  0  0  0  0
 15  4  1  0  0  0  0
 15 12  1  0  0  0  0
 16  8  2  0  0  0  0
 17 25  1  0  0  0  0
 18  1  2  0  0  0  0
 18  4  1  0  0  0  0
 19  6  1  6  0  0  0
 19  3  1  0  0  0  0
 19  5  1  0  0  0  0
 20 18  1  0  0  0  0
 22 24  1  0  0  0  0
 23 21  1  0  0  0  0
 24 13  1  0  0  0  0
 25  9  1  0  0  0  0
 25 14  1  1  0  0  0
 26 21  2  0  0  0  0
 27  2  1  0  0  0  0
 27  1  1  0  0  0  0
 28 29  1  0  0  0  0
 28 17  1  0  0  0  0
 30 34  1  0  0  0  0
 31 32  1  0  0  0  0
 32 29  1  1  0  0  0
 33 30  1  0  0  0  0
 33 31  2  0  0  0  0
 34 32  1  0  0  0  0
M  END
>  <MODEL>
6

>  <REMARK>
 VINA RESULT:      -8.7      4.344      8.891
  Name = 
  3 active torsions:
  status: ('A' for Active; 'I' for Inactive)
    1  A    between atoms: C_17  and  O_28
    2  A    between atoms: O_28  and  C_29
    3  A    between atoms: C_29  and  C_32
                            x       y       z     vdW  Elec       q    Type
                         _______ _______ _______ _____ _____    ______ ____

>  <TORSDO>
F 3

$$$$
=
 OpenBabel11122412223D

 34 40  0  0  1  0  0  0  0  0999 V2000
  188.4630  177.0040  138.6790 C   0  0  0  0  0  0  0  0  0  0  0  0
  187.0930  178.3090  140.4320 C   0  0  0  0  0  3  0  0  0  0  0  0
  194.2300  175.8160  136.2240 C   0  0  0  0  0  0  0  0  0  0  0  0
  189.9310  175.8490  137.1240 C   0  0  0  0  0  0  0  0  0  0  0  0
  192.2690  175.4780  137.7170 C   0  0  0  0  0  0  0  0  0  0  0  0
  194.5770  174.7570  138.5040 C   0  0  0  0  0  1  0  0  0  0  0  0
  195.3470  176.3740  136.3930 O   0  0  0  0  0  0  0  0  0  0  0  0
  192.3290  175.5460  134.5990 C   0  0  0  0  0  3  0  0  0  0  0  0
  189.3540  177.8050  140.8510 C   0  0  0  0  0  0  0  0  0  0  0  0
  190.2550  177.1060  143.6630 C   0  0  0  0  0  3  0  0  0  0  0  0
  192.0630  176.1490  138.9330 C   0  0  0  0  0  3  0  0  0  0  0  0
  191.4660  174.6840  135.4750 C   0  0  0  0  0  2  0  0  0  0  0  0
  190.5820  177.3640  140.5610 C   0  0  0  0  0  0  0  0  0  0  0  0
  187.4730  178.8700  141.8120 C   0  0  0  0  0  3  0  0  0  0  0  0
  191.2040  175.3400  136.8030 C   0  0  0  0  0  0  0  0  0  0  0  0
  193.5360  176.0220  134.9340 C   0  0  0  0  0  3  0  0  0  0  0  0
  189.2000  177.9020  143.3870 C   0  0  0  0  0  0  0  0  0  0  0  0
  189.7360  176.4990  138.3590 C   0  0  0  0  0  0  0  0  0  0  0  0
  193.6340  174.9710  137.3230 C   0  0  2  0  0  3  0  0  0  0  0  0
  190.8050  176.6560  139.2700 C   0  0  0  0  0  0  0  0  0  0  0  0
  187.5990  176.2500  136.6030 C   0  0  0  0  0  3  0  0  0  0  0  0
  191.3340  176.5870  142.7470 C   0  0  0  0  0  2  0  0  0  0  0  0
  188.8470  175.7310  136.2440 C   0  0  0  0  0  3  0  0  0  0  0  0
  191.6640  177.5030  141.5810 C   0  0  0  0  0  2  0  0  0  0  0  0
  188.9700  178.5880  142.0510 C   0  0  1  0  0  3  0  0  0  0  0  0
  187.4330  176.8710  137.8030 N   0  0  0  0  0  0  0  0  0  0  0  0
  188.2870  177.6570  139.9410 N   0  0  0  0  0  0  0  0  0  0  0  0
  188.2990  178.2150  144.4150 O   0  0  0  0  0  0  0  0  0  0  0  0
  188.1290  177.4170  145.5820 C   0  0  0  0  0  2  0  0  0  0  0  0
  185.5580  179.4390  146.4370 O   0  0  0  0  0  0  0  0  0  0  0  0
  185.8030  177.8680  144.8830 C   0  0  0  0  0  3  0  0  0  0  0  0
  186.6750  177.4440  146.0190 C   0  0  2  0  0  3  0  0  0  0  0  0
  185.1960  179.0000  145.1790 C   0  0  0  0  0  3  0  0  0  0  0  0
  186.4750  178.5510  147.0500 C   0  0  0  0  0  2  0  0  0  0  0  0
  1 27  1  0  0  0  0
  2 14  2  0  0  0  0
  3  7  2  0  0  0  0
  3 19  1  0  0  0  0
  4 18  1  0  0  0  0
  5 11  2  0  0  0  0
  8 16  2  0  0  0  0
  8 12  1  0  0  0  0
  9 25  1  0  0  0  0
 11 20  1  0  0  0  0
 12 15  1  0  0  0  0
 13  9  2  0  0  0  0
 13 24  1  0  0  0  0
 15  4  2  0  0  0  0
 15  5  1  0  0  0  0
 16  3  1  0  0  0  0
 17 10  2  0  0  0  0
 17 28  1  0  0  0  0
 18  1  1  0  0  0  0
 18 20  2  0  0  0  0
 19  5  1  0  0  0  0
 19  6  1  1  0  0  0
 20 13  1  0  0  0  0
 21 26  1  0  0  0  0
 22 10  1  0  0  0  0
 23 21  2  0  0  0  0
 23  4  1  0  0  0  0
 24 22  1  0  0  0  0
 25 14  1  6  0  0  0
 25 17  1  0  0  0  0
 26  1  2  0  0  0  0
 27  2  1  0  0  0  0
 27  9  1  0  0  0  0
 28 29  1  0  0  0  0
 30 34  1  0  0  0  0
 31 33  2  0  0  0  0
 31 32  1  0  0  0  0
 32 29  1  6  0  0  0
 32 34  1  0  0  0  0
 33 30  1  0  0  0  0
M  END
>  <MODEL>
7

>  <REMARK>
 VINA RESULT:      -8.6      1.777      9.153
  Name = 
  3 active torsions:
  status: ('A' for Active; 'I' for Inactive)
    1  A    between atoms: C_17  and  O_28
    2  A    between atoms: O_28  and  C_29
    3  A    between atoms: C_29  and  C_32
                            x       y       z     vdW  Elec       q    Type
                         _______ _______ _______ _____ _____    ______ ____

>  <TORSDO>
F 3

$$$$
=
 OpenBabel11122412223D

 34 40  0  0  1  0  0  0  0  0999 V2000
  191.1790  176.7450  143.9030 C   0  0  0  0  0  0  0  0  0  0  0  0
  192.5610  176.9130  141.7320 C   0  0  0  0  0  3  0  0  0  0  0  0
  186.3730  179.1170  147.3640 C   0  0  0  0  0  0  0  0  0  0  0  0
  189.7450  176.7340  145.8650 C   0  0  0  0  0  0  0  0  0  0  0  0
  187.4770  177.6220  145.7100 C   0  0  0  0  0  0  0  0  0  0  0  0
  185.0110  178.1800  145.4380 C   0  0  0  0  0  1  0  0  0  0  0  0
  185.6890  180.1680  147.2420 O   0  0  0  0  0  0  0  0  0  0  0  0
  188.1990  178.0370  148.7170 C   0  0  0  0  0  3  0  0  0  0  0  0
  190.3310  177.6670  141.7630 C   0  0  0  0  0  0  0  0  0  0  0  0
  188.5650  177.2740  139.3270 C   0  0  0  0  0  3  0  0  0  0  0  0
  187.7000  177.9440  144.3620 C   0  0  0  0  0  3  0  0  0  0  0  0
  188.2720  176.7590  147.9300 C   0  0  0  0  0  2  0  0  0  0  0  0
  189.1580  177.9910  142.3150 C   0  0  0  0  0  0  0  0  0  0  0  0
  192.2030  177.4430  140.3340 C   0  0  0  0  0  3  0  0  0  0  0  0
  188.5070  177.0280  146.4690 C   0  0  0  0  0  0  0  0  0  0  0  0
  187.3580  179.0500  148.4650 C   0  0  0  0  0  3  0  0  0  0  0  0
  189.9090  177.4000  139.2700 C   0  0  0  0  0  0  0  0  0  0  0  0
  189.9440  177.0420  144.5040 C   0  0  0  0  0  0  0  0  0  0  0  0
  186.1810  177.9750  146.3960 C   0  0  2  0  0  3  0  0  0  0  0  0
  188.9200  177.6540  143.7460 C   0  0  0  0  0  0  0  0  0  0  0  0
  192.0060  175.8670  145.9450 C   0  0  0  0  0  3  0  0  0  0  0  0
  187.6240  177.5180  140.4790 C   0  0  0  0  0  2  0  0  0  0  0  0
  190.7930  176.1420  146.5840 C   0  0  0  0  0  3  0  0  0  0  0  0
  188.0890  178.5830  141.4560 C   0  0  0  0  0  2  0  0  0  0  0  0
  190.7620  177.9890  140.3800 C   0  0  1  0  0  3  0  0  0  0  0  0
  192.1740  176.1700  144.6290 N   0  0  0  0  0  0  0  0  0  0  0  0
  191.3570  177.0640  142.5190 N   0  0  0  0  0  0  0  0  0  0  0  0
  190.5720  177.0680  138.0790 O   0  0  0  0  0  0  0  0  0  0  0  0
  190.4470  175.8050  137.4350 C   0  0  0  0  0  2  0  0  0  0  0  0
  193.7930  176.2810  137.4870 O   0  0  0  0  0  0  0  0  0  0  0  0
  192.5150  174.4650  137.5910 C   0  0  0  0  0  3  0  0  0  0  0  0
  191.7540  175.4400  136.7550 C   0  0  2  0  0  3  0  0  0  0  0  0
  193.6600  174.9960  137.9730 C   0  0  0  0  0  3  0  0  0  0  0  0
  192.6670  176.6620  136.7180 C   0  0  0  0  0  2  0  0  0  0  0  0
  1 18  2  0  0  0  0
  1 26  1  0  0  0  0
  2 27  1  0  0  0  0
  3 16  1  0  0  0  0
  4 15  1  0  0  0  0
  4 23  2  0  0  0  0
  5 19  1  0  0  0  0
  5 15  2  0  0  0  0
  7  3  2  0  0  0  0
  9 13  2  0  0  0  0
  9 27  1  0  0  0  0
 10 22  1  0  0  0  0
 11  5  1  0  0  0  0
 12  8  1  0  0  0  0
 13 20  1  0  0  0  0
 14  2  2  0  0  0  0
 15 12  1  0  0  0  0
 16  8  2  0  0  0  0
 17 10  2  0  0  0  0
 17 25  1  0  0  0  0
 18  4  1  0  0  0  0
 19  6  1  6  0  0  0
 19  3  1  0  0  0  0
 20 11  2  0  0  0  0
 20 18  1  0  0  0  0
 21 23  1  0  0  0  0
 22 24  1  0  0  0  0
 24 13  1  0  0  0  0
 25 14  1  6  0  0  0
 25  9  1  0  0  0  0
 26 21  2  0  0  0  0
 27  1  1  0  0  0  0
 28 17  1  0  0  0  0
 29 28  1  0  0  0  0
 30 33  1  0  0  0  0
 31 33  2  0  0  0  0
 32 29  1  1  0  0  0
 32 31  1  0  0  0  0
 34 32  1  0  0  0  0
 34 30  1  0  0  0  0
M  END
>  <MODEL>
8

>  <REMARK>
 VINA RESULT:      -8.2      1.480      2.075
  Name = 
  3 active torsions:
  status: ('A' for Active; 'I' for Inactive)
    1  A    between atoms: C_17  and  O_28
    2  A    between atoms: O_28  and  C_29
    3  A    between atoms: C_29  and  C_32
                            x       y       z     vdW  Elec       q    Type
                         _______ _______ _______ _____ _____    ______ ____

>  <TORSDO>
F 3

$$$$
=
 OpenBabel11122412223D

 34 40  0  0  1  0  0  0  0  0999 V2000
  191.0420  176.7770  143.7420 C   0  0  0  0  0  0  0  0  0  0  0  0
  192.3390  176.9630  141.5210 C   0  0  0  0  0  3  0  0  0  0  0  0
  186.3700  179.1150  147.4030 C   0  0  0  0  0  0  0  0  0  0  0  0
  189.6840  176.7490  145.7580 C   0  0  0  0  0  0  0  0  0  0  0  0
  187.4110  177.6340  145.6970 C   0  0  0  0  0  0  0  0  0  0  0  0
  184.9360  178.1910  145.5250 C   0  0  0  0  0  1  0  0  0  0  0  0
  185.6800  180.1660  147.3160 O   0  0  0  0  0  0  0  0  0  0  0  0
  188.2480  178.0280  148.6760 C   0  0  0  0  0  3  0  0  0  0  0  0
  190.1110  177.7130  141.6430 C   0  0  0  0  0  0  0  0  0  0  0  0
  188.2530  177.3350  139.2740 C   0  0  0  0  0  3  0  0  0  0  0  0
  187.5810  177.9670  144.3440 C   0  0  0  0  0  3  0  0  0  0  0  0
  188.2930  176.7570  147.8780 C   0  0  0  0  0  2  0  0  0  0  0  0
  188.9590  178.0310  142.2420 C   0  0  0  0  0  0  0  0  0  0  0  0
  191.9260  177.5030  140.1410 C   0  0  0  0  0  3  0  0  0  0  0  0
  188.4700  177.0370  146.4110 C   0  0  0  0  0  0  0  0  0  0  0  0
  187.3970  179.0420  148.4650 C   0  0  0  0  0  3  0  0  0  0  0  0
  189.5930  177.4640  139.1660 C   0  0  0  0  0  0  0  0  0  0  0  0
  189.8300  177.0680  144.3930 C   0  0  0  0  0  0  0  0  0  0  0  0
  186.1430  177.9800  146.4350 C   0  0  2  0  0  3  0  0  0  0  0  0
  188.7780  177.6830  143.6790 C   0  0  0  0  0  0  0  0  0  0  0  0
  191.9480  175.8850  145.7440 C   0  0  0  0  0  3  0  0  0  0  0  0
  187.3570  177.5690  140.4630 C   0  0  0  0  0  2  0  0  0  0  0  0
  190.7600  176.1540  146.4310 C   0  0  0  0  0  3  0  0  0  0  0  0
  187.8570  178.6280  141.4300 C   0  0  0  0  0  2  0  0  0  0  0  0
  190.4870  178.0460  140.2470 C   0  0  1  0  0  3  0  0  0  0  0  0
  192.0650  176.1980  144.4250 N   0  0  0  0  0  0  0  0  0  0  0  0
  191.1660  177.1060  142.3550 N   0  0  0  0  0  0  0  0  0  0  0  0
  190.2090  177.1420  137.9480 O   0  0  0  0  0  0  0  0  0  0  0  0
  190.2520  175.8240  137.4130 C   0  0  0  0  0  2  0  0  0  0  0  0
  187.3450  176.4670  135.8120 O   0  0  0  0  0  0  0  0  0  0  0  0
  189.4310  177.1730  135.5140 C   0  0  0  0  0  3  0  0  0  0  0  0
  189.5540  175.7900  136.0650 C   0  0  2  0  0  3  0  0  0  0  0  0
  188.1600  177.4980  135.3910 C   0  0  0  0  0  3  0  0  0  0  0  0
  188.1030  175.3560  136.2540 C   0  0  0  0  0  2  0  0  0  0  0  0
  1 18  2  0  0  0  0
  1 26  1  0  0  0  0
  2 27  1  0  0  0  0
  3 16  1  0  0  0  0
  4 15  1  0  0  0  0
  4 23  2  0  0  0  0
  5 15  2  0  0  0  0
  5 19  1  0  0  0  0
  7  3  2  0  0  0  0
  9 13  2  0  0  0  0
  9 27  1  0  0  0  0
 10 22  1  0  0  0  0
 11  5  1  0  0  0  0
 12  8  1  0  0  0  0
 13 20  1  0  0  0  0
 14  2  2  0  0  0  0
 15 12  1  0  0  0  0
 16  8  2  0  0  0  0
 17 10  2  0  0  0  0
 17 25  1  0  0  0  0
 18  4  1  0  0  0  0
 19  6  1  6  0  0  0
 19  3  1  0  0  0  0
 20 11  2  0  0  0  0
 20 18  1  0  0  0  0
 21 23  1  0  0  0  0
 22 24  1  0  0  0  0
 24 13  1  0  0  0  0
 25 14  1  6  0  0  0
 25  9  1  0  0  0  0
 26 21  2  0  0  0  0
 27  1  1  0  0  0  0
 28 17  1  0  0  0  0
 29 28  1  0  0  0  0
 30 34  1  0  0  0  0
 31 32  1  0  0  0  0
 32 34  1  0  0  0  0
 32 29  1  1  0  0  0
 33 31  2  0  0  0  0
 33 30  1  0  0  0  0
M  END
>  <MODEL>
9

>  <REMARK>
 VINA RESULT:      -8.1      2.045      3.101
  Name = 
  3 active torsions:
  status: ('A' for Active; 'I' for Inactive)
    1  A    between atoms: C_17  and  O_28
    2  A    between atoms: O_28  and  C_29
    3  A    between atoms: C_29  and  C_32
                            x       y       z     vdW  Elec       q    Type
                         _______ _______ _______ _____ _____    ______ ____

>  <TORSDO>
F 3

$$$$
