=
 OpenBabel11122411223D

 37 43  0  0  1  0  0  0  0  0999 V2000
  191.2540  177.4000  142.7060 C   0  0  0  0  0  2  0  0  0  0  0  0
  191.6390  176.0960  147.2980 C   0  0  0  0  0  0  0  0  0  0  0  0
  188.1270  178.0510  146.2150 C   0  0  0  0  0  0  0  0  0  0  0  0
  191.5460  177.9400  141.3200 C   0  0  2  0  0  3  0  0  0  0  0  0
  186.7000  176.9450  142.9840 O   0  0  0  0  0  0  0  0  0  0  0  0
  189.7470  177.6380  147.9640 C   0  0  0  0  0  0  0  0  0  0  0  0
  188.0610  177.7860  144.9150 C   0  0  0  0  0  0  0  0  0  0  0  0
  189.4110  177.0390  140.3880 C   0  0  0  0  0  0  0  0  0  0  0  0
  189.4420  177.7600  146.6810 C   0  0  0  0  0  0  0  0  0  0  0  0
  186.7960  177.7810  144.1130 C   0  0  0  0  0  0  0  0  0  0  0  0
  188.7350  178.0390  148.9690 C   0  0  0  0  0  3  0  0  0  0  0  0
  190.8020  177.2060  140.3560 O   0  0  0  0  0  0  0  0  0  0  0  0
  190.2570  177.3080  145.6300 N   0  0  0  0  0  0  0  0  0  0  0  0
  190.8660  174.7920  147.4010 C   0  0  0  0  0  1  0  0  0  0  0  0
  186.1920  179.4080  146.7560 C   0  0  0  0  0  3  0  0  0  0  0  0
  187.4740  178.3450  148.5970 C   0  0  0  0  0  3  0  0  0  0  0  0
  191.5400  176.6420  145.8570 C   0  0  0  0  0  2  0  0  0  0  0  0
  188.5400  177.5130  141.5240 C   0  0  1  0  0  3  0  0  0  0  0  0
  187.8070  176.4000  142.2750 C   0  0  0  0  0  2  0  0  0  0  0  0
  186.9880  178.2230  147.1600 C   0  0  2  0  0  3  0  0  0  0  0  0
  189.4090  177.2430  144.4390 C   0  0  2  0  0  3  0  0  0  0  0  0
  191.1050  177.1090  148.3390 C   0  0  0  0  0  2  0  0  0  0  0  0
  185.7160  178.5620  144.4110 C   0  0  0  0  0  0  0  0  0  0  0  0
  193.0940  175.8110  147.6050 C   0  0  0  0  0  1  0  0  0  0  0  0
  189.0810  178.5460  142.3350 O   0  0  0  0  0  0  0  0  0  0  0  0
  188.8590  176.4460  139.4260 O   0  0  0  0  0  0  0  0  0  0  0  0
  190.0170  178.0740  143.2990 C   0  0  2  0  0  3  0  0  0  0  0  0
  185.6330  179.5220  145.5500 C   0  0  0  0  0  3  0  0  0  0  0  0
  183.2550  178.7700  144.0270 C   0  0  0  0  0  3  0  0  0  0  0  0
  184.5450  178.5990  143.5000 C   0  0  0  0  0  0  0  0  0  0  0  0
  184.7050  178.5180  142.1060 C   0  0  0  0  0  3  0  0  0  0  0  0
  183.7620  178.4970  139.9180 F   0  0  0  0  0  0  0  0  0  0  0  0
  182.3150  178.7420  141.7960 C   0  0  0  0  0  3  0  0  0  0  0  0
  183.5950  178.5840  141.2590 C   0  0  0  0  0  0  0  0  0  0  0  0
  182.1450  178.8370  143.1790 C   0  0  0  0  0  3  0  0  0  0  0  0
  193.3720  177.4420  139.9130 O   0  0  0  0  0  0  0  0  0  0  0  0
  193.0010  177.8050  141.0180 C   0  0  0  0  0  3  0  0  0  0  0  0
  2 14  1  0  0  0  0
  2 24  1  0  0  0  0
  2 22  1  0  0  0  0
  3  9  1  0  0  0  0
  3 20  1  0  0  0  0
  4 37  1  6  0  0  0
  4  1  1  0  0  0  0
  5 10  1  0  0  0  0
  6 22  1  0  0  0  0
  6 11  1  0  0  0  0
  7  3  2  0  0  0  0
  8 18  1  0  0  0  0
  9  6  2  0  0  0  0
 10 23  2  0  0  0  0
 10  7  1  0  0  0  0
 12  8  1  0  0  0  0
 12  4  1  0  0  0  0
 13 17  1  0  0  0  0
 13  9  1  0  0  0  0
 16 11  2  0  0  0  0
 17  2  1  0  0  0  0
 18 19  1  1  0  0  0
 18 25  1  0  0  0  0
 19  5  1  0  0  0  0
 20 15  1  6  0  0  0
 20 16  1  0  0  0  0
 21  7  1  1  0  0  0
 21 13  1  0  0  0  0
 23 28  1  0  0  0  0
 25 27  1  0  0  0  0
 26  8  2  0  0  0  0
 27  1  1  6  0  0  0
 27 21  1  0  0  0  0
 28 15  2  0  0  0  0
 30 29  1  0  0  0  0
 30 23  1  0  0  0  0
 31 30  2  0  0  0  0
 32 34  1  0  0  0  0
 33 35  1  0  0  0  0
 34 33  2  0  0  0  0
 34 31  1  0  0  0  0
 35 29  2  0  0  0  0
 36 37  2  0  0  0  0
M  END
>  <MODEL>
1

>  <REMARK>
 VINA RESULT:      -9.0      0.000      0.000
  Name = 
  2 active torsions:
  status: ('A' for Active; 'I' for Inactive)
    1  A    between atoms: C_4  and  C_37
    2  A    between atoms: C_23  and  C_30
                            x       y       z     vdW  Elec       q    Type
                         _______ _______ _______ _____ _____    ______ ____

>  <TORSDO>
F 2

$$$$
=
 OpenBabel11122411223D

 37 43  0  0  1  0  0  0  0  0999 V2000
  185.4480  178.7800  139.7700 C   0  0  0  0  0  2  0  0  0  0  0  0
  188.9820  176.5500  137.4290 C   0  0  0  0  0  0  0  0  0  0  0  0
  189.8010  177.7280  141.3370 C   0  0  0  0  0  0  0  0  0  0  0  0
  184.2950  179.6970  140.1270 C   0  0  2  0  0  3  0  0  0  0  0  0
  187.0460  177.1060  143.7270 O   0  0  0  0  0  0  0  0  0  0  0  0
  190.6910  177.3400  139.1200 C   0  0  0  0  0  0  0  0  0  0  0  0
  188.5830  177.7780  141.8650 C   0  0  0  0  0  0  0  0  0  0  0  0
  183.8790  178.5260  142.2940 C   0  0  0  0  0  0  0  0  0  0  0  0
  189.6900  177.6850  139.9170 C   0  0  1  0  0  3  0  0  0  0  0  0
  188.2850  177.6390  143.3260 C   0  0  0  0  0  0  0  0  0  0  0  0
  192.0440  177.2090  139.7080 C   0  0  0  0  0  3  0  0  0  0  0  0
  183.4470  179.0510  141.0680 O   0  0  0  0  0  0  0  0  0  0  0  0
  188.3430  177.7280  139.5190 N   0  0  1  0  0  0  0  0  0  0  0  0
  188.9080  175.1060  137.8940 C   0  0  0  0  0  1  0  0  0  0  0  0
  191.3540  178.3640  143.0880 C   0  0  0  0  0  3  0  0  0  0  0  0
  192.2260  177.2570  141.0440 C   0  0  0  0  0  3  0  0  0  0  0  0
  187.9100  177.3840  138.1650 C   0  0  0  0  0  2  0  0  0  0  0  0
  185.3270  178.4690  142.7120 C   0  0  1  0  0  3  0  0  0  0  0  0
  185.8770  177.0560  142.9170 C   0  0  0  0  0  2  0  0  0  0  0  0
  191.0710  177.3650  142.0280 C   0  0  0  0  0  0  0  0  0  0  0  0
  187.5440  177.7360  140.7450 C   0  0  2  0  0  3  0  0  0  0  0  0
  190.4070  177.1070  137.6610 C   0  0  0  0  0  2  0  0  0  0  0  0
  189.1560  178.0170  144.3090 C   0  0  0  0  0  0  0  0  0  0  0  0
  188.6850  176.5870  135.9450 C   0  0  0  0  0  1  0  0  0  0  0  0
  186.2010  179.3780  142.0600 O   0  0  0  0  0  0  0  0  0  0  0  0
  183.0150  178.0610  143.0810 O   0  0  0  0  0  0  0  0  0  0  0  0
  186.5980  178.9470  140.7630 C   0  0  2  0  0  3  0  0  0  0  0  0
  190.5030  178.6170  144.0840 C   0  0  0  0  0  3  0  0  0  0  0  0
  189.6960  177.6970  146.7270 C   0  0  0  0  0  3  0  0  0  0  0  0
  188.7430  177.9680  145.7330 C   0  0  0  0  0  0  0  0  0  0  0  0
  187.4180  178.2400  146.1170 C   0  0  0  0  0  3  0  0  0  0  0  0
  185.7700  178.4760  147.8210 F   0  0  0  0  0  0  0  0  0  0  0  0
  188.0060  177.9370  148.4440 C   0  0  0  0  0  3  0  0  0  0  0  0
  187.0510  178.2190  147.4650 C   0  0  0  0  0  0  0  0  0  0  0  0
  189.3290  177.6770  148.0760 C   0  0  0  0  0  3  0  0  0  0  0  0
  183.0400  181.1400  138.7470 O   0  0  0  0  0  0  0  0  0  0  0  0
  183.5050  180.0220  138.9030 C   0  0  0  0  0  3  0  0  0  0  0  0
  1  4  1  0  0  0  0
  2 22  1  0  0  0  0
  2 14  1  0  0  0  0
  2 17  1  0  0  0  0
  3  7  2  0  0  0  0
  3 20  1  0  0  0  0
  4 37  1  6  0  0  0
  4 12  1  0  0  0  0
  6 11  2  0  0  0  0
  7 10  1  0  0  0  0
  8 18  1  0  0  0  0
  8 26  2  0  0  0  0
  9  6  1  1  0  0  0
  9  3  1  0  0  0  0
 10  5  1  0  0  0  0
 10 23  2  0  0  0  0
 11 16  1  0  0  0  0
 12  8  1  0  0  0  0
 13 17  1  6  0  0  0
 13  9  1  0  0  0  0
 13 21  1  0  0  0  0
 15 28  2  0  0  0  0
 16 20  2  0  0  0  0
 18 19  1  6  0  0  0
 19  5  1  0  0  0  0
 20 15  1  0  0  0  0
 21 27  1  0  0  0  0
 21  7  1  1  0  0  0
 22  6  1  0  0  0  0
 23 30  1  0  0  0  0
 24  2  1  0  0  0  0
 25 18  1  0  0  0  0
 27  1  1  6  0  0  0
 27 25  1  0  0  0  0
 28 23  1  0  0  0  0
 29 35  1  0  0  0  0
 30 31  1  0  0  0  0
 30 29  2  0  0  0  0
 31 34  2  0  0  0  0
 34 32  1  0  0  0  0
 34 33  1  0  0  0  0
 35 33  2  0  0  0  0
 36 37  2  0  0  0  0
M  END
>  <MODEL>
2

>  <REMARK>
 VINA RESULT:      -8.7      2.842      7.256
  Name = 
  2 active torsions:
  status: ('A' for Active; 'I' for Inactive)
    1  A    between atoms: C_4  and  C_37
    2  A    between atoms: C_23  and  C_30
                            x       y       z     vdW  Elec       q    Type
                         _______ _______ _______ _____ _____    ______ ____

>  <TORSDO>
F 2

$$$$
=
 OpenBabel11122411223D

 37 43  0  0  1  0  0  0  0  0999 V2000
  185.8110  178.5860  139.8580 C   0  0  0  0  0  2  0  0  0  0  0  0
  188.6340  176.2850  136.7490 C   0  0  0  0  0  0  0  0  0  0  0  0
  190.3490  177.3130  140.3990 C   0  0  0  0  0  0  0  0  0  0  0  0
  184.8080  179.5380  140.4810 C   0  0  2  0  0  3  0  0  0  0  0  0
  188.1640  176.7320  143.3290 O   0  0  0  0  0  0  0  0  0  0  0  0
  190.7090  176.9540  138.0340 C   0  0  0  0  0  0  0  0  0  0  0  0
  189.2820  177.3960  141.1860 C   0  0  0  0  0  0  0  0  0  0  0  0
  184.8270  178.3210  142.6620 C   0  0  0  0  0  0  0  0  0  0  0  0
  189.9260  177.3170  139.0390 C   0  0  1  0  0  3  0  0  0  0  0  0
  189.3070  177.2260  142.6730 C   0  0  0  0  0  0  0  0  0  0  0  0
  192.1510  176.7520  138.3030 C   0  0  0  0  0  3  0  0  0  0  0  0
  184.1610  178.8990  141.5740 O   0  0  0  0  0  0  0  0  0  0  0  0
  188.5270  177.4260  138.9510 N   0  0  1  0  0  0  0  0  0  0  0  0
  188.5990  174.8320  137.1890 C   0  0  0  0  0  1  0  0  0  0  0  0
  192.2780  177.8330  141.7750 C   0  0  0  0  0  3  0  0  0  0  0  0
  192.6260  176.7530  139.5660 C   0  0  0  0  0  3  0  0  0  0  0  0
  187.7900  177.1390  137.7200 C   0  0  0  0  0  2  0  0  0  0  0  0
  186.3280  178.1920  142.7480 C   0  0  1  0  0  3  0  0  0  0  0  0
  186.8440  176.7530  142.7970 C   0  0  0  0  0  2  0  0  0  0  0  0
  191.7220  176.8780  140.7850 C   0  0  0  0  0  0  0  0  0  0  0  0
  188.0190  177.4300  140.3230 C   0  0  2  0  0  3  0  0  0  0  0  0
  190.0990  176.7770  136.6690 C   0  0  0  0  0  2  0  0  0  0  0  0
  190.3900  177.5390  143.4460 C   0  0  0  0  0  0  0  0  0  0  0  0
  188.0190  176.3780  135.3680 C   0  0  0  0  0  1  0  0  0  0  0  0
  187.0770  179.0840  141.9370 O   0  0  0  0  0  0  0  0  0  0  0  0
  184.1380  177.8680  143.6120 O   0  0  0  0  0  0  0  0  0  0  0  0
  187.1580  178.6770  140.5750 C   0  0  2  0  0  3  0  0  0  0  0  0
  191.6800  178.0900  142.9400 C   0  0  0  0  0  3  0  0  0  0  0  0
  189.1700  177.9740  145.5830 C   0  0  0  0  0  3  0  0  0  0  0  0
  190.3000  177.4640  144.9250 C   0  0  0  0  0  0  0  0  0  0  0  0
  191.3050  176.8420  145.6840 C   0  0  0  0  0  3  0  0  0  0  0  0
  192.1720  176.1570  147.7950 F   0  0  0  0  0  0  0  0  0  0  0  0
  190.0690  177.2750  147.7190 C   0  0  0  0  0  3  0  0  0  0  0  0
  191.1930  176.7530  147.0740 C   0  0  0  0  0  0  0  0  0  0  0  0
  189.0570  177.8850  146.9730 C   0  0  0  0  0  3  0  0  0  0  0  0
  183.9870  180.8710  138.7180 O   0  0  0  0  0  0  0  0  0  0  0  0
  183.7840  179.9310  139.4700 C   0  0  0  0  0  3  0  0  0  0  0  0
  1  4  1  0  0  0  0
  2 14  1  0  0  0  0
  2 17  1  0  0  0  0
  3 20  1  0  0  0  0
  3  7  2  0  0  0  0
  4 37  1  6  0  0  0
  4 12  1  0  0  0  0
  6 11  2  0  0  0  0
  7 10  1  0  0  0  0
  8 18  1  0  0  0  0
  8 26  2  0  0  0  0
  9  6  1  1  0  0  0
  9  3  1  0  0  0  0
 10  5  1  0  0  0  0
 10 23  2  0  0  0  0
 11 16  1  0  0  0  0
 12  8  1  0  0  0  0
 13 17  1  6  0  0  0
 13  9  1  0  0  0  0
 13 21  1  0  0  0  0
 15 28  2  0  0  0  0
 16 20  2  0  0  0  0
 18 19  1  6  0  0  0
 19  5  1  0  0  0  0
 20 15  1  0  0  0  0
 21 27  1  0  0  0  0
 21  7  1  1  0  0  0
 22  2  1  0  0  0  0
 22  6  1  0  0  0  0
 23 30  1  0  0  0  0
 24  2  1  0  0  0  0
 25 18  1  0  0  0  0
 27  1  1  1  0  0  0
 27 25  1  0  0  0  0
 28 23  1  0  0  0  0
 29 35  1  0  0  0  0
 30 29  2  0  0  0  0
 30 31  1  0  0  0  0
 31 34  2  0  0  0  0
 34 33  1  0  0  0  0
 34 32  1  0  0  0  0
 35 33  2  0  0  0  0
 36 37  2  0  0  0  0
M  END
>  <MODEL>
3

>  <REMARK>
 VINA RESULT:      -8.4      3.255      7.894
  Name = 
  2 active torsions:
  status: ('A' for Active; 'I' for Inactive)
    1  A    between atoms: C_4  and  C_37
    2  A    between atoms: C_23  and  C_30
                            x       y       z     vdW  Elec       q    Type
                         _______ _______ _______ _____ _____    ______ ____

>  <TORSDO>
F 2

$$$$
=
 OpenBabel11122411223D

 37 43  0  0  1  0  0  0  0  0999 V2000
  187.3710  178.2920  139.1850 C   0  0  0  0  0  2  0  0  0  0  0  0
  189.7600  176.5420  142.9480 C   0  0  0  0  0  0  0  0  0  0  0  0
  186.1090  178.3680  143.7580 C   0  0  0  0  0  0  0  0  0  0  0  0
  187.0150  178.9920  137.8880 C   0  0  2  0  0  3  0  0  0  0  0  0
  183.4140  177.5180  141.3680 O   0  0  0  0  0  0  0  0  0  0  0  0
  188.3390  177.8800  144.5580 C   0  0  0  0  0  0  0  0  0  0  0  0
  185.4780  178.2380  142.5960 C   0  0  0  0  0  0  0  0  0  0  0  0
  184.6990  178.0580  137.8810 C   0  0  0  0  0  0  0  0  0  0  0  0
  187.4970  178.1160  143.5630 C   0  0  0  0  0  0  0  0  0  0  0  0
  183.9890  178.2340  142.4340 C   0  0  0  0  0  0  0  0  0  0  0  0
  187.8700  178.1080  145.9450 C   0  0  0  0  0  3  0  0  0  0  0  0
  185.9300  178.3170  137.2650 O   0  0  0  0  0  0  0  0  0  0  0  0
  187.7700  177.8300  142.2140 N   0  0  0  0  0  0  0  0  0  0  0  0
  189.1280  175.1870  143.2180 C   0  0  0  0  0  1  0  0  0  0  0  0
  184.5950  179.5330  145.2530 C   0  0  0  0  0  3  0  0  0  0  0  0
  186.5720  178.3680  146.2020 C   0  0  0  0  0  3  0  0  0  0  0  0
  189.0280  177.2280  141.7750 C   0  0  0  0  0  2  0  0  0  0  0  0
  184.4140  178.3530  139.3320 C   0  0  1  0  0  3  0  0  0  0  0  0
  184.1010  177.1230  140.1850 C   0  0  0  0  0  2  0  0  0  0  0  0
  185.5020  178.3670  145.1200 C   0  0  2  0  0  3  0  0  0  0  0  0
  186.4840  177.8360  141.5160 C   0  0  2  0  0  3  0  0  0  0  0  0
  189.7290  177.4040  144.2330 C   0  0  0  0  0  2  0  0  0  0  0  0
  183.1420  178.9090  143.2670 C   0  0  0  0  0  0  0  0  0  0  0  0
  191.2050  176.3210  142.5510 C   0  0  0  0  0  1  0  0  0  0  0  0
  185.2450  179.3280  139.9450 O   0  0  0  0  0  0  0  0  0  0  0  0
  183.7860  177.5340  137.1920 O   0  0  0  0  0  0  0  0  0  0  0  0
  186.5150  178.8200  140.3360 C   0  0  2  0  0  3  0  0  0  0  0  0
  183.5600  179.7360  144.4370 C   0  0  0  0  0  3  0  0  0  0  0  0
  180.7600  178.6280  143.9690 C   0  0  0  0  0  3  0  0  0  0  0  0
  181.6900  178.9650  142.9720 C   0  0  0  0  0  0  0  0  0  0  0  0
  181.2170  179.4020  141.7220 C   0  0  0  0  0  3  0  0  0  0  0  0
  179.4030  179.8940  140.2580 F   0  0  0  0  0  0  0  0  0  0  0  0
  178.9310  179.1280  142.4650 C   0  0  0  0  0  3  0  0  0  0  0  0
  179.8450  179.4780  141.4680 C   0  0  0  0  0  0  0  0  0  0  0  0
  179.3870  178.7050  143.7150 C   0  0  0  0  0  3  0  0  0  0  0  0
  189.2070  179.5910  137.2590 O   0  0  0  0  0  0  0  0  0  0  0  0
  188.1890  178.9850  136.9670 C   0  0  0  0  0  3  0  0  0  0  0  0
  2 14  1  0  0  0  0
  2 22  1  0  0  0  0
  3 20  1  0  0  0  0
  4 37  1  6  0  0  0
  4  1  1  0  0  0  0
  5 10  1  0  0  0  0
  6 11  1  0  0  0  0
  7  3  2  0  0  0  0
  8 18  1  0  0  0  0
  9  3  1  0  0  0  0
  9  6  2  0  0  0  0
 10  7  1  0  0  0  0
 10 23  2  0  0  0  0
 11 16  2  0  0  0  0
 12  8  1  0  0  0  0
 12  4  1  0  0  0  0
 13  9  1  0  0  0  0
 17 13  1  0  0  0  0
 17  2  1  0  0  0  0
 18 25  1  0  0  0  0
 18 19  1  1  0  0  0
 19  5  1  0  0  0  0
 20 15  1  1  0  0  0
 20 16  1  0  0  0  0
 21 13  1  0  0  0  0
 21  7  1  1  0  0  0
 22  6  1  0  0  0  0
 23 28  1  0  0  0  0
 24  2  1  0  0  0  0
 25 27  1  0  0  0  0
 26  8  2  0  0  0  0
 27  1  1  6  0  0  0
 27 21  1  0  0  0  0
 28 15  2  0  0  0  0
 30 23  1  0  0  0  0
 30 29  2  0  0  0  0
 31 30  1  0  0  0  0
 32 34  1  0  0  0  0
 33 35  2  0  0  0  0
 34 31  2  0  0  0  0
 34 33  1  0  0  0  0
 35 29  1  0  0  0  0
 37 36  2  0  0  0  0
M  END
>  <MODEL>
4

>  <REMARK>
 VINA RESULT:      -8.4      2.734      4.228
  Name = 
  2 active torsions:
  status: ('A' for Active; 'I' for Inactive)
    1  A    between atoms: C_4  and  C_37
    2  A    between atoms: C_23  and  C_30
                            x       y       z     vdW  Elec       q    Type
                         _______ _______ _______ _____ _____    ______ ____

>  <TORSDO>
F 2

$$$$
=
 OpenBabel11122411223D

 37 43  0  0  1  0  0  0  0  0999 V2000
  185.6630  177.2070  136.6830 C   0  0  0  0  0  2  0  0  0  0  0  0
  181.9690  179.5780  138.5960 C   0  0  0  0  0  0  0  0  0  0  0  0
  184.9710  178.3920  141.2240 C   0  0  0  0  0  0  0  0  0  0  0  0
  186.5090  176.2480  135.8670 C   0  0  2  0  0  3  0  0  0  0  0  0
  188.4060  178.8970  139.9440 O   0  0  0  0  0  0  0  0  0  0  0  0
  182.6100  178.8320  140.9270 C   0  0  0  0  0  0  0  0  0  0  0  0
  186.0180  178.2960  140.4130 C   0  0  0  0  0  0  0  0  0  0  0  0
  188.6360  177.3840  136.5160 C   0  0  0  0  0  0  0  0  0  0  0  0
  183.7810  178.4450  140.4420 C   0  0  0  0  0  0  0  0  0  0  0  0
  187.4450  178.4110  140.8510 C   0  0  0  0  0  0  0  0  0  0  0  0
  182.4770  179.0030  142.3920 C   0  0  0  0  0  3  0  0  0  0  0  0
  187.7570  176.8550  135.5610 O   0  0  0  0  0  0  0  0  0  0  0  0
  184.0780  178.3590  139.0710 N   0  0  0  0  0  0  0  0  0  0  0  0
  182.4470  181.0150  138.7190 C   0  0  0  0  0  1  0  0  0  0  0  0
  185.7440  177.7940  143.4430 C   0  0  0  0  0  3  0  0  0  0  0  0
  183.5600  178.9490  143.1960 C   0  0  0  0  0  3  0  0  0  0  0  0
  183.1080  178.7010  138.0320 C   0  0  0  0  0  2  0  0  0  0  0  0
  188.3090  177.4870  137.9840 C   0  0  1  0  0  3  0  0  0  0  0  0
  188.2590  178.9160  138.5290 C   0  0  0  0  0  2  0  0  0  0  0  0
  184.9760  178.7920  142.6600 C   0  0  2  0  0  3  0  0  0  0  0  0
  185.5370  178.3130  138.9610 C   0  0  2  0  0  3  0  0  0  0  0  0
  181.4730  179.0680  139.9700 C   0  0  0  0  0  2  0  0  0  0  0  0
  187.8790  178.0540  142.0960 C   0  0  0  0  0  0  0  0  0  0  0  0
  180.8090  179.5450  137.6220 C   0  0  0  0  0  1  0  0  0  0  0  0
  187.2950  176.6140  138.4600 O   0  0  0  0  0  0  0  0  0  0  0  0
  189.7530  177.8120  136.1260 O   0  0  0  0  0  0  0  0  0  0  0  0
  185.9780  177.0700  138.1720 C   0  0  2  0  0  3  0  0  0  0  0  0
  187.0200  177.5030  143.1840 C   0  0  0  0  0  3  0  0  0  0  0  0
  189.7640  178.6300  143.6320 C   0  0  0  0  0  3  0  0  0  0  0  0
  189.3270  178.0760  142.4180 C   0  0  0  0  0  0  0  0  0  0  0  0
  190.2740  177.5020  141.5530 C   0  0  0  0  0  3  0  0  0  0  0  0
  192.5350  176.9540  141.0380 F   0  0  0  0  0  0  0  0  0  0  0  0
  192.0560  178.0690  143.0890 C   0  0  0  0  0  3  0  0  0  0  0  0
  191.6320  177.5040  141.8840 C   0  0  0  0  0  0  0  0  0  0  0  0
  191.1220  178.6310  143.9640 C   0  0  0  0  0  3  0  0  0  0  0  0
  184.7300  175.3340  134.6180 O   0  0  0  0  0  0  0  0  0  0  0  0
  185.8070  175.9070  134.5950 C   0  0  0  0  0  3  0  0  0  0  0  0
  2 14  1  0  0  0  0
  2 22  1  0  0  0  0
  3 20  1  0  0  0  0
  4 37  1  6  0  0  0
  4  1  1  0  0  0  0
  5 10  1  0  0  0  0
  6 11  1  0  0  0  0
  7 10  1  0  0  0  0
  7  3  2  0  0  0  0
  8 18  1  0  0  0  0
  9  6  2  0  0  0  0
  9  3  1  0  0  0  0
 10 23  2  0  0  0  0
 11 16  2  0  0  0  0
 12  4  1  0  0  0  0
 12  8  1  0  0  0  0
 13  9  1  0  0  0  0
 17  2  1  0  0  0  0
 17 13  1  0  0  0  0
 18 25  1  0  0  0  0
 18 19  1  6  0  0  0
 19  5  1  0  0  0  0
 20 16  1  1  0  0  0
 20 15  1  0  0  0  0
 21 13  1  0  0  0  0
 21  7  1  1  0  0  0
 22  6  1  0  0  0  0
 23 30  1  0  0  0  0
 23 28  1  0  0  0  0
 24  2  1  0  0  0  0
 26  8  2  0  0  0  0
 27  1  1  6  0  0  0
 27 25  1  0  0  0  0
 27 21  1  0  0  0  0
 28 15  2  0  0  0  0
 29 35  1  0  0  0  0
 30 29  2  0  0  0  0
 31 34  2  0  0  0  0
 31 30  1  0  0  0  0
 32 34  1  0  0  0  0
 33 35  2  0  0  0  0
 34 33  1  0  0  0  0
 37 36  2  0  0  0  0
M  END
>  <MODEL>
5

>  <REMARK>
 VINA RESULT:      -7.9      3.628      8.096
  Name = 
  2 active torsions:
  status: ('A' for Active; 'I' for Inactive)
    1  A    between atoms: C_4  and  C_37
    2  A    between atoms: C_23  and  C_30
                            x       y       z     vdW  Elec       q    Type
                         _______ _______ _______ _____ _____    ______ ____

>  <TORSDO>
F 2

$$$$
=
 OpenBabel11122411223D

 37 43  0  0  1  0  0  0  0  0999 V2000
  183.2190  179.2090  138.3100 C   0  0  0  0  0  2  0  0  0  0  0  0
  186.7470  176.8560  136.0860 C   0  0  0  0  0  0  0  0  0  0  0  0
  187.4950  178.0450  140.0040 C   0  0  0  0  0  0  0  0  0  0  0  0
  182.0830  180.1620  138.6290 C   0  0  2  0  0  3  0  0  0  0  0  0
  184.6590  177.5250  142.3240 O   0  0  0  0  0  0  0  0  0  0  0  0
  188.4320  177.6100  137.8160 C   0  0  0  0  0  0  0  0  0  0  0  0
  186.2660  178.1350  140.4980 C   0  0  0  0  0  0  0  0  0  0  0  0
  181.5750  179.0230  140.7930 C   0  0  0  0  0  0  0  0  0  0  0  0
  187.4210  177.9920  138.5820 C   0  0  1  0  0  3  0  0  0  0  0  0
  185.9240  178.0180  141.9520 C   0  0  0  0  0  0  0  0  0  0  0  0
  189.7650  177.4460  138.4410 C   0  0  0  0  0  3  0  0  0  0  0  0
  181.1930  179.5490  139.5520 O   0  0  0  0  0  0  0  0  0  0  0  0
  186.0870  178.0710  138.1470 N   0  0  1  0  0  0  0  0  0  0  0  0
  186.6190  175.4180  136.5600 C   0  0  0  0  0  1  0  0  0  0  0  0
  189.0180  178.6510  141.7910 C   0  0  0  0  0  3  0  0  0  0  0  0
  189.9130  177.5010  139.7810 C   0  0  0  0  0  3  0  0  0  0  0  0
  185.6800  177.7270  136.7850 C   0  0  0  0  0  2  0  0  0  0  0  0
  183.0090  178.9270  141.2510 C   0  0  1  0  0  3  0  0  0  0  0  0
  183.5120  177.5010  141.4820 C   0  0  0  0  0  2  0  0  0  0  0  0
  188.7350  177.6510  140.7330 C   0  0  0  0  0  0  0  0  0  0  0  0
  185.2560  178.1130  139.3500 C   0  0  2  0  0  3  0  0  0  0  0  0
  188.1810  177.3730  136.3510 C   0  0  0  0  0  2  0  0  0  0  0  0
  186.7790  178.3790  142.9550 C   0  0  0  0  0  0  0  0  0  0  0  0
  186.4910  176.8880  134.5940 C   0  0  0  0  0  1  0  0  0  0  0  0
  183.9260  179.8050  140.6160 O   0  0  0  0  0  0  0  0  0  0  0  0
  180.6770  178.5900  141.5600 O   0  0  0  0  0  0  0  0  0  0  0  0
  184.3450  179.3510  139.3340 C   0  0  2  0  0  3  0  0  0  0  0  0
  188.1490  178.9370  142.7620 C   0  0  0  0  0  3  0  0  0  0  0  0
  185.0180  178.7470  144.6890 C   0  0  0  0  0  3  0  0  0  0  0  0
  186.3270  178.3550  144.3670 C   0  0  0  0  0  0  0  0  0  0  0  0
  187.1690  177.8940  145.3940 C   0  0  0  0  0  3  0  0  0  0  0  0
  187.5440  177.4100  147.6960 F   0  0  0  0  0  0  0  0  0  0  0  0
  185.4190  178.2530  147.0250 C   0  0  0  0  0  3  0  0  0  0  0  0
  186.7200  177.8490  146.7160 C   0  0  0  0  0  0  0  0  0  0  0  0
  184.5670  178.7010  146.0120 C   0  0  0  0  0  3  0  0  0  0  0  0
  181.1140  181.6630  137.0900 O   0  0  0  0  0  0  0  0  0  0  0  0
  181.3370  180.4980  137.3810 C   0  0  0  0  0  3  0  0  0  0  0  0
  1  4  1  0  0  0  0
  2 22  1  0  0  0  0
  2 14  1  0  0  0  0
  2 17  1  0  0  0  0
  3  7  2  0  0  0  0
  3 20  1  0  0  0  0
  4 37  1  6  0  0  0
  4 12  1  0  0  0  0
  6 11  2  0  0  0  0
  7 10  1  0  0  0  0
  8 18  1  0  0  0  0
  8 26  2  0  0  0  0
  9  6  1  1  0  0  0
  9  3  1  0  0  0  0
 10  5  1  0  0  0  0
 10 23  2  0  0  0  0
 11 16  1  0  0  0  0
 12  8  1  0  0  0  0
 13 17  1  6  0  0  0
 13  9  1  0  0  0  0
 13 21  1  0  0  0  0
 15 28  2  0  0  0  0
 16 20  2  0  0  0  0
 18 19  1  6  0  0  0
 19  5  1  0  0  0  0
 20 15  1  0  0  0  0
 21  7  1  1  0  0  0
 22  6  1  0  0  0  0
 23 30  1  0  0  0  0
 24  2  1  0  0  0  0
 25 18  1  0  0  0  0
 27  1  1  6  0  0  0
 27 21  1  0  0  0  0
 27 25  1  0  0  0  0
 28 23  1  0  0  0  0
 29 35  1  0  0  0  0
 30 29  2  0  0  0  0
 30 31  1  0  0  0  0
 31 34  2  0  0  0  0
 34 33  1  0  0  0  0
 34 32  1  0  0  0  0
 35 33  2  0  0  0  0
 36 37  2  0  0  0  0
M  END
>  <MODEL>
6

>  <REMARK>
 VINA RESULT:      -7.4      4.011      8.243
  Name = 
  2 active torsions:
  status: ('A' for Active; 'I' for Inactive)
    1  A    between atoms: C_4  and  C_37
    2  A    between atoms: C_23  and  C_30
                            x       y       z     vdW  Elec       q    Type
                         _______ _______ _______ _____ _____    ______ ____

>  <TORSDO>
F 2

$$$$
=
 OpenBabel11122411223D

 37 43  0  0  1  0  0  0  0  0999 V2000
  183.7450  178.0960  137.4020 C   0  0  0  0  0  2  0  0  0  0  0  0
  180.0100  181.0520  137.8890 C   0  0  0  0  0  0  0  0  0  0  0  0
  181.5560  179.4260  141.3950 C   0  0  0  0  0  0  0  0  0  0  0  0
  184.6810  177.0040  136.9200 C   0  0  2  0  0  3  0  0  0  0  0  0
  185.2530  179.3560  141.5440 O   0  0  0  0  0  0  0  0  0  0  0  0
  179.5860  180.2370  140.2470 C   0  0  0  0  0  0  0  0  0  0  0  0
  182.8060  179.1530  141.0380 C   0  0  0  0  0  0  0  0  0  0  0  0
  186.5440  177.7890  138.3860 C   0  0  0  0  0  0  0  0  0  0  0  0
  180.7790  179.6610  140.2240 C   0  0  0  0  0  0  0  0  0  0  0  0
  183.9560  179.0420  141.9910 C   0  0  0  0  0  0  0  0  0  0  0  0
  178.9310  180.4430  141.5590 C   0  0  0  0  0  3  0  0  0  0  0  0
  186.0280  177.3990  137.1430 O   0  0  0  0  0  0  0  0  0  0  0  0
  181.5620  179.5140  139.0660 N   0  0  0  0  0  0  0  0  0  0  0  0
  180.6180  182.3940  138.2590 C   0  0  0  0  0  1  0  0  0  0  0  0
  181.3180  178.7350  143.7070 C   0  0  0  0  0  3  0  0  0  0  0  0
  179.6000  180.2240  142.7100 C   0  0  0  0  0  3  0  0  0  0  0  0
  181.1300  179.9970  137.7550 C   0  0  0  0  0  2  0  0  0  0  0  0
  185.7000  177.9590  139.6230 C   0  0  1  0  0  3  0  0  0  0  0  0
  185.6630  179.3830  140.1810 C   0  0  0  0  0  2  0  0  0  0  0  0
  181.0710  179.8350  142.7440 C   0  0  2  0  0  3  0  0  0  0  0  0
  182.9260  179.2320  139.5160 C   0  0  2  0  0  3  0  0  0  0  0  0
  178.9530  180.6440  138.9440 C   0  0  0  0  0  2  0  0  0  0  0  0
  183.8190  178.6320  143.2870 C   0  0  0  0  0  0  0  0  0  0  0  0
  179.3210  181.1960  136.5480 C   0  0  0  0  0  1  0  0  0  0  0  0
  184.4600  177.2670  139.6320 O   0  0  0  0  0  0  0  0  0  0  0  0
  187.7770  178.0270  138.4720 O   0  0  0  0  0  0  0  0  0  0  0  0
  183.4400  177.9260  138.8900 C   0  0  2  0  0  3  0  0  0  0  0  0
  182.5350  178.2390  143.9370 C   0  0  0  0  0  3  0  0  0  0  0  0
  185.0270  178.8930  145.4590 C   0  0  0  0  0  3  0  0  0  0  0  0
  185.0180  178.4240  144.1360 C   0  0  0  0  0  0  0  0  0  0  0  0
  186.1340  177.7140  143.6580 C   0  0  0  0  0  3  0  0  0  0  0  0
  188.3150  176.8210  144.0050 F   0  0  0  0  0  0  0  0  0  0  0  0
  187.2460  177.9830  145.7900 C   0  0  0  0  0  3  0  0  0  0  0  0
  187.2430  177.5000  144.4790 C   0  0  0  0  0  0  0  0  0  0  0  0
  186.1380  178.6780  146.2810 C   0  0  0  0  0  3  0  0  0  0  0  0
  183.5480  177.2980  134.8730 O   0  0  0  0  0  0  0  0  0  0  0  0
  184.4770  176.7680  135.4600 C   0  0  0  0  0  3  0  0  0  0  0  0
  2 14  1  0  0  0  0
  2 22  1  0  0  0  0
  3 20  1  0  0  0  0
  4 37  1  6  0  0  0
  4 12  1  0  0  0  0
  4  1  1  0  0  0  0
  5 10  1  0  0  0  0
  6 11  1  0  0  0  0
  7  3  2  0  0  0  0
  7 10  1  0  0  0  0
  8 26  2  0  0  0  0
  8 18  1  0  0  0  0
  9  6  2  0  0  0  0
  9  3  1  0  0  0  0
 10 23  2  0  0  0  0
 11 16  2  0  0  0  0
 12  8  1  0  0  0  0
 13 21  1  0  0  0  0
 13  9  1  0  0  0  0
 15 28  2  0  0  0  0
 17  2  1  0  0  0  0
 17 13  1  0  0  0  0
 18 25  1  0  0  0  0
 18 19  1  6  0  0  0
 19  5  1  0  0  0  0
 20 16  1  6  0  0  0
 20 15  1  0  0  0  0
 21  7  1  1  0  0  0
 22  6  1  0  0  0  0
 23 28  1  0  0  0  0
 23 30  1  0  0  0  0
 24  2  1  0  0  0  0
 27  1  1  6  0  0  0
 27 21  1  0  0  0  0
 27 25  1  0  0  0  0
 29 35  1  0  0  0  0
 30 29  2  0  0  0  0
 31 30  1  0  0  0  0
 31 34  2  0  0  0  0
 32 34  1  0  0  0  0
 33 35  2  0  0  0  0
 34 33  1  0  0  0  0
 36 37  2  0  0  0  0
M  END
>  <MODEL>
7

>  <REMARK>
 VINA RESULT:      -7.2      3.896      8.931
  Name = 
  2 active torsions:
  status: ('A' for Active; 'I' for Inactive)
    1  A    between atoms: C_4  and  C_37
    2  A    between atoms: C_23  and  C_30
                            x       y       z     vdW  Elec       q    Type
                         _______ _______ _______ _____ _____    ______ ____

>  <TORSDO>
F 2

$$$$
=
 OpenBabel11122411223D

 37 43  0  0  1  0  0  0  0  0999 V2000
  187.5030  178.2470  139.2400 C   0  0  0  0  0  2  0  0  0  0  0  0
  187.2680  177.7330  143.9950 C   0  0  0  0  0  0  0  0  0  0  0  0
  183.6870  178.5600  142.0410 C   0  0  0  0  0  0  0  0  0  0  0  0
  187.9320  178.6460  137.8410 C   0  0  2  0  0  3  0  0  0  0  0  0
  183.2060  176.6910  138.8830 O   0  0  0  0  0  0  0  0  0  0  0  0
  184.9840  178.8200  144.0670 C   0  0  0  0  0  0  0  0  0  0  0  0
  183.9370  178.1100  140.8160 C   0  0  0  0  0  0  0  0  0  0  0  0
  186.2800  177.1120  136.7680 C   0  0  0  0  0  0  0  0  0  0  0  0
  184.9160  178.6810  142.7510 C   0  0  0  0  0  0  0  0  0  0  0  0
  182.8880  177.6710  139.8420 C   0  0  0  0  0  0  0  0  0  0  0  0
  183.7310  179.0850  144.8110 C   0  0  0  0  0  3  0  0  0  0  0  0
  187.5750  177.6210  136.9230 O   0  0  0  0  0  0  0  0  0  0  0  0
  186.0020  178.3100  141.9400 N   0  0  0  0  0  0  0  0  0  0  0  0
  186.8040  176.3030  144.2120 C   0  0  0  0  0  1  0  0  0  0  0  0
  181.4280  179.4410  142.0180 C   0  0  0  0  0  3  0  0  0  0  0  0
  182.5320  179.0050  144.1990 C   0  0  0  0  0  3  0  0  0  0  0  0
  187.3310  178.0310  142.4810 C   0  0  0  0  0  2  0  0  0  0  0  0
  185.1190  177.5010  137.6490 C   0  0  1  0  0  3  0  0  0  0  0  0
  184.5240  176.3530  138.4660 C   0  0  0  0  0  2  0  0  0  0  0  0
  182.3750  178.5660  142.7500 C   0  0  2  0  0  3  0  0  0  0  0  0
  185.4390  177.8680  140.6630 C   0  0  2  0  0  3  0  0  0  0  0  0
  186.3260  178.7110  144.7380 C   0  0  0  0  0  2  0  0  0  0  0  0
  181.6220  178.1850  139.8210 C   0  0  0  0  0  0  0  0  0  0  0  0
  188.6610  177.8740  144.5720 C   0  0  0  0  0  1  0  0  0  0  0  0
  185.2440  178.7390  138.3330 O   0  0  0  0  0  0  0  0  0  0  0  0
  186.0750  176.2700  135.8560 O   0  0  0  0  0  0  0  0  0  0  0  0
  186.0550  178.6600  139.5000 C   0  0  2  0  0  3  0  0  0  0  0  0
  181.1040  179.2400  140.7390 C   0  0  0  0  0  3  0  0  0  0  0  0
  180.2510  178.7500  137.8090 C   0  0  0  0  0  3  0  0  0  0  0  0
  180.6750  177.7960  138.7470 C   0  0  0  0  0  0  0  0  0  0  0  0
  180.2290  176.4690  138.6160 C   0  0  0  0  0  3  0  0  0  0  0  0
  178.9320  174.8310  137.4710 F   0  0  0  0  0  0  0  0  0  0  0  0
  178.9360  177.0730  136.6620 C   0  0  0  0  0  3  0  0  0  0  0  0
  179.3600  176.1120  137.5820 C   0  0  0  0  0  0  0  0  0  0  0  0
  179.3820  178.3920  136.7740 C   0  0  0  0  0  3  0  0  0  0  0  0
  190.1600  177.8880  137.7100 O   0  0  0  0  0  0  0  0  0  0  0  0
  189.4100  178.8470  137.8000 C   0  0  0  0  0  3  0  0  0  0  0  0
  2 14  1  0  0  0  0
  2 24  1  0  0  0  0
  2 22  1  0  0  0  0
  3 20  1  0  0  0  0
  3  9  1  0  0  0  0
  4 37  1  1  0  0  0
  4  1  1  0  0  0  0
  5 10  1  0  0  0  0
  6 22  1  0  0  0  0
  6 11  1  0  0  0  0
  7  3  2  0  0  0  0
  8 12  1  0  0  0  0
  8 18  1  0  0  0  0
  9  6  2  0  0  0  0
 10  7  1  0  0  0  0
 12  4  1  0  0  0  0
 13 17  1  0  0  0  0
 13  9  1  0  0  0  0
 16 11  2  0  0  0  0
 17  2  1  0  0  0  0
 18 25  1  0  0  0  0
 18 19  1  1  0  0  0
 19  5  1  0  0  0  0
 20 15  1  6  0  0  0
 20 16  1  0  0  0  0
 21  7  1  1  0  0  0
 21 13  1  0  0  0  0
 23 10  2  0  0  0  0
 23 28  1  0  0  0  0
 25 27  1  0  0  0  0
 26  8  2  0  0  0  0
 27  1  1  6  0  0  0
 27 21  1  0  0  0  0
 28 15  2  0  0  0  0
 29 30  1  0  0  0  0
 30 23  1  0  0  0  0
 31 30  2  0  0  0  0
 32 34  1  0  0  0  0
 33 35  1  0  0  0  0
 33 34  2  0  0  0  0
 34 31  1  0  0  0  0
 35 29  2  0  0  0  0
 36 37  2  0  0  0  0
M  END
>  <MODEL>
8

>  <REMARK>
 VINA RESULT:      -6.6      3.433      5.826
  Name = 
  2 active torsions:
  status: ('A' for Active; 'I' for Inactive)
    1  A    between atoms: C_4  and  C_37
    2  A    between atoms: C_23  and  C_30
                            x       y       z     vdW  Elec       q    Type
                         _______ _______ _______ _____ _____    ______ ____

>  <TORSDO>
F 2

$$$$
=
 OpenBabel11122411223D

 37 43  0  0  1  0  0  0  0  0999 V2000
  183.4370  177.3610  137.2150 C   0  0  0  0  0  2  0  0  0  0  0  0
  180.2880  179.8360  139.8400 C   0  0  0  0  0  0  0  0  0  0  0  0
  183.7100  178.5170  141.8080 C   0  0  0  0  0  0  0  0  0  0  0  0
  184.0670  176.3830  136.2420 C   0  0  2  0  0  3  0  0  0  0  0  0
  186.8360  178.9180  139.8680 O   0  0  0  0  0  0  0  0  0  0  0  0
  181.3550  179.0410  141.9920 C   0  0  0  0  0  0  0  0  0  0  0  0
  184.5700  178.3940  140.8030 C   0  0  0  0  0  0  0  0  0  0  0  0
  186.3210  177.4370  136.4560 C   0  0  0  0  0  0  0  0  0  0  0  0
  182.3900  178.6200  141.2810 C   0  0  0  0  0  0  0  0  0  0  0  0
  186.0590  178.4550  140.9460 C   0  0  0  0  0  0  0  0  0  0  0  0
  181.5250  179.2000  143.4550 C   0  0  0  0  0  3  0  0  0  0  0  0
  185.2500  176.9510  135.6950 O   0  0  0  0  0  0  0  0  0  0  0  0
  182.4040  178.5400  139.8780 N   0  0  0  0  0  0  0  0  0  0  0  0
  180.8330  181.2540  139.8710 C   0  0  0  0  0  1  0  0  0  0  0  0
  184.8890  177.8670  143.8250 C   0  0  0  0  0  3  0  0  0  0  0  0
  182.7430  179.0990  144.0250 C   0  0  0  0  0  3  0  0  0  0  0  0
  181.2590  178.9280  139.0550 C   0  0  0  0  0  2  0  0  0  0  0  0
  186.2980  177.5350  137.9610 C   0  0  1  0  0  3  0  0  0  0  0  0
  186.4090  178.9580  138.5110 C   0  0  0  0  0  2  0  0  0  0  0  0
  184.0170  178.9000  143.2160 C   0  0  2  0  0  3  0  0  0  0  0  0
  183.8090  178.4450  139.4770 C   0  0  2  0  0  3  0  0  0  0  0  0
  180.0590  179.3280  141.2830 C   0  0  0  0  0  2  0  0  0  0  0  0
  186.7200  178.0680  142.0780 C   0  0  0  0  0  0  0  0  0  0  0  0
  178.9570  179.8550  139.1180 C   0  0  0  0  0  1  0  0  0  0  0  0
  185.3680  176.6920  138.6260 O   0  0  0  0  0  0  0  0  0  0  0  0
  187.3520  177.8310  135.8520 O   0  0  0  0  0  0  0  0  0  0  0  0
  184.0380  177.1970  138.6100 C   0  0  2  0  0  3  0  0  0  0  0  0
  186.0760  177.5350  143.3130 C   0  0  0  0  0  3  0  0  0  0  0  0
  188.9050  177.3750  141.0850 C   0  0  0  0  0  3  0  0  0  0  0  0
  188.2030  178.0360  142.1040 C   0  0  0  0  0  0  0  0  0  0  0  0
  188.9280  178.7040  143.1060 C   0  0  0  0  0  3  0  0  0  0  0  0
  191.0110  179.3320  144.0760 F   0  0  0  0  0  0  0  0  0  0  0  0
  191.0130  178.0180  142.0880 C   0  0  0  0  0  3  0  0  0  0  0  0
  190.3250  178.6900  143.1010 C   0  0  0  0  0  0  0  0  0  0  0  0
  190.3040  177.3610  141.0790 C   0  0  0  0  0  3  0  0  0  0  0  0
  182.0250  175.5840  135.3750 O   0  0  0  0  0  0  0  0  0  0  0  0
  183.1130  176.0820  135.1350 C   0  0  0  0  0  3  0  0  0  0  0  0
  2 14  1  0  0  0  0
  2 22  1  0  0  0  0
  3 20  1  0  0  0  0
  4 37  1  6  0  0  0
  4  1  1  0  0  0  0
  5 10  1  0  0  0  0
  6 11  1  0  0  0  0
  7 10  1  0  0  0  0
  7  3  2  0  0  0  0
  8 18  1  0  0  0  0
  9  3  1  0  0  0  0
  9  6  2  0  0  0  0
 10 23  2  0  0  0  0
 11 16  2  0  0  0  0
 12  4  1  0  0  0  0
 12  8  1  0  0  0  0
 13  9  1  0  0  0  0
 17  2  1  0  0  0  0
 17 13  1  0  0  0  0
 18 19  1  6  0  0  0
 18 25  1  0  0  0  0
 19  5  1  0  0  0  0
 20 15  1  1  0  0  0
 20 16  1  0  0  0  0
 21 13  1  0  0  0  0
 21  7  1  1  0  0  0
 22  6  1  0  0  0  0
 23 30  1  0  0  0  0
 23 28  1  0  0  0  0
 24  2  1  0  0  0  0
 26  8  2  0  0  0  0
 27  1  1  6  0  0  0
 27 25  1  0  0  0  0
 27 21  1  0  0  0  0
 28 15  2  0  0  0  0
 29 30  1  0  0  0  0
 30 31  2  0  0  0  0
 33 34  2  0  0  0  0
 34 31  1  0  0  0  0
 34 32  1  0  0  0  0
 35 29  2  0  0  0  0
 35 33  1  0  0  0  0
 37 36  2  0  0  0  0
M  END
>  <MODEL>
9

>  <REMARK>
 VINA RESULT:      -6.1      3.963      8.493
  Name = 
  2 active torsions:
  status: ('A' for Active; 'I' for Inactive)
    1  A    between atoms: C_4  and  C_37
    2  A    between atoms: C_23  and  C_30
                            x       y       z     vdW  Elec       q    Type
                         _______ _______ _______ _____ _____    ______ ____

>  <TORSDO>
F 2

$$$$
