=
 OpenBabel11122411443D

 37 42  0  0  1  0  0  0  0  0999 V2000
  190.5380  178.5730  144.0150 C   0  0  1  0  0  0  0  0  0  0  0  0
  187.0570  177.5620  144.7010 C   0  0  1  0  0  3  0  0  0  0  0  0
  185.5660  178.2590  142.0840 O   0  0  0  0  0  0  0  0  0  0  0  0
  189.4720  177.1030  145.4460 C   0  0  2  0  0  3  0  0  0  0  0  0
  186.8530  178.9100  144.0110 C   0  0  0  0  0  2  0  0  0  0  0  0
  188.3900  176.8270  144.4040 C   0  0  2  0  0  3  0  0  0  0  0  0
  185.4840  178.9360  143.3160 C   0  0  2  0  0  3  0  0  0  0  0  0
  188.9320  176.8790  146.8530 C   0  0  0  0  0  2  0  0  0  0  0  0
  188.9910  177.1510  143.0290 C   0  0  2  0  0  3  0  0  0  0  0  0
  191.5760  177.6580  143.7790 O   0  0  0  0  0  1  0  0  0  0  0  0
  185.5590  178.6680  146.4580 C   0  0  0  0  0  2  0  0  0  0  0  0
  187.7650  177.8170  147.1290 C   0  0  0  0  0  2  0  0  0  0  0  0
  189.5270  178.4670  143.0270 O   0  0  0  0  0  0  0  0  0  0  0  0
  185.2130  179.8680  140.3590 C   0  0  0  0  0  1  0  0  0  0  0  0
  186.2320  179.0920  141.1730 C   0  0  2  0  0  3  0  0  0  0  0  0
  186.5950  177.5670  146.1770 C   0  0  2  0  0  3  0  0  0  0  0  0
  188.0130  176.9440  142.0240 O   0  0  0  0  0  0  0  0  0  0  0  0
  189.9950  178.4070  145.3150 O   0  0  0  0  0  0  0  0  0  0  0  0
  184.3730  178.2520  144.1520 C   0  0  1  0  0  3  0  0  0  0  0  0
  191.1200  179.9680  143.9310 C   0  0  0  0  0  1  0  0  0  0  0  0
  187.0580  178.2280  140.2250 C   0  0  0  0  0  2  0  0  0  0  0  0
  188.3330  177.6940  140.8760 C   0  0  2  0  0  3  0  0  0  0  0  0
  184.2590  178.6130  145.6440 C   0  0  0  0  0  2  0  0  0  0  0  0
  182.9540  178.2560  142.0940 C   0  0  0  0  0  3  0  0  0  0  0  0
  183.0380  178.3710  143.4850 C   0  0  0  0  0  0  0  0  0  0  0  0
  181.8770  178.6090  144.2350 C   0  0  0  0  0  3  0  0  0  0  0  0
  179.5200  178.9580  144.3200 F   0  0  0  0  0  0  0  0  0  0  0  0
  180.5610  178.6120  142.2030 C   0  0  0  0  0  3  0  0  0  0  0  0
  180.6410  178.7280  143.5940 C   0  0  0  0  0  0  0  0  0  0  0  0
  181.7160  178.3760  141.4530 C   0  0  0  0  0  3  0  0  0  0  0  0
  189.0850  176.8170  139.8680 C   0  0  1  0  0  3  0  0  0  0  0  0
  189.3670  177.4620  138.5560 N   0  0  0  0  0  0  0  0  0  0  0  0
  190.4060  177.3740  139.5940 C   0  0  2  0  0  3  0  0  0  0  0  0
  191.5510  176.0320  139.1830 S   0  0  0  0  0  0  0  0  0  0  0  0
  191.4180  176.3820  137.4040 C   0  0  0  0  0  1  0  0  0  0  0  0
  188.9680  179.2300  137.1510 C   0  0  0  0  0  1  0  0  0  0  0  0
  188.9390  178.8000  138.5370 N   0  0  0  0  0  2  0  0  0  0  0  0
  1 20  1  6  0  0  0
  1 18  1  0  0  0  0
  2  5  1  1  0  0  0
  2 16  1  0  0  0  0
  3  7  1  0  0  0  0
  4  8  1  1  0  0  0
  6  2  1  0  0  0  0
  6  4  1  0  0  0  0
  7  5  1  0  0  0  0
  7 19  1  0  0  0  0
  8 12  1  0  0  0  0
  9  6  1  0  0  0  0
 10  1  1  0  0  0  0
 13  9  1  0  0  0  0
 13  1  1  0  0  0  0
 14 15  1  0  0  0  0
 15  3  1  0  0  0  0
 16 11  1  0  0  0  0
 16 12  1  0  0  0  0
 17  9  1  0  0  0  0
 18  4  1  0  0  0  0
 19 23  1  0  0  0  0
 21 22  1  0  0  0  0
 21 15  1  0  0  0  0
 22 17  1  0  0  0  0
 23 11  1  0  0  0  0
 24 25  1  0  0  0  0
 25 19  1  0  0  0  0
 25 26  2  0  0  0  0
 28 29  2  0  0  0  0
 29 26  1  0  0  0  0
 29 27  1  0  0  0  0
 30 24  2  0  0  0  0
 30 28  1  0  0  0  0
 31 22  1  0  0  0  0
 32 33  1  0  0  0  0
 32 31  1  0  0  0  0
 33 31  1  0  0  0  0
 34 33  1  0  0  0  0
 35 34  1  0  0  0  0
 36 37  1  0  0  0  0
 37 32  1  0  0  0  0
M  END
>  <MODEL>
1

>  <REMARK>
 VINA RESULT:      -8.7      0.000      0.000
  Name = 
  4 active torsions:
  status: ('A' for Active; 'I' for Inactive)
    1  A    between atoms: C_1  and  C_27
    2  A    between atoms: N_4  and  N_37
    3  A    between atoms: S_8  and  C_12
    4  A    between atoms: C_23  and  C_30
                            x       y       z     vdW  Elec       q    Type
                         _______ _______ _______ _____ _____    ______ ____

>  <TORSDO>
F 4

$$$$
=
 OpenBabel11122411443D

 37 42  0  0  1  0  0  0  0  0999 V2000
  183.8920  177.8480  140.7080 C   0  0  1  0  0  0  0  0  0  0  0  0
  185.6260  178.8130  143.8170 C   0  0  1  0  0  3  0  0  0  0  0  0
  188.4360  177.5610  143.5030 O   0  0  0  0  0  0  0  0  0  0  0  0
  183.6790  179.5150  142.2950 C   0  0  2  0  0  3  0  0  0  0  0  0
  186.0440  177.3500  143.6760 C   0  0  0  0  0  2  0  0  0  0  0  0
  185.1910  179.5370  142.5160 C   0  0  2  0  0  3  0  0  0  0  0  0
  187.4030  177.1300  144.3570 C   0  0  2  0  0  3  0  0  0  0  0  0
  182.9470  179.9790  143.5480 C   0  0  0  0  0  2  0  0  0  0  0  0
  185.8440  178.9840  141.2420 C   0  0  2  0  0  3  0  0  0  0  0  0
  183.6180  178.7460  139.6650 O   0  0  0  0  0  1  0  0  0  0  0  0
  184.9560  177.9970  146.1490 C   0  0  0  0  0  2  0  0  0  0  0  0
  183.2640  179.0590  144.7190 C   0  0  0  0  0  2  0  0  0  0  0  0
  185.2870  177.7170  140.9180 O   0  0  0  0  0  0  0  0  0  0  0  0
  189.7030  175.6380  142.8850 C   0  0  0  0  0  1  0  0  0  0  0  0
  188.5970  176.6000  142.4940 C   0  0  2  0  0  3  0  0  0  0  0  0
  184.7520  179.0700  145.0670 C   0  0  2  0  0  3  0  0  0  0  0  0
  187.2510  178.9490  141.4070 O   0  0  0  0  0  0  0  0  0  0  0  0
  183.2330  178.2340  141.9030 O   0  0  0  0  0  0  0  0  0  0  0  0
  187.5410  177.9100  145.6890 C   0  0  1  0  0  3  0  0  0  0  0  0
  183.3570  176.4900  140.3030 C   0  0  0  0  0  1  0  0  0  0  0  0
  188.9960  177.3030  141.2000 C   0  0  0  0  0  2  0  0  0  0  0  0
  187.8200  178.0090  140.5270 C   0  0  2  0  0  3  0  0  0  0  0  0
  186.3800  177.8360  146.6980 C   0  0  0  0  0  2  0  0  0  0  0  0
  189.0080  177.9480  147.7120 C   0  0  0  0  0  3  0  0  0  0  0  0
  188.8390  177.6050  146.3670 C   0  0  0  0  0  0  0  0  0  0  0  0
  189.8900  176.9920  145.6690 C   0  0  0  0  0  3  0  0  0  0  0  0
  192.1140  176.1340  145.6390 F   0  0  0  0  0  0  0  0  0  0  0  0
  191.2650  177.0700  147.6600 C   0  0  0  0  0  3  0  0  0  0  0  0
  191.1000  176.7250  146.3150 C   0  0  0  0  0  0  0  0  0  0  0  0
  190.2190  177.6810  148.3590 C   0  0  0  0  0  3  0  0  0  0  0  0
  188.3120  178.7100  139.2560 C   0  0  1  0  0  3  0  0  0  0  0  0
  189.1510  177.8710  138.3560 N   0  0  0  0  0  0  0  0  0  0  0  0
  187.7240  178.0900  138.0720 C   0  0  2  0  0  3  0  0  0  0  0  0
  187.5580  179.3310  136.7640 S   0  0  0  0  0  0  0  0  0  0  0  0
  187.0390  178.0760  135.5550 C   0  0  0  0  0  1  0  0  0  0  0  0
  190.0760  175.8280  137.8770 C   0  0  0  0  0  1  0  0  0  0  0  0
  189.2610  176.5540  138.8340 N   0  0  0  0  0  2  0  0  0  0  0  0
  1 20  1  6  0  0  0
  1 13  1  0  0  0  0
  1 18  1  0  0  0  0
  2  5  1  6  0  0  0
  2 16  1  0  0  0  0
  3  7  1  0  0  0  0
  4  6  1  0  0  0  0
  4  8  1  1  0  0  0
  5  7  1  0  0  0  0
  6  2  1  0  0  0  0
  7 19  1  0  0  0  0
  8 12  1  0  0  0  0
  9 17  1  0  0  0  0
  9  6  1  0  0  0  0
 10  1  1  0  0  0  0
 11 23  1  0  0  0  0
 12 16  1  0  0  0  0
 13  9  1  0  0  0  0
 15 14  1  0  0  0  0
 15  3  1  0  0  0  0
 16 11  1  0  0  0  0
 18  4  1  0  0  0  0
 19 25  1  0  0  0  0
 19 23  1  0  0  0  0
 21 15  1  0  0  0  0
 22 21  1  0  0  0  0
 22 17  1  0  0  0  0
 24 30  1  0  0  0  0
 25 24  2  0  0  0  0
 26 29  2  0  0  0  0
 26 25  1  0  0  0  0
 27 29  1  0  0  0  0
 28 30  2  0  0  0  0
 29 28  1  0  0  0  0
 31 22  1  0  0  0  0
 32 37  1  0  0  0  0
 32 31  1  0  0  0  0
 33 32  1  0  0  0  0
 33 31  1  0  0  0  0
 34 33  1  0  0  0  0
 35 34  1  0  0  0  0
 36 37  1  0  0  0  0
M  END
>  <MODEL>
2

>  <REMARK>
 VINA RESULT:      -7.9      2.844      6.202
  Name = 
  4 active torsions:
  status: ('A' for Active; 'I' for Inactive)
    1  A    between atoms: C_1  and  C_27
    2  A    between atoms: N_4  and  N_37
    3  A    between atoms: S_8  and  C_12
    4  A    between atoms: C_23  and  C_30
                            x       y       z     vdW  Elec       q    Type
                         _______ _______ _______ _____ _____    ______ ____

>  <TORSDO>
F 4

$$$$
=
 OpenBabel11122411443D

 37 42  0  0  1  0  0  0  0  0999 V2000
  184.4680  173.9470  136.9910 C   0  0  1  0  0  0  0  0  0  0  0  0
  181.4710  175.8490  137.9910 C   0  0  1  0  0  3  0  0  0  0  0  0
  182.5950  178.0800  139.8120 O   0  0  0  0  0  0  0  0  0  0  0  0
  182.3390  174.2790  136.1530 C   0  0  2  0  0  3  0  0  0  0  0  0
  182.2270  175.7540  139.3150 C   0  0  0  0  0  2  0  0  0  0  0  0
  182.3160  175.7060  136.6990 C   0  0  2  0  0  3  0  0  0  0  0  0
  181.8600  176.9480  140.2100 C   0  0  2  0  0  3  0  0  0  0  0  0
  180.9260  173.7220  136.0440 C   0  0  0  0  0  2  0  0  0  0  0  0
  183.7750  176.1580  136.8510 C   0  0  2  0  0  3  0  0  0  0  0  0
  185.0310  174.0100  135.7070 O   0  0  0  0  0  1  0  0  0  0  0  0
  179.5850  174.9030  139.4420 C   0  0  0  0  0  2  0  0  0  0  0  0
  180.2600  173.6910  137.4130 C   0  0  0  0  0  2  0  0  0  0  0  0
  184.5010  175.2140  137.6260 O   0  0  0  0  0  0  0  0  0  0  0  0
  184.0730  178.6380  141.5990 C   0  0  0  0  0  1  0  0  0  0  0  0
  183.9130  177.9270  140.2680 C   0  0  2  0  0  3  0  0  0  0  0  0
  180.1230  175.0900  138.0130 C   0  0  2  0  0  3  0  0  0  0  0  0
  183.8110  177.4690  137.3890 O   0  0  0  0  0  0  0  0  0  0  0  0
  183.1460  173.4360  136.9470 O   0  0  0  0  0  0  0  0  0  0  0  0
  180.3570  177.3150  140.1350 C   0  0  1  0  0  3  0  0  0  0  0  0
  185.3060  172.9950  137.8180 C   0  0  0  0  0  1  0  0  0  0  0  0
  184.8630  178.5630  139.2580 C   0  0  0  0  0  2  0  0  0  0  0  0
  185.0540  177.7040  138.0090 C   0  0  2  0  0  3  0  0  0  0  0  0
  179.3240  176.1790  140.2520 C   0  0  0  0  0  2  0  0  0  0  0  0
  179.7380  179.6970  140.5760 C   0  0  0  0  0  3  0  0  0  0  0  0
  180.0200  178.4240  141.0820 C   0  0  0  0  0  0  0  0  0  0  0  0
  179.9950  178.2050  142.4670 C   0  0  0  0  0  3  0  0  0  0  0  0
  179.6660  179.0430  144.6750 F   0  0  0  0  0  0  0  0  0  0  0  0
  179.4070  180.5260  142.8270 C   0  0  0  0  0  3  0  0  0  0  0  0
  179.6890  179.2550  143.3370 C   0  0  0  0  0  0  0  0  0  0  0  0
  179.4310  180.7470  141.4470 C   0  0  0  0  0  3  0  0  0  0  0  0
  185.9960  178.4260  137.0390 C   0  0  1  0  0  3  0  0  0  0  0  0
  187.4360  178.3960  137.4160 N   0  0  0  0  0  0  0  0  0  0  0  0
  186.9010  177.4730  136.4040 C   0  0  2  0  0  3  0  0  0  0  0  0
  187.3440  178.0730  134.7530 S   0  0  0  0  0  0  0  0  0  0  0  0
  189.0530  177.4770  134.9290 C   0  0  0  0  0  1  0  0  0  0  0  0
  188.7210  178.2760  139.3120 C   0  0  0  0  0  1  0  0  0  0  0  0
  187.6490  177.6310  138.5750 N   0  0  0  0  0  2  0  0  0  0  0  0
  1 13  1  0  0  0  0
  1 20  1  1  0  0  0
  2 16  1  0  0  0  0
  2  5  1  1  0  0  0
  3  7  1  0  0  0  0
  3 15  1  0  0  0  0
  4  8  1  1  0  0  0
  4  6  1  0  0  0  0
  4 18  1  0  0  0  0
  5  7  1  0  0  0  0
  6  9  1  0  0  0  0
  6  2  1  0  0  0  0
  8 12  1  0  0  0  0
  9 17  1  0  0  0  0
  9 13  1  0  0  0  0
 10  1  1  0  0  0  0
 11 23  1  0  0  0  0
 12 16  1  0  0  0  0
 15 14  1  0  0  0  0
 16 11  1  0  0  0  0
 17 22  1  0  0  0  0
 18  1  1  0  0  0  0
 19  7  1  0  0  0  0
 19 23  1  0  0  0  0
 19 25  1  0  0  0  0
 21 15  1  0  0  0  0
 22 21  1  0  0  0  0
 24 25  2  0  0  0  0
 24 30  1  0  0  0  0
 25 26  1  0  0  0  0
 26 29  2  0  0  0  0
 28 29  1  0  0  0  0
 29 27  1  0  0  0  0
 30 28  2  0  0  0  0
 31 32  1  0  0  0  0
 31 22  1  0  0  0  0
 32 37  1  0  0  0  0
 33 31  1  0  0  0  0
 33 32  1  0  0  0  0
 34 35  1  0  0  0  0
 34 33  1  0  0  0  0
 37 36  1  0  0  0  0
M  END
>  <MODEL>
3

>  <REMARK>
 VINA RESULT:      -7.8      4.484      7.249
  Name = 
  4 active torsions:
  status: ('A' for Active; 'I' for Inactive)
    1  A    between atoms: C_1  and  C_27
    2  A    between atoms: N_4  and  N_37
    3  A    between atoms: S_8  and  C_12
    4  A    between atoms: C_23  and  C_30
                            x       y       z     vdW  Elec       q    Type
                         _______ _______ _______ _____ _____    ______ ____

>  <TORSDO>
F 4

$$$$
=
 OpenBabel11122411443D

 37 42  0  0  1  0  0  0  0  0999 V2000
  190.6520  178.3380  143.6910 C   0  0  1  0  0  0  0  0  0  0  0  0
  187.1530  177.4650  142.9170 C   0  0  1  0  0  3  0  0  0  0  0  0
  186.9520  177.8950  139.8620 O   0  0  0  0  0  0  0  0  0  0  0  0
  188.9940  177.0510  144.6600 C   0  0  2  0  0  3  0  0  0  0  0  0
  187.3420  178.7320  142.0850 C   0  0  0  0  0  2  0  0  0  0  0  0
  188.4380  176.6810  143.2860 C   0  0  2  0  0  3  0  0  0  0  0  0
  186.3990  178.7030  140.8720 C   0  0  2  0  0  3  0  0  0  0  0  0
  187.8980  176.9920  145.7160 C   0  0  0  0  0  2  0  0  0  0  0  0
  189.5830  176.8410  142.2750 C   0  0  2  0  0  3  0  0  0  0  0  0
  191.6350  177.3870  144.0050 O   0  0  0  0  0  1  0  0  0  0  0  0
  185.1240  178.7810  143.7570 C   0  0  0  0  0  2  0  0  0  0  0  0
  186.7830  177.9730  145.3790 C   0  0  0  0  0  2  0  0  0  0  0  0
  190.1490  178.1400  142.3800 O   0  0  0  0  0  0  0  0  0  0  0  0
  187.4590  179.3100  138.0110 C   0  0  0  0  0  1  0  0  0  0  0  0
  187.9900  178.6120  139.2490 C   0  0  2  0  0  3  0  0  0  0  0  0
  186.1110  177.6390  144.0480 C   0  0  2  0  0  3  0  0  0  0  0  0
  189.1100  176.5420  140.9730 O   0  0  0  0  0  0  0  0  0  0  0  0
  189.6020  178.3250  144.6450 O   0  0  0  0  0  0  0  0  0  0  0  0
  184.9990  178.1340  141.2140 C   0  0  1  0  0  3  0  0  0  0  0  0
  191.3000  179.7060  143.7340 C   0  0  0  0  0  1  0  0  0  0  0  0
  189.0840  177.6360  138.8280 C   0  0  0  0  0  2  0  0  0  0  0  0
  189.9300  177.1560  140.0070 C   0  0  2  0  0  3  0  0  0  0  0  0
  184.2880  178.6590  142.4750 C   0  0  0  0  0  2  0  0  0  0  0  0
  183.8550  179.4320  139.4100 C   0  0  0  0  0  3  0  0  0  0  0  0
  184.0810  178.2010  140.0340 C   0  0  0  0  0  0  0  0  0  0  0  0
  183.4380  177.0500  139.5560 C   0  0  0  0  0  3  0  0  0  0  0  0
  181.9550  176.0210  137.9990 F   0  0  0  0  0  0  0  0  0  0  0  0
  182.3520  178.3660  137.8380 C   0  0  0  0  0  3  0  0  0  0  0  0
  182.5760  177.1340  138.4590 C   0  0  0  0  0  0  0  0  0  0  0  0
  182.9910  179.5150  138.3130 C   0  0  0  0  0  3  0  0  0  0  0  0
  190.9820  176.1620  139.5020 C   0  0  1  0  0  3  0  0  0  0  0  0
  190.5360  175.2840  138.3840 N   0  0  0  0  0  0  0  0  0  0  0  0
  191.3600  176.4760  138.1270 C   0  0  2  0  0  3  0  0  0  0  0  0
  193.0760  175.9670  137.8440 S   0  0  0  0  0  0  0  0  0  0  0  0
  192.5630  174.2920  137.3570 C   0  0  0  0  0  1  0  0  0  0  0  0
  188.8900  174.6670  136.9120 C   0  0  0  0  0  1  0  0  0  0  0  0
  189.2350  175.6050  137.9650 N   0  0  0  0  0  2  0  0  0  0  0  0
  1 20  1  1  0  0  0
  1 10  1  0  0  0  0
  1 18  1  0  0  0  0
  2  5  1  1  0  0  0
  2  6  1  0  0  0  0
  2 16  1  0  0  0  0
  3  7  1  0  0  0  0
  4  8  1  1  0  0  0
  6  4  1  0  0  0  0
  7 19  1  0  0  0  0
  7  5  1  0  0  0  0
  9 13  1  0  0  0  0
  9  6  1  0  0  0  0
 11 16  1  0  0  0  0
 12  8  1  0  0  0  0
 13  1  1  0  0  0  0
 14 15  1  0  0  0  0
 15  3  1  0  0  0  0
 16 12  1  0  0  0  0
 17  9  1  0  0  0  0
 18  4  1  0  0  0  0
 19 23  1  0  0  0  0
 21 15  1  0  0  0  0
 21 22  1  0  0  0  0
 22 17  1  0  0  0  0
 23 11  1  0  0  0  0
 24 25  1  0  0  0  0
 25 19  1  0  0  0  0
 26 25  2  0  0  0  0
 27 29  1  0  0  0  0
 28 30  1  0  0  0  0
 28 29  2  0  0  0  0
 29 26  1  0  0  0  0
 30 24  2  0  0  0  0
 31 22  1  0  0  0  0
 32 31  1  0  0  0  0
 33 32  1  0  0  0  0
 33 31  1  0  0  0  0
 34 33  1  0  0  0  0
 35 34  1  0  0  0  0
 36 37  1  0  0  0  0
 37 32  1  0  0  0  0
M  END
>  <MODEL>
4

>  <REMARK>
 VINA RESULT:      -7.6      2.146      2.946
  Name = 
  4 active torsions:
  status: ('A' for Active; 'I' for Inactive)
    1  A    between atoms: C_1  and  C_27
    2  A    between atoms: N_4  and  N_37
    3  A    between atoms: S_8  and  C_12
    4  A    between atoms: C_23  and  C_30
                            x       y       z     vdW  Elec       q    Type
                         _______ _______ _______ _____ _____    ______ ____

>  <TORSDO>
F 4

$$$$
=
 OpenBabel11122411443D

 37 42  0  0  1  0  0  0  0  0999 V2000
  182.9460  180.0290  138.7520 C   0  0  1  0  0  0  0  0  0  0  0  0
  185.6140  178.0040  140.2950 C   0  0  1  0  0  3  0  0  0  0  0  0
  185.0960  178.3020  143.3280 O   0  0  0  0  0  0  0  0  0  0  0  0
  184.2930  178.2660  138.1070 C   0  0  2  0  0  3  0  0  0  0  0  0
  185.6260  179.2490  141.1800 C   0  0  0  0  0  2  0  0  0  0  0  0
  184.2980  177.7110  139.5300 C   0  0  2  0  0  3  0  0  0  0  0  0
  186.1370  178.8850  142.5820 C   0  0  2  0  0  3  0  0  0  0  0  0
  185.5570  177.8490  137.3650 C   0  0  0  0  0  2  0  0  0  0  0  0
  183.0370  178.2400  140.2270 C   0  0  2  0  0  3  0  0  0  0  0  0
  181.8330  179.4750  138.0990 O   0  0  0  0  0  1  0  0  0  0  0  0
  188.1090  178.5580  140.1420 C   0  0  0  0  0  2  0  0  0  0  0  0
  186.7920  178.3850  138.0750 C   0  0  0  0  0  2  0  0  0  0  0  0
  182.9760  179.6560  140.1190 O   0  0  0  0  0  0  0  0  0  0  0  0
  184.5870  179.7820  145.1270 C   0  0  0  0  0  1  0  0  0  0  0  0
  184.2210  179.3220  143.7280 C   0  0  2  0  0  3  0  0  0  0  0  0
  186.9240  177.8250  139.4910 C   0  0  2  0  0  3  0  0  0  0  0  0
  183.0080  177.7810  141.5680 O   0  0  0  0  0  0  0  0  0  0  0  0
  184.1530  179.6700  138.1010 O   0  0  0  0  0  0  0  0  0  0  0  0
  187.3120  177.8760  142.5500 C   0  0  1  0  0  3  0  0  0  0  0  0
  182.8160  181.5360  138.6890 C   0  0  0  0  0  1  0  0  0  0  0  0
  182.7970  178.7740  143.7520 C   0  0  0  0  0  2  0  0  0  0  0  0
  182.2000  178.6270  142.3530 C   0  0  2  0  0  3  0  0  0  0  0  0
  188.4730  178.1420  141.5740 C   0  0  0  0  0  2  0  0  0  0  0  0
  186.9420  177.4590  144.9870 C   0  0  0  0  0  3  0  0  0  0  0  0
  187.8400  177.6110  143.9250 C   0  0  0  0  0  0  0  0  0  0  0  0
  189.2190  177.5250  144.1630 C   0  0  0  0  0  3  0  0  0  0  0  0
  191.0270  177.2060  145.6840 F   0  0  0  0  0  0  0  0  0  0  0  0
  188.7930  177.1360  146.5150 C   0  0  0  0  0  3  0  0  0  0  0  0
  189.6940  177.2870  145.4560 C   0  0  0  0  0  0  0  0  0  0  0  0
  187.4180  177.2210  146.2800 C   0  0  0  0  0  3  0  0  0  0  0  0
  180.7870  178.0460  142.4660 C   0  0  1  0  0  3  0  0  0  0  0  0
  179.6830  179.0170  142.2350 N   0  0  0  0  0  0  0  0  0  0  0  0
  180.1110  178.0940  141.1730 C   0  0  2  0  0  3  0  0  0  0  0  0
  178.9310  176.7240  141.0600 S   0  0  0  0  0  0  0  0  0  0  0  0
  180.1150  175.6990  140.1370 C   0  0  0  0  0  1  0  0  0  0  0  0
  179.0250  181.1340  141.6470 C   0  0  0  0  0  1  0  0  0  0  0  0
  180.1780  180.2840  141.8810 N   0  0  0  0  0  2  0  0  0  0  0  0
  1 20  1  6  0  0  0
  1 13  1  0  0  0  0
  2  5  1  6  0  0  0
  3 15  1  0  0  0  0
  4  8  1  1  0  0  0
  4  6  1  0  0  0  0
  5  7  1  0  0  0  0
  6  9  1  0  0  0  0
  6  2  1  0  0  0  0
  7  3  1  0  0  0  0
  8 12  1  0  0  0  0
  9 17  1  0  0  0  0
 10  1  1  0  0  0  0
 11 23  1  0  0  0  0
 12 16  1  0  0  0  0
 13  9  1  0  0  0  0
 15 21  1  0  0  0  0
 15 14  1  0  0  0  0
 16 11  1  0  0  0  0
 16  2  1  0  0  0  0
 17 22  1  0  0  0  0
 18  4  1  0  0  0  0
 18  1  1  0  0  0  0
 19  7  1  0  0  0  0
 19 25  1  0  0  0  0
 22 31  1  0  0  0  0
 22 21  1  0  0  0  0
 23 19  1  0  0  0  0
 24 30  1  0  0  0  0
 25 26  1  0  0  0  0
 25 24  2  0  0  0  0
 26 29  2  0  0  0  0
 29 27  1  0  0  0  0
 29 28  1  0  0  0  0
 30 28  2  0  0  0  0
 32 31  1  0  0  0  0
 33 32  1  0  0  0  0
 33 31  1  0  0  0  0
 34 33  1  0  0  0  0
 35 34  1  0  0  0  0
 36 37  1  0  0  0  0
 37 32  1  0  0  0  0
M  END
>  <MODEL>
5

>  <REMARK>
 VINA RESULT:      -7.6      4.273      8.046
  Name = 
  4 active torsions:
  status: ('A' for Active; 'I' for Inactive)
    1  A    between atoms: C_1  and  C_27
    2  A    between atoms: N_4  and  N_37
    3  A    between atoms: S_8  and  C_12
    4  A    between atoms: C_23  and  C_30
                            x       y       z     vdW  Elec       q    Type
                         _______ _______ _______ _____ _____    ______ ____

>  <TORSDO>
F 4

$$$$
=
 OpenBabel11122411443D

 37 42  0  0  1  0  0  0  0  0999 V2000
  187.3610  178.6720  136.4450 C   0  0  1  0  0  0  0  0  0  0  0  0
  188.6800  177.0210  139.4670 C   0  0  1  0  0  3  0  0  0  0  0  0
  186.7940  177.9970  141.7140 O   0  0  0  0  0  0  0  0  0  0  0  0
  188.6290  176.7960  136.9090 C   0  0  2  0  0  3  0  0  0  0  0  0
  188.4100  178.4330  139.9840 C   0  0  0  0  0  2  0  0  0  0  0  0
  187.8750  176.5750  138.2190 C   0  0  2  0  0  3  0  0  0  0  0  0
  188.1280  178.3880  141.4940 C   0  0  2  0  0  3  0  0  0  0  0  0
  190.0340  176.2120  136.9920 C   0  0  0  0  0  2  0  0  0  0  0  0
  186.5090  177.2600  138.0760 C   0  0  2  0  0  3  0  0  0  0  0  0
  186.6480  177.9960  135.4420 O   0  0  0  0  0  1  0  0  0  0  0  0
  190.9810  177.5030  140.4810 C   0  0  0  0  0  2  0  0  0  0  0  0
  190.8230  176.8830  138.1080 C   0  0  0  0  0  2  0  0  0  0  0  0
  186.6790  178.6150  137.6860 O   0  0  0  0  0  0  0  0  0  0  0  0
  185.6580  179.8490  142.6990 C   0  0  0  0  0  1  0  0  0  0  0  0
  185.9650  179.0890  141.4210 C   0  0  2  0  0  3  0  0  0  0  0  0
  190.1830  176.6540  139.4770 C   0  0  2  0  0  3  0  0  0  0  0  0
  185.7780  177.1140  139.2830 O   0  0  0  0  0  0  0  0  0  0  0  0
  188.6800  178.1650  136.5660 O   0  0  0  0  0  0  0  0  0  0  0  0
  189.0400  177.3870  142.2460 C   0  0  1  0  0  3  0  0  0  0  0  0
  187.4600  180.1280  136.0400 C   0  0  0  0  0  1  0  0  0  0  0  0
  184.6550  178.5740  140.8330 C   0  0  0  0  0  2  0  0  0  0  0  0
  184.7990  178.1220  139.3810 C   0  0  2  0  0  3  0  0  0  0  0  0
  190.5510  177.4160  141.9510 C   0  0  0  0  0  2  0  0  0  0  0  0
  189.8760  177.6370  144.5880 C   0  0  0  0  0  3  0  0  0  0  0  0
  188.7970  177.4320  143.7220 C   0  0  0  0  0  0  0  0  0  0  0  0
  187.5080  177.2610  144.2450 C   0  0  0  0  0  3  0  0  0  0  0  0
  186.0550  177.1290  146.1320 F   0  0  0  0  0  0  0  0  0  0  0  0
  188.3830  177.5010  146.4900 C   0  0  0  0  0  3  0  0  0  0  0  0
  187.3020  177.2960  145.6280 C   0  0  0  0  0  0  0  0  0  0  0  0
  189.6690  177.6720  145.9710 C   0  0  0  0  0  3  0  0  0  0  0  0
  183.4500  177.5940  138.8800 C   0  0  1  0  0  3  0  0  0  0  0  0
  182.4710  178.6410  138.4790 N   0  0  0  0  0  0  0  0  0  0  0  0
  183.2650  177.9240  137.4700 C   0  0  2  0  0  3  0  0  0  0  0  0
  182.2340  176.6570  136.6860 S   0  0  0  0  0  0  0  0  0  0  0  0
  182.7520  175.4010  137.8940 C   0  0  0  0  0  1  0  0  0  0  0  0
  181.9330  180.8690  138.3990 C   0  0  0  0  0  1  0  0  0  0  0  0
  183.0250  179.9280  138.5770 N   0  0  0  0  0  2  0  0  0  0  0  0
  1 20  1  6  0  0  0
  1 18  1  0  0  0  0
  1 13  1  0  0  0  0
  2 16  1  0  0  0  0
  2  5  1  6  0  0  0
  4  8  1  1  0  0  0
  4  6  1  0  0  0  0
  5  7  1  0  0  0  0
  6  2  1  0  0  0  0
  7  3  1  0  0  0  0
  7 19  1  0  0  0  0
  8 12  1  0  0  0  0
  9  6  1  0  0  0  0
  9 17  1  0  0  0  0
 10  1  1  0  0  0  0
 11 23  1  0  0  0  0
 12 16  1  0  0  0  0
 13  9  1  0  0  0  0
 15  3  1  0  0  0  0
 15 14  1  0  0  0  0
 16 11  1  0  0  0  0
 17 22  1  0  0  0  0
 18  4  1  0  0  0  0
 19 25  1  0  0  0  0
 21 15  1  0  0  0  0
 22 21  1  0  0  0  0
 23 19  1  0  0  0  0
 24 30  1  0  0  0  0
 25 26  1  0  0  0  0
 25 24  2  0  0  0  0
 26 29  2  0  0  0  0
 29 27  1  0  0  0  0
 29 28  1  0  0  0  0
 30 28  2  0  0  0  0
 31 22  1  0  0  0  0
 32 37  1  0  0  0  0
 32 31  1  0  0  0  0
 33 32  1  0  0  0  0
 33 31  1  0  0  0  0
 34 33  1  0  0  0  0
 34 35  1  0  0  0  0
 36 37  1  0  0  0  0
M  END
>  <MODEL>
6

>  <REMARK>
 VINA RESULT:      -7.1      3.457      6.931
  Name = 
  4 active torsions:
  status: ('A' for Active; 'I' for Inactive)
    1  A    between atoms: C_1  and  C_27
    2  A    between atoms: N_4  and  N_37
    3  A    between atoms: S_8  and  C_12
    4  A    between atoms: C_23  and  C_30
                            x       y       z     vdW  Elec       q    Type
                         _______ _______ _______ _____ _____    ______ ____

>  <TORSDO>
F 4

$$$$
=
 OpenBabel11122411443D

 37 42  0  0  1  0  0  0  0  0999 V2000
  184.1980  177.2830  138.4170 C   0  0  1  0  0  0  0  0  0  0  0  0
  184.1540  178.9430  141.7100 C   0  0  1  0  0  3  0  0  0  0  0  0
  186.8590  178.1340  142.9720 O   0  0  0  0  0  0  0  0  0  0  0  0
  183.1240  179.0990  139.3630 C   0  0  2  0  0  3  0  0  0  0  0  0
  184.7000  177.5630  142.0720 C   0  0  0  0  0  2  0  0  0  0  0  0
  184.3390  179.3970  140.2400 C   0  0  2  0  0  3  0  0  0  0  0  0
  185.5810  177.6650  143.3270 C   0  0  2  0  0  3  0  0  0  0  0  0
  181.8480  179.6080  140.0210 C   0  0  0  0  0  2  0  0  0  0  0  0
  185.5630  178.7850  139.5430 C   0  0  2  0  0  3  0  0  0  0  0  0
  184.3880  177.9700  137.2080 O   0  0  0  0  0  1  0  0  0  0  0  0
  182.5160  178.3640  143.5910 C   0  0  0  0  0  2  0  0  0  0  0  0
  181.6360  178.9260  141.3660 C   0  0  0  0  0  2  0  0  0  0  0  0
  185.3290  177.4120  139.2620 O   0  0  0  0  0  0  0  0  0  0  0  0
  188.4120  176.3760  143.3990 C   0  0  0  0  0  1  0  0  0  0  0  0
  187.5570  177.0810  142.3630 C   0  0  2  0  0  3  0  0  0  0  0  0
  182.7720  179.2270  142.3440 C   0  0  2  0  0  3  0  0  0  0  0  0
  186.7180  179.0040  140.3360 O   0  0  0  0  0  0  0  0  0  0  0  0
  183.0210  177.7210  139.0750 O   0  0  0  0  0  0  0  0  0  0  0  0
  185.0030  178.6350  144.3880 C   0  0  1  0  0  3  0  0  0  0  0  0
  184.0290  175.8140  138.0940 C   0  0  0  0  0  1  0  0  0  0  0  0
  188.4700  177.6520  141.2820 C   0  0  0  0  0  2  0  0  0  0  0  0
  187.7080  178.0550  140.0200 C   0  0  2  0  0  3  0  0  0  0  0  0
  183.5110  178.5150  144.7490 C   0  0  0  0  0  2  0  0  0  0  0  0
  185.6780  179.6780  146.5570 C   0  0  0  0  0  3  0  0  0  0  0  0
  185.8390  178.6440  145.6300 C   0  0  0  0  0  0  0  0  0  0  0  0
  186.7860  177.6370  145.8670 C   0  0  0  0  0  3  0  0  0  0  0  0
  188.4810  176.6950  147.2550 F   0  0  0  0  0  0  0  0  0  0  0  0
  187.4020  178.7030  147.9520 C   0  0  0  0  0  3  0  0  0  0  0  0
  187.5650  177.6680  147.0270 C   0  0  0  0  0  0  0  0  0  0  0  0
  186.4590  179.7080  147.7180 C   0  0  0  0  0  3  0  0  0  0  0  0
  188.6930  178.6420  139.0030 C   0  0  1  0  0  3  0  0  0  0  0  0
  189.8150  177.7420  138.6160 N   0  0  0  0  0  0  0  0  0  0  0  0
  188.6360  177.8950  137.7500 C   0  0  2  0  0  3  0  0  0  0  0  0
  189.0450  178.9990  136.3730 S   0  0  0  0  0  0  0  0  0  0  0  0
  189.4040  177.5950  135.2740 C   0  0  0  0  0  1  0  0  0  0  0  0
  190.3430  175.5270  138.3430 C   0  0  0  0  0  1  0  0  0  0  0  0
  189.6960  176.4810  139.2250 N   0  0  0  0  0  2  0  0  0  0  0  0
  1 20  1  6  0  0  0
  1 18  1  0  0  0  0
  1 13  1  0  0  0  0
  2  5  1  6  0  0  0
  2 16  1  0  0  0  0
  3  7  1  0  0  0  0
  4  8  1  1  0  0  0
  4  6  1  0  0  0  0
  5  7  1  0  0  0  0
  6  2  1  0  0  0  0
  7 19  1  0  0  0  0
  8 12  1  0  0  0  0
  9  6  1  0  0  0  0
  9 17  1  0  0  0  0
 10  1  1  0  0  0  0
 11 23  1  0  0  0  0
 12 16  1  0  0  0  0
 13  9  1  0  0  0  0
 15  3  1  0  0  0  0
 15 14  1  0  0  0  0
 16 11  1  0  0  0  0
 18  4  1  0  0  0  0
 19 23  1  0  0  0  0
 19 25  1  0  0  0  0
 21 15  1  0  0  0  0
 22 17  1  0  0  0  0
 22 21  1  0  0  0  0
 24 30  1  0  0  0  0
 25 26  1  0  0  0  0
 25 24  2  0  0  0  0
 26 29  2  0  0  0  0
 29 27  1  0  0  0  0
 29 28  1  0  0  0  0
 30 28  2  0  0  0  0
 31 22  1  0  0  0  0
 32 31  1  0  0  0  0
 32 37  1  0  0  0  0
 33 32  1  0  0  0  0
 33 31  1  0  0  0  0
 34 33  1  0  0  0  0
 35 34  1  0  0  0  0
 36 37  1  0  0  0  0
M  END
>  <MODEL>
7

>  <REMARK>
 VINA RESULT:      -7.0      2.634      5.901
  Name = 
  4 active torsions:
  status: ('A' for Active; 'I' for Inactive)
    1  A    between atoms: C_1  and  C_27
    2  A    between atoms: N_4  and  N_37
    3  A    between atoms: S_8  and  C_12
    4  A    between atoms: C_23  and  C_30
                            x       y       z     vdW  Elec       q    Type
                         _______ _______ _______ _____ _____    ______ ____

>  <TORSDO>
F 4

$$$$
=
 OpenBabel11122411443D

 37 42  0  0  1  0  0  0  0  0999 V2000
  185.7050  173.5510  136.6280 C   0  0  1  0  0  0  0  0  0  0  0  0
  182.8570  175.8710  136.2950 C   0  0  1  0  0  3  0  0  0  0  0  0
  183.6670  178.2790  138.0580 O   0  0  0  0  0  0  0  0  0  0  0  0
  184.0190  173.9230  135.0910 C   0  0  2  0  0  3  0  0  0  0  0  0
  183.1370  175.9460  137.7950 C   0  0  0  0  0  2  0  0  0  0  0  0
  184.0340  175.4200  135.3930 C   0  0  2  0  0  3  0  0  0  0  0  0
  182.6870  177.3090  138.3410 C   0  0  2  0  0  3  0  0  0  0  0  0
  182.6460  173.4890  134.5940 C   0  0  0  0  0  2  0  0  0  0  0  0
  185.4220  175.7550  135.9580 C   0  0  2  0  0  3  0  0  0  0  0  0
  186.6450  173.3290  135.6100 O   0  0  0  0  0  1  0  0  0  0  0  0
  180.4950  175.3800  137.1500 C   0  0  0  0  0  2  0  0  0  0  0  0
  181.5870  173.7660  135.6530 C   0  0  0  0  0  2  0  0  0  0  0  0
  185.7210  174.9030  137.0550 O   0  0  0  0  0  0  0  0  0  0  0  0
  184.5740  179.0090  140.1390 C   0  0  0  0  0  1  0  0  0  0  0  0
  184.7380  178.0890  138.9440 C   0  0  2  0  0  3  0  0  0  0  0  0
  181.4750  175.2570  135.9720 C   0  0  2  0  0  3  0  0  0  0  0  0
  185.4790  177.1320  136.2890 O   0  0  0  0  0  0  0  0  0  0  0  0
  184.4030  173.1650  136.2170 O   0  0  0  0  0  0  0  0  0  0  0  0
  181.3540  177.7950  137.7180 C   0  0  1  0  0  3  0  0  0  0  0  0
  186.0920  172.6890  137.8120 C   0  0  0  0  0  1  0  0  0  0  0  0
  186.0400  178.4410  138.2310 C   0  0  0  0  0  2  0  0  0  0  0  0
  186.4840  177.3580  137.2490 C   0  0  2  0  0  3  0  0  0  0  0  0
  180.1820  176.8000  137.6400 C   0  0  0  0  0  2  0  0  0  0  0  0
  180.6920  179.1450  139.7160 C   0  0  0  0  0  3  0  0  0  0  0  0
  180.9030  179.0820  138.3340 C   0  0  0  0  0  0  0  0  0  0  0  0
  180.6790  180.2190  137.5450 C   0  0  0  0  0  3  0  0  0  0  0  0
  180.0300  182.5070  137.3710 F   0  0  0  0  0  0  0  0  0  0  0  0
  180.0370  181.4680  139.5170 C   0  0  0  0  0  3  0  0  0  0  0  0
  180.2470  181.4100  138.1360 C   0  0  0  0  0  0  0  0  0  0  0  0
  180.2590  180.3370  140.3070 C   0  0  0  0  0  3  0  0  0  0  0  0
  187.7780  177.8040  136.5580 C   0  0  1  0  0  3  0  0  0  0  0  0
  189.0350  177.3830  137.2370 N   0  0  0  0  0  0  0  0  0  0  0  0
  188.5210  176.6450  136.0730 C   0  0  2  0  0  3  0  0  0  0  0  0
  189.4710  177.1130  134.6020 S   0  0  0  0  0  0  0  0  0  0  0  0
  190.9410  176.2220  135.1940 C   0  0  0  0  0  1  0  0  0  0  0  0
  189.4980  177.1650  139.4730 C   0  0  0  0  0  1  0  0  0  0  0  0
  188.7690  176.5820  138.3610 N   0  0  0  0  0  2  0  0  0  0  0  0
  1 13  1  0  0  0  0
  1 20  1  1  0  0  0
  2  5  1  1  0  0  0
  3  7  1  0  0  0  0
  3 15  1  0  0  0  0
  4  8  1  1  0  0  0
  4  6  1  0  0  0  0
  4 18  1  0  0  0  0
  5  7  1  0  0  0  0
  6  9  1  0  0  0  0
  6  2  1  0  0  0  0
  8 12  1  0  0  0  0
  9 17  1  0  0  0  0
  9 13  1  0  0  0  0
 10  1  1  0  0  0  0
 11 23  1  0  0  0  0
 12 16  1  0  0  0  0
 15 14  1  0  0  0  0
 16  2  1  0  0  0  0
 16 11  1  0  0  0  0
 17 22  1  0  0  0  0
 18  1  1  0  0  0  0
 19 25  1  0  0  0  0
 19  7  1  0  0  0  0
 21 15  1  0  0  0  0
 22 21  1  0  0  0  0
 23 19  1  0  0  0  0
 24 30  1  0  0  0  0
 25 24  2  0  0  0  0
 26 29  2  0  0  0  0
 26 25  1  0  0  0  0
 27 29  1  0  0  0  0
 28 30  2  0  0  0  0
 29 28  1  0  0  0  0
 31 32  1  0  0  0  0
 31 22  1  0  0  0  0
 32 37  1  0  0  0  0
 33 31  1  0  0  0  0
 33 32  1  0  0  0  0
 34 35  1  0  0  0  0
 34 33  1  0  0  0  0
 37 36  1  0  0  0  0
M  END
>  <MODEL>
8

>  <REMARK>
 VINA RESULT:      -6.9      4.961      7.707
  Name = 
  4 active torsions:
  status: ('A' for Active; 'I' for Inactive)
    1  A    between atoms: C_1  and  C_27
    2  A    between atoms: N_4  and  N_37
    3  A    between atoms: S_8  and  C_12
    4  A    between atoms: C_23  and  C_30
                            x       y       z     vdW  Elec       q    Type
                         _______ _______ _______ _____ _____    ______ ____

>  <TORSDO>
F 4

$$$$
=
 OpenBabel11122411443D

 37 42  0  0  1  0  0  0  0  0999 V2000
  188.5320  178.8600  137.3240 C   0  0  1  0  0  0  0  0  0  0  0  0
  189.1500  177.1680  140.5430 C   0  0  1  0  0  3  0  0  0  0  0  0
  186.8170  178.1270  142.3310 O   0  0  0  0  0  0  0  0  0  0  0  0
  189.6640  176.9730  138.0340 C   0  0  2  0  0  3  0  0  0  0  0  0
  188.7760  178.5750  141.0050 C   0  0  0  0  0  2  0  0  0  0  0  0
  188.6390  176.7400  139.1430 C   0  0  2  0  0  3  0  0  0  0  0  0
  188.1670  178.5150  142.4150 C   0  0  2  0  0  3  0  0  0  0  0  0
  191.0140  176.3810  138.4180 C   0  0  0  0  0  2  0  0  0  0  0  0
  187.3390  177.4320  138.7120 C   0  0  2  0  0  3  0  0  0  0  0  0
  188.0560  178.1980  136.1820 O   0  0  0  0  0  1  0  0  0  0  0  0
  191.1720  177.6290  142.0440 C   0  0  0  0  0  2  0  0  0  0  0  0
  191.5390  177.0360  139.6880 C   0  0  0  0  0  2  0  0  0  0  0  0
  187.5930  178.7910  138.3840 O   0  0  0  0  0  0  0  0  0  0  0  0
  185.4960  179.9720  143.0640 C   0  0  0  0  0  1  0  0  0  0  0  0
  186.0750  179.2260  141.8760 C   0  0  2  0  0  3  0  0  0  0  0  0
  190.6130  176.7950  140.8790 C   0  0  2  0  0  3  0  0  0  0  0  0
  186.3600  177.2760  139.7250 O   0  0  0  0  0  0  0  0  0  0  0  0
  189.7910  178.3450  137.7270 O   0  0  0  0  0  0  0  0  0  0  0  0
  188.8900  177.5010  143.3370 C   0  0  1  0  0  3  0  0  0  0  0  0
  188.7210  180.3190  136.9690 C   0  0  0  0  0  1  0  0  0  0  0  0
  184.9260  178.7230  141.0080 C   0  0  0  0  0  2  0  0  0  0  0  0
  185.3860  178.2870  139.6180 C   0  0  2  0  0  3  0  0  0  0  0  0
  190.4290  177.5260  143.3830 C   0  0  0  0  0  2  0  0  0  0  0  0
  186.9530  177.3540  144.9110 C   0  0  0  0  0  3  0  0  0  0  0  0
  188.3280  177.5310  144.7240 C   0  0  0  0  0  0  0  0  0  0  0  0
  189.1590  177.7450  145.8330 C   0  0  0  0  0  3  0  0  0  0  0  0
  189.4200  177.9890  148.1900 F   0  0  0  0  0  0  0  0  0  0  0  0
  187.2410  177.6030  147.3030 C   0  0  0  0  0  3  0  0  0  0  0  0
  188.6150  177.7800  147.1200 C   0  0  0  0  0  0  0  0  0  0  0  0
  186.4100  177.3900  146.2000 C   0  0  0  0  0  3  0  0  0  0  0  0
  184.1790  177.7700  138.8260 C   0  0  1  0  0  3  0  0  0  0  0  0
  183.2110  178.8170  138.3950 N   0  0  0  0  0  0  0  0  0  0  0  0
  184.2110  178.2800  137.4580 C   0  0  2  0  0  3  0  0  0  0  0  0
  183.4160  177.0860  136.3530 S   0  0  0  0  0  0  0  0  0  0  0  0
  184.5470  175.7600  136.8700 C   0  0  0  0  0  1  0  0  0  0  0  0
  182.4750  180.9520  138.7910 C   0  0  0  0  0  1  0  0  0  0  0  0
  183.6520  180.1030  138.7490 N   0  0  0  0  0  2  0  0  0  0  0  0
  1 20  1  6  0  0  0
  1 18  1  0  0  0  0
  1 13  1  0  0  0  0
  2 16  1  0  0  0  0
  2  5  1  6  0  0  0
  3  7  1  0  0  0  0
  4  8  1  1  0  0  0
  4  6  1  0  0  0  0
  5  7  1  0  0  0  0
  6  2  1  0  0  0  0
  7 19  1  0  0  0  0
  8 12  1  0  0  0  0
  9  6  1  0  0  0  0
  9 17  1  0  0  0  0
 10  1  1  0  0  0  0
 11 23  1  0  0  0  0
 12 16  1  0  0  0  0
 13  9  1  0  0  0  0
 15  3  1  0  0  0  0
 15 14  1  0  0  0  0
 16 11  1  0  0  0  0
 18  4  1  0  0  0  0
 19 23  1  0  0  0  0
 19 25  1  0  0  0  0
 21 15  1  0  0  0  0
 22 17  1  0  0  0  0
 22 21  1  0  0  0  0
 24 30  1  0  0  0  0
 25 24  2  0  0  0  0
 25 26  1  0  0  0  0
 26 29  2  0  0  0  0
 29 28  1  0  0  0  0
 29 27  1  0  0  0  0
 30 28  2  0  0  0  0
 31 22  1  0  0  0  0
 32 37  1  0  0  0  0
 32 31  1  0  0  0  0
 33 32  1  0  0  0  0
 33 31  1  0  0  0  0
 34 35  1  0  0  0  0
 34 33  1  0  0  0  0
 37 36  1  0  0  0  0
M  END
>  <MODEL>
9

>  <REMARK>
 VINA RESULT:      -6.8      3.454      6.316
  Name = 
  4 active torsions:
  status: ('A' for Active; 'I' for Inactive)
    1  A    between atoms: C_1  and  C_27
    2  A    between atoms: N_4  and  N_37
    3  A    between atoms: S_8  and  C_12
    4  A    between atoms: C_23  and  C_30
                            x       y       z     vdW  Elec       q    Type
                         _______ _______ _______ _____ _____    ______ ____

>  <TORSDO>
F 4

$$$$
