=
 OpenBabel11122410503D

 32 37  0  0  1  0  0  0  0  0999 V2000
  181.8270  179.2180  138.6940 C   0  0  0  0  0  2  0  0  0  0  0  0
  186.1440  178.9140  141.8410 N   0  0  0  0  0  0  0  0  0  0  0  0
  185.1120  178.3150  146.6080 C   0  0  0  0  0  3  0  0  0  0  0  0
  186.4350  177.9350  146.8320 C   0  0  0  0  0  3  0  0  0  0  0  0
  188.4520  178.1930  140.9040 C   0  0  1  0  0  3  0  0  0  0  0  0
  189.7050  177.4550  141.3740 C   0  0  1  0  0  3  0  0  0  0  0  0
  184.6090  178.5050  139.9950 C   0  0  1  0  0  3  0  0  0  0  0  0
  183.9720  177.9380  142.3900 C   0  0  0  0  0  2  0  0  0  0  0  0
  191.4780  177.3920  142.8150 C   0  0  2  0  0  3  0  0  0  0  0  0
  182.2860  177.5210  140.5780 C   0  0  0  0  0  2  0  0  0  0  0  0
  184.6810  178.6150  145.3140 C   0  0  0  0  0  3  0  0  0  0  0  0
  185.0810  178.8800  142.8550 C   0  0  0  0  0  0  0  0  0  0  0  0
  185.5690  178.5320  144.2320 C   0  0  0  0  0  0  0  0  0  0  0  0
  187.8610  178.0920  143.3380 C   0  0  0  0  0  0  0  0  0  0  0  0
  192.0530  177.1890  141.4120 C   0  0  0  0  0  2  0  0  0  0  0  0
  183.2160  179.8680  138.7460 C   0  0  0  0  0  2  0  0  0  0  0  0
  183.4530  178.4030  141.0310 C   0  0  2  0  0  3  0  0  0  0  0  0
  190.8960  177.4400  140.4500 C   0  0  0  0  0  2  0  0  0  0  0  0
  184.2310  178.8930  138.6830 O   0  0  0  0  0  0  0  0  0  0  0  0
  181.8410  177.7420  139.1280 C   0  0  1  0  0  3  0  0  0  0  0  0
  187.3300  177.8600  145.7610 C   0  0  0  0  0  3  0  0  0  0  0  0
  186.9060  178.1590  144.4580 C   0  0  1  0  0  3  0  0  0  0  0  0
  189.2350  177.7520  143.5950 N   0  0  0  0  0  2  0  0  0  0  0  0
  185.7400  179.3910  140.5220 C   0  0  0  0  0  2  0  0  0  0  0  0
  187.8200  177.3600  139.7980 C   0  0  0  0  0  1  0  0  0  0  0  0
  191.3680  176.0330  143.5060 C   0  0  0  0  0  1  0  0  0  0  0  0
  187.4680  178.3740  142.0710 C   0  0  0  0  0  0  0  0  0  0  0  0
  190.1840  178.0410  142.6020 N   0  0  2  0  0  0  0  0  0  0  0  0
  180.4740  177.1110  138.9190 C   0  0  0  0  0  2  0  0  0  0  0  0
  180.1110  176.1920  140.0740 C   0  0  2  0  0  3  0  0  0  0  0  0
  179.9160  174.7850  139.5530 C   0  0  0  0  0  1  0  0  0  0  0  0
  178.9310  176.6290  140.6760 O   0  0  0  0  0  1  0  0  0  0  0  0
  1 16  1  0  0  0  0
  1 20  1  0  0  0  0
  2 27  1  0  0  0  0
  2 12  1  0  0  0  0
  3  4  1  0  0  0  0
  5 25  1  6  0  0  0
  5  6  1  0  0  0  0
  5 27  1  0  0  0  0
  6 18  1  6  0  0  0
  6 28  1  0  0  0  0
  7 24  1  1  0  0  0
  7 17  1  0  0  0  0
  8 12  1  0  0  0  0
  9 26  1  6  0  0  0
 11  3  2  0  0  0  0
 12 13  2  0  0  0  0
 13 22  1  0  0  0  0
 13 11  1  0  0  0  0
 14 23  1  0  0  0  0
 14 22  1  0  0  0  0
 15  9  1  0  0  0  0
 17 10  1  6  0  0  0
 17  8  1  0  0  0  0
 18 15  1  0  0  0  0
 19 16  1  0  0  0  0
 19  7  1  0  0  0  0
 20 29  1  1  0  0  0
 20 10  1  0  0  0  0
 21  4  2  0  0  0  0
 22 21  1  1  0  0  0
 24  2  1  0  0  0  0
 27 14  2  0  0  0  0
 28  9  1  0  0  0  0
 28 23  1  1  0  0  0
 29 30  1  0  0  0  0
 30 31  1  6  0  0  0
 30 32  1  0  0  0  0
M  END
>  <MODEL>
1

>  <REMARK>
 VINA RESULT:      -8.8      0.000      0.000
  Name = 
  2 active torsions:
  status: ('A' for Active; 'I' for Inactive)
    1  A    between atoms: C_20  and  C_29
    2  A    between atoms: C_29  and  C_30
                            x       y       z     vdW  Elec       q    Type
                         _______ _______ _______ _____ _____    ______ ____

>  <TORSDO>
F 2

$$$$
=
 OpenBabel11122410503D

 32 37  0  0  1  0  0  0  0  0999 V2000
  185.5980  179.1250  145.4360 C   0  0  0  0  0  2  0  0  0  0  0  0
  185.4540  178.6020  140.1120 N   0  0  0  0  0  0  0  0  0  0  0  0
  189.8760  178.0920  138.0290 C   0  0  0  0  0  3  0  0  0  0  0  0
  189.2570  177.6400  136.8630 C   0  0  0  0  0  3  0  0  0  0  0  0
  183.3300  177.7470  138.8960 C   0  0  1  0  0  3  0  0  0  0  0  0
  182.9640  176.9440  137.6480 C   0  0  1  0  0  3  0  0  0  0  0  0
  184.9510  178.2680  142.4720 C   0  0  1  0  0  3  0  0  0  0  0  0
  187.2550  177.7520  141.5290 C   0  0  0  0  0  2  0  0  0  0  0  0
  183.0200  176.7920  135.3680 C   0  0  2  0  0  3  0  0  0  0  0  0
  186.8720  177.4180  143.9870 C   0  0  0  0  0  2  0  0  0  0  0  0
  189.1050  178.4070  139.1500 C   0  0  0  0  0  3  0  0  0  0  0  0
  186.9070  178.6340  140.3310 C   0  0  0  0  0  0  0  0  0  0  0  0
  187.7100  178.2680  139.1150 C   0  0  0  0  0  0  0  0  0  0  0  0
  185.6190  177.6950  137.8730 C   0  0  0  0  0  0  0  0  0  0  0  0
  181.5680  176.5480  135.7820 C   0  0  0  0  0  2  0  0  0  0  0  0
  184.7630  179.6980  144.2820 C   0  0  0  0  0  2  0  0  0  0  0  0
  186.4800  178.2360  142.7530 C   0  0  2  0  0  3  0  0  0  0  0  0
  181.5050  176.8570  137.2750 C   0  0  0  0  0  2  0  0  0  0  0  0
  184.1310  178.6670  143.5590 O   0  0  0  0  0  0  0  0  0  0  0  0
  185.9890  177.6540  145.2180 C   0  0  1  0  0  3  0  0  0  0  0  0
  187.8670  177.5090  136.8160 C   0  0  0  0  0  3  0  0  0  0  0  0
  187.0850  177.8230  137.9380 C   0  0  1  0  0  3  0  0  0  0  0  0
  184.9950  177.2810  136.6450 N   0  0  0  0  0  2  0  0  0  0  0  0
  184.6400  179.0930  141.2210 C   0  0  0  0  0  2  0  0  0  0  0  0
  182.8750  176.9440  140.1050 C   0  0  0  0  0  1  0  0  0  0  0  0
  183.6860  175.4450  135.0850 C   0  0  0  0  0  1  0  0  0  0  0  0
  184.8470  177.9910  138.9490 C   0  0  0  0  0  0  0  0  0  0  0  0
  183.6180  177.5100  136.4940 N   0  0  2  0  0  0  0  0  0  0  0  0
  186.6860  177.0990  146.4500 C   0  0  0  0  0  2  0  0  0  0  0  0
  187.8810  177.9550  146.8370 C   0  0  2  0  0  3  0  0  0  0  0  0
  189.1420  177.1250  146.7460 C   0  0  0  0  0  1  0  0  0  0  0  0
  187.7280  178.4210  148.1430 O   0  0  0  0  0  1  0  0  0  0  0  0
  2 12  1  0  0  0  0
  2 24  1  0  0  0  0
  3 11  2  0  0  0  0
  4  3  1  0  0  0  0
  5 27  1  0  0  0  0
  5 25  1  1  0  0  0
  6 18  1  6  0  0  0
  6  5  1  0  0  0  0
  7 24  1  6  0  0  0
  7 17  1  0  0  0  0
  7 19  1  0  0  0  0
  9 26  1  1  0  0  0
  9 15  1  0  0  0  0
  9 28  1  0  0  0  0
 10 20  1  0  0  0  0
 12  8  1  0  0  0  0
 13 11  1  0  0  0  0
 13 12  2  0  0  0  0
 14 22  1  0  0  0  0
 14 27  2  0  0  0  0
 15 18  1  0  0  0  0
 16  1  1  0  0  0  0
 17  8  1  6  0  0  0
 17 10  1  0  0  0  0
 19 16  1  0  0  0  0
 20  1  1  0  0  0  0
 20 29  1  1  0  0  0
 21  4  2  0  0  0  0
 22 21  1  6  0  0  0
 22 13  1  0  0  0  0
 23 14  1  0  0  0  0
 27  2  1  0  0  0  0
 28 23  1  1  0  0  0
 28  6  1  0  0  0  0
 29 30  1  0  0  0  0
 30 31  1  1  0  0  0
 30 32  1  0  0  0  0
M  END
>  <MODEL>
2

>  <REMARK>
 VINA RESULT:      -8.2      3.180      7.825
  Name = 
  2 active torsions:
  status: ('A' for Active; 'I' for Inactive)
    1  A    between atoms: C_20  and  C_29
    2  A    between atoms: C_29  and  C_30
                            x       y       z     vdW  Elec       q    Type
                         _______ _______ _______ _____ _____    ______ ____

>  <TORSDO>
F 2

$$$$
=
 OpenBabel11122410503D

 32 37  0  0  1  0  0  0  0  0999 V2000
  188.2250  178.3970  136.8030 C   0  0  0  0  0  2  0  0  0  0  0  0
  187.8710  178.6960  142.1340 N   0  0  0  0  0  0  0  0  0  0  0  0
  183.2820  179.2290  143.8110 C   0  0  0  0  0  3  0  0  0  0  0  0
  183.7230  178.8720  145.0860 C   0  0  0  0  0  3  0  0  0  0  0  0
  189.7170  177.7160  143.6680 C   0  0  1  0  0  3  0  0  0  0  0  0
  189.8430  177.0690  145.0480 C   0  0  1  0  0  3  0  0  0  0  0  0
  188.4870  177.9220  139.9090 C   0  0  1  0  0  3  0  0  0  0  0  0
  186.0630  177.9330  140.6770 C   0  0  0  0  0  2  0  0  0  0  0  0
  189.5890  177.2860  147.3090 C   0  0  2  0  0  3  0  0  0  0  0  0
  186.5690  177.1620  138.3430 C   0  0  0  0  0  2  0  0  0  0  0  0
  184.1790  179.2380  142.7400 C   0  0  0  0  0  2  0  0  0  0  0  0
  186.4660  178.9250  141.7670 C   0  0  0  0  0  0  0  0  0  0  0  0
  185.5220  178.8860  142.9350 C   0  0  0  0  0  0  0  0  0  0  0  0
  187.3820  178.1890  144.4510 C   0  0  0  0  0  0  0  0  0  0  0  0
  191.0040  176.7520  147.0820 C   0  0  0  0  0  2  0  0  0  0  0  0
  189.0550  179.0030  137.9430 C   0  0  0  0  0  2  0  0  0  0  0  0
  187.0010  178.0900  139.4820 C   0  0  2  0  0  3  0  0  0  0  0  0
  191.2320  176.8110  145.5750 C   0  0  0  0  0  2  0  0  0  0  0  0
  189.4440  178.0110  138.8650 O   0  0  0  0  0  0  0  0  0  0  0  0
  187.5700  177.0590  137.1860 C   0  0  1  0  0  3  0  0  0  0  0  0
  185.0620  178.5300  145.2910 C   0  0  0  0  0  3  0  0  0  0  0  0
  185.9690  178.5370  144.2210 C   0  0  0  0  0  0  0  0  0  0  0  0
  187.8300  177.8780  145.7820 N   0  0  0  0  0  2  0  0  0  0  0  0
  188.8390  178.8720  141.0550 C   0  0  0  0  0  2  0  0  0  0  0  0
  190.1170  176.6710  142.6370 C   0  0  0  0  0  1  0  0  0  0  0  0
  188.6800  176.1240  147.7100 C   0  0  0  0  0  1  0  0  0  0  0  0
  188.2730  178.1860  143.4280 C   0  0  0  0  0  0  0  0  0  0  0  0
  189.2110  177.9060  146.0380 N   0  0  2  0  0  0  0  0  0  0  0  0
  186.8840  176.4360  135.9810 C   0  0  0  0  0  2  0  0  0  0  0  0
  187.3210  174.9930  135.7860 C   0  0  2  0  0  3  0  0  0  0  0  0
  186.2190  174.0690  136.2580 C   0  0  0  0  0  1  0  0  0  0  0  0
  188.4790  174.7440  136.5220 O   0  0  0  0  0  1  0  0  0  0  0  0
  1 20  1  0  0  0  0
  1 16  1  0  0  0  0
  2 27  1  0  0  0  0
  3  4  2  0  0  0  0
  4 21  1  0  0  0  0
  5 25  1  6  0  0  0
  5  6  1  0  0  0  0
  6 18  1  1  0  0  0
  6 28  1  0  0  0  0
  7 24  1  1  0  0  0
  8 12  1  0  0  0  0
  9 26  1  6  0  0  0
 11 13  1  0  0  0  0
 11  3  1  0  0  0  0
 12  2  1  0  0  0  0
 12 13  2  0  0  0  0
 13 22  1  0  0  0  0
 14 23  1  0  0  0  0
 15  9  1  0  0  0  0
 16 19  1  0  0  0  0
 17 10  1  6  0  0  0
 17  7  1  0  0  0  0
 17  8  1  0  0  0  0
 18 15  1  0  0  0  0
 19  7  1  0  0  0  0
 20 29  1  6  0  0  0
 20 10  1  0  0  0  0
 22 14  1  0  0  0  0
 22 21  2  0  0  0  0
 24  2  1  0  0  0  0
 27  5  1  0  0  0  0
 27 14  2  0  0  0  0
 28 23  1  6  0  0  0
 28  9  1  0  0  0  0
 30 29  1  0  0  0  0
 30 31  1  1  0  0  0
 30 32  1  0  0  0  0
M  END
>  <MODEL>
3

>  <REMARK>
 VINA RESULT:      -8.0      3.441      4.734
  Name = 
  2 active torsions:
  status: ('A' for Active; 'I' for Inactive)
    1  A    between atoms: C_20  and  C_29
    2  A    between atoms: C_29  and  C_30
                            x       y       z     vdW  Elec       q    Type
                         _______ _______ _______ _____ _____    ______ ____

>  <TORSDO>
F 2

$$$$
=
 OpenBabel11122410503D

 32 37  0  0  1  0  0  0  0  0999 V2000
  179.8680  179.9470  139.0530 C   0  0  0  0  0  2  0  0  0  0  0  0
  184.6670  178.1840  140.6310 N   0  0  0  0  0  0  0  0  0  0  0  0
  188.1570  178.5170  137.1870 C   0  0  0  0  0  3  0  0  0  0  0  0
  189.1260  178.3340  138.1730 C   0  0  0  0  0  3  0  0  0  0  0  0
  185.3140  178.0890  143.1400 C   0  0  1  0  0  3  0  0  0  0  0  0
  186.5610  178.2280  144.0130 C   0  0  1  0  0  3  0  0  0  0  0  0
  182.5440  179.3770  140.6190 C   0  0  1  0  0  3  0  0  0  0  0  0
  184.3230  179.8340  138.8610 C   0  0  0  0  0  2  0  0  0  0  0  0
  188.6310  177.4290  144.5600 C   0  0  2  0  0  3  0  0  0  0  0  0
  182.1540  181.0870  138.7140 C   0  0  0  0  0  2  0  0  0  0  0  0
  186.8060  178.5710  137.5380 C   0  0  0  0  0  2  0  0  0  0  0  0
  184.9530  178.4900  139.2220 C   0  0  0  0  0  0  0  0  0  0  0  0
  186.4150  178.4480  138.8790 C   0  0  0  0  0  0  0  0  0  0  0  0
  186.9980  178.0950  141.2830 C   0  0  0  0  0  0  0  0  0  0  0  0
  187.8630  177.5760  145.8750 C   0  0  0  0  0  2  0  0  0  0  0  0
  180.4020  178.8170  139.9430 C   0  0  0  0  0  2  0  0  0  0  0  0
  182.8230  179.7780  139.1420 C   0  0  2  0  0  3  0  0  0  0  0  0
  186.4270  177.9070  145.4800 C   0  0  0  0  0  2  0  0  0  0  0  0
  181.1780  179.3330  141.0000 O   0  0  0  0  0  0  0  0  0  0  0  0
  180.6960  181.2390  139.1650 C   0  0  1  0  0  3  0  0  0  0  0  0
  188.7450  178.2000  139.5100 C   0  0  0  0  0  3  0  0  0  0  0  0
  187.3910  178.2530  139.8720 C   0  0  0  0  0  0  0  0  0  0  0  0
  188.0070  177.8520  142.2790 N   0  0  0  0  0  2  0  0  0  0  0  0
  183.2530  178.0690  140.9750 C   0  0  0  0  0  2  0  0  0  0  0  0
  184.3760  179.2320  143.4970 C   0  0  0  0  0  1  0  0  0  0  0  0
  189.5650  178.6280  144.3970 C   0  0  0  0  0  1  0  0  0  0  0  0
  185.6940  178.1470  141.6520 C   0  0  0  0  0  0  0  0  0  0  0  0
  187.5980  177.3530  143.5260 N   0  0  2  0  0  0  0  0  0  0  0  0
  180.0400  182.3620  138.3780 C   0  0  0  0  0  2  0  0  0  0  0  0
  180.9000  182.7790  137.1950 C   0  0  2  0  0  3  0  0  0  0  0  0
  181.0900  184.2800  137.2180 C   0  0  0  0  0  1  0  0  0  0  0  0
  180.2780  182.4100  136.0030 O   0  0  0  0  0  1  0  0  0  0  0  0
  1 20  1  0  0  0  0
  1 16  1  0  0  0  0
  2 24  1  0  0  0  0
  2 27  1  0  0  0  0
  3 11  1  0  0  0  0
  3  4  2  0  0  0  0
  4 21  1  0  0  0  0
  5 25  1  1  0  0  0
  5  6  1  0  0  0  0
  6 18  1  1  0  0  0
  7 24  1  6  0  0  0
  7 19  1  0  0  0  0
  8 17  1  0  0  0  0
  8 12  1  0  0  0  0
  9 26  1  6  0  0  0
  9 15  1  0  0  0  0
 10 20  1  0  0  0  0
 11 13  1  0  0  0  0
 12  2  1  0  0  0  0
 13 12  2  0  0  0  0
 13 22  1  0  0  0  0
 14 27  2  0  0  0  0
 14 23  1  0  0  0  0
 16 19  1  0  0  0  0
 17 10  1  1  0  0  0
 17  7  1  0  0  0  0
 18 15  1  0  0  0  0
 20 29  1  6  0  0  0
 21 22  2  0  0  0  0
 22 14  1  0  0  0  0
 27  5  1  0  0  0  0
 28 23  1  6  0  0  0
 28  6  1  0  0  0  0
 28  9  1  0  0  0  0
 30 31  1  6  0  0  0
 30 29  1  0  0  0  0
 32 30  1  0  0  0  0
M  END
>  <MODEL>
4

>  <REMARK>
 VINA RESULT:      -8.0      2.341      5.215
  Name = 
  2 active torsions:
  status: ('A' for Active; 'I' for Inactive)
    1  A    between atoms: C_20  and  C_29
    2  A    between atoms: C_29  and  C_30
                            x       y       z     vdW  Elec       q    Type
                         _______ _______ _______ _____ _____    ______ ____

>  <TORSDO>
F 2

$$$$
=
 OpenBabel11122410503D

 32 37  0  0  1  0  0  0  0  0999 V2000
  192.2160  176.3060  137.0560 C   0  0  0  0  0  2  0  0  0  0  0  0
  189.9420  177.8340  141.6530 N   0  0  0  0  0  0  0  0  0  0  0  0
  185.1570  178.8890  141.2680 C   0  0  0  0  0  3  0  0  0  0  0  0
  185.0460  178.8200  142.6580 C   0  0  0  0  0  3  0  0  0  0  0  0
  190.9530  177.1720  143.9460 C   0  0  1  0  0  3  0  0  0  0  0  0
  190.4790  176.8560  145.3650 C   0  0  1  0  0  3  0  0  0  0  0  0
  191.2440  176.5490  140.0460 C   0  0  1  0  0  3  0  0  0  0  0  0
  188.7290  176.8160  139.7910 C   0  0  0  0  0  2  0  0  0  0  0  0
  189.4290  177.5950  147.2560 C   0  0  2  0  0  3  0  0  0  0  0  0
  189.9710  175.5140  138.0420 C   0  0  0  0  0  2  0  0  0  0  0  0
  186.3820  178.6220  140.6530 C   0  0  0  0  0  2  0  0  0  0  0  0
  188.8130  178.0180  140.7300 C   0  0  0  0  0  0  0  0  0  0  0  0
  187.5040  178.2800  141.4210 C   0  0  0  0  0  0  0  0  0  0  0  0
  188.5690  177.8890  143.6470 C   0  0  0  0  0  0  0  0  0  0  0  0
  190.7530  176.9760  147.7090 C   0  0  0  0  0  2  0  0  0  0  0  0
  192.6280  177.1300  138.2830 C   0  0  0  0  0  2  0  0  0  0  0  0
  190.0560  176.6640  139.0490 C   0  0  2  0  0  3  0  0  0  0  0  0
  191.5310  176.6790  146.4310 C   0  0  0  0  0  2  0  0  0  0  0  0
  192.5250  176.3640  139.4620 O   0  0  0  0  0  0  0  0  0  0  0  0
  191.3110  175.1150  137.4120 C   0  0  1  0  0  3  0  0  0  0  0  0
  186.1620  178.4910  143.4310 C   0  0  0  0  0  3  0  0  0  0  0  0
  187.3960  178.2210  142.8210 C   0  0  0  0  0  0  0  0  0  0  0  0
  188.4500  177.8770  145.0800 N   0  0  0  0  0  2  0  0  0  0  0  0
  191.2560  177.7250  141.0250 C   0  0  0  0  0  2  0  0  0  0  0  0
  191.5810  175.9050  143.3830 C   0  0  0  0  0  1  0  0  0  0  0  0
  188.3050  176.5860  147.4950 C   0  0  0  0  0  1  0  0  0  0  0  0
  189.7700  177.6220  143.0750 C   0  0  0  0  0  0  0  0  0  0  0  0
  189.6280  177.9180  145.8430 N   0  0  2  0  0  0  0  0  0  0  0  0
  191.0540  174.2550  136.1850 C   0  0  0  0  0  2  0  0  0  0  0  0
  189.5790  174.2510  135.8170 C   0  0  2  0  0  3  0  0  0  0  0  0
  189.1060  172.8230  135.6580 C   0  0  0  0  0  1  0  0  0  0  0  0
  189.3870  174.9370  134.6180 O   0  0  0  0  0  1  0  0  0  0  0  0
  1 20  1  0  0  0  0
  1 16  1  0  0  0  0
  2 27  1  0  0  0  0
  3  4  2  0  0  0  0
  4 21  1  0  0  0  0
  5 25  1  6  0  0  0
  5  6  1  0  0  0  0
  6 28  1  0  0  0  0
  6 18  1  1  0  0  0
  7 24  1  6  0  0  0
  8 12  1  0  0  0  0
  9 26  1  6  0  0  0
  9 15  1  0  0  0  0
 11  3  1  0  0  0  0
 11 13  1  0  0  0  0
 12 13  2  0  0  0  0
 12  2  1  0  0  0  0
 13 22  1  0  0  0  0
 14 23  1  0  0  0  0
 16 19  1  0  0  0  0
 17 10  1  1  0  0  0
 17  8  1  0  0  0  0
 17  7  1  0  0  0  0
 18 15  1  0  0  0  0
 19  7  1  0  0  0  0
 20 29  1  6  0  0  0
 20 10  1  0  0  0  0
 22 21  2  0  0  0  0
 22 14  1  0  0  0  0
 24  2  1  0  0  0  0
 27 14  2  0  0  0  0
 27  5  1  0  0  0  0
 28 23  1  6  0  0  0
 28  9  1  0  0  0  0
 30 31  1  6  0  0  0
 30 29  1  0  0  0  0
 32 30  1  0  0  0  0
M  END
>  <MODEL>
5

>  <REMARK>
 VINA RESULT:      -7.9      3.716      6.745
  Name = 
  2 active torsions:
  status: ('A' for Active; 'I' for Inactive)
    1  A    between atoms: C_20  and  C_29
    2  A    between atoms: C_29  and  C_30
                            x       y       z     vdW  Elec       q    Type
                         _______ _______ _______ _____ _____    ______ ____

>  <TORSDO>
F 2

$$$$
=
 OpenBabel11122410503D

 32 37  0  0  1  0  0  0  0  0999 V2000
  192.4150  175.8330  136.5690 C   0  0  0  0  0  2  0  0  0  0  0  0
  189.2420  177.8120  140.3970 N   0  0  0  0  0  0  0  0  0  0  0  0
  184.7200  178.9610  138.8550 C   0  0  0  0  0  3  0  0  0  0  0  0
  184.2970  179.0150  140.1840 C   0  0  0  0  0  3  0  0  0  0  0  0
  189.6820  177.3220  142.9050 C   0  0  1  0  0  3  0  0  0  0  0  0
  188.8880  177.1420  144.1980 C   0  0  1  0  0  3  0  0  0  0  0  0
  190.8110  176.3580  139.2320 C   0  0  1  0  0  3  0  0  0  0  0  0
  188.4320  176.6720  138.3930 C   0  0  0  0  0  2  0  0  0  0  0  0
  187.4760  178.0700  145.7380 C   0  0  2  0  0  3  0  0  0  0  0  0
  189.9730  175.1900  137.0790 C   0  0  0  0  0  2  0  0  0  0  0  0
  186.0380  178.6090  138.5560 C   0  0  0  0  0  2  0  0  0  0  0  0
  188.3580  177.9470  139.2310 C   0  0  0  0  0  0  0  0  0  0  0  0
  186.9420  178.3030  139.5840 C   0  0  0  0  0  0  0  0  0  0  0  0
  187.4620  178.0760  142.0170 C   0  0  0  0  0  0  0  0  0  0  0  0
  188.6350  177.4560  146.5270 C   0  0  0  0  0  2  0  0  0  0  0  0
  192.5800  176.7470  137.7910 C   0  0  0  0  0  2  0  0  0  0  0  0
  189.8830  176.4200  137.9860 C   0  0  2  0  0  3  0  0  0  0  0  0
  189.6650  177.0290  145.4860 C   0  0  0  0  0  2  0  0  0  0  0  0
  192.1800  176.0890  138.9710 O   0  0  0  0  0  0  0  0  0  0  0  0
  191.4000  174.7010  136.8020 C   0  0  1  0  0  3  0  0  0  0  0  0
  185.1940  178.7230  141.2140 C   0  0  0  0  0  3  0  0  0  0  0  0
  186.5200  178.3680  140.9230 C   0  0  0  0  0  0  0  0  0  0  0  0
  187.0230  178.1910  143.3820 N   0  0  0  0  0  2  0  0  0  0  0  0
  190.6570  177.6130  140.0940 C   0  0  0  0  0  2  0  0  0  0  0  0
  190.3610  175.9950  142.5980 C   0  0  0  0  0  1  0  0  0  0  0  0
  186.2820  177.1170  145.7930 C   0  0  0  0  0  1  0  0  0  0  0  0
  188.7460  177.7270  141.7550 C   0  0  0  0  0  0  0  0  0  0  0  0
  188.0020  178.2640  144.3860 N   0  0  2  0  0  0  0  0  0  0  0  0
  191.3850  173.7470  135.6200 C   0  0  0  0  0  2  0  0  0  0  0  0
  192.3910  172.6220  135.8090 C   0  0  2  0  0  3  0  0  0  0  0  0
  193.6760  172.9730  135.0920 C   0  0  0  0  0  1  0  0  0  0  0  0
  191.8790  171.4350  135.2860 O   0  0  0  0  0  1  0  0  0  0  0  0
  1 20  1  0  0  0  0
  1 16  1  0  0  0  0
  2 27  1  0  0  0  0
  3  4  2  0  0  0  0
  4 21  1  0  0  0  0
  5 25  1  6  0  0  0
  5  6  1  0  0  0  0
  6 28  1  0  0  0  0
  6 18  1  1  0  0  0
  7 24  1  6  0  0  0
  8 12  1  0  0  0  0
  9 26  1  6  0  0  0
  9 15  1  0  0  0  0
 11  3  1  0  0  0  0
 11 13  1  0  0  0  0
 12 13  2  0  0  0  0
 12  2  1  0  0  0  0
 13 22  1  0  0  0  0
 14 23  1  0  0  0  0
 16 19  1  0  0  0  0
 17 10  1  1  0  0  0
 17  8  1  0  0  0  0
 17  7  1  0  0  0  0
 18 15  1  0  0  0  0
 19  7  1  0  0  0  0
 20 29  1  6  0  0  0
 20 10  1  0  0  0  0
 22 21  2  0  0  0  0
 22 14  1  0  0  0  0
 24  2  1  0  0  0  0
 27 14  2  0  0  0  0
 27  5  1  0  0  0  0
 28 23  1  6  0  0  0
 28  9  1  0  0  0  0
 29 30  1  0  0  0  0
 30 31  1  6  0  0  0
 32 30  1  0  0  0  0
M  END
>  <MODEL>
6

>  <REMARK>
 VINA RESULT:      -7.9      3.797      7.565
  Name = 
  2 active torsions:
  status: ('A' for Active; 'I' for Inactive)
    1  A    between atoms: C_20  and  C_29
    2  A    between atoms: C_29  and  C_30
                            x       y       z     vdW  Elec       q    Type
                         _______ _______ _______ _____ _____    ______ ____

>  <TORSDO>
F 2

$$$$
=
 OpenBabel11122410503D

 32 37  0  0  1  0  0  0  0  0999 V2000
  191.7770  178.2530  144.9980 C   0  0  0  0  0  2  0  0  0  0  0  0
  188.8570  178.2100  140.5140 N   0  0  0  0  0  0  0  0  0  0  0  0
  190.7600  175.4630  136.9100 C   0  0  0  0  0  3  0  0  0  0  0  0
  189.5290  175.4980  136.2540 C   0  0  0  0  0  3  0  0  0  0  0  0
  186.3200  178.7450  140.5480 C   0  0  1  0  0  3  0  0  0  0  0  0
  185.0520  178.3530  139.7910 C   0  0  1  0  0  3  0  0  0  0  0  0
  189.4570  178.0720  142.8700 C   0  0  1  0  0  3  0  0  0  0  0  0
  190.3900  176.4240  141.1730 C   0  0  0  0  0  2  0  0  0  0  0  0
  183.9220  178.3300  137.8040 C   0  0  2  0  0  3  0  0  0  0  0  0
  191.1230  176.2150  143.5640 C   0  0  0  0  0  2  0  0  0  0  0  0
  190.9060  176.0860  138.1520 C   0  0  0  0  0  3  0  0  0  0  0  0
  190.0170  177.4200  140.0760 C   0  0  0  0  0  0  0  0  0  0  0  0
  189.8220  176.7430  138.7500 C   0  0  0  0  0  0  0  0  0  0  0  0
  187.4400  177.4970  138.6840 C   0  0  0  0  0  0  0  0  0  0  0  0
  182.9580  178.9050  138.8430 C   0  0  0  0  0  2  0  0  0  0  0  0
  190.9190  179.2580  144.2170 C   0  0  0  0  0  2  0  0  0  0  0  0
  190.6690  177.1830  142.4690 C   0  0  2  0  0  3  0  0  0  0  0  0
  183.7860  179.1090  140.1080 C   0  0  0  0  0  2  0  0  0  0  0  0
  189.5950  178.7940  144.0840 O   0  0  0  0  0  0  0  0  0  0  0  0
  191.2020  176.8270  144.9680 C   0  0  1  0  0  3  0  0  0  0  0  0
  188.4460  176.1610  136.8380 C   0  0  0  0  0  3  0  0  0  0  0  0
  188.5840  176.7880  138.0840 C   0  0  1  0  0  3  0  0  0  0  0  0
  186.1950  177.5690  137.9680 N   0  0  0  0  0  2  0  0  0  0  0  0
  189.0560  179.0030  141.7240 C   0  0  0  0  0  2  0  0  0  0  0  0
  186.1650  178.2580  141.9810 C   0  0  0  0  0  1  0  0  0  0  0  0
  183.5770  176.8590  137.5710 C   0  0  0  0  0  1  0  0  0  0  0  0
  187.5540  178.1060  139.8910 C   0  0  0  0  0  0  0  0  0  0  0  0
  185.2550  178.5300  138.3740 N   0  0  2  0  0  0  0  0  0  0  0  0
  192.0080  175.9080  145.8730 C   0  0  0  0  0  2  0  0  0  0  0  0
  191.5150  175.9820  147.3090 C   0  0  2  0  0  3  0  0  0  0  0  0
  190.1780  176.6900  147.3440 C   0  0  0  0  0  1  0  0  0  0  0  0
  192.4300  176.6880  148.0890 O   0  0  0  0  0  1  0  0  0  0  0  0
  2 24  1  0  0  0  0
  3 11  2  0  0  0  0
  4 21  2  0  0  0  0
  4  3  1  0  0  0  0
  5 25  1  1  0  0  0
  6 18  1  1  0  0  0
  6  5  1  0  0  0  0
  7 24  1  6  0  0  0
  7 19  1  0  0  0  0
  9 26  1  1  0  0  0
  9 28  1  0  0  0  0
  9 15  1  0  0  0  0
 10 20  1  0  0  0  0
 11 13  1  0  0  0  0
 12  2  1  0  0  0  0
 12  8  1  0  0  0  0
 13 12  2  0  0  0  0
 14 27  2  0  0  0  0
 15 18  1  0  0  0  0
 16  1  1  0  0  0  0
 17  8  1  6  0  0  0
 17  7  1  0  0  0  0
 17 10  1  0  0  0  0
 19 16  1  0  0  0  0
 20  1  1  0  0  0  0
 20 29  1  1  0  0  0
 22 21  1  6  0  0  0
 22 14  1  0  0  0  0
 22 13  1  0  0  0  0
 23 14  1  0  0  0  0
 27  2  1  0  0  0  0
 27  5  1  0  0  0  0
 28 23  1  6  0  0  0
 28  6  1  0  0  0  0
 29 30  1  0  0  0  0
 30 31  1  6  0  0  0
 30 32  1  0  0  0  0
M  END
>  <MODEL>
7

>  <REMARK>
 VINA RESULT:      -7.8      3.478      8.789
  Name = 
  2 active torsions:
  status: ('A' for Active; 'I' for Inactive)
    1  A    between atoms: C_20  and  C_29
    2  A    between atoms: C_29  and  C_30
                            x       y       z     vdW  Elec       q    Type
                         _______ _______ _______ _____ _____    ______ ____

>  <TORSDO>
F 2

$$$$
=
 OpenBabel11122410503D

 32 37  0  0  1  0  0  0  0  0999 V2000
  181.4750  178.3460  137.5470 C   0  0  0  0  0  2  0  0  0  0  0  0
  185.6190  178.6860  140.9140 N   0  0  0  0  0  0  0  0  0  0  0  0
  184.3530  178.6260  145.6630 C   0  0  0  0  0  3  0  0  0  0  0  0
  185.6800  178.3540  145.9970 C   0  0  0  0  0  3  0  0  0  0  0  0
  188.0090  177.9890  140.1910 C   0  0  1  0  0  3  0  0  0  0  0  0
  189.2700  177.3900  140.8120 C   0  0  1  0  0  3  0  0  0  0  0  0
  184.2130  177.9630  139.0630 C   0  0  1  0  0  3  0  0  0  0  0  0
  183.4730  177.6620  141.4760 C   0  0  0  0  0  2  0  0  0  0  0  0
  190.9620  177.6100  142.3350 C   0  0  2  0  0  3  0  0  0  0  0  0
  181.9150  176.9260  139.6520 C   0  0  0  0  0  2  0  0  0  0  0  0
  183.9810  178.7370  144.3210 C   0  0  0  0  0  3  0  0  0  0  0  0
  184.5040  178.7170  141.8710 C   0  0  0  0  0  0  0  0  0  0  0  0
  184.9320  178.5720  143.3040 C   0  0  0  0  0  0  0  0  0  0  0  0
  187.2900  178.1580  142.5870 C   0  0  0  0  0  0  0  0  0  0  0  0
  191.6240  177.2670  140.9990 C   0  0  0  0  0  2  0  0  0  0  0  0
  182.8230  179.0770  137.5830 C   0  0  0  0  0  2  0  0  0  0  0  0
  183.0070  177.9230  140.0450 C   0  0  2  0  0  3  0  0  0  0  0  0
  190.5110  177.3290  139.9570 C   0  0  0  0  0  2  0  0  0  0  0  0
  183.8900  178.1620  137.6950 O   0  0  0  0  0  0  0  0  0  0  0  0
  181.5410  176.9390  138.1640 C   0  0  1  0  0  3  0  0  0  0  0  0
  186.6360  178.1990  144.9900 C   0  0  0  0  0  3  0  0  0  0  0  0
  186.2710  178.3080  143.6400 C   0  0  1  0  0  3  0  0  0  0  0  0
  188.6620  177.9330  142.9520 N   0  0  0  0  0  2  0  0  0  0  0  0
  185.2660  178.9720  139.5270 C   0  0  0  0  0  2  0  0  0  0  0  0
  187.4850  176.9910  139.1700 C   0  0  0  0  0  1  0  0  0  0  0  0
  190.8830  176.3430  143.1870 C   0  0  0  0  0  1  0  0  0  0  0  0
  186.9540  178.2570  141.2760 C   0  0  0  0  0  0  0  0  0  0  0  0
  189.6490  178.1510  141.9770 N   0  0  2  0  0  0  0  0  0  0  0  0
  180.2210  176.2090  137.9710 C   0  0  0  0  0  2  0  0  0  0  0  0
  180.3740  174.7190  138.2360 C   0  0  2  0  0  3  0  0  0  0  0  0
  181.4830  174.1670  137.3660 C   0  0  0  0  0  1  0  0  0  0  0  0
  179.1820  174.0590  137.9390 O   0  0  0  0  0  1  0  0  0  0  0  0
  1 16  1  0  0  0  0
  1 20  1  0  0  0  0
  2 27  1  0  0  0  0
  2 12  1  0  0  0  0
  3  4  1  0  0  0  0
  5 25  1  6  0  0  0
  5  6  1  0  0  0  0
  5 27  1  0  0  0  0
  6 18  1  6  0  0  0
  6 28  1  0  0  0  0
  7 24  1  1  0  0  0
  7 17  1  0  0  0  0
  8 12  1  0  0  0  0
  9 26  1  1  0  0  0
 11  3  2  0  0  0  0
 12 13  2  0  0  0  0
 13 22  1  0  0  0  0
 13 11  1  0  0  0  0
 14 23  1  0  0  0  0
 14 22  1  0  0  0  0
 15  9  1  0  0  0  0
 16 19  1  0  0  0  0
 17 10  1  6  0  0  0
 17  8  1  0  0  0  0
 18 15  1  0  0  0  0
 19  7  1  0  0  0  0
 20 29  1  1  0  0  0
 20 10  1  0  0  0  0
 21  4  2  0  0  0  0
 22 21  1  1  0  0  0
 24  2  1  0  0  0  0
 27 14  2  0  0  0  0
 28  9  1  0  0  0  0
 28 23  1  1  0  0  0
 29 30  1  0  0  0  0
 30 31  1  6  0  0  0
 32 30  1  0  0  0  0
M  END
>  <MODEL>
8

>  <REMARK>
 VINA RESULT:      -7.7      1.256      1.380
  Name = 
  2 active torsions:
  status: ('A' for Active; 'I' for Inactive)
    1  A    between atoms: C_20  and  C_29
    2  A    between atoms: C_29  and  C_30
                            x       y       z     vdW  Elec       q    Type
                         _______ _______ _______ _____ _____    ______ ____

>  <TORSDO>
F 2

$$$$
=
 OpenBabel11122410503D

 32 37  0  0  1  0  0  0  0  0999 V2000
  188.8350  177.6180  135.6330 C   0  0  0  0  0  2  0  0  0  0  0  0
  187.2390  178.5450  140.6560 N   0  0  0  0  0  0  0  0  0  0  0  0
  182.3730  179.0030  141.1600 C   0  0  0  0  0  3  0  0  0  0  0  0
  182.5140  178.8320  142.5370 C   0  0  0  0  0  3  0  0  0  0  0  0
  188.7050  177.8710  142.6860 C   0  0  1  0  0  3  0  0  0  0  0  0
  188.5250  177.4070  144.1310 C   0  0  1  0  0  3  0  0  0  0  0  0
  188.3800  177.5420  138.7520 C   0  0  1  0  0  3  0  0  0  0  0  0
  185.8450  177.5020  138.9410 C   0  0  0  0  0  2  0  0  0  0  0  0
  187.7440  177.8830  146.2260 C   0  0  2  0  0  3  0  0  0  0  0  0
  186.9030  176.4840  136.9060 C   0  0  0  0  0  2  0  0  0  0  0  0
  183.4940  178.9350  140.3300 C   0  0  0  0  0  2  0  0  0  0  0  0
  185.9530  178.6420  139.9520 C   0  0  0  0  0  0  0  0  0  0  0  0
  184.7640  178.6900  140.8700 C   0  0  0  0  0  0  0  0  0  0  0  0
  186.2390  178.2960  142.8480 C   0  0  0  0  0  0  0  0  0  0  0  0
  189.1890  177.4100  146.3990 C   0  0  0  0  0  2  0  0  0  0  0  0
  189.3590  178.4070  136.8410 C   0  0  0  0  0  2  0  0  0  0  0  0
  187.0300  177.5680  137.9800 C   0  0  2  0  0  3  0  0  0  0  0  0
  189.7600  177.2970  144.9890 C   0  0  0  0  0  2  0  0  0  0  0  0
  189.5510  177.5600  137.9510 O   0  0  0  0  0  0  0  0  0  0  0  0
  188.1500  176.3000  136.0320 C   0  0  1  0  0  3  0  0  0  0  0  0
  183.7790  178.5980  143.0850 C   0  0  0  0  0  3  0  0  0  0  0  0
  184.9090  178.5280  142.2580 C   0  0  0  0  0  0  0  0  0  0  0  0
  186.3740  178.1770  144.2750 N   0  0  0  0  0  2  0  0  0  0  0  0
  188.4270  178.6440  139.8120 C   0  0  0  0  0  2  0  0  0  0  0  0
  189.3650  176.7340  141.9200 C   0  0  0  0  0  1  0  0  0  0  0  0
  186.8030  176.7260  146.5610 C   0  0  0  0  0  1  0  0  0  0  0  0
  187.3440  178.2210  142.0640 C   0  0  0  0  0  0  0  0  0  0  0  0
  187.6550  178.3190  144.8320 N   0  0  2  0  0  0  0  0  0  0  0  0
  187.7820  175.4950  134.7950 C   0  0  0  0  0  2  0  0  0  0  0  0
  188.4140  174.1130  134.8330 C   0  0  2  0  0  3  0  0  0  0  0  0
  187.3400  173.0770  135.0850 C   0  0  0  0  0  1  0  0  0  0  0  0
  189.3620  174.0520  135.8540 O   0  0  0  0  0  1  0  0  0  0  0  0
  1 20  1  0  0  0  0
  1 16  1  0  0  0  0
  2 27  1  0  0  0  0
  3  4  2  0  0  0  0
  4 21  1  0  0  0  0
  5 25  1  6  0  0  0
  5  6  1  0  0  0  0
  6 28  1  0  0  0  0
  6 18  1  1  0  0  0
  7 24  1  1  0  0  0
  8 12  1  0  0  0  0
  9 15  1  0  0  0  0
  9 26  1  6  0  0  0
 11 13  1  0  0  0  0
 11  3  1  0  0  0  0
 12  2  1  0  0  0  0
 12 13  2  0  0  0  0
 13 22  1  0  0  0  0
 14 23  1  0  0  0  0
 16 19  1  0  0  0  0
 17 10  1  6  0  0  0
 17  7  1  0  0  0  0
 17  8  1  0  0  0  0
 18 15  1  0  0  0  0
 19  7  1  0  0  0  0
 20 29  1  6  0  0  0
 20 10  1  0  0  0  0
 22 14  1  0  0  0  0
 22 21  2  0  0  0  0
 24  2  1  0  0  0  0
 27  5  1  0  0  0  0
 27 14  2  0  0  0  0
 28 23  1  6  0  0  0
 28  9  1  0  0  0  0
 29 30  1  0  0  0  0
 30 31  1  1  0  0  0
 30 32  1  0  0  0  0
M  END
>  <MODEL>
9

>  <REMARK>
 VINA RESULT:      -7.3      3.060      5.541
  Name = 
  2 active torsions:
  status: ('A' for Active; 'I' for Inactive)
    1  A    between atoms: C_20  and  C_29
    2  A    between atoms: C_29  and  C_30
                            x       y       z     vdW  Elec       q    Type
                         _______ _______ _______ _____ _____    ______ ____

>  <TORSDO>
F 2

$$$$
