=
 OpenBabel11122412003D

 28 32  0  0  1  0  0  0  0  0999 V2000
  181.0220  178.2270  137.8170 C   0  0  0  0  0  0  0  0  0  0  0  0
  184.0950  177.1070  139.1430 O   0  0  0  0  0  1  0  0  0  0  0  0
  180.2620  179.4530  143.7680 O   0  0  0  0  0  0  0  0  0  0  0  0
  180.9180  180.8000  136.7010 C   0  0  0  0  0  3  0  0  0  0  0  0
  182.4750  178.9600  143.1240 N   0  0  0  0  0  0  0  0  0  0  0  0
  180.9930  176.5470  138.4430 S   0  0  0  0  0  0  0  0  0  0  0  0
  184.4500  178.7840  137.5020 C   0  0  0  0  0  1  0  0  0  0  0  0
  184.5830  178.4040  138.9640 C   0  0  1  0  0  0  0  0  0  0  0  0
  186.3930  178.4860  140.6740 C   0  0  0  0  0  0  0  0  0  0  0  0
  183.8140  179.4150  139.8550 C   0  0  2  0  0  3  0  0  0  0  0  0
  179.5020  175.8030  141.4190 O   0  0  0  0  0  0  0  0  0  0  0  0
  181.9300  178.2270  140.9110 C   0  0  1  0  0  3  0  0  0  0  0  0
  185.4550  178.8040  141.6540 O   0  0  0  0  0  0  0  0  0  0  0  0
  185.9950  178.4220  139.3090 N   0  0  0  0  0  2  0  0  0  0  0  0
  179.3170  176.8350  140.7230 C   0  0  0  0  0  0  0  0  0  0  0  0
  181.5630  179.3280  138.5310 C   0  0  0  0  0  0  0  0  0  0  0  0
  181.0880  179.0770  142.8940 C   0  0  0  0  0  0  0  0  0  0  0  0
  187.9460  178.2050  141.0870 S   0  0  0  0  0  0  0  0  0  0  0  0
  179.4510  178.1250  141.3170 N   0  0  0  0  0  2  0  0  0  0  0  0
  181.4950  180.6050  137.9560 C   0  0  0  0  0  3  0  0  0  0  0  0
  180.4640  178.4350  136.5490 C   0  0  0  0  0  3  0  0  0  0  0  0
  180.4080  179.7140  135.9940 C   0  0  0  0  0  3  0  0  0  0  0  0
  178.9310  176.6730  138.9890 S   0  0  0  0  0  0  0  0  0  0  0  0
  183.0740  178.3320  141.9520 C   0  0  1  0  0  3  0  0  0  0  0  0
  180.7180  178.6510  141.6030 N   0  0  0  0  0  0  0  0  0  0  0  0
  184.1320  179.2550  141.3500 C   0  0  2  0  0  3  0  0  0  0  0  0
  183.1080  179.0290  144.4300 C   0  0  0  0  0  1  0  0  0  0  0  0
  182.2990  179.2440  139.8460 C   0  0  2  0  0  3  0  0  0  0  0  0
  1  6  1  0  0  0  0
  1 16  1  0  0  0  0
  4 20  1  0  0  0  0
  5 27  1  0  0  0  0
  6 23  1  0  0  0  0
  8  7  1  6  0  0  0
  8  2  1  0  0  0  0
  8 14  1  0  0  0  0
  8 10  1  0  0  0  0
  9 18  2  0  0  0  0
  9 13  1  0  0  0  0
 10 26  1  0  0  0  0
 12 25  1  0  0  0  0
 12 24  1  0  0  0  0
 14  9  1  0  0  0  0
 15 19  1  0  0  0  0
 15 11  2  0  0  0  0
 16 28  1  0  0  0  0
 17  5  1  0  0  0  0
 17  3  2  0  0  0  0
 19 25  1  0  0  0  0
 20 16  2  0  0  0  0
 21  1  2  0  0  0  0
 22 21  1  0  0  0  0
 22  4  2  0  0  0  0
 23 15  1  0  0  0  0
 24  5  1  0  0  0  0
 25 17  1  0  0  0  0
 26 13  1  0  0  0  0
 26 24  1  0  0  0  0
 28 10  1  0  0  0  0
 28 12  1  0  0  0  0
M  END
>  <MODEL>
1

>  <REMARK>
 VINA RESULT:      -5.4      0.000      0.000
  Name = 
  0 active torsions:
  status: ('A' for Active; 'I' for Inactive)
                            x       y       z     vdW  Elec       q    Type
                         _______ _______ _______ _____ _____    ______ ____

>  <TORSDO>
F 0

$$$$
=
 OpenBabel11122412003D

 28 32  0  0  1  0  0  0  0  0999 V2000
  182.0140  177.3860  137.8740 C   0  0  0  0  0  0  0  0  0  0  0  0
  183.7790  174.3300  137.7950 O   0  0  0  0  0  1  0  0  0  0  0  0
  187.7570  179.3540  137.0660 O   0  0  0  0  0  0  0  0  0  0  0  0
  180.7860  178.2700  135.5100 C   0  0  0  0  0  3  0  0  0  0  0  0
  187.4300  177.0480  136.7030 N   0  0  0  0  0  0  0  0  0  0  0  0
  182.7030  176.8850  139.4510 S   0  0  0  0  0  0  0  0  0  0  0  0
  182.1280  174.3920  136.0910 C   0  0  0  0  0  1  0  0  0  0  0  0
  183.6100  174.3310  136.4080 C   0  0  1  0  0  0  0  0  0  0  0  0
  185.5370  172.9310  135.6790 C   0  0  0  0  0  0  0  0  0  0  0  0
  184.3480  175.5320  135.7590 C   0  0  2  0  0  3  0  0  0  0  0  0
  185.4860  178.3940  140.7180 O   0  0  0  0  0  0  0  0  0  0  0  0
  185.1980  176.9760  137.5660 C   0  0  1  0  0  3  0  0  0  0  0  0
  186.3720  174.0450  135.7380 O   0  0  0  0  0  0  0  0  0  0  0  0
  184.1360  173.0850  135.8730 N   0  0  0  0  0  2  0  0  0  0  0  0
  184.7290  178.8470  139.8210 C   0  0  0  0  0  0  0  0  0  0  0  0
  182.7460  177.3900  136.6570 C   0  0  0  0  0  0  0  0  0  0  0  0
  187.0150  178.3360  137.1030 C   0  0  0  0  0  0  0  0  0  0  0  0
  186.1620  171.4550  135.3730 S   0  0  0  0  0  0  0  0  0  0  0  0
  185.2790  179.2770  138.5780 N   0  0  0  0  0  2  0  0  0  0  0  0
  182.1130  177.8410  135.4900 C   0  0  0  0  0  3  0  0  0  0  0  0
  180.6770  177.8020  137.8750 C   0  0  0  0  0  3  0  0  0  0  0  0
  180.0650  178.2440  136.7020 C   0  0  0  0  0  3  0  0  0  0  0  0
  182.9670  178.9030  140.0990 S   0  0  0  0  0  0  0  0  0  0  0  0
  186.3750  176.1050  137.0560 C   0  0  1  0  0  3  0  0  0  0  0  0
  185.7060  178.3420  137.6250 N   0  0  0  0  0  0  0  0  0  0  0  0
  185.8770  175.3860  135.8040 C   0  0  2  0  0  3  0  0  0  0  0  0
  188.8040  176.6710  136.4170 C   0  0  0  0  0  1  0  0  0  0  0  0
  184.1480  176.8630  136.4750 C   0  0  2  0  0  3  0  0  0  0  0  0
  1 21  1  0  0  0  0
  1  6  1  0  0  0  0
  3 17  2  0  0  0  0
  4 22  1  0  0  0  0
  5 24  1  0  0  0  0
  5 17  1  0  0  0  0
  6 23  1  0  0  0  0
  8  7  1  6  0  0  0
  8  2  1  0  0  0  0
  9 13  1  0  0  0  0
  9 14  1  0  0  0  0
 10 26  1  0  0  0  0
 10  8  1  0  0  0  0
 10 28  1  0  0  0  0
 12 25  1  0  0  0  0
 13 26  1  0  0  0  0
 14  8  1  0  0  0  0
 15 23  1  0  0  0  0
 15 11  2  0  0  0  0
 16  1  2  0  0  0  0
 17 25  1  0  0  0  0
 18  9  2  0  0  0  0
 19 15  1  0  0  0  0
 20  4  2  0  0  0  0
 20 16  1  0  0  0  0
 22 21  2  0  0  0  0
 24 12  1  0  0  0  0
 25 19  1  0  0  0  0
 26 24  1  0  0  0  0
 27  5  1  0  0  0  0
 28 16  1  0  0  0  0
 28 12  1  0  0  0  0
M  END
>  <MODEL>
2

>  <REMARK>
 VINA RESULT:      -5.3      3.643      6.070
  Name = 
  0 active torsions:
  status: ('A' for Active; 'I' for Inactive)
                            x       y       z     vdW  Elec       q    Type
                         _______ _______ _______ _____ _____    ______ ____

>  <TORSDO>
F 0

$$$$
=
 OpenBabel11122412003D

 28 32  0  0  1  0  0  0  0  0999 V2000
  180.8740  179.8540  139.8600 C   0  0  0  0  0  0  0  0  0  0  0  0
  184.2720  180.0710  138.9330 O   0  0  0  0  0  1  0  0  0  0  0  0
  180.9660  176.3220  134.8580 O   0  0  0  0  0  0  0  0  0  0  0  0
  180.1540  177.9980  141.8390 C   0  0  0  0  0  3  0  0  0  0  0  0
  183.0840  176.8610  135.7410 N   0  0  0  0  0  0  0  0  0  0  0  0
  181.2310  181.1150  138.6380 S   0  0  0  0  0  0  0  0  0  0  0  0
  184.0550  179.2080  141.1340 C   0  0  0  0  0  1  0  0  0  0  0  0
  184.5010  178.9320  139.7100 C   0  0  1  0  0  0  0  0  0  0  0  0
  186.5410  178.0000  138.6270 C   0  0  0  0  0  0  0  0  0  0  0  0
  183.7410  177.7060  139.1380 C   0  0  2  0  0  3  0  0  0  0  0  0
  180.4230  180.6660  135.3550 O   0  0  0  0  0  0  0  0  0  0  0  0
  182.2920  178.4910  137.3050 C   0  0  1  0  0  3  0  0  0  0  0  0
  185.7480  177.3790  137.6640 O   0  0  0  0  0  0  0  0  0  0  0  0
  185.9290  178.6590  139.7300 N   0  0  0  0  0  2  0  0  0  0  0  0
  179.9520  180.0370  136.3380 C   0  0  0  0  0  0  0  0  0  0  0  0
  181.3400  178.5160  139.7760 C   0  0  0  0  0  0  0  0  0  0  0  0
  181.6780  176.9610  135.6780 C   0  0  0  0  0  0  0  0  0  0  0  0
  188.1670  177.9600  138.4990 S   0  0  0  0  0  0  0  0  0  0  0  0
  179.9720  178.6110  136.3430 N   0  0  0  0  0  2  0  0  0  0  0  0
  180.9640  177.6050  140.7730 C   0  0  0  0  0  3  0  0  0  0  0  0
  180.0770  180.2380  140.9470 C   0  0  0  0  0  3  0  0  0  0  0  0
  179.7160  179.3170  141.9300 C   0  0  0  0  0  3  0  0  0  0  0  0
  179.3030  180.9380  137.7340 S   0  0  0  0  0  0  0  0  0  0  0  0
  183.5660  177.8710  136.6760 C   0  0  1  0  0  3  0  0  0  0  0  0
  181.1650  177.9150  136.5800 N   0  0  0  0  0  0  0  0  0  0  0  0
  184.3360  177.2030  137.8130 C   0  0  2  0  0  3  0  0  0  0  0  0
  183.9130  176.2030  134.7450 C   0  0  0  0  0  1  0  0  0  0  0  0
  182.2970  177.9850  138.7370 C   0  0  2  0  0  3  0  0  0  0  0  0
  1 21  1  0  0  0  0
  2  8  1  0  0  0  0
  3 17  2  0  0  0  0
  4 22  1  0  0  0  0
  5 24  1  0  0  0  0
  6  1  1  0  0  0  0
  8 14  1  0  0  0  0
  8  7  1  1  0  0  0
  9 14  1  0  0  0  0
 10  8  1  0  0  0  0
 11 15  2  0  0  0  0
 12 28  1  0  0  0  0
 13 26  1  0  0  0  0
 13  9  1  0  0  0  0
 15 19  1  0  0  0  0
 15 23  1  0  0  0  0
 16  1  2  0  0  0  0
 16 20  1  0  0  0  0
 17  5  1  0  0  0  0
 17 25  1  0  0  0  0
 18  9  2  0  0  0  0
 19 25  1  0  0  0  0
 20  4  2  0  0  0  0
 21 22  2  0  0  0  0
 23  6  1  0  0  0  0
 24 12  1  0  0  0  0
 24 26  1  0  0  0  0
 25 12  1  0  0  0  0
 26 10  1  0  0  0  0
 27  5  1  0  0  0  0
 28 10  1  0  0  0  0
 28 16  1  0  0  0  0
M  END
>  <MODEL>
3

>  <REMARK>
 VINA RESULT:      -5.3      3.097      5.101
  Name = 
  0 active torsions:
  status: ('A' for Active; 'I' for Inactive)
                            x       y       z     vdW  Elec       q    Type
                         _______ _______ _______ _____ _____    ______ ____

>  <TORSDO>
F 0

$$$$
=
 OpenBabel11122412003D

 28 32  0  0  1  0  0  0  0  0999 V2000
  187.7090  175.4180  135.9940 C   0  0  0  0  0  0  0  0  0  0  0  0
  184.9250  177.0950  134.6170 O   0  0  0  0  0  1  0  0  0  0  0  0
  186.0550  179.0080  140.6710 O   0  0  0  0  0  0  0  0  0  0  0  0
  187.3120  172.8630  137.0850 C   0  0  0  0  0  3  0  0  0  0  0  0
  184.4640  178.8210  138.9430 N   0  0  0  0  0  0  0  0  0  0  0  0
  188.0870  177.0120  135.2650 S   0  0  0  0  0  0  0  0  0  0  0  0
  184.5870  174.7460  134.5940 C   0  0  0  0  0  1  0  0  0  0  0  0
  184.1210  176.0810  135.1440 C   0  0  1  0  0  0  0  0  0  0  0  0
  181.9360  177.2550  135.3730 C   0  0  0  0  0  0  0  0  0  0  0  0
  184.1820  176.0730  136.6950 C   0  0  2  0  0  3  0  0  0  0  0  0
  188.6930  179.7410  137.2190 O   0  0  0  0  0  0  0  0  0  0  0  0
  185.9040  177.6890  137.4020 C   0  0  1  0  0  3  0  0  0  0  0  0
  182.3470  177.7840  136.5950 O   0  0  0  0  0  0  0  0  0  0  0  0
  182.7520  176.2960  134.7080 N   0  0  0  0  0  2  0  0  0  0  0  0
  188.7420  178.5360  137.5770 C   0  0  0  0  0  0  0  0  0  0  0  0
  186.6350  175.1950  136.8940 C   0  0  0  0  0  0  0  0  0  0  0  0
  185.7290  178.5980  139.5250 C   0  0  0  0  0  0  0  0  0  0  0  0
  180.5190  177.7210  134.7140 S   0  0  0  0  0  0  0  0  0  0  0  0
  188.0050  178.1040  138.7190 N   0  0  0  0  0  2  0  0  0  0  0  0
  186.4590  173.9120  137.4310 C   0  0  0  0  0  3  0  0  0  0  0  0
  188.5450  174.3510  135.6400 C   0  0  0  0  0  3  0  0  0  0  0  0
  188.3510  173.0810  136.1840 C   0  0  0  0  0  3  0  0  0  0  0  0
  189.6980  177.3700  136.6220 S   0  0  0  0  0  0  0  0  0  0  0  0
  184.5180  178.3660  137.5580 C   0  0  1  0  0  3  0  0  0  0  0  0
  186.6150  177.9380  138.6510 N   0  0  0  0  0  0  0  0  0  0  0  0
  183.4700  177.2800  137.3250 C   0  0  2  0  0  3  0  0  0  0  0  0
  183.4580  179.7290  139.4680 C   0  0  0  0  0  1  0  0  0  0  0  0
  185.5850  176.2100  137.2760 C   0  0  2  0  0  3  0  0  0  0  0  0
  1 16  1  0  0  0  0
  2  8  1  0  0  0  0
  4 20  1  0  0  0  0
  5 27  1  0  0  0  0
  5 17  1  0  0  0  0
  6  1  1  0  0  0  0
  6 23  1  0  0  0  0
  8  7  1  6  0  0  0
  8 10  1  0  0  0  0
  9 13  1  0  0  0  0
 10 28  1  0  0  0  0
 10 26  1  0  0  0  0
 11 15  2  0  0  0  0
 12 24  1  0  0  0  0
 12 25  1  0  0  0  0
 13 26  1  0  0  0  0
 14  8  1  0  0  0  0
 14  9  1  0  0  0  0
 15 19  1  0  0  0  0
 16 28  1  0  0  0  0
 16 20  2  0  0  0  0
 17  3  2  0  0  0  0
 18  9  2  0  0  0  0
 21  1  2  0  0  0  0
 21 22  1  0  0  0  0
 22  4  2  0  0  0  0
 23 15  1  0  0  0  0
 24  5  1  0  0  0  0
 25 19  1  0  0  0  0
 25 17  1  0  0  0  0
 26 24  1  0  0  0  0
 28 12  1  0  0  0  0
M  END
>  <MODEL>
4

>  <REMARK>
 VINA RESULT:      -5.2      4.073      7.359
  Name = 
  0 active torsions:
  status: ('A' for Active; 'I' for Inactive)
                            x       y       z     vdW  Elec       q    Type
                         _______ _______ _______ _____ _____    ______ ____

>  <TORSDO>
F 0

$$$$
=
 OpenBabel11122412003D

 28 32  0  0  1  0  0  0  0  0999 V2000
  181.0750  179.5530  139.8510 C   0  0  0  0  0  0  0  0  0  0  0  0
  181.0300  176.3650  138.3360 O   0  0  0  0  0  1  0  0  0  0  0  0
  187.0160  178.7520  138.5980 O   0  0  0  0  0  0  0  0  0  0  0  0
  180.4670  181.7850  138.2620 C   0  0  0  0  0  3  0  0  0  0  0  0
  185.5560  177.2430  137.5270 N   0  0  0  0  0  0  0  0  0  0  0  0
  181.4130  178.1940  140.9700 S   0  0  0  0  0  0  0  0  0  0  0  0
  179.6400  177.8790  137.1490 C   0  0  0  0  0  1  0  0  0  0  0  0
  180.8840  177.0110  137.1060 C   0  0  1  0  0  0  0  0  0  0  0  0
  181.8230  175.3130  135.5450 C   0  0  0  0  0  0  0  0  0  0  0  0
  182.1310  177.8750  136.7800 C   0  0  2  0  0  3  0  0  0  0  0  0
  184.5780  177.5630  142.0710 O   0  0  0  0  0  0  0  0  0  0  0  0
  183.6010  177.8740  138.7580 C   0  0  1  0  0  3  0  0  0  0  0  0
  183.1100  175.7750  135.8150 O   0  0  0  0  0  0  0  0  0  0  0  0
  180.6980  176.0080  136.0710 N   0  0  0  0  0  2  0  0  0  0  0  0
  184.1570  178.6380  141.5700 C   0  0  0  0  0  0  0  0  0  0  0  0
  181.7040  179.7130  138.5890 C   0  0  0  0  0  0  0  0  0  0  0  0
  185.8580  178.2830  138.4310 C   0  0  0  0  0  0  0  0  0  0  0  0
  181.6060  173.9890  134.6170 S   0  0  0  0  0  0  0  0  0  0  0  0
  184.8490  179.2280  140.4710 N   0  0  0  0  0  2  0  0  0  0  0  0
  181.3890  180.8380  137.8150 C   0  0  0  0  0  3  0  0  0  0  0  0
  180.1380  180.5020  140.2790 C   0  0  0  0  0  3  0  0  0  0  0  0
  179.8360  181.6140  139.4920 C   0  0  0  0  0  3  0  0  0  0  0  0
  182.6720  179.3900  142.2140 S   0  0  0  0  0  0  0  0  0  0  0  0
  184.1670  176.8510  137.7390 C   0  0  1  0  0  3  0  0  0  0  0  0
  184.7370  178.6850  139.1840 N   0  0  0  0  0  0  0  0  0  0  0  0
  183.3710  177.0300  136.4490 C   0  0  2  0  0  3  0  0  0  0  0  0
  186.5430  176.4240  136.8450 C   0  0  0  0  0  1  0  0  0  0  0  0
  182.6400  178.7200  137.9430 C   0  0  2  0  0  3  0  0  0  0  0  0
  1 21  1  0  0  0  0
  1  6  1  0  0  0  0
  4 22  1  0  0  0  0
  5 24  1  0  0  0  0
  5 17  1  0  0  0  0
  6 23  1  0  0  0  0
  8  7  1  1  0  0  0
  8  2  1  0  0  0  0
  9 13  1  0  0  0  0
  9 14  1  0  0  0  0
 10  8  1  0  0  0  0
 10 28  1  0  0  0  0
 12 25  1  0  0  0  0
 13 26  1  0  0  0  0
 14  8  1  0  0  0  0
 15 11  2  0  0  0  0
 15 23  1  0  0  0  0
 16  1  2  0  0  0  0
 17  3  2  0  0  0  0
 17 25  1  0  0  0  0
 18  9  2  0  0  0  0
 19 15  1  0  0  0  0
 20  4  2  0  0  0  0
 20 16  1  0  0  0  0
 22 21  2  0  0  0  0
 24 12  1  0  0  0  0
 25 19  1  0  0  0  0
 26 10  1  0  0  0  0
 26 24  1  0  0  0  0
 27  5  1  0  0  0  0
 28 16  1  0  0  0  0
 28 12  1  0  0  0  0
M  END
>  <MODEL>
5

>  <REMARK>
 VINA RESULT:      -5.1      2.841      5.385
  Name = 
  0 active torsions:
  status: ('A' for Active; 'I' for Inactive)
                            x       y       z     vdW  Elec       q    Type
                         _______ _______ _______ _____ _____    ______ ____

>  <TORSDO>
F 0

$$$$
=
 OpenBabel11122412003D

 28 32  0  0  1  0  0  0  0  0999 V2000
  180.8810  176.7960  136.7540 C   0  0  0  0  0  0  0  0  0  0  0  0
  184.1900  176.1880  137.8240 O   0  0  0  0  0  1  0  0  0  0  0  0
  180.7090  179.0130  142.4600 O   0  0  0  0  0  0  0  0  0  0  0  0
  180.3790  179.1070  135.2440 C   0  0  0  0  0  3  0  0  0  0  0  0
  182.8690  178.5930  141.6160 N   0  0  0  0  0  0  0  0  0  0  0  0
  181.1010  175.2610  137.6540 S   0  0  0  0  0  0  0  0  0  0  0  0
  184.1710  177.5640  135.8900 C   0  0  0  0  0  1  0  0  0  0  0  0
  184.5150  177.4660  137.3640 C   0  0  1  0  0  0  0  0  0  0  0  0
  186.4970  178.0040  138.7750 C   0  0  0  0  0  0  0  0  0  0  0  0
  183.7560  178.5560  138.1660 C   0  0  2  0  0  3  0  0  0  0  0  0
  180.0590  174.9490  140.8860 O   0  0  0  0  0  0  0  0  0  0  0  0
  182.1440  177.4290  139.6530 C   0  0  1  0  0  3  0  0  0  0  0  0
  185.6540  178.4160  139.8050 O   0  0  0  0  0  0  0  0  0  0  0  0
  185.9490  177.6620  137.5060 N   0  0  0  0  0  2  0  0  0  0  0  0
  179.6860  175.8190  140.0580 C   0  0  0  0  0  0  0  0  0  0  0  0
  181.3850  178.0480  137.1930 C   0  0  0  0  0  0  0  0  0  0  0  0
  181.4590  178.5530  141.5590 C   0  0  0  0  0  0  0  0  0  0  0  0
  188.1080  177.9290  139.0160 S   0  0  0  0  0  0  0  0  0  0  0  0
  179.7550  177.2010  140.4010 N   0  0  0  0  0  2  0  0  0  0  0  0
  181.1170  179.1900  136.4250 C   0  0  0  0  0  3  0  0  0  0  0  0
  180.1570  176.7250  135.5570 C   0  0  0  0  0  3  0  0  0  0  0  0
  179.9040  177.8730  134.8060 C   0  0  0  0  0  3  0  0  0  0  0  0
  179.1160  175.3140  138.4440 S   0  0  0  0  0  0  0  0  0  0  0  0
  183.3870  177.8140  140.4970 C   0  0  1  0  0  3  0  0  0  0  0  0
  180.9860  177.8710  140.4200 N   0  0  0  0  0  0  0  0  0  0  0  0
  184.2640  178.6950  139.6100 C   0  0  2  0  0  3  0  0  0  0  0  0
  183.6410  178.9490  142.7940 C   0  0  0  0  0  1  0  0  0  0  0  0
  182.2760  178.2640  138.3910 C   0  0  2  0  0  3  0  0  0  0  0  0
  1 16  1  0  0  0  0
  1  6  1  0  0  0  0
  4 20  1  0  0  0  0
  5 27  1  0  0  0  0
  6 23  1  0  0  0  0
  8  7  1  6  0  0  0
  8 14  1  0  0  0  0
  8  2  1  0  0  0  0
  8 10  1  0  0  0  0
  9 18  2  0  0  0  0
  9 13  1  0  0  0  0
 10 28  1  0  0  0  0
 10 26  1  0  0  0  0
 12 25  1  0  0  0  0
 12 24  1  0  0  0  0
 14  9  1  0  0  0  0
 15 19  1  0  0  0  0
 15 11  2  0  0  0  0
 16 28  1  0  0  0  0
 17  5  1  0  0  0  0
 17  3  2  0  0  0  0
 19 25  1  0  0  0  0
 20 16  2  0  0  0  0
 21  1  2  0  0  0  0
 22  4  2  0  0  0  0
 22 21  1  0  0  0  0
 23 15  1  0  0  0  0
 24  5  1  0  0  0  0
 25 17  1  0  0  0  0
 26 13  1  0  0  0  0
 26 24  1  0  0  0  0
 28 12  1  0  0  0  0
M  END
>  <MODEL>
6

>  <REMARK>
 VINA RESULT:      -4.9      1.503      1.765
  Name = 
  0 active torsions:
  status: ('A' for Active; 'I' for Inactive)
                            x       y       z     vdW  Elec       q    Type
                         _______ _______ _______ _____ _____    ______ ____

>  <TORSDO>
F 0

$$$$
=
 OpenBabel11122412003D

 28 32  0  0  1  0  0  0  0  0999 V2000
  183.0740  176.5670  137.1900 C   0  0  0  0  0  0  0  0  0  0  0  0
  180.7710  177.3470  139.7470 O   0  0  0  0  0  1  0  0  0  0  0  0
  180.5880  181.7220  135.0120 O   0  0  0  0  0  0  0  0  0  0  0  0
  185.7500  177.3410  137.5320 C   0  0  0  0  0  3  0  0  0  0  0  0
  180.1350  181.2750  137.2810 N   0  0  0  0  0  0  0  0  0  0  0  0
  181.4100  175.9680  136.8980 S   0  0  0  0  0  0  0  0  0  0  0  0
  182.9780  177.2290  140.6120 C   0  0  0  0  0  1  0  0  0  0  0  0
  181.7750  178.1140  140.3440 C   0  0  1  0  0  0  0  0  0  0  0  0
  180.4310  179.7470  141.6590 C   0  0  0  0  0  0  0  0  0  0  0  0
  182.1770  179.3060  139.4360 C   0  0  2  0  0  3  0  0  0  0  0  0
  179.3530  177.5070  134.6550 O   0  0  0  0  0  0  0  0  0  0  0  0
  181.0190  179.0490  137.2760 C   0  0  1  0  0  3  0  0  0  0  0  0
  180.2790  180.5400  140.5230 O   0  0  0  0  0  0  0  0  0  0  0  0
  181.2880  178.6110  141.6190 N   0  0  0  0  0  2  0  0  0  0  0  0
  180.6060  177.6070  134.7160 C   0  0  0  0  0  0  0  0  0  0  0  0
  183.3790  177.8920  137.5970 C   0  0  0  0  0  0  0  0  0  0  0  0
  180.6530  180.9540  136.0090 C   0  0  0  0  0  0  0  0  0  0  0  0
  179.6400  180.1280  143.0340 S   0  0  0  0  0  0  0  0  0  0  0  0
  181.2130  178.8960  134.7730 N   0  0  0  0  0  2  0  0  0  0  0  0
  184.7230  178.2580  137.7560 C   0  0  0  0  0  3  0  0  0  0  0  0
  184.1160  175.6520  136.9870 C   0  0  0  0  0  3  0  0  0  0  0  0
  185.4470  176.0350  137.1540 C   0  0  0  0  0  3  0  0  0  0  0  0
  181.6070  176.1310  134.7770 S   0  0  0  0  0  0  0  0  0  0  0  0
  180.2330  180.0860  138.1200 C   0  0  1  0  0  3  0  0  0  0  0  0
  181.1810  179.6480  135.9560 N   0  0  0  0  0  0  0  0  0  0  0  0
  181.0860  180.3850  139.3520 C   0  0  2  0  0  3  0  0  0  0  0  0
  179.2690  182.4060  137.5630 C   0  0  0  0  0  1  0  0  0  0  0  0
  182.3680  178.9500  137.9660 C   0  0  2  0  0  3  0  0  0  0  0  0
  1 16  1  0  0  0  0
  2  8  1  0  0  0  0
  3 17  2  0  0  0  0
  4 20  1  0  0  0  0
  5 27  1  0  0  0  0
  5 24  1  0  0  0  0
  6  1  1  0  0  0  0
  8  7  1  1  0  0  0
  8 14  1  0  0  0  0
  9 18  2  0  0  0  0
 10  8  1  0  0  0  0
 11 15  2  0  0  0  0
 12 28  1  0  0  0  0
 12 24  1  0  0  0  0
 13  9  1  0  0  0  0
 14  9  1  0  0  0  0
 15 19  1  0  0  0  0
 15 23  1  0  0  0  0
 16 20  2  0  0  0  0
 16 28  1  0  0  0  0
 17  5  1  0  0  0  0
 19 25  1  0  0  0  0
 21 22  1  0  0  0  0
 21  1  2  0  0  0  0
 22  4  2  0  0  0  0
 23  6  1  0  0  0  0
 24 26  1  0  0  0  0
 25 17  1  0  0  0  0
 25 12  1  0  0  0  0
 26 10  1  0  0  0  0
 26 13  1  0  0  0  0
 28 10  1  0  0  0  0
M  END
>  <MODEL>
7

>  <REMARK>
 VINA RESULT:      -4.7      3.351      5.489
  Name = 
  0 active torsions:
  status: ('A' for Active; 'I' for Inactive)
                            x       y       z     vdW  Elec       q    Type
                         _______ _______ _______ _____ _____    ______ ____

>  <TORSDO>
F 0

$$$$
=
 OpenBabel11122412003D

 28 32  0  0  1  0  0  0  0  0999 V2000
  189.1110  177.6410  137.8110 C   0  0  0  0  0  0  0  0  0  0  0  0
  191.3890  176.2510  135.5010 O   0  0  0  0  0  1  0  0  0  0  0  0
  186.4540  172.2530  136.6230 O   0  0  0  0  0  0  0  0  0  0  0  0
  189.6780  177.3910  140.5480 C   0  0  0  0  0  3  0  0  0  0  0  0
  188.6870  172.4490  135.8940 N   0  0  0  0  0  0  0  0  0  0  0  0
  188.6860  177.9160  136.0910 S   0  0  0  0  0  0  0  0  0  0  0  0
  192.4710  176.7460  137.5550 C   0  0  0  0  0  1  0  0  0  0  0  0
  192.0440  175.6600  136.5850 C   0  0  1  0  0  0  0  0  0  0  0  0
  193.1400  173.7090  135.4910 C   0  0  0  0  0  0  0  0  0  0  0  0
  191.1240  174.6340  137.2980 C   0  0  2  0  0  3  0  0  0  0  0  0
  186.1790  176.1540  134.5940 O   0  0  0  0  0  0  0  0  0  0  0  0
  188.8750  174.8010  136.3040 C   0  0  1  0  0  3  0  0  0  0  0  0
  191.9580  172.9800  135.6040 O   0  0  0  0  0  0  0  0  0  0  0  0
  193.2400  174.9920  136.1000 N   0  0  0  0  0  2  0  0  0  0  0  0
  186.3590  176.3010  135.8300 C   0  0  0  0  0  0  0  0  0  0  0  0
  189.4820  176.3780  138.3420 C   0  0  0  0  0  0  0  0  0  0  0  0
  187.4890  172.9500  136.4450 C   0  0  0  0  0  0  0  0  0  0  0  0
  194.4110  173.0890  134.6790 S   0  0  0  0  0  0  0  0  0  0  0  0
  186.4140  175.1560  136.6790 N   0  0  0  0  0  2  0  0  0  0  0  0
  189.7550  176.2760  139.7130 C   0  0  0  0  0  3  0  0  0  0  0  0
  189.0560  178.7560  138.6590 C   0  0  0  0  0  3  0  0  0  0  0  0
  189.3350  178.6330  140.0200 C   0  0  0  0  0  3  0  0  0  0  0  0
  186.5890  177.9380  136.5020 S   0  0  0  0  0  0  0  0  0  0  0  0
  189.5880  173.5750  135.6750 C   0  0  1  0  0  3  0  0  0  0  0  0
  187.5500  174.3350  136.6980 N   0  0  0  0  0  0  0  0  0  0  0  0
  190.8810  173.3690  136.4610 C   0  0  2  0  0  3  0  0  0  0  0  0
  188.8270  171.1520  135.2550 C   0  0  0  0  0  1  0  0  0  0  0  0
  189.6990  175.1190  137.5390 C   0  0  2  0  0  3  0  0  0  0  0  0
  1 16  2  0  0  0  0
  1 21  1  0  0  0  0
  2  8  1  0  0  0  0
  5 17  1  0  0  0  0
  6 23  1  0  0  0  0
  6  1  1  0  0  0  0
  8 10  1  0  0  0  0
  8  7  1  1  0  0  0
  9 13  1  0  0  0  0
  9 14  1  0  0  0  0
 10 28  1  0  0  0  0
 11 15  2  0  0  0  0
 12 25  1  0  0  0  0
 12 28  1  0  0  0  0
 13 26  1  0  0  0  0
 14  8  1  0  0  0  0
 15 23  1  0  0  0  0
 15 19  1  0  0  0  0
 16 20  1  0  0  0  0
 17  3  2  0  0  0  0
 17 25  1  0  0  0  0
 18  9  2  0  0  0  0
 19 25  1  0  0  0  0
 20  4  2  0  0  0  0
 21 22  2  0  0  0  0
 22  4  1  0  0  0  0
 24  5  1  0  0  0  0
 24 12  1  0  0  0  0
 24 26  1  0  0  0  0
 26 10  1  0  0  0  0
 27  5  1  0  0  0  0
 28 16  1  0  0  0  0
M  END
>  <MODEL>
8

>  <REMARK>
 VINA RESULT:      -4.6      6.970      9.621
  Name = 
  0 active torsions:
  status: ('A' for Active; 'I' for Inactive)
                            x       y       z     vdW  Elec       q    Type
                         _______ _______ _______ _____ _____    ______ ____

>  <TORSDO>
F 0

$$$$
=
 OpenBabel11122412003D

 28 32  0  0  1  0  0  0  0  0999 V2000
  182.0050  177.7380  137.8180 C   0  0  0  0  0  0  0  0  0  0  0  0
  184.4270  176.4830  135.5770 O   0  0  0  0  0  1  0  0  0  0  0  0
  180.4310  171.8250  137.5590 O   0  0  0  0  0  0  0  0  0  0  0  0
  182.7120  178.0070  140.5210 C   0  0  0  0  0  3  0  0  0  0  0  0
  182.5510  172.3350  136.6650 N   0  0  0  0  0  0  0  0  0  0  0  0
  181.4700  177.6690  136.1080 S   0  0  0  0  0  0  0  0  0  0  0  0
  185.4640  177.4740  137.4680 C   0  0  0  0  0  1  0  0  0  0  0  0
  185.2260  176.1960  136.6870 C   0  0  1  0  0  0  0  0  0  0  0  0
  186.6470  174.3510  135.8030 C   0  0  0  0  0  0  0  0  0  0  0  0
  184.5560  175.1300  137.5930 C   0  0  2  0  0  3  0  0  0  0  0  0
  179.3110  175.2580  135.0340 O   0  0  0  0  0  0  0  0  0  0  0  0
  182.2830  174.7140  136.7350 C   0  0  1  0  0  3  0  0  0  0  0  0
  185.6390  173.4330  136.0910 O   0  0  0  0  0  0  0  0  0  0  0  0
  186.5120  175.7050  136.2210 N   0  0  0  0  0  2  0  0  0  0  0  0
  179.5040  175.6170  136.2240 C   0  0  0  0  0  0  0  0  0  0  0  0
  182.6390  176.6610  138.4920 C   0  0  0  0  0  0  0  0  0  0  0  0
  181.2980  172.6730  137.2190 C   0  0  0  0  0  0  0  0  0  0  0  0
  187.9850  173.8720  135.0020 S   0  0  0  0  0  0  0  0  0  0  0  0
  179.8160  174.6430  137.2170 N   0  0  0  0  0  2  0  0  0  0  0  0
  182.9780  176.8170  139.8440 C   0  0  0  0  0  3  0  0  0  0  0  0
  181.7610  178.9330  138.5060 C   0  0  0  0  0  3  0  0  0  0  0  0
  182.1090  179.0690  139.8500 C   0  0  0  0  0  3  0  0  0  0  0  0
  179.4280  177.3490  136.6480 S   0  0  0  0  0  0  0  0  0  0  0  0
  183.2010  173.5680  136.2350 C   0  0  1  0  0  3  0  0  0  0  0  0
  181.0930  174.0660  137.2750 N   0  0  0  0  0  0  0  0  0  0  0  0
  184.5380  173.7320  136.9550 C   0  0  2  0  0  3  0  0  0  0  0  0
  182.9230  171.0090  136.2020 C   0  0  0  0  0  1  0  0  0  0  0  0
  183.0720  175.3620  137.8580 C   0  0  2  0  0  3  0  0  0  0  0  0
  1 16  2  0  0  0  0
  1 21  1  0  0  0  0
  2  8  1  0  0  0  0
  5 17  1  0  0  0  0
  6 23  1  0  0  0  0
  6  1  1  0  0  0  0
  8  7  1  1  0  0  0
  8 10  1  0  0  0  0
  9 13  1  0  0  0  0
  9 14  1  0  0  0  0
 10 28  1  0  0  0  0
 11 15  2  0  0  0  0
 12 25  1  0  0  0  0
 12 28  1  0  0  0  0
 13 26  1  0  0  0  0
 14  8  1  0  0  0  0
 15 23  1  0  0  0  0
 15 19  1  0  0  0  0
 16 20  1  0  0  0  0
 17 25  1  0  0  0  0
 17  3  2  0  0  0  0
 18  9  2  0  0  0  0
 19 25  1  0  0  0  0
 20  4  2  0  0  0  0
 21 22  2  0  0  0  0
 22  4  1  0  0  0  0
 24  5  1  0  0  0  0
 24 12  1  0  0  0  0
 24 26  1  0  0  0  0
 26 10  1  0  0  0  0
 27  5  1  0  0  0  0
 28 16  1  0  0  0  0
M  END
>  <MODEL>
9

>  <REMARK>
 VINA RESULT:      -4.3      4.477      5.949
  Name = 
  0 active torsions:
  status: ('A' for Active; 'I' for Inactive)
                            x       y       z     vdW  Elec       q    Type
                         _______ _______ _______ _____ _____    ______ ____

>  <TORSDO>
F 0

$$$$
