=
 OpenBabel11122410253D

 30 36  0  0  1  0  0  0  0  0999 V2000
  189.3070  177.3360  143.4850 C   0  0  1  0  0  3  0  0  0  0  0  0
  191.3120  176.4480  144.8100 C   0  0  0  0  0  0  0  0  0  0  0  0
  187.1640  177.9230  147.2100 C   0  0  0  0  0  2  0  0  0  0  0  0
  188.0460  178.2260  143.6440 C   0  0  1  0  0  3  0  0  0  0  0  0
  190.1150  177.8980  142.4840 O   0  0  0  0  0  0  0  0  0  0  0  0
  187.5470  178.0930  140.0300 O   0  0  0  0  0  0  0  0  0  0  0  0
  184.9280  177.9560  142.8030 C   0  0  1  0  0  3  0  0  0  0  0  0
  188.0910  178.0360  141.1660 C   0  0  0  0  0  0  0  0  0  0  0  0
  184.7410  177.9660  144.3200 C   0  0  2  0  0  3  0  0  0  0  0  0
  185.8960  178.3070  146.5350 C   0  0  0  0  0  0  0  0  0  0  0  0
  189.4700  177.6410  141.3070 N   0  0  0  0  0  0  0  0  0  0  0  0
  187.3310  178.2940  142.3620 N   0  0  0  0  0  0  0  0  0  0  0  0
  191.8850  176.1260  146.0000 N   0  0  0  0  0  2  0  0  0  0  0  0
  183.6360  178.9700  144.5750 C   0  0  0  0  0  2  0  0  0  0  0  0
  183.5750  178.3420  142.2240 C   0  0  0  0  0  2  0  0  0  0  0  0
  191.9190  176.1790  143.7400 O   0  0  0  0  0  0  0  0  0  0  0  0
  188.0920  177.9930  146.0240 C   0  0  2  0  0  3  0  0  0  0  0  0
  191.2550  176.3730  147.1780 C   0  0  0  0  0  3  0  0  0  0  0  0
  190.0520  177.0660  144.7880 C   0  0  0  0  0  0  0  0  0  0  0  0
  187.2470  177.6530  144.8100 C   0  0  1  0  0  3  0  0  0  0  0  0
  184.8510  178.5980  147.1740 O   0  0  0  0  0  0  0  0  0  0  0  0
  185.9510  178.2540  145.1030 N   0  0  0  0  0  0  0  0  0  0  0  0
  182.7220  178.8550  143.3730 C   0  0  0  0  0  2  0  0  0  0  0  0
  185.9720  180.3190  142.7820 C   0  0  0  0  0  1  0  0  0  0  0  0
  190.0240  176.9430  147.1860 N   0  0  0  0  0  0  0  0  0  0  0  0
  189.3980  177.2610  146.0230 C   0  0  0  0  0  0  0  0  0  0  0  0
  186.0050  178.8900  142.2450 C   0  0  2  0  0  3  0  0  0  0  0  0
  190.0780  176.7320  140.3380 C   0  0  0  0  0  3  0  0  0  0  0  0
  191.4860  177.1940  140.0050 C   0  0  0  0  0  2  0  0  0  0  0  0
  190.3550  177.4730  139.0420 C   0  0  0  0  0  2  0  0  0  0  0  0
  1  5  1  6  0  0  0
  1  4  1  0  0  0  0
  1 19  1  0  0  0  0
  2 13  1  0  0  0  0
  4 12  1  6  0  0  0
  4 20  1  0  0  0  0
  6  8  2  0  0  0  0
  7 15  1  6  0  0  0
  7  9  1  0  0  0  0
  8 11  1  0  0  0  0
  8 12  1  0  0  0  0
  9 14  1  6  0  0  0
  9 22  1  0  0  0  0
 10 21  2  0  0  0  0
 10  3  1  0  0  0  0
 11  5  1  0  0  0  0
 13 18  1  0  0  0  0
 15 23  1  0  0  0  0
 16  2  2  0  0  0  0
 17  3  1  1  0  0  0
 18 25  2  0  0  0  0
 19  2  1  0  0  0  0
 19 26  2  0  0  0  0
 20 22  1  1  0  0  0
 20 17  1  0  0  0  0
 22 10  1  0  0  0  0
 23 14  1  0  0  0  0
 26 17  1  0  0  0  0
 26 25  1  0  0  0  0
 27 12  1  0  0  0  0
 27 24  1  1  0  0  0
 27  7  1  0  0  0  0
 28 11  1  0  0  0  0
 29 28  1  0  0  0  0
 30 29  1  0  0  0  0
 30 28  1  0  0  0  0
M  END
>  <MODEL>
1

>  <REMARK>
 VINA RESULT:     -10.1      0.000      0.000
  Name = 
  1 active torsions:
  status: ('A' for Active; 'I' for Inactive)
    1  A    between atoms: N_11  and  C_28
                            x       y       z     vdW  Elec       q    Type
                         _______ _______ _______ _____ _____    ______ ____

>  <TORSDO>
F 1

$$$$
=
 OpenBabel11122410253D

 30 36  0  0  1  0  0  0  0  0999 V2000
  187.1490  178.3280  140.6460 C   0  0  1  0  0  3  0  0  0  0  0  0
  184.8140  179.0470  139.8710 C   0  0  0  0  0  0  0  0  0  0  0  0
  185.6300  177.9220  144.6890 C   0  0  0  0  0  2  0  0  0  0  0  0
  187.8630  177.5470  141.7800 C   0  0  1  0  0  3  0  0  0  0  0  0
  187.4490  177.7010  139.4260 O   0  0  0  0  0  0  0  0  0  0  0  0
  190.9770  177.7200  139.8820 O   0  0  0  0  0  0  0  0  0  0  0  0
  190.4590  178.0740  143.6470 C   0  0  1  0  0  3  0  0  0  0  0  0
  189.7500  177.7310  140.1730 C   0  0  0  0  0  0  0  0  0  0  0  0
  189.3980  178.0800  144.7480 C   0  0  2  0  0  3  0  0  0  0  0  0
  186.9700  177.6450  145.2700 C   0  0  0  0  0  0  0  0  0  0  0  0
  188.7550  178.0110  139.1680 N   0  0  0  0  0  0  0  0  0  0  0  0
  189.3110  177.5370  141.5300 N   0  0  0  0  0  0  0  0  0  0  0  0
  183.5140  179.3210  140.1560 N   0  0  0  0  0  2  0  0  0  0  0  0
  189.9460  177.1710  145.8280 C   0  0  0  0  0  2  0  0  0  0  0  0
  191.7780  177.8020  144.3550 C   0  0  0  0  0  2  0  0  0  0  0  0
  185.2520  179.2650  138.7100 O   0  0  0  0  0  0  0  0  0  0  0  0
  185.9730  177.7750  143.2280 C   0  0  2  0  0  3  0  0  0  0  0  0
  183.0070  179.1270  141.4010 C   0  0  0  0  0  3  0  0  0  0  0  0
  185.6550  178.5360  140.8730 C   0  0  0  0  0  0  0  0  0  0  0  0
  187.4280  178.1840  143.0960 C   0  0  1  0  0  3  0  0  0  0  0  0
  187.1450  177.4410  146.5000 O   0  0  0  0  0  0  0  0  0  0  0  0
  188.0460  177.6930  144.3230 N   0  0  0  0  0  0  0  0  0  0  0  0
  191.4470  177.3610  145.7720 C   0  0  0  0  0  2  0  0  0  0  0  0
  189.9430  175.6330  142.9780 C   0  0  0  0  0  1  0  0  0  0  0  0
  183.8030  178.6610  142.3970 N   0  0  0  0  0  0  0  0  0  0  0  0
  185.1160  178.3960  142.1700 C   0  0  0  0  0  0  0  0  0  0  0  0
  190.2650  177.0540  142.5220 C   0  0  2  0  0  3  0  0  0  0  0  0
  189.0780  178.8660  138.0290 C   0  0  0  0  0  3  0  0  0  0  0  0
  188.0850  178.6310  136.9050 C   0  0  0  0  0  2  0  0  0  0  0  0
  189.4610  178.0090  136.8350 C   0  0  0  0  0  2  0  0  0  0  0  0
  1  5  1  6  0  0  0
  1 19  1  0  0  0  0
  1  4  1  0  0  0  0
  2 13  1  0  0  0  0
  2 19  1  0  0  0  0
  3 10  1  0  0  0  0
  4 12  1  6  0  0  0
  4 20  1  0  0  0  0
  6  8  2  0  0  0  0
  7 15  1  1  0  0  0
  7  9  1  0  0  0  0
  8 12  1  0  0  0  0
  9 14  1  1  0  0  0
 10 21  2  0  0  0  0
 11  5  1  0  0  0  0
 11  8  1  0  0  0  0
 12 27  1  0  0  0  0
 13 18  1  0  0  0  0
 15 23  1  0  0  0  0
 16  2  2  0  0  0  0
 17  3  1  1  0  0  0
 18 25  2  0  0  0  0
 19 26  2  0  0  0  0
 20 17  1  0  0  0  0
 20 22  1  1  0  0  0
 22  9  1  0  0  0  0
 22 10  1  0  0  0  0
 23 14  1  0  0  0  0
 26 25  1  0  0  0  0
 26 17  1  0  0  0  0
 27 24  1  1  0  0  0
 27  7  1  0  0  0  0
 28 11  1  0  0  0  0
 29 28  1  0  0  0  0
 30 29  1  0  0  0  0
 30 28  1  0  0  0  0
M  END
>  <MODEL>
2

>  <REMARK>
 VINA RESULT:     -10.0      1.993      5.673
  Name = 
  1 active torsions:
  status: ('A' for Active; 'I' for Inactive)
    1  A    between atoms: N_11  and  C_28
                            x       y       z     vdW  Elec       q    Type
                         _______ _______ _______ _____ _____    ______ ____

>  <TORSDO>
F 1

$$$$
=
 OpenBabel11122410253D

 30 36  0  0  1  0  0  0  0  0999 V2000
  186.0540  178.2510  142.4220 C   0  0  1  0  0  3  0  0  0  0  0  0
  186.7460  178.0860  144.8850 C   0  0  0  0  0  0  0  0  0  0  0  0
  181.9690  179.0060  143.6710 C   0  0  0  0  0  2  0  0  0  0  0  0
  184.9520  178.8510  141.5110 C   0  0  1  0  0  3  0  0  0  0  0  0
  187.2890  178.7900  142.0290 O   0  0  0  0  0  0  0  0  0  0  0  0
  186.9470  177.9630  138.5850 O   0  0  0  0  0  0  0  0  0  0  0  0
  183.1640  177.7470  139.0440 C   0  0  1  0  0  3  0  0  0  0  0  0
  186.6170  178.2340  139.7720 C   0  0  0  0  0  0  0  0  0  0  0  0
  182.0300  177.9870  140.0400 C   0  0  2  0  0  3  0  0  0  0  0  0
  181.4340  178.9700  142.2850 C   0  0  0  0  0  0  0  0  0  0  0  0
  187.5860  178.1880  140.8380 N   0  0  0  0  0  0  0  0  0  0  0  0
  185.2480  178.5270  140.1090 N   0  0  0  0  0  0  0  0  0  0  0  0
  186.4170  178.1180  146.2030 N   0  0  0  0  0  0  0  0  0  0  0  0
  180.9770  178.7490  139.2630 C   0  0  0  0  0  2  0  0  0  0  0  0
  182.5020  177.7110  137.6750 C   0  0  0  0  0  2  0  0  0  0  0  0
  187.9180  177.7700  144.5490 O   0  0  0  0  0  0  0  0  0  0  0  0
  183.4420  179.0670  143.3530 C   0  0  2  0  0  3  0  0  0  0  0  0
  185.1580  178.4270  146.6100 C   0  0  0  0  0  3  0  0  0  0  0  0
  185.7780  178.3930  143.9160 C   0  0  2  0  0  3  0  0  0  0  0  0
  183.6160  178.3340  142.0360 C   0  0  1  0  0  3  0  0  0  0  0  0
  180.2120  179.1310  142.0270 O   0  0  0  0  0  0  0  0  0  0  0  0
  182.4150  178.6740  141.2810 N   0  0  0  0  0  0  0  0  0  0  0  0
  181.0790  178.2200  137.8480 C   0  0  0  0  0  2  0  0  0  0  0  0
  183.8410  180.2400  139.0090 C   0  0  0  0  0  1  0  0  0  0  0  0
  184.1940  178.7000  145.6950 N   0  0  0  0  0  0  0  0  0  0  0  0
  184.4660  178.6560  144.3650 C   0  0  0  0  0  0  0  0  0  0  0  0
  184.2920  178.7820  139.0360 C   0  0  2  0  0  3  0  0  0  0  0  0
  188.7260  177.2780  140.7580 C   0  0  0  0  0  3  0  0  0  0  0  0
  189.9060  177.8550  141.5210 C   0  0  0  0  0  2  0  0  0  0  0  0
  189.8670  177.9490  140.0130 C   0  0  0  0  0  2  0  0  0  0  0  0
  1  5  1  1  0  0  0
  1 19  1  0  0  0  0
  2 13  1  0  0  0  0
  4 12  1  6  0  0  0
  4 20  1  0  0  0  0
  4  1  1  0  0  0  0
  6  8  2  0  0  0  0
  7 15  1  6  0  0  0
  7  9  1  0  0  0  0
  8 12  1  0  0  0  0
  8 11  1  0  0  0  0
  9 14  1  6  0  0  0
  9 22  1  0  0  0  0
 10  3  1  0  0  0  0
 11  5  1  0  0  0  0
 13 18  2  0  0  0  0
 15 23  1  0  0  0  0
 16  2  2  0  0  0  0
 17  3  1  1  0  0  0
 17 26  1  0  0  0  0
 19 26  1  1  0  0  0
 19  2  1  0  0  0  0
 20 22  1  6  0  0  0
 20 17  1  0  0  0  0
 21 10  2  0  0  0  0
 22 10  1  0  0  0  0
 23 14  1  0  0  0  0
 25 18  1  0  0  0  0
 26 25  2  0  0  0  0
 27 24  1  1  0  0  0
 27  7  1  0  0  0  0
 27 12  1  0  0  0  0
 28 11  1  0  0  0  0
 28 29  1  0  0  0  0
 30 28  1  0  0  0  0
 30 29  1  0  0  0  0
M  END
>  <MODEL>
3

>  <REMARK>
 VINA RESULT:      -8.7      2.778      4.636
  Name = 
  1 active torsions:
  status: ('A' for Active; 'I' for Inactive)
    1  A    between atoms: N_11  and  C_28
                            x       y       z     vdW  Elec       q    Type
                         _______ _______ _______ _____ _____    ______ ____

>  <TORSDO>
F 1

$$$$
=
 OpenBabel11122410253D

 30 36  0  0  1  0  0  0  0  0999 V2000
  186.4120  178.2030  141.5560 C   0  0  1  0  0  3  0  0  0  0  0  0
  187.8030  177.8780  143.6840 C   0  0  0  0  0  0  0  0  0  0  0  0
  182.8960  178.8520  144.0120 C   0  0  0  0  0  2  0  0  0  0  0  0
  185.0970  178.8570  141.0550 C   0  0  1  0  0  3  0  0  0  0  0  0
  187.4820  178.7730  140.8480 O   0  0  0  0  0  0  0  0  0  0  0  0
  186.1180  178.1750  137.6170 O   0  0  0  0  0  0  0  0  0  0  0  0
  182.6400  177.9100  139.1670 C   0  0  1  0  0  3  0  0  0  0  0  0
  186.1600  178.3650  138.8630 C   0  0  0  0  0  0  0  0  0  0  0  0
  181.8570  178.0780  140.4700 C   0  0  2  0  0  3  0  0  0  0  0  0
  181.9720  178.9060  142.8490 C   0  0  0  0  0  0  0  0  0  0  0  0
  187.4020  178.2530  139.5860 N   0  0  0  0  0  0  0  0  0  0  0  0
  184.9580  178.6280  139.6110 N   0  0  0  0  0  0  0  0  0  0  0  0
  187.8820  177.8210  145.0400 N   0  0  0  0  0  2  0  0  0  0  0  0
  180.6320  178.8840  140.0920 C   0  0  0  0  0  2  0  0  0  0  0  0
  181.6000  177.9620  138.0580 C   0  0  0  0  0  2  0  0  0  0  0  0
  188.8170  177.5910  142.9940 O   0  0  0  0  0  0  0  0  0  0  0  0
  184.2080  178.9420  143.2740 C   0  0  2  0  0  3  0  0  0  0  0  0
  186.8060  178.0950  145.8220 C   0  0  0  0  0  3  0  0  0  0  0  0
  186.5950  178.2440  143.0700 C   0  0  0  0  0  0  0  0  0  0  0  0
  183.9710  178.2990  141.9200 C   0  0  1  0  0  3  0  0  0  0  0  0
  180.7310  179.0780  142.9780 O   0  0  0  0  0  0  0  0  0  0  0  0
  182.6050  178.6820  141.5810 N   0  0  0  0  0  0  0  0  0  0  0  0
  180.3010  178.4510  138.6800 C   0  0  0  0  0  2  0  0  0  0  0  0
  183.3130  180.4030  139.0940 C   0  0  0  0  0  1  0  0  0  0  0  0
  185.6170  178.4230  145.2570 N   0  0  0  0  0  0  0  0  0  0  0  0
  185.4800  178.4700  143.9060 C   0  0  0  0  0  0  0  0  0  0  0  0
  183.7300  178.9480  138.8910 C   0  0  2  0  0  3  0  0  0  0  0  0
  188.4530  177.3560  139.1110 C   0  0  0  0  0  3  0  0  0  0  0  0
  189.8060  177.8350  139.6040 C   0  0  0  0  0  2  0  0  0  0  0  0
  189.3860  178.1080  138.1780 C   0  0  0  0  0  2  0  0  0  0  0  0
  1  5  1  6  0  0  0
  1 19  1  0  0  0  0
  2 13  1  0  0  0  0
  4 12  1  6  0  0  0
  4  1  1  0  0  0  0
  4 20  1  0  0  0  0
  6  8  2  0  0  0  0
  7 15  1  6  0  0  0
  7  9  1  0  0  0  0
  8 11  1  0  0  0  0
  8 12  1  0  0  0  0
  9 14  1  6  0  0  0
  9 22  1  0  0  0  0
 10 21  2  0  0  0  0
 10  3  1  0  0  0  0
 11  5  1  0  0  0  0
 13 18  1  0  0  0  0
 15 23  1  0  0  0  0
 16  2  2  0  0  0  0
 17 26  1  0  0  0  0
 17  3  1  1  0  0  0
 19  2  1  0  0  0  0
 19 26  2  0  0  0  0
 20 22  1  6  0  0  0
 20 17  1  0  0  0  0
 22 10  1  0  0  0  0
 23 14  1  0  0  0  0
 25 18  2  0  0  0  0
 26 25  1  0  0  0  0
 27 24  1  1  0  0  0
 27  7  1  0  0  0  0
 27 12  1  0  0  0  0
 28 11  1  0  0  0  0
 28 29  1  0  0  0  0
 30 28  1  0  0  0  0
 30 29  1  0  0  0  0
M  END
>  <MODEL>
4

>  <REMARK>
 VINA RESULT:      -8.7      2.711      4.242
  Name = 
  1 active torsions:
  status: ('A' for Active; 'I' for Inactive)
    1  A    between atoms: N_11  and  C_28
                            x       y       z     vdW  Elec       q    Type
                         _______ _______ _______ _____ _____    ______ ____

>  <TORSDO>
F 1

$$$$
=
 OpenBabel11122410253D

 30 36  0  0  1  0  0  0  0  0999 V2000
  186.7640  178.1920  145.0240 C   0  0  1  0  0  3  0  0  0  0  0  0
  184.3500  178.6160  145.7740 C   0  0  0  0  0  0  0  0  0  0  0  0
  185.5630  178.9050  140.9180 C   0  0  0  0  0  2  0  0  0  0  0  0
  187.7440  178.4980  143.8620 C   0  0  1  0  0  3  0  0  0  0  0  0
  187.3080  178.7180  146.2060 O   0  0  0  0  0  0  0  0  0  0  0  0
  190.4780  177.1400  145.8650 O   0  0  0  0  0  0  0  0  0  0  0  0
  189.8500  176.7580  142.1190 C   0  0  1  0  0  3  0  0  0  0  0  0
  189.3660  177.6390  145.5370 C   0  0  0  0  0  0  0  0  0  0  0  0
  188.8890  177.1280  140.9880 C   0  0  2  0  0  3  0  0  0  0  0  0
  186.8900  178.5300  140.3610 C   0  0  0  0  0  0  0  0  0  0  0  0
  188.3510  177.8950  146.5260 N   0  0  0  0  0  0  0  0  0  0  0  0
  189.0530  177.8990  144.1560 N   0  0  0  0  0  0  0  0  0  0  0  0
  183.0590  178.9110  145.4680 N   0  0  0  0  0  0  0  0  0  0  0  0
  189.7750  177.6250  139.8650 C   0  0  0  0  0  2  0  0  0  0  0  0
  191.1550  176.3780  141.4360 C   0  0  0  0  0  2  0  0  0  0  0  0
  184.6510  178.3200  146.9600 O   0  0  0  0  0  0  0  0  0  0  0  0
  185.9390  179.0000  142.3750 C   0  0  2  0  0  3  0  0  0  0  0  0
  182.6840  179.2090  144.1970 C   0  0  0  0  0  3  0  0  0  0  0  0
  185.3270  178.6340  144.7660 C   0  0  2  0  0  3  0  0  0  0  0  0
  187.0730  178.0130  142.5810 C   0  0  1  0  0  3  0  0  0  0  0  0
  187.1330  178.5430  139.1260 O   0  0  0  0  0  0  0  0  0  0  0  0
  187.8400  178.0930  141.3430 N   0  0  0  0  0  0  0  0  0  0  0  0
  191.0460  176.8090  139.9810 C   0  0  0  0  0  2  0  0  0  0  0  0
  190.4460  179.2250  142.6000 C   0  0  0  0  0  1  0  0  0  0  0  0
  183.6010  179.2070  143.1970 N   0  0  0  0  0  0  0  0  0  0  0  0
  184.8990  178.8950  143.4460 C   0  0  0  0  0  0  0  0  0  0  0  0
  190.1200  177.8450  143.1630 C   0  0  2  0  0  3  0  0  0  0  0  0
  188.2730  177.0740  147.7320 C   0  0  0  0  0  3  0  0  0  0  0  0
  187.5790  177.8440  148.8420 C   0  0  0  0  0  2  0  0  0  0  0  0
  189.0850  177.7150  148.8430 C   0  0  0  0  0  2  0  0  0  0  0  0
  1  5  1  1  0  0  0
  2 16  2  0  0  0  0
  4 12  1  1  0  0  0
  4  1  1  0  0  0  0
  5 11  1  0  0  0  0
  7 15  1  6  0  0  0
  7 27  1  0  0  0  0
  8  6  2  0  0  0  0
  8 11  1  0  0  0  0
  9 14  1  6  0  0  0
  9 22  1  0  0  0  0
  9  7  1  0  0  0  0
 10  3  1  0  0  0  0
 10 22  1  0  0  0  0
 11 28  1  0  0  0  0
 12  8  1  0  0  0  0
 13  2  1  0  0  0  0
 14 23  1  0  0  0  0
 17  3  1  6  0  0  0
 17 20  1  0  0  0  0
 17 26  1  0  0  0  0
 18 13  2  0  0  0  0
 19 26  1  6  0  0  0
 19  1  1  0  0  0  0
 19  2  1  0  0  0  0
 20 22  1  6  0  0  0
 20  4  1  0  0  0  0
 21 10  2  0  0  0  0
 23 15  1  0  0  0  0
 25 26  2  0  0  0  0
 25 18  1  0  0  0  0
 27 24  1  6  0  0  0
 27 12  1  0  0  0  0
 28 29  1  0  0  0  0
 28 30  1  0  0  0  0
 29 30  1  0  0  0  0
M  END
>  <MODEL>
5

>  <REMARK>
 VINA RESULT:      -8.3      1.731      6.567
  Name = 
  1 active torsions:
  status: ('A' for Active; 'I' for Inactive)
    1  A    between atoms: N_11  and  C_28
                            x       y       z     vdW  Elec       q    Type
                         _______ _______ _______ _____ _____    ______ ____

>  <TORSDO>
F 1

$$$$
=
 OpenBabel11122410253D

 30 36  0  0  1  0  0  0  0  0999 V2000
  187.5740  177.8520  142.4680 C   0  0  1  0  0  3  0  0  0  0  0  0
  186.1860  178.2140  144.5910 C   0  0  0  0  0  0  0  0  0  0  0  0
  184.1700  179.0980  140.0860 C   0  0  0  0  0  2  0  0  0  0  0  0
  187.6530  178.2890  140.9810 C   0  0  1  0  0  3  0  0  0  0  0  0
  188.7760  178.2170  143.0950 O   0  0  0  0  0  0  0  0  0  0  0  0
  190.9030  176.6470  140.7140 O   0  0  0  0  0  0  0  0  0  0  0  0
  188.0700  176.7530  138.1580 C   0  0  1  0  0  3  0  0  0  0  0  0
  189.8760  177.2000  141.1960 C   0  0  0  0  0  0  0  0  0  0  0  0
  186.6550  177.2770  137.9110 C   0  0  2  0  0  3  0  0  0  0  0  0
  184.8310  178.7770  138.7940 C   0  0  0  0  0  0  0  0  0  0  0  0
  189.7150  177.3440  142.6210 N   0  0  0  0  0  0  0  0  0  0  0  0
  188.8040  177.6380  140.3410 N   0  0  0  0  0  0  0  0  0  0  0  0
  185.0140  178.5640  145.1840 N   0  0  0  0  0  0  0  0  0  0  0  0
  186.7010  177.8990  136.5310 C   0  0  0  0  0  2  0  0  0  0  0  0
  188.6360  176.4430  136.7810 C   0  0  0  0  0  2  0  0  0  0  0  0
  187.1260  177.7650  145.2990 O   0  0  0  0  0  0  0  0  0  0  0  0
  185.3700  179.0030  140.9940 C   0  0  2  0  0  3  0  0  0  0  0  0
  183.9640  179.0270  144.4560 C   0  0  0  0  0  3  0  0  0  0  0  0
  186.3310  178.3450  143.2010 C   0  0  2  0  0  3  0  0  0  0  0  0
  186.2950  177.9810  140.3590 C   0  0  1  0  0  3  0  0  0  0  0  0
  184.2610  178.9430  137.6840 O   0  0  0  0  0  0  0  0  0  0  0  0
  186.1400  178.2060  138.9260 N   0  0  0  0  0  0  0  0  0  0  0  0
  187.6930  177.0570  135.7570 C   0  0  0  0  0  2  0  0  0  0  0  0
  189.0560  179.1300  138.3840 C   0  0  0  0  0  1  0  0  0  0  0  0
  184.0660  179.1380  143.1070 N   0  0  0  0  0  0  0  0  0  0  0  0
  185.2070  178.7770  142.4650 C   0  0  0  0  0  0  0  0  0  0  0  0
  189.0230  177.6940  138.9000 C   0  0  2  0  0  3  0  0  0  0  0  0
  190.3230  176.3780  143.5330 C   0  0  0  0  0  3  0  0  0  0  0  0
  190.4890  176.9960  144.9090 C   0  0  0  0  0  2  0  0  0  0  0  0
  191.6800  176.8830  143.9860 C   0  0  0  0  0  2  0  0  0  0  0  0
  1  5  1  1  0  0  0
  1 19  1  0  0  0  0
  2 13  1  0  0  0  0
  2 16  2  0  0  0  0
  4 12  1  6  0  0  0
  4  1  1  0  0  0  0
  6  8  2  0  0  0  0
  7 15  1  6  0  0  0
  7 27  1  0  0  0  0
  8 11  1  0  0  0  0
  9 14  1  6  0  0  0
  9  7  1  0  0  0  0
  9 22  1  0  0  0  0
 10 22  1  0  0  0  0
 10  3  1  0  0  0  0
 11  5  1  0  0  0  0
 11 28  1  0  0  0  0
 12  8  1  0  0  0  0
 17  3  1  6  0  0  0
 17 26  1  0  0  0  0
 18 13  2  0  0  0  0
 19 26  1  6  0  0  0
 19  2  1  0  0  0  0
 20 22  1  6  0  0  0
 20  4  1  0  0  0  0
 20 17  1  0  0  0  0
 21 10  2  0  0  0  0
 23 14  1  0  0  0  0
 23 15  1  0  0  0  0
 25 18  1  0  0  0  0
 26 25  2  0  0  0  0
 27 24  1  6  0  0  0
 27 12  1  0  0  0  0
 28 30  1  0  0  0  0
 28 29  1  0  0  0  0
 30 29  1  0  0  0  0
M  END
>  <MODEL>
6

>  <REMARK>
 VINA RESULT:      -8.0      2.365      5.900
  Name = 
  1 active torsions:
  status: ('A' for Active; 'I' for Inactive)
    1  A    between atoms: N_11  and  C_28
                            x       y       z     vdW  Elec       q    Type
                         _______ _______ _______ _____ _____    ______ ____

>  <TORSDO>
F 1

$$$$
=
 OpenBabel11122410253D

 30 36  0  0  1  0  0  0  0  0999 V2000
  186.8700  178.0210  140.0430 C   0  0  1  0  0  3  0  0  0  0  0  0
  188.6460  177.2250  138.3750 C   0  0  0  0  0  0  0  0  0  0  0  0
  189.7320  177.5070  143.2620 C   0  0  0  0  0  2  0  0  0  0  0  0
  186.7270  178.6460  141.4550 C   0  0  1  0  0  3  0  0  0  0  0  0
  186.2750  178.8920  139.1160 O   0  0  0  0  0  0  0  0  0  0  0  0
  183.1660  179.1500  140.8260 O   0  0  0  0  0  0  0  0  0  0  0  0
  184.8830  178.0470  144.0520 C   0  0  1  0  0  3  0  0  0  0  0  0
  184.4000  178.9590  140.6420 C   0  0  0  0  0  0  0  0  0  0  0  0
  186.2420  177.7270  144.6750 C   0  0  2  0  0  3  0  0  0  0  0  0
  188.7380  177.8070  144.3260 C   0  0  0  0  0  0  0  0  0  0  0  0
  184.9280  178.7710  139.3150 N   0  0  0  0  0  0  0  0  0  0  0  0
  185.3040  178.8500  141.7570 N   0  0  0  0  0  0  0  0  0  0  0  0
  189.9020  176.7710  138.1230 N   0  0  0  0  0  2  0  0  0  0  0  0
  186.2550  178.4700  145.9950 C   0  0  0  0  0  2  0  0  0  0  0  0
  183.9510  178.3160  145.2240 C   0  0  0  0  0  2  0  0  0  0  0  0
  187.8070  177.2730  137.4370 O   0  0  0  0  0  0  0  0  0  0  0  0
  188.9360  177.9590  142.0630 C   0  0  2  0  0  3  0  0  0  0  0  0
  190.8300  176.6760  139.1090 C   0  0  0  0  0  3  0  0  0  0  0  0
  188.2960  177.6230  139.6750 C   0  0  0  0  0  0  0  0  0  0  0  0
  187.4780  177.7330  142.4190 C   0  0  1  0  0  3  0  0  0  0  0  0
  189.0330  177.7940  145.5500 O   0  0  0  0  0  0  0  0  0  0  0  0
  187.4090  178.0470  143.8420 N   0  0  0  0  0  0  0  0  0  0  0  0
  184.8170  178.4490  146.4680 C   0  0  0  0  0  2  0  0  0  0  0  0
  185.5270  180.5050  143.5830 C   0  0  0  0  0  1  0  0  0  0  0  0
  190.5130  177.0260  140.3810 N   0  0  0  0  0  0  0  0  0  0  0  0
  189.2640  177.4620  140.6900 C   0  0  0  0  0  0  0  0  0  0  0  0
  184.8420  179.2350  143.0860 C   0  0  2  0  0  3  0  0  0  0  0  0
  184.0980  178.1820  138.2670 C   0  0  0  0  0  3  0  0  0  0  0  0
  183.8080  176.7270  138.5920 C   0  0  0  0  0  2  0  0  0  0  0  0
  184.8650  177.0730  137.5680 C   0  0  0  0  0  2  0  0  0  0  0  0
  1  5  1  6  0  0  0
  1  4  1  0  0  0  0
  2 19  1  0  0  0  0
  3 10  1  0  0  0  0
  4 12  1  1  0  0  0
  4 20  1  0  0  0  0
  5 11  1  0  0  0  0
  7  9  1  0  0  0  0
  7 15  1  1  0  0  0
  8  6  2  0  0  0  0
  8 12  1  0  0  0  0
  9 14  1  1  0  0  0
 10 21  2  0  0  0  0
 11  8  1  0  0  0  0
 12 27  1  0  0  0  0
 13  2  1  0  0  0  0
 13 18  1  0  0  0  0
 14 23  1  0  0  0  0
 15 23  1  0  0  0  0
 16  2  2  0  0  0  0
 17 20  1  0  0  0  0
 17  3  1  1  0  0  0
 18 25  2  0  0  0  0
 19  1  1  0  0  0  0
 19 26  2  0  0  0  0
 20 22  1  1  0  0  0
 22 10  1  0  0  0  0
 22  9  1  0  0  0  0
 25 26  1  0  0  0  0
 26 17  1  0  0  0  0
 27 24  1  1  0  0  0
 27  7  1  0  0  0  0
 28 29  1  0  0  0  0
 28 11  1  0  0  0  0
 30 28  1  0  0  0  0
 30 29  1  0  0  0  0
M  END
>  <MODEL>
7

>  <REMARK>
 VINA RESULT:      -7.8      2.315      4.896
  Name = 
  1 active torsions:
  status: ('A' for Active; 'I' for Inactive)
    1  A    between atoms: N_11  and  C_28
                            x       y       z     vdW  Elec       q    Type
                         _______ _______ _______ _____ _____    ______ ____

>  <TORSDO>
F 1

$$$$
=
 OpenBabel11122410253D

 30 36  0  0  1  0  0  0  0  0999 V2000
  186.3550  178.2990  141.6750 C   0  0  1  0  0  3  0  0  0  0  0  0
  184.9520  178.6310  139.5560 C   0  0  0  0  0  0  0  0  0  0  0  0
  189.8400  177.5750  139.1950 C   0  0  0  0  0  2  0  0  0  0  0  0
  187.8210  178.3550  142.1790 C   0  0  1  0  0  3  0  0  0  0  0  0
  185.6020  179.2230  142.4150 O   0  0  0  0  0  0  0  0  0  0  0  0
  186.6100  178.0180  145.6070 O   0  0  0  0  0  0  0  0  0  0  0  0
  189.6940  176.4400  144.0030 C   0  0  1  0  0  3  0  0  0  0  0  0
  186.6490  178.2530  144.3680 C   0  0  0  0  0  0  0  0  0  0  0  0
  190.4800  176.3270  142.6960 C   0  0  2  0  0  3  0  0  0  0  0  0
  190.7080  177.2150  140.3470 C   0  0  0  0  0  0  0  0  0  0  0  0
  185.4660  178.6710  143.6580 N   0  0  0  0  0  0  0  0  0  0  0  0
  187.8570  178.0400  143.6140 N   0  0  0  0  0  0  0  0  0  0  0  0
  184.8580  178.6580  138.2000 N   0  0  0  0  0  0  0  0  0  0  0  0
  191.9250  176.5640  143.0830 C   0  0  0  0  0  2  0  0  0  0  0  0
  190.6680  176.0340  145.0990 C   0  0  0  0  0  2  0  0  0  0  0  0
  183.9070  178.7490  140.2500 O   0  0  0  0  0  0  0  0  0  0  0  0
  188.6730  178.1550  139.9530 C   0  0  2  0  0  3  0  0  0  0  0  0
  185.9540  178.5070  137.4130 C   0  0  0  0  0  3  0  0  0  0  0  0
  186.2050  178.4620  140.1660 C   0  0  2  0  0  3  0  0  0  0  0  0
  188.6320  177.4250  141.2820 C   0  0  1  0  0  3  0  0  0  0  0  0
  191.9140  176.8820  140.2070 O   0  0  0  0  0  0  0  0  0  0  0  0
  190.0370  177.2180  141.6150 N   0  0  0  0  0  0  0  0  0  0  0  0
  192.0540  175.9850  144.4760 C   0  0  0  0  0  2  0  0  0  0  0  0
  190.0730  178.9910  144.1660 C   0  0  0  0  0  1  0  0  0  0  0  0
  187.1750  178.3130  137.9730 N   0  0  0  0  0  0  0  0  0  0  0  0
  187.3180  178.2540  139.3230 C   0  0  0  0  0  0  0  0  0  0  0  0
  189.1090  177.8180  144.3270 C   0  0  2  0  0  3  0  0  0  0  0  0
  184.1440  178.2530  144.1180 C   0  0  0  0  0  3  0  0  0  0  0  0
  183.0930  179.2410  143.6440 C   0  0  0  0  0  2  0  0  0  0  0  0
  183.5810  179.2890  145.0740 C   0  0  0  0  0  2  0  0  0  0  0  0
  1  4  1  0  0  0  0
  1  5  1  1  0  0  0
  2 19  1  0  0  0  0
  2 16  2  0  0  0  0
  3 10  1  0  0  0  0
  4 12  1  1  0  0  0
  5 11  1  0  0  0  0
  7 27  1  0  0  0  0
  7 15  1  1  0  0  0
  8  6  2  0  0  0  0
  9 14  1  1  0  0  0
  9  7  1  0  0  0  0
 10 22  1  0  0  0  0
 11 28  1  0  0  0  0
 11  8  1  0  0  0  0
 12 27  1  0  0  0  0
 12  8  1  0  0  0  0
 13  2  1  0  0  0  0
 14 23  1  0  0  0  0
 17  3  1  6  0  0  0
 17 20  1  0  0  0  0
 18 25  1  0  0  0  0
 18 13  2  0  0  0  0
 19 26  1  6  0  0  0
 19  1  1  0  0  0  0
 20 22  1  1  0  0  0
 20  4  1  0  0  0  0
 21 10  2  0  0  0  0
 22  9  1  0  0  0  0
 23 15  1  0  0  0  0
 25 26  2  0  0  0  0
 26 17  1  0  0  0  0
 27 24  1  6  0  0  0
 28 30  1  0  0  0  0
 29 28  1  0  0  0  0
 29 30  1  0  0  0  0
M  END
>  <MODEL>
8

>  <REMARK>
 VINA RESULT:      -7.8      2.179      7.233
  Name = 
  1 active torsions:
  status: ('A' for Active; 'I' for Inactive)
    1  A    between atoms: N_11  and  C_28
                            x       y       z     vdW  Elec       q    Type
                         _______ _______ _______ _____ _____    ______ ____

>  <TORSDO>
F 1

$$$$
=
 OpenBabel11122410253D

 30 36  0  0  1  0  0  0  0  0999 V2000
  185.8240  178.4320  140.2640 C   0  0  1  0  0  3  0  0  0  0  0  0
  187.1160  178.0000  138.0930 C   0  0  0  0  0  0  0  0  0  0  0  0
  189.5310  178.0700  142.4870 C   0  0  0  0  0  2  0  0  0  0  0  0
  186.0290  178.9290  141.7190 C   0  0  1  0  0  3  0  0  0  0  0  0
  184.8980  179.2810  139.6370 O   0  0  0  0  0  0  0  0  0  0  0  0
  182.4060  179.0020  142.1610 O   0  0  0  0  0  0  0  0  0  0  0  0
  185.0880  177.9070  144.6460 C   0  0  1  0  0  3  0  0  0  0  0  0
  183.5470  178.9900  141.6230 C   0  0  0  0  0  0  0  0  0  0  0  0
  186.5950  177.7250  144.8290 C   0  0  2  0  0  3  0  0  0  0  0  0
  188.8610  178.1580  143.8110 C   0  0  0  0  0  0  0  0  0  0  0  0
  183.6870  178.9700  140.1880 N   0  0  0  0  0  0  0  0  0  0  0  0
  184.7410  178.9210  142.4240 N   0  0  0  0  0  0  0  0  0  0  0  0
  188.2870  177.7350  137.4550 N   0  0  0  0  0  2  0  0  0  0  0  0
  186.9100  178.3650  146.1650 C   0  0  0  0  0  2  0  0  0  0  0  0
  184.5120  177.9650  146.0530 C   0  0  0  0  0  2  0  0  0  0  0  0
  186.0420  178.0040  137.4360 O   0  0  0  0  0  0  0  0  0  0  0  0
  188.3800  178.4980  141.6120 C   0  0  2  0  0  3  0  0  0  0  0  0
  189.4650  177.6920  138.1280 C   0  0  0  0  0  3  0  0  0  0  0  0
  187.1170  178.2530  139.4740 C   0  0  0  0  0  0  0  0  0  0  0  0
  187.1190  178.0560  142.3320 C   0  0  1  0  0  3  0  0  0  0  0  0
  189.4960  178.0960  144.8960 O   0  0  0  0  0  0  0  0  0  0  0  0
  187.4310  178.2550  143.7430 N   0  0  0  0  0  0  0  0  0  0  0  0
  185.6800  178.1200  147.0140 C   0  0  0  0  0  2  0  0  0  0  0  0
  185.3050  180.4550  144.2810 C   0  0  0  0  0  1  0  0  0  0  0  0
  189.4930  177.9050  139.4680 N   0  0  0  0  0  0  0  0  0  0  0  0
  188.3480  178.1490  140.1570 C   0  0  0  0  0  0  0  0  0  0  0  0
  184.6440  179.1450  143.8620 C   0  0  2  0  0  3  0  0  0  0  0  0
  182.6570  178.3530  139.3560 C   0  0  0  0  0  3  0  0  0  0  0  0
  182.6770  178.9640  137.9660 C   0  0  0  0  0  2  0  0  0  0  0  0
  181.6240  179.3940  138.9610 C   0  0  0  0  0  2  0  0  0  0  0  0
  1 19  1  6  0  0  0
  1  4  1  0  0  0  0
  2 19  1  0  0  0  0
  3 10  1  0  0  0  0
  4 20  1  0  0  0  0
  4 12  1  1  0  0  0
  5 11  1  0  0  0  0
  5  1  1  0  0  0  0
  7  9  1  0  0  0  0
  7 15  1  1  0  0  0
  8  6  2  0  0  0  0
  8 12  1  0  0  0  0
  9 14  1  1  0  0  0
 10 21  2  0  0  0  0
 11  8  1  0  0  0  0
 12 27  1  0  0  0  0
 13  2  1  0  0  0  0
 13 18  1  0  0  0  0
 14 23  1  0  0  0  0
 15 23  1  0  0  0  0
 16  2  2  0  0  0  0
 17 20  1  0  0  0  0
 17  3  1  1  0  0  0
 18 25  2  0  0  0  0
 19 26  2  0  0  0  0
 20 22  1  1  0  0  0
 22 10  1  0  0  0  0
 22  9  1  0  0  0  0
 25 26  1  0  0  0  0
 26 17  1  0  0  0  0
 27 24  1  1  0  0  0
 27  7  1  0  0  0  0
 28 11  1  0  0  0  0
 29 30  1  0  0  0  0
 29 28  1  0  0  0  0
 30 28  1  0  0  0  0
M  END
>  <MODEL>
9

>  <REMARK>
 VINA RESULT:      -7.7      2.476      5.805
  Name = 
  1 active torsions:
  status: ('A' for Active; 'I' for Inactive)
    1  A    between atoms: N_11  and  C_28
                            x       y       z     vdW  Elec       q    Type
                         _______ _______ _______ _____ _____    ______ ____

>  <TORSDO>
F 1

$$$$
