=
 OpenBabel11122412023D

 34 42  0  0  1  0  0  0  0  0999 V2000
  187.9380  177.7700  142.0080 C   0  0  0  0  0  0  0  0  0  0  0  0
  186.1210  178.6900  140.4740 C   0  0  0  0  0  2  0  0  0  0  0  0
  190.6560  177.5010  148.0050 C   0  0  1  0  0  0  0  0  0  0  0  0
  189.6450  177.1620  143.6170 C   0  0  0  0  0  0  0  0  0  0  0  0
  188.9980  177.1310  146.0790 C   0  0  0  0  0  0  0  0  0  0  0  0
  188.8510  178.0540  148.5060 C   0  0  1  0  0  3  0  0  0  0  0  0
  190.1030  178.2440  149.0910 O   0  0  0  0  0  0  0  0  0  0  0  0
  191.9270  176.0750  146.5810 C   0  0  0  0  0  2  0  0  0  0  0  0
  185.5870  178.2090  142.7860 C   0  0  1  0  0  3  0  0  0  0  0  0
  182.9080  178.6490  144.0480 C   0  0  0  0  0  3  0  0  0  0  0  0
  187.5690  177.3170  145.6580 C   0  0  0  0  0  2  0  0  0  0  0  0
  191.3180  176.5370  145.2750 C   0  0  0  0  0  3  0  0  0  0  0  0
  186.1490  178.8310  144.0570 C   0  0  2  0  0  3  0  0  0  0  0  0
  184.6690  179.0650  140.7200 C   0  0  0  0  0  2  0  0  0  0  0  0
  190.0420  176.9090  145.0260 C   0  0  0  0  0  0  0  0  0  0  0  0
  191.8100  177.0180  147.6940 N   0  0  0  0  0  2  0  0  0  0  0  0
  183.1660  178.7400  142.7350 C   0  0  0  0  0  0  0  0  0  0  0  0
  188.3830  177.7200  143.3340 C   0  0  0  0  0  0  0  0  0  0  0  0
  189.3570  177.4610  147.3090 C   0  0  0  0  0  0  0  0  0  0  0  0
  187.5390  178.2730  144.4650 C   0  0  2  0  0  3  0  0  0  0  0  0
  190.0650  176.8900  141.2870 C   0  0  0  0  0  3  0  0  0  0  0  0
  183.8380  178.8110  145.1910 C   0  0  0  0  0  3  0  0  0  0  0  0
  190.4530  176.7780  142.5870 N   0  0  0  0  0  0  0  0  0  0  0  0
  185.1780  178.8810  145.2110 C   0  0  0  0  0  3  0  0  0  0  0  0
  184.5220  179.1280  142.2380 C   0  0  1  0  0  3  0  0  0  0  0  0
  188.7930  177.3740  140.9740 C   0  0  0  0  0  3  0  0  0  0  0  0
  186.5930  178.1710  141.7420 N   0  0  0  0  0  0  0  0  0  0  0  0
  182.1440  178.5200  141.7970 O   0  0  0  0  0  0  0  0  0  0  0  0
  181.3230  179.5540  141.2630 C   0  0  0  0  0  2  0  0  0  0  0  0
  179.6590  177.7810  143.4450 O   0  0  0  0  0  0  0  0  0  0  0  0
  179.6340  180.0960  142.9880 C   0  0  0  0  0  2  0  0  0  0  0  0
  179.8780  179.3680  141.6990 C   0  0  2  0  0  3  0  0  0  0  0  0
  179.1970  179.0090  143.9400 C   0  0  0  0  0  2  0  0  0  0  0  0
  179.6370  177.9180  142.0480 C   0  0  0  0  0  2  0  0  0  0  0  0
  1 18  1  0  0  0  0
  2 14  1  0  0  0  0
  2 27  1  0  0  0  0
  3 19  1  6  0  0  0
  3  6  1  0  0  0  0
  3  7  1  0  0  0  0
  4 15  1  0  0  0  0
  5 19  2  0  0  0  0
  6 19  1  6  0  0  0
  6  7  1  0  0  0  0
  8 16  1  0  0  0  0
  9 27  1  6  0  0  0
  9 13  1  0  0  0  0
 10 22  1  0  0  0  0
 11  5  1  0  0  0  0
 12  8  1  0  0  0  0
 13 20  1  0  0  0  0
 13 24  1  1  0  0  0
 15 12  2  0  0  0  0
 15  5  1  0  0  0  0
 16  3  1  0  0  0  0
 17 10  2  0  0  0  0
 18  4  2  0  0  0  0
 18 20  1  0  0  0  0
 20 11  1  1  0  0  0
 21 23  2  0  0  0  0
 22 24  2  0  0  0  0
 23  4  1  0  0  0  0
 25 14  1  6  0  0  0
 25 17  1  0  0  0  0
 25  9  1  0  0  0  0
 26 21  1  0  0  0  0
 26  1  2  0  0  0  0
 27  1  1  0  0  0  0
 28 17  1  0  0  0  0
 29 28  1  0  0  0  0
 30 33  1  0  0  0  0
 31 33  1  0  0  0  0
 32 29  1  1  0  0  0
 32 34  1  0  0  0  0
 32 31  1  0  0  0  0
 34 30  1  0  0  0  0
M  END
>  <MODEL>
1

>  <REMARK>
 VINA RESULT:     -11.1      0.000      0.000
  Name = 
  3 active torsions:
  status: ('A' for Active; 'I' for Inactive)
    1  A    between atoms: C_17  and  O_28
    2  A    between atoms: O_28  and  C_29
    3  A    between atoms: C_29  and  C_32
                            x       y       z     vdW  Elec       q    Type
                         _______ _______ _______ _____ _____    ______ ____

>  <TORSDO>
F 3

$$$$
=
 OpenBabel11122412023D

 34 42  0  0  1  0  0  0  0  0999 V2000
  187.7890  177.8370  141.9730 C   0  0  0  0  0  0  0  0  0  0  0  0
  185.9670  178.7520  140.4420 C   0  0  0  0  0  2  0  0  0  0  0  0
  190.4900  177.5370  147.9770 C   0  0  1  0  0  0  0  0  0  0  0  0
  189.4980  177.2320  143.5820 C   0  0  0  0  0  0  0  0  0  0  0  0
  188.8430  177.1680  146.0410 C   0  0  0  0  0  0  0  0  0  0  0  0
  188.6770  178.0640  148.4770 C   0  0  1  0  0  3  0  0  0  0  0  0
  189.9250  178.2630  149.0680 O   0  0  0  0  0  0  0  0  0  0  0  0
  191.7820  176.1410  146.5430 C   0  0  0  0  0  2  0  0  0  0  0  0
  185.4300  178.2410  142.7480 C   0  0  1  0  0  3  0  0  0  0  0  0
  182.7430  178.6370  144.0060 C   0  0  0  0  0  3  0  0  0  0  0  0
  187.4130  177.3420  145.6170 C   0  0  0  0  0  2  0  0  0  0  0  0
  191.1720  176.6090  145.2390 C   0  0  0  0  0  3  0  0  0  0  0  0
  185.9820  178.8560  144.0270 C   0  0  2  0  0  3  0  0  0  0  0  0
  184.5090  179.1080  140.6870 C   0  0  0  0  0  2  0  0  0  0  0  0
  189.8930  176.9690  144.9900 C   0  0  0  0  0  0  0  0  0  0  0  0
  191.6500  177.0710  147.6650 N   0  0  0  0  0  2  0  0  0  0  0  0
  183.0040  178.7450  142.6940 C   0  0  0  0  0  0  0  0  0  0  0  0
  188.2300  177.7780  143.3010 C   0  0  0  0  0  0  0  0  0  0  0  0
  189.1940  177.4900  147.2760 C   0  0  0  0  0  0  0  0  0  0  0  0
  187.3760  178.3100  144.4340 C   0  0  2  0  0  3  0  0  0  0  0  0
  189.9280  176.9890  141.2510 C   0  0  0  0  0  3  0  0  0  0  0  0
  183.6670  178.7980  145.1530 C   0  0  0  0  0  3  0  0  0  0  0  0
  190.3140  176.8680  142.5510 N   0  0  0  0  0  0  0  0  0  0  0  0
  185.0060  178.8830  145.1790 C   0  0  0  0  0  3  0  0  0  0  0  0
  184.3570  179.1540  142.2050 C   0  0  1  0  0  3  0  0  0  0  0  0
  188.6520  177.4620  140.9390 C   0  0  0  0  0  3  0  0  0  0  0  0
  186.4400  178.2250  141.7070 N   0  0  0  0  0  0  0  0  0  0  0  0
  181.9880  178.5220  141.7510 O   0  0  0  0  0  0  0  0  0  0  0  0
  180.8030  179.3090  141.6640 C   0  0  0  0  0  2  0  0  0  0  0  0
  181.6500  180.5930  138.7820 O   0  0  0  0  0  0  0  0  0  0  0  0
  181.0770  178.3860  139.3850 C   0  0  0  0  0  2  0  0  0  0  0  0
  180.2750  179.3250  140.2370 C   0  0  2  0  0  3  0  0  0  0  0  0
  181.6500  179.2740  138.3080 C   0  0  0  0  0  2  0  0  0  0  0  0
  180.5270  180.6820  139.6200 C   0  0  0  0  0  2  0  0  0  0  0  0
  1 18  1  0  0  0  0
  2 14  1  0  0  0  0
  2 27  1  0  0  0  0
  3 19  1  6  0  0  0
  3  6  1  0  0  0  0
  3  7  1  0  0  0  0
  4 15  1  0  0  0  0
  5 19  2  0  0  0  0
  6 19  1  6  0  0  0
  6  7  1  0  0  0  0
  8 16  1  0  0  0  0
  9 27  1  6  0  0  0
  9 13  1  0  0  0  0
 10 22  1  0  0  0  0
 11  5  1  0  0  0  0
 12  8  1  0  0  0  0
 13 20  1  0  0  0  0
 13 24  1  1  0  0  0
 15 12  2  0  0  0  0
 15  5  1  0  0  0  0
 16  3  1  0  0  0  0
 17 10  2  0  0  0  0
 18  4  2  0  0  0  0
 18 20  1  0  0  0  0
 20 11  1  1  0  0  0
 21 23  2  0  0  0  0
 22 24  2  0  0  0  0
 23  4  1  0  0  0  0
 25 14  1  6  0  0  0
 25 17  1  0  0  0  0
 25  9  1  0  0  0  0
 26 21  1  0  0  0  0
 26  1  2  0  0  0  0
 27  1  1  0  0  0  0
 28 17  1  0  0  0  0
 29 28  1  0  0  0  0
 30 34  1  0  0  0  0
 31 32  1  0  0  0  0
 32 29  1  1  0  0  0
 33 30  1  0  0  0  0
 33 31  1  0  0  0  0
 34 32  1  0  0  0  0
M  END
>  <MODEL>
2

>  <REMARK>
 VINA RESULT:     -10.9      1.023      1.777
  Name = 
  3 active torsions:
  status: ('A' for Active; 'I' for Inactive)
    1  A    between atoms: C_17  and  O_28
    2  A    between atoms: O_28  and  C_29
    3  A    between atoms: C_29  and  C_32
                            x       y       z     vdW  Elec       q    Type
                         _______ _______ _______ _____ _____    ______ ____

>  <TORSDO>
F 3

$$$$
=
 OpenBabel11122412023D

 34 42  0  0  1  0  0  0  0  0999 V2000
  189.9450  177.4460  141.5560 C   0  0  0  0  0  0  0  0  0  0  0  0
  190.2530  177.8910  139.0640 C   0  0  0  0  0  2  0  0  0  0  0  0
  186.5320  178.4940  147.0950 C   0  0  1  0  0  0  0  0  0  0  0  0
  189.5370  177.3070  143.9420 C   0  0  0  0  0  0  0  0  0  0  0  0
  187.1480  177.6260  144.7580 C   0  0  0  0  0  0  0  0  0  0  0  0
  185.1460  178.9290  145.7890 C   0  0  1  0  0  3  0  0  0  0  0  0
  185.3880  179.3490  147.0970 O   0  0  0  0  0  0  0  0  0  0  0  0
  188.3030  176.9920  147.6220 C   0  0  0  0  0  2  0  0  0  0  0  0
  188.0130  177.7570  139.9750 C   0  0  1  0  0  3  0  0  0  0  0  0
  185.4990  178.1160  138.3900 C   0  0  0  0  0  3  0  0  0  0  0  0
  186.7020  177.5840  143.3250 C   0  0  0  0  0  2  0  0  0  0  0  0
  189.0700  177.1560  146.3280 C   0  0  0  0  0  3  0  0  0  0  0  0
  187.3370  178.6430  141.0130 C   0  0  2  0  0  3  0  0  0  0  0  0
  189.2610  178.1450  137.9410 C   0  0  0  0  0  2  0  0  0  0  0  0
  188.5840  177.3420  145.0800 C   0  0  0  0  0  0  0  0  0  0  0  0
  187.4000  178.0920  147.9590 N   0  0  0  0  0  2  0  0  0  0  0  0
  186.7310  178.0090  137.8690 C   0  0  0  0  0  0  0  0  0  0  0  0
  189.1020  177.6700  142.6520 C   0  0  0  0  0  0  0  0  0  0  0  0
  186.3670  178.1980  145.6610 C   0  0  0  0  0  0  0  0  0  0  0  0
  187.7420  178.3140  142.4750 C   0  0  2  0  0  3  0  0  0  0  0  0
  191.6650  176.6890  143.0660 C   0  0  0  0  0  3  0  0  0  0  0  0
  185.0990  178.5690  139.7430 C   0  0  0  0  0  3  0  0  0  0  0  0
  190.8090  176.8420  144.1120 N   0  0  0  0  0  0  0  0  0  0  0  0
  185.8450  178.7850  140.8380 C   0  0  0  0  0  3  0  0  0  0  0  0
  187.9370  178.4500  138.6360 C   0  0  1  0  0  3  0  0  0  0  0  0
  191.2440  176.9740  141.7660 C   0  0  0  0  0  3  0  0  0  0  0  0
  189.4350  177.6490  140.2370 N   0  0  0  0  0  0  0  0  0  0  0  0
  186.9060  177.5240  136.5630 O   0  0  0  0  0  0  0  0  0  0  0  0
  186.6130  176.1870  136.1680 C   0  0  0  0  0  2  0  0  0  0  0  0
  186.8740  172.9490  136.5110 O   0  0  0  0  0  0  0  0  0  0  0  0
  188.4600  174.6700  136.8070 C   0  0  0  0  0  2  0  0  0  0  0  0
  187.1160  175.2000  137.2100 C   0  0  2  0  0  3  0  0  0  0  0  0
  188.2440  173.1800  136.6970 C   0  0  0  0  0  2  0  0  0  0  0  0
  186.2290  173.9750  137.2170 C   0  0  0  0  0  2  0  0  0  0  0  0
  1 26  2  0  0  0  0
  1 18  1  0  0  0  0
  2 27  1  0  0  0  0
  3 19  1  6  0  0  0
  3  7  1  0  0  0  0
  3 16  1  0  0  0  0
  4 23  1  0  0  0  0
  4 15  1  0  0  0  0
  5 15  1  0  0  0  0
  5 19  2  0  0  0  0
  6 19  1  6  0  0  0
  6  3  1  0  0  0  0
  6  7  1  0  0  0  0
  8 16  1  0  0  0  0
  9 27  1  1  0  0  0
  9 13  1  0  0  0  0
 10 22  1  0  0  0  0
 11  5  1  0  0  0  0
 12  8  1  0  0  0  0
 13 24  1  1  0  0  0
 13 20  1  0  0  0  0
 14  2  1  0  0  0  0
 15 12  2  0  0  0  0
 17 10  2  0  0  0  0
 17 25  1  0  0  0  0
 18  4  2  0  0  0  0
 20 18  1  0  0  0  0
 20 11  1  6  0  0  0
 21 23  2  0  0  0  0
 22 24  2  0  0  0  0
 25 14  1  6  0  0  0
 25  9  1  0  0  0  0
 26 21  1  0  0  0  0
 27  1  1  0  0  0  0
 28 17  1  0  0  0  0
 29 28  1  0  0  0  0
 30 33  1  0  0  0  0
 30 34  1  0  0  0  0
 31 32  1  0  0  0  0
 32 29  1  6  0  0  0
 32 34  1  0  0  0  0
 33 31  1  0  0  0  0
M  END
>  <MODEL>
3

>  <REMARK>
 VINA RESULT:     -10.9      3.393      5.749
  Name = 
  3 active torsions:
  status: ('A' for Active; 'I' for Inactive)
    1  A    between atoms: C_17  and  O_28
    2  A    between atoms: O_28  and  C_29
    3  A    between atoms: C_29  and  C_32
                            x       y       z     vdW  Elec       q    Type
                         _______ _______ _______ _____ _____    ______ ____

>  <TORSDO>
F 3

$$$$
=
 OpenBabel11122412023D

 34 42  0  0  1  0  0  0  0  0999 V2000
  190.4190  177.3880  143.5310 C   0  0  0  0  0  0  0  0  0  0  0  0
  192.3290  177.3810  141.8410 C   0  0  0  0  0  2  0  0  0  0  0  0
  184.2260  179.0630  145.0390 C   0  0  1  0  0  0  0  0  0  0  0  0
  188.5180  177.6610  145.0100 C   0  0  0  0  0  0  0  0  0  0  0  0
  186.2090  177.8430  143.9550 C   0  0  0  0  0  0  0  0  0  0  0  0
  184.0850  179.0700  143.0910 C   0  0  1  0  0  3  0  0  0  0  0  0
  183.4090  179.7590  144.0980 O   0  0  0  0  0  0  0  0  0  0  0  0
  185.1310  177.9120  146.9170 C   0  0  0  0  0  2  0  0  0  0  0  0
  190.0500  177.1570  141.0530 C   0  0  1  0  0  3  0  0  0  0  0  0
  189.2530  176.9020  138.1790 C   0  0  0  0  0  3  0  0  0  0  0  0
  186.8320  177.4740  142.6400 C   0  0  0  0  0  2  0  0  0  0  0  0
  186.5720  177.9160  146.4540 C   0  0  0  0  0  3  0  0  0  0  0  0
  188.8900  178.1380  141.1590 C   0  0  2  0  0  3  0  0  0  0  0  0
  192.3510  177.2940  140.3240 C   0  0  0  0  0  2  0  0  0  0  0  0
  187.0510  177.8000  145.1940 C   0  0  0  0  0  0  0  0  0  0  0  0
  184.2790  178.9410  146.3210 N   0  0  0  0  0  2  0  0  0  0  0  0
  190.5130  176.8460  138.6380 C   0  0  0  0  0  0  0  0  0  0  0  0
  189.0700  177.7160  143.7150 C   0  0  0  0  0  0  0  0  0  0  0  0
  185.0490  178.4800  143.9640 C   0  0  0  0  0  0  0  0  0  0  0  0
  188.2030  178.1470  142.5500 C   0  0  2  0  0  3  0  0  0  0  0  0
  190.6600  177.1450  145.9180 C   0  0  0  0  0  3  0  0  0  0  0  0
  188.0700  177.5550  138.7890 C   0  0  0  0  0  3  0  0  0  0  0  0
  189.3310  177.3930  146.0730 N   0  0  0  0  0  0  0  0  0  0  0  0
  187.9030  178.0640  140.0190 C   0  0  0  0  0  3  0  0  0  0  0  0
  190.9150  177.5660  139.8860 C   0  0  1  0  0  3  0  0  0  0  0  0
  191.2260  177.1230  144.6410 C   0  0  0  0  0  3  0  0  0  0  0  0
  190.9290  177.2720  142.2010 N   0  0  0  0  0  0  0  0  0  0  0  0
  191.4950  176.1440  137.9210 O   0  0  0  0  0  0  0  0  0  0  0  0
  191.4420  175.9240  136.5140 C   0  0  0  0  0  2  0  0  0  0  0  0
  194.6530  175.8190  137.1050 O   0  0  0  0  0  0  0  0  0  0  0  0
  193.0230  174.1140  137.1010 C   0  0  0  0  0  2  0  0  0  0  0  0
  192.6480  175.1200  136.0530 C   0  0  2  0  0  3  0  0  0  0  0  0
  194.4410  174.4810  137.4640 C   0  0  0  0  0  2  0  0  0  0  0  0
  193.8570  176.0240  135.9680 C   0  0  0  0  0  2  0  0  0  0  0  0
  1 18  2  0  0  0  0
  1 26  1  0  0  0  0
  2 27  1  0  0  0  0
  3 19  1  6  0  0  0
  3 16  1  0  0  0  0
  4 15  1  0  0  0  0
  4 23  2  0  0  0  0
  5 19  2  0  0  0  0
  5 15  1  0  0  0  0
  6 19  1  6  0  0  0
  6  7  1  0  0  0  0
  6  3  1  0  0  0  0
  7  3  1  0  0  0  0
  9 13  1  0  0  0  0
  9 27  1  1  0  0  0
 10 17  2  0  0  0  0
 10 22  1  0  0  0  0
 11  5  1  0  0  0  0
 12  8  1  0  0  0  0
 13 24  1  6  0  0  0
 13 20  1  0  0  0  0
 14  2  1  0  0  0  0
 15 12  2  0  0  0  0
 16  8  1  0  0  0  0
 17 25  1  0  0  0  0
 18  4  1  0  0  0  0
 20 11  1  6  0  0  0
 20 18  1  0  0  0  0
 21 23  1  0  0  0  0
 22 24  2  0  0  0  0
 25 14  1  1  0  0  0
 25  9  1  0  0  0  0
 26 21  2  0  0  0  0
 27  1  1  0  0  0  0
 28 17  1  0  0  0  0
 29 28  1  0  0  0  0
 30 33  1  0  0  0  0
 31 33  1  0  0  0  0
 32 29  1  1  0  0  0
 32 31  1  0  0  0  0
 34 32  1  0  0  0  0
 34 30  1  0  0  0  0
M  END
>  <MODEL>
4

>  <REMARK>
 VINA RESULT:     -10.7      4.054      8.449
  Name = 
  3 active torsions:
  status: ('A' for Active; 'I' for Inactive)
    1  A    between atoms: C_17  and  O_28
    2  A    between atoms: O_28  and  C_29
    3  A    between atoms: C_29  and  C_32
                            x       y       z     vdW  Elec       q    Type
                         _______ _______ _______ _____ _____    ______ ____

>  <TORSDO>
F 3

$$$$
=
 OpenBabel11122412023D

 34 42  0  0  1  0  0  0  0  0999 V2000
  185.7290  178.3830  145.2630 C   0  0  0  0  0  0  0  0  0  0  0  0
  183.6500  178.6360  143.8070 C   0  0  0  0  0  2  0  0  0  0  0  0
  191.8150  175.9790  146.0380 C   0  0  1  0  0  0  0  0  0  0  0  0
  187.7420  177.8690  146.5110 C   0  0  0  0  0  0  0  0  0  0  0  0
  189.8770  177.4360  145.1940 C   0  0  0  0  0  0  0  0  0  0  0  0
  191.7290  175.9840  144.0860 C   0  0  1  0  0  3  0  0  0  0  0  0
  192.4320  175.2070  145.0070 O   0  0  0  0  0  0  0  0  0  0  0  0
  191.2740  177.1990  148.0110 C   0  0  0  0  0  2  0  0  0  0  0  0
  185.8330  178.6060  142.7600 C   0  0  1  0  0  3  0  0  0  0  0  0
  186.3170  178.8090  139.8130 C   0  0  0  0  0  3  0  0  0  0  0  0
  189.1530  177.8940  143.9600 C   0  0  0  0  0  2  0  0  0  0  0  0
  189.7990  177.3690  147.7180 C   0  0  0  0  0  3  0  0  0  0  0  0
  186.8750  177.4960  142.7280 C   0  0  2  0  0  3  0  0  0  0  0  0
  183.4630  178.7470  142.3030 C   0  0  0  0  0  2  0  0  0  0  0  0
  189.1950  177.5580  146.5230 C   0  0  0  0  0  0  0  0  0  0  0  0
  191.9260  176.0870  147.3180 N   0  0  0  0  0  2  0  0  0  0  0  0
  185.1340  179.0050  140.4160 C   0  0  0  0  0  0  0  0  0  0  0  0
  187.0420  177.8980  145.2890 C   0  0  0  0  0  0  0  0  0  0  0  0
  190.9480  176.6690  145.0670 C   0  0  0  0  0  0  0  0  0  0  0  0
  187.7130  177.3870  144.0300 C   0  0  2  0  0  3  0  0  0  0  0  0
  185.7940  178.6160  147.6620 C   0  0  0  0  0  3  0  0  0  0  0  0
  187.4780  178.0140  140.2800 C   0  0  0  0  0  3  0  0  0  0  0  0
  187.0940  178.2140  147.6610 N   0  0  0  0  0  0  0  0  0  0  0  0
  187.7250  177.4710  141.4820 C   0  0  0  0  0  3  0  0  0  0  0  0
  184.7980  178.3170  141.7000 C   0  0  1  0  0  3  0  0  0  0  0  0
  185.0920  178.7220  146.4600 C   0  0  0  0  0  3  0  0  0  0  0  0
  185.0860  178.5770  144.0020 N   0  0  0  0  0  0  0  0  0  0  0  0
  184.1650  179.8260  139.8180 O   0  0  0  0  0  0  0  0  0  0  0  0
  183.3510  179.4210  138.7200 C   0  0  0  0  0  2  0  0  0  0  0  0
  181.1550  181.2050  137.0880 O   0  0  0  0  0  0  0  0  0  0  0  0
  180.9890  179.0690  138.0770 C   0  0  0  0  0  2  0  0  0  0  0  0
  181.9200  179.8980  138.9110 C   0  0  2  0  0  3  0  0  0  0  0  0
  180.3300  180.0740  137.1620 C   0  0  0  0  0  2  0  0  0  0  0  0
  181.7720  181.2930  138.3450 C   0  0  0  0  0  2  0  0  0  0  0  0
  1 18  2  0  0  0  0
  1 26  1  0  0  0  0
  2 27  1  0  0  0  0
  3  7  1  1  0  0  0
  3 16  1  0  0  0  0
  4 15  1  0  0  0  0
  4 23  2  0  0  0  0
  5 15  1  0  0  0  0
  6  7  1  1  0  0  0
  6 19  1  0  0  0  0
  6  3  1  0  0  0  0
  9 27  1  1  0  0  0
 10 22  1  0  0  0  0
 10 17  2  0  0  0  0
 11  5  1  0  0  0  0
 12  8  1  0  0  0  0
 13 24  1  6  0  0  0
 13  9  1  0  0  0  0
 13 20  1  0  0  0  0
 14  2  1  0  0  0  0
 15 12  2  0  0  0  0
 16  8  1  0  0  0  0
 17 25  1  0  0  0  0
 18  4  1  0  0  0  0
 19  5  2  0  0  0  0
 19  3  1  0  0  0  0
 20 11  1  6  0  0  0
 20 18  1  0  0  0  0
 22 24  2  0  0  0  0
 23 21  1  0  0  0  0
 25 14  1  1  0  0  0
 25  9  1  0  0  0  0
 26 21  2  0  0  0  0
 27  1  1  0  0  0  0
 28 17  1  0  0  0  0
 29 28  1  0  0  0  0
 30 33  1  0  0  0  0
 30 34  1  0  0  0  0
 31 32  1  0  0  0  0
 32 29  1  6  0  0  0
 33 31  1  0  0  0  0
 34 32  1  0  0  0  0
M  END
>  <MODEL>
5

>  <REMARK>
 VINA RESULT:     -10.1      2.459      4.238
  Name = 
  3 active torsions:
  status: ('A' for Active; 'I' for Inactive)
    1  A    between atoms: C_17  and  O_28
    2  A    between atoms: O_28  and  C_29
    3  A    between atoms: C_29  and  C_32
                            x       y       z     vdW  Elec       q    Type
                         _______ _______ _______ _____ _____    ______ ____

>  <TORSDO>
F 3

$$$$
=
 OpenBabel11122412023D

 34 42  0  0  1  0  0  0  0  0999 V2000
  186.6550  178.3380  141.0870 C   0  0  0  0  0  0  0  0  0  0  0  0
  184.8940  179.1840  139.4480 C   0  0  0  0  0  2  0  0  0  0  0  0
  188.8410  177.8970  147.2880 C   0  0  1  0  0  0  0  0  0  0  0  0
  188.2670  177.7860  142.8110 C   0  0  0  0  0  0  0  0  0  0  0  0
  187.4100  177.5070  145.1910 C   0  0  0  0  0  0  0  0  0  0  0  0
  186.9490  178.2280  147.6480 C   0  0  1  0  0  3  0  0  0  0  0  0
  188.1170  178.4990  148.3610 O   0  0  0  0  0  0  0  0  0  0  0  0
  190.3780  176.7160  145.9040 C   0  0  0  0  0  2  0  0  0  0  0  0
  184.2100  178.4810  141.6620 C   0  0  1  0  0  3  0  0  0  0  0  0
  181.3980  178.5550  142.6870 C   0  0  0  0  0  3  0  0  0  0  0  0
  186.0120  177.5810  144.6470 C   0  0  0  0  0  2  0  0  0  0  0  0
  189.8420  177.2100  144.5780 C   0  0  0  0  0  3  0  0  0  0  0  0
  184.5880  179.0600  143.0190 C   0  0  2  0  0  3  0  0  0  0  0  0
  183.3930  179.3920  139.5770 C   0  0  0  0  0  2  0  0  0  0  0  0
  188.5610  177.4710  144.2320 C   0  0  0  0  0  0  0  0  0  0  0  0
  190.0630  177.5570  147.0590 N   0  0  0  0  0  2  0  0  0  0  0  0
  181.7610  178.7690  141.4120 C   0  0  0  0  0  0  0  0  0  0  0  0
  186.9820  178.2340  142.4440 C   0  0  0  0  0  0  0  0  0  0  0  0
  187.6210  177.7800  146.4700 C   0  0  0  0  0  0  0  0  0  0  0  0
  185.9870  178.6150  143.5210 C   0  0  2  0  0  3  0  0  0  0  0  0
  188.9180  177.7320  140.5190 C   0  0  0  0  0  3  0  0  0  0  0  0
  182.2000  178.7240  143.9220 C   0  0  0  0  0  3  0  0  0  0  0  0
  189.2000  177.5630  141.8400 N   0  0  0  0  0  0  0  0  0  0  0  0
  183.5180  178.9270  144.0750 C   0  0  0  0  0  3  0  0  0  0  0  0
  183.1070  179.3270  141.0740 C   0  0  1  0  0  3  0  0  0  0  0  0
  187.6350  178.1080  140.1170 C   0  0  0  0  0  3  0  0  0  0  0  0
  185.3030  178.6210  140.7200 N   0  0  0  0  0  0  0  0  0  0  0  0
  180.8560  178.5180  140.3690 O   0  0  0  0  0  0  0  0  0  0  0  0
  180.1140  177.3090  140.2380 C   0  0  0  0  0  2  0  0  0  0  0  0
  179.9580  174.5290  138.5290 O   0  0  0  0  0  0  0  0  0  0  0  0
  181.5130  176.3020  138.4630 C   0  0  0  0  0  2  0  0  0  0  0  0
  181.0350  176.1530  139.8770 C   0  0  2  0  0  3  0  0  0  0  0  0
  181.0260  175.0460  137.7820 C   0  0  0  0  0  2  0  0  0  0  0  0
  180.2460  174.8630  139.8610 C   0  0  0  0  0  2  0  0  0  0  0  0
  1 18  1  0  0  0  0
  2 14  1  0  0  0  0
  2 27  1  0  0  0  0
  3 19  1  6  0  0  0
  3  6  1  0  0  0  0
  3  7  1  0  0  0  0
  4 15  1  0  0  0  0
  5 19  2  0  0  0  0
  6 19  1  6  0  0  0
  6  7  1  0  0  0  0
  8 16  1  0  0  0  0
  9 27  1  6  0  0  0
  9 13  1  0  0  0  0
 10 22  1  0  0  0  0
 11  5  1  0  0  0  0
 12  8  1  0  0  0  0
 13 20  1  0  0  0  0
 13 24  1  1  0  0  0
 15 12  2  0  0  0  0
 15  5  1  0  0  0  0
 16  3  1  0  0  0  0
 17 10  2  0  0  0  0
 18  4  2  0  0  0  0
 18 20  1  0  0  0  0
 20 11  1  1  0  0  0
 21 23  2  0  0  0  0
 22 24  2  0  0  0  0
 23  4  1  0  0  0  0
 25 14  1  6  0  0  0
 25 17  1  0  0  0  0
 25  9  1  0  0  0  0
 26 21  1  0  0  0  0
 26  1  2  0  0  0  0
 27  1  1  0  0  0  0
 28 17  1  0  0  0  0
 29 28  1  0  0  0  0
 30 34  1  0  0  0  0
 31 32  1  0  0  0  0
 32 29  1  6  0  0  0
 33 31  1  0  0  0  0
 33 30  1  0  0  0  0
 34 32  1  0  0  0  0
M  END
>  <MODEL>
6

>  <REMARK>
 VINA RESULT:     -10.1      2.124      2.782
  Name = 
  3 active torsions:
  status: ('A' for Active; 'I' for Inactive)
    1  A    between atoms: C_17  and  O_28
    2  A    between atoms: O_28  and  C_29
    3  A    between atoms: C_29  and  C_32
                            x       y       z     vdW  Elec       q    Type
                         _______ _______ _______ _____ _____    ______ ____

>  <TORSDO>
F 3

$$$$
=
 OpenBabel11122412023D

 34 42  0  0  1  0  0  0  0  0999 V2000
  185.7900  178.3700  145.1160 C   0  0  0  0  0  0  0  0  0  0  0  0
  183.7280  178.6490  143.6430 C   0  0  0  0  0  2  0  0  0  0  0  0
  191.8360  175.8830  145.9450 C   0  0  1  0  0  0  0  0  0  0  0  0
  187.7860  177.8310  146.3810 C   0  0  0  0  0  0  0  0  0  0  0  0
  189.9250  177.3660  145.0820 C   0  0  0  0  0  0  0  0  0  0  0  0
  191.7660  175.8860  143.9930 C   0  0  1  0  0  3  0  0  0  0  0  0
  192.4500  175.1010  144.9210 O   0  0  0  0  0  0  0  0  0  0  0  0
  191.2960  177.1150  147.9110 C   0  0  0  0  0  2  0  0  0  0  0  0
  185.9180  178.5860  142.6130 C   0  0  1  0  0  3  0  0  0  0  0  0
  186.4290  178.7760  139.6690 C   0  0  0  0  0  3  0  0  0  0  0  0
  189.2180  177.8310  143.8420 C   0  0  0  0  0  2  0  0  0  0  0  0
  189.8260  177.3050  147.6060 C   0  0  0  0  0  3  0  0  0  0  0  0
  186.9450  177.4620  142.5920 C   0  0  2  0  0  3  0  0  0  0  0  0
  183.5540  178.7590  142.1370 C   0  0  0  0  0  2  0  0  0  0  0  0
  189.2340  177.5000  146.4060 C   0  0  0  0  0  0  0  0  0  0  0  0
  191.9380  175.9930  147.2260 N   0  0  0  0  0  2  0  0  0  0  0  0
  185.2440  178.9900  140.2620 C   0  0  0  0  0  0  0  0  0  0  0  0
  187.0970  177.8670  145.1530 C   0  0  0  0  0  0  0  0  0  0  0  0
  190.9870  176.5840  144.9660 C   0  0  0  0  0  0  0  0  0  0  0  0
  187.7700  177.3440  143.9010 C   0  0  2  0  0  3  0  0  0  0  0  0
  185.8390  178.6070  147.5150 C   0  0  0  0  0  3  0  0  0  0  0  0
  187.5750  177.9670  140.1480 C   0  0  0  0  0  3  0  0  0  0  0  0
  187.1340  178.1870  147.5260 N   0  0  0  0  0  0  0  0  0  0  0  0
  187.8050  177.4230  141.3530 C   0  0  0  0  0  3  0  0  0  0  0  0
  184.8880  178.3100  141.5460 C   0  0  1  0  0  3  0  0  0  0  0  0
  185.1480  178.7210  146.3070 C   0  0  0  0  0  3  0  0  0  0  0  0
  185.1600  178.5700  143.8490 N   0  0  0  0  0  0  0  0  0  0  0  0
  184.2910  179.8230  139.6550 O   0  0  0  0  0  0  0  0  0  0  0  0
  183.2320  179.3450  138.8300 C   0  0  0  0  0  2  0  0  0  0  0  0
  181.4340  176.8100  137.8260 O   0  0  0  0  0  0  0  0  0  0  0  0
  183.4530  177.7010  136.9950 C   0  0  0  0  0  2  0  0  0  0  0  0
  183.4430  177.8800  138.4840 C   0  0  2  0  0  3  0  0  0  0  0  0
  182.3130  176.7470  136.7370 C   0  0  0  0  0  2  0  0  0  0  0  0
  182.2470  177.0750  138.9390 C   0  0  0  0  0  2  0  0  0  0  0  0
  1 18  2  0  0  0  0
  1 26  1  0  0  0  0
  2 27  1  0  0  0  0
  3  7  1  1  0  0  0
  3 16  1  0  0  0  0
  4 15  1  0  0  0  0
  4 23  2  0  0  0  0
  5 15  1  0  0  0  0
  6  7  1  1  0  0  0
  6 19  1  0  0  0  0
  6  3  1  0  0  0  0
  9 27  1  1  0  0  0
 10 22  1  0  0  0  0
 10 17  2  0  0  0  0
 11  5  1  0  0  0  0
 12  8  1  0  0  0  0
 13 24  1  6  0  0  0
 13  9  1  0  0  0  0
 13 20  1  0  0  0  0
 14  2  1  0  0  0  0
 15 12  2  0  0  0  0
 16  8  1  0  0  0  0
 17 25  1  0  0  0  0
 18  4  1  0  0  0  0
 19  5  2  0  0  0  0
 19  3  1  0  0  0  0
 20 11  1  6  0  0  0
 20 18  1  0  0  0  0
 21 23  1  0  0  0  0
 22 24  2  0  0  0  0
 25 14  1  1  0  0  0
 25  9  1  0  0  0  0
 26 21  2  0  0  0  0
 27  1  1  0  0  0  0
 28 17  1  0  0  0  0
 29 28  1  0  0  0  0
 30 34  1  0  0  0  0
 31 32  1  0  0  0  0
 32 29  1  6  0  0  0
 32 34  1  0  0  0  0
 33 31  1  0  0  0  0
 33 30  1  0  0  0  0
M  END
>  <MODEL>
7

>  <REMARK>
 VINA RESULT:      -9.8      2.485      4.338
  Name = 
  3 active torsions:
  status: ('A' for Active; 'I' for Inactive)
    1  A    between atoms: C_17  and  O_28
    2  A    between atoms: O_28  and  C_29
    3  A    between atoms: C_29  and  C_32
                            x       y       z     vdW  Elec       q    Type
                         _______ _______ _______ _____ _____    ______ ____

>  <TORSDO>
F 3

$$$$
=
 OpenBabel11122412023D

 34 42  0  0  1  0  0  0  0  0999 V2000
  184.2910  178.5060  144.4160 C   0  0  0  0  0  0  0  0  0  0  0  0
  181.7840  178.6280  143.9680 C   0  0  0  0  0  2  0  0  0  0  0  0
  190.3240  176.8820  142.3220 C   0  0  1  0  0  0  0  0  0  0  0  0
  186.6750  178.1410  144.6630 C   0  0  0  0  0  0  0  0  0  0  0  0
  188.1000  178.1440  142.5540 C   0  0  0  0  0  0  0  0  0  0  0  0
  189.4380  177.0820  140.5920 C   0  0  1  0  0  3  0  0  0  0  0  0
  190.5190  176.3140  141.0260 O   0  0  0  0  0  0  0  0  0  0  0  0
  190.5520  177.8020  144.5070 C   0  0  0  0  0  2  0  0  0  0  0  0
  183.3320  179.0050  142.1450 C   0  0  1  0  0  3  0  0  0  0  0  0
  182.5350  179.5830  139.3180 C   0  0  0  0  0  3  0  0  0  0  0  0
  186.8970  178.6280  141.7970 C   0  0  0  0  0  2  0  0  0  0  0  0
  189.0790  177.8000  144.8570 C   0  0  0  0  0  3  0  0  0  0  0  0
  184.3530  178.0560  141.5320 C   0  0  2  0  0  3  0  0  0  0  0  0
  180.9820  178.8710  142.7000 C   0  0  0  0  0  2  0  0  0  0  0  0
  188.0220  178.0310  144.0470 C   0  0  0  0  0  0  0  0  0  0  0  0
  190.9450  176.8690  143.4510 N   0  0  0  0  0  2  0  0  0  0  0  0
  181.6960  179.5510  140.3650 C   0  0  0  0  0  0  0  0  0  0  0  0
  185.5320  178.2040  143.8410 C   0  0  0  0  0  0  0  0  0  0  0  0
  189.0810  177.5470  141.8950 C   0  0  0  0  0  0  0  0  0  0  0  0
  185.6600  177.9250  142.3580 C   0  0  2  0  0  3  0  0  0  0  0  0
  185.3250  178.4910  146.5950 C   0  0  0  0  0  3  0  0  0  0  0  0
  183.8440  178.9080  139.1560 C   0  0  0  0  0  3  0  0  0  0  0  0
  186.5360  178.2720  146.0140 N   0  0  0  0  0  0  0  0  0  0  0  0
  184.6100  178.2790  140.0620 C   0  0  0  0  0  3  0  0  0  0  0  0
  181.9780  178.6920  141.5570 C   0  0  1  0  0  3  0  0  0  0  0  0
  184.1820  178.6280  145.8050 C   0  0  0  0  0  3  0  0  0  0  0  0
  183.1710  178.7430  143.5620 N   0  0  0  0  0  0  0  0  0  0  0  0
  180.5030  180.2920  140.3370 O   0  0  0  0  0  0  0  0  0  0  0  0
  179.3520  179.9120  139.5880 C   0  0  0  0  0  2  0  0  0  0  0  0
  180.8390  182.4350  138.1410 O   0  0  0  0  0  0  0  0  0  0  0  0
  179.6630  180.6020  137.2330 C   0  0  0  0  0  2  0  0  0  0  0  0
  179.0240  180.9650  138.5410 C   0  0  2  0  0  3  0  0  0  0  0  0
  180.5680  181.7730  136.9350 C   0  0  0  0  0  2  0  0  0  0  0  0
  179.6810  182.2740  138.9160 C   0  0  0  0  0  2  0  0  0  0  0  0
  1 26  1  0  0  0  0
  3  7  1  1  0  0  0
  3 16  1  0  0  0  0
  4 23  2  0  0  0  0
  5 15  1  0  0  0  0
  6  7  1  1  0  0  0
  6 19  1  0  0  0  0
  6  3  1  0  0  0  0
  8 12  1  0  0  0  0
  9 27  1  1  0  0  0
 10 17  2  0  0  0  0
 11  5  1  0  0  0  0
 13 24  1  6  0  0  0
 13  9  1  0  0  0  0
 13 20  1  0  0  0  0
 14  2  1  0  0  0  0
 15  4  1  0  0  0  0
 15 12  2  0  0  0  0
 16  8  1  0  0  0  0
 17 25  1  0  0  0  0
 18  1  2  0  0  0  0
 18  4  1  0  0  0  0
 19  3  1  0  0  0  0
 19  5  2  0  0  0  0
 20 11  1  6  0  0  0
 20 18  1  0  0  0  0
 22 10  1  0  0  0  0
 22 24  2  0  0  0  0
 23 21  1  0  0  0  0
 25  9  1  0  0  0  0
 25 14  1  1  0  0  0
 26 21  2  0  0  0  0
 27  2  1  0  0  0  0
 27  1  1  0  0  0  0
 28 17  1  0  0  0  0
 29 28  1  0  0  0  0
 30 34  1  0  0  0  0
 31 32  1  0  0  0  0
 32 34  1  0  0  0  0
 32 29  1  1  0  0  0
 33 31  1  0  0  0  0
 33 30  1  0  0  0  0
M  END
>  <MODEL>
8

>  <REMARK>
 VINA RESULT:      -9.4      2.721      4.929
  Name = 
  3 active torsions:
  status: ('A' for Active; 'I' for Inactive)
    1  A    between atoms: C_17  and  O_28
    2  A    between atoms: O_28  and  C_29
    3  A    between atoms: C_29  and  C_32
                            x       y       z     vdW  Elec       q    Type
                         _______ _______ _______ _____ _____    ______ ____

>  <TORSDO>
F 3

$$$$
=
 OpenBabel11122412023D

 34 42  0  0  1  0  0  0  0  0999 V2000
  185.4580  178.5120  142.7390 C   0  0  0  0  0  0  0  0  0  0  0  0
  184.8130  178.3580  140.2770 C   0  0  0  0  0  2  0  0  0  0  0  0
  189.6000  176.8810  147.5990 C   0  0  1  0  0  0  0  0  0  0  0  0
  186.1880  178.3750  145.0470 C   0  0  0  0  0  0  0  0  0  0  0  0
  188.6680  178.0070  145.4870 C   0  0  0  0  0  0  0  0  0  0  0  0
  190.7950  176.6310  146.0740 C   0  0  1  0  0  3  0  0  0  0  0  0
  190.7350  176.0550  147.3430 O   0  0  0  0  0  0  0  0  0  0  0  0
  187.9130  178.2770  148.5370 C   0  0  0  0  0  2  0  0  0  0  0  0
  187.1560  178.4260  140.8850 C   0  0  1  0  0  3  0  0  0  0  0  0
  189.4300  178.3050  138.9420 C   0  0  0  0  0  3  0  0  0  0  0  0
  188.9130  178.2270  144.0220 C   0  0  0  0  0  2  0  0  0  0  0  0
  186.9770  178.2520  147.3480 C   0  0  0  0  0  3  0  0  0  0  0  0
  187.9700  177.4370  141.7080 C   0  0  2  0  0  3  0  0  0  0  0  0
  185.6420  178.2570  139.0070 C   0  0  0  0  0  2  0  0  0  0  0  0
  187.2880  178.2240  146.0330 C   0  0  0  0  0  0  0  0  0  0  0  0
  188.8570  177.1620  148.6140 N   0  0  0  0  0  2  0  0  0  0  0  0
  188.1380  178.4490  138.6090 C   0  0  0  0  0  0  0  0  0  0  0  0
  186.4430  178.1760  143.6750 C   0  0  0  0  0  0  0  0  0  0  0  0
  189.5660  177.3480  146.2010 C   0  0  0  0  0  0  0  0  0  0  0  0
  187.7680  177.5830  143.2400 C   0  0  2  0  0  3  0  0  0  0  0  0
  183.9580  179.0520  144.5480 C   0  0  0  0  0  3  0  0  0  0  0  0
  190.0130  177.7030  140.1650 C   0  0  0  0  0  3  0  0  0  0  0  0
  184.9500  178.7930  145.4420 N   0  0  0  0  0  0  0  0  0  0  0  0
  189.4250  177.3460  141.3160 C   0  0  0  0  0  3  0  0  0  0  0  0
  187.0500  177.8980  139.4750 C   0  0  1  0  0  3  0  0  0  0  0  0
  184.1990  178.9310  143.1780 C   0  0  0  0  0  3  0  0  0  0  0  0
  185.7830  178.4760  141.3480 N   0  0  0  0  0  0  0  0  0  0  0  0
  187.7850  179.0820  137.4060 O   0  0  0  0  0  0  0  0  0  0  0  0
  187.5870  178.3900  136.1760 C   0  0  0  0  0  2  0  0  0  0  0  0
  186.5010  175.6140  134.8410 O   0  0  0  0  0  0  0  0  0  0  0  0
  188.6920  176.3580  135.2980 C   0  0  0  0  0  2  0  0  0  0  0  0
  187.7850  176.8940  136.3660 C   0  0  2  0  0  3  0  0  0  0  0  0
  187.8500  175.3230  134.5940 C   0  0  0  0  0  2  0  0  0  0  0  0
  186.4760  176.1750  136.1270 C   0  0  0  0  0  2  0  0  0  0  0  0
  1 26  2  0  0  0  0
  1 18  1  0  0  0  0
  2 27  1  0  0  0  0
  3 19  1  6  0  0  0
  3 16  1  0  0  0  0
  4 23  1  0  0  0  0
  4 15  1  0  0  0  0
  5 15  1  0  0  0  0
  5 19  2  0  0  0  0
  6 19  1  6  0  0  0
  6  7  1  0  0  0  0
  6  3  1  0  0  0  0
  7  3  1  0  0  0  0
  8 16  1  0  0  0  0
  9 27  1  1  0  0  0
  9 13  1  0  0  0  0
 10 22  1  0  0  0  0
 11  5  1  0  0  0  0
 12  8  1  0  0  0  0
 13 24  1  1  0  0  0
 13 20  1  0  0  0  0
 14  2  1  0  0  0  0
 15 12  2  0  0  0  0
 17 10  2  0  0  0  0
 17 25  1  0  0  0  0
 18  4  2  0  0  0  0
 20 18  1  0  0  0  0
 20 11  1  6  0  0  0
 21 23  2  0  0  0  0
 22 24  2  0  0  0  0
 25 14  1  6  0  0  0
 25  9  1  0  0  0  0
 26 21  1  0  0  0  0
 27  1  1  0  0  0  0
 28 17  1  0  0  0  0
 29 28  1  0  0  0  0
 30 34  1  0  0  0  0
 31 32  1  0  0  0  0
 32 29  1  6  0  0  0
 33 30  1  0  0  0  0
 33 31  1  0  0  0  0
 34 32  1  0  0  0  0
M  END
>  <MODEL>
9

>  <REMARK>
 VINA RESULT:      -9.2      3.193      6.086
  Name = 
  3 active torsions:
  status: ('A' for Active; 'I' for Inactive)
    1  A    between atoms: C_17  and  O_28
    2  A    between atoms: O_28  and  C_29
    3  A    between atoms: C_29  and  C_32
                            x       y       z     vdW  Elec       q    Type
                         _______ _______ _______ _____ _____    ______ ____

>  <TORSDO>
F 3

$$$$
