=
 OpenBabel11122411203D

 37 43  0  0  1  0  0  0  0  0999 V2000
  188.2450  176.4920  138.3250 C   0  0  0  0  0  2  0  0  0  0  0  0
  190.2620  177.1450  143.2440 C   0  0  0  0  0  0  0  0  0  0  0  0
  186.4680  178.1980  141.9190 C   0  0  0  0  0  0  0  0  0  0  0  0
  189.2310  176.0200  137.3490 N   0  0  0  0  0  0  0  0  0  0  0  0
  186.0020  179.2790  138.3830 O   0  0  0  0  0  0  0  0  0  0  0  0
  187.9490  177.8820  143.7940 C   0  0  0  0  0  0  0  0  0  0  0  0
  186.6570  178.2330  140.5360 C   0  0  0  0  0  0  0  0  0  0  0  0
  188.5230  177.9770  135.8650 C   0  0  2  0  0  3  0  0  0  0  0  0
  187.6870  177.9640  142.4550 C   0  0  0  0  0  0  0  0  0  0  0  0
  185.6070  178.6080  139.5380 C   0  0  0  0  0  0  0  0  0  0  0  0
  186.8720  178.0610  144.6800 C   0  0  0  0  0  3  0  0  0  0  0  0
  189.6420  177.0460  136.3740 C   0  0  0  0  0  2  0  0  0  0  0  0
  188.5960  177.8400  141.4760 C   0  0  0  0  0  0  0  0  0  0  0  0
  190.2130  175.6280  143.2180 C   0  0  0  0  0  1  0  0  0  0  0  0
  183.9760  178.5200  142.2090 C   0  0  0  0  0  2  0  0  0  0  0  0
  185.5700  178.2850  144.1550 C   0  0  0  0  0  3  0  0  0  0  0  0
  190.0560  177.6750  141.7900 C   0  0  0  0  0  2  0  0  0  0  0  0
  187.8750  178.8870  136.9340 C   0  0  1  0  0  3  0  0  0  0  0  0
  186.4120  178.5660  137.2320 C   0  0  0  0  0  2  0  0  0  0  0  0
  185.3520  178.3410  142.7550 C   0  0  0  0  0  0  0  0  0  0  0  0
  187.9920  178.0120  140.2760 N   0  0  0  0  0  0  0  0  0  0  0  0
  189.2710  177.6290  144.1850 O   0  0  0  0  0  0  0  0  0  0  0  0
  184.2820  178.3850  139.7480 C   0  0  0  0  0  0  0  0  0  0  0  0
  191.6360  177.5650  143.7210 C   0  0  0  0  0  1  0  0  0  0  0  0
  188.6810  179.0030  138.1600 N   0  0  0  0  0  2  0  0  0  0  0  0
  187.5830  177.2790  135.1030 O   0  0  0  0  0  1  0  0  0  0  0  0
  188.6870  177.7950  139.0070 C   0  0  2  0  0  3  0  0  0  0  0  0
  183.7920  177.6570  140.9690 C   0  0  0  0  0  2  0  0  0  0  0  0
  182.7770  177.9790  137.7930 C   0  0  0  0  0  3  0  0  0  0  0  0
  183.2420  178.8480  138.7920 C   0  0  0  0  0  0  0  0  0  0  0  0
  182.6700  180.1280  138.8950 C   0  0  0  0  0  3  0  0  0  0  0  0
  181.0850  181.8950  138.1210 C   0  0  0  0  0  1  0  0  0  0  0  0
  181.2290  179.6640  137.0070 C   0  0  0  0  0  3  0  0  0  0  0  0
  181.6730  180.5350  138.0040 C   0  0  0  0  0  0  0  0  0  0  0  0
  181.7790  178.3850  136.9020 C   0  0  0  0  0  3  0  0  0  0  0  0
  189.4650  173.6520  136.8430 C   0  0  0  0  0  1  0  0  0  0  0  0
  188.6420  174.9060  136.6220 C   0  0  0  0  0  2  0  0  0  0  0  0
  2 24  1  0  0  0  0
  2 22  1  0  0  0  0
  3  9  1  0  0  0  0
  3 20  1  0  0  0  0
  4  1  1  0  0  0  0
  5 10  1  0  0  0  0
  6 22  1  0  0  0  0
  6 11  2  0  0  0  0
  7  3  2  0  0  0  0
  8 26  1  1  0  0  0
  8 12  1  0  0  0  0
  8 18  1  0  0  0  0
  9  6  1  0  0  0  0
 10 23  2  0  0  0  0
 10  7  1  0  0  0  0
 12  4  1  0  0  0  0
 13 17  1  0  0  0  0
 13  9  2  0  0  0  0
 14  2  1  0  0  0  0
 15 20  1  0  0  0  0
 16 11  1  0  0  0  0
 17  2  1  0  0  0  0
 18 19  1  1  0  0  0
 18 25  1  0  0  0  0
 19  5  1  0  0  0  0
 20 16  2  0  0  0  0
 21  7  1  0  0  0  0
 21 13  1  0  0  0  0
 23 28  1  0  0  0  0
 25 27  1  0  0  0  0
 27  1  1  6  0  0  0
 27 21  1  0  0  0  0
 28 15  1  0  0  0  0
 29 30  1  0  0  0  0
 30 31  2  0  0  0  0
 30 23  1  0  0  0  0
 33 34  2  0  0  0  0
 34 32  1  0  0  0  0
 34 31  1  0  0  0  0
 35 33  1  0  0  0  0
 35 29  2  0  0  0  0
 37 36  1  0  0  0  0
 37  4  1  0  0  0  0
M  END
>  <MODEL>
1

>  <REMARK>
 VINA RESULT:      -9.9      0.000      0.000
  Name = 
  2 active torsions:
  status: ('A' for Active; 'I' for Inactive)
    1  A    between atoms: N_4  and  C_37
    2  A    between atoms: C_23  and  C_30
                            x       y       z     vdW  Elec       q    Type
                         _______ _______ _______ _____ _____    ______ ____

>  <TORSDO>
F 2

$$$$
=
 OpenBabel11122411203D

 37 43  0  0  1  0  0  0  0  0999 V2000
  184.3840  177.1830  138.9640 C   0  0  0  0  0  2  0  0  0  0  0  0
  188.9200  177.3030  136.1180 C   0  0  0  0  0  0  0  0  0  0  0  0
  188.5220  177.6820  140.2360 C   0  0  0  0  0  0  0  0  0  0  0  0
  183.1760  177.1580  138.1350 N   0  0  0  0  0  0  0  0  0  0  0  0
  185.4710  179.3020  141.6360 O   0  0  0  0  0  0  0  0  0  0  0  0
  189.9990  177.3560  138.3600 C   0  0  0  0  0  0  0  0  0  0  0  0
  187.1750  178.0330  140.3540 C   0  0  0  0  0  0  0  0  0  0  0  0
  182.3380  179.1490  139.5010 C   0  0  2  0  0  3  0  0  0  0  0  0
  188.7790  177.6380  138.9100 C   0  0  0  0  0  0  0  0  0  0  0  0
  186.4800  178.3430  141.6420 C   0  0  0  0  0  0  0  0  0  0  0  0
  191.0650  177.1000  139.2410 C   0  0  0  0  0  3  0  0  0  0  0  0
  182.4210  178.4240  138.1430 C   0  0  0  0  0  2  0  0  0  0  0  0
  187.6640  177.9250  138.2220 C   0  0  0  0  0  0  0  0  0  0  0  0
  188.5400  175.8530  135.8810 C   0  0  0  0  0  1  0  0  0  0  0  0
  189.2810  177.3490  142.6250 C   0  0  0  0  0  2  0  0  0  0  0  0
  190.8280  177.1130  140.6420 C   0  0  0  0  0  3  0  0  0  0  0  0
  187.6880  178.0470  136.7240 C   0  0  0  0  0  2  0  0  0  0  0  0
  183.6840  179.6530  140.0710 C   0  0  1  0  0  3  0  0  0  0  0  0
  184.1320  178.9460  141.3480 C   0  0  0  0  0  2  0  0  0  0  0  0
  189.5370  177.3920  141.1570 C   0  0  0  0  0  0  0  0  0  0  0  0
  186.6560  178.1850  139.0860 N   0  0  0  0  0  0  0  0  0  0  0  0
  190.0980  177.3470  136.9630 O   0  0  0  0  0  0  0  0  0  0  0  0
  186.8440  177.7790  142.8250 C   0  0  0  0  0  0  0  0  0  0  0  0
  189.2530  177.9290  134.7820 C   0  0  0  0  0  1  0  0  0  0  0  0
  184.7550  179.7080  139.0620 N   0  0  0  0  0  2  0  0  0  0  0  0
  181.5950  178.4160  140.4290 O   0  0  0  0  0  1  0  0  0  0  0  0
  185.2760  178.3930  138.6460 C   0  0  2  0  0  3  0  0  0  0  0  0
  187.9180  176.7300  142.8990 C   0  0  0  0  0  2  0  0  0  0  0  0
  184.8490  178.5120  144.1430 C   0  0  0  0  0  3  0  0  0  0  0  0
  186.2090  178.1660  144.1120 C   0  0  0  0  0  0  0  0  0  0  0  0
  186.9280  178.1450  145.3200 C   0  0  0  0  0  3  0  0  0  0  0  0
  187.0840  178.4660  147.7910 C   0  0  0  0  0  1  0  0  0  0  0  0
  184.9560  178.8400  146.5380 C   0  0  0  0  0  3  0  0  0  0  0  0
  186.3070  178.4850  146.5250 C   0  0  0  0  0  0  0  0  0  0  0  0
  184.2260  178.8520  145.3480 C   0  0  0  0  0  3  0  0  0  0  0  0
  181.0680  175.9980  137.7760 C   0  0  0  0  0  1  0  0  0  0  0  0
  182.3100  176.1040  138.6400 C   0  0  0  0  0  2  0  0  0  0  0  0
  2 17  1  0  0  0  0
  2 22  1  0  0  0  0
  3  7  2  0  0  0  0
  3 20  1  0  0  0  0
  4 12  1  0  0  0  0
  4 37  1  0  0  0  0
  4  1  1  0  0  0  0
  5 10  1  0  0  0  0
  6  9  1  0  0  0  0
  6 11  2  0  0  0  0
  7 10  1  0  0  0  0
  8 18  1  0  0  0  0
  8 26  1  1  0  0  0
  9  3  1  0  0  0  0
 10 23  2  0  0  0  0
 11 16  1  0  0  0  0
 12  8  1  0  0  0  0
 13  9  2  0  0  0  0
 13 21  1  0  0  0  0
 14  2  1  0  0  0  0
 15 28  1  0  0  0  0
 16 20  2  0  0  0  0
 17 13  1  0  0  0  0
 18 19  1  1  0  0  0
 19  5  1  0  0  0  0
 20 15  1  0  0  0  0
 21  7  1  0  0  0  0
 22  6  1  0  0  0  0
 23 28  1  0  0  0  0
 23 30  1  0  0  0  0
 24  2  1  0  0  0  0
 25 18  1  0  0  0  0
 27  1  1  1  0  0  0
 27 25  1  0  0  0  0
 27 21  1  0  0  0  0
 29 35  1  0  0  0  0
 30 29  2  0  0  0  0
 30 31  1  0  0  0  0
 31 34  2  0  0  0  0
 34 33  1  0  0  0  0
 34 32  1  0  0  0  0
 35 33  2  0  0  0  0
 36 37  1  0  0  0  0
M  END
>  <MODEL>
2

>  <REMARK>
 VINA RESULT:      -9.3      2.078      6.459
  Name = 
  2 active torsions:
  status: ('A' for Active; 'I' for Inactive)
    1  A    between atoms: N_4  and  C_37
    2  A    between atoms: C_23  and  C_30
                            x       y       z     vdW  Elec       q    Type
                         _______ _______ _______ _____ _____    ______ ____

>  <TORSDO>
F 2

$$$$
=
 OpenBabel11122411203D

 37 43  0  0  1  0  0  0  0  0999 V2000
  184.6290  177.0350  138.6430 C   0  0  0  0  0  2  0  0  0  0  0  0
  189.2430  177.1800  135.9250 C   0  0  0  0  0  0  0  0  0  0  0  0
  188.7250  177.5820  140.0270 C   0  0  0  0  0  0  0  0  0  0  0  0
  183.4460  176.9930  137.7800 N   0  0  0  0  0  0  0  0  0  0  0  0
  185.6200  179.1810  141.3290 O   0  0  0  0  0  0  0  0  0  0  0  0
  190.2580  177.2580  138.1960 C   0  0  0  0  0  0  0  0  0  0  0  0
  187.3720  177.9200  140.1040 C   0  0  0  0  0  0  0  0  0  0  0  0
  182.5510  178.9840  139.1070 C   0  0  2  0  0  3  0  0  0  0  0  0
  189.0200  177.5320  138.7090 C   0  0  0  0  0  0  0  0  0  0  0  0
  186.6380  178.2320  141.3700 C   0  0  0  0  0  0  0  0  0  0  0  0
  191.3010  177.0170  139.1080 C   0  0  0  0  0  3  0  0  0  0  0  0
  182.6790  178.2510  137.7570 C   0  0  0  0  0  2  0  0  0  0  0  0
  187.9230  177.8030  137.9870 C   0  0  0  0  0  0  0  0  0  0  0  0
  188.8840  175.7240  135.6870 C   0  0  0  0  0  1  0  0  0  0  0  0
  189.4200  177.2710  142.4390 C   0  0  0  0  0  2  0  0  0  0  0  0
  191.0240  177.0370  140.5020 C   0  0  0  0  0  3  0  0  0  0  0  0
  187.9880  177.9150  136.4900 C   0  0  0  0  0  2  0  0  0  0  0  0
  183.8760  179.5050  139.7120 C   0  0  1  0  0  3  0  0  0  0  0  0
  184.2930  178.8110  141.0060 C   0  0  0  0  0  2  0  0  0  0  0  0
  189.7170  177.3080  140.9780 C   0  0  0  0  0  0  0  0  0  0  0  0
  186.8870  178.0600  138.8210 N   0  0  0  0  0  0  0  0  0  0  0  0
  190.3960  177.2400  136.8020 O   0  0  0  0  0  0  0  0  0  0  0  0
  186.9740  177.6800  142.5670 C   0  0  0  0  0  0  0  0  0  0  0  0
  189.6080  177.8000  134.5940 C   0  0  0  0  0  1  0  0  0  0  0  0
  184.9740  179.5640  138.7330 N   0  0  0  0  0  2  0  0  0  0  0  0
  181.7890  178.2500  140.0190 O   0  0  0  0  0  1  0  0  0  0  0  0
  185.5190  178.2500  138.3410 C   0  0  2  0  0  3  0  0  0  0  0  0
  188.0550  176.6410  142.6780 C   0  0  0  0  0  2  0  0  0  0  0  0
  187.0510  178.2070  145.0100 C   0  0  0  0  0  3  0  0  0  0  0  0
  186.2990  178.0690  143.8330 C   0  0  0  0  0  0  0  0  0  0  0  0
  184.9230  178.3540  143.8730 C   0  0  0  0  0  3  0  0  0  0  0  0
  182.8540  179.0330  145.0940 C   0  0  0  0  0  1  0  0  0  0  0  0
  185.0700  178.8660  146.2330 C   0  0  0  0  0  3  0  0  0  0  0  0
  184.3110  178.7450  145.0670 C   0  0  0  0  0  0  0  0  0  0  0  0
  186.4400  178.6000  146.2050 C   0  0  0  0  0  3  0  0  0  0  0  0
  182.8800  174.6390  137.5380 C   0  0  0  0  0  1  0  0  0  0  0  0
  182.5760  175.9330  138.2670 C   0  0  0  0  0  2  0  0  0  0  0  0
  2 17  1  0  0  0  0
  2 22  1  0  0  0  0
  3  7  2  0  0  0  0
  3 20  1  0  0  0  0
  4 37  1  0  0  0  0
  4  1  1  0  0  0  0
  5 10  1  0  0  0  0
  6  9  1  0  0  0  0
  6 11  2  0  0  0  0
  7 10  1  0  0  0  0
  8 18  1  0  0  0  0
  8 26  1  1  0  0  0
  9  3  1  0  0  0  0
 10 23  2  0  0  0  0
 11 16  1  0  0  0  0
 12  4  1  0  0  0  0
 12  8  1  0  0  0  0
 13  9  2  0  0  0  0
 13 21  1  0  0  0  0
 14  2  1  0  0  0  0
 15 28  1  0  0  0  0
 16 20  2  0  0  0  0
 17 13  1  0  0  0  0
 18 19  1  1  0  0  0
 19  5  1  0  0  0  0
 20 15  1  0  0  0  0
 21  7  1  0  0  0  0
 22  6  1  0  0  0  0
 23 28  1  0  0  0  0
 23 30  1  0  0  0  0
 24  2  1  0  0  0  0
 25 18  1  0  0  0  0
 27  1  1  1  0  0  0
 27 25  1  0  0  0  0
 27 21  1  0  0  0  0
 29 35  1  0  0  0  0
 30 31  1  0  0  0  0
 30 29  2  0  0  0  0
 31 34  2  0  0  0  0
 34 32  1  0  0  0  0
 34 33  1  0  0  0  0
 35 33  2  0  0  0  0
 36 37  1  0  0  0  0
M  END
>  <MODEL>
3

>  <REMARK>
 VINA RESULT:      -8.6      2.072      6.144
  Name = 
  2 active torsions:
  status: ('A' for Active; 'I' for Inactive)
    1  A    between atoms: N_4  and  C_37
    2  A    between atoms: C_23  and  C_30
                            x       y       z     vdW  Elec       q    Type
                         _______ _______ _______ _____ _____    ______ ____

>  <TORSDO>
F 2

$$$$
=
 OpenBabel11122411203D

 37 43  0  0  1  0  0  0  0  0999 V2000
  186.9670  176.0870  137.9680 C   0  0  0  0  0  2  0  0  0  0  0  0
  192.3150  176.3890  137.9990 C   0  0  0  0  0  0  0  0  0  0  0  0
  189.7140  177.4840  141.0470 C   0  0  0  0  0  0  0  0  0  0  0  0
  186.4120  175.7080  136.6660 N   0  0  0  0  0  0  0  0  0  0  0  0
  186.3470  178.8280  140.1840 O   0  0  0  0  0  0  0  0  0  0  0  0
  191.9870  177.0460  140.3760 C   0  0  0  0  0  0  0  0  0  0  0  0
  188.5130  177.6280  140.3500 C   0  0  0  0  0  0  0  0  0  0  0  0
  184.9030  177.7620  136.8410 C   0  0  2  0  0  3  0  0  0  0  0  0
  190.6580  177.2280  140.1140 C   0  0  0  0  0  0  0  0  0  0  0  0
  187.2170  178.0640  140.9570 C   0  0  0  0  0  0  0  0  0  0  0  0
  192.4040  177.1400  141.7160 C   0  0  0  0  0  3  0  0  0  0  0  0
  185.7380  176.8120  135.9600 C   0  0  0  0  0  2  0  0  0  0  0  0
  190.0940  177.1930  138.8970 C   0  0  0  0  0  0  0  0  0  0  0  0
  192.1720  174.8770  137.9680 C   0  0  0  0  0  1  0  0  0  0  0  0
  189.0510  177.7450  143.4740 C   0  0  0  0  0  2  0  0  0  0  0  0
  191.4380  177.3850  142.7300 C   0  0  0  0  0  3  0  0  0  0  0  0
  190.9310  177.0260  137.6600 C   0  0  0  0  0  2  0  0  0  0  0  0
  185.7000  178.5770  137.8850 C   0  0  1  0  0  3  0  0  0  0  0  0
  185.3960  178.2120  139.3360 C   0  0  0  0  0  2  0  0  0  0  0  0
  190.0680  177.5450  142.4020 C   0  0  0  0  0  0  0  0  0  0  0  0
  188.7690  177.4480  139.0070 N   0  0  0  0  0  0  0  0  0  0  0  0
  192.8350  176.7840  139.2920 O   0  0  0  0  0  0  0  0  0  0  0  0
  186.8910  177.8060  142.2520 C   0  0  0  0  0  0  0  0  0  0  0  0
  193.3060  176.7910  136.9280 C   0  0  0  0  0  1  0  0  0  0  0  0
  187.1460  178.6100  137.6110 N   0  0  0  0  0  2  0  0  0  0  0  0
  183.7950  177.1110  137.3910 O   0  0  0  0  0  1  0  0  0  0  0  0
  187.8500  177.3400  137.8740 C   0  0  2  0  0  3  0  0  0  0  0  0
  187.7810  176.9780  143.1370 C   0  0  0  0  0  2  0  0  0  0  0  0
  185.6950  178.9500  144.1260 C   0  0  0  0  0  3  0  0  0  0  0  0
  185.6430  178.3250  142.8700 C   0  0  0  0  0  0  0  0  0  0  0  0
  184.4080  178.2530  142.2020 C   0  0  0  0  0  3  0  0  0  0  0  0
  181.9510  178.6790  142.0720 C   0  0  0  0  0  1  0  0  0  0  0  0
  183.3150  179.3790  144.0440 C   0  0  0  0  0  3  0  0  0  0  0  0
  183.2500  178.7720  142.7880 C   0  0  0  0  0  0  0  0  0  0  0  0
  184.5370  179.4700  144.7130 C   0  0  0  0  0  3  0  0  0  0  0  0
  186.1630  173.3520  137.2180 C   0  0  0  0  0  1  0  0  0  0  0  0
  185.4440  174.6450  136.8860 C   0  0  0  0  0  2  0  0  0  0  0  0
  2 22  1  0  0  0  0
  3 20  1  0  0  0  0
  4 37  1  0  0  0  0
  4  1  1  0  0  0  0
  5 10  1  0  0  0  0
  6 11  2  0  0  0  0
  7 10  1  0  0  0  0
  7  3  2  0  0  0  0
  8 26  1  1  0  0  0
  8 18  1  0  0  0  0
  9  6  1  0  0  0  0
  9  3  1  0  0  0  0
 10 23  2  0  0  0  0
 11 16  1  0  0  0  0
 12  4  1  0  0  0  0
 12  8  1  0  0  0  0
 13 21  1  0  0  0  0
 13  9  2  0  0  0  0
 14  2  1  0  0  0  0
 17  2  1  0  0  0  0
 17 13  1  0  0  0  0
 18 19  1  1  0  0  0
 19  5  1  0  0  0  0
 20 16  2  0  0  0  0
 20 15  1  0  0  0  0
 21  7  1  0  0  0  0
 22  6  1  0  0  0  0
 23 30  1  0  0  0  0
 23 28  1  0  0  0  0
 24  2  1  0  0  0  0
 25 27  1  0  0  0  0
 25 18  1  0  0  0  0
 27  1  1  1  0  0  0
 27 21  1  0  0  0  0
 28 15  1  0  0  0  0
 29 35  1  0  0  0  0
 30 29  2  0  0  0  0
 31 34  2  0  0  0  0
 31 30  1  0  0  0  0
 32 34  1  0  0  0  0
 33 35  2  0  0  0  0
 34 33  1  0  0  0  0
 37 36  1  0  0  0  0
M  END
>  <MODEL>
4

>  <REMARK>
 VINA RESULT:      -8.4      2.352      4.585
  Name = 
  2 active torsions:
  status: ('A' for Active; 'I' for Inactive)
    1  A    between atoms: N_4  and  C_37
    2  A    between atoms: C_23  and  C_30
                            x       y       z     vdW  Elec       q    Type
                         _______ _______ _______ _____ _____    ______ ____

>  <TORSDO>
F 2

$$$$
=
 OpenBabel11122411203D

 37 43  0  0  1  0  0  0  0  0999 V2000
  187.0760  175.9270  137.8600 C   0  0  0  0  0  2  0  0  0  0  0  0
  192.4100  176.3230  137.5610 C   0  0  0  0  0  0  0  0  0  0  0  0
  189.9790  177.4330  140.7410 C   0  0  0  0  0  0  0  0  0  0  0  0
  186.4520  175.5130  136.6020 N   0  0  0  0  0  0  0  0  0  0  0  0
  186.5410  178.7000  140.0580 O   0  0  0  0  0  0  0  0  0  0  0  0
  192.2150  177.0220  139.9420 C   0  0  0  0  0  0  0  0  0  0  0  0
  188.7350  177.5420  140.1150 C   0  0  0  0  0  0  0  0  0  0  0  0
  184.9170  177.5430  136.8300 C   0  0  2  0  0  3  0  0  0  0  0  0
  190.8680  177.1750  139.7570 C   0  0  0  0  0  0  0  0  0  0  0  0
  187.4700  177.9670  140.7920 C   0  0  0  0  0  0  0  0  0  0  0  0
  192.7100  177.1490  141.2520 C   0  0  0  0  0  3  0  0  0  0  0  0
  185.7150  176.5910  135.9180 C   0  0  0  0  0  2  0  0  0  0  0  0
  190.2330  177.1060  138.5780 C   0  0  0  0  0  0  0  0  0  0  0  0
  192.2940  174.8090  137.5670 C   0  0  0  0  0  1  0  0  0  0  0  0
  189.4590  177.7290  143.1980 C   0  0  0  0  0  2  0  0  0  0  0  0
  191.8020  177.3960  142.3170 C   0  0  0  0  0  3  0  0  0  0  0  0
  190.9960  176.9290  137.2950 C   0  0  0  0  0  2  0  0  0  0  0  0
  185.7610  178.3930  137.8090 C   0  0  1  0  0  3  0  0  0  0  0  0
  185.5520  178.0510  139.2820 C   0  0  0  0  0  2  0  0  0  0  0  0
  190.4120  177.5270  142.0710 C   0  0  0  0  0  0  0  0  0  0  0  0
  188.9120  177.3400  138.7630 N   0  0  0  0  0  0  0  0  0  0  0  0
  193.0000  176.7530  138.8130 O   0  0  0  0  0  0  0  0  0  0  0  0
  187.2270  177.7280  142.1080 C   0  0  0  0  0  0  0  0  0  0  0  0
  193.3270  176.7220  136.4250 C   0  0  0  0  0  1  0  0  0  0  0  0
  187.1870  178.4460  137.4470 N   0  0  0  0  0  2  0  0  0  0  0  0
  183.8580  176.8840  137.4580 O   0  0  0  0  0  1  0  0  0  0  0  0
  187.9290  177.1940  137.6900 C   0  0  2  0  0  3  0  0  0  0  0  0
  188.1840  176.9340  142.9530 C   0  0  0  0  0  2  0  0  0  0  0  0
  184.9130  178.6730  142.0310 C   0  0  0  0  0  3  0  0  0  0  0  0
  186.0100  178.2380  142.7920 C   0  0  0  0  0  0  0  0  0  0  0  0
  185.9060  178.2490  144.1940 C   0  0  0  0  0  3  0  0  0  0  0  0
  184.6530  178.7190  146.3020 C   0  0  0  0  0  1  0  0  0  0  0  0
  183.6640  179.1470  144.0490 C   0  0  0  0  0  3  0  0  0  0  0  0
  184.7420  178.7060  144.8180 C   0  0  0  0  0  0  0  0  0  0  0  0
  183.7480  179.1290  142.6550 C   0  0  0  0  0  3  0  0  0  0  0  0
  186.2810  173.1690  137.2300 C   0  0  0  0  0  1  0  0  0  0  0  0
  185.5180  174.4370  136.9000 C   0  0  0  0  0  2  0  0  0  0  0  0
  2 14  1  0  0  0  0
  2 22  1  0  0  0  0
  3 20  1  0  0  0  0
  4 37  1  0  0  0  0
  4  1  1  0  0  0  0
  5 10  1  0  0  0  0
  6 11  2  0  0  0  0
  7  3  2  0  0  0  0
  7 10  1  0  0  0  0
  8 26  1  1  0  0  0
  8 18  1  0  0  0  0
  9  6  1  0  0  0  0
  9  3  1  0  0  0  0
 10 23  2  0  0  0  0
 11 16  1  0  0  0  0
 12  4  1  0  0  0  0
 12  8  1  0  0  0  0
 13 21  1  0  0  0  0
 13  9  2  0  0  0  0
 17  2  1  0  0  0  0
 17 13  1  0  0  0  0
 18 19  1  1  0  0  0
 19  5  1  0  0  0  0
 20 16  2  0  0  0  0
 20 15  1  0  0  0  0
 21  7  1  0  0  0  0
 22  6  1  0  0  0  0
 23 30  1  0  0  0  0
 23 28  1  0  0  0  0
 24  2  1  0  0  0  0
 25 27  1  0  0  0  0
 25 18  1  0  0  0  0
 27  1  1  1  0  0  0
 27 21  1  0  0  0  0
 28 15  1  0  0  0  0
 29 35  2  0  0  0  0
 29 30  1  0  0  0  0
 30 31  2  0  0  0  0
 31 34  1  0  0  0  0
 33 34  2  0  0  0  0
 34 32  1  0  0  0  0
 35 33  1  0  0  0  0
 37 36  1  0  0  0  0
M  END
>  <MODEL>
5

>  <REMARK>
 VINA RESULT:      -8.2      2.426      4.950
  Name = 
  2 active torsions:
  status: ('A' for Active; 'I' for Inactive)
    1  A    between atoms: N_4  and  C_37
    2  A    between atoms: C_23  and  C_30
                            x       y       z     vdW  Elec       q    Type
                         _______ _______ _______ _____ _____    ______ ____

>  <TORSDO>
F 2

$$$$
