=
 OpenBabel11122412113D

 34 41  0  0  1  0  0  0  0  0999 V2000
  190.4370  177.3310  143.1400 C   0  0  0  0  0  0  0  0  0  0  0  0
  192.2450  177.2150  141.2950 C   0  0  0  0  0  3  0  0  0  0  0  0
  184.8080  179.3410  144.8400 C   0  0  1  0  0  3  0  0  0  0  0  0
  188.5560  177.5020  144.6890 C   0  0  0  0  0  0  0  0  0  0  0  0
  186.3660  177.9880  143.6880 C   0  0  0  0  0  0  0  0  0  0  0  0
  184.0400  178.7140  142.9450 N   0  0  0  0  0  2  0  0  0  0  0  0
  183.6670  179.7280  143.9330 C   0  0  0  0  0  2  0  0  0  0  0  0
  185.5370  178.0750  146.8350 C   0  0  0  0  0  3  0  0  0  0  0  0
  190.0970  177.6390  140.6970 C   0  0  0  0  0  0  0  0  0  0  0  0
  188.9370  176.4200  138.1370 C   0  0  0  0  0  3  0  0  0  0  0  0
  186.8530  178.0140  142.4400 C   0  0  0  0  0  3  0  0  0  0  0  0
  186.7040  177.6380  146.2920 C   0  0  0  0  0  2  0  0  0  0  0  0
  188.7930  177.8490  140.8570 C   0  0  0  0  0  0  0  0  0  0  0  0
  192.2440  177.3400  139.9640 C   0  0  0  0  0  3  0  0  0  0  0  0
  187.2430  177.7250  144.8850 C   0  0  0  0  0  0  0  0  0  0  0  0
  184.5150  178.8300  146.1550 N   0  0  0  0  0  0  0  0  0  0  0  0
  190.3810  176.3910  138.5990 C   0  0  2  0  0  3  0  0  0  0  0  0
  189.1200  177.5440  143.3260 C   0  0  2  0  0  3  0  0  0  0  0  0
  184.9220  178.1520  143.9570 C   0  0  2  0  0  3  0  0  0  0  0  0
  188.2520  177.8100  142.1980 N   0  0  0  0  0  0  0  0  0  0  0  0
  190.8460  177.0100  145.5320 C   0  0  0  0  0  3  0  0  0  0  0  0
  187.9080  177.1480  138.6130 C   0  0  0  0  0  3  0  0  0  0  0  0
  189.4490  177.2290  145.7800 N   0  0  0  0  0  0  0  0  0  0  0  0
  187.9580  178.2170  139.6710 C   0  0  0  0  0  2  0  0  0  0  0  0
  190.8530  177.5970  139.4210 C   0  0  1  0  0  3  0  0  0  0  0  0
  191.3300  177.0550  144.2860 C   0  0  0  0  0  3  0  0  0  0  0  0
  190.9330  177.3780  141.7990 N   0  0  0  0  0  0  0  0  0  0  0  0
  191.2150  176.1990  137.4940 O   0  0  0  0  0  0  0  0  0  0  0  0
  191.5250  174.8370  137.5070 C   0  0  0  0  0  2  0  0  0  0  0  0
  194.7330  175.8620  137.2230 O   0  0  0  0  0  0  0  0  0  0  0  0
  193.8030  173.8940  137.6750 C   0  0  0  0  0  3  0  0  0  0  0  0
  192.8350  174.5950  136.7790 C   0  0  2  0  0  3  0  0  0  0  0  0
  194.8550  174.6580  137.8900 C   0  0  0  0  0  3  0  0  0  0  0  0
  193.5160  175.9320  136.5010 C   0  0  0  0  0  2  0  0  0  0  0  0
  1 26  2  0  0  0  0
  2 27  1  0  0  0  0
  3  7  1  6  0  0  0
  3 16  1  0  0  0  0
  4 15  2  0  0  0  0
  4 23  1  0  0  0  0
  5 19  1  0  0  0  0
  5 15  1  0  0  0  0
  6  7  1  0  0  0  0
  9 13  2  0  0  0  0
  9 27  1  0  0  0  0
 10 17  1  0  0  0  0
 10 22  2  0  0  0  0
 11  5  2  0  0  0  0
 12  8  1  0  0  0  0
 13 20  1  0  0  0  0
 14  2  2  0  0  0  0
 15 12  1  0  0  0  0
 16  8  2  0  0  0  0
 17 28  1  6  0  0  0
 17 25  1  0  0  0  0
 18  1  1  6  0  0  0
 18  4  1  0  0  0  0
 19  6  1  6  0  0  0
 19  3  1  0  0  0  0
 20 11  1  0  0  0  0
 20 18  1  0  0  0  0
 21 23  2  0  0  0  0
 22 24  1  0  0  0  0
 24 13  1  0  0  0  0
 25 14  1  1  0  0  0
 25  9  1  0  0  0  0
 26 21  1  0  0  0  0
 27  1  1  0  0  0  0
 28 29  1  0  0  0  0
 30 33  1  0  0  0  0
 31 33  2  0  0  0  0
 32 29  1  1  0  0  0
 32 31  1  0  0  0  0
 34 32  1  0  0  0  0
 34 30  1  0  0  0  0
M  END
>  <MODEL>
1

>  <REMARK>
 VINA RESULT:     -10.3      0.000      0.000
  Name = 
  3 active torsions:
  status: ('A' for Active; 'I' for Inactive)
    1  A    between atoms: C_17  and  O_28
    2  A    between atoms: O_28  and  C_29
    3  A    between atoms: C_29  and  C_32
                            x       y       z     vdW  Elec       q    Type
                         _______ _______ _______ _____ _____    ______ ____

>  <TORSDO>
F 3

$$$$
=
 OpenBabel11122412113D

 34 41  0  0  1  0  0  0  0  0999 V2000
  190.4340  177.2940  143.3080 C   0  0  0  0  0  0  0  0  0  0  0  0
  192.3040  177.1630  141.5270 C   0  0  0  0  0  3  0  0  0  0  0  0
  184.7670  179.3520  144.8140 C   0  0  1  0  0  3  0  0  0  0  0  0
  188.5020  177.4800  144.7910 C   0  0  0  0  0  0  0  0  0  0  0  0
  186.3530  177.9860  143.7160 C   0  0  0  0  0  0  0  0  0  0  0  0
  184.0610  178.7330  142.8920 N   0  0  0  0  0  2  0  0  0  0  0  0
  183.6620  179.7500  143.8680 C   0  0  0  0  0  2  0  0  0  0  0  0
  185.4160  178.0780  146.8320 C   0  0  0  0  0  3  0  0  0  0  0  0
  190.1820  177.6060  140.8550 C   0  0  0  0  0  0  0  0  0  0  0  0
  189.1000  176.3980  138.2560 C   0  0  0  0  0  3  0  0  0  0  0  0
  186.8830  178.0080  142.4860 C   0  0  0  0  0  3  0  0  0  0  0  0
  186.5960  177.6320  146.3290 C   0  0  0  0  0  3  0  0  0  0  0  0
  188.8750  177.8270  140.9710 C   0  0  0  0  0  0  0  0  0  0  0  0
  192.3500  177.2890  140.1970 C   0  0  0  0  0  3  0  0  0  0  0  0
  187.1850  177.7150  144.9420 C   0  0  0  0  0  0  0  0  0  0  0  0
  184.4250  178.8430  146.1180 N   0  0  0  0  0  2  0  0  0  0  0  0
  190.5280  176.3570  138.7670 C   0  0  2  0  0  3  0  0  0  0  0  0
  189.1130  177.5180  143.4490 C   0  0  2  0  0  3  0  0  0  0  0  0
  184.9010  178.1630  143.9340 C   0  0  2  0  0  3  0  0  0  0  0  0
  188.2870  177.7920  142.2920 N   0  0  0  0  0  0  0  0  0  0  0  0
  190.7570  176.9680  145.7130 C   0  0  0  0  0  3  0  0  0  0  0  0
  188.0620  177.1350  138.6960 C   0  0  0  0  0  3  0  0  0  0  0  0
  189.3540  177.1990  145.9120 N   0  0  0  0  0  0  0  0  0  0  0  0
  188.0840  178.2030  139.7560 C   0  0  0  0  0  2  0  0  0  0  0  0
  190.9820  177.5580  139.6060 C   0  0  1  0  0  3  0  0  0  0  0  0
  191.2850  177.0090  144.4850 C   0  0  0  0  0  3  0  0  0  0  0  0
  190.9770  177.3370  141.9850 N   0  0  0  0  0  0  0  0  0  0  0  0
  191.3980  176.1580  137.6920 O   0  0  0  0  0  0  0  0  0  0  0  0
  190.5690  176.0490  136.5720 C   0  0  0  0  0  2  0  0  0  0  0  0
  190.2000  172.7830  135.7840 O   0  0  0  0  0  0  0  0  0  0  0  0
  190.0630  174.6570  134.5950 C   0  0  0  0  0  3  0  0  0  0  0  0
  191.0660  174.9380  135.6650 C   0  0  2  0  0  3  0  0  0  0  0  0
  189.6100  173.4250  134.7120 C   0  0  0  0  0  3  0  0  0  0  0  0
  191.1220  173.6300  136.4490 C   0  0  0  0  0  2  0  0  0  0  0  0
  1 26  2  0  0  0  0
  2 27  1  0  0  0  0
  3  7  1  6  0  0  0
  3 16  1  0  0  0  0
  4 15  2  0  0  0  0
  4 23  1  0  0  0  0
  5 19  1  0  0  0  0
  5 15  1  0  0  0  0
  6  7  1  0  0  0  0
  9 13  2  0  0  0  0
  9 27  1  0  0  0  0
 10 22  2  0  0  0  0
 10 17  1  0  0  0  0
 11  5  2  0  0  0  0
 12  8  2  0  0  0  0
 13 20  1  0  0  0  0
 14  2  2  0  0  0  0
 15 12  1  0  0  0  0
 16  8  1  0  0  0  0
 17 28  1  6  0  0  0
 17 25  1  0  0  0  0
 18  1  1  6  0  0  0
 18  4  1  0  0  0  0
 19  6  1  6  0  0  0
 19  3  1  0  0  0  0
 20 11  1  0  0  0  0
 20 18  1  0  0  0  0
 21 23  2  0  0  0  0
 22 24  1  0  0  0  0
 24 13  1  0  0  0  0
 25 14  1  1  0  0  0
 25  9  1  0  0  0  0
 26 21  1  0  0  0  0
 27  1  1  0  0  0  0
 29 28  1  0  0  0  0
 30 34  1  0  0  0  0
 31 33  2  0  0  0  0
 31 32  1  0  0  0  0
 32 34  1  0  0  0  0
 32 29  1  1  0  0  0
 33 30  1  0  0  0  0
M  END
>  <MODEL>
2

>  <REMARK>
 VINA RESULT:      -9.5      1.241      1.837
  Name = 
  3 active torsions:
  status: ('A' for Active; 'I' for Inactive)
    1  A    between atoms: C_17  and  O_28
    2  A    between atoms: O_28  and  C_29
    3  A    between atoms: C_29  and  C_32
                            x       y       z     vdW  Elec       q    Type
                         _______ _______ _______ _____ _____    ______ ____

>  <TORSDO>
F 3

$$$$
=
 OpenBabel11122412113D

 34 41  0  0  1  0  0  0  0  0999 V2000
  188.2940  177.7250  141.2960 C   0  0  0  0  0  0  0  0  0  0  0  0
  186.6770  178.5360  139.4480 C   0  0  0  0  0  3  0  0  0  0  0  0
  189.9340  177.9360  147.2860 C   0  0  1  0  0  3  0  0  0  0  0  0
  189.6370  177.0380  143.2170 C   0  0  0  0  0  0  0  0  0  0  0  0
  188.6050  177.3370  145.4260 C   0  0  0  0  0  0  0  0  0  0  0  0
  187.8730  177.7560  147.8290 N   0  0  0  0  0  2  0  0  0  0  0  0
  189.0660  178.3310  148.4550 C   0  0  0  0  0  2  0  0  0  0  0  0
  191.5520  176.3140  146.3560 C   0  0  0  0  0  3  0  0  0  0  0  0
  186.0160  178.6660  141.6160 C   0  0  0  0  0  0  0  0  0  0  0  0
  183.1160  178.0490  142.3860 C   0  0  0  0  0  3  0  0  0  0  0  0
  187.4690  177.8310  144.9160 C   0  0  0  0  0  3  0  0  0  0  0  0
  191.0250  176.3080  145.1040 C   0  0  0  0  0  3  0  0  0  0  0  0
  186.1010  178.5460  142.9380 C   0  0  0  0  0  0  0  0  0  0  0  0
  185.4420  179.0470  139.4340 C   0  0  0  0  0  3  0  0  0  0  0  0
  189.7590  176.9170  144.5530 C   0  0  0  0  0  0  0  0  0  0  0  0
  191.0160  177.0090  147.4990 N   0  0  0  0  0  2  0  0  0  0  0  0
  183.6890  178.1830  140.9880 C   0  0  2  0  0  3  0  0  0  0  0  0
  188.4030  177.5960  142.6320 C   0  0  0  0  0  0  0  0  0  0  0  0
  188.7670  177.1130  146.8780 C   0  0  2  0  0  3  0  0  0  0  0  0
  187.3170  178.0000  143.5000 N   0  0  0  0  0  0  0  0  0  0  0  0
  190.5260  176.8000  140.9040 C   0  0  0  0  0  3  0  0  0  0  0  0
  183.6750  178.3750  143.5670 C   0  0  0  0  0  3  0  0  0  0  0  0
  190.6880  176.6430  142.3220 N   0  0  0  0  0  2  0  0  0  0  0  0
  184.9910  179.0690  143.7950 C   0  0  0  0  0  2  0  0  0  0  0  0
  184.8600  179.1610  140.8280 C   0  0  1  0  0  3  0  0  0  0  0  0
  189.3980  177.3110  140.4020 C   0  0  0  0  0  3  0  0  0  0  0  0
  187.0750  178.2680  140.7790 N   0  0  0  0  0  0  0  0  0  0  0  0
  182.6620  178.5030  140.0970 O   0  0  0  0  0  0  0  0  0  0  0  0
  181.9980  177.2970  139.8630 C   0  0  0  0  0  2  0  0  0  0  0  0
  179.1550  177.3430  141.6900 O   0  0  0  0  0  0  0  0  0  0  0  0
  180.1600  178.8560  140.4070 C   0  0  0  0  0  3  0  0  0  0  0  0
  180.4990  177.5330  139.8020 C   0  0  2  0  0  3  0  0  0  0  0  0
  179.3980  178.6850  141.4690 C   0  0  0  0  0  3  0  0  0  0  0  0
  179.7910  176.5350  140.7150 C   0  0  0  0  0  2  0  0  0  0  0  0
  1 18  2  0  0  0  0
  2 27  1  0  0  0  0
  3 16  1  0  0  0  0
  3  7  1  1  0  0  0
  4 15  2  0  0  0  0
  6  7  1  0  0  0  0
  8 16  1  0  0  0  0
  9 13  2  0  0  0  0
 10 22  2  0  0  0  0
 11  5  2  0  0  0  0
 12  8  2  0  0  0  0
 13 20  1  0  0  0  0
 13 24  1  0  0  0  0
 14  2  2  0  0  0  0
 15 12  1  0  0  0  0
 15  5  1  0  0  0  0
 17 28  1  6  0  0  0
 17 10  1  0  0  0  0
 18  4  1  0  0  0  0
 18 20  1  0  0  0  0
 19  5  1  6  0  0  0
 19  3  1  0  0  0  0
 19  6  1  0  0  0  0
 20 11  1  0  0  0  0
 21 23  1  0  0  0  0
 22 24  1  0  0  0  0
 23  4  1  0  0  0  0
 25 14  1  6  0  0  0
 25 17  1  0  0  0  0
 25  9  1  0  0  0  0
 26 21  2  0  0  0  0
 26  1  1  0  0  0  0
 27  1  1  0  0  0  0
 27  9  1  0  0  0  0
 29 28  1  0  0  0  0
 31 33  2  0  0  0  0
 32 29  1  1  0  0  0
 32 31  1  0  0  0  0
 32 34  1  0  0  0  0
 33 30  1  0  0  0  0
 34 30  1  0  0  0  0
M  END
>  <MODEL>
3

>  <REMARK>
 VINA RESULT:      -9.2      3.755      7.703
  Name = 
  3 active torsions:
  status: ('A' for Active; 'I' for Inactive)
    1  A    between atoms: C_17  and  O_28
    2  A    between atoms: O_28  and  C_29
    3  A    between atoms: C_29  and  C_32
                            x       y       z     vdW  Elec       q    Type
                         _______ _______ _______ _____ _____    ______ ____

>  <TORSDO>
F 3

$$$$
=
 OpenBabel11122412113D

 34 41  0  0  1  0  0  0  0  0999 V2000
  187.9380  177.8040  141.6180 C   0  0  0  0  0  0  0  0  0  0  0  0
  186.2680  178.6280  139.8240 C   0  0  0  0  0  3  0  0  0  0  0  0
  189.8150  178.0490  147.5370 C   0  0  1  0  0  3  0  0  0  0  0  0
  189.3400  177.1100  143.4940 C   0  0  0  0  0  0  0  0  0  0  0  0
  188.4020  177.4570  145.7370 C   0  0  0  0  0  0  0  0  0  0  0  0
  187.7730  177.9200  148.1620 N   0  0  0  0  0  2  0  0  0  0  0  0
  189.0010  178.4770  148.7330 C   0  0  0  0  0  2  0  0  0  0  0  0
  191.3600  176.3820  146.5650 C   0  0  0  0  0  3  0  0  0  0  0  0
  185.6950  178.7980  142.0130 C   0  0  0  0  0  0  0  0  0  0  0  0
  182.8140  178.2530  142.9030 C   0  0  0  0  0  3  0  0  0  0  0  0
  187.2580  177.9700  145.2660 C   0  0  0  0  0  3  0  0  0  0  0  0
  190.7850  176.3730  145.3350 C   0  0  0  0  0  3  0  0  0  0  0  0
  185.8290  178.6910  143.3330 C   0  0  0  0  0  0  0  0  0  0  0  0
  185.0440  179.1650  139.8510 C   0  0  0  0  0  3  0  0  0  0  0  0
  189.5120  177.0030  144.8250 C   0  0  0  0  0  0  0  0  0  0  0  0
  190.8850  177.1020  147.7190 N   0  0  0  0  0  2  0  0  0  0  0  0
  183.3360  178.3580  141.4830 C   0  0  2  0  0  3  0  0  0  0  0  0
  188.0970  177.6890  142.9500 C   0  0  0  0  0  0  0  0  0  0  0  0
  188.6160  177.2470  147.1840 C   0  0  2  0  0  3  0  0  0  0  0  0
  187.0540  178.1260  143.8550 N   0  0  0  0  0  0  0  0  0  0  0  0
  190.1340  176.8260  141.1510 C   0  0  0  0  0  3  0  0  0  0  0  0
  183.4260  178.5800  144.0580 C   0  0  0  0  0  3  0  0  0  0  0  0
  190.3470  176.6830  142.5630 N   0  0  0  0  0  2  0  0  0  0  0  0
  184.7640  179.2480  144.2260 C   0  0  0  0  0  2  0  0  0  0  0  0
  184.5200  179.3080  141.2650 C   0  0  1  0  0  3  0  0  0  0  0  0
  188.9970  177.3560  140.6860 C   0  0  0  0  0  3  0  0  0  0  0  0
  186.7120  178.3670  141.1420 N   0  0  0  0  0  0  0  0  0  0  0  0
  182.2820  178.6900  140.6270 O   0  0  0  0  0  0  0  0  0  0  0  0
  181.1330  178.2270  141.2730 C   0  0  0  0  0  2  0  0  0  0  0  0
  179.6440  181.2590  141.1640 O   0  0  0  0  0  0  0  0  0  0  0  0
  180.2780  179.8210  139.5910 C   0  0  0  0  0  3  0  0  0  0  0  0
  179.9150  178.9830  140.7730 C   0  0  2  0  0  3  0  0  0  0  0  0
  180.1030  181.0970  139.8710 C   0  0  0  0  0  3  0  0  0  0  0  0
  179.4910  180.0110  141.8180 C   0  0  0  0  0  2  0  0  0  0  0  0
  1 18  2  0  0  0  0
  2 14  2  0  0  0  0
  2 27  1  0  0  0  0
  3 16  1  0  0  0  0
  3  7  1  1  0  0  0
  4 15  2  0  0  0  0
  6  7  1  0  0  0  0
  8 16  1  0  0  0  0
  9 13  2  0  0  0  0
 10 22  2  0  0  0  0
 11  5  2  0  0  0  0
 12  8  2  0  0  0  0
 13 20  1  0  0  0  0
 13 24  1  0  0  0  0
 15 12  1  0  0  0  0
 15  5  1  0  0  0  0
 17 28  1  6  0  0  0
 17 10  1  0  0  0  0
 18  4  1  0  0  0  0
 18 20  1  0  0  0  0
 19  5  1  6  0  0  0
 19  3  1  0  0  0  0
 19  6  1  0  0  0  0
 20 11  1  0  0  0  0
 21 23  1  0  0  0  0
 22 24  1  0  0  0  0
 23  4  1  0  0  0  0
 25 14  1  6  0  0  0
 25 17  1  0  0  0  0
 25  9  1  0  0  0  0
 26 21  2  0  0  0  0
 26  1  1  0  0  0  0
 27  1  1  0  0  0  0
 27  9  1  0  0  0  0
 28 29  1  0  0  0  0
 30 34  1  0  0  0  0
 31 33  2  0  0  0  0
 31 32  1  0  0  0  0
 32 29  1  1  0  0  0
 32 34  1  0  0  0  0
 33 30  1  0  0  0  0
M  END
>  <MODEL>
4

>  <REMARK>
 VINA RESULT:      -9.1      3.899      8.012
  Name = 
  3 active torsions:
  status: ('A' for Active; 'I' for Inactive)
    1  A    between atoms: C_17  and  O_28
    2  A    between atoms: O_28  and  C_29
    3  A    between atoms: C_29  and  C_32
                            x       y       z     vdW  Elec       q    Type
                         _______ _______ _______ _____ _____    ______ ____

>  <TORSDO>
F 3

$$$$
=
 OpenBabel11122412113D

 34 41  0  0  1  0  0  0  0  0999 V2000
  189.6930  177.4570  141.3380 C   0  0  0  0  0  0  0  0  0  0  0  0
  189.7680  177.8980  138.7910 C   0  0  0  0  0  3  0  0  0  0  0  0
  186.9630  178.6690  146.7870 C   0  0  1  0  0  3  0  0  0  0  0  0
  189.3740  177.1380  143.7390 C   0  0  0  0  0  0  0  0  0  0  0  0
  187.1620  177.7290  144.6280 C   0  0  0  0  0  0  0  0  0  0  0  0
  185.0530  178.4830  145.8410 N   0  0  0  0  0  2  0  0  0  0  0  0
  185.5690  179.2020  147.0080 C   0  0  0  0  0  2  0  0  0  0  0  0
  188.6710  176.9970  147.4170 C   0  0  0  0  0  3  0  0  0  0  0  0
  187.8490  178.3340  139.9210 C   0  0  0  0  0  0  0  0  0  0  0  0
  185.1320  177.7140  138.6470 C   0  0  0  0  0  3  0  0  0  0  0  0
  186.6870  178.0870  143.4270 C   0  0  0  0  0  3  0  0  0  0  0  0
  189.1070  176.7730  146.1500 C   0  0  0  0  0  3  0  0  0  0  0  0
  187.0280  178.4240  140.9640 C   0  0  0  0  0  0  0  0  0  0  0  0
  188.8930  178.3450  137.8850 C   0  0  0  0  0  3  0  0  0  0  0  0
  188.5720  177.2320  144.8160 C   0  0  0  0  0  0  0  0  0  0  0  0
  187.5640  177.8360  147.7970 N   0  0  0  0  0  2  0  0  0  0  0  0
  186.4960  177.6550  137.9850 C   0  0  2  0  0  3  0  0  0  0  0  0
  188.8810  177.5430  142.4090 C   0  0  2  0  0  3  0  0  0  0  0  0
  186.3050  177.7410  145.8320 C   0  0  2  0  0  3  0  0  0  0  0  0
  187.5240  178.0270  142.2640 N   0  0  0  0  0  0  0  0  0  0  0  0
  191.5530  176.5840  142.6700 C   0  0  0  0  0  3  0  0  0  0  0  0
  184.7900  178.2440  139.8370 C   0  0  0  0  0  3  0  0  0  0  0  0
  190.7230  176.6570  143.8390 N   0  0  0  0  0  0  0  0  0  0  0  0
  185.6690  179.0230  140.7780 C   0  0  0  0  0  2  0  0  0  0  0  0
  187.5440  178.6480  138.5030 C   0  0  1  0  0  3  0  0  0  0  0  0
  191.0800  176.9600  141.4760 C   0  0  0  0  0  3  0  0  0  0  0  0
  189.1650  177.8580  140.0700 N   0  0  0  0  0  0  0  0  0  0  0  0
  186.3430  177.7860  136.6020 O   0  0  0  0  0  0  0  0  0  0  0  0
  185.6980  176.6150  136.1970 C   0  0  0  0  0  2  0  0  0  0  0  0
  188.8870  176.2570  135.1390 O   0  0  0  0  0  0  0  0  0  0  0  0
  187.4500  174.8750  136.1220 C   0  0  0  0  0  3  0  0  0  0  0  0
  186.6130  175.8010  135.3010 C   0  0  2  0  0  3  0  0  0  0  0  0
  188.7250  175.1800  135.9900 C   0  0  0  0  0  3  0  0  0  0  0  0
  187.6410  176.7230  134.6520 C   0  0  0  0  0  2  0  0  0  0  0  0
  1 26  2  0  0  0  0
  2 27  1  0  0  0  0
  3  7  1  1  0  0  0
  3 16  1  0  0  0  0
  4 23  1  0  0  0  0
  4 15  2  0  0  0  0
  5 15  1  0  0  0  0
  6  7  1  0  0  0  0
  8 16  1  0  0  0  0
  9 27  1  0  0  0  0
  9 13  2  0  0  0  0
 10 22  2  0  0  0  0
 11  5  2  0  0  0  0
 12  8  2  0  0  0  0
 13 20  1  0  0  0  0
 14  2  2  0  0  0  0
 15 12  1  0  0  0  0
 17 28  1  6  0  0  0
 17 25  1  0  0  0  0
 17 10  1  0  0  0  0
 18  1  1  6  0  0  0
 18  4  1  0  0  0  0
 19  5  1  6  0  0  0
 19  6  1  0  0  0  0
 19  3  1  0  0  0  0
 20 18  1  0  0  0  0
 20 11  1  0  0  0  0
 21 23  2  0  0  0  0
 22 24  1  0  0  0  0
 24 13  1  0  0  0  0
 25 14  1  6  0  0  0
 25  9  1  0  0  0  0
 26 21  1  0  0  0  0
 27  1  1  0  0  0  0
 29 28  1  0  0  0  0
 30 33  1  0  0  0  0
 32 31  1  0  0  0  0
 32 29  1  1  0  0  0
 33 31  2  0  0  0  0
 34 30  1  0  0  0  0
 34 32  1  0  0  0  0
M  END
>  <MODEL>
5

>  <REMARK>
 VINA RESULT:      -8.6      2.623      3.774
  Name = 
  3 active torsions:
  status: ('A' for Active; 'I' for Inactive)
    1  A    between atoms: C_17  and  O_28
    2  A    between atoms: O_28  and  C_29
    3  A    between atoms: C_29  and  C_32
                            x       y       z     vdW  Elec       q    Type
                         _______ _______ _______ _____ _____    ______ ____

>  <TORSDO>
F 3

$$$$
=
 OpenBabel11122412113D

 34 41  0  0  1  0  0  0  0  0999 V2000
  183.7920  178.6440  143.8760 C   0  0  0  0  0  0  0  0  0  0  0  0
  181.4690  178.9750  142.7900 C   0  0  0  0  0  3  0  0  0  0  0  0
  189.5570  176.3880  143.3320 C   0  0  1  0  0  3  0  0  0  0  0  0
  186.0790  178.2870  144.6560 C   0  0  0  0  0  0  0  0  0  0  0  0
  187.7660  177.8740  142.9190 C   0  0  0  0  0  0  0  0  0  0  0  0
  189.6570  177.1950  141.3530 N   0  0  0  0  0  2  0  0  0  0  0  0
  190.2970  176.0790  142.0540 C   0  0  0  0  0  2  0  0  0  0  0  0
  189.6190  177.4520  145.5620 C   0  0  0  0  0  3  0  0  0  0  0  0
  183.2580  178.5840  141.4500 C   0  0  0  0  0  0  0  0  0  0  0  0
  183.5280  180.0430  138.7700 C   0  0  0  0  0  3  0  0  0  0  0  0
  186.8800  177.9840  141.9210 C   0  0  0  0  0  3  0  0  0  0  0  0
  188.3600  177.9590  145.4990 C   0  0  0  0  0  3  0  0  0  0  0  0
  184.5260  178.3400  141.1290 C   0  0  0  0  0  0  0  0  0  0  0  0
  181.0070  178.9880  141.5360 C   0  0  0  0  0  3  0  0  0  0  0  0
  187.3680  178.0250  144.3650 C   0  0  0  0  0  0  0  0  0  0  0  0
  190.3070  176.7560  144.5050 N   0  0  0  0  0  2  0  0  0  0  0  0
  182.3330  180.0450  139.7040 C   0  0  2  0  0  3  0  0  0  0  0  0
  185.0810  178.3940  143.5760 C   0  0  2  0  0  3  0  0  0  0  0  0
  189.2050  177.6620  142.6550 C   0  0  2  0  0  3  0  0  0  0  0  0
  185.4950  178.2330  142.1980 N   0  0  0  0  0  0  0  0  0  0  0  0
  184.2450  178.7230  146.2810 C   0  0  0  0  0  3  0  0  0  0  0  0
  184.6200  179.2550  138.7920 C   0  0  0  0  0  3  0  0  0  0  0  0
  185.6290  178.4590  146.0090 N   0  0  0  0  0  0  0  0  0  0  0  0
  184.8840  178.0830  139.6990 C   0  0  0  0  0  2  0  0  0  0  0  0
  182.1130  178.7680  140.5240 C   0  0  1  0  0  3  0  0  0  0  0  0
  183.3610  178.8130  145.2820 C   0  0  0  0  0  3  0  0  0  0  0  0
  182.8640  178.7420  142.7920 N   0  0  0  0  0  0  0  0  0  0  0  0
  181.1810  180.3620  138.9790 O   0  0  0  0  0  0  0  0  0  0  0  0
  181.4640  181.5860  138.3680 C   0  0  0  0  0  2  0  0  0  0  0  0
  180.8680  182.9790  135.3470 O   0  0  0  0  0  0  0  0  0  0  0  0
  180.4270  180.9780  136.2090 C   0  0  0  0  0  3  0  0  0  0  0  0
  180.3800  181.9270  137.3620 C   0  0  2  0  0  3  0  0  0  0  0  0
  180.7060  181.6300  135.0980 C   0  0  0  0  0  3  0  0  0  0  0  0
  180.6890  183.2770  136.7200 C   0  0  0  0  0  2  0  0  0  0  0  0
  1 26  2  0  0  0  0
  2 27  1  0  0  0  0
  3  7  1  6  0  0  0
  3 16  1  0  0  0  0
  4 23  1  0  0  0  0
  5 15  1  0  0  0  0
  6  7  1  0  0  0  0
  9 27  1  0  0  0  0
 10 22  2  0  0  0  0
 10 17  1  0  0  0  0
 11 20  1  0  0  0  0
 11  5  2  0  0  0  0
 12  8  2  0  0  0  0
 13  9  2  0  0  0  0
 13 20  1  0  0  0  0
 14  2  2  0  0  0  0
 15  4  2  0  0  0  0
 15 12  1  0  0  0  0
 16  8  1  0  0  0  0
 17 28  1  6  0  0  0
 17 25  1  0  0  0  0
 18  1  1  6  0  0  0
 18  4  1  0  0  0  0
 19  6  1  6  0  0  0
 19  5  1  0  0  0  0
 19  3  1  0  0  0  0
 20 18  1  0  0  0  0
 22 24  1  0  0  0  0
 23 21  2  0  0  0  0
 24 13  1  0  0  0  0
 25  9  1  0  0  0  0
 25 14  1  1  0  0  0
 26 21  1  0  0  0  0
 27  1  1  0  0  0  0
 29 28  1  0  0  0  0
 30 34  1  0  0  0  0
 31 32  1  0  0  0  0
 32 29  1  1  0  0  0
 33 30  1  0  0  0  0
 33 31  2  0  0  0  0
 34 32  1  0  0  0  0
M  END
>  <MODEL>
6

>  <REMARK>
 VINA RESULT:      -8.6      4.691      8.522
  Name = 
  3 active torsions:
  status: ('A' for Active; 'I' for Inactive)
    1  A    between atoms: C_17  and  O_28
    2  A    between atoms: O_28  and  C_29
    3  A    between atoms: C_29  and  C_32
                            x       y       z     vdW  Elec       q    Type
                         _______ _______ _______ _____ _____    ______ ____

>  <TORSDO>
F 3

$$$$
=
 OpenBabel11122412113D

 34 41  0  0  1  0  0  0  0  0999 V2000
  188.3090  177.8170  141.0150 C   0  0  0  0  0  0  0  0  0  0  0  0
  187.5580  178.2530  138.5790 C   0  0  0  0  0  3  0  0  0  0  0  0
  187.2910  178.7930  147.0670 C   0  0  1  0  0  3  0  0  0  0  0  0
  188.7740  177.4790  143.3890 C   0  0  0  0  0  0  0  0  0  0  0  0
  186.8990  177.8680  144.9280 C   0  0  0  0  0  0  0  0  0  0  0  0
  185.2080  178.4280  146.7480 N   0  0  0  0  0  2  0  0  0  0  0  0
  185.9910  179.1960  147.7180 C   0  0  0  0  0  2  0  0  0  0  0  0
  189.2520  177.2890  147.1010 C   0  0  0  0  0  3  0  0  0  0  0  0
  186.0490  178.5140  140.2540 C   0  0  0  0  0  0  0  0  0  0  0  0
  183.1380  177.6410  139.8600 C   0  0  0  0  0  3  0  0  0  0  0  0
  186.0480  178.1750  143.9400 C   0  0  0  0  0  3  0  0  0  0  0  0
  189.2950  177.1010  145.7570 C   0  0  0  0  0  3  0  0  0  0  0  0
  185.5830  178.5320  141.5010 C   0  0  0  0  0  0  0  0  0  0  0  0
  186.4100  178.6130  137.9970 C   0  0  0  0  0  3  0  0  0  0  0  0
  188.3370  177.5030  144.6630 C   0  0  0  0  0  0  0  0  0  0  0  0
  188.2450  178.0240  147.8240 N   0  0  0  0  0  2  0  0  0  0  0  0
  184.2310  177.7050  138.8100 C   0  0  2  0  0  3  0  0  0  0  0  0
  187.8610  177.8320  142.2850 C   0  0  2  0  0  3  0  0  0  0  0  0
  186.4570  177.8050  146.3370 C   0  0  2  0  0  3  0  0  0  0  0  0
  186.4880  178.1880  142.5750 N   0  0  0  0  0  0  0  0  0  0  0  0
  190.5580  177.1240  141.6910 C   0  0  0  0  0  3  0  0  0  0  0  0
  183.1320  178.1420  141.1100 C   0  0  0  0  0  3  0  0  0  0  0  0
  190.1260  177.1250  143.0590 N   0  0  0  0  0  0  0  0  0  0  0  0
  184.1850  179.0030  141.7550 C   0  0  0  0  0  2  0  0  0  0  0  0
  185.2950  178.7930  139.0060 C   0  0  1  0  0  3  0  0  0  0  0  0
  189.7100  177.4500  140.7090 C   0  0  0  0  0  3  0  0  0  0  0  0
  187.3840  178.1630  139.9810 N   0  0  0  0  0  0  0  0  0  0  0  0
  183.6500  177.8160  137.5440 O   0  0  0  0  0  0  0  0  0  0  0  0
  183.2700  176.5150  137.2060 C   0  0  0  0  0  2  0  0  0  0  0  0
  184.3980  173.4480  136.3450 O   0  0  0  0  0  0  0  0  0  0  0  0
  185.0740  175.5070  135.8500 C   0  0  0  0  0  3  0  0  0  0  0  0
  184.4820  175.6010  137.2180 C   0  0  2  0  0  3  0  0  0  0  0  0
  184.9990  174.2680  135.4090 C   0  0  0  0  0  3  0  0  0  0  0  0
  184.0360  174.1710  137.5080 C   0  0  0  0  0  2  0  0  0  0  0  0
  2 27  1  0  0  0  0
  3  7  1  1  0  0  0
  3 16  1  0  0  0  0
  4 15  2  0  0  0  0
  6  7  1  0  0  0  0
  8 16  1  0  0  0  0
  9 13  2  0  0  0  0
 10 22  2  0  0  0  0
 11  5  2  0  0  0  0
 12  8  2  0  0  0  0
 13 24  1  0  0  0  0
 13 20  1  0  0  0  0
 14  2  2  0  0  0  0
 15  5  1  0  0  0  0
 15 12  1  0  0  0  0
 17 28  1  6  0  0  0
 17 25  1  0  0  0  0
 17 10  1  0  0  0  0
 18  1  1  6  0  0  0
 18 20  1  0  0  0  0
 18  4  1  0  0  0  0
 19  5  1  6  0  0  0
 19  6  1  0  0  0  0
 19  3  1  0  0  0  0
 20 11  1  0  0  0  0
 21 23  2  0  0  0  0
 22 24  1  0  0  0  0
 23  4  1  0  0  0  0
 25 14  1  6  0  0  0
 25  9  1  0  0  0  0
 26  1  2  0  0  0  0
 26 21  1  0  0  0  0
 27  9  1  0  0  0  0
 27  1  1  0  0  0  0
 29 28  1  0  0  0  0
 30 34  1  0  0  0  0
 31 32  1  0  0  0  0
 32 29  1  6  0  0  0
 32 34  1  0  0  0  0
 33 31  2  0  0  0  0
 33 30  1  0  0  0  0
M  END
>  <MODEL>
7

>  <REMARK>
 VINA RESULT:      -8.6      3.444      5.492
  Name = 
  3 active torsions:
  status: ('A' for Active; 'I' for Inactive)
    1  A    between atoms: C_17  and  O_28
    2  A    between atoms: O_28  and  C_29
    3  A    between atoms: C_29  and  C_32
                            x       y       z     vdW  Elec       q    Type
                         _______ _______ _______ _____ _____    ______ ____

>  <TORSDO>
F 3

$$$$
=
 OpenBabel11122412113D

 34 41  0  0  1  0  0  0  0  0999 V2000
  188.4080  176.8790  138.3330 C   0  0  0  0  0  0  0  0  0  0  0  0
  187.1110  178.2460  140.1040 C   0  0  0  0  0  3  0  0  0  0  0  0
  193.9230  175.2350  135.9890 C   0  0  1  0  0  3  0  0  0  0  0  0
  189.8460  175.6140  136.8170 C   0  0  0  0  0  0  0  0  0  0  0  0
  192.1590  175.2560  137.5620 C   0  0  0  0  0  0  0  0  0  0  0  0
  194.6530  174.9460  137.9790 N   0  0  0  0  0  2  0  0  0  0  0  0
  195.2590  175.2790  136.6890 C   0  0  0  0  0  2  0  0  0  0  0  0
  192.3510  173.9340  134.5940 C   0  0  0  0  0  3  0  0  0  0  0  0
  189.2860  177.7310  140.4960 C   0  0  0  0  0  0  0  0  0  0  0  0
  190.2110  176.9760  143.3170 C   0  0  0  0  0  3  0  0  0  0  0  0
  191.9720  175.9060  138.7180 C   0  0  0  0  0  3  0  0  0  0  0  0
  191.2340  174.3180  135.2640 C   0  0  0  0  0  3  0  0  0  0  0  0
  190.4910  177.2150  140.2630 C   0  0  0  0  0  0  0  0  0  0  0  0
  187.4090  178.7650  141.2990 C   0  0  0  0  0  3  0  0  0  0  0  0
  191.0580  175.0930  136.5460 C   0  0  0  0  0  0  0  0  0  0  0  0
  193.7090  174.2640  134.9480 N   0  0  0  0  0  2  0  0  0  0  0  0
  188.8530  177.5120  142.9050 C   0  0  2  0  0  3  0  0  0  0  0  0
  189.6190  176.3510  138.0750 C   0  0  0  0  0  0  0  0  0  0  0  0
  193.4450  174.6000  137.2440 C   0  0  2  0  0  3  0  0  0  0  0  0
  190.7020  176.4980  139.0250 N   0  0  0  0  0  0  0  0  0  0  0  0
  187.4710  176.0650  136.2220 C   0  0  0  0  0  3  0  0  0  0  0  0
  191.3520  176.9170  142.6040 C   0  0  0  0  0  3  0  0  0  0  0  0
  188.7450  175.4840  135.9040 N   0  0  0  0  0  2  0  0  0  0  0  0
  191.6010  177.4800  141.2310 C   0  0  0  0  0  2  0  0  0  0  0  0
  188.8380  178.4670  141.7050 C   0  0  1  0  0  3  0  0  0  0  0  0
  187.2950  176.7300  137.3690 C   0  0  0  0  0  3  0  0  0  0  0  0
  188.2390  177.5800  139.5680 N   0  0  0  0  0  0  0  0  0  0  0  0
  188.2380  178.1100  144.0080 O   0  0  0  0  0  0  0  0  0  0  0  0
  188.7510  177.4330  145.1180 C   0  0  0  0  0  2  0  0  0  0  0  0
  186.9380  178.5830  147.7280 O   0  0  0  0  0  0  0  0  0  0  0  0
  186.3850  177.8310  145.7100 C   0  0  0  0  0  3  0  0  0  0  0  0
  187.6290  177.0930  146.0830 C   0  0  2  0  0  3  0  0  0  0  0  0
  186.0430  178.6570  146.6780 C   0  0  0  0  0  3  0  0  0  0  0  0
  187.9650  177.6430  147.4660 C   0  0  0  0  0  2  0  0  0  0  0  0
  1 27  1  0  0  0  0
  2 14  2  0  0  0  0
  3  7  1  1  0  0  0
  3 19  1  0  0  0  0
  4 18  1  0  0  0  0
  5 11  2  0  0  0  0
  7  6  1  0  0  0  0
  8 16  1  0  0  0  0
  8 12  2  0  0  0  0
  9 25  1  0  0  0  0
 11 20  1  0  0  0  0
 12 15  1  0  0  0  0
 13  9  2  0  0  0  0
 13 24  1  0  0  0  0
 15  4  2  0  0  0  0
 15  5  1  0  0  0  0
 16  3  1  0  0  0  0
 17 10  1  0  0  0  0
 17 28  1  1  0  0  0
 18  1  2  0  0  0  0
 18 20  1  0  0  0  0
 19  5  1  1  0  0  0
 19  6  1  0  0  0  0
 20 13  1  0  0  0  0
 21 26  2  0  0  0  0
 22 10  2  0  0  0  0
 23 21  1  0  0  0  0
 23  4  1  0  0  0  0
 24 22  1  0  0  0  0
 25 14  1  6  0  0  0
 25 17  1  0  0  0  0
 26  1  1  0  0  0  0
 27  2  1  0  0  0  0
 27  9  1  0  0  0  0
 28 29  1  0  0  0  0
 31 32  1  0  0  0  0
 31 33  2  0  0  0  0
 32 29  1  6  0  0  0
 32 34  1  0  0  0  0
 33 30  1  0  0  0  0
 34 30  1  0  0  0  0
M  END
>  <MODEL>
8

>  <REMARK>
 VINA RESULT:      -8.4      3.362      9.311
  Name = 
  3 active torsions:
  status: ('A' for Active; 'I' for Inactive)
    1  A    between atoms: C_17  and  O_28
    2  A    between atoms: O_28  and  C_29
    3  A    between atoms: C_29  and  C_32
                            x       y       z     vdW  Elec       q    Type
                         _______ _______ _______ _____ _____    ______ ____

>  <TORSDO>
F 3

$$$$
=
 OpenBabel11122412113D

 34 41  0  0  1  0  0  0  0  0999 V2000
  186.3790  178.3520  145.7120 C   0  0  0  0  0  0  0  0  0  0  0  0
  184.2100  178.8450  144.3920 C   0  0  0  0  0  3  0  0  0  0  0  0
  191.7440  175.2290  145.9960 C   0  0  1  0  0  3  0  0  0  0  0  0
  188.5280  177.7920  146.7300 C   0  0  0  0  0  0  0  0  0  0  0  0
  190.2380  176.8780  145.2220 C   0  0  0  0  0  0  0  0  0  0  0  0
  192.0960  175.6990  143.9390 N   0  0  0  0  0  2  0  0  0  0  0  0
  192.5070  174.6240  144.8440 C   0  0  0  0  0  2  0  0  0  0  0  0
  191.8280  176.6040  148.0490 C   0  0  0  0  0  3  0  0  0  0  0  0
  185.9990  177.9970  143.2820 C   0  0  0  0  0  0  0  0  0  0  0  0
  186.6640  178.9710  140.4540 C   0  0  0  0  0  3  0  0  0  0  0  0
  189.4460  176.9600  144.1450 C   0  0  0  0  0  3  0  0  0  0  0  0
  190.6710  177.2720  147.8050 C   0  0  0  0  0  3  0  0  0  0  0  0
  187.2310  177.5260  143.1100 C   0  0  0  0  0  0  0  0  0  0  0  0
  183.8380  178.7310  143.1140 C   0  0  0  0  0  3  0  0  0  0  0  0
  189.7760  177.3050  146.5910 C   0  0  0  0  0  0  0  0  0  0  0  0
  192.4660  175.6610  147.1650 N   0  0  0  0  0  2  0  0  0  0  0  0
  185.4270  179.2900  141.2710 C   0  0  2  0  0  3  0  0  0  0  0  0
  187.6300  177.8750  145.5620 C   0  0  2  0  0  3  0  0  0  0  0  0
  191.6400  176.4220  145.1170 C   0  0  2  0  0  3  0  0  0  0  0  0
  188.1010  177.4450  144.2630 N   0  0  0  0  0  0  0  0  0  0  0  0
  186.6840  178.7350  148.1110 C   0  0  0  0  0  3  0  0  0  0  0  0
  187.6170  178.0470  140.6830 C   0  0  0  0  0  3  0  0  0  0  0  0
  188.0240  178.2350  148.0000 N   0  0  0  0  0  0  0  0  0  0  0  0
  187.6360  177.0030  141.7670 C   0  0  0  0  0  2  0  0  0  0  0  0
  184.9580  178.2000  142.2430 C   0  0  1  0  0  3  0  0  0  0  0  0
  185.8900  178.7970  147.0360 C   0  0  0  0  0  3  0  0  0  0  0  0
  185.5500  178.4160  144.5480 N   0  0  0  0  0  0  0  0  0  0  0  0
  184.3880  179.6550  140.4120 O   0  0  0  0  0  0  0  0  0  0  0  0
  184.5680  178.8670  139.2720 C   0  0  0  0  0  2  0  0  0  0  0  0
  182.1680  176.5800  139.9290 O   0  0  0  0  0  0  0  0  0  0  0  0
  182.1360  178.7920  139.7000 C   0  0  0  0  0  3  0  0  0  0  0  0
  183.2330  178.3150  138.8050 C   0  0  2  0  0  3  0  0  0  0  0  0
  181.5700  177.7670  140.3060 C   0  0  0  0  0  3  0  0  0  0  0  0
  183.2140  176.8010  138.9990 C   0  0  0  0  0  2  0  0  0  0  0  0
  1 26  2  0  0  0  0
  2 27  1  0  0  0  0
  3  7  1  6  0  0  0
  3 16  1  0  0  0  0
  4 23  1  0  0  0  0
  5 15  1  0  0  0  0
  6  7  1  0  0  0  0
  9 27  1  0  0  0  0
 10 22  2  0  0  0  0
 10 17  1  0  0  0  0
 11 20  1  0  0  0  0
 11  5  2  0  0  0  0
 12  8  2  0  0  0  0
 13  9  2  0  0  0  0
 13 20  1  0  0  0  0
 14  2  2  0  0  0  0
 15  4  2  0  0  0  0
 15 12  1  0  0  0  0
 16  8  1  0  0  0  0
 17 28  1  6  0  0  0
 17 25  1  0  0  0  0
 18  1  1  6  0  0  0
 18  4  1  0  0  0  0
 19  6  1  6  0  0  0
 19  5  1  0  0  0  0
 19  3  1  0  0  0  0
 20 18  1  0  0  0  0
 22 24  1  0  0  0  0
 23 21  2  0  0  0  0
 24 13  1  0  0  0  0
 25 14  1  1  0  0  0
 25  9  1  0  0  0  0
 26 21  1  0  0  0  0
 27  1  1  0  0  0  0
 29 28  1  0  0  0  0
 30 33  1  0  0  0  0
 31 33  2  0  0  0  0
 32 34  1  0  0  0  0
 32 29  1  1  0  0  0
 32 31  1  0  0  0  0
 34 30  1  0  0  0  0
M  END
>  <MODEL>
9

>  <REMARK>
 VINA RESULT:      -8.4      4.137      7.286
  Name = 
  3 active torsions:
  status: ('A' for Active; 'I' for Inactive)
    1  A    between atoms: C_17  and  O_28
    2  A    between atoms: O_28  and  C_29
    3  A    between atoms: C_29  and  C_32
                            x       y       z     vdW  Elec       q    Type
                         _______ _______ _______ _____ _____    ______ ____

>  <TORSDO>
F 3

$$$$
