=
 OpenBabel11122410593D

 31 35  0  0  1  0  0  0  0  0999 V2000
  190.1870  173.4110  135.5670 C   0  0  0  0  0  0  0  0  0  0  0  0
  188.1190  176.4710  136.4840 C   0  0  2  0  0  3  0  0  0  0  0  0
  186.7450  175.9610  136.8740 C   0  0  0  0  0  0  0  0  0  0  0  0
  184.9360  174.2240  136.8760 C   0  0  1  0  0  3  0  0  0  0  0  0
  189.2070  175.4190  136.5200 C   0  0  0  0  0  0  0  0  0  0  0  0
  191.1510  173.3980  136.5760 C   0  0  0  0  0  3  0  0  0  0  0  0
  186.3470  174.6960  136.6330 C   0  0  0  0  0  3  0  0  0  0  0  0
  189.0370  177.3420  138.6730 C   0  0  2  0  0  3  0  0  0  0  0  0
  190.1870  172.4210  134.5940 O   0  0  0  0  0  1  0  0  0  0  0  0
  186.0710  178.2260  136.8920 O   0  0  0  0  0  0  0  0  0  0  0  0
  184.9580  172.5930  137.5830 Cl  0  0  0  0  0  0  0  0  0  0  0  0
  190.3170  176.5290  138.5180 C   0  0  0  0  0  2  0  0  0  0  0  0
  188.4830  177.7430  137.2930 C   0  0  2  0  0  3  0  0  0  0  0  0
  189.2220  174.4200  135.5370 C   0  0  0  0  0  3  0  0  0  0  0  0
  184.1390  175.1710  137.7720 C   0  0  0  0  0  2  0  0  0  0  0  0
  190.1870  175.4060  137.5350 C   0  0  0  0  0  0  0  0  0  0  0  0
  191.1560  174.3980  137.5500 C   0  0  0  0  0  3  0  0  0  0  0  0
  187.2740  178.7030  137.4560 C   0  0  0  0  0  2  0  0  0  0  0  0
  185.8080  176.9800  137.4800 C   0  0  1  0  0  3  0  0  0  0  0  0
  184.3400  176.6060  137.3020 C   0  0  0  0  0  2  0  0  0  0  0  0
  189.3340  178.5130  139.4940 N   0  0  0  0  0  2  0  0  0  0  0  0
  187.2240  178.3690  140.7040 C   0  0  0  0  0  1  0  0  0  0  0  0
  188.7430  178.3140  140.8130 C   0  0  1  0  0  3  0  0  0  0  0  0
  189.2970  177.1590  144.3650 C   0  0  1  0  0  3  0  0  0  0  0  0
  188.2090  176.4380  142.3180 O   0  0  0  0  0  0  0  0  0  0  0  0
  191.7080  177.8330  141.3540 O   0  0  0  0  0  0  0  0  0  0  0  0
  189.0220  177.9140  145.6470 C   0  0  0  0  0  1  0  0  0  0  0  0
  188.1040  177.3110  143.4230 C   0  0  0  0  0  2  0  0  0  0  0  0
  190.8250  176.8810  142.1470 S   0  0  2  0  0  0  0  0  0  0  0  0
  189.1620  176.9500  141.4030 C   0  0  2  0  0  3  0  0  0  0  0  0
  190.5490  177.7240  143.7130 C   0  0  0  0  0  2  0  0  0  0  0  0
  1  6  1  0  0  0  0
  2  5  1  1  0  0  0
  2  3  1  0  0  0  0
  2 13  1  0  0  0  0
  3 19  1  0  0  0  0
  4 11  1  1  0  0  0
  4 15  1  0  0  0  0
  5 16  2  0  0  0  0
  6 17  2  0  0  0  0
  7  3  2  0  0  0  0
  7  4  1  0  0  0  0
  8 21  1  1  0  0  0
  9  1  1  0  0  0  0
 10 18  1  0  0  0  0
 10 19  1  0  0  0  0
 12  8  1  0  0  0  0
 13 18  1  1  0  0  0
 13  8  1  0  0  0  0
 14  1  2  0  0  0  0
 14  5  1  0  0  0  0
 16 17  1  0  0  0  0
 16 12  1  0  0  0  0
 19 20  1  6  0  0  0
 20 15  1  0  0  0  0
 21 23  1  0  0  0  0
 23 22  1  6  0  0  0
 24 27  1  1  0  0  0
 25 28  1  0  0  0  0
 28 24  1  0  0  0  0
 29 26  2  6  0  0  0
 29 31  1  0  0  0  0
 30 23  1  1  0  0  0
 30 29  1  0  0  0  0
 30 25  1  0  0  0  0
 31 24  1  0  0  0  0
M  END
>  <MODEL>
1

>  <REMARK>
 VINA RESULT:      -6.8      0.000      0.000
  Name = 
  3 active torsions:
  status: ('A' for Active; 'I' for Inactive)
    1  A    between atoms: C_5  and  N_16
    2  A    between atoms: C_5  and  C_30
    3  A    between atoms: C_10  and  N_16
                            x       y       z     vdW  Elec       q    Type
                         _______ _______ _______ _____ _____    ______ ____

>  <TORSDO>
F 3

$$$$
=
 OpenBabel11122410593D

 31 35  0  0  1  0  0  0  0  0999 V2000
  183.4750  178.8050  142.4950 C   0  0  0  0  0  0  0  0  0  0  0  0
  182.8580  177.5570  138.9530 C   0  0  2  0  0  3  0  0  0  0  0  0
  181.8680  178.5180  138.3250 C   0  0  0  0  0  0  0  0  0  0  0  0
  180.0880  180.2810  138.4570 C   0  0  1  0  0  3  0  0  0  0  0  0
  183.5710  178.1060  140.1700 C   0  0  0  0  0  0  0  0  0  0  0  0
  184.8160  179.1880  142.4390 C   0  0  0  0  0  3  0  0  0  0  0  0
  181.1830  179.4280  139.0460 C   0  0  0  0  0  3  0  0  0  0  0  0
  184.9760  177.9960  137.6450 C   0  0  2  0  0  3  0  0  0  0  0  0
  182.7560  178.9650  143.6720 O   0  0  0  0  0  1  0  0  0  0  0  0
  181.7380  176.9820  136.5330 O   0  0  0  0  0  0  0  0  0  0  0  0
  180.2060  181.9370  139.0930 Cl  0  0  0  0  0  0  0  0  0  0  0  0
  185.7820  178.2010  138.9220 C   0  0  0  0  0  2  0  0  0  0  0  0
  183.8320  176.9950  137.8860 C   0  0  2  0  0  3  0  0  0  0  0  0
  182.8570  178.2630  141.3660 C   0  0  0  0  0  3  0  0  0  0  0  0
  180.1100  180.3030  136.9300 C   0  0  0  0  0  2  0  0  0  0  0  0
  184.9280  178.4880  140.1200 C   0  0  0  0  0  0  0  0  0  0  0  0
  185.5420  179.0200  141.2570 C   0  0  0  0  0  3  0  0  0  0  0  0
  183.1130  176.6650  136.5490 C   0  0  0  0  0  2  0  0  0  0  0  0
  181.6270  178.3450  136.8420 C   0  0  1  0  0  3  0  0  0  0  0  0
  180.2700  178.8840  136.4010 C   0  0  0  0  0  2  0  0  0  0  0  0
  185.8840  177.5340  136.5990 N   0  0  0  0  0  2  0  0  0  0  0  0
  186.5730  175.2290  136.9820 C   0  0  0  0  0  1  0  0  0  0  0  0
  186.9090  176.6970  137.2130 C   0  0  1  0  0  3  0  0  0  0  0  0
  190.2830  177.2560  138.8120 C   0  0  1  0  0  3  0  0  0  0  0  0
  189.2700  176.0350  136.9750 O   0  0  0  0  0  0  0  0  0  0  0  0
  187.7610  179.6180  136.9720 O   0  0  0  0  0  0  0  0  0  0  0  0
  190.6660  177.0990  140.2680 C   0  0  0  0  0  1  0  0  0  0  0  0
  189.4510  176.0520  138.3750 C   0  0  0  0  0  2  0  0  0  0  0  0
  188.9530  178.6740  136.9280 S   0  0  2  0  0  0  0  0  0  0  0  0
  188.3000  177.0020  136.6140 C   0  0  2  0  0  3  0  0  0  0  0  0
  189.4770  178.5340  138.6440 C   0  0  0  0  0  2  0  0  0  0  0  0
  1  9  1  0  0  0  0
  2  3  1  6  0  0  0
  2  5  1  0  0  0  0
  3  7  2  0  0  0  0
  4  7  1  0  0  0  0
  4 11  1  1  0  0  0
  5 14  1  0  0  0  0
  6  1  1  0  0  0  0
  8 21  1  6  0  0  0
  8 13  1  0  0  0  0
  8 12  1  0  0  0  0
 10 18  1  0  0  0  0
 10 19  1  0  0  0  0
 12 16  1  0  0  0  0
 13 18  1  6  0  0  0
 13  2  1  0  0  0  0
 14  1  2  0  0  0  0
 15  4  1  0  0  0  0
 16  5  2  0  0  0  0
 16 17  1  0  0  0  0
 17  6  2  0  0  0  0
 19 20  1  1  0  0  0
 19  3  1  0  0  0  0
 20 15  1  0  0  0  0
 21 23  1  0  0  0  0
 23 22  1  6  0  0  0
 24 27  1  1  0  0  0
 25 28  1  0  0  0  0
 28 24  1  0  0  0  0
 29 26  2  1  0  0  0
 29 31  1  0  0  0  0
 30 29  1  0  0  0  0
 30 25  1  0  0  0  0
 30 23  1  1  0  0  0
 31 24  1  0  0  0  0
M  END
>  <MODEL>
2

>  <REMARK>
 VINA RESULT:      -6.6      3.869      6.868
  Name = 
  3 active torsions:
  status: ('A' for Active; 'I' for Inactive)
    1  A    between atoms: C_5  and  N_16
    2  A    between atoms: C_5  and  C_30
    3  A    between atoms: C_10  and  N_16
                            x       y       z     vdW  Elec       q    Type
                         _______ _______ _______ _____ _____    ______ ____

>  <TORSDO>
F 3

$$$$
=
 OpenBabel11122410593D

 31 35  0  0  1  0  0  0  0  0999 V2000
  190.1810  175.8170  143.0300 C   0  0  0  0  0  0  0  0  0  0  0  0
  186.6580  177.0880  143.7040 C   0  0  2  0  0  3  0  0  0  0  0  0
  186.6950  177.7590  145.0640 C   0  0  0  0  0  0  0  0  0  0  0  0
  187.7170  178.1590  147.3190 C   0  0  1  0  0  3  0  0  0  0  0  0
  188.0160  176.9190  143.0570 C   0  0  0  0  0  0  0  0  0  0  0  0
  190.5750  176.6080  141.9500 C   0  0  0  0  0  3  0  0  0  0  0  0
  187.7360  177.6250  145.9100 C   0  0  0  0  0  3  0  0  0  0  0  0
  186.2700  179.0290  142.1310 C   0  0  2  0  0  3  0  0  0  0  0  0
  191.0580  174.8810  143.5610 O   0  0  0  0  0  1  0  0  0  0  0  0
  184.3400  177.8780  144.9060 O   0  0  0  0  0  0  0  0  0  0  0  0
  189.2960  178.8720  147.7170 Cl  0  0  0  0  0  0  0  0  0  0  0  0
  187.4570  178.6290  141.2630 C   0  0  0  0  0  2  0  0  0  0  0  0
  185.6310  177.7850  142.7750 C   0  0  2  0  0  3  0  0  0  0  0  0
  188.9060  175.9690  143.5790 C   0  0  0  0  0  3  0  0  0  0  0  0
  186.6070  179.1830  147.5510 C   0  0  0  0  0  2  0  0  0  0  0  0
  188.4150  177.7110  141.9610 C   0  0  0  0  0  0  0  0  0  0  0  0
  189.6900  177.5450  141.4110 C   0  0  0  0  0  3  0  0  0  0  0  0
  184.3280  178.1760  143.5260 C   0  0  0  0  0  2  0  0  0  0  0  0
  185.4540  178.5270  145.4570 C   0  0  1  0  0  3  0  0  0  0  0  0
  185.3000  178.6590  146.9680 C   0  0  0  0  0  2  0  0  0  0  0  0
  185.3150  179.7530  141.2960 N   0  0  0  0  0  2  0  0  0  0  0  0
  183.2010  178.6280  140.8450 C   0  0  0  0  0  1  0  0  0  0  0  0
  184.6530  178.7960  140.4150 C   0  0  1  0  0  3  0  0  0  0  0  0
  183.2060  177.3590  137.2380 C   0  0  1  0  0  3  0  0  0  0  0  0
  183.4040  179.4790  138.4040 O   0  0  0  0  0  0  0  0  0  0  0  0
  186.8570  177.7030  138.6080 O   0  0  0  0  0  0  0  0  0  0  0  0
  182.2750  176.1760  137.0860 C   0  0  0  0  0  1  0  0  0  0  0  0
  182.7110  178.2480  138.3760 C   0  0  0  0  0  2  0  0  0  0  0  0
  185.6930  178.2650  137.8060 S   0  0  2  0  0  0  0  0  0  0  0  0
  184.6970  179.2780  138.9480 C   0  0  2  0  0  3  0  0  0  0  0  0
  184.6070  176.8540  137.5440 C   0  0  0  0  0  2  0  0  0  0  0  0
  1  9  1  0  0  0  0
  1 14  1  0  0  0  0
  2  5  1  6  0  0  0
  2  3  1  0  0  0  0
  3 19  1  0  0  0  0
  3  7  2  0  0  0  0
  4 15  1  0  0  0  0
  4 11  1  6  0  0  0
  5 14  2  0  0  0  0
  6  1  2  0  0  0  0
  7  4  1  0  0  0  0
  8 21  1  6  0  0  0
  8 13  1  0  0  0  0
 10 19  1  0  0  0  0
 12 16  1  0  0  0  0
 12  8  1  0  0  0  0
 13 18  1  1  0  0  0
 13  2  1  0  0  0  0
 16  5  1  0  0  0  0
 17  6  1  0  0  0  0
 17 16  2  0  0  0  0
 18 10  1  0  0  0  0
 19 20  1  1  0  0  0
 20 15  1  0  0  0  0
 23 22  1  1  0  0  0
 23 21  1  0  0  0  0
 24 27  1  1  0  0  0
 24 31  1  0  0  0  0
 24 28  1  0  0  0  0
 25 30  1  0  0  0  0
 28 25  1  0  0  0  0
 29 26  2  1  0  0  0
 29 30  1  0  0  0  0
 30 23  1  1  0  0  0
 31 29  1  0  0  0  0
M  END
>  <MODEL>
3

>  <REMARK>
 VINA RESULT:      -6.6      4.380      7.826
  Name = 
  3 active torsions:
  status: ('A' for Active; 'I' for Inactive)
    1  A    between atoms: C_5  and  N_16
    2  A    between atoms: C_5  and  C_30
    3  A    between atoms: C_10  and  N_16
                            x       y       z     vdW  Elec       q    Type
                         _______ _______ _______ _____ _____    ______ ____

>  <TORSDO>
F 3

$$$$
=
 OpenBabel11122410593D

 31 35  0  0  1  0  0  0  0  0999 V2000
  192.7930  176.0010  136.0130 C   0  0  0  0  0  0  0  0  0  0  0  0
  189.3590  177.0580  137.2660 C   0  0  2  0  0  3  0  0  0  0  0  0
  188.4240  175.8960  136.9910 C   0  0  0  0  0  0  0  0  0  0  0  0
  187.7950  173.7820  135.7980 C   0  0  1  0  0  3  0  0  0  0  0  0
  190.8260  176.6900  137.2630 C   0  0  0  0  0  0  0  0  0  0  0  0
  193.5250  175.9270  137.1990 C   0  0  0  0  0  3  0  0  0  0  0  0
  188.7670  174.8610  136.1990 C   0  0  0  0  0  3  0  0  0  0  0  0
  189.4830  177.0950  139.7900 C   0  0  2  0  0  3  0  0  0  0  0  0
  193.3980  175.6920  134.8020 O   0  0  0  0  0  1  0  0  0  0  0  0
  186.6680  177.3540  137.6080 O   0  0  0  0  0  0  0  0  0  0  0  0
  188.6000  172.1970  135.8390 Cl  0  0  0  0  0  0  0  0  0  0  0  0
  191.0060  177.0830  139.7660 C   0  0  0  0  0  2  0  0  0  0  0  0
  188.9300  177.8170  138.5480 C   0  0  2  0  0  3  0  0  0  0  0  0
  191.4500  176.3850  136.0440 C   0  0  0  0  0  3  0  0  0  0  0  0
  186.5430  173.7560  136.6730 C   0  0  0  0  0  2  0  0  0  0  0  0
  191.5720  176.6200  138.4580 C   0  0  0  0  0  0  0  0  0  0  0  0
  192.9180  176.2450  138.4150 C   0  0  0  0  0  3  0  0  0  0  0  0
  187.3880  177.9700  138.6540 C   0  0  0  0  0  2  0  0  0  0  0  0
  187.0410  176.0020  137.5940 C   0  0  1  0  0  3  0  0  0  0  0  0
  186.0080  175.1720  136.8400 C   0  0  0  0  0  2  0  0  0  0  0  0
  189.0490  177.7420  141.0260 N   0  0  0  0  0  2  0  0  0  0  0  0
  190.1950  178.7700  142.9140 C   0  0  0  0  0  1  0  0  0  0  0  0
  190.0700  177.5240  142.0440 C   0  0  1  0  0  3  0  0  0  0  0  0
  187.7640  177.1700  145.0130 C   0  0  1  0  0  3  0  0  0  0  0  0
  188.3210  176.0380  142.9390 O   0  0  0  0  0  0  0  0  0  0  0  0
  191.6590  177.1130  144.6180 O   0  0  0  0  0  0  0  0  0  0  0  0
  186.8060  178.1940  145.5800 C   0  0  0  0  0  1  0  0  0  0  0  0
  187.6250  177.1350  143.4920 C   0  0  0  0  0  2  0  0  0  0  0  0
  190.3270  176.3780  144.6500 S   0  0  2  0  0  0  0  0  0  0  0  0
  189.7100  176.3150  142.9350 C   0  0  2  0  0  3  0  0  0  0  0  0
  189.1850  177.5510  145.3960 C   0  0  0  0  0  2  0  0  0  0  0  0
  1 14  2  0  0  0  0
  1  6  1  0  0  0  0
  2  3  1  1  0  0  0
  2 13  1  0  0  0  0
  3 19  1  0  0  0  0
  4 11  1  1  0  0  0
  4  7  1  0  0  0  0
  4 15  1  0  0  0  0
  5  2  1  0  0  0  0
  5 16  2  0  0  0  0
  6 17  2  0  0  0  0
  7  3  2  0  0  0  0
  8 21  1  1  0  0  0
  9  1  1  0  0  0  0
 10 18  1  0  0  0  0
 12  8  1  0  0  0  0
 13 18  1  1  0  0  0
 13  8  1  0  0  0  0
 14  5  1  0  0  0  0
 15 20  1  0  0  0  0
 16 12  1  0  0  0  0
 17 16  1  0  0  0  0
 19 20  1  6  0  0  0
 19 10  1  0  0  0  0
 21 23  1  0  0  0  0
 23 22  1  1  0  0  0
 24 31  1  0  0  0  0
 24 27  1  1  0  0  0
 25 28  1  0  0  0  0
 28 24  1  0  0  0  0
 29 26  2  6  0  0  0
 29 31  1  0  0  0  0
 30 23  1  1  0  0  0
 30 25  1  0  0  0  0
 30 29  1  0  0  0  0
M  END
>  <MODEL>
4

>  <REMARK>
 VINA RESULT:      -6.5      1.958      2.481
  Name = 
  3 active torsions:
  status: ('A' for Active; 'I' for Inactive)
    1  A    between atoms: C_5  and  N_16
    2  A    between atoms: C_5  and  C_30
    3  A    between atoms: C_10  and  N_16
                            x       y       z     vdW  Elec       q    Type
                         _______ _______ _______ _____ _____    ______ ____

>  <TORSDO>
F 3

$$$$
=
 OpenBabel11122410593D

 31 35  0  0  1  0  0  0  0  0999 V2000
  190.7250  176.7330  145.9300 C   0  0  0  0  0  0  0  0  0  0  0  0
  187.6420  177.1880  143.7470 C   0  0  2  0  0  3  0  0  0  0  0  0
  186.6290  177.9450  144.5850 C   0  0  0  0  0  0  0  0  0  0  0  0
  185.7020  178.7350  146.7780 C   0  0  1  0  0  3  0  0  0  0  0  0
  189.0660  177.2950  144.2460 C   0  0  0  0  0  0  0  0  0  0  0  0
  191.6710  177.5150  145.2650 C   0  0  0  0  0  3  0  0  0  0  0  0
  186.7730  178.1200  145.9130 C   0  0  0  0  0  3  0  0  0  0  0  0
  188.2560  178.8650  141.9580 C   0  0  2  0  0  3  0  0  0  0  0  0
  191.0710  176.0690  147.0990 O   0  0  0  0  0  1  0  0  0  0  0  0
  185.0820  177.4970  142.8550 O   0  0  0  0  0  0  0  0  0  0  0  0
  186.4410  179.8250  147.9720 Cl  0  0  0  0  0  0  0  0  0  0  0  0
  189.7440  178.6930  142.2360 C   0  0  0  0  0  2  0  0  0  0  0  0
  187.4990  177.5560  142.2480 C   0  0  2  0  0  3  0  0  0  0  0  0
  189.4290  176.6210  145.4210 C   0  0  0  0  0  3  0  0  0  0  0  0
  184.6440  179.4840  145.9690 C   0  0  0  0  0  2  0  0  0  0  0  0
  190.0270  178.0790  143.5730 C   0  0  0  0  0  0  0  0  0  0  0  0
  191.3240  178.1770  144.0850 C   0  0  0  0  0  3  0  0  0  0  0  0
  186.0140  177.6840  141.8110 C   0  0  0  0  0  2  0  0  0  0  0  0
  185.3950  178.4270  143.8560 C   0  0  1  0  0  3  0  0  0  0  0  0
  184.2050  178.6280  144.7880 C   0  0  0  0  0  2  0  0  0  0  0  0
  188.0950  179.2830  140.5680 N   0  0  0  0  0  2  0  0  0  0  0  0
  187.1520  178.0020  138.7220 C   0  0  0  0  0  1  0  0  0  0  0  0
  188.3070  178.1230  139.7090 C   0  0  1  0  0  3  0  0  0  0  0  0
  189.5720  176.4320  136.5790 C   0  0  1  0  0  3  0  0  0  0  0  0
  189.4330  178.6400  137.5790 O   0  0  0  0  0  0  0  0  0  0  0  0
  190.5550  176.1640  140.3590 O   0  0  0  0  0  0  0  0  0  0  0  0
  188.8200  175.5070  135.6470 C   0  0  0  0  0  1  0  0  0  0  0  0
  188.6960  177.6390  136.9080 C   0  0  0  0  0  2  0  0  0  0  0  0
  190.7400  176.8060  138.9920 S   0  0  2  0  0  0  0  0  0  0  0  0
  189.6330  178.2530  138.9270 C   0  0  2  0  0  3  0  0  0  0  0  0
  189.9210  175.6800  137.8530 C   0  0  0  0  0  2  0  0  0  0  0  0
  1  9  1  0  0  0  0
  2  5  1  1  0  0  0
  2  3  1  0  0  0  0
  3  7  2  0  0  0  0
  4 11  1  1  0  0  0
  5 14  2  0  0  0  0
  6  1  2  0  0  0  0
  7  4  1  0  0  0  0
  8 21  1  6  0  0  0
  8 12  1  0  0  0  0
  8 13  1  0  0  0  0
 10 19  1  0  0  0  0
 12 16  1  0  0  0  0
 13 18  1  1  0  0  0
 13  2  1  0  0  0  0
 14  1  1  0  0  0  0
 15  4  1  0  0  0  0
 16 17  2  0  0  0  0
 16  5  1  0  0  0  0
 17  6  1  0  0  0  0
 18 10  1  0  0  0  0
 19  3  1  0  0  0  0
 19 20  1  1  0  0  0
 20 15  1  0  0  0  0
 23 22  1  6  0  0  0
 23 21  1  0  0  0  0
 24 27  1  6  0  0  0
 24 28  1  0  0  0  0
 24 31  1  0  0  0  0
 25 30  1  0  0  0  0
 28 25  1  0  0  0  0
 29 26  2  1  0  0  0
 30 29  1  0  0  0  0
 30 23  1  6  0  0  0
 31 29  1  0  0  0  0
M  END
>  <MODEL>
5

>  <REMARK>
 VINA RESULT:      -6.4      3.376      7.535
  Name = 
  3 active torsions:
  status: ('A' for Active; 'I' for Inactive)
    1  A    between atoms: C_5  and  N_16
    2  A    between atoms: C_5  and  C_30
    3  A    between atoms: C_10  and  N_16
                            x       y       z     vdW  Elec       q    Type
                         _______ _______ _______ _____ _____    ______ ____

>  <TORSDO>
F 3

$$$$
=
 OpenBabel11122410593D

 31 35  0  0  1  0  0  0  0  0999 V2000
  184.3340  179.1960  142.8280 C   0  0  0  0  0  0  0  0  0  0  0  0
  186.2770  178.9170  139.5680 C   0  0  2  0  0  3  0  0  0  0  0  0
  187.5740  178.2040  139.9000 C   0  0  0  0  0  0  0  0  0  0  0  0
  189.3450  177.4400  141.5030 C   0  0  1  0  0  3  0  0  0  0  0  0
  185.1860  178.7340  140.6000 C   0  0  0  0  0  0  0  0  0  0  0  0
  183.2330  178.3740  142.5820 C   0  0  0  0  0  3  0  0  0  0  0  0
  187.9910  178.0090  141.1670 C   0  0  0  0  0  3  0  0  0  0  0  0
  185.0590  177.2300  138.1340 C   0  0  2  0  0  3  0  0  0  0  0  0
  184.4660  179.8300  144.0560 O   0  0  0  0  0  1  0  0  0  0  0  0
  188.2630  178.7460  137.7040 O   0  0  0  0  0  0  0  0  0  0  0  0
  189.2030  176.3020  142.8610 Cl  0  0  0  0  0  0  0  0  0  0  0  0
  183.8070  177.3250  138.9980 C   0  0  0  0  0  2  0  0  0  0  0  0
  185.8120  178.5720  138.1300 C   0  0  2  0  0  3  0  0  0  0  0  0
  185.3040  179.3780  141.8400 C   0  0  0  0  0  3  0  0  0  0  0  0
  190.0130  176.7530  140.3120 C   0  0  0  0  0  2  0  0  0  0  0  0
  184.0670  177.9110  140.3530 C   0  0  0  0  0  0  0  0  0  0  0  0
  183.0960  177.7430  141.3440 C   0  0  0  0  0  3  0  0  0  0  0  0
  186.9950  178.5240  137.1250 C   0  0  0  0  0  2  0  0  0  0  0  0
  188.4230  177.7920  138.7190 C   0  0  1  0  0  3  0  0  0  0  0  0
  189.8970  177.6410  139.0810 C   0  0  0  0  0  2  0  0  0  0  0  0
  184.6570  176.8340  136.7870 N   0  0  0  0  0  2  0  0  0  0  0  0
  186.4630  175.2000  136.8370 C   0  0  0  0  0  1  0  0  0  0  0  0
  184.9730  175.4220  136.6070 C   0  0  1  0  0  3  0  0  0  0  0  0
  183.7830  171.8430  136.4240 C   0  0  1  0  0  3  0  0  0  0  0  0
  184.8660  173.3720  137.9680 O   0  0  0  0  0  0  0  0  0  0  0  0
  181.9410  175.2960  136.2760 O   0  0  0  0  0  0  0  0  0  0  0  0
  184.1000  170.8040  135.3710 C   0  0  0  0  0  1  0  0  0  0  0  0
  185.0670  172.5640  136.8280 C   0  0  0  0  0  2  0  0  0  0  0  0
  182.4740  174.1200  137.0820 S   0  0  2  0  0  0  0  0  0  0  0  0
  184.1700  174.5480  137.5950 C   0  0  2  0  0  3  0  0  0  0  0  0
  182.7850  172.8400  135.8560 C   0  0  0  0  0  2  0  0  0  0  0  0
  1  9  1  0  0  0  0
  2  3  1  1  0  0  0
  2  5  1  0  0  0  0
  3  7  2  0  0  0  0
  4 11  1  1  0  0  0
  5 14  1  0  0  0  0
  6  1  1  0  0  0  0
  7  4  1  0  0  0  0
  8 21  1  6  0  0  0
  8 12  1  0  0  0  0
 10 19  1  0  0  0  0
 12 16  1  0  0  0  0
 13 18  1  6  0  0  0
 13  8  1  0  0  0  0
 13  2  1  0  0  0  0
 14  1  2  0  0  0  0
 15  4  1  0  0  0  0
 16  5  2  0  0  0  0
 16 17  1  0  0  0  0
 17  6  2  0  0  0  0
 18 10  1  0  0  0  0
 19 20  1  1  0  0  0
 19  3  1  0  0  0  0
 20 15  1  0  0  0  0
 23 21  1  0  0  0  0
 23 22  1  1  0  0  0
 24 27  1  6  0  0  0
 24 28  1  0  0  0  0
 28 25  1  0  0  0  0
 29 26  2  6  0  0  0
 29 30  1  0  0  0  0
 30 23  1  6  0  0  0
 30 25  1  0  0  0  0
 31 24  1  0  0  0  0
 31 29  1  0  0  0  0
M  END
>  <MODEL>
6

>  <REMARK>
 VINA RESULT:      -6.4      3.728      7.958
  Name = 
  3 active torsions:
  status: ('A' for Active; 'I' for Inactive)
    1  A    between atoms: C_5  and  N_16
    2  A    between atoms: C_5  and  C_30
    3  A    between atoms: C_10  and  N_16
                            x       y       z     vdW  Elec       q    Type
                         _______ _______ _______ _____ _____    ______ ____

>  <TORSDO>
F 3

$$$$
=
 OpenBabel11122410593D

 31 35  0  0  1  0  0  0  0  0999 V2000
  184.7390  179.4320  144.6750 C   0  0  0  0  0  0  0  0  0  0  0  0
  185.6930  179.2240  140.9970 C   0  0  2  0  0  3  0  0  0  0  0  0
  186.9300  178.3500  140.9220 C   0  0  0  0  0  0  0  0  0  0  0  0
  188.9520  177.2660  141.9350 C   0  0  1  0  0  3  0  0  0  0  0  0
  184.9010  179.0720  142.2770 C   0  0  0  0  0  0  0  0  0  0  0  0
  183.5170  178.7580  144.6970 C   0  0  0  0  0  3  0  0  0  0  0  0
  187.6400  178.0040  142.0130 C   0  0  0  0  0  3  0  0  0  0  0  0
  183.9330  177.8050  139.8660 C   0  0  2  0  0  3  0  0  0  0  0  0
  185.2720  179.9420  145.8510 O   0  0  0  0  0  1  0  0  0  0  0  0
  187.0720  178.9990  138.6530 O   0  0  0  0  0  0  0  0  0  0  0  0
  189.0340  176.0390  143.2190 Cl  0  0  0  0  0  0  0  0  0  0  0  0
  182.9780  177.9600  141.0440 C   0  0  0  0  0  2  0  0  0  0  0  0
  184.8220  179.0540  139.7250 C   0  0  2  0  0  3  0  0  0  0  0  0
  185.4260  179.5920  143.4690 C   0  0  0  0  0  3  0  0  0  0  0  0
  189.1860  176.6150  140.5730 C   0  0  0  0  0  2  0  0  0  0  0  0
  183.6620  178.3980  142.3030 C   0  0  0  0  0  0  0  0  0  0  0  0
  182.9770  178.2520  143.5130 C   0  0  0  0  0  3  0  0  0  0  0  0
  185.6780  178.9640  138.4330 C   0  0  0  0  0  2  0  0  0  0  0  0
  187.3750  177.9500  139.5330 C   0  0  1  0  0  3  0  0  0  0  0  0
  188.8600  177.6120  139.4680 C   0  0  0  0  0  2  0  0  0  0  0  0
  183.1400  177.5710  138.6620 N   0  0  0  0  0  2  0  0  0  0  0  0
  181.7000  175.6320  138.9870 C   0  0  0  0  0  1  0  0  0  0  0  0
  183.0360  176.1310  138.4500 C   0  0  1  0  0  3  0  0  0  0  0  0
  183.4360  172.8460  136.6320 C   0  0  1  0  0  3  0  0  0  0  0  0
  182.1300  174.8900  136.5250 O   0  0  0  0  0  0  0  0  0  0  0  0
  185.8200  175.8950  137.2210 O   0  0  0  0  0  0  0  0  0  0  0  0
  183.3980  171.4470  137.2070 C   0  0  0  0  0  1  0  0  0  0  0  0
  182.2780  173.6610  137.2040 C   0  0  0  0  0  2  0  0  0  0  0  0
  184.7670  175.1900  136.3800 S   0  0  2  0  0  0  0  0  0  0  0  0
  183.1410  175.7870  136.9480 C   0  0  2  0  0  3  0  0  0  0  0  0
  184.7600  173.4990  136.9940 C   0  0  0  0  0  2  0  0  0  0  0  0
  1  6  1  0  0  0  0
  1  9  1  0  0  0  0
  2  3  1  1  0  0  0
  2  5  1  0  0  0  0
  3  7  2  0  0  0  0
  4  7  1  0  0  0  0
  4 11  1  1  0  0  0
  5 16  2  0  0  0  0
  5 14  1  0  0  0  0
  8 21  1  6  0  0  0
  8 12  1  0  0  0  0
 10 19  1  0  0  0  0
 12 16  1  0  0  0  0
 13 18  1  6  0  0  0
 13  8  1  0  0  0  0
 13  2  1  0  0  0  0
 14  1  2  0  0  0  0
 15  4  1  0  0  0  0
 16 17  1  0  0  0  0
 17  6  2  0  0  0  0
 18 10  1  0  0  0  0
 19 20  1  1  0  0  0
 19  3  1  0  0  0  0
 20 15  1  0  0  0  0
 23 21  1  0  0  0  0
 23 22  1  6  0  0  0
 24 31  1  0  0  0  0
 24 28  1  0  0  0  0
 24 27  1  1  0  0  0
 25 30  1  0  0  0  0
 25 28  1  0  0  0  0
 29 30  1  0  0  0  0
 29 31  1  0  0  0  0
 29 26  2  1  0  0  0
 30 23  1  1  0  0  0
M  END
>  <MODEL>
7

>  <REMARK>
 VINA RESULT:      -6.1      3.908      8.210
  Name = 
  3 active torsions:
  status: ('A' for Active; 'I' for Inactive)
    1  A    between atoms: C_5  and  N_16
    2  A    between atoms: C_5  and  C_30
    3  A    between atoms: C_10  and  N_16
                            x       y       z     vdW  Elec       q    Type
                         _______ _______ _______ _____ _____    ______ ____

>  <TORSDO>
F 3

$$$$
=
 OpenBabel11122410593D

 31 35  0  0  1  0  0  0  0  0999 V2000
  181.6220  178.6660  140.9380 C   0  0  0  0  0  0  0  0  0  0  0  0
  184.6770  178.4390  138.6800 C   0  0  2  0  0  3  0  0  0  0  0  0
  185.8830  178.3430  139.5950 C   0  0  0  0  0  0  0  0  0  0  0  0
  187.0260  178.6470  141.8070 C   0  0  1  0  0  3  0  0  0  0  0  0
  183.3630  178.0890  139.3440 C   0  0  0  0  0  0  0  0  0  0  0  0
  180.9680  177.4630  140.6640 C   0  0  0  0  0  3  0  0  0  0  0  0
  185.8100  178.5900  140.9180 C   0  0  0  0  0  3  0  0  0  0  0  0
  184.6140  176.1580  137.5940 C   0  0  2  0  0  3  0  0  0  0  0  0
  181.0910  179.5490  141.8680 O   0  0  0  0  0  1  0  0  0  0  0  0
  187.1970  178.6220  137.6500 O   0  0  0  0  0  0  0  0  0  0  0  0
  186.6780  177.8540  143.3590 Cl  0  0  0  0  0  0  0  0  0  0  0  0
  183.1490  175.9640  137.9680 C   0  0  0  0  0  2  0  0  0  0  0  0
  184.9190  177.6490  137.3680 C   0  0  2  0  0  3  0  0  0  0  0  0
  182.8130  178.9790  140.2780 C   0  0  0  0  0  3  0  0  0  0  0  0
  188.2610  178.0190  141.1640 C   0  0  0  0  0  2  0  0  0  0  0  0
  182.6950  176.8780  139.0650 C   0  0  0  0  0  0  0  0  0  0  0  0
  181.4990  176.5780  139.7230 C   0  0  0  0  0  3  0  0  0  0  0  0
  186.3650  177.8290  136.8310 C   0  0  0  0  0  2  0  0  0  0  0  0
  187.2010  178.0330  138.9230 C   0  0  1  0  0  3  0  0  0  0  0  0
  188.4000  178.5180  139.7320 C   0  0  0  0  0  2  0  0  0  0  0  0
  184.8900  175.3650  136.3980 N   0  0  0  0  0  2  0  0  0  0  0  0
  183.2560  175.9230  134.6790 C   0  0  0  0  0  1  0  0  0  0  0  0
  183.6180  174.9630  135.8060 C   0  0  1  0  0  3  0  0  0  0  0  0
  181.5330  171.8790  136.4350 C   0  0  1  0  0  3  0  0  0  0  0  0
  182.5080  173.1280  134.5950 O   0  0  0  0  0  0  0  0  0  0  0  0
  185.1910  172.8880  137.3990 O   0  0  0  0  0  0  0  0  0  0  0  0
  180.2560  171.7610  137.2380 C   0  0  0  0  0  1  0  0  0  0  0  0
  181.4500  173.1060  135.5300 C   0  0  0  0  0  2  0  0  0  0  0  0
  184.2160  172.2390  136.4280 S   0  0  2  0  0  0  0  0  0  0  0  0
  183.7020  173.5270  135.2450 C   0  0  2  0  0  3  0  0  0  0  0  0
  182.7100  172.0150  137.3870 C   0  0  0  0  0  2  0  0  0  0  0  0
  1  9  1  0  0  0  0
  2  5  1  1  0  0  0
  2  3  1  0  0  0  0
  3  7  2  0  0  0  0
  4 11  1  1  0  0  0
  5 14  1  0  0  0  0
  6  1  1  0  0  0  0
  7  4  1  0  0  0  0
  8 21  1  6  0  0  0
  8 12  1  0  0  0  0
 10 19  1  0  0  0  0
 12 16  1  0  0  0  0
 13 18  1  1  0  0  0
 13  8  1  0  0  0  0
 13  2  1  0  0  0  0
 14  1  2  0  0  0  0
 15  4  1  0  0  0  0
 16  5  2  0  0  0  0
 16 17  1  0  0  0  0
 17  6  2  0  0  0  0
 18 10  1  0  0  0  0
 19  3  1  0  0  0  0
 19 20  1  1  0  0  0
 20 15  1  0  0  0  0
 23 22  1  6  0  0  0
 23 21  1  0  0  0  0
 24 27  1  1  0  0  0
 24 31  1  0  0  0  0
 25 30  1  0  0  0  0
 25 28  1  0  0  0  0
 28 24  1  0  0  0  0
 29 31  1  0  0  0  0
 29 26  2  1  0  0  0
 30 23  1  1  0  0  0
 30 29  1  0  0  0  0
M  END
>  <MODEL>
8

>  <REMARK>
 VINA RESULT:      -6.0      4.217      8.437
  Name = 
  3 active torsions:
  status: ('A' for Active; 'I' for Inactive)
    1  A    between atoms: C_5  and  N_16
    2  A    between atoms: C_5  and  C_30
    3  A    between atoms: C_10  and  N_16
                            x       y       z     vdW  Elec       q    Type
                         _______ _______ _______ _____ _____    ______ ____

>  <TORSDO>
F 3

$$$$
=
 OpenBabel11122410593D

 31 35  0  0  1  0  0  0  0  0999 V2000
  191.5160  176.4040  138.4370 C   0  0  0  0  0  0  0  0  0  0  0  0
  188.0040  177.1790  137.1940 C   0  0  2  0  0  3  0  0  0  0  0  0
  187.3410  175.8430  136.9160 C   0  0  0  0  0  0  0  0  0  0  0  0
  187.4110  173.3800  136.4470 C   0  0  1  0  0  3  0  0  0  0  0  0
  189.2110  177.0970  138.1020 C   0  0  0  0  0  0  0  0  0  0  0  0
  191.4610  176.8480  139.7590 C   0  0  0  0  0  3  0  0  0  0  0  0
  188.0310  174.6870  136.8720 C   0  0  0  0  0  3  0  0  0  0  0  0
  186.7030  178.0500  139.1780 C   0  0  2  0  0  3  0  0  0  0  0  0
  192.6810  175.8330  137.9440 O   0  0  0  0  0  1  0  0  0  0  0  0
  185.5900  177.0840  135.9260 O   0  0  0  0  0  0  0  0  0  0  0  0
  188.0020  172.0640  137.4860 Cl  0  0  0  0  0  0  0  0  0  0  0  0
  187.9810  178.3030  139.9690 C   0  0  0  0  0  2  0  0  0  0  0  0
  186.9600  178.2220  137.6700 C   0  0  2  0  0  3  0  0  0  0  0  0
  190.3970  176.5310  137.6110 C   0  0  0  0  0  3  0  0  0  0  0  0
  185.8840  173.4150  136.4660 C   0  0  0  0  0  2  0  0  0  0  0  0
  189.1630  177.5510  139.4370 C   0  0  0  0  0  0  0  0  0  0  0  0
  190.2910  177.4290  140.2530 C   0  0  0  0  0  3  0  0  0  0  0  0
  185.6260  178.1230  136.8810 C   0  0  0  0  0  2  0  0  0  0  0  0
  185.8620  175.8900  136.6090 C   0  0  1  0  0  3  0  0  0  0  0  0
  185.3950  174.6900  135.7910 C   0  0  0  0  0  2  0  0  0  0  0  0
  185.6770  178.9730  139.6570 N   0  0  0  0  0  2  0  0  0  0  0  0
  185.5050  178.7460  142.0770 C   0  0  0  0  0  1  0  0  0  0  0  0
  184.9340  178.3210  140.7300 C   0  0  1  0  0  3  0  0  0  0  0  0
  182.1450  177.2350  138.4270 C   0  0  1  0  0  3  0  0  0  0  0  0
  182.5880  177.5690  140.7910 O   0  0  0  0  0  0  0  0  0  0  0  0
  184.0990  180.5990  138.8780 O   0  0  0  0  0  0  0  0  0  0  0  0
  182.1780  176.1650  137.3580 C   0  0  0  0  0  1  0  0  0  0  0  0
  182.8030  176.7010  139.6980 C   0  0  0  0  0  2  0  0  0  0  0  0
  182.9250  179.6990  139.2350 S   0  0  2  0  0  0  0  0  0  0  0  0
  183.4370  178.6970  140.6700 C   0  0  2  0  0  3  0  0  0  0  0  0
  182.8950  178.4610  137.9300 C   0  0  0  0  0  2  0  0  0  0  0  0
  1  6  1  0  0  0  0
  2  3  1  1  0  0  0
  2 13  1  0  0  0  0
  2  5  1  0  0  0  0
  4 15  1  0  0  0  0
  4  7  1  0  0  0  0
  4 11  1  1  0  0  0
  5 16  2  0  0  0  0
  6 17  2  0  0  0  0
  7  3  2  0  0  0  0
  8 21  1  1  0  0  0
  8 12  1  0  0  0  0
  9  1  1  0  0  0  0
 10 19  1  0  0  0  0
 10 18  1  0  0  0  0
 13 18  1  6  0  0  0
 13  8  1  0  0  0  0
 14  5  1  0  0  0  0
 14  1  2  0  0  0  0
 16 12  1  0  0  0  0
 16 17  1  0  0  0  0
 19 20  1  6  0  0  0
 19  3  1  0  0  0  0
 20 15  1  0  0  0  0
 21 23  1  0  0  0  0
 23 22  1  1  0  0  0
 24 27  1  6  0  0  0
 24 28  1  0  0  0  0
 28 25  1  0  0  0  0
 29 26  2  6  0  0  0
 29 30  1  0  0  0  0
 30 23  1  6  0  0  0
 30 25  1  0  0  0  0
 31 24  1  0  0  0  0
 31 29  1  0  0  0  0
M  END
>  <MODEL>
9

>  <REMARK>
 VINA RESULT:      -6.0      3.135      4.985
  Name = 
  3 active torsions:
  status: ('A' for Active; 'I' for Inactive)
    1  A    between atoms: C_5  and  N_16
    2  A    between atoms: C_5  and  C_30
    3  A    between atoms: C_10  and  N_16
                            x       y       z     vdW  Elec       q    Type
                         _______ _______ _______ _____ _____    ______ ____

>  <TORSDO>
F 3

$$$$
