=
 OpenBabel11122411043D

 31 35  0  0  1  0  0  0  0  0999 V2000
  189.9550  176.0550  142.5360 C   0  0  0  0  0  0  0  0  0  0  0  0
  186.6010  177.5690  143.3070 N   0  0  0  0  0  0  0  0  0  0  0  0
  186.5290  177.8850  144.7200 C   0  0  0  0  0  0  0  0  0  0  0  0
  187.5020  177.9340  146.9500 C   0  0  0  0  0  0  0  0  0  0  0  0
  187.8570  177.2680  142.6650 C   0  0  0  0  0  0  0  0  0  0  0  0
  190.2680  176.7170  141.3450 C   0  0  0  0  0  3  0  0  0  0  0  0
  187.5670  177.5560  145.6070 C   0  0  0  0  0  3  0  0  0  0  0  0
  185.9910  179.1950  141.5760 C   0  0  2  0  0  3  0  0  0  0  0  0
  190.8190  175.1490  143.0530 F   0  0  0  0  0  0  0  0  0  0  0  0
  184.3830  178.9400  144.3440 O   0  0  0  0  0  0  0  0  0  0  0  0
  188.8050  177.5130  148.0390 Cl  0  0  0  0  0  0  0  0  0  0  0  0
  187.2410  178.8530  140.8940 N   0  0  0  0  0  2  0  0  0  0  0  0
  185.5200  177.9930  142.3990 C   0  0  2  0  0  3  0  0  0  0  0  0
  188.7520  176.3260  143.1930 C   0  0  0  0  0  3  0  0  0  0  0  0
  186.4060  178.6610  147.4200 C   0  0  0  0  0  3  0  0  0  0  0  0
  188.1750  177.9260  141.4620 C   0  0  0  0  0  0  0  0  0  0  0  0
  189.3770  177.6500  140.8050 C   0  0  0  0  0  3  0  0  0  0  0  0
  184.1920  178.2350  143.1240 C   0  0  0  0  0  2  0  0  0  0  0  0
  185.4230  178.6030  145.2070 C   0  0  0  0  0  0  0  0  0  0  0  0
  185.3690  178.9980  146.5480 C   0  0  0  0  0  3  0  0  0  0  0  0
  185.4850  177.7960  139.1440 O   0  0  0  0  0  0  0  0  0  0  0  0
  184.7740  178.8080  139.3940 C   0  0  0  0  0  0  0  0  0  0  0  0
  184.9820  179.5600  140.5900 N   0  0  0  0  0  2  0  0  0  0  0  0
  181.0640  178.0960  139.1020 C   0  0  1  0  0  3  0  0  0  0  0  0
  182.6150  180.0710  139.1340 C   0  0  0  0  0  2  0  0  0  0  0  0
  184.0810  177.2980  137.0530 O   0  0  0  0  0  1  0  0  0  0  0  0
  180.1940  177.2700  139.9170 N   0  0  0  0  0  1  0  0  0  0  0  0
  181.6840  179.1900  139.9690 C   0  0  0  0  0  2  0  0  0  0  0  0
  183.0860  178.0890  137.6300 C   0  0  2  0  0  3  0  0  0  0  0  0
  183.7020  179.2440  138.4370 C   0  0  2  0  0  3  0  0  0  0  0  0
  182.1570  177.2290  138.4850 C   0  0  0  0  0  2  0  0  0  0  0  0
  1  9  1  0  0  0  0
  1 14  1  0  0  0  0
  2  3  1  0  0  0  0
  3 19  2  0  0  0  0
  3  7  1  0  0  0  0
  4 15  1  0  0  0  0
  4 11  1  0  0  0  0
  5 14  2  0  0  0  0
  5  2  1  0  0  0  0
  6  1  2  0  0  0  0
  7  4  2  0  0  0  0
  8 23  1  6  0  0  0
  8 13  1  0  0  0  0
 10 19  1  0  0  0  0
 12 16  1  0  0  0  0
 12  8  1  0  0  0  0
 13 18  1  1  0  0  0
 13  2  1  0  0  0  0
 16  5  1  0  0  0  0
 17  6  1  0  0  0  0
 17 16  2  0  0  0  0
 18 10  1  0  0  0  0
 19 20  1  0  0  0  0
 20 15  2  0  0  0  0
 21 22  2  0  0  0  0
 22 23  1  0  0  0  0
 24 27  1  1  0  0  0
 24 28  1  0  0  0  0
 25 28  1  0  0  0  0
 29 26  1  1  0  0  0
 29 30  1  0  0  0  0
 29 31  1  0  0  0  0
 30 25  1  0  0  0  0
 30 22  1  1  0  0  0
 31 24  1  0  0  0  0
M  END
>  <MODEL>
1

>  <REMARK>
 VINA RESULT:     -10.1      0.000      0.000
  Name = 
  2 active torsions:
  status: ('A' for Active; 'I' for Inactive)
    1  A    between atoms: C_5  and  C_30
    2  A    between atoms: C_10  and  N_16
                            x       y       z     vdW  Elec       q    Type
                         _______ _______ _______ _____ _____    ______ ____

>  <TORSDO>
F 2

$$$$
=
 OpenBabel11122411043D

 31 35  0  0  1  0  0  0  0  0999 V2000
  191.3060  176.3470  144.4770 C   0  0  0  0  0  0  0  0  0  0  0  0
  187.7700  177.3920  143.7370 N   0  0  0  0  0  0  0  0  0  0  0  0
  187.1300  177.8250  144.9630 C   0  0  0  0  0  0  0  0  0  0  0  0
  187.1650  178.2340  147.3620 C   0  0  0  0  0  0  0  0  0  0  0  0
  189.2010  177.2290  143.6510 C   0  0  0  0  0  0  0  0  0  0  0  0
  191.9780  176.9340  143.4020 C   0  0  0  0  0  3  0  0  0  0  0  0
  187.7790  177.7460  146.2060 C   0  0  0  0  0  3  0  0  0  0  0  0
  187.7000  178.7340  141.6860 C   0  0  2  0  0  3  0  0  0  0  0  0
  191.9970  175.6380  145.4020 F   0  0  0  0  0  0  0  0  0  0  0  0
  185.1920  178.4970  143.6780 O   0  0  0  0  0  0  0  0  0  0  0  0
  187.9880  178.1240  148.9020 Cl  0  0  0  0  0  0  0  0  0  0  0  0
  189.1440  178.5260  141.5670 N   0  0  0  0  0  2  0  0  0  0  0  0
  187.0810  177.5560  142.4450 C   0  0  2  0  0  3  0  0  0  0  0  0
  189.9210  176.4900  144.6020 C   0  0  0  0  0  3  0  0  0  0  0  0
  185.9010  178.8250  147.2860 C   0  0  0  0  0  3  0  0  0  0  0  0
  189.8830  177.8110  142.5650 C   0  0  0  0  0  0  0  0  0  0  0  0
  191.2670  177.6620  142.4430 C   0  0  0  0  0  3  0  0  0  0  0  0
  185.5590  177.6580  142.5890 C   0  0  0  0  0  2  0  0  0  0  0  0
  185.8520  178.4080  144.9010 C   0  0  0  0  0  0  0  0  0  0  0  0
  185.2470  178.9140  146.0560 C   0  0  0  0  0  3  0  0  0  0  0  0
  188.4720  177.1970  139.4130 O   0  0  0  0  0  0  0  0  0  0  0  0
  187.5410  178.0350  139.2620 C   0  0  0  0  0  0  0  0  0  0  0  0
  187.1130  178.8440  140.3580 N   0  0  0  0  0  2  0  0  0  0  0  0
  187.8470  176.2610  135.9280 C   0  0  1  0  0  3  0  0  0  0  0  0
  186.0540  176.9630  137.5390 C   0  0  0  0  0  2  0  0  0  0  0  0
  188.6240  179.6900  137.1810 O   0  0  0  0  0  1  0  0  0  0  0  0
  188.6950  175.1580  135.5190 N   0  0  0  0  0  1  0  0  0  0  0  0
  186.9540  175.8140  137.0830 C   0  0  0  0  0  2  0  0  0  0  0  0
  187.8340  178.6060  136.7980 C   0  0  2  0  0  3  0  0  0  0  0  0
  186.8710  178.2010  137.9280 C   0  0  2  0  0  3  0  0  0  0  0  0
  188.7150  177.4390  136.3580 C   0  0  0  0  0  2  0  0  0  0  0  0
  1 14  1  0  0  0  0
  1  9  1  0  0  0  0
  2  3  1  0  0  0  0
  3  7  1  0  0  0  0
  4 11  1  0  0  0  0
  5  2  1  0  0  0  0
  5 14  2  0  0  0  0
  6  1  2  0  0  0  0
  7  4  2  0  0  0  0
  8 23  1  6  0  0  0
  8 13  1  0  0  0  0
 10 19  1  0  0  0  0
 12  8  1  0  0  0  0
 12 16  1  0  0  0  0
 13 18  1  1  0  0  0
 13  2  1  0  0  0  0
 15  4  1  0  0  0  0
 16  5  1  0  0  0  0
 17 16  2  0  0  0  0
 17  6  1  0  0  0  0
 18 10  1  0  0  0  0
 19  3  2  0  0  0  0
 19 20  1  0  0  0  0
 20 15  2  0  0  0  0
 22 21  2  0  0  0  0
 22 23  1  0  0  0  0
 24 27  1  1  0  0  0
 24 31  1  0  0  0  0
 24 28  1  0  0  0  0
 25 30  1  0  0  0  0
 28 25  1  0  0  0  0
 29 26  1  1  0  0  0
 29 30  1  0  0  0  0
 30 22  1  1  0  0  0
 31 29  1  0  0  0  0
M  END
>  <MODEL>
2

>  <REMARK>
 VINA RESULT:      -9.9      2.797      3.656
  Name = 
  2 active torsions:
  status: ('A' for Active; 'I' for Inactive)
    1  A    between atoms: C_5  and  C_30
    2  A    between atoms: C_10  and  N_16
                            x       y       z     vdW  Elec       q    Type
                         _______ _______ _______ _____ _____    ______ ____

>  <TORSDO>
F 2

$$$$
=
 OpenBabel11122411043D

 31 35  0  0  1  0  0  0  0  0999 V2000
  189.6400  176.1710  142.4790 C   0  0  0  0  0  0  0  0  0  0  0  0
  186.5430  177.6210  144.0440 N   0  0  0  0  0  0  0  0  0  0  0  0
  186.8070  177.9320  145.4340 C   0  0  0  0  0  0  0  0  0  0  0  0
  188.2870  177.9950  147.3650 C   0  0  0  0  0  0  0  0  0  0  0  0
  187.6130  177.3440  143.1160 C   0  0  0  0  0  0  0  0  0  0  0  0
  189.6460  176.8420  141.2520 C   0  0  0  0  0  3  0  0  0  0  0  0
  188.0330  177.6210  146.0430 C   0  0  0  0  0  3  0  0  0  0  0  0
  185.5060  179.2390  142.5200 C   0  0  2  0  0  3  0  0  0  0  0  0
  190.6180  175.2810  142.7680 F   0  0  0  0  0  0  0  0  0  0  0  0
  184.6150  178.9480  145.5920 O   0  0  0  0  0  0  0  0  0  0  0  0
  189.8210  177.5960  148.1070 Cl  0  0  0  0  0  0  0  0  0  0  0  0
  186.5620  178.9220  141.5560 N   0  0  0  0  0  2  0  0  0  0  0  0
  185.2680  178.0260  143.4240 C   0  0  2  0  0  3  0  0  0  0  0  0
  188.6250  176.4180  143.4080 C   0  0  0  0  0  3  0  0  0  0  0  0
  187.3230  178.7000  148.0890 C   0  0  0  0  0  3  0  0  0  0  0  0
  187.6210  178.0110  141.8760 C   0  0  0  0  0  0  0  0  0  0  0  0
  188.6340  177.7580  140.9480 C   0  0  0  0  0  3  0  0  0  0  0  0
  184.1490  178.2420  144.4480 C   0  0  0  0  0  2  0  0  0  0  0  0
  185.8380  178.6290  146.1780 C   0  0  0  0  0  0  0  0  0  0  0  0
  186.1010  179.0200  147.4940 C   0  0  0  0  0  3  0  0  0  0  0  0
  183.9860  177.4590  140.8940 O   0  0  0  0  0  0  0  0  0  0  0  0
  183.5640  178.6420  141.0160 C   0  0  0  0  0  0  0  0  0  0  0  0
  184.2840  179.5870  141.8080 N   0  0  0  0  0  2  0  0  0  0  0  0
  181.6900  177.4340  137.9530 C   0  0  1  0  0  3  0  0  0  0  0  0
  181.2270  177.9880  140.3580 C   0  0  0  0  0  2  0  0  0  0  0  0
  183.5560  180.5380  138.8600 O   0  0  0  0  0  1  0  0  0  0  0  0
  181.9850  176.3560  137.0290 N   0  0  0  0  0  1  0  0  0  0  0  0
  181.5300  176.8670  139.3620 C   0  0  0  0  0  2  0  0  0  0  0  0
  182.5280  179.5940  138.8950 C   0  0  2  0  0  3  0  0  0  0  0  0
  182.3040  179.0790  140.3270 C   0  0  2  0  0  3  0  0  0  0  0  0
  182.8230  178.4550  137.9210 C   0  0  0  0  0  2  0  0  0  0  0  0
  1  9  1  0  0  0  0
  1 14  1  0  0  0  0
  2  3  1  0  0  0  0
  3  7  2  0  0  0  0
  3 19  1  0  0  0  0
  4 15  2  0  0  0  0
  4 11  1  0  0  0  0
  5 14  2  0  0  0  0
  5  2  1  0  0  0  0
  6  1  2  0  0  0  0
  7  4  1  0  0  0  0
  8 23  1  6  0  0  0
  8 13  1  0  0  0  0
 10 19  1  0  0  0  0
 12 16  1  0  0  0  0
 12  8  1  0  0  0  0
 13  2  1  0  0  0  0
 13 18  1  1  0  0  0
 16  5  1  0  0  0  0
 17  6  1  0  0  0  0
 17 16  2  0  0  0  0
 18 10  1  0  0  0  0
 19 20  2  0  0  0  0
 20 15  1  0  0  0  0
 21 22  2  0  0  0  0
 22 23  1  0  0  0  0
 24 27  1  6  0  0  0
 24 28  1  0  0  0  0
 28 25  1  0  0  0  0
 29 26  1  1  0  0  0
 29 30  1  0  0  0  0
 30 25  1  0  0  0  0
 30 22  1  6  0  0  0
 31 24  1  0  0  0  0
 31 29  1  0  0  0  0
M  END
>  <MODEL>
3

>  <REMARK>
 VINA RESULT:      -9.5      1.346      1.621
  Name = 
  2 active torsions:
  status: ('A' for Active; 'I' for Inactive)
    1  A    between atoms: C_5  and  C_30
    2  A    between atoms: C_10  and  N_16
                            x       y       z     vdW  Elec       q    Type
                         _______ _______ _______ _____ _____    ______ ____

>  <TORSDO>
F 2

$$$$
=
 OpenBabel11122411043D

 31 35  0  0  1  0  0  0  0  0999 V2000
  188.9240  176.8230  141.8870 C   0  0  0  0  0  0  0  0  0  0  0  0
  186.3500  177.7980  144.4490 N   0  0  0  0  0  0  0  0  0  0  0  0
  186.9810  177.9030  145.7490 C   0  0  0  0  0  0  0  0  0  0  0  0
  188.9350  177.7610  147.1930 C   0  0  0  0  0  0  0  0  0  0  0  0
  187.1280  177.7430  143.2350 C   0  0  0  0  0  0  0  0  0  0  0  0
  188.5760  177.6770  140.8360 C   0  0  0  0  0  3  0  0  0  0  0  0
  188.3340  177.5830  145.9440 C   0  0  0  0  0  3  0  0  0  0  0  0
  184.8990  179.5620  143.5580 C   0  0  2  0  0  3  0  0  0  0  0  0
  189.9630  175.9660  141.7470 F   0  0  0  0  0  0  0  0  0  0  0  0
  184.8980  178.7330  146.6610 O   0  0  0  0  0  0  0  0  0  0  0  0
  190.6220  177.3540  147.4160 Cl  0  0  0  0  0  0  0  0  0  0  0  0
  185.6530  179.4720  142.3060 N   0  0  0  0  0  2  0  0  0  0  0  0
  184.9450  178.2090  144.2740 C   0  0  2  0  0  3  0  0  0  0  0  0
  188.2000  176.8520  143.0830 C   0  0  0  0  0  3  0  0  0  0  0  0
  188.1940  178.2770  148.2580 C   0  0  0  0  0  3  0  0  0  0  0  0
  186.7780  178.5950  142.1700 C   0  0  0  0  0  0  0  0  0  0  0  0
  187.5010  178.5600  140.9760 C   0  0  0  0  0  3  0  0  0  0  0  0
  184.1480  178.1850  145.5820 C   0  0  0  0  0  2  0  0  0  0  0  0
  186.2410  178.4080  146.8330 C   0  0  0  0  0  0  0  0  0  0  0  0
  186.8490  178.6030  148.0770 C   0  0  0  0  0  3  0  0  0  0  0  0
  183.1220  178.1140  141.8640 O   0  0  0  0  0  0  0  0  0  0  0  0
  182.6790  179.1570  142.4180 C   0  0  0  0  0  0  0  0  0  0  0  0
  183.5200  179.9350  143.2710 N   0  0  0  0  0  2  0  0  0  0  0  0
  179.4640  177.3560  141.5400 C   0  0  1  0  0  3  0  0  0  0  0  0
  180.3010  179.0180  143.2250 C   0  0  0  0  0  2  0  0  0  0  0  0
  181.6720  179.8210  139.8130 O   0  0  0  0  0  1  0  0  0  0  0  0
  179.2040  175.9490  141.3030 N   0  0  0  0  0  1  0  0  0  0  0  0
  180.0100  177.5410  142.9530 C   0  0  0  0  0  2  0  0  0  0  0  0
  180.7600  179.3470  140.7560 C   0  0  2  0  0  3  0  0  0  0  0  0
  181.2640  179.6040  142.1860 C   0  0  2  0  0  3  0  0  0  0  0  0
  180.4710  177.8660  140.5140 C   0  0  0  0  0  2  0  0  0  0  0  0
  1 14  1  0  0  0  0
  2  3  1  0  0  0  0
  3  7  2  0  0  0  0
  3 19  1  0  0  0  0
  4 11  1  0  0  0  0
  4 15  2  0  0  0  0
  5  2  1  0  0  0  0
  6 17  1  0  0  0  0
  6  1  2  0  0  0  0
  7  4  1  0  0  0  0
  8 23  1  6  0  0  0
  8 13  1  0  0  0  0
  9  1  1  0  0  0  0
 10 19  1  0  0  0  0
 12  8  1  0  0  0  0
 13  2  1  0  0  0  0
 13 18  1  1  0  0  0
 14  5  2  0  0  0  0
 16 12  1  0  0  0  0
 16  5  1  0  0  0  0
 17 16  2  0  0  0  0
 18 10  1  0  0  0  0
 19 20  2  0  0  0  0
 20 15  1  0  0  0  0
 21 22  2  0  0  0  0
 22 23  1  0  0  0  0
 24 27  1  6  0  0  0
 24 28  1  0  0  0  0
 28 25  1  0  0  0  0
 29 26  1  6  0  0  0
 29 30  1  0  0  0  0
 30 22  1  6  0  0  0
 30 25  1  0  0  0  0
 31 29  1  0  0  0  0
 31 24  1  0  0  0  0
M  END
>  <MODEL>
4

>  <REMARK>
 VINA RESULT:      -9.0      2.086      2.645
  Name = 
  2 active torsions:
  status: ('A' for Active; 'I' for Inactive)
    1  A    between atoms: C_5  and  C_30
    2  A    between atoms: C_10  and  N_16
                            x       y       z     vdW  Elec       q    Type
                         _______ _______ _______ _____ _____    ______ ____

>  <TORSDO>
F 2

$$$$
=
 OpenBabel11122411043D

 31 35  0  0  1  0  0  0  0  0999 V2000
  185.5200  178.6640  139.1900 C   0  0  0  0  0  0  0  0  0  0  0  0
  189.0230  177.8300  140.2750 N   0  0  0  0  0  0  0  0  0  0  0  0
  189.0260  177.5190  141.6900 C   0  0  0  0  0  0  0  0  0  0  0  0
  187.8840  177.2560  143.8220 C   0  0  0  0  0  0  0  0  0  0  0  0
  187.7950  177.8860  139.5180 C   0  0  0  0  0  0  0  0  0  0  0  0
  185.4520  177.9670  137.9810 C   0  0  0  0  0  3  0  0  0  0  0  0
  187.8680  177.6280  142.4760 C   0  0  0  0  0  3  0  0  0  0  0  0
  190.0940  176.3740  138.6180 C   0  0  2  0  0  3  0  0  0  0  0  0
  184.4520  179.3780  139.6200 F   0  0  0  0  0  0  0  0  0  0  0  0
  191.3630  176.9090  141.5190 O   0  0  0  0  0  0  0  0  0  0  0  0
  186.4300  177.4010  144.7860 Cl  0  0  0  0  0  0  0  0  0  0  0  0
  188.8680  176.4710  137.8220 N   0  0  0  0  0  2  0  0  0  0  0  0
  190.2430  177.6370  139.4710 C   0  0  2  0  0  3  0  0  0  0  0  0
  186.6890  178.6280  139.9560 C   0  0  0  0  0  3  0  0  0  0  0  0
  189.0540  176.7530  144.3950 C   0  0  0  0  0  3  0  0  0  0  0  0
  187.7230  177.1910  138.2960 C   0  0  0  0  0  0  0  0  0  0  0  0
  186.5550  177.2340  137.5310 C   0  0  0  0  0  3  0  0  0  0  0  0
  191.5220  177.6520  140.3150 C   0  0  0  0  0  2  0  0  0  0  0  0
  190.2030  177.0260  142.2810 C   0  0  0  0  0  0  0  0  0  0  0  0
  190.2120  176.6350  143.6230 C   0  0  0  0  0  3  0  0  0  0  0  0
  191.0720  173.9000  137.5930 O   0  0  0  0  0  0  0  0  0  0  0  0
  191.6720  174.9540  137.2450 C   0  0  0  0  0  0  0  0  0  0  0  0
  191.2390  176.2250  137.7300 N   0  0  0  0  0  2  0  0  0  0  0  0
  194.9930  173.1330  137.3460 C   0  0  1  0  0  3  0  0  0  0  0  0
  193.0720  173.4780  135.7660 C   0  0  0  0  0  2  0  0  0  0  0  0
  193.9300  176.7090  137.4960 O   0  0  0  0  0  1  0  0  0  0  0  0
  195.5510  172.2410  138.3440 N   0  0  0  0  0  1  0  0  0  0  0  0
  193.6860  172.5490  136.8160 C   0  0  0  0  0  2  0  0  0  0  0  0
  194.1490  175.4520  136.9320 C   0  0  2  0  0  3  0  0  0  0  0  0
  192.8540  174.8910  136.3200 C   0  0  2  0  0  3  0  0  0  0  0  0
  194.7430  174.5030  137.9710 C   0  0  0  0  0  2  0  0  0  0  0  0
  1  9  1  0  0  0  0
  1 14  1  0  0  0  0
  2  3  1  0  0  0  0
  3 19  2  0  0  0  0
  3  7  1  0  0  0  0
  4 15  1  0  0  0  0
  4 11  1  0  0  0  0
  5 14  2  0  0  0  0
  5  2  1  0  0  0  0
  6  1  2  0  0  0  0
  7  4  2  0  0  0  0
  8 23  1  6  0  0  0
  8 13  1  0  0  0  0
 10 19  1  0  0  0  0
 12 16  1  0  0  0  0
 12  8  1  0  0  0  0
 13  2  1  0  0  0  0
 13 18  1  1  0  0  0
 16  5  1  0  0  0  0
 17  6  1  0  0  0  0
 17 16  2  0  0  0  0
 18 10  1  0  0  0  0
 19 20  1  0  0  0  0
 20 15  2  0  0  0  0
 22 21  2  0  0  0  0
 22 23  1  0  0  0  0
 24 31  1  0  0  0  0
 24 27  1  1  0  0  0
 25 30  1  0  0  0  0
 25 28  1  0  0  0  0
 28 24  1  0  0  0  0
 29 26  1  1  0  0  0
 29 31  1  0  0  0  0
 30 29  1  0  0  0  0
 30 22  1  1  0  0  0
M  END
>  <MODEL>
5

>  <REMARK>
 VINA RESULT:      -8.8      4.935      8.211
  Name = 
  2 active torsions:
  status: ('A' for Active; 'I' for Inactive)
    1  A    between atoms: C_5  and  C_30
    2  A    between atoms: C_10  and  N_16
                            x       y       z     vdW  Elec       q    Type
                         _______ _______ _______ _____ _____    ______ ____

>  <TORSDO>
F 2

$$$$
=
 OpenBabel11122411043D

 31 35  0  0  1  0  0  0  0  0999 V2000
  184.7360  179.0130  144.6250 C   0  0  0  0  0  0  0  0  0  0  0  0
  188.3870  178.2860  144.0860 N   0  0  0  0  0  0  0  0  0  0  0  0
  188.9670  177.7990  145.3210 C   0  0  0  0  0  0  0  0  0  0  0  0
  188.7900  177.1900  147.6710 C   0  0  0  0  0  0  0  0  0  0  0  0
  186.9570  178.3550  143.9000 C   0  0  0  0  0  0  0  0  0  0  0  0
  184.1920  178.4720  143.4570 C   0  0  0  0  0  3  0  0  0  0  0  0
  188.2260  177.7290  146.5120 C   0  0  0  0  0  3  0  0  0  0  0  0
  188.7090  177.1280  141.9490 C   0  0  2  0  0  3  0  0  0  0  0  0
  183.9270  179.5920  145.5440 F   0  0  0  0  0  0  0  0  0  0  0  0
  191.0400  177.3750  144.1450 O   0  0  0  0  0  0  0  0  0  0  0  0
  187.8500  177.1140  149.1450 Cl  0  0  0  0  0  0  0  0  0  0  0  0
  187.2650  177.2430  141.7330 N   0  0  0  0  0  2  0  0  0  0  0  0
  189.1790  178.2790  142.8430 C   0  0  2  0  0  3  0  0  0  0  0  0
  186.1160  178.9590  144.8460 C   0  0  0  0  0  3  0  0  0  0  0  0
  190.0970  176.6990  147.6490 C   0  0  0  0  0  3  0  0  0  0  0  0
  186.4030  177.8180  142.7230 C   0  0  0  0  0  0  0  0  0  0  0  0
  185.0250  177.8780  142.5030 C   0  0  0  0  0  3  0  0  0  0  0  0
  190.6890  178.2740  143.0980 C   0  0  0  0  0  2  0  0  0  0  0  0
  190.2880  177.3160  145.3150 C   0  0  0  0  0  0  0  0  0  0  0  0
  190.8440  176.7590  146.4710 C   0  0  0  0  0  3  0  0  0  0  0  0
  187.8650  178.6280  139.6760 O   0  0  0  0  0  0  0  0  0  0  0  0
  188.9250  177.9520  139.5690 C   0  0  0  0  0  0  0  0  0  0  0  0
  189.3980  177.1710  140.6660 N   0  0  0  0  0  2  0  0  0  0  0  0
  188.1660  176.8230  136.0330 C   0  0  1  0  0  3  0  0  0  0  0  0
  189.0560  178.8470  137.2220 C   0  0  0  0  0  2  0  0  0  0  0  0
  190.5100  175.7140  138.7190 O   0  0  0  0  0  1  0  0  0  0  0  0
  186.9750  176.2180  135.4700 N   0  0  0  0  0  1  0  0  0  0  0  0
  187.8160  178.1910  136.6130 C   0  0  0  0  0  2  0  0  0  0  0  0
  189.9840  176.5460  137.7290 C   0  0  2  0  0  3  0  0  0  0  0  0
  189.7050  177.9530  138.2850 C   0  0  2  0  0  3  0  0  0  0  0  0
  188.7310  175.9170  137.1230 C   0  0  0  0  0  2  0  0  0  0  0  0
  1 14  1  0  0  0  0
  1  9  1  0  0  0  0
  2  3  1  0  0  0  0
  3  7  1  0  0  0  0
  4 11  1  0  0  0  0
  5  2  1  0  0  0  0
  5 14  2  0  0  0  0
  6  1  2  0  0  0  0
  7  4  2  0  0  0  0
  8 23  1  6  0  0  0
  8 13  1  0  0  0  0
 10 19  1  0  0  0  0
 12  8  1  0  0  0  0
 12 16  1  0  0  0  0
 13 18  1  1  0  0  0
 13  2  1  0  0  0  0
 15  4  1  0  0  0  0
 16  5  1  0  0  0  0
 17 16  2  0  0  0  0
 17  6  1  0  0  0  0
 18 10  1  0  0  0  0
 19  3  2  0  0  0  0
 19 20  1  0  0  0  0
 20 15  2  0  0  0  0
 22 21  2  0  0  0  0
 22 23  1  0  0  0  0
 24 27  1  1  0  0  0
 24 28  1  0  0  0  0
 24 31  1  0  0  0  0
 25 30  1  0  0  0  0
 28 25  1  0  0  0  0
 29 30  1  0  0  0  0
 29 26  1  1  0  0  0
 30 22  1  1  0  0  0
 31 29  1  0  0  0  0
M  END
>  <MODEL>
6

>  <REMARK>
 VINA RESULT:      -8.4      3.532      5.308
  Name = 
  2 active torsions:
  status: ('A' for Active; 'I' for Inactive)
    1  A    between atoms: C_5  and  C_30
    2  A    between atoms: C_10  and  N_16
                            x       y       z     vdW  Elec       q    Type
                         _______ _______ _______ _____ _____    ______ ____

>  <TORSDO>
F 2

$$$$
=
 OpenBabel11122411043D

 31 35  0  0  1  0  0  0  0  0999 V2000
  189.4260  178.0800  144.0580 C   0  0  0  0  0  0  0  0  0  0  0  0
  187.1570  178.5440  141.0960 N   0  0  0  0  0  0  0  0  0  0  0  0
  187.8000  178.0150  139.9100 C   0  0  0  0  0  0  0  0  0  0  0  0
  189.6790  176.9400  138.7980 C   0  0  0  0  0  0  0  0  0  0  0  0
  187.6430  178.2360  142.4190 C   0  0  0  0  0  0  0  0  0  0  0  0
  188.5090  177.6410  145.0180 C   0  0  0  0  0  3  0  0  0  0  0  0
  189.1090  177.5070  139.9400 C   0  0  0  0  0  3  0  0  0  0  0  0
  184.8530  177.9610  141.6990 C   0  0  2  0  0  3  0  0  0  0  0  0
  190.7340  178.2150  144.3840 F   0  0  0  0  0  0  0  0  0  0  0  0
  185.7710  178.4360  138.6580 O   0  0  0  0  0  0  0  0  0  0  0  0
  191.3130  176.3160  138.8560 Cl  0  0  0  0  0  0  0  0  0  0  0  0
  185.3340  177.6980  143.0570 N   0  0  0  0  0  2  0  0  0  0  0  0
  185.7570  179.0040  141.0360 C   0  0  2  0  0  3  0  0  0  0  0  0
  188.9950  178.3800  142.7630 C   0  0  0  0  0  3  0  0  0  0  0  0
  188.9400  176.8570  137.6160 C   0  0  0  0  0  3  0  0  0  0  0  0
  186.7240  177.8000  143.3920 C   0  0  0  0  0  0  0  0  0  0  0  0
  187.1580  177.5050  144.6870 C   0  0  0  0  0  3  0  0  0  0  0  0
  185.3130  179.3810  139.6190 C   0  0  0  0  0  2  0  0  0  0  0  0
  187.0710  177.9400  138.7100 C   0  0  0  0  0  0  0  0  0  0  0  0
  187.6360  177.3540  137.5730 C   0  0  0  0  0  3  0  0  0  0  0  0
  182.7140  177.0390  140.0540 O   0  0  0  0  0  0  0  0  0  0  0  0
  182.4520  177.9320  140.9070 C   0  0  0  0  0  0  0  0  0  0  0  0
  183.4800  178.4450  141.7550 N   0  0  0  0  0  2  0  0  0  0  0  0
  179.2210  177.3770  139.0080 C   0  0  1  0  0  3  0  0  0  0  0  0
  180.0450  177.3780  141.3790 C   0  0  0  0  0  2  0  0  0  0  0  0
  181.5530  180.2540  139.4760 O   0  0  0  0  0  1  0  0  0  0  0  0
  178.9310  176.5350  137.8630 N   0  0  0  0  0  1  0  0  0  0  0  0
  179.7230  176.5110  140.1600 C   0  0  0  0  0  2  0  0  0  0  0  0
  180.5970  179.3000  139.8250 C   0  0  2  0  0  3  0  0  0  0  0  0
  181.0590  178.4770  141.0400 C   0  0  2  0  0  3  0  0  0  0  0  0
  180.2770  178.4100  138.6250 C   0  0  0  0  0  2  0  0  0  0  0  0
  1  9  1  0  0  0  0
  1  6  1  0  0  0  0
  2  5  1  0  0  0  0
  3  7  1  0  0  0  0
  3  2  1  0  0  0  0
  4 11  1  0  0  0  0
  4  7  2  0  0  0  0
  5 14  1  0  0  0  0
  5 16  2  0  0  0  0
  8 23  1  1  0  0  0
  8 12  1  0  0  0  0
 10 19  1  0  0  0  0
 10 18  1  0  0  0  0
 12 16  1  0  0  0  0
 13 18  1  6  0  0  0
 13  2  1  0  0  0  0
 13  8  1  0  0  0  0
 14  1  2  0  0  0  0
 15  4  1  0  0  0  0
 16 17  1  0  0  0  0
 17  6  2  0  0  0  0
 19  3  2  0  0  0  0
 20 15  2  0  0  0  0
 20 19  1  0  0  0  0
 21 22  2  0  0  0  0
 22 23  1  0  0  0  0
 24 27  1  6  0  0  0
 24 28  1  0  0  0  0
 28 25  1  0  0  0  0
 29 26  1  6  0  0  0
 29 30  1  0  0  0  0
 30 22  1  6  0  0  0
 30 25  1  0  0  0  0
 31 24  1  0  0  0  0
 31 29  1  0  0  0  0
M  END
>  <MODEL>
7

>  <REMARK>
 VINA RESULT:      -8.0      2.695      4.806
  Name = 
  2 active torsions:
  status: ('A' for Active; 'I' for Inactive)
    1  A    between atoms: C_5  and  C_30
    2  A    between atoms: C_10  and  N_16
                            x       y       z     vdW  Elec       q    Type
                         _______ _______ _______ _____ _____    ______ ____

>  <TORSDO>
F 2

$$$$
=
 OpenBabel11122411043D

 31 35  0  0  1  0  0  0  0  0999 V2000
  188.7280  178.0890  143.8490 C   0  0  0  0  0  0  0  0  0  0  0  0
  186.6850  178.5980  140.7340 N   0  0  0  0  0  0  0  0  0  0  0  0
  187.3920  178.0420  139.5990 C   0  0  0  0  0  0  0  0  0  0  0  0
  189.3120  176.9050  138.6250 C   0  0  0  0  0  0  0  0  0  0  0  0
  187.0690  178.2850  142.0890 C   0  0  0  0  0  0  0  0  0  0  0  0
  187.7350  177.6840  144.7450 C   0  0  0  0  0  3  0  0  0  0  0  0
  188.6800  177.4970  139.7220 C   0  0  0  0  0  3  0  0  0  0  0  0
  184.3280  178.0860  141.1790 C   0  0  2  0  0  3  0  0  0  0  0  0
  190.0140  178.1890  144.2640 F   0  0  0  0  0  0  0  0  0  0  0  0
  185.4680  178.5130  138.2070 O   0  0  0  0  0  0  0  0  0  0  0  0
  190.9180  176.2340  138.8000 Cl  0  0  0  0  0  0  0  0  0  0  0  0
  184.7060  177.8190  142.5680 N   0  0  0  0  0  2  0  0  0  0  0  0
  185.3070  179.0980  140.5750 C   0  0  2  0  0  3  0  0  0  0  0  0
  188.3980  178.3930  142.5250 C   0  0  0  0  0  3  0  0  0  0  0  0
  188.6550  176.8350  137.3950 C   0  0  0  0  0  3  0  0  0  0  0  0
  186.0720  177.8840  142.9980 C   0  0  0  0  0  0  0  0  0  0  0  0
  186.4060  177.5850  144.3210 C   0  0  0  0  0  3  0  0  0  0  0  0
  184.9730  179.4780  139.1280 C   0  0  0  0  0  2  0  0  0  0  0  0
  186.7470  177.9800  138.3510 C   0  0  0  0  0  0  0  0  0  0  0  0
  187.3720  177.3690  137.2590 C   0  0  0  0  0  3  0  0  0  0  0  0
  182.2970  177.2500  139.3620 O   0  0  0  0  0  0  0  0  0  0  0  0
  181.9960  178.1400  140.2040 C   0  0  0  0  0  0  0  0  0  0  0  0
  182.9700  178.6110  141.1360 N   0  0  0  0  0  2  0  0  0  0  0  0
  179.4150  178.6280  142.9350 C   0  0  1  0  0  3  0  0  0  0  0  0
  180.5380  179.9670  141.1320 C   0  0  0  0  0  2  0  0  0  0  0  0
  179.6340  176.5480  139.8420 O   0  0  0  0  0  1  0  0  0  0  0  0
  179.4540  178.2840  144.3440 N   0  0  0  0  0  1  0  0  0  0  0  0
  180.5520  179.5960  142.6160 C   0  0  0  0  0  2  0  0  0  0  0  0
  179.5200  177.7070  140.6120 C   0  0  2  0  0  3  0  0  0  0  0  0
  180.6120  178.7240  140.2380 C   0  0  2  0  0  3  0  0  0  0  0  0
  179.5530  177.3590  142.0990 C   0  0  0  0  0  2  0  0  0  0  0  0
  1  9  1  0  0  0  0
  1  6  1  0  0  0  0
  2  5  1  0  0  0  0
  3  7  1  0  0  0  0
  3  2  1  0  0  0  0
  4 11  1  0  0  0  0
  4  7  2  0  0  0  0
  5 14  1  0  0  0  0
  5 16  2  0  0  0  0
  8 23  1  1  0  0  0
  8 12  1  0  0  0  0
 10 19  1  0  0  0  0
 10 18  1  0  0  0  0
 12 16  1  0  0  0  0
 13 18  1  6  0  0  0
 13  2  1  0  0  0  0
 13  8  1  0  0  0  0
 14  1  2  0  0  0  0
 15  4  1  0  0  0  0
 16 17  1  0  0  0  0
 17  6  2  0  0  0  0
 19  3  2  0  0  0  0
 20 15  2  0  0  0  0
 20 19  1  0  0  0  0
 21 22  2  0  0  0  0
 22 23  1  0  0  0  0
 24 27  1  1  0  0  0
 25 28  1  0  0  0  0
 28 24  1  0  0  0  0
 29 26  1  6  0  0  0
 29 31  1  0  0  0  0
 30 22  1  1  0  0  0
 30 29  1  0  0  0  0
 30 25  1  0  0  0  0
 31 24  1  0  0  0  0
M  END
>  <MODEL>
8

>  <REMARK>
 VINA RESULT:      -8.0      2.966      5.075
  Name = 
  2 active torsions:
  status: ('A' for Active; 'I' for Inactive)
    1  A    between atoms: C_5  and  C_30
    2  A    between atoms: C_10  and  N_16
                            x       y       z     vdW  Elec       q    Type
                         _______ _______ _______ _____ _____    ______ ____

>  <TORSDO>
F 2

$$$$
=
 OpenBabel11122411043D

 31 35  0  0  1  0  0  0  0  0999 V2000
  183.7800  178.8070  143.2330 C   0  0  0  0  0  0  0  0  0  0  0  0
  183.1930  178.3100  139.5520 N   0  0  0  0  0  0  0  0  0  0  0  0
  182.0130  179.0470  139.1500 C   0  0  0  0  0  0  0  0  0  0  0  0
  180.1260  180.5000  139.6530 C   0  0  0  0  0  0  0  0  0  0  0  0
  183.8370  178.5520  140.8210 C   0  0  0  0  0  0  0  0  0  0  0  0
  185.1640  179.0030  143.2490 C   0  0  0  0  0  3  0  0  0  0  0  0
  181.2190  179.7400  140.0780 C   0  0  0  0  0  3  0  0  0  0  0  0
  185.3130  178.4750  138.3310 C   0  0  2  0  0  3  0  0  0  0  0  0
  183.0790  178.8380  144.3920 F   0  0  0  0  0  0  0  0  0  0  0  0
  182.4650  178.4550  136.8470 O   0  0  0  0  0  0  0  0  0  0  0  0
  179.1480  181.3550  140.8260 Cl  0  0  0  0  0  0  0  0  0  0  0  0
  185.9770  178.6680  139.6210 N   0  0  0  0  0  2  0  0  0  0  0  0
  184.0370  177.6530  138.5380 C   0  0  2  0  0  3  0  0  0  0  0  0
  183.1170  178.5790  142.0240 C   0  0  0  0  0  3  0  0  0  0  0  0
  179.8240  180.5910  138.2920 C   0  0  0  0  0  3  0  0  0  0  0  0
  185.2320  178.7430  140.8440 C   0  0  0  0  0  0  0  0  0  0  0  0
  185.8910  178.9670  142.0550 C   0  0  0  0  0  3  0  0  0  0  0  0
  183.2850  177.3590  137.2360 C   0  0  0  0  0  2  0  0  0  0  0  0
  181.6900  179.1330  137.7840 C   0  0  0  0  0  0  0  0  0  0  0  0
  180.6080  179.9100  137.3590 C   0  0  0  0  0  3  0  0  0  0  0  0
  187.3780  179.7170  136.8080 O   0  0  0  0  0  0  0  0  0  0  0  0
  187.2370  178.4690  136.6910 C   0  0  0  0  0  0  0  0  0  0  0  0
  186.2150  177.7860  137.4180 N   0  0  0  0  0  2  0  0  0  0  0  0
  187.9010  174.7690  136.2140 C   0  0  1  0  0  3  0  0  0  0  0  0
  187.3380  176.7840  134.8260 C   0  0  0  0  0  2  0  0  0  0  0  0
  189.8930  177.6780  137.4420 O   0  0  0  0  0  1  0  0  0  0  0  0
  187.3450  173.6140  136.8920 N   0  0  0  0  0  1  0  0  0  0  0  0
  186.7770  175.5540  135.5420 C   0  0  0  0  0  2  0  0  0  0  0  0
  189.2150  176.8750  136.5230 C   0  0  2  0  0  3  0  0  0  0  0  0
  188.1350  177.6800  135.7810 C   0  0  2  0  0  3  0  0  0  0  0  0
  188.6300  175.6500  137.2240 C   0  0  0  0  0  2  0  0  0  0  0  0
  1  6  1  0  0  0  0
  1  9  1  0  0  0  0
  2  5  1  0  0  0  0
  3  2  1  0  0  0  0
  3  7  1  0  0  0  0
  4  7  2  0  0  0  0
  4 11  1  0  0  0  0
  5 16  2  0  0  0  0
  5 14  1  0  0  0  0
  8 23  1  6  0  0  0
  8 13  1  0  0  0  0
  8 12  1  0  0  0  0
 10 18  1  0  0  0  0
 10 19  1  0  0  0  0
 12 16  1  0  0  0  0
 13 18  1  6  0  0  0
 13  2  1  0  0  0  0
 14  1  2  0  0  0  0
 15  4  1  0  0  0  0
 16 17  1  0  0  0  0
 17  6  2  0  0  0  0
 19  3  2  0  0  0  0
 20 19  1  0  0  0  0
 20 15  2  0  0  0  0
 22 21  2  0  0  0  0
 22 23  1  0  0  0  0
 24 27  1  1  0  0  0
 24 31  1  0  0  0  0
 25 28  1  0  0  0  0
 25 30  1  0  0  0  0
 28 24  1  0  0  0  0
 29 31  1  0  0  0  0
 29 26  1  1  0  0  0
 30 29  1  0  0  0  0
 30 22  1  1  0  0  0
M  END
>  <MODEL>
9

>  <REMARK>
 VINA RESULT:      -7.9      4.160      7.063
  Name = 
  2 active torsions:
  status: ('A' for Active; 'I' for Inactive)
    1  A    between atoms: C_5  and  C_30
    2  A    between atoms: C_10  and  N_16
                            x       y       z     vdW  Elec       q    Type
                         _______ _______ _______ _____ _____    ______ ____

>  <TORSDO>
F 2

$$$$
