=
 OpenBabel11122411533D

 28 31  0  0  1  0  0  0  0  0999 V2000
  183.2910  175.9860  138.2500 C   0  0  0  0  0  0  0  0  0  0  0  0
  184.5550  177.4070  141.8140 O   0  0  0  0  0  0  0  0  0  0  0  0
  185.6420  176.5630  136.8440 C   0  0  0  0  0  3  0  0  0  0  0  0
  182.1170  175.7090  138.9500 O   0  0  0  0  0  0  0  0  0  0  0  0
  184.7300  179.7160  140.9790 O   0  0  0  0  0  0  0  0  0  0  0  0
  183.7860  178.6440  141.4480 S   0  0  0  0  0  0  0  0  0  0  0  0
  181.3440  178.9660  142.7010 C   0  0  0  0  0  0  0  0  0  0  0  0
  182.5870  178.2680  140.2000 C   0  0  1  0  0  3  0  0  0  0  0  0
  180.8810  175.1760  136.1100 C   0  0  0  0  0  1  0  0  0  0  0  0
  181.6600  178.8460  138.0870 C   0  0  2  0  0  3  0  0  0  0  0  0
  180.7500  179.0030  141.5500 N   0  0  0  0  0  0  0  0  0  0  0  0
  182.8360  179.2320  142.8570 C   0  0  0  0  0  2  0  0  0  0  0  0
  180.2950  175.4340  137.4220 N   0  0  0  0  0  0  0  0  0  0  0  0
  183.7610  177.3130  138.1820 C   0  0  0  0  0  0  0  0  0  0  0  0
  180.5470  178.6580  143.9180 C   0  0  0  0  0  1  0  0  0  0  0  0
  180.0440  176.8670  137.6750 C   0  0  0  0  0  2  0  0  0  0  0  0
  184.9340  177.5900  137.4730 C   0  0  0  0  0  3  0  0  0  0  0  0
  183.9990  174.9610  137.6080 C   0  0  0  0  0  3  0  0  0  0  0  0
  185.1730  175.2490  136.9090 C   0  0  0  0  0  3  0  0  0  0  0  0
  181.1230  174.8150  138.4630 C   0  0  0  0  0  2  0  0  0  0  0  0
  180.6840  179.1850  139.1360 N   0  0  0  0  0  0  0  0  0  0  0  0
  181.0990  177.8210  137.0770 C   0  0  1  0  0  3  0  0  0  0  0  0
  181.4940  179.2770  140.3430 C   0  0  2  0  0  3  0  0  0  0  0  0
  182.9960  178.4710  138.7710 C   0  0  2  0  0  3  0  0  0  0  0  0
  181.5990  178.6300  135.0760 C   0  0  0  0  0  1  0  0  0  0  0  0
  180.5480  178.4950  135.9850 O   0  0  0  0  0  0  0  0  0  0  0  0
  180.1960  180.5230  138.8410 C   0  0  0  0  0  2  0  0  0  0  0  0
  181.3350  181.3800  138.3230 C   0  0  0  0  0  1  0  0  0  0  0  0
  1  4  1  0  0  0  0
  3 19  2  0  0  0  0
  3 17  1  0  0  0  0
  5  6  2  0  0  0  0
  6  2  2  0  0  0  0
  6 12  1  0  0  0  0
  7 12  1  0  0  0  0
  7 15  1  0  0  0  0
  8 23  1  0  0  0  0
  8  6  1  1  0  0  0
  9 13  1  0  0  0  0
 10 24  1  0  0  0  0
 10 21  1  1  0  0  0
 11  7  2  0  0  0  0
 13 16  1  0  0  0  0
 13 20  1  0  0  0  0
 14  1  1  0  0  0  0
 17 14  2  0  0  0  0
 18  1  2  0  0  0  0
 19 18  1  0  0  0  0
 20  4  1  0  0  0  0
 21 23  1  0  0  0  0
 22 26  1  6  0  0  0
 22 16  1  0  0  0  0
 22 10  1  0  0  0  0
 23 11  1  1  0  0  0
 24 14  1  6  0  0  0
 24  8  1  0  0  0  0
 25 26  1  0  0  0  0
 27 21  1  0  0  0  0
 28 27  1  0  0  0  0
M  END
>  <MODEL>
1

>  <REMARK>
 VINA RESULT:      -4.6      0.000      0.000
  Name = 
  2 active torsions:
  status: ('A' for Active; 'I' for Inactive)
    1  A    between atoms: C_5  and  N_24
    2  A    between atoms: O_17  and  C_25
                            x       y       z     vdW  Elec       q    Type
                         _______ _______ _______ _____ _____    ______ ____

>  <TORSDO>
F 2

$$$$
=
 OpenBabel11122411533D

 28 31  0  0  1  0  0  0  0  0999 V2000
  180.8910  178.5610  138.1090 C   0  0  0  0  0  0  0  0  0  0  0  0
  184.4910  180.0880  139.1220 O   0  0  0  0  0  0  0  0  0  0  0  0
  179.7630  178.7240  140.6660 C   0  0  0  0  0  3  0  0  0  0  0  0
  181.4590  178.4710  136.8380 O   0  0  0  0  0  0  0  0  0  0  0  0
  185.0170  178.2020  140.6150 O   0  0  0  0  0  0  0  0  0  0  0  0
  184.9370  178.6550  139.1840 S   0  0  0  0  0  0  0  0  0  0  0  0
  186.4310  177.7590  137.0390 C   0  0  0  0  0  0  0  0  0  0  0  0
  183.8270  177.6310  138.2580 C   0  0  1  0  0  3  0  0  0  0  0  0
  178.9380  176.7270  136.1420 C   0  0  0  0  0  1  0  0  0  0  0  0
  182.4760  175.6730  138.2270 C   0  0  2  0  0  3  0  0  0  0  0  0
  185.5560  176.8320  136.8060 N   0  0  0  0  0  0  0  0  0  0  0  0
  186.5370  178.4610  138.3860 C   0  0  0  0  0  2  0  0  0  0  0  0
  180.2380  176.9020  135.5030 N   0  0  0  0  0  0  0  0  0  0  0  0
  181.4950  177.8850  139.1870 C   0  0  0  0  0  0  0  0  0  0  0  0
  187.3720  178.1550  135.9560 C   0  0  0  0  0  1  0  0  0  0  0  0
  181.2490  175.9290  135.9650 C   0  0  0  0  0  2  0  0  0  0  0  0
  180.9210  177.9700  140.4600 C   0  0  0  0  0  3  0  0  0  0  0  0
  179.7230  179.3070  138.3190 C   0  0  0  0  0  3  0  0  0  0  0  0
  179.1630  179.3910  139.5950 C   0  0  0  0  0  3  0  0  0  0  0  0
  180.6820  178.2930  135.6590 C   0  0  0  0  0  2  0  0  0  0  0  0
  183.6450  175.4510  137.3600 N   0  0  0  0  0  0  0  0  0  0  0  0
  181.1440  175.5510  137.4570 C   0  0  1  0  0  3  0  0  0  0  0  0
  184.6110  176.4360  137.8240 C   0  0  2  0  0  3  0  0  0  0  0  0
  182.6970  176.9920  139.0080 C   0  0  2  0  0  3  0  0  0  0  0  0
  180.0010  174.2140  138.8020 C   0  0  0  0  0  1  0  0  0  0  0  0
  180.6560  174.2480  137.5700 O   0  0  0  0  0  0  0  0  0  0  0  0
  184.1730  174.1370  137.6920 C   0  0  0  0  0  2  0  0  0  0  0  0
  183.9090  173.1760  136.5500 C   0  0  0  0  0  1  0  0  0  0  0  0
  1 18  2  0  0  0  0
  1 14  1  0  0  0  0
  2  6  2  0  0  0  0
  4  1  1  0  0  0  0
  6  5  2  0  0  0  0
  7 12  1  0  0  0  0
  8 24  1  0  0  0  0
  8  6  1  1  0  0  0
 10 21  1  6  0  0  0
 10 24  1  0  0  0  0
 11  7  2  0  0  0  0
 12  6  1  0  0  0  0
 13 20  1  0  0  0  0
 13 16  1  0  0  0  0
 13  9  1  0  0  0  0
 14 17  2  0  0  0  0
 15  7  1  0  0  0  0
 16 22  1  0  0  0  0
 17  3  1  0  0  0  0
 18 19  1  0  0  0  0
 19  3  2  0  0  0  0
 20  4  1  0  0  0  0
 21 27  1  0  0  0  0
 21 23  1  0  0  0  0
 22 26  1  6  0  0  0
 22 10  1  0  0  0  0
 23 11  1  6  0  0  0
 23  8  1  0  0  0  0
 24 14  1  6  0  0  0
 26 25  1  0  0  0  0
 28 27  1  0  0  0  0
M  END
>  <MODEL>
2

>  <REMARK>
 VINA RESULT:      -4.4      2.252      5.309
  Name = 
  2 active torsions:
  status: ('A' for Active; 'I' for Inactive)
    1  A    between atoms: C_5  and  N_24
    2  A    between atoms: O_17  and  C_25
                            x       y       z     vdW  Elec       q    Type
                         _______ _______ _______ _____ _____    ______ ____

>  <TORSDO>
F 2

$$$$
=
 OpenBabel11122411533D

 28 31  0  0  1  0  0  0  0  0999 V2000
  182.7970  177.9440  137.5970 C   0  0  0  0  0  0  0  0  0  0  0  0
  181.5240  180.3270  134.5940 O   0  0  0  0  0  0  0  0  0  0  0  0
  181.6980  175.5750  136.5900 C   0  0  0  0  0  3  0  0  0  0  0  0
  183.3350  179.1270  138.1020 O   0  0  0  0  0  0  0  0  0  0  0  0
  179.1500  179.9660  135.1390 O   0  0  0  0  0  0  0  0  0  0  0  0
  180.4080  180.6920  135.5300 S   0  0  0  0  0  0  0  0  0  0  0  0
  180.6260  183.1490  136.7750 C   0  0  0  0  0  0  0  0  0  0  0  0
  180.8630  180.3110  137.1990 C   0  0  1  0  0  3  0  0  0  0  0  0
  183.8000  177.4650  140.7290 C   0  0  0  0  0  1  0  0  0  0  0  0
  180.2550  179.2510  139.2400 C   0  0  2  0  0  3  0  0  0  0  0  0
  180.5830  182.5740  137.9350 N   0  0  0  0  0  0  0  0  0  0  0  0
  180.1260  182.4680  135.5080 C   0  0  0  0  0  2  0  0  0  0  0  0
  183.7710  178.8970  140.4450 N   0  0  0  0  0  0  0  0  0  0  0  0
  181.4090  177.8550  137.3710 C   0  0  0  0  0  0  0  0  0  0  0  0
  181.1800  184.5260  136.6700 C   0  0  0  0  0  1  0  0  0  0  0  0
  182.4320  179.4950  140.6160 C   0  0  0  0  0  2  0  0  0  0  0  0
  180.8700  176.6650  136.8710 C   0  0  0  0  0  3  0  0  0  0  0  0
  183.6210  176.8440  137.3250 C   0  0  0  0  0  3  0  0  0  0  0  0
  183.0720  175.6630  136.8190 C   0  0  0  0  0  3  0  0  0  0  0  0
  184.3360  179.1470  139.1140 C   0  0  0  0  0  2  0  0  0  0  0  0
  180.1880  180.7090  139.4300 N   0  0  0  0  0  0  0  0  0  0  0  0
  181.2600  178.5820  140.2020 C   0  0  1  0  0  3  0  0  0  0  0  0
  180.0740  181.2290  138.0750 C   0  0  2  0  0  3  0  0  0  0  0  0
  180.4600  178.9690  137.7310 C   0  0  2  0  0  3  0  0  0  0  0  0
  179.6190  177.2550  140.8760 C   0  0  0  0  0  1  0  0  0  0  0  0
  180.5900  178.1410  141.3450 O   0  0  0  0  0  0  0  0  0  0  0  0
  178.9310  180.9890  140.1070 C   0  0  0  0  0  2  0  0  0  0  0  0
  179.1890  181.2540  141.5770 C   0  0  0  0  0  1  0  0  0  0  0  0
  1  4  1  0  0  0  0
  2  6  2  0  0  0  0
  3 19  2  0  0  0  0
  3 17  1  0  0  0  0
  4 20  1  0  0  0  0
  5  6  2  0  0  0  0
  7 11  2  0  0  0  0
  8  6  1  6  0  0  0
  8 24  1  0  0  0  0
  8 23  1  0  0  0  0
 10 21  1  6  0  0  0
 10 22  1  0  0  0  0
 12  6  1  0  0  0  0
 12  7  1  0  0  0  0
 13 16  1  0  0  0  0
 13  9  1  0  0  0  0
 14  1  1  0  0  0  0
 15  7  1  0  0  0  0
 17 14  2  0  0  0  0
 18  1  2  0  0  0  0
 19 18  1  0  0  0  0
 20 13  1  0  0  0  0
 21 27  1  0  0  0  0
 22 16  1  0  0  0  0
 22 26  1  1  0  0  0
 23 11  1  1  0  0  0
 23 21  1  0  0  0  0
 24 14  1  1  0  0  0
 24 10  1  0  0  0  0
 25 26  1  0  0  0  0
 27 28  1  0  0  0  0
M  END
>  <MODEL>
3

>  <REMARK>
 VINA RESULT:      -4.2      2.666      5.172
  Name = 
  2 active torsions:
  status: ('A' for Active; 'I' for Inactive)
    1  A    between atoms: C_5  and  N_24
    2  A    between atoms: O_17  and  C_25
                            x       y       z     vdW  Elec       q    Type
                         _______ _______ _______ _____ _____    ______ ____

>  <TORSDO>
F 2

$$$$
=
 OpenBabel11122411533D

 28 31  0  0  1  0  0  0  0  0999 V2000
  187.4220  175.4460  136.6920 C   0  0  0  0  0  0  0  0  0  0  0  0
  189.5920  177.1150  139.6620 O   0  0  0  0  0  0  0  0  0  0  0  0
  189.0510  176.3310  134.5940 C   0  0  0  0  0  3  0  0  0  0  0  0
  186.6070  175.0150  137.7370 O   0  0  0  0  0  0  0  0  0  0  0  0
  189.1360  179.4060  138.8850 O   0  0  0  0  0  0  0  0  0  0  0  0
  188.5730  178.2170  139.6120 S   0  0  0  0  0  0  0  0  0  0  0  0
  186.6770  178.2040  141.6230 C   0  0  0  0  0  0  0  0  0  0  0  0
  187.0920  177.6420  138.8300 C   0  0  1  0  0  3  0  0  0  0  0  0
  184.5770  174.2440  135.4650 C   0  0  0  0  0  1  0  0  0  0  0  0
  185.4330  178.0310  137.1700 C   0  0  2  0  0  3  0  0  0  0  0  0
  185.7310  178.1280  140.7410 N   0  0  0  0  0  0  0  0  0  0  0  0
  188.0780  178.6900  141.2750 C   0  0  0  0  0  2  0  0  0  0  0  0
  184.4370  174.4420  136.9040 N   0  0  0  0  0  0  0  0  0  0  0  0
  187.6430  176.8260  136.5080 C   0  0  0  0  0  0  0  0  0  0  0  0
  186.3900  177.8090  143.0280 C   0  0  0  0  0  1  0  0  0  0  0  0
  184.0800  175.8280  137.2680 C   0  0  0  0  0  2  0  0  0  0  0  0
  188.4550  177.2570  135.4540 C   0  0  0  0  0  3  0  0  0  0  0  0
  188.0130  174.5220  135.8190 C   0  0  0  0  0  3  0  0  0  0  0  0
  188.8280  174.9650  134.7750 C   0  0  0  0  0  3  0  0  0  0  0  0
  185.6480  173.9740  137.5870 C   0  0  0  0  0  2  0  0  0  0  0  0
  184.8300  178.2450  138.4960 N   0  0  0  0  0  0  0  0  0  0  0  0
  184.7200  176.9130  136.3780 C   0  0  1  0  0  3  0  0  0  0  0  0
  185.9760  178.4820  139.3620 C   0  0  2  0  0  3  0  0  0  0  0  0
  186.9620  177.8710  137.3540 C   0  0  2  0  0  3  0  0  0  0  0  0
  182.5280  177.1230  136.1480 C   0  0  0  0  0  1  0  0  0  0  0  0
  183.7420  177.4740  135.5550 O   0  0  0  0  0  0  0  0  0  0  0  0
  184.0810  179.4910  138.4220 C   0  0  0  0  0  2  0  0  0  0  0  0
  182.7610  179.3380  139.1520 C   0  0  0  0  0  1  0  0  0  0  0  0
  1  4  1  0  0  0  0
  3 19  2  0  0  0  0
  3 17  1  0  0  0  0
  5  6  2  0  0  0  0
  6  2  2  0  0  0  0
  6 12  1  0  0  0  0
  7 15  1  0  0  0  0
  8 23  1  0  0  0  0
  8  6  1  1  0  0  0
  9 13  1  0  0  0  0
 10 24  1  0  0  0  0
 10 21  1  1  0  0  0
 11  7  2  0  0  0  0
 12  7  1  0  0  0  0
 13 16  1  0  0  0  0
 13 20  1  0  0  0  0
 14  1  1  0  0  0  0
 17 14  2  0  0  0  0
 18  1  2  0  0  0  0
 19 18  1  0  0  0  0
 20  4  1  0  0  0  0
 21 23  1  0  0  0  0
 22 26  1  1  0  0  0
 22 10  1  0  0  0  0
 22 16  1  0  0  0  0
 23 11  1  1  0  0  0
 24 14  1  6  0  0  0
 24  8  1  0  0  0  0
 26 25  1  0  0  0  0
 27 21  1  0  0  0  0
 27 28  1  0  0  0  0
M  END
>  <MODEL>
4

>  <REMARK>
 VINA RESULT:      -4.0      3.422      4.458
  Name = 
  2 active torsions:
  status: ('A' for Active; 'I' for Inactive)
    1  A    between atoms: C_5  and  N_24
    2  A    between atoms: O_17  and  C_25
                            x       y       z     vdW  Elec       q    Type
                         _______ _______ _______ _____ _____    ______ ____

>  <TORSDO>
F 2

$$$$
=
 OpenBabel11122411533D

 28 31  0  0  1  0  0  0  0  0999 V2000
  185.0970  176.3320  135.7500 C   0  0  0  0  0  0  0  0  0  0  0  0
  181.3170  177.3270  136.7690 O   0  0  0  0  0  0  0  0  0  0  0  0
  184.8100  173.5790  136.1750 C   0  0  0  0  0  3  0  0  0  0  0  0
  185.2410  177.7040  135.5490 O   0  0  0  0  0  0  0  0  0  0  0  0
  181.6150  176.5960  139.1020 O   0  0  0  0  0  0  0  0  0  0  0  0
  181.9090  177.6820  138.1040 S   0  0  0  0  0  0  0  0  0  0  0  0
  182.2640  180.3790  138.5910 C   0  0  0  0  0  0  0  0  0  0  0  0
  183.6540  177.9410  137.9470 C   0  0  1  0  0  3  0  0  0  0  0  0
  188.3140  177.0700  135.3550 C   0  0  0  0  0  1  0  0  0  0  0  0
  185.8270  177.4330  138.7700 C   0  0  2  0  0  3  0  0  0  0  0  0
  183.5320  180.1870  138.7730 N   0  0  0  0  0  0  0  0  0  0  0  0
  181.2470  179.2500  138.6860 C   0  0  0  0  0  2  0  0  0  0  0  0
  187.5600  178.3000  135.5780 N   0  0  0  0  0  0  0  0  0  0  0  0
  184.7230  175.8530  137.0210 C   0  0  0  0  0  0  0  0  0  0  0  0
  181.7770  181.7500  138.2820 C   0  0  0  0  0  1  0  0  0  0  0  0
  187.3280  178.5880  137.0080 C   0  0  0  0  0  2  0  0  0  0  0  0
  184.5860  174.4750  137.2230 C   0  0  0  0  0  3  0  0  0  0  0  0
  185.3320  175.4280  134.7050 C   0  0  0  0  0  3  0  0  0  0  0  0
  185.1850  174.0550  134.9170 C   0  0  0  0  0  3  0  0  0  0  0  0
  186.3160  178.2640  134.8020 C   0  0  0  0  0  2  0  0  0  0  0  0
  185.5000  178.8210  139.1340 N   0  0  0  0  0  0  0  0  0  0  0  0
  187.0890  177.3420  137.8860 C   0  0  1  0  0  3  0  0  0  0  0  0
  184.0470  178.8670  139.0530 C   0  0  2  0  0  3  0  0  0  0  0  0
  184.5480  176.7660  138.2080 C   0  0  2  0  0  3  0  0  0  0  0  0
  188.8960  178.3360  138.6940 C   0  0  0  0  0  1  0  0  0  0  0  0
  188.2090  177.1210  138.6910 O   0  0  0  0  0  0  0  0  0  0  0  0
  185.8590  178.9860  140.5340 C   0  0  0  0  0  2  0  0  0  0  0  0
  184.7290  178.4900  141.4140 C   0  0  0  0  0  1  0  0  0  0  0  0
  1 14  1  0  0  0  0
  2  6  2  0  0  0  0
  3 17  1  0  0  0  0
  4  1  1  0  0  0  0
  6 12  1  0  0  0  0
  6  5  2  0  0  0  0
  7 12  1  0  0  0  0
  7 11  2  0  0  0  0
  8  6  1  1  0  0  0
  8 24  1  0  0  0  0
  8 23  1  0  0  0  0
  9 13  1  0  0  0  0
 10 21  1  6  0  0  0
 13 16  1  0  0  0  0
 14 17  2  0  0  0  0
 15  7  1  0  0  0  0
 16 22  1  0  0  0  0
 18 19  1  0  0  0  0
 18  1  2  0  0  0  0
 19  3  2  0  0  0  0
 20  4  1  0  0  0  0
 20 13  1  0  0  0  0
 21 27  1  0  0  0  0
 22 26  1  1  0  0  0
 22 10  1  0  0  0  0
 23 11  1  6  0  0  0
 23 21  1  0  0  0  0
 24 14  1  6  0  0  0
 24 10  1  0  0  0  0
 26 25  1  0  0  0  0
 27 28  1  0  0  0  0
M  END
>  <MODEL>
5

>  <REMARK>
 VINA RESULT:      -3.9      2.963      5.287
  Name = 
  2 active torsions:
  status: ('A' for Active; 'I' for Inactive)
    1  A    between atoms: C_5  and  N_24
    2  A    between atoms: O_17  and  C_25
                            x       y       z     vdW  Elec       q    Type
                         _______ _______ _______ _____ _____    ______ ____

>  <TORSDO>
F 2

$$$$
=
 OpenBabel11122411533D

 28 31  0  0  1  0  0  0  0  0999 V2000
  184.2260  175.6840  137.6180 C   0  0  0  0  0  0  0  0  0  0  0  0
  184.5000  177.5830  141.1730 O   0  0  0  0  0  0  0  0  0  0  0  0
  186.6590  176.6120  136.5910 C   0  0  0  0  0  3  0  0  0  0  0  0
  183.0090  175.2310  138.1280 O   0  0  0  0  0  0  0  0  0  0  0  0
  184.4100  179.8140  140.1350 O   0  0  0  0  0  0  0  0  0  0  0  0
  183.6040  178.6130  140.5450 S   0  0  0  0  0  0  0  0  0  0  0  0
  180.9500  178.5340  141.3090 C   0  0  0  0  0  0  0  0  0  0  0  0
  182.7570  177.9160  139.1550 C   0  0  1  0  0  3  0  0  0  0  0  0
  182.4610  174.2580  135.1900 C   0  0  0  0  0  1  0  0  0  0  0  0
  182.1650  178.1430  136.8620 C   0  0  2  0  0  3  0  0  0  0  0  0
  180.5910  178.3690  140.0750 N   0  0  0  0  0  0  0  0  0  0  0  0
  182.3090  179.1020  141.6940 C   0  0  0  0  0  2  0  0  0  0  0  0
  181.5970  174.4900  136.3430 N   0  0  0  0  0  0  0  0  0  0  0  0
  184.4510  177.0690  137.4900 C   0  0  0  0  0  0  0  0  0  0  0  0
  180.0020  178.1630  142.3940 C   0  0  0  0  0  1  0  0  0  0  0  0
  181.0460  175.8590  136.3900 C   0  0  0  0  0  2  0  0  0  0  0  0
  185.6690  177.5220  136.9710 C   0  0  0  0  0  3  0  0  0  0  0  0
  185.2180  174.7750  137.2250 C   0  0  0  0  0  3  0  0  0  0  0  0
  186.4330  175.2400  136.7160 C   0  0  0  0  0  3  0  0  0  0  0  0
  182.3070  174.1240  137.5730 C   0  0  0  0  0  2  0  0  0  0  0  0
  180.9610  178.3570  137.6810 N   0  0  0  0  0  0  0  0  0  0  0  0
  182.0050  176.9570  135.8860 C   0  0  1  0  0  3  0  0  0  0  0  0
  181.4920  178.6960  138.9930 C   0  0  2  0  0  3  0  0  0  0  0  0
  183.3900  178.0920  137.8070 C   0  0  2  0  0  3  0  0  0  0  0  0
  180.2100  177.0840  134.5950 C   0  0  0  0  0  1  0  0  0  0  0  0
  181.5620  177.4260  134.6480 O   0  0  0  0  0  0  0  0  0  0  0  0
  180.3040  179.5470  137.1620 C   0  0  0  0  0  2  0  0  0  0  0  0
  181.1190  180.7760  137.5140 C   0  0  0  0  0  1  0  0  0  0  0  0
  1  4  1  0  0  0  0
  3 19  2  0  0  0  0
  3 17  1  0  0  0  0
  5  6  2  0  0  0  0
  6  2  2  0  0  0  0
  6 12  1  0  0  0  0
  7 12  1  0  0  0  0
  7 15  1  0  0  0  0
  8  6  1  1  0  0  0
  9 13  1  0  0  0  0
 10 21  1  1  0  0  0
 10 24  1  0  0  0  0
 11  7  2  0  0  0  0
 13 16  1  0  0  0  0
 13 20  1  0  0  0  0
 14  1  1  0  0  0  0
 17 14  2  0  0  0  0
 18  1  2  0  0  0  0
 19 18  1  0  0  0  0
 20  4  1  0  0  0  0
 21 23  1  0  0  0  0
 22 26  1  6  0  0  0
 22 16  1  0  0  0  0
 22 10  1  0  0  0  0
 23  8  1  0  0  0  0
 23 11  1  1  0  0  0
 24 14  1  6  0  0  0
 24  8  1  0  0  0  0
 25 26  1  0  0  0  0
 27 28  1  0  0  0  0
 27 21  1  0  0  0  0
M  END
>  <MODEL>
6

>  <REMARK>
 VINA RESULT:      -3.9      1.331      1.478
  Name = 
  2 active torsions:
  status: ('A' for Active; 'I' for Inactive)
    1  A    between atoms: C_5  and  N_24
    2  A    between atoms: O_17  and  C_25
                            x       y       z     vdW  Elec       q    Type
                         _______ _______ _______ _____ _____    ______ ____

>  <TORSDO>
F 2

$$$$
=
 OpenBabel11122411533D

 28 31  0  0  1  0  0  0  0  0999 V2000
  180.6220  179.4680  139.3280 C   0  0  0  0  0  0  0  0  0  0  0  0
  179.6540  177.6940  135.8300 O   0  0  0  0  0  0  0  0  0  0  0  0
  180.3020  182.1000  138.4310 C   0  0  0  0  0  3  0  0  0  0  0  0
  180.7910  178.1560  139.7700 O   0  0  0  0  0  0  0  0  0  0  0  0
  181.6040  178.6400  134.6610 O   0  0  0  0  0  0  0  0  0  0  0  0
  181.1380  177.5840  135.6250 S   0  0  0  0  0  0  0  0  0  0  0  0
  182.2380  175.0870  136.0610 C   0  0  0  0  0  0  0  0  0  0  0  0
  181.9800  177.7280  137.1760 C   0  0  1  0  0  3  0  0  0  0  0  0
  182.1360  179.4730  142.2870 C   0  0  0  0  0  1  0  0  0  0  0  0
  183.7150  178.7880  138.4120 C   0  0  2  0  0  3  0  0  0  0  0  0
  183.0230  175.5820  136.9650 N   0  0  0  0  0  0  0  0  0  0  0  0
  181.5660  175.9520  135.0030 C   0  0  0  0  0  2  0  0  0  0  0  0
  182.1540  178.1210  141.7380 N   0  0  0  0  0  0  0  0  0  0  0  0
  181.3850  179.9360  138.2410 C   0  0  0  0  0  0  0  0  0  0  0  0
  181.9830  173.6210  136.0480 C   0  0  0  0  0  1  0  0  0  0  0  0
  183.2690  177.8910  140.7980 C   0  0  0  0  0  2  0  0  0  0  0  0
  181.2210  181.2550  137.8030 C   0  0  0  0  0  3  0  0  0  0  0  0
  179.7110  180.3230  139.9620 C   0  0  0  0  0  3  0  0  0  0  0  0
  179.5500  181.6350  139.5120 C   0  0  0  0  0  3  0  0  0  0  0  0
  180.8470  177.8090  141.1500 C   0  0  0  0  0  2  0  0  0  0  0  0
  184.1050  177.3910  138.1580 N   0  0  0  0  0  0  0  0  0  0  0  0
  183.6340  179.1070  139.9210 C   0  0  1  0  0  3  0  0  0  0  0  0
  183.2780  177.0030  137.0250 C   0  0  2  0  0  3  0  0  0  0  0  0
  182.4470  179.0950  137.5790 C   0  0  2  0  0  3  0  0  0  0  0  0
  185.3970  178.6630  141.1860 C   0  0  0  0  0  1  0  0  0  0  0  0
  184.8500  179.6400  140.3520 O   0  0  0  0  0  0  0  0  0  0  0  0
  185.4850  177.4160  137.6970 C   0  0  0  0  0  2  0  0  0  0  0  0
  185.5160  177.4560  136.1810 C   0  0  0  0  0  1  0  0  0  0  0  0
  1  4  1  0  0  0  0
  1 18  1  0  0  0  0
  3 19  1  0  0  0  0
  4 20  1  0  0  0  0
  5  6  2  0  0  0  0
  6  2  2  0  0  0  0
  7 11  2  0  0  0  0
  8  6  1  6  0  0  0
  8 24  1  0  0  0  0
 10 21  1  1  0  0  0
 10 22  1  0  0  0  0
 12  6  1  0  0  0  0
 12  7  1  0  0  0  0
 13  9  1  0  0  0  0
 14  1  2  0  0  0  0
 15  7  1  0  0  0  0
 16 13  1  0  0  0  0
 17 14  1  0  0  0  0
 17  3  2  0  0  0  0
 19 18  2  0  0  0  0
 20 13  1  0  0  0  0
 22 26  1  1  0  0  0
 22 16  1  0  0  0  0
 23 11  1  1  0  0  0
 23  8  1  0  0  0  0
 23 21  1  0  0  0  0
 24 14  1  1  0  0  0
 24 10  1  0  0  0  0
 26 25  1  0  0  0  0
 27 21  1  0  0  0  0
 28 27  1  0  0  0  0
M  END
>  <MODEL>
7

>  <REMARK>
 VINA RESULT:      -3.9      2.157      6.083
  Name = 
  2 active torsions:
  status: ('A' for Active; 'I' for Inactive)
    1  A    between atoms: C_5  and  N_24
    2  A    between atoms: O_17  and  C_25
                            x       y       z     vdW  Elec       q    Type
                         _______ _______ _______ _____ _____    ______ ____

>  <TORSDO>
F 2

$$$$
=
 OpenBabel11122411533D

 28 31  0  0  1  0  0  0  0  0999 V2000
  184.3900  175.1990  136.9210 C   0  0  0  0  0  0  0  0  0  0  0  0
  182.0510  177.5390  139.2380 O   0  0  0  0  0  0  0  0  0  0  0  0
  184.7650  177.0740  134.8770 C   0  0  0  0  0  3  0  0  0  0  0  0
  184.1940  174.2620  137.9360 O   0  0  0  0  0  0  0  0  0  0  0  0
  180.2510  177.6260  137.5600 O   0  0  0  0  0  0  0  0  0  0  0  0
  180.9080  176.7860  138.6200 S   0  0  0  0  0  0  0  0  0  0  0  0
  179.7440  174.8420  140.2030 C   0  0  0  0  0  0  0  0  0  0  0  0
  181.4830  175.2530  137.9460 C   0  0  1  0  0  3  0  0  0  0  0  0
  185.4660  172.2200  135.9140 C   0  0  0  0  0  1  0  0  0  0  0  0
  181.5320  173.7950  136.0660 C   0  0  2  0  0  3  0  0  0  0  0  0
  180.0110  173.9430  139.3090 N   0  0  0  0  0  0  0  0  0  0  0  0
  179.7050  176.3290  139.8780 C   0  0  0  0  0  2  0  0  0  0  0  0
  184.6650  172.0600  137.1230 N   0  0  0  0  0  0  0  0  0  0  0  0
  183.2760  175.7200  136.2340 C   0  0  0  0  0  0  0  0  0  0  0  0
  179.4600  174.4130  141.5990 C   0  0  0  0  0  1  0  0  0  0  0  0
  183.2150  171.9950  136.8550 C   0  0  0  0  0  2  0  0  0  0  0  0
  183.4750  176.6540  135.2120 C   0  0  0  0  0  3  0  0  0  0  0  0
  185.6820  175.6150  136.5740 C   0  0  0  0  0  3  0  0  0  0  0  0
  185.8680  176.5540  135.5560 C   0  0  0  0  0  3  0  0  0  0  0  0
  185.0140  173.1090  138.0880 C   0  0  0  0  0  2  0  0  0  0  0  0
  180.6820  173.1920  137.1060 N   0  0  0  0  0  0  0  0  0  0  0  0
  182.7320  172.8950  135.6990 C   0  0  1  0  0  3  0  0  0  0  0  0
  180.3140  174.3210  137.9480 C   0  0  2  0  0  3  0  0  0  0  0  0
  181.8700  175.2430  136.4970 C   0  0  2  0  0  3  0  0  0  0  0  0
  182.3040  170.8030  135.1100 C   0  0  0  0  0  1  0  0  0  0  0  0
  182.4000  172.0990  134.6010 O   0  0  0  0  0  0  0  0  0  0  0  0
  179.4690  172.7350  136.4450 C   0  0  0  0  0  2  0  0  0  0  0  0
  178.9910  171.4480  137.0870 C   0  0  0  0  0  1  0  0  0  0  0  0
  1  4  1  0  0  0  0
  3 17  2  0  0  0  0
  3 19  1  0  0  0  0
  4 20  1  0  0  0  0
  5  6  2  0  0  0  0
  6  2  2  0  0  0  0
  6 12  1  0  0  0  0
  7 15  1  0  0  0  0
  8 23  1  0  0  0  0
  8  6  1  6  0  0  0
  9 13  1  0  0  0  0
 10 24  1  0  0  0  0
 10 21  1  1  0  0  0
 11  7  2  0  0  0  0
 12  7  1  0  0  0  0
 13 20  1  0  0  0  0
 14  1  2  0  0  0  0
 16 13  1  0  0  0  0
 17 14  1  0  0  0  0
 18  1  1  0  0  0  0
 19 18  2  0  0  0  0
 21 23  1  0  0  0  0
 22 26  1  6  0  0  0
 22 10  1  0  0  0  0
 22 16  1  0  0  0  0
 23 11  1  1  0  0  0
 24 14  1  1  0  0  0
 24  8  1  0  0  0  0
 26 25  1  0  0  0  0
 27 28  1  0  0  0  0
 27 21  1  0  0  0  0
M  END
>  <MODEL>
8

>  <REMARK>
 VINA RESULT:      -3.7      3.406      5.252
  Name = 
  2 active torsions:
  status: ('A' for Active; 'I' for Inactive)
    1  A    between atoms: C_5  and  N_24
    2  A    between atoms: O_17  and  C_25
                            x       y       z     vdW  Elec       q    Type
                         _______ _______ _______ _____ _____    ______ ____

>  <TORSDO>
F 2

$$$$
=
 OpenBabel11122411533D

 28 31  0  0  1  0  0  0  0  0999 V2000
  182.7340  178.0310  136.8770 C   0  0  0  0  0  0  0  0  0  0  0  0
  186.5490  179.2970  137.2850 O   0  0  0  0  0  0  0  0  0  0  0  0
  181.8360  178.9730  139.3550 C   0  0  0  0  0  3  0  0  0  0  0  0
  183.1870  177.5530  135.6470 O   0  0  0  0  0  0  0  0  0  0  0  0
  186.9800  177.7970  139.1890 O   0  0  0  0  0  0  0  0  0  0  0  0
  186.8380  177.8810  137.6950 S   0  0  0  0  0  0  0  0  0  0  0  0
  188.0510  176.2930  135.7860 C   0  0  0  0  0  0  0  0  0  0  0  0
  185.5530  176.8060  137.1210 C   0  0  1  0  0  3  0  0  0  0  0  0
  180.4430  176.0220  135.5500 C   0  0  0  0  0  1  0  0  0  0  0  0
  183.9980  175.0890  137.6640 C   0  0  2  0  0  3  0  0  0  0  0  0
  187.0650  175.4560  135.8440 N   0  0  0  0  0  0  0  0  0  0  0  0
  188.3400  177.2920  136.8990 C   0  0  0  0  0  2  0  0  0  0  0  0
  181.7000  175.8660  134.8250 N   0  0  0  0  0  0  0  0  0  0  0  0
  183.3440  177.5770  138.0640 C   0  0  0  0  0  0  0  0  0  0  0  0
  188.9410  176.2820  134.5940 C   0  0  0  0  0  1  0  0  0  0  0  0
  182.6310  174.9210  135.4740 C   0  0  0  0  0  2  0  0  0  0  0  0
  182.8840  178.0510  139.2970 C   0  0  0  0  0  3  0  0  0  0  0  0
  181.6760  178.9470  136.9420 C   0  0  0  0  0  3  0  0  0  0  0  0
  181.2310  179.4190  138.1790 C   0  0  0  0  0  3  0  0  0  0  0  0
  182.3040  177.1830  134.5940 C   0  0  0  0  0  2  0  0  0  0  0  0
  185.0630  174.5110  136.8280 N   0  0  0  0  0  0  0  0  0  0  0  0
  182.6040  174.9460  137.0160 C   0  0  1  0  0  3  0  0  0  0  0  0
  186.1650  175.4510  136.9750 C   0  0  2  0  0  3  0  0  0  0  0  0
  184.4220  176.5230  138.0650 C   0  0  2  0  0  3  0  0  0  0  0  0
  181.0580  174.2280  138.4300 C   0  0  0  0  0  1  0  0  0  0  0  0
  181.9870  173.7860  137.4870 O   0  0  0  0  0  0  0  0  0  0  0  0
  185.4690  173.2670  137.4640 C   0  0  0  0  0  2  0  0  0  0  0  0
  185.0790  172.0940  136.5870 C   0  0  0  0  0  1  0  0  0  0  0  0
  1 18  2  0  0  0  0
  1 14  1  0  0  0  0
  2  6  2  0  0  0  0
  4  1  1  0  0  0  0
  6  5  2  0  0  0  0
  7 11  2  0  0  0  0
  7 12  1  0  0  0  0
  8  6  1  1  0  0  0
  8 24  1  0  0  0  0
 10 21  1  6  0  0  0
 10 24  1  0  0  0  0
 12  6  1  0  0  0  0
 13 16  1  0  0  0  0
 13  9  1  0  0  0  0
 14 17  2  0  0  0  0
 15  7  1  0  0  0  0
 16 22  1  0  0  0  0
 17  3  1  0  0  0  0
 18 19  1  0  0  0  0
 19  3  2  0  0  0  0
 20 13  1  0  0  0  0
 20  4  1  0  0  0  0
 21 23  1  0  0  0  0
 21 27  1  0  0  0  0
 22 26  1  1  0  0  0
 22 10  1  0  0  0  0
 23 11  1  6  0  0  0
 23  8  1  0  0  0  0
 24 14  1  6  0  0  0
 26 25  1  0  0  0  0
 28 27  1  0  0  0  0
M  END
>  <MODEL>
9

>  <REMARK>
 VINA RESULT:      -3.7      2.871      6.083
  Name = 
  2 active torsions:
  status: ('A' for Active; 'I' for Inactive)
    1  A    between atoms: C_5  and  N_24
    2  A    between atoms: O_17  and  C_25
                            x       y       z     vdW  Elec       q    Type
                         _______ _______ _______ _____ _____    ______ ____

>  <TORSDO>
F 2

$$$$
