=
 OpenBabel11122411133D

 31 35  0  0  1  0  0  0  0  0999 V2000
  190.0360  175.8950  142.6610 C   0  0  0  0  0  0  0  0  0  0  0  0
  186.7170  177.4260  143.6690 C   0  0  2  0  0  3  0  0  0  0  0  0
  186.6570  178.0260  145.0640 C   0  0  0  0  0  0  0  0  0  0  0  0
  187.5700  178.0710  147.3230 C   0  0  0  0  0  0  0  0  0  0  0  0
  188.1400  177.5080  143.0840 C   0  0  1  0  0  3  0  0  0  0  0  0
  190.2780  176.4520  141.2890 C   0  0  0  0  0  2  0  0  0  0  0  0
  187.5980  177.5940  146.0120 C   0  0  0  0  0  3  0  0  0  0  0  0
  186.0480  179.1680  141.8890 C   0  0  2  0  0  3  0  0  0  0  0  0
  190.7910  174.9930  143.1070 O   0  0  0  0  0  0  0  0  0  0  0  0
  184.5910  179.4280  144.5460 C   0  0  0  0  0  2  0  0  0  0  0  0
  188.5850  177.6090  148.3040 C   0  0  0  0  0  1  0  0  0  0  0  0
  187.4470  179.0620  141.2570 C   0  0  0  0  0  2  0  0  0  0  0  0
  185.6340  177.9100  142.6750 C   0  0  2  0  0  3  0  0  0  0  0  0
  188.8960  176.3070  143.4240 N   0  0  0  0  0  2  0  0  0  0  0  0
  186.5880  178.9820  147.7110 C   0  0  0  0  0  3  0  0  0  0  0  0
  188.1540  177.7480  141.5730 C   0  0  1  0  0  3  0  0  0  0  0  0
  189.5980  177.8070  141.0960 C   0  0  0  0  0  2  0  0  0  0  0  0
  184.0010  178.0920  143.4660 S   0  0  0  0  0  0  0  0  0  0  0  0
  185.6430  178.9250  145.4780 C   0  0  0  0  0  0  0  0  0  0  0  0
  185.6290  179.4050  146.7920 C   0  0  0  0  0  3  0  0  0  0  0  0
  186.2020  178.2870  139.1720 O   0  0  0  0  0  0  0  0  0  0  0  0
  185.1970  178.9670  139.5130 C   0  0  0  0  0  0  0  0  0  0  0  0
  185.0660  179.4490  140.8530 N   0  0  0  0  0  2  0  0  0  0  0  0
  181.1720  179.3550  139.0520 C   0  0  1  0  0  3  0  0  0  0  0  0
  183.3930  180.5550  138.9110 C   0  0  0  0  0  2  0  0  0  0  0  0
  183.8770  176.8700  138.2980 F   0  0  0  0  0  0  0  0  0  0  0  0
  180.6610  179.7100  140.2850 F   0  0  0  0  0  0  0  0  0  0  0  0
  181.9390  180.5380  138.4450 C   0  0  0  0  0  2  0  0  0  0  0  0
  183.2020  178.0780  138.2390 C   0  0  2  0  0  3  0  0  0  0  0  0
  184.1410  179.2760  138.4980 C   0  0  2  0  0  3  0  0  0  0  0  0
  182.0160  178.0800  139.1990 C   0  0  0  0  0  2  0  0  0  0  0  0
  1  9  2  0  0  0  0
  1 14  1  0  0  0  0
  2  3  1  1  0  0  0
  3 19  2  0  0  0  0
  3  7  1  0  0  0  0
  4 15  1  0  0  0  0
  4 11  1  0  0  0  0
  5 14  1  6  0  0  0
  5  2  1  0  0  0  0
  6  1  1  0  0  0  0
  7  4  2  0  0  0  0
  8 23  1  6  0  0  0
  8 13  1  0  0  0  0
 10 19  1  0  0  0  0
 12 16  1  0  0  0  0
 12  8  1  0  0  0  0
 13 18  1  1  0  0  0
 13  2  1  0  0  0  0
 16 17  1  1  0  0  0
 16  5  1  0  0  0  0
 17  6  1  0  0  0  0
 18 10  1  0  0  0  0
 19 20  1  0  0  0  0
 20 15  2  0  0  0  0
 21 22  2  0  0  0  0
 22 23  1  0  0  0  0
 24 31  1  0  0  0  0
 24 27  1  1  0  0  0
 28 25  1  0  0  0  0
 28 24  1  0  0  0  0
 29 26  1  1  0  0  0
 29 30  1  0  0  0  0
 29 31  1  0  0  0  0
 30 25  1  0  0  0  0
 30 22  1  1  0  0  0
M  END
>  <MODEL>
1

>  <REMARK>
 VINA RESULT:      -9.4      0.000      0.000
  Name = 
  2 active torsions:
  status: ('A' for Active; 'I' for Inactive)
    1  A    between atoms: C_5  and  C_30
    2  A    between atoms: C_10  and  N_16
                            x       y       z     vdW  Elec       q    Type
                         _______ _______ _______ _____ _____    ______ ____

>  <TORSDO>
F 2

$$$$
=
 OpenBabel11122411133D

 31 35  0  0  1  0  0  0  0  0999 V2000
  191.3800  176.0980  143.9720 C   0  0  0  0  0  0  0  0  0  0  0  0
  187.7750  177.2400  143.6860 C   0  0  2  0  0  3  0  0  0  0  0  0
  187.1780  177.8770  144.9300 C   0  0  0  0  0  0  0  0  0  0  0  0
  187.2520  178.1170  147.3540 C   0  0  0  0  0  0  0  0  0  0  0  0
  189.2960  177.4770  143.6090 C   0  0  1  0  0  3  0  0  0  0  0  0
  192.0170  176.6310  142.7230 C   0  0  0  0  0  2  0  0  0  0  0  0
  187.7780  177.6000  146.1690 C   0  0  0  0  0  3  0  0  0  0  0  0
  187.5780  178.8200  141.6580 C   0  0  2  0  0  3  0  0  0  0  0  0
  192.0260  175.3140  144.7130 O   0  0  0  0  0  0  0  0  0  0  0  0
  185.2800  178.9920  143.6430 C   0  0  0  0  0  2  0  0  0  0  0  0
  187.9120  177.8200  148.6520 C   0  0  0  0  0  1  0  0  0  0  0  0
  189.1120  178.8660  141.5430 C   0  0  0  0  0  2  0  0  0  0  0  0
  187.0540  177.5490  142.3520 C   0  0  2  0  0  3  0  0  0  0  0  0
  190.0110  176.3920  144.2740 N   0  0  0  0  0  2  0  0  0  0  0  0
  186.1070  178.9120  147.3190 C   0  0  0  0  0  3  0  0  0  0  0  0
  189.8010  177.6620  142.1770 C   0  0  1  0  0  3  0  0  0  0  0  0
  191.3070  177.8820  142.2100 C   0  0  0  0  0  2  0  0  0  0  0  0
  185.2390  177.5550  142.5330 S   0  0  0  0  0  0  0  0  0  0  0  0
  185.9960  178.6570  144.9090 C   0  0  0  0  0  0  0  0  0  0  0  0
  185.4820  179.1790  146.1010 C   0  0  0  0  0  3  0  0  0  0  0  0
  188.3190  177.2810  139.3640 O   0  0  0  0  0  0  0  0  0  0  0  0
  187.3960  178.1280  139.2290 C   0  0  0  0  0  0  0  0  0  0  0  0
  186.9870  178.9380  140.3340 N   0  0  0  0  0  2  0  0  0  0  0  0
  187.2540  176.5450  135.4820 C   0  0  1  0  0  3  0  0  0  0  0  0
  185.9190  177.0240  137.5750 C   0  0  0  0  0  2  0  0  0  0  0  0
  188.7340  179.5050  137.2460 F   0  0  0  0  0  0  0  0  0  0  0  0
  187.6170  175.2170  135.5960 F   0  0  0  0  0  0  0  0  0  0  0  0
  185.8530  176.7550  136.0730 C   0  0  0  0  0  2  0  0  0  0  0  0
  187.7360  178.6650  136.7820 C   0  0  2  0  0  3  0  0  0  0  0  0
  186.7350  178.2870  137.8960 C   0  0  2  0  0  3  0  0  0  0  0  0
  188.3370  177.4250  136.1270 C   0  0  0  0  0  2  0  0  0  0  0  0
  1 14  1  0  0  0  0
  1  9  2  0  0  0  0
  2  3  1  1  0  0  0
  3  7  1  0  0  0  0
  4 11  1  0  0  0  0
  5  2  1  0  0  0  0
  5 14  1  6  0  0  0
  6  1  1  0  0  0  0
  7  4  2  0  0  0  0
  8 23  1  6  0  0  0
  8 13  1  0  0  0  0
 10 19  1  0  0  0  0
 12  8  1  0  0  0  0
 13 18  1  1  0  0  0
 13  2  1  0  0  0  0
 15  4  1  0  0  0  0
 16 12  1  1  0  0  0
 16 17  1  0  0  0  0
 16  5  1  0  0  0  0
 17  6  1  0  0  0  0
 18 10  1  0  0  0  0
 19  3  2  0  0  0  0
 19 20  1  0  0  0  0
 20 15  2  0  0  0  0
 22 21  2  0  0  0  0
 22 23  1  0  0  0  0
 24 27  1  1  0  0  0
 24 28  1  0  0  0  0
 24 31  1  0  0  0  0
 25 30  1  0  0  0  0
 28 25  1  0  0  0  0
 29 26  1  1  0  0  0
 29 30  1  0  0  0  0
 30 22  1  1  0  0  0
 31 29  1  0  0  0  0
M  END
>  <MODEL>
2

>  <REMARK>
 VINA RESULT:      -9.0      2.861      3.461
  Name = 
  2 active torsions:
  status: ('A' for Active; 'I' for Inactive)
    1  A    between atoms: C_5  and  C_30
    2  A    between atoms: C_10  and  N_16
                            x       y       z     vdW  Elec       q    Type
                         _______ _______ _______ _____ _____    ______ ____

>  <TORSDO>
F 2

$$$$
=
 OpenBabel11122411133D

 31 35  0  0  1  0  0  0  0  0999 V2000
  189.3020  176.6780  141.5210 C   0  0  0  0  0  0  0  0  0  0  0  0
  186.9940  177.3880  144.4450 C   0  0  2  0  0  3  0  0  0  0  0  0
  187.6720  177.6610  145.7770 C   0  0  0  0  0  0  0  0  0  0  0  0
  189.6500  177.3800  147.1730 C   0  0  0  0  0  0  0  0  0  0  0  0
  187.8810  177.8270  143.2640 C   0  0  1  0  0  3  0  0  0  0  0  0
  188.7560  177.5440  140.4240 C   0  0  0  0  0  2  0  0  0  0  0  0
  188.9870  177.2010  145.9580 C   0  0  0  0  0  3  0  0  0  0  0  0
  185.4270  179.3300  143.7950 C   0  0  2  0  0  3  0  0  0  0  0  0
  190.2040  175.8410  141.2610 O   0  0  0  0  0  0  0  0  0  0  0  0
  185.6110  178.7770  146.7800 C   0  0  0  0  0  2  0  0  0  0  0  0
  191.0460  176.8960  147.3350 C   0  0  0  0  0  1  0  0  0  0  0  0
  186.2730  179.5940  142.5370 C   0  0  0  0  0  2  0  0  0  0  0  0
  185.5340  177.8830  144.3120 C   0  0  2  0  0  3  0  0  0  0  0  0
  188.7360  176.7240  142.8360 N   0  0  0  0  0  2  0  0  0  0  0  0
  189.0030  178.0120  148.2330 C   0  0  0  0  0  3  0  0  0  0  0  0
  187.0770  178.3790  142.0850 C   0  0  1  0  0  3  0  0  0  0  0  0
  188.0400  178.7760  140.9740 C   0  0  0  0  0  2  0  0  0  0  0  0
  184.5730  177.6200  145.8400 S   0  0  0  0  0  0  0  0  0  0  0  0
  187.0120  178.2710  146.8720 C   0  0  0  0  0  0  0  0  0  0  0  0
  187.6890  178.4540  148.0830 C   0  0  0  0  0  3  0  0  0  0  0  0
  183.7190  177.9290  141.9780 O   0  0  0  0  0  0  0  0  0  0  0  0
  183.2310  178.9050  142.6080 C   0  0  0  0  0  0  0  0  0  0  0  0
  184.0360  179.6550  143.5220 N   0  0  0  0  0  2  0  0  0  0  0  0
  179.6500  177.4080  141.3860 C   0  0  1  0  0  3  0  0  0  0  0  0
  180.9020  178.4520  143.3190 C   0  0  0  0  0  2  0  0  0  0  0  0
  182.4180  179.5570  140.0530 F   0  0  0  0  0  0  0  0  0  0  0  0
  179.6730  176.0510  141.6460 F   0  0  0  0  0  0  0  0  0  0  0  0
  179.5290  178.1890  142.7030 C   0  0  0  0  0  2  0  0  0  0  0  0
  181.3880  179.1840  140.9010 C   0  0  2  0  0  3  0  0  0  0  0  0
  181.8000  179.2810  142.3860 C   0  0  2  0  0  3  0  0  0  0  0  0
  180.8820  177.7880  140.5510 C   0  0  0  0  0  2  0  0  0  0  0  0
  1 14  1  0  0  0  0
  2  3  1  1  0  0  0
  3  7  2  0  0  0  0
  3 19  1  0  0  0  0
  4 11  1  0  0  0  0
  4 15  2  0  0  0  0
  5 14  1  6  0  0  0
  5  2  1  0  0  0  0
  6 17  1  0  0  0  0
  6  1  1  0  0  0  0
  7  4  1  0  0  0  0
  8 23  1  6  0  0  0
  8 13  1  0  0  0  0
  9  1  2  0  0  0  0
 10 19  1  0  0  0  0
 12  8  1  0  0  0  0
 13  2  1  0  0  0  0
 13 18  1  1  0  0  0
 16 17  1  6  0  0  0
 16 12  1  0  0  0  0
 16  5  1  0  0  0  0
 18 10  1  0  0  0  0
 19 20  2  0  0  0  0
 20 15  1  0  0  0  0
 21 22  2  0  0  0  0
 22 23  1  0  0  0  0
 24 27  1  1  0  0  0
 24 28  1  0  0  0  0
 28 25  1  0  0  0  0
 29 26  1  6  0  0  0
 29 30  1  0  0  0  0
 30 22  1  6  0  0  0
 30 25  1  0  0  0  0
 31 29  1  0  0  0  0
 31 24  1  0  0  0  0
M  END
>  <MODEL>
3

>  <REMARK>
 VINA RESULT:      -8.8      2.157      2.815
  Name = 
  2 active torsions:
  status: ('A' for Active; 'I' for Inactive)
    1  A    between atoms: C_5  and  C_30
    2  A    between atoms: C_10  and  N_16
                            x       y       z     vdW  Elec       q    Type
                         _______ _______ _______ _____ _____    ______ ____

>  <TORSDO>
F 2

$$$$
=
 OpenBabel11122411133D

 31 35  0  0  1  0  0  0  0  0999 V2000
  184.9130  179.2350  139.0130 C   0  0  0  0  0  0  0  0  0  0  0  0
  188.3560  178.1780  140.1980 C   0  0  2  0  0  3  0  0  0  0  0  0
  188.4260  177.5840  141.5950 C   0  0  0  0  0  0  0  0  0  0  0  0
  187.4110  177.3960  143.8020 C   0  0  0  0  0  0  0  0  0  0  0  0
  186.9920  177.9010  139.5390 C   0  0  1  0  0  3  0  0  0  0  0  0
  184.8250  178.6590  137.6310 C   0  0  0  0  0  2  0  0  0  0  0  0
  187.3850  177.8740  142.4910 C   0  0  0  0  0  3  0  0  0  0  0  0
  189.3560  176.5590  138.4580 C   0  0  2  0  0  3  0  0  0  0  0  0
  184.0160  180.0190  139.4180 O   0  0  0  0  0  0  0  0  0  0  0  0
  190.6930  176.4900  141.1890 C   0  0  0  0  0  2  0  0  0  0  0  0
  186.2900  177.7050  144.7280 C   0  0  0  0  0  1  0  0  0  0  0  0
  187.9920  176.4720  137.7530 C   0  0  0  0  0  2  0  0  0  0  0  0
  189.5470  177.8580  139.2630 C   0  0  2  0  0  3  0  0  0  0  0  0
  186.0570  178.9820  139.8370 N   0  0  0  0  0  2  0  0  0  0  0  0
  188.4890  176.6300  144.2430 C   0  0  0  0  0  3  0  0  0  0  0  0
  187.0920  177.6720  138.0300 C   0  0  1  0  0  3  0  0  0  0  0  0
  185.6970  177.4140  137.4760 C   0  0  0  0  0  2  0  0  0  0  0  0
  191.1460  177.9020  140.1410 S   0  0  0  0  0  0  0  0  0  0  0  0
  189.5330  176.8340  142.0630 C   0  0  0  0  0  0  0  0  0  0  0  0
  189.5450  176.3520  143.3760 C   0  0  0  0  0  3  0  0  0  0  0  0
  190.8500  174.1760  137.9400 O   0  0  0  0  0  0  0  0  0  0  0  0
  191.1230  175.1990  137.2570 C   0  0  0  0  0  0  0  0  0  0  0  0
  190.4220  176.4260  137.4760 N   0  0  0  0  0  2  0  0  0  0  0  0
  194.7080  173.4580  136.4380 C   0  0  1  0  0  3  0  0  0  0  0  0
  192.3020  173.6810  135.6950 C   0  0  0  0  0  2  0  0  0  0  0  0
  193.3680  176.7750  137.5610 F   0  0  0  0  0  0  0  0  0  0  0  0
  194.7480  172.2710  137.1450 F   0  0  0  0  0  0  0  0  0  0  0  0
  193.7260  173.3340  135.2650 C   0  0  0  0  0  2  0  0  0  0  0  0
  193.5440  175.6890  136.7200 C   0  0  2  0  0  3  0  0  0  0  0  0
  192.1970  175.1230  136.2190 C   0  0  2  0  0  3  0  0  0  0  0  0
  194.3840  174.6110  137.3990 C   0  0  0  0  0  2  0  0  0  0  0  0
  1  9  2  0  0  0  0
  1 14  1  0  0  0  0
  2  3  1  1  0  0  0
  3 19  2  0  0  0  0
  3  7  1  0  0  0  0
  4 15  1  0  0  0  0
  4 11  1  0  0  0  0
  5 14  1  6  0  0  0
  5  2  1  0  0  0  0
  6  1  1  0  0  0  0
  7  4  2  0  0  0  0
  8 23  1  6  0  0  0
  8 13  1  0  0  0  0
 10 19  1  0  0  0  0
 12 16  1  0  0  0  0
 12  8  1  0  0  0  0
 13 18  1  1  0  0  0
 13  2  1  0  0  0  0
 16 17  1  1  0  0  0
 16  5  1  0  0  0  0
 17  6  1  0  0  0  0
 18 10  1  0  0  0  0
 19 20  1  0  0  0  0
 20 15  2  0  0  0  0
 22 23  1  0  0  0  0
 22 21  2  0  0  0  0
 24 27  1  1  0  0  0
 24 31  1  0  0  0  0
 25 30  1  0  0  0  0
 28 25  1  0  0  0  0
 28 24  1  0  0  0  0
 29 31  1  0  0  0  0
 29 26  1  1  0  0  0
 30 29  1  0  0  0  0
 30 22  1  1  0  0  0
M  END
>  <MODEL>
4

>  <REMARK>
 VINA RESULT:      -8.5      4.738      8.146
  Name = 
  2 active torsions:
  status: ('A' for Active; 'I' for Inactive)
    1  A    between atoms: C_5  and  C_30
    2  A    between atoms: C_10  and  N_16
                            x       y       z     vdW  Elec       q    Type
                         _______ _______ _______ _____ _____    ______ ____

>  <TORSDO>
F 2

$$$$
=
 OpenBabel11122411133D

 31 35  0  0  1  0  0  0  0  0999 V2000
  187.1310  178.5070  147.6350 C   0  0  0  0  0  0  0  0  0  0  0  0
  189.6400  177.9490  144.8470 C   0  0  2  0  0  3  0  0  0  0  0  0
  190.6340  176.8190  145.0630 C   0  0  0  0  0  0  0  0  0  0  0  0
  191.8040  175.3840  146.6480 C   0  0  0  0  0  0  0  0  0  0  0  0
  188.3060  177.6650  145.5640 C   0  0  1  0  0  3  0  0  0  0  0  0
  185.8230  178.6300  146.9110 C   0  0  0  0  0  2  0  0  0  0  0  0
  190.8700  176.3860  146.3770 C   0  0  0  0  0  3  0  0  0  0  0  0
  188.3480  177.6290  142.6390 C   0  0  2  0  0  3  0  0  0  0  0  0
  187.1850  178.7570  148.8660 O   0  0  0  0  0  0  0  0  0  0  0  0
  191.2300  176.6570  142.5890 C   0  0  0  0  0  2  0  0  0  0  0  0
  192.0260  174.9340  148.0460 C   0  0  0  0  0  1  0  0  0  0  0  0
  187.0290  177.5280  143.4230 C   0  0  0  0  0  2  0  0  0  0  0  0
  189.4450  178.4110  143.3830 C   0  0  2  0  0  3  0  0  0  0  0  0
  188.3350  178.2080  146.9190 N   0  0  0  0  0  2  0  0  0  0  0  0
  192.5270  174.8070  145.6050 C   0  0  0  0  0  3  0  0  0  0  0  0
  187.0910  178.1900  144.7960 C   0  0  1  0  0  3  0  0  0  0  0  0
  185.8310  177.8670  145.5870 C   0  0  0  0  0  2  0  0  0  0  0  0
  191.0170  178.4560  142.4570 S   0  0  0  0  0  0  0  0  0  0  0  0
  191.3990  176.2510  144.0150 C   0  0  0  0  0  0  0  0  0  0  0  0
  192.3260  175.2400  144.2950 C   0  0  0  0  0  3  0  0  0  0  0  0
  189.0620  176.5060  140.1070 O   0  0  0  0  0  0  0  0  0  0  0  0
  188.4710  177.6190  140.1090 C   0  0  0  0  0  0  0  0  0  0  0  0
  188.0980  178.2400  141.3430 N   0  0  0  0  0  2  0  0  0  0  0  0
  187.5460  176.8650  136.2190 C   0  0  1  0  0  3  0  0  0  0  0  0
  186.7410  177.9330  138.3640 C   0  0  0  0  0  2  0  0  0  0  0  0
  190.5060  177.9100  138.2690 F   0  0  0  0  0  0  0  0  0  0  0  0
  186.9240  175.6320  136.1870 F   0  0  0  0  0  0  0  0  0  0  0  0
  186.6070  177.9070  136.8440 C   0  0  0  0  0  2  0  0  0  0  0  0
  189.2340  177.9970  137.7300 C   0  0  2  0  0  3  0  0  0  0  0  0
  188.1690  178.2930  138.8080 C   0  0  2  0  0  3  0  0  0  0  0  0
  188.8960  176.7350  136.9410 C   0  0  0  0  0  2  0  0  0  0  0  0
  1  9  2  0  0  0  0
  2  3  1  6  0  0  0
  2  5  1  0  0  0  0
  3  7  1  0  0  0  0
  4 11  1  0  0  0  0
  5 14  1  1  0  0  0
  6  1  1  0  0  0  0
  7  4  2  0  0  0  0
  8 23  1  6  0  0  0
  8 13  1  0  0  0  0
  8 12  1  0  0  0  0
 10 19  1  0  0  0  0
 13 18  1  6  0  0  0
 13  2  1  0  0  0  0
 14  1  1  0  0  0  0
 15  4  1  0  0  0  0
 16 12  1  6  0  0  0
 16  5  1  0  0  0  0
 16 17  1  0  0  0  0
 17  6  1  0  0  0  0
 18 10  1  0  0  0  0
 19 20  1  0  0  0  0
 19  3  2  0  0  0  0
 20 15  2  0  0  0  0
 21 22  2  0  0  0  0
 22 23  1  0  0  0  0
 24 27  1  1  0  0  0
 24 28  1  0  0  0  0
 24 31  1  0  0  0  0
 25 30  1  0  0  0  0
 28 25  1  0  0  0  0
 29 26  1  1  0  0  0
 29 30  1  0  0  0  0
 30 22  1  1  0  0  0
 31 29  1  0  0  0  0
M  END
>  <MODEL>
5

>  <REMARK>
 VINA RESULT:      -8.1      3.502      5.624
  Name = 
  2 active torsions:
  status: ('A' for Active; 'I' for Inactive)
    1  A    between atoms: C_5  and  C_30
    2  A    between atoms: C_10  and  N_16
                            x       y       z     vdW  Elec       q    Type
                         _______ _______ _______ _____ _____    ______ ____

>  <TORSDO>
F 2

$$$$
=
 OpenBabel11122411133D

 31 35  0  0  1  0  0  0  0  0999 V2000
  187.7660  178.2830  136.4020 C   0  0  0  0  0  0  0  0  0  0  0  0
  186.0920  178.7260  139.7760 C   0  0  2  0  0  3  0  0  0  0  0  0
  184.7210  178.0890  139.9270 C   0  0  0  0  0  0  0  0  0  0  0  0
  182.7070  177.2600  138.8340 C   0  0  0  0  0  0  0  0  0  0  0  0
  186.9650  177.9470  138.7730 C   0  0  1  0  0  3  0  0  0  0  0  0
  189.1630  177.8650  136.7560 C   0  0  0  0  0  2  0  0  0  0  0  0
  183.9900  177.8040  138.7630 C   0  0  0  0  0  3  0  0  0  0  0  0
  187.7050  177.8870  141.6040 C   0  0  2  0  0  3  0  0  0  0  0  0
  187.4820  178.5520  135.2070 O   0  0  0  0  0  0  0  0  0  0  0  0
  184.8020  178.1400  142.4750 C   0  0  0  0  0  2  0  0  0  0  0  0
  181.9590  176.9550  137.5870 C   0  0  0  0  0  1  0  0  0  0  0  0
  188.6180  177.2820  140.5230 C   0  0  0  0  0  2  0  0  0  0  0  0
  186.8390  179.0520  141.0910 C   0  0  2  0  0  3  0  0  0  0  0  0
  186.7830  178.4760  137.4250 N   0  0  0  0  0  2  0  0  0  0  0  0
  182.1280  177.0020  140.0760 C   0  0  0  0  0  3  0  0  0  0  0  0
  188.4470  177.9340  139.1550 C   0  0  1  0  0  3  0  0  0  0  0  0
  189.2200  177.1480  138.1040 C   0  0  0  0  0  2  0  0  0  0  0  0
  185.7210  179.7040  142.3770 S   0  0  0  0  0  0  0  0  0  0  0  0
  184.1100  177.8550  141.1840 C   0  0  0  0  0  0  0  0  0  0  0  0
  182.8270  177.3000  141.2450 C   0  0  0  0  0  3  0  0  0  0  0  0
  188.6880  176.2120  143.7030 O   0  0  0  0  0  0  0  0  0  0  0  0
  188.9830  177.4360  143.7430 C   0  0  0  0  0  0  0  0  0  0  0  0
  188.5120  178.3300  142.7300 N   0  0  0  0  0  2  0  0  0  0  0  0
  190.5290  176.4000  147.3610 C   0  0  1  0  0  3  0  0  0  0  0  0
  191.0920  177.0900  144.9950 C   0  0  0  0  0  2  0  0  0  0  0  0
  187.7240  178.4640  145.9730 F   0  0  0  0  0  0  0  0  0  0  0  0
  190.6550  175.0240  147.3640 F   0  0  0  0  0  0  0  0  0  0  0  0
  191.5880  177.0180  146.4380 C   0  0  0  0  0  2  0  0  0  0  0  0
  189.0360  178.0740  146.1880 C   0  0  2  0  0  3  0  0  0  0  0  0
  189.8250  177.9520  144.8670 C   0  0  2  0  0  3  0  0  0  0  0  0
  189.0870  176.7780  146.9920 C   0  0  0  0  0  2  0  0  0  0  0  0
  1  6  1  0  0  0  0
  1 14  1  0  0  0  0
  2  3  1  1  0  0  0
  2 13  1  0  0  0  0
  3 19  1  0  0  0  0
  4 15  2  0  0  0  0
  5 14  1  6  0  0  0
  5 16  1  0  0  0  0
  5  2  1  0  0  0  0
  6 17  1  0  0  0  0
  7  4  1  0  0  0  0
  7  3  2  0  0  0  0
  8 23  1  1  0  0  0
  9  1  2  0  0  0  0
 11  4  1  0  0  0  0
 12  8  1  0  0  0  0
 13  8  1  0  0  0  0
 13 18  1  1  0  0  0
 15 20  1  0  0  0  0
 16 17  1  6  0  0  0
 16 12  1  0  0  0  0
 18 10  1  0  0  0  0
 19 20  2  0  0  0  0
 19 10  1  0  0  0  0
 21 22  2  0  0  0  0
 23 22  1  0  0  0  0
 24 27  1  6  0  0  0
 25 28  1  0  0  0  0
 28 24  1  0  0  0  0
 29 26  1  6  0  0  0
 29 31  1  0  0  0  0
 30 22  1  6  0  0  0
 30 25  1  0  0  0  0
 30 29  1  0  0  0  0
 31 24  1  0  0  0  0
M  END
>  <MODEL>
6

>  <REMARK>
 VINA RESULT:      -7.7      3.480      7.707
  Name = 
  2 active torsions:
  status: ('A' for Active; 'I' for Inactive)
    1  A    between atoms: C_5  and  C_30
    2  A    between atoms: C_10  and  N_16
                            x       y       z     vdW  Elec       q    Type
                         _______ _______ _______ _____ _____    ______ ____

>  <TORSDO>
F 2

$$$$
=
 OpenBabel11122411133D

 31 35  0  0  1  0  0  0  0  0999 V2000
  184.5860  179.0850  144.5040 C   0  0  0  0  0  0  0  0  0  0  0  0
  188.3320  178.6050  144.1700 C   0  0  2  0  0  3  0  0  0  0  0  0
  188.9980  177.7850  145.2620 C   0  0  0  0  0  0  0  0  0  0  0  0
  188.9140  176.9590  147.5540 C   0  0  0  0  0  0  0  0  0  0  0  0
  186.8710  178.1660  143.9510 C   0  0  1  0  0  3  0  0  0  0  0  0
  184.0680  178.7790  143.1300 C   0  0  0  0  0  2  0  0  0  0  0  0
  188.3360  177.6610  146.4940 C   0  0  0  0  0  3  0  0  0  0  0  0
  188.8230  177.6100  141.8430 C   0  0  2  0  0  3  0  0  0  0  0  0
  183.8060  179.5600  145.3700 O   0  0  0  0  0  0  0  0  0  0  0  0
  191.0770  177.3140  143.8630 C   0  0  0  0  0  2  0  0  0  0  0  0
  188.1880  176.8310  148.8440 C   0  0  0  0  0  1  0  0  0  0  0  0
  187.3190  177.3610  141.6300 C   0  0  0  0  0  2  0  0  0  0  0  0
  189.1210  178.7390  142.8450 C   0  0  2  0  0  3  0  0  0  0  0  0
  185.9770  178.9380  144.8090 N   0  0  0  0  0  2  0  0  0  0  0  0
  190.1720  176.3780  147.4000 C   0  0  0  0  0  3  0  0  0  0  0  0
  186.4320  178.2580  142.4880 C   0  0  1  0  0  3  0  0  0  0  0  0
  184.9810  177.8100  142.3800 C   0  0  0  0  0  2  0  0  0  0  0  0
  190.9090  178.9650  143.1260 S   0  0  0  0  0  0  0  0  0  0  0  0
  190.2900  177.2210  145.1280 C   0  0  0  0  0  0  0  0  0  0  0  0
  190.8570  176.5110  146.1920 C   0  0  0  0  0  3  0  0  0  0  0  0
  190.5570  175.8510  140.4010 O   0  0  0  0  0  0  0  0  0  0  0  0
  190.3020  176.9740  139.8880 C   0  0  0  0  0  0  0  0  0  0  0  0
  189.4520  177.9050  140.5650 N   0  0  0  0  0  2  0  0  0  0  0  0
  191.9920  175.3500  136.5620 C   0  0  1  0  0  3  0  0  0  0  0  0
  190.0590  176.7240  137.4360 C   0  0  0  0  0  2  0  0  0  0  0  0
  193.0510  177.1280  139.6880 F   0  0  0  0  0  0  0  0  0  0  0  0
  191.4840  174.0700  136.4390 F   0  0  0  0  0  0  0  0  0  0  0  0
  190.9050  176.3770  136.2140 C   0  0  0  0  0  2  0  0  0  0  0  0
  192.4000  176.9540  138.4780 C   0  0  2  0  0  3  0  0  0  0  0  0
  190.9050  177.3320  138.5670 C   0  0  2  0  0  3  0  0  0  0  0  0
  192.5860  175.5280  137.9670 C   0  0  0  0  0  2  0  0  0  0  0  0
  1 14  1  0  0  0  0
  1  9  2  0  0  0  0
  2  3  1  1  0  0  0
  3  7  1  0  0  0  0
  4 11  1  0  0  0  0
  5  2  1  0  0  0  0
  5 14  1  1  0  0  0
  6  1  1  0  0  0  0
  7  4  2  0  0  0  0
  8 23  1  6  0  0  0
  8 13  1  0  0  0  0
 10 19  1  0  0  0  0
 12  8  1  0  0  0  0
 13 18  1  1  0  0  0
 13  2  1  0  0  0  0
 15  4  1  0  0  0  0
 16 12  1  6  0  0  0
 16  5  1  0  0  0  0
 17 16  1  0  0  0  0
 17  6  1  0  0  0  0
 18 10  1  0  0  0  0
 19  3  2  0  0  0  0
 19 20  1  0  0  0  0
 20 15  2  0  0  0  0
 22 21  2  0  0  0  0
 22 23  1  0  0  0  0
 24 27  1  1  0  0  0
 24 31  1  0  0  0  0
 25 30  1  0  0  0  0
 28 24  1  0  0  0  0
 28 25  1  0  0  0  0
 29 30  1  0  0  0  0
 29 26  1  1  0  0  0
 30 22  1  1  0  0  0
 31 29  1  0  0  0  0
M  END
>  <MODEL>
7

>  <REMARK>
 VINA RESULT:      -7.6      4.093      6.516
  Name = 
  2 active torsions:
  status: ('A' for Active; 'I' for Inactive)
    1  A    between atoms: C_5  and  C_30
    2  A    between atoms: C_10  and  N_16
                            x       y       z     vdW  Elec       q    Type
                         _______ _______ _______ _____ _____    ______ ____

>  <TORSDO>
F 2

$$$$
=
 OpenBabel11122411133D

 31 35  0  0  1  0  0  0  0  0999 V2000
  183.6450  176.6840  135.7700 C   0  0  0  0  0  0  0  0  0  0  0  0
  186.7720  177.8520  137.5690 C   0  0  2  0  0  3  0  0  0  0  0  0
  186.6160  178.1460  139.0520 C   0  0  0  0  0  0  0  0  0  0  0  0
  185.1220  178.7360  140.8850 C   0  0  0  0  0  0  0  0  0  0  0  0
  185.7860  176.7620  137.1070 C   0  0  1  0  0  3  0  0  0  0  0  0
  184.1170  175.5000  134.9780 C   0  0  0  0  0  2  0  0  0  0  0  0
  185.3280  178.4140  139.5420 C   0  0  0  0  0  3  0  0  0  0  0  0
  188.6400  176.1210  137.1650 C   0  0  2  0  0  3  0  0  0  0  0  0
  182.4850  177.1330  135.5830 O   0  0  0  0  0  0  0  0  0  0  0  0
  189.1210  178.0010  139.5070 C   0  0  0  0  0  2  0  0  0  0  0  0
  183.7480  179.0030  141.3820 C   0  0  0  0  0  1  0  0  0  0  0  0
  187.6130  175.1520  136.5550 C   0  0  0  0  0  2  0  0  0  0  0  0
  188.2170  177.5980  137.0750 C   0  0  2  0  0  3  0  0  0  0  0  0
  184.5360  177.3680  136.6590 N   0  0  0  0  0  2  0  0  0  0  0  0
  186.2070  178.8060  141.7580 C   0  0  0  0  0  3  0  0  0  0  0  0
  186.3660  175.8510  136.0230 C   0  0  1  0  0  3  0  0  0  0  0  0
  185.3170  174.8180  135.6330 C   0  0  0  0  0  2  0  0  0  0  0  0
  189.4230  178.7160  137.8650 S   0  0  0  0  0  0  0  0  0  0  0  0
  187.7150  178.2530  139.9400 C   0  0  0  0  0  0  0  0  0  0  0  0
  187.4970  178.5660  141.2860 C   0  0  0  0  0  3  0  0  0  0  0  0
  190.9310  174.8780  138.3430 O   0  0  0  0  0  0  0  0  0  0  0  0
  191.0340  175.2940  137.1580 C   0  0  0  0  0  0  0  0  0  0  0  0
  189.9290  175.9360  136.5160 N   0  0  0  0  0  2  0  0  0  0  0  0
  194.8010  173.8120  137.5710 C   0  0  1  0  0  3  0  0  0  0  0  0
  192.6340  173.6190  136.2830 C   0  0  0  0  0  2  0  0  0  0  0  0
  193.0510  177.1280  137.5860 F   0  0  0  0  0  0  0  0  0  0  0  0
  194.7340  172.8090  138.5190 F   0  0  0  0  0  0  0  0  0  0  0  0
  194.1360  173.3430  136.2690 C   0  0  0  0  0  2  0  0  0  0  0  0
  193.4820  175.9160  137.0740 C   0  0  2  0  0  3  0  0  0  0  0  0
  192.3280  175.1180  136.4280 C   0  0  2  0  0  3  0  0  0  0  0  0
  194.1930  175.0990  138.1490 C   0  0  0  0  0  2  0  0  0  0  0  0
  1 14  1  0  0  0  0
  2  3  1  1  0  0  0
  3  7  2  0  0  0  0
  3 19  1  0  0  0  0
  4 11  1  0  0  0  0
  4 15  2  0  0  0  0
  5 14  1  6  0  0  0
  5  2  1  0  0  0  0
  6 17  1  0  0  0  0
  6  1  1  0  0  0  0
  7  4  1  0  0  0  0
  8 23  1  6  0  0  0
  9  1  2  0  0  0  0
 10 19  1  0  0  0  0
 12  8  1  0  0  0  0
 13  8  1  0  0  0  0
 13  2  1  0  0  0  0
 13 18  1  1  0  0  0
 16 17  1  1  0  0  0
 16 12  1  0  0  0  0
 16  5  1  0  0  0  0
 18 10  1  0  0  0  0
 19 20  2  0  0  0  0
 20 15  1  0  0  0  0
 22 21  2  0  0  0  0
 23 22  1  0  0  0  0
 24 31  1  0  0  0  0
 24 27  1  1  0  0  0
 25 30  1  0  0  0  0
 28 25  1  0  0  0  0
 28 24  1  0  0  0  0
 29 26  1  1  0  0  0
 29 31  1  0  0  0  0
 30 29  1  0  0  0  0
 30 22  1  1  0  0  0
M  END
>  <MODEL>
8

>  <REMARK>
 VINA RESULT:      -7.5      5.089      8.927
  Name = 
  2 active torsions:
  status: ('A' for Active; 'I' for Inactive)
    1  A    between atoms: C_5  and  C_30
    2  A    between atoms: C_10  and  N_16
                            x       y       z     vdW  Elec       q    Type
                         _______ _______ _______ _____ _____    ______ ____

>  <TORSDO>
F 2

$$$$
=
 OpenBabel11122411133D

 31 35  0  0  1  0  0  0  0  0999 V2000
  183.6640  178.6350  143.7420 C   0  0  0  0  0  0  0  0  0  0  0  0
  182.4790  178.2520  140.1600 C   0  0  2  0  0  3  0  0  0  0  0  0
  181.4540  179.2690  139.6860 C   0  0  0  0  0  0  0  0  0  0  0  0
  179.7090  180.8610  140.2840 C   0  0  0  0  0  0  0  0  0  0  0  0
  183.4030  178.8480  141.2390 C   0  0  1  0  0  3  0  0  0  0  0  0
  185.1560  178.5190  143.6320 C   0  0  0  0  0  2  0  0  0  0  0  0
  180.6980  179.9480  140.6540 C   0  0  0  0  0  3  0  0  0  0  0  0
  184.5430  178.2360  138.6150 C   0  0  2  0  0  3  0  0  0  0  0  0
  183.1250  178.6570  144.8780 O   0  0  0  0  0  0  0  0  0  0  0  0
  181.9020  178.8080  137.2190 C   0  0  0  0  0  2  0  0  0  0  0  0
  178.9310  181.5770  141.3280 C   0  0  0  0  0  1  0  0  0  0  0  0
  185.4310  178.6690  139.7940 C   0  0  0  0  0  2  0  0  0  0  0  0
  183.2590  177.5060  139.0510 C   0  0  2  0  0  3  0  0  0  0  0  0
  182.8440  178.6180  142.5680 N   0  0  0  0  0  2  0  0  0  0  0  0
  179.4530  181.1010  138.9350 C   0  0  0  0  0  3  0  0  0  0  0  0
  184.8370  178.3230  141.1560 C   0  0  1  0  0  3  0  0  0  0  0  0
  185.6630  178.9650  142.2620 C   0  0  0  0  0  2  0  0  0  0  0  0
  182.1960  177.0650  137.6360 S   0  0  0  0  0  0  0  0  0  0  0  0
  181.1620  179.4940  138.3180 C   0  0  0  0  0  0  0  0  0  0  0  0
  180.1760  180.4190  137.9570 C   0  0  0  0  0  3  0  0  0  0  0  0
  186.8790  179.0350  137.1720 O   0  0  0  0  0  0  0  0  0  0  0  0
  186.4790  177.8490  137.0290 C   0  0  0  0  0  0  0  0  0  0  0  0
  185.3100  177.3900  137.7130 N   0  0  0  0  0  2  0  0  0  0  0  0
  186.7520  173.9480  135.9020 C   0  0  1  0  0  3  0  0  0  0  0  0
  186.2660  176.2990  135.1090 C   0  0  0  0  0  2  0  0  0  0  0  0
  188.5720  176.3930  138.0850 F   0  0  0  0  0  0  0  0  0  0  0  0
  185.5070  173.3840  136.1080 F   0  0  0  0  0  0  0  0  0  0  0  0
  186.7020  174.8950  134.6950 C   0  0  0  0  0  2  0  0  0  0  0  0
  188.0510  175.8730  136.9130 C   0  0  2  0  0  3  0  0  0  0  0  0
  187.2340  176.9220  136.1290 C   0  0  2  0  0  3  0  0  0  0  0  0
  187.2250  174.6220  137.1990 C   0  0  0  0  0  2  0  0  0  0  0  0
  1  9  2  0  0  0  0
  2  3  1  6  0  0  0
  2  5  1  0  0  0  0
  3  7  1  0  0  0  0
  4  7  2  0  0  0  0
  4 11  1  0  0  0  0
  5 14  1  1  0  0  0
  6  1  1  0  0  0  0
  8 23  1  6  0  0  0
  8 13  1  0  0  0  0
  8 12  1  0  0  0  0
 10 18  1  0  0  0  0
 10 19  1  0  0  0  0
 13 18  1  6  0  0  0
 13  2  1  0  0  0  0
 14  1  1  0  0  0  0
 15  4  1  0  0  0  0
 16 12  1  6  0  0  0
 16  5  1  0  0  0  0
 16 17  1  0  0  0  0
 17  6  1  0  0  0  0
 19  3  2  0  0  0  0
 20 19  1  0  0  0  0
 20 15  2  0  0  0  0
 22 21  2  0  0  0  0
 22 23  1  0  0  0  0
 24 27  1  1  0  0  0
 24 31  1  0  0  0  0
 25 30  1  0  0  0  0
 28 25  1  0  0  0  0
 28 24  1  0  0  0  0
 29 31  1  0  0  0  0
 29 26  1  1  0  0  0
 30 29  1  0  0  0  0
 30 22  1  1  0  0  0
M  END
>  <MODEL>
9

>  <REMARK>
 VINA RESULT:      -7.3      3.919      7.104
  Name = 
  2 active torsions:
  status: ('A' for Active; 'I' for Inactive)
    1  A    between atoms: C_5  and  C_30
    2  A    between atoms: C_10  and  N_16
                            x       y       z     vdW  Elec       q    Type
                         _______ _______ _______ _____ _____    ______ ____

>  <TORSDO>
F 2

$$$$
