=
 OpenBabel11122410403D

 32 37  0  0  1  0  0  0  0  0999 V2000
  190.3740  176.3220  138.6070 O   0  0  0  0  0  0  0  0  0  0  0  0
  186.4300  178.5150  140.8970 N   0  0  1  0  0  0  0  0  0  0  0  0
  186.6790  177.9720  145.7600 C   0  0  0  0  0  3  0  0  0  0  0  0
  185.3770  178.4620  145.8710 C   0  0  0  0  0  3  0  0  0  0  0  0
  184.2000  178.8160  139.7710 C   0  0  1  0  0  3  0  0  0  0  0  0
  182.6880  178.7720  140.0430 C   0  0  1  0  0  3  0  0  0  0  0  0
  188.4130  178.4710  139.5030 C   0  0  1  0  0  3  0  0  0  0  0  0
  188.5410  177.9700  141.9500 N   0  0  0  0  0  2  0  0  0  0  0  0
  180.9630  178.6210  141.5620 C   0  0  2  0  0  3  0  0  0  0  0  0
  190.4560  177.5010  140.6210 C   0  0  0  0  0  3  0  0  0  0  0  0
  187.2420  177.7630  144.4990 C   0  0  0  0  0  3  0  0  0  0  0  0
  187.0910  177.7520  141.9760 C   0  0  1  0  0  3  0  0  0  0  0  0
  186.5130  178.0560  143.3380 C   0  0  0  0  0  0  0  0  0  0  0  0
  184.3880  178.8570  142.2250 C   0  0  2  0  0  3  0  0  0  0  0  0
  180.7510  177.5230  140.5230 C   0  0  0  0  0  2  0  0  0  0  0  0
  189.5230  176.9810  137.6860 C   0  0  0  0  0  2  0  0  0  0  0  0
  189.2150  177.9900  140.6920 C   0  0  0  0  0  0  0  0  0  0  0  0
  182.0370  177.4520  139.7290 C   0  0  0  0  0  2  0  0  0  0  0  0
  189.0110  178.3760  138.0950 C   0  0  0  0  0  2  0  0  0  0  0  0
  191.1440  177.2570  139.3210 C   0  0  1  0  0  3  0  0  0  0  0  0
  184.6320  178.7310  144.7210 C   0  0  0  0  0  3  0  0  0  0  0  0
  185.1800  178.5040  143.4520 C   0  0  0  0  0  0  0  0  0  0  0  0
  183.0660  178.3980  142.3200 O   0  0  0  0  0  0  0  0  0  0  0  0
  186.9650  178.0210  139.6220 C   0  0  0  0  0  2  0  0  0  0  0  0
  184.5790  180.1380  139.5290 O   0  0  0  0  0  1  0  0  0  0  0  0
  179.9680  179.7450  141.3380 C   0  0  0  0  0  1  0  0  0  0  0  0
  184.9860  178.2430  140.9600 C   0  0  2  0  0  3  0  0  0  0  0  0
  182.3260  179.1270  141.4280 N   0  0  1  0  0  0  0  0  0  0  0  0
  192.5300  176.6950  139.5830 C   0  0  0  0  0  2  0  0  0  0  0  0
  193.1600  176.2460  138.3100 C   0  0  0  0  0  0  0  0  0  0  0  0
  193.1390  174.9020  137.9610 O   0  0  0  0  0  1  0  0  0  0  0  0
  193.6820  177.0880  137.5340 O   0  0  0  0  0  0  0  0  0  0  0  0
  1 20  1  0  0  0  0
  2 24  1  6  0  0  0
  2 27  1  0  0  0  0
  2 12  1  0  0  0  0
  3  4  1  0  0  0  0
  5 25  1  1  0  0  0
  5  6  1  0  0  0  0
  5 27  1  0  0  0  0
  6 18  1  1  0  0  0
  6 28  1  0  0  0  0
  7 19  1  6  0  0  0
  7 24  1  0  0  0  0
  7 17  1  0  0  0  0
  9 26  1  6  0  0  0
 10 17  2  0  0  0  0
 11  3  2  0  0  0  0
 12  8  1  1  0  0  0
 12 13  1  0  0  0  0
 13 22  2  0  0  0  0
 13 11  1  0  0  0  0
 14 23  1  1  0  0  0
 14 22  1  0  0  0  0
 15  9  1  0  0  0  0
 16 19  1  0  0  0  0
 16  1  1  0  0  0  0
 17  8  1  0  0  0  0
 18 15  1  0  0  0  0
 20 29  1  1  0  0  0
 20 10  1  0  0  0  0
 21  4  2  0  0  0  0
 22 21  1  0  0  0  0
 27 14  1  0  0  0  0
 28  9  1  0  0  0  0
 28 23  1  0  0  0  0
 30 29  1  0  0  0  0
 31 30  1  0  0  0  0
 32 30  2  0  0  0  0
M  END
>  <MODEL>
1

>  <REMARK>
 VINA RESULT:      -9.3      0.000      0.000
  Name = 
  2 active torsions:
  status: ('A' for Active; 'I' for Inactive)
    1  A    between atoms: C_20  and  C_29
    2  A    between atoms: C_29  and  C_30
                            x       y       z     vdW  Elec       q    Type
                         _______ _______ _______ _____ _____    ______ ____

>  <TORSDO>
F 2

$$$$
=
 OpenBabel11122410403D

 32 37  0  0  1  0  0  0  0  0999 V2000
  190.4430  176.4400  140.5210 O   0  0  0  0  0  0  0  0  0  0  0  0
  185.9240  178.6690  140.9910 N   0  0  1  0  0  0  0  0  0  0  0  0
  184.3790  178.5780  145.6400 C   0  0  0  0  0  3  0  0  0  0  0  0
  183.1240  179.0220  145.2210 C   0  0  0  0  0  3  0  0  0  0  0  0
  184.2590  178.7750  139.1080 C   0  0  1  0  0  3  0  0  0  0  0  0
  182.7530  178.6950  138.8140 C   0  0  1  0  0  3  0  0  0  0  0  0
  188.2800  178.5800  140.4260 C   0  0  1  0  0  3  0  0  0  0  0  0
  187.5060  178.3070  142.7880 N   0  0  0  0  0  2  0  0  0  0  0  0
  180.5920  178.6110  139.6090 C   0  0  2  0  0  3  0  0  0  0  0  0
  189.7770  177.8000  142.3000 C   0  0  0  0  0  3  0  0  0  0  0  0
  185.3650  178.2790  144.6980 C   0  0  0  0  0  3  0  0  0  0  0  0
  186.1480  178.0340  142.3070 C   0  0  1  0  0  3  0  0  0  0  0  0
  185.1100  178.4350  143.3280 C   0  0  0  0  0  0  0  0  0  0  0  0
  183.5360  179.0460  141.4450 C   0  0  2  0  0  3  0  0  0  0  0  0
  180.7810  177.4160  138.6780 C   0  0  0  0  0  2  0  0  0  0  0  0
  189.9850  176.9790  139.2940 C   0  0  0  0  0  2  0  0  0  0  0  0
  188.5930  178.2410  141.8670 C   0  0  0  0  0  0  0  0  0  0  0  0
  182.2680  177.3270  138.4180 C   0  0  0  0  0  2  0  0  0  0  0  0
  189.3520  178.3830  139.3490 C   0  0  0  0  0  2  0  0  0  0  0  0
  190.8940  177.4670  141.3710 C   0  0  1  0  0  3  0  0  0  0  0  0
  182.8500  179.1550  143.8580 C   0  0  0  0  0  3  0  0  0  0  0  0
  183.8260  178.8380  142.9040 C   0  0  0  0  0  0  0  0  0  0  0  0
  182.2740  178.5440  141.0980 O   0  0  0  0  0  0  0  0  0  0  0  0
  186.8910  178.0840  140.0540 C   0  0  0  0  0  2  0  0  0  0  0  0
  184.6940  180.0850  138.8900 O   0  0  0  0  0  1  0  0  0  0  0  0
  179.7430  179.6680  138.9280 C   0  0  0  0  0  1  0  0  0  0  0  0
  184.5580  178.3450  140.5520 C   0  0  2  0  0  3  0  0  0  0  0  0
  181.9070  179.1590  139.9310 N   0  0  1  0  0  0  0  0  0  0  0  0
  192.0910  176.9890  142.1730 C   0  0  0  0  0  2  0  0  0  0  0  0
  191.6510  176.4290  143.4810 C   0  0  0  0  0  0  0  0  0  0  0  0
  191.7130  177.2120  144.6270 O   0  0  0  0  0  1  0  0  0  0  0  0
  191.1930  175.2590  143.5450 O   0  0  0  0  0  0  0  0  0  0  0  0
  1 20  1  0  0  0  0
  2 24  1  6  0  0  0
  2 12  1  0  0  0  0
  4  3  1  0  0  0  0
  5 25  1  1  0  0  0
  5 27  1  0  0  0  0
  6 18  1  1  0  0  0
  6  5  1  0  0  0  0
  6 28  1  0  0  0  0
  7 19  1  6  0  0  0
  7 17  1  0  0  0  0
  9 26  1  6  0  0  0
  9 28  1  0  0  0  0
 11  3  2  0  0  0  0
 12  8  1  1  0  0  0
 12 13  1  0  0  0  0
 13 11  1  0  0  0  0
 14 23  1  6  0  0  0
 14 22  1  0  0  0  0
 15  9  1  0  0  0  0
 16 19  1  0  0  0  0
 16  1  1  0  0  0  0
 17 10  2  0  0  0  0
 17  8  1  0  0  0  0
 18 15  1  0  0  0  0
 20 29  1  1  0  0  0
 20 10  1  0  0  0  0
 21  4  2  0  0  0  0
 22 13  2  0  0  0  0
 22 21  1  0  0  0  0
 24  7  1  0  0  0  0
 27  2  1  0  0  0  0
 27 14  1  0  0  0  0
 28 23  1  0  0  0  0
 29 30  1  0  0  0  0
 30 32  2  0  0  0  0
 30 31  1  0  0  0  0
M  END
>  <MODEL>
2

>  <REMARK>
 VINA RESULT:      -8.9      1.994      2.519
  Name = 
  2 active torsions:
  status: ('A' for Active; 'I' for Inactive)
    1  A    between atoms: C_20  and  C_29
    2  A    between atoms: C_29  and  C_30
                            x       y       z     vdW  Elec       q    Type
                         _______ _______ _______ _____ _____    ______ ____

>  <TORSDO>
F 2

$$$$
=
 OpenBabel11122410403D

 32 37  0  0  1  0  0  0  0  0999 V2000
  187.5480  176.6790  143.9200 O   0  0  0  0  0  0  0  0  0  0  0  0
  183.7760  178.9680  141.4410 N   0  0  1  0  0  0  0  0  0  0  0  0
  179.6650  178.9940  144.1070 C   0  0  0  0  0  3  0  0  0  0  0  0
  178.9570  179.4440  142.9910 C   0  0  0  0  0  3  0  0  0  0  0  0
  183.6550  179.0520  138.9300 C   0  0  1  0  0  3  0  0  0  0  0  0
  182.6610  178.9830  137.7610 C   0  0  1  0  0  3  0  0  0  0  0  0
  185.9670  178.8400  142.4730 C   0  0  1  0  0  3  0  0  0  0  0  0
  183.8810  178.6270  143.8370 N   0  0  0  0  0  2  0  0  0  0  0  0
  180.4760  178.9410  137.0320 C   0  0  2  0  0  3  0  0  0  0  0  0
  185.9470  178.0840  144.8790 C   0  0  0  0  0  3  0  0  0  0  0  0
  181.0170  178.6640  143.9900 C   0  0  0  0  0  3  0  0  0  0  0  0
  183.1160  178.3590  142.6150 C   0  0  1  0  0  3  0  0  0  0  0  0
  181.6760  178.7940  142.7590 C   0  0  0  0  0  0  0  0  0  0  0  0
  181.6380  179.3810  140.3000 C   0  0  2  0  0  3  0  0  0  0  0  0
  181.1780  177.7240  136.4350 C   0  0  0  0  0  2  0  0  0  0  0  0
  187.9690  177.1960  142.6700 C   0  0  0  0  0  2  0  0  0  0  0  0
  185.3040  178.5290  143.7970 C   0  0  0  0  0  0  0  0  0  0  0  0
  182.5000  177.6120  137.1610 C   0  0  0  0  0  2  0  0  0  0  0  0
  187.4720  178.6080  142.3040 C   0  0  0  0  0  2  0  0  0  0  0  0
  187.3930  177.7190  144.8550 C   0  0  1  0  0  3  0  0  0  0  0  0
  179.5970  179.5500  141.7540 C   0  0  0  0  0  3  0  0  0  0  0  0
  180.9470  179.2010  141.6230 C   0  0  0  0  0  0  0  0  0  0  0  0
  180.8570  178.8860  139.2450 O   0  0  0  0  0  0  0  0  0  0  0  0
  185.1040  178.3520  141.3200 C   0  0  0  0  0  2  0  0  0  0  0  0
  184.1600  180.3520  139.0190 O   0  0  0  0  0  1  0  0  0  0  0  0
  180.2620  179.9930  135.9590 C   0  0  0  0  0  1  0  0  0  0  0  0
  182.9770  178.6500  140.2490 C   0  0  2  0  0  3  0  0  0  0  0  0
  181.3140  179.4800  138.0990 N   0  0  1  0  0  0  0  0  0  0  0  0
  187.8160  177.2440  146.2340 C   0  0  0  0  0  2  0  0  0  0  0  0
  189.2950  177.3280  146.3830 C   0  0  0  0  0  0  0  0  0  0  0  0
  190.0430  178.0760  145.4830 O   0  0  0  0  0  0  0  0  0  0  0  0
  189.8650  176.7490  147.3440 O   0  0  0  0  0  1  0  0  0  0  0  0
  1 20  1  0  0  0  0
  2 24  1  6  0  0  0
  2 12  1  0  0  0  0
  4  3  2  0  0  0  0
  5 25  1  1  0  0  0
  5 27  1  0  0  0  0
  6 18  1  1  0  0  0
  6 28  1  0  0  0  0
  6  5  1  0  0  0  0
  7 24  1  6  0  0  0
  7 17  1  0  0  0  0
  9 26  1  6  0  0  0
  9 28  1  0  0  0  0
 11  3  1  0  0  0  0
 12 13  1  1  0  0  0
 12  8  1  0  0  0  0
 13 11  2  0  0  0  0
 14 23  1  6  0  0  0
 14 22  1  0  0  0  0
 15  9  1  0  0  0  0
 15 18  1  0  0  0  0
 16  1  1  0  0  0  0
 17  8  1  0  0  0  0
 17 10  2  0  0  0  0
 19  7  1  0  0  0  0
 19 16  1  0  0  0  0
 20 10  1  0  0  0  0
 20 29  1  1  0  0  0
 21  4  1  0  0  0  0
 22 21  2  0  0  0  0
 22 13  1  0  0  0  0
 27 14  1  0  0  0  0
 27  2  1  0  0  0  0
 28 23  1  0  0  0  0
 29 30  1  0  0  0  0
 30 32  1  0  0  0  0
 31 30  2  0  0  0  0
M  END
>  <MODEL>
3

>  <REMARK>
 VINA RESULT:      -8.8      3.656      5.440
  Name = 
  2 active torsions:
  status: ('A' for Active; 'I' for Inactive)
    1  A    between atoms: C_20  and  C_29
    2  A    between atoms: C_29  and  C_30
                            x       y       z     vdW  Elec       q    Type
                         _______ _______ _______ _____ _____    ______ ____

>  <TORSDO>
F 2

$$$$
=
 OpenBabel11122410403D

 32 37  0  0  1  0  0  0  0  0999 V2000
  190.8690  176.0030  145.0090 O   0  0  0  0  0  0  0  0  0  0  0  0
  188.1860  178.1690  141.3050 N   0  0  1  0  0  0  0  0  0  0  0  0
  183.4780  178.6490  142.5770 C   0  0  0  0  0  3  0  0  0  0  0  0
  183.1710  179.0060  141.2630 C   0  0  0  0  0  3  0  0  0  0  0  0
  188.8280  177.9900  138.8790 C   0  0  1  0  0  3  0  0  0  0  0  0
  188.2270  177.8380  137.4730 C   0  0  1  0  0  3  0  0  0  0  0  0
  189.9520  178.0610  142.9620 C   0  0  1  0  0  3  0  0  0  0  0  0
  187.5440  178.0810  143.6390 N   0  0  0  0  0  2  0  0  0  0  0  0
  186.3620  177.8090  136.1200 C   0  0  2  0  0  3  0  0  0  0  0  0
  189.1600  177.5660  145.3050 C   0  0  0  0  0  3  0  0  0  0  0  0
  184.7760  178.2530  142.9080 C   0  0  0  0  0  3  0  0  0  0  0  0
  187.1630  177.7160  142.2710 C   0  0  1  0  0  3  0  0  0  0  0  0
  185.7810  178.2230  141.9300 C   0  0  0  0  0  0  0  0  0  0  0  0
  186.5220  178.5460  139.5340 C   0  0  2  0  0  3  0  0  0  0  0  0
  187.1220  176.5070  135.8760 C   0  0  0  0  0  2  0  0  0  0  0  0
  191.6810  176.3660  143.9060 C   0  0  0  0  0  2  0  0  0  0  0  0
  188.9030  177.9210  144.0430 C   0  0  0  0  0  0  0  0  0  0  0  0
  188.1540  176.4190  136.9780 C   0  0  0  0  0  2  0  0  0  0  0  0
  191.4180  177.7500  143.2820 C   0  0  0  0  0  2  0  0  0  0  0  0
  190.5160  177.1410  145.7560 C   0  0  1  0  0  3  0  0  0  0  0  0
  184.1580  178.9540  140.2760 C   0  0  0  0  0  3  0  0  0  0  0  0
  185.4560  178.5370  140.5940 C   0  0  0  0  0  0  0  0  0  0  0  0
  186.0600  177.9750  138.3400 O   0  0  0  0  0  0  0  0  0  0  0  0
  189.4410  177.4890  141.6490 C   0  0  0  0  0  2  0  0  0  0  0  0
  189.3750  179.2700  139.0020 O   0  0  0  0  0  1  0  0  0  0  0  0
  186.5550  178.7490  134.9440 C   0  0  0  0  0  1  0  0  0  0  0  0
  187.7600  177.7590  139.9590 C   0  0  2  0  0  3  0  0  0  0  0  0
  186.8800  178.4240  137.3400 N   0  0  1  0  0  0  0  0  0  0  0  0
  190.4720  176.7990  147.2340 C   0  0  0  0  0  2  0  0  0  0  0  0
  191.8240  176.4050  147.7180 C   0  0  0  0  0  0  0  0  0  0  0  0
  192.4330  175.2580  147.2250 O   0  0  0  0  0  0  0  0  0  0  0  0
  192.4310  177.1280  148.5510 O   0  0  0  0  0  1  0  0  0  0  0  0
  1 20  1  0  0  0  0
  2 24  1  1  0  0  0
  2 12  1  0  0  0  0
  3 11  1  0  0  0  0
  4  3  2  0  0  0  0
  5 25  1  6  0  0  0
  5 27  1  0  0  0  0
  6 18  1  1  0  0  0
  6  5  1  0  0  0  0
  7 24  1  6  0  0  0
  7 19  1  0  0  0  0
  7 17  1  0  0  0  0
  8 17  1  0  0  0  0
  9 26  1  6  0  0  0
  9 28  1  0  0  0  0
 10 20  1  0  0  0  0
 12 13  1  6  0  0  0
 12  8  1  0  0  0  0
 13 11  2  0  0  0  0
 14 23  1  6  0  0  0
 14 27  1  0  0  0  0
 14 22  1  0  0  0  0
 15  9  1  0  0  0  0
 15 18  1  0  0  0  0
 16  1  1  0  0  0  0
 17 10  2  0  0  0  0
 19 16  1  0  0  0  0
 20 29  1  1  0  0  0
 21 22  2  0  0  0  0
 21  4  1  0  0  0  0
 22 13  1  0  0  0  0
 27  2  1  0  0  0  0
 28  6  1  0  0  0  0
 28 23  1  0  0  0  0
 29 30  1  0  0  0  0
 30 32  1  0  0  0  0
 31 30  2  0  0  0  0
M  END
>  <MODEL>
4

>  <REMARK>
 VINA RESULT:      -8.5      3.570      5.862
  Name = 
  2 active torsions:
  status: ('A' for Active; 'I' for Inactive)
    1  A    between atoms: C_20  and  C_29
    2  A    between atoms: C_29  and  C_30
                            x       y       z     vdW  Elec       q    Type
                         _______ _______ _______ _____ _____    ______ ____

>  <TORSDO>
F 2

$$$$
=
 OpenBabel11122410403D

 32 37  0  0  1  0  0  0  0  0999 V2000
  189.7300  176.4150  144.9940 O   0  0  0  0  0  0  0  0  0  0  0  0
  190.8270  177.3170  140.1370 N   0  0  1  0  0  0  0  0  0  0  0  0
  186.7670  178.2050  137.5400 C   0  0  0  0  0  3  0  0  0  0  0  0
  187.5160  178.1300  136.3640 C   0  0  0  0  0  3  0  0  0  0  0  0
  192.8700  176.3780  139.0080 C   0  0  1  0  0  3  0  0  0  0  0  0
  193.3570  175.7930  137.6730 C   0  0  1  0  0  3  0  0  0  0  0  0
  190.9320  177.7270  142.5240 C   0  0  1  0  0  3  0  0  0  0  0  0
  188.7860  177.9750  141.2620 N   0  0  0  0  0  2  0  0  0  0  0  0
  192.9480  175.3500  135.4490 C   0  0  2  0  0  3  0  0  0  0  0  0
  188.6850  178.0030  143.6380 C   0  0  0  0  0  3  0  0  0  0  0  0
  187.3680  177.9250  138.7700 C   0  0  0  0  0  3  0  0  0  0  0  0
  189.3540  177.1990  140.1550 C   0  0  1  0  0  3  0  0  0  0  0  0
  188.7260  177.5820  138.8360 C   0  0  0  0  0  0  0  0  0  0  0  0
  190.9330  177.1270  137.6870 C   0  0  2  0  0  3  0  0  0  0  0  0
  193.3490  174.0330  136.1090 C   0  0  0  0  0  2  0  0  0  0  0  0
  191.1260  176.4050  144.7530 C   0  0  0  0  0  2  0  0  0  0  0  0
  189.4340  177.9420  142.5330 C   0  0  0  0  0  0  0  0  0  0  0  0
  193.3150  174.2910  137.5990 C   0  0  0  0  0  2  0  0  0  0  0  0
  191.6780  177.5230  143.8470 C   0  0  0  0  0  2  0  0  0  0  0  0
  189.2400  177.7330  144.9950 C   0  0  1  0  0  3  0  0  0  0  0  0
  188.8620  177.7630  136.4160 C   0  0  0  0  0  3  0  0  0  0  0  0
  189.4680  177.4600  137.6420 C   0  0  0  0  0  0  0  0  0  0  0  0
  191.2790  176.2110  136.6840 O   0  0  0  0  0  0  0  0  0  0  0  0
  191.3240  176.7730  141.4070 C   0  0  0  0  0  2  0  0  0  0  0  0
  193.4640  177.6280  139.1990 O   0  0  0  0  0  1  0  0  0  0  0  0
  194.0890  175.8690  134.5940 C   0  0  0  0  0  1  0  0  0  0  0  0
  191.3380  176.5060  139.0220 C   0  0  2  0  0  3  0  0  0  0  0  0
  192.6320  176.3150  136.4990 N   0  0  1  0  0  0  0  0  0  0  0  0
  188.1370  177.8750  146.0280 C   0  0  0  0  0  2  0  0  0  0  0  0
  188.6290  177.4750  147.3750 C   0  0  0  0  0  0  0  0  0  0  0  0
  189.8470  177.9550  147.8410 O   0  0  0  0  0  0  0  0  0  0  0  0
  187.9280  176.7290  148.1070 O   0  0  0  0  0  1  0  0  0  0  0  0
  1 20  1  0  0  0  0
  2 12  1  0  0  0  0
  2 24  1  1  0  0  0
  3 11  1  0  0  0  0
  4 21  1  0  0  0  0
  4  3  2  0  0  0  0
  5 27  1  0  0  0  0
  5 25  1  6  0  0  0
  6 18  1  1  0  0  0
  6  5  1  0  0  0  0
  7 24  1  6  0  0  0
  7 17  1  0  0  0  0
  7 19  1  0  0  0  0
  8 17  1  0  0  0  0
  9 26  1  1  0  0  0
  9 15  1  0  0  0  0
  9 28  1  0  0  0  0
 10 20  1  0  0  0  0
 11 13  2  0  0  0  0
 12 13  1  6  0  0  0
 12  8  1  0  0  0  0
 14 23  1  6  0  0  0
 14 27  1  0  0  0  0
 15 18  1  0  0  0  0
 16  1  1  0  0  0  0
 17 10  2  0  0  0  0
 19 16  1  0  0  0  0
 20 29  1  1  0  0  0
 21 22  2  0  0  0  0
 22 14  1  0  0  0  0
 22 13  1  0  0  0  0
 27  2  1  0  0  0  0
 28 23  1  0  0  0  0
 28  6  1  0  0  0  0
 29 30  1  0  0  0  0
 30 31  2  0  0  0  0
 30 32  1  0  0  0  0
M  END
>  <MODEL>
5

>  <REMARK>
 VINA RESULT:      -8.4      3.949      8.810
  Name = 
  2 active torsions:
  status: ('A' for Active; 'I' for Inactive)
    1  A    between atoms: C_20  and  C_29
    2  A    between atoms: C_29  and  C_30
                            x       y       z     vdW  Elec       q    Type
                         _______ _______ _______ _____ _____    ______ ____

>  <TORSDO>
F 2

$$$$
=
 OpenBabel11122410403D

 32 37  0  0  1  0  0  0  0  0999 V2000
  188.2100  176.4690  144.3460 O   0  0  0  0  0  0  0  0  0  0  0  0
  190.2750  177.3550  139.8110 N   0  0  1  0  0  0  0  0  0  0  0  0
  186.8270  177.9250  136.3760 C   0  0  0  0  0  3  0  0  0  0  0  0
  187.8160  177.8790  135.3910 C   0  0  0  0  0  3  0  0  0  0  0  0
  192.5670  176.5330  139.1780 C   0  0  1  0  0  3  0  0  0  0  0  0
  193.3660  175.9590  137.9980 C   0  0  1  0  0  3  0  0  0  0  0  0
  189.8350  177.8140  142.1510 C   0  0  1  0  0  3  0  0  0  0  0  0
  188.0030  177.8960  140.4500 N   0  0  0  0  0  2  0  0  0  0  0  0
  193.4760  175.4500  135.7530 C   0  0  2  0  0  3  0  0  0  0  0  0
  187.3880  177.9600  142.7460 C   0  0  0  0  0  3  0  0  0  0  0  0
  187.1630  177.7070  137.7140 C   0  0  0  0  0  3  0  0  0  0  0  0
  188.8430  177.1400  139.5160 C   0  0  1  0  0  3  0  0  0  0  0  0
  188.4930  177.4560  138.0810 C   0  0  0  0  0  0  0  0  0  0  0  0
  190.9200  177.1290  137.4490 C   0  0  2  0  0  3  0  0  0  0  0  0
  193.8040  174.1740  136.5260 C   0  0  0  0  0  2  0  0  0  0  0  0
  189.6230  176.5480  144.4100 C   0  0  0  0  0  2  0  0  0  0  0  0
  188.3610  177.9290  141.8310 C   0  0  0  0  0  0  0  0  0  0  0  0
  193.4330  174.4560  137.9650 C   0  0  0  0  0  2  0  0  0  0  0  0
  190.2880  177.6840  143.6090 C   0  0  0  0  0  2  0  0  0  0  0  0
  187.6520  177.7520  144.1990 C   0  0  1  0  0  3  0  0  0  0  0  0
  189.1390  177.6030  135.7430 C   0  0  0  0  0  3  0  0  0  0  0  0
  189.4820  177.3620  137.0790 C   0  0  0  0  0  0  0  0  0  0  0  0
  191.5310  176.2190  136.5730 O   0  0  0  0  0  0  0  0  0  0  0  0
  190.5170  176.8680  141.1750 C   0  0  0  0  0  2  0  0  0  0  0  0
  193.0290  177.8230  139.4520 O   0  0  0  0  0  1  0  0  0  0  0  0
  194.7410  176.0280  135.1470 C   0  0  0  0  0  1  0  0  0  0  0  0
  191.0640  176.5600  138.8590 C   0  0  2  0  0  3  0  0  0  0  0  0
  192.8820  176.4100  136.6800 N   0  0  1  0  0  0  0  0  0  0  0  0
  186.3450  177.8390  144.9660 C   0  0  0  0  0  2  0  0  0  0  0  0
  186.5690  178.4320  146.3130 C   0  0  0  0  0  0  0  0  0  0  0  0
  185.6750  179.3670  146.8180 O   0  0  0  0  0  0  0  0  0  0  0  0
  187.5510  178.0640  147.0090 O   0  0  0  0  0  1  0  0  0  0  0  0
  1 16  1  0  0  0  0
  2 24  1  1  0  0  0
  3 11  1  0  0  0  0
  4 21  1  0  0  0  0
  4  3  2  0  0  0  0
  5 25  1  6  0  0  0
  6 18  1  6  0  0  0
  6  5  1  0  0  0  0
  7 24  1  6  0  0  0
  7 19  1  0  0  0  0
  8 17  1  0  0  0  0
  9 26  1  1  0  0  0
  9 15  1  0  0  0  0
  9 28  1  0  0  0  0
 10 20  1  0  0  0  0
 11 13  2  0  0  0  0
 12 13  1  6  0  0  0
 12  2  1  0  0  0  0
 12  8  1  0  0  0  0
 14 23  1  6  0  0  0
 14 27  1  0  0  0  0
 15 18  1  0  0  0  0
 17  7  1  0  0  0  0
 17 10  2  0  0  0  0
 19 16  1  0  0  0  0
 20  1  1  0  0  0  0
 20 29  1  1  0  0  0
 21 22  2  0  0  0  0
 22 14  1  0  0  0  0
 22 13  1  0  0  0  0
 23 28  1  0  0  0  0
 27  5  1  0  0  0  0
 27  2  1  0  0  0  0
 28  6  1  0  0  0  0
 29 30  1  0  0  0  0
 30 31  2  0  0  0  0
 30 32  1  0  0  0  0
M  END
>  <MODEL>
6

>  <REMARK>
 VINA RESULT:      -8.3      3.517      8.985
  Name = 
  2 active torsions:
  status: ('A' for Active; 'I' for Inactive)
    1  A    between atoms: C_20  and  C_29
    2  A    between atoms: C_29  and  C_30
                            x       y       z     vdW  Elec       q    Type
                         _______ _______ _______ _____ _____    ______ ____

>  <TORSDO>
F 2

$$$$
=
 OpenBabel11122410403D

 32 37  0  0  1  0  0  0  0  0999 V2000
  192.6700  173.9080  135.8800 O   0  0  0  0  0  0  0  0  0  0  0  0
  189.6180  177.2550  138.1360 N   0  0  1  0  0  0  0  0  0  0  0  0
  190.4100  177.3970  142.9700 C   0  0  0  0  0  3  0  0  0  0  0  0
  189.2650  178.1810  143.1240 C   0  0  0  0  0  3  0  0  0  0  0  0
  187.3670  177.8840  137.2050 C   0  0  1  0  0  3  0  0  0  0  0  0
  185.9310  178.2260  137.6310 C   0  0  1  0  0  3  0  0  0  0  0  0
  191.3400  176.5550  136.5800 C   0  0  1  0  0  3  0  0  0  0  0  0
  191.6930  176.4070  139.0510 N   0  0  0  0  0  2  0  0  0  0  0  0
  184.4350  178.6980  139.3190 C   0  0  2  0  0  3  0  0  0  0  0  0
  193.2700  175.3240  137.6390 C   0  0  0  0  0  3  0  0  0  0  0  0
  190.7400  176.8810  141.7150 C   0  0  0  0  0  3  0  0  0  0  0  0
  190.2470  176.5300  139.2600 C   0  0  1  0  0  3  0  0  0  0  0  0
  189.9360  177.1560  140.5990 C   0  0  0  0  0  0  0  0  0  0  0  0
  187.8920  178.2450  139.5820 C   0  0  2  0  0  3  0  0  0  0  0  0
  183.8610  177.5350  138.5140 C   0  0  0  0  0  2  0  0  0  0  0  0
  191.8570  174.5990  134.9490 C   0  0  0  0  0  2  0  0  0  0  0  0
  192.1790  176.0860  137.7480 C   0  0  0  0  0  0  0  0  0  0  0  0
  184.9830  177.0580  137.6200 C   0  0  0  0  0  2  0  0  0  0  0  0
  191.7080  176.1190  135.1570 C   0  0  0  0  0  2  0  0  0  0  0  0
  193.7090  174.7390  136.3390 C   0  0  1  0  0  3  0  0  0  0  0  0
  188.4420  178.4390  142.0250 C   0  0  0  0  0  3  0  0  0  0  0  0
  188.7530  177.9080  140.7670 C   0  0  0  0  0  0  0  0  0  0  0  0
  186.5300  178.1180  139.8880 O   0  0  0  0  0  0  0  0  0  0  0  0
  189.8600  176.4690  136.9200 C   0  0  0  0  0  2  0  0  0  0  0  0
  187.9760  179.0350  136.6990 O   0  0  0  0  0  1  0  0  0  0  0  0
  183.6740  179.9730  139.0030 C   0  0  0  0  0  1  0  0  0  0  0  0
  188.1720  177.3310  138.3910 C   0  0  2  0  0  3  0  0  0  0  0  0
  185.8430  178.8560  138.9620 N   0  0  1  0  0  0  0  0  0  0  0  0
  194.9700  173.9220  136.5550 C   0  0  0  0  0  2  0  0  0  0  0  0
  196.1070  174.8080  136.9290 C   0  0  0  0  0  0  0  0  0  0  0  0
  196.6970  174.6900  138.1810 O   0  0  0  0  0  1  0  0  0  0  0  0
  196.5550  175.6430  136.1010 O   0  0  0  0  0  0  0  0  0  0  0  0
  1 20  1  0  0  0  0
  2 24  1  6  0  0  0
  2 27  1  0  0  0  0
  2 12  1  0  0  0  0
  3  4  1  0  0  0  0
  5 25  1  1  0  0  0
  5  6  1  0  0  0  0
  5 27  1  0  0  0  0
  6 18  1  1  0  0  0
  6 28  1  0  0  0  0
  7 19  1  6  0  0  0
  7 24  1  0  0  0  0
  7 17  1  0  0  0  0
  9 26  1  6  0  0  0
 10 17  2  0  0  0  0
 11  3  2  0  0  0  0
 12  8  1  6  0  0  0
 12 13  1  0  0  0  0
 13 22  2  0  0  0  0
 13 11  1  0  0  0  0
 14 23  1  1  0  0  0
 14 22  1  0  0  0  0
 15  9  1  0  0  0  0
 16 19  1  0  0  0  0
 16  1  1  0  0  0  0
 17  8  1  0  0  0  0
 18 15  1  0  0  0  0
 20 29  1  1  0  0  0
 20 10  1  0  0  0  0
 21  4  2  0  0  0  0
 22 21  1  0  0  0  0
 27 14  1  0  0  0  0
 28  9  1  0  0  0  0
 28 23  1  0  0  0  0
 29 30  1  0  0  0  0
 30 31  1  0  0  0  0
 32 30  2  0  0  0  0
M  END
>  <MODEL>
7

>  <REMARK>
 VINA RESULT:      -7.7      2.877      4.333
  Name = 
  2 active torsions:
  status: ('A' for Active; 'I' for Inactive)
    1  A    between atoms: C_20  and  C_29
    2  A    between atoms: C_29  and  C_30
                            x       y       z     vdW  Elec       q    Type
                         _______ _______ _______ _____ _____    ______ ____

>  <TORSDO>
F 2

$$$$
=
 OpenBabel11122410403D

 32 37  0  0  1  0  0  0  0  0999 V2000
  183.9650  180.4840  138.7190 O   0  0  0  0  0  0  0  0  0  0  0  0
  186.4500  178.0190  142.3740 N   0  0  1  0  0  0  0  0  0  0  0  0
  184.2690  178.6280  146.7200 C   0  0  0  0  0  3  0  0  0  0  0  0
  185.3710  178.0410  147.3430 C   0  0  0  0  0  3  0  0  0  0  0  0
  188.9160  177.5380  142.2540 C   0  0  1  0  0  3  0  0  0  0  0  0
  190.1820  177.4680  143.1220 C   0  0  1  0  0  3  0  0  0  0  0  0
  185.2220  178.2010  140.2920 C   0  0  1  0  0  3  0  0  0  0  0  0
  184.1390  178.7340  142.4820 N   0  0  0  0  0  2  0  0  0  0  0  0
  191.1390  177.5020  145.2180 C   0  0  2  0  0  3  0  0  0  0  0  0
  182.9770  179.3340  140.4960 C   0  0  0  0  0  3  0  0  0  0  0  0
  184.2890  178.8670  145.3440 C   0  0  0  0  0  3  0  0  0  0  0  0
  185.4620  178.8410  143.1040 C   0  0  1  0  0  3  0  0  0  0  0  0
  185.4070  178.5080  144.5770 C   0  0  0  0  0  0  0  0  0  0  0  0
  187.7360  177.5350  144.4140 C   0  0  2  0  0  3  0  0  0  0  0  0
  191.8380  178.5710  144.3810 C   0  0  0  0  0  2  0  0  0  0  0  0
  185.0680  179.7520  138.2130 C   0  0  0  0  0  2  0  0  0  0  0  0
  184.0400  178.7530  141.0590 C   0  0  0  0  0  0  0  0  0  0  0  0
  191.0000  178.7310  143.1320 C   0  0  0  0  0  2  0  0  0  0  0  0
  185.2620  178.3270  138.7650 C   0  0  0  0  0  2  0  0  0  0  0  0
  182.9030  179.6170  139.0340 C   0  0  1  0  0  3  0  0  0  0  0  0
  186.5000  177.7050  146.5930 C   0  0  0  0  0  3  0  0  0  0  0  0
  186.5390  177.9600  145.2170 C   0  0  0  0  0  0  0  0  0  0  0  0
  188.9320  177.8930  145.0520 O   0  0  0  0  0  0  0  0  0  0  0  0
  186.5220  178.5390  141.0030 C   0  0  0  0  0  2  0  0  0  0  0  0
  188.5730  176.2450  141.8480 O   0  0  0  0  0  1  0  0  0  0  0  0
  192.0520  176.3040  145.3960 C   0  0  0  0  0  1  0  0  0  0  0  0
  187.7560  178.1800  143.0300 C   0  0  2  0  0  3  0  0  0  0  0  0
  189.9170  177.1000  144.5260 N   0  0  1  0  0  0  0  0  0  0  0  0
  181.5770  180.2860  138.7180 C   0  0  0  0  0  2  0  0  0  0  0  0
  181.2380  180.1160  137.2770 C   0  0  0  0  0  0  0  0  0  0  0  0
  180.7900  181.2020  136.5360 O   0  0  0  0  0  0  0  0  0  0  0  0
  181.3890  178.9970  136.7220 O   0  0  0  0  0  1  0  0  0  0  0  0
  1 20  1  0  0  0  0
  2 24  1  6  0  0  0
  2 27  1  0  0  0  0
  2 12  1  0  0  0  0
  3  4  1  0  0  0  0
  5 25  1  1  0  0  0
  5 27  1  0  0  0  0
  5  6  1  0  0  0  0
  6 18  1  1  0  0  0
  6 28  1  0  0  0  0
  7 19  1  6  0  0  0
  7 24  1  0  0  0  0
  7 17  1  0  0  0  0
  9 26  1  6  0  0  0
 10 17  2  0  0  0  0
 11  3  2  0  0  0  0
 12  8  1  6  0  0  0
 12 13  1  0  0  0  0
 13 22  2  0  0  0  0
 13 11  1  0  0  0  0
 14 23  1  1  0  0  0
 14 22  1  0  0  0  0
 15  9  1  0  0  0  0
 16  1  1  0  0  0  0
 16 19  1  0  0  0  0
 17  8  1  0  0  0  0
 18 15  1  0  0  0  0
 20 29  1  1  0  0  0
 20 10  1  0  0  0  0
 21  4  2  0  0  0  0
 22 21  1  0  0  0  0
 27 14  1  0  0  0  0
 28 23  1  0  0  0  0
 28  9  1  0  0  0  0
 30 29  1  0  0  0  0
 31 30  2  0  0  0  0
 32 30  1  0  0  0  0
M  END
>  <MODEL>
8

>  <REMARK>
 VINA RESULT:      -7.4      2.982      7.462
  Name = 
  2 active torsions:
  status: ('A' for Active; 'I' for Inactive)
    1  A    between atoms: C_20  and  C_29
    2  A    between atoms: C_29  and  C_30
                            x       y       z     vdW  Elec       q    Type
                         _______ _______ _______ _____ _____    ______ ____

>  <TORSDO>
F 2

$$$$
=
 OpenBabel11122410403D

 32 37  0  0  1  0  0  0  0  0999 V2000
  191.6590  175.1660  144.5830 O   0  0  0  0  0  0  0  0  0  0  0  0
  187.8450  178.1560  143.1230 N   0  0  1  0  0  0  0  0  0  0  0  0
  184.3110  178.3010  146.5150 C   0  0  0  0  0  3  0  0  0  0  0  0
  183.4830  178.9640  145.6080 C   0  0  0  0  0  3  0  0  0  0  0  0
  187.2940  178.5720  140.7040 C   0  0  1  0  0  3  0  0  0  0  0  0
  186.1080  178.7620  139.7460 C   0  0  1  0  0  3  0  0  0  0  0  0
  190.1470  177.6560  143.6980 C   0  0  1  0  0  3  0  0  0  0  0  0
  188.3260  177.5050  145.4060 N   0  0  0  0  0  2  0  0  0  0  0  0
  183.8420  179.0560  139.4490 C   0  0  2  0  0  3  0  0  0  0  0  0
  190.4540  176.6070  145.9710 C   0  0  0  0  0  3  0  0  0  0  0  0
  185.5650  177.8400  146.1080 C   0  0  0  0  0  3  0  0  0  0  0  0
  187.3280  177.4800  144.3320 C   0  0  1  0  0  3  0  0  0  0  0  0
  186.0080  178.0510  144.7940 C   0  0  0  0  0  0  0  0  0  0  0  0
  185.6120  178.9460  142.4620 C   0  0  2  0  0  3  0  0  0  0  0  0
  184.2590  177.8540  138.6050 C   0  0  0  0  0  2  0  0  0  0  0  0
  191.9160  175.7870  143.3360 C   0  0  0  0  0  2  0  0  0  0  0  0
  189.6940  177.2550  145.0850 C   0  0  0  0  0  0  0  0  0  0  0  0
  185.6620  177.5050  139.0490 C   0  0  0  0  0  2  0  0  0  0  0  0
  191.5540  177.2810  143.2210 C   0  0  0  0  0  2  0  0  0  0  0  0
  191.8110  176.0890  145.6330 C   0  0  1  0  0  3  0  0  0  0  0  0
  183.9020  179.1550  144.2890 C   0  0  0  0  0  3  0  0  0  0  0  0
  185.1490  178.6780  143.8660 C   0  0  0  0  0  0  0  0  0  0  0  0
  184.5990  178.6790  141.5300 O   0  0  0  0  0  0  0  0  0  0  0  0
  189.0360  177.4170  142.6870 C   0  0  0  0  0  2  0  0  0  0  0  0
  187.9740  179.7850  140.8300 O   0  0  0  0  0  1  0  0  0  0  0  0
  183.5830  180.2530  138.5520 C   0  0  0  0  0  1  0  0  0  0  0  0
  186.8130  178.0830  142.0790 C   0  0  2  0  0  3  0  0  0  0  0  0
  184.9200  179.3590  140.3860 N   0  0  1  0  0  0  0  0  0  0  0  0
  192.4040  175.3990  146.8480 C   0  0  0  0  0  2  0  0  0  0  0  0
  192.5050  176.3500  147.9900 C   0  0  0  0  0  0  0  0  0  0  0  0
  191.5800  177.3780  148.1230 O   0  0  0  0  0  0  0  0  0  0  0  0
  193.4090  176.2050  148.8540 O   0  0  0  0  0  1  0  0  0  0  0  0
  1 20  1  0  0  0  0
  2 24  1  6  0  0  0
  2 12  1  0  0  0  0
  4  3  2  0  0  0  0
  5 25  1  1  0  0  0
  5 27  1  0  0  0  0
  6 18  1  1  0  0  0
  6 28  1  0  0  0  0
  6  5  1  0  0  0  0
  7 24  1  6  0  0  0
  7 17  1  0  0  0  0
  9 26  1  6  0  0  0
  9 28  1  0  0  0  0
 11  3  1  0  0  0  0
 12 13  1  1  0  0  0
 12  8  1  0  0  0  0
 13 11  2  0  0  0  0
 14 23  1  6  0  0  0
 14 22  1  0  0  0  0
 15 18  1  0  0  0  0
 15  9  1  0  0  0  0
 16  1  1  0  0  0  0
 17  8  1  0  0  0  0
 17 10  2  0  0  0  0
 19 16  1  0  0  0  0
 19  7  1  0  0  0  0
 20 10  1  0  0  0  0
 20 29  1  1  0  0  0
 21  4  1  0  0  0  0
 22 21  2  0  0  0  0
 22 13  1  0  0  0  0
 27 14  1  0  0  0  0
 27  2  1  0  0  0  0
 28 23  1  0  0  0  0
 29 30  1  0  0  0  0
 30 31  2  0  0  0  0
 30 32  1  0  0  0  0
M  END
>  <MODEL>
9

>  <REMARK>
 VINA RESULT:      -7.3      3.785      4.963
  Name = 
  2 active torsions:
  status: ('A' for Active; 'I' for Inactive)
    1  A    between atoms: C_20  and  C_29
    2  A    between atoms: C_29  and  C_30
                            x       y       z     vdW  Elec       q    Type
                         _______ _______ _______ _____ _____    ______ ____

>  <TORSDO>
F 2

$$$$
