=
 OpenBabel11122410263D

 30 34  0  0  1  0  0  0  0  0999 V2000
  187.9960  177.5350  142.7500 N   0  0  0  0  0  0  0  0  0  0  0  0
  185.5350  177.9590  143.0190 C   0  0  0  0  0  0  0  0  0  0  0  0
  187.8670  178.7530  138.6970 C   0  0  0  0  0  2  0  0  0  0  0  0
  189.0450  177.1150  141.7940 C   0  0  2  0  0  3  0  0  0  0  0  0
  188.2520  177.4580  144.1910 C   0  0  0  0  0  2  0  0  0  0  0  0
  191.9210  178.1650  143.9680 O   0  0  0  0  0  1  0  0  0  0  0  0
  190.6160  178.1250  143.4710 C   0  0  2  0  0  3  0  0  0  0  0  0
  189.3180  178.5510  138.2890 C   0  0  2  0  0  3  0  0  0  0  0  0
  189.5430  178.1900  144.5800 C   0  0  2  0  0  3  0  0  0  0  0  0
  190.4150  176.9730  142.4750 C   0  0  1  0  0  3  0  0  0  0  0  0
  184.3330  178.4270  142.4810 C   0  0  0  0  0  3  0  0  0  0  0  0
  185.5220  177.4460  144.3100 O   0  0  0  0  0  1  0  0  0  0  0  0
  187.8470  178.5130  140.1290 N   0  0  0  0  0  0  0  0  0  0  0  0
  184.2850  178.9220  141.1790 C   0  0  0  0  0  3  0  0  0  0  0  0
  186.7210  177.9970  142.2460 C   0  0  0  0  0  0  0  0  0  0  0  0
  189.1500  178.1290  140.6420 C   0  0  2  0  0  3  0  0  0  0  0  0
  189.4020  177.9510  137.0310 O   0  0  0  0  0  1  0  0  0  0  0  0
  189.9540  177.7020  139.4020 C   0  0  1  0  0  3  0  0  0  0  0  0
  185.4430  178.9520  140.4040 C   0  0  0  0  0  3  0  0  0  0  0  0
  186.6580  178.4930  140.9280 C   0  0  0  0  0  0  0  0  0  0  0  0
  191.1240  175.6850  138.6480 O   0  0  0  0  0  0  0  0  0  0  0  0
  189.8830  176.1950  139.0680 C   0  0  0  0  0  3  0  0  0  0  0  0
  188.8890  175.9330  138.1180 O   0  0  0  0  0  0  0  0  0  0  0  0
  190.7970  174.6630  137.7610 C   0  0  0  0  0  2  0  0  0  0  0  0
  189.3220  174.7670  137.4980 C   0  0  0  0  0  2  0  0  0  0  0  0
  191.8920  175.4570  143.8050 C   0  0  0  0  0  1  0  0  0  0  0  0
  190.5440  175.5990  143.1250 C   0  0  0  0  0  2  0  0  0  0  0  0
  190.0490  177.6420  145.9130 C   0  0  0  0  0  2  0  0  0  0  0  0
  188.8940  177.9070  147.9870 O   0  0  0  0  0  1  0  0  0  0  0  0
  188.8970  177.1840  146.7930 C   0  0  0  0  0  2  0  0  0  0  0  0
  1  5  1  0  0  0  0
  2 12  1  0  0  0  0
  3 13  1  0  0  0  0
  4 10  1  0  0  0  0
  4  1  1  1  0  0  0
  5  9  1  0  0  0  0
  7  6  1  1  0  0  0
  7  9  1  0  0  0  0
  8 17  1  6  0  0  0
  8  3  1  0  0  0  0
  8 18  1  0  0  0  0
  9 28  1  1  0  0  0
 10 27  1  1  0  0  0
 10  7  1  0  0  0  0
 11  2  1  0  0  0  0
 13 20  1  0  0  0  0
 14 11  2  0  0  0  0
 15  1  1  0  0  0  0
 15  2  2  0  0  0  0
 16 13  1  6  0  0  0
 16  4  1  0  0  0  0
 18 22  1  6  0  0  0
 18 16  1  0  0  0  0
 19 20  2  0  0  0  0
 19 14  1  0  0  0  0
 20 15  1  0  0  0  0
 21 22  1  0  0  0  0
 23 22  1  0  0  0  0
 24 21  1  0  0  0  0
 25 24  1  0  0  0  0
 25 23  1  0  0  0  0
 27 26  1  0  0  0  0
 28 30  1  0  0  0  0
 30 29  1  0  0  0  0
M  END
>  <MODEL>
1

>  <REMARK>
 VINA RESULT:      -7.7      0.000      0.000
  Name = 
  4 active torsions:
  status: ('A' for Active; 'I' for Inactive)
    1  A    between atoms: C_9  and  C_22
    2  A    between atoms: C_11  and  C_28
    3  A    between atoms: C_12  and  C_27
    4  A    between atoms: C_28  and  C_30
                            x       y       z     vdW  Elec       q    Type
                         _______ _______ _______ _____ _____    ______ ____

>  <TORSDO>
F 4

$$$$
=
 OpenBabel11122410263D

 30 34  0  0  1  0  0  0  0  0999 V2000
  189.8270  176.1880  138.2630 N   0  0  0  0  0  0  0  0  0  0  0  0
  189.7570  177.1310  140.5900 C   0  0  0  0  0  0  0  0  0  0  0  0
  186.0260  177.8240  137.3730 C   0  0  0  0  0  2  0  0  0  0  0  0
  189.0030  175.6440  137.1620 C   0  0  2  0  0  3  0  0  0  0  0  0
  191.2640  175.9030  138.3040 C   0  0  0  0  0  2  0  0  0  0  0  0
  191.7390  175.7760  134.5940 O   0  0  0  0  0  1  0  0  0  0  0  0
  191.0370  176.0870  135.7620 C   0  0  2  0  0  3  0  0  0  0  0  0
  185.8310  177.3410  135.9460 C   0  0  2  0  0  3  0  0  0  0  0  0
  191.9580  176.2760  136.9870 C   0  0  2  0  0  3  0  0  0  0  0  0
  189.8670  175.1230  136.0030 C   0  0  1  0  0  3  0  0  0  0  0  0
  189.1060  177.9150  141.5470 C   0  0  0  0  0  3  0  0  0  0  0  0
  190.9410  176.5000  140.9510 O   0  0  0  0  0  1  0  0  0  0  0  0
  187.3860  177.4460  137.7120 N   0  0  0  0  0  0  0  0  0  0  0  0
  187.8990  178.5420  141.2460 C   0  0  0  0  0  3  0  0  0  0  0  0
  189.1980  176.9790  139.2980 C   0  0  0  0  0  0  0  0  0  0  0  0
  188.0400  176.7230  136.6360 C   0  0  2  0  0  3  0  0  0  0  0  0
  184.5290  176.8750  135.7510 O   0  0  0  0  0  1  0  0  0  0  0  0
  186.8970  176.2580  135.7180 C   0  0  1  0  0  3  0  0  0  0  0  0
  187.3320  178.3890  139.9830 C   0  0  0  0  0  3  0  0  0  0  0  0
  187.9720  177.6120  139.0090 C   0  0  0  0  0  0  0  0  0  0  0  0
  186.6480  174.4390  137.3410 O   0  0  0  0  0  0  0  0  0  0  0  0
  186.3420  174.8500  136.0330 C   0  0  0  0  0  3  0  0  0  0  0  0
  186.7880  173.9100  135.0970 O   0  0  0  0  0  0  0  0  0  0  0  0
  186.7580  173.0530  137.2530 C   0  0  0  0  0  2  0  0  0  0  0  0
  186.7470  172.7060  135.7920 C   0  0  0  0  0  2  0  0  0  0  0  0
  190.2500  172.8550  135.0240 C   0  0  0  0  0  1  0  0  0  0  0  0
  190.3240  173.6940  136.2840 C   0  0  0  0  0  2  0  0  0  0  0  0
  193.2610  175.4910  136.8650 C   0  0  0  0  0  2  0  0  0  0  0  0
  195.2490  175.1510  138.1450 O   0  0  0  0  0  1  0  0  0  0  0  0
  193.8570  175.1960  138.2320 C   0  0  0  0  0  2  0  0  0  0  0  0
  1  5  1  0  0  0  0
  1 15  1  0  0  0  0
  2 12  1  0  0  0  0
  2 11  1  0  0  0  0
  3 13  1  0  0  0  0
  4  1  1  1  0  0  0
  7  6  1  6  0  0  0
  7 10  1  0  0  0  0
  7  9  1  0  0  0  0
  8 17  1  1  0  0  0
  8  3  1  0  0  0  0
  9 28  1  6  0  0  0
  9  5  1  0  0  0  0
 10 27  1  1  0  0  0
 10  4  1  0  0  0  0
 13 20  1  0  0  0  0
 14 11  2  0  0  0  0
 15  2  2  0  0  0  0
 16  4  1  0  0  0  0
 16 13  1  1  0  0  0
 18  8  1  0  0  0  0
 18 22  1  1  0  0  0
 18 16  1  0  0  0  0
 19 14  1  0  0  0  0
 20 15  1  0  0  0  0
 20 19  2  0  0  0  0
 22 21  1  0  0  0  0
 23 25  1  0  0  0  0
 23 22  1  0  0  0  0
 24 21  1  0  0  0  0
 25 24  1  0  0  0  0
 26 27  1  0  0  0  0
 28 30  1  0  0  0  0
 29 30  1  0  0  0  0
M  END
>  <MODEL>
2

>  <REMARK>
 VINA RESULT:      -6.6      3.309      6.260
  Name = 
  4 active torsions:
  status: ('A' for Active; 'I' for Inactive)
    1  A    between atoms: C_9  and  C_22
    2  A    between atoms: C_11  and  C_28
    3  A    between atoms: C_12  and  C_27
    4  A    between atoms: C_28  and  C_30
                            x       y       z     vdW  Elec       q    Type
                         _______ _______ _______ _____ _____    ______ ____

>  <TORSDO>
F 4

$$$$
=
 OpenBabel11122410263D

 30 34  0  0  1  0  0  0  0  0999 V2000
  185.4820  177.6810  137.7430 N   0  0  0  0  0  0  0  0  0  0  0  0
  184.1420  179.0290  139.3850 C   0  0  0  0  0  0  0  0  0  0  0  0
  181.9630  176.3720  135.7880 C   0  0  0  0  0  2  0  0  0  0  0  0
  185.4830  176.4580  136.9100 C   0  0  2  0  0  3  0  0  0  0  0  0
  186.7500  178.3380  138.0720 C   0  0  0  0  0  2  0  0  0  0  0  0
  188.4910  177.4310  134.8850 O   0  0  0  0  0  1  0  0  0  0  0  0
  187.3700  177.5890  135.7040 C   0  0  2  0  0  3  0  0  0  0  0  0
  182.5480  175.4740  134.7100 C   0  0  2  0  0  3  0  0  0  0  0  0
  187.5780  178.6420  136.8160 C   0  0  2  0  0  3  0  0  0  0  0  0
  186.8340  176.2430  136.2110 C   0  0  1  0  0  3  0  0  0  0  0  0
  182.9000  179.5080  139.8130 C   0  0  0  0  0  3  0  0  0  0  0  0
  185.2690  179.3720  140.1220 O   0  0  0  0  0  1  0  0  0  0  0  0
  183.1120  177.0010  136.4130 N   0  0  0  0  0  0  0  0  0  0  0  0
  181.7360  179.1670  139.1280 C   0  0  0  0  0  3  0  0  0  0  0  0
  184.2270  178.2010  138.2390 C   0  0  0  0  0  0  0  0  0  0  0  0
  184.3680  176.5340  135.8530 C   0  0  2  0  0  3  0  0  0  0  0  0
  181.8140  174.2920  134.5940 O   0  0  0  0  0  1  0  0  0  0  0  0
  184.0130  175.2350  135.1120 C   0  0  1  0  0  3  0  0  0  0  0  0
  181.8040  178.3420  138.0070 C   0  0  0  0  0  3  0  0  0  0  0  0
  183.0400  177.8570  137.5600 C   0  0  0  0  0  0  0  0  0  0  0  0
  184.1430  174.2060  137.3320 O   0  0  0  0  0  0  0  0  0  0  0  0
  184.1600  173.9460  135.9520 C   0  0  0  0  0  3  0  0  0  0  0  0
  185.3110  173.2360  135.5920 O   0  0  0  0  0  0  0  0  0  0  0  0
  184.9490  173.2130  137.8830 C   0  0  0  0  0  2  0  0  0  0  0  0
  185.6300  172.5180  136.7390 C   0  0  0  0  0  2  0  0  0  0  0  0
  188.5940  174.4770  136.3940 C   0  0  0  0  0  1  0  0  0  0  0  0
  187.8070  175.5320  137.1470 C   0  0  0  0  0  2  0  0  0  0  0  0
  189.0460  178.7970  137.2060 C   0  0  0  0  0  2  0  0  0  0  0  0
  190.1670  177.6080  138.9480 O   0  0  0  0  0  1  0  0  0  0  0  0
  189.2390  178.6210  138.7040 C   0  0  0  0  0  2  0  0  0  0  0  0
  1  5  1  0  0  0  0
  1 15  1  0  0  0  0
  2 11  1  0  0  0  0
  2 12  1  0  0  0  0
  3 13  1  0  0  0  0
  4  1  1  6  0  0  0
  7  6  1  1  0  0  0
  7 10  1  0  0  0  0
  7  9  1  0  0  0  0
  8 17  1  1  0  0  0
  8 18  1  0  0  0  0
  8  3  1  0  0  0  0
  9 28  1  1  0  0  0
  9  5  1  0  0  0  0
 10  4  1  0  0  0  0
 10 27  1  1  0  0  0
 13 20  1  0  0  0  0
 14 11  2  0  0  0  0
 15  2  2  0  0  0  0
 16 13  1  1  0  0  0
 16  4  1  0  0  0  0
 18 16  1  0  0  0  0
 18 22  1  1  0  0  0
 19 14  1  0  0  0  0
 20 19  2  0  0  0  0
 20 15  1  0  0  0  0
 21 24  1  0  0  0  0
 22 21  1  0  0  0  0
 23 22  1  0  0  0  0
 23 25  1  0  0  0  0
 25 24  1  0  0  0  0
 26 27  1  0  0  0  0
 28 30  1  0  0  0  0
 30 29  1  0  0  0  0
M  END
>  <MODEL>
3

>  <REMARK>
 VINA RESULT:      -6.4      4.400      6.780
  Name = 
  4 active torsions:
  status: ('A' for Active; 'I' for Inactive)
    1  A    between atoms: C_9  and  C_22
    2  A    between atoms: C_11  and  C_28
    3  A    between atoms: C_12  and  C_27
    4  A    between atoms: C_28  and  C_30
                            x       y       z     vdW  Elec       q    Type
                         _______ _______ _______ _____ _____    ______ ____

>  <TORSDO>
F 4

$$$$
=
 OpenBabel11122410263D

 30 34  0  0  1  0  0  0  0  0999 V2000
  188.0620  177.2540  138.4660 N   0  0  0  0  0  0  0  0  0  0  0  0
  189.6650  177.0860  140.3920 C   0  0  0  0  0  0  0  0  0  0  0  0
  185.1440  179.0910  140.9220 C   0  0  0  0  0  2  0  0  0  0  0  0
  186.6310  177.2410  138.0900 C   0  0  2  0  0  3  0  0  0  0  0  0
  189.0840  176.9890  137.4490 C   0  0  0  0  0  2  0  0  0  0  0  0
  187.1890  178.4980  134.5960 O   0  0  0  0  0  1  0  0  0  0  0  0
  187.4480  178.2630  135.9490 C   0  0  2  0  0  3  0  0  0  0  0  0
  184.0080  179.2790  139.9300 C   0  0  2  0  0  3  0  0  0  0  0  0
  188.9240  177.9040  136.2280 C   0  0  2  0  0  3  0  0  0  0  0  0
  186.4400  177.2830  136.5660 C   0  0  1  0  0  3  0  0  0  0  0  0
  189.9710  177.3680  141.7260 C   0  0  0  0  0  3  0  0  0  0  0  0
  190.5900  176.3680  139.6430 O   0  0  0  0  0  1  0  0  0  0  0  0
  186.2580  178.6110  140.1260 N   0  0  0  0  0  0  0  0  0  0  0  0
  189.0640  178.0570  142.5300 C   0  0  0  0  0  3  0  0  0  0  0  0
  188.4320  177.5100  139.8410 C   0  0  0  0  0  0  0  0  0  0  0  0
  185.9020  178.4350  138.7290 C   0  0  2  0  0  3  0  0  0  0  0  0
  182.7820  178.9360  140.5040 O   0  0  0  0  0  1  0  0  0  0  0  0
  184.3650  178.4100  138.7130 C   0  0  1  0  0  3  0  0  0  0  0  0
  187.8410  178.4680  142.0030 C   0  0  0  0  0  3  0  0  0  0  0  0
  187.5200  178.1980  140.6660 C   0  0  0  0  0  0  0  0  0  0  0  0
  182.9740  176.6700  137.6920 O   0  0  0  0  0  0  0  0  0  0  0  0
  183.7350  177.0030  138.8250 C   0  0  0  0  0  3  0  0  0  0  0  0
  182.9720  176.8810  139.9920 O   0  0  0  0  0  0  0  0  0  0  0  0
  181.9730  175.8340  138.1790 C   0  0  0  0  0  2  0  0  0  0  0  0
  182.0420  175.8970  139.6780 C   0  0  0  0  0  2  0  0  0  0  0  0
  185.9220  174.8630  136.9180 C   0  0  0  0  0  1  0  0  0  0  0  0
  186.5440  175.8780  135.9790 C   0  0  0  0  0  2  0  0  0  0  0  0
  189.6060  177.2590  135.0240 C   0  0  0  0  0  2  0  0  0  0  0  0
  189.7190  174.9050  134.6380 O   0  0  0  0  0  1  0  0  0  0  0  0
  190.2590  175.9400  135.4020 C   0  0  0  0  0  2  0  0  0  0  0  0
  1 15  1  0  0  0  0
  2 11  1  0  0  0  0
  4  1  1  6  0  0  0
  4 16  1  0  0  0  0
  5  1  1  0  0  0  0
  7  6  1  6  0  0  0
  7  9  1  0  0  0  0
  7 10  1  0  0  0  0
  8 17  1  1  0  0  0
  8  3  1  0  0  0  0
  9 28  1  6  0  0  0
  9  5  1  0  0  0  0
 10 27  1  6  0  0  0
 10  4  1  0  0  0  0
 11 14  2  0  0  0  0
 12  2  1  0  0  0  0
 13 20  1  0  0  0  0
 13  3  1  0  0  0  0
 15  2  2  0  0  0  0
 15 20  1  0  0  0  0
 16 13  1  1  0  0  0
 18 16  1  0  0  0  0
 18 22  1  1  0  0  0
 18  8  1  0  0  0  0
 19 14  1  0  0  0  0
 20 19  2  0  0  0  0
 21 24  1  0  0  0  0
 21 22  1  0  0  0  0
 22 23  1  0  0  0  0
 24 25  1  0  0  0  0
 25 23  1  0  0  0  0
 27 26  1  0  0  0  0
 28 30  1  0  0  0  0
 29 30  1  0  0  0  0
M  END
>  <MODEL>
4

>  <REMARK>
 VINA RESULT:      -6.3      2.928      7.207
  Name = 
  4 active torsions:
  status: ('A' for Active; 'I' for Inactive)
    1  A    between atoms: C_9  and  C_22
    2  A    between atoms: C_11  and  C_28
    3  A    between atoms: C_12  and  C_27
    4  A    between atoms: C_28  and  C_30
                            x       y       z     vdW  Elec       q    Type
                         _______ _______ _______ _____ _____    ______ ____

>  <TORSDO>
F 4

$$$$
=
 OpenBabel11122410263D

 30 34  0  0  1  0  0  0  0  0999 V2000
  187.8180  177.4990  140.8750 N   0  0  0  0  0  0  0  0  0  0  0  0
  187.7800  177.2750  143.3770 C   0  0  0  0  0  0  0  0  0  0  0  0
  184.0240  179.3770  140.8830 C   0  0  0  0  0  2  0  0  0  0  0  0
  186.9760  177.5220  139.6590 C   0  0  2  0  0  3  0  0  0  0  0  0
  189.2520  177.2210  140.7630 C   0  0  0  0  0  2  0  0  0  0  0  0
  189.6870  178.8010  137.3980 O   0  0  0  0  0  1  0  0  0  0  0  0
  189.0010  178.5470  138.5880 C   0  0  2  0  0  3  0  0  0  0  0  0
  183.8100  179.6000  139.3950 C   0  0  2  0  0  3  0  0  0  0  0  0
  189.9360  178.1520  139.7530 C   0  0  2  0  0  3  0  0  0  0  0  0
  187.8240  177.5840  138.3790 C   0  0  1  0  0  3  0  0  0  0  0  0
  187.1460  177.5380  144.5950 C   0  0  0  0  0  3  0  0  0  0  0  0
  188.9610  176.5440  143.3950 O   0  0  0  0  0  1  0  0  0  0  0  0
  185.3830  178.8800  140.9930 N   0  0  0  0  0  0  0  0  0  0  0  0
  185.9420  178.2380  144.6300 C   0  0  0  0  0  3  0  0  0  0  0  0
  187.2060  177.7330  142.1660 C   0  0  0  0  0  0  0  0  0  0  0  0
  186.0200  178.7260  139.6960 C   0  0  2  0  0  3  0  0  0  0  0  0
  182.5010  179.2800  139.0260 O   0  0  0  0  0  1  0  0  0  0  0  0
  184.8630  178.7360  138.6840 C   0  0  1  0  0  3  0  0  0  0  0  0
  185.3610  178.6820  143.4440 C   0  0  0  0  0  3  0  0  0  0  0  0
  185.9840  178.4330  142.2140 C   0  0  0  0  0  0  0  0  0  0  0  0
  183.6680  177.3300  137.0710 O   0  0  0  0  0  0  0  0  0  0  0  0
  184.2970  177.3430  138.3280 C   0  0  0  0  0  3  0  0  0  0  0  0
  183.4300  176.8790  139.3240 O   0  0  0  0  0  0  0  0  0  0  0  0
  182.6670  176.3690  137.1930 C   0  0  0  0  0  2  0  0  0  0  0  0
  182.5860  176.0060  138.6480 C   0  0  0  0  0  2  0  0  0  0  0  0
  187.2900  175.5810  136.9810 C   0  0  0  0  0  1  0  0  0  0  0  0
  188.2690  176.1830  137.9700 C   0  0  0  0  0  2  0  0  0  0  0  0
  191.2300  177.5030  139.2670 C   0  0  0  0  0  2  0  0  0  0  0  0
  193.5550  177.3560  139.7920 O   0  0  0  0  0  1  0  0  0  0  0  0
  192.2890  177.5030  140.3590 C   0  0  0  0  0  2  0  0  0  0  0  0
  1 15  1  0  0  0  0
  2 12  1  0  0  0  0
  2 11  1  0  0  0  0
  3 13  1  0  0  0  0
  4 16  1  0  0  0  0
  4  1  1  1  0  0  0
  5  1  1  0  0  0  0
  7  6  1  6  0  0  0
  7  9  1  0  0  0  0
  8 17  1  6  0  0  0
  8  3  1  0  0  0  0
  9 28  1  6  0  0  0
  9  5  1  0  0  0  0
 10 27  1  1  0  0  0
 10  7  1  0  0  0  0
 10  4  1  0  0  0  0
 11 14  2  0  0  0  0
 13 20  1  0  0  0  0
 15 20  1  0  0  0  0
 15  2  2  0  0  0  0
 16 13  1  1  0  0  0
 18 22  1  1  0  0  0
 18  8  1  0  0  0  0
 18 16  1  0  0  0  0
 19 14  1  0  0  0  0
 20 19  2  0  0  0  0
 21 24  1  0  0  0  0
 21 22  1  0  0  0  0
 22 23  1  0  0  0  0
 24 25  1  0  0  0  0
 25 23  1  0  0  0  0
 26 27  1  0  0  0  0
 28 30  1  0  0  0  0
 29 30  1  0  0  0  0
M  END
>  <MODEL>
5

>  <REMARK>
 VINA RESULT:      -6.3      2.705      5.446
  Name = 
  4 active torsions:
  status: ('A' for Active; 'I' for Inactive)
    1  A    between atoms: C_9  and  C_22
    2  A    between atoms: C_11  and  C_28
    3  A    between atoms: C_12  and  C_27
    4  A    between atoms: C_28  and  C_30
                            x       y       z     vdW  Elec       q    Type
                         _______ _______ _______ _____ _____    ______ ____

>  <TORSDO>
F 4

$$$$
=
 OpenBabel11122410263D

 30 34  0  0  1  0  0  0  0  0999 V2000
  183.5240  176.9570  138.4010 N   0  0  0  0  0  0  0  0  0  0  0  0
  182.5400  174.7650  137.6700 C   0  0  0  0  0  0  0  0  0  0  0  0
  186.6780  176.5940  135.6020 C   0  0  0  0  0  2  0  0  0  0  0  0
  184.7850  177.7100  138.5730 C   0  0  2  0  0  3  0  0  0  0  0  0
  182.3190  177.3830  139.1200 C   0  0  0  0  0  2  0  0  0  0  0  0
  183.1260  181.0380  139.0930 O   0  0  0  0  0  1  0  0  0  0  0  0
  183.2780  179.7140  138.6740 C   0  0  2  0  0  3  0  0  0  0  0  0
  187.4640  177.8630  135.8860 C   0  0  2  0  0  3  0  0  0  0  0  0
  182.0040  178.8650  138.8770 C   0  0  2  0  0  3  0  0  0  0  0  0
  184.5520  179.0730  139.2430 C   0  0  1  0  0  3  0  0  0  0  0  0
  182.5640  173.6690  136.8020 C   0  0  0  0  0  3  0  0  0  0  0  0
  181.5690  174.7950  138.6630 O   0  0  0  0  0  1  0  0  0  0  0  0
  185.4780  176.7110  136.4090 N   0  0  0  0  0  0  0  0  0  0  0  0
  183.5380  173.5740  135.8090 C   0  0  0  0  0  3  0  0  0  0  0  0
  183.5020  175.7960  137.5380 C   0  0  0  0  0  0  0  0  0  0  0  0
  185.4690  177.9210  137.2120 C   0  0  2  0  0  3  0  0  0  0  0  0
  188.8370  177.6060  135.9090 O   0  0  0  0  0  1  0  0  0  0  0  0
  186.9310  178.3970  137.2250 C   0  0  1  0  0  3  0  0  0  0  0  0
  184.4970  174.5770  135.6780 C   0  0  0  0  0  3  0  0  0  0  0  0
  184.4860  175.6840  136.5350 C   0  0  0  0  0  0  0  0  0  0  0  0
  188.7740  178.7890  138.7920 O   0  0  0  0  0  0  0  0  0  0  0  0
  187.7740  177.8780  138.4120 C   0  0  0  0  0  3  0  0  0  0  0  0
  188.3240  176.6220  138.1300 O   0  0  0  0  0  0  0  0  0  0  0  0
  189.8050  177.9890  139.2780 C   0  0  0  0  0  2  0  0  0  0  0  0
  189.4580  176.5700  138.9320 C   0  0  0  0  0  2  0  0  0  0  0  0
  185.9070  179.0030  141.3430 C   0  0  0  0  0  1  0  0  0  0  0  0
  184.5100  178.9170  140.7610 C   0  0  0  0  0  2  0  0  0  0  0  0
  181.1300  179.3870  140.0150 C   0  0  0  0  0  2  0  0  0  0  0  0
  181.3000  178.6890  142.2930 O   0  0  0  0  0  1  0  0  0  0  0  0
  180.8440  178.2950  141.0340 C   0  0  0  0  0  2  0  0  0  0  0  0
  1  5  1  0  0  0  0
  2 12  1  0  0  0  0
  3  8  1  0  0  0  0
  3 13  1  0  0  0  0
  4  1  1  6  0  0  0
  4 10  1  0  0  0  0
  7  9  1  0  0  0  0
  7  6  1  1  0  0  0
  7 10  1  0  0  0  0
  8 17  1  1  0  0  0
  8 18  1  0  0  0  0
  9  5  1  0  0  0  0
  9 28  1  1  0  0  0
 10 27  1  1  0  0  0
 11  2  2  0  0  0  0
 13 20  1  0  0  0  0
 14 11  1  0  0  0  0
 15  2  1  0  0  0  0
 15  1  1  0  0  0  0
 16 13  1  1  0  0  0
 16 18  1  0  0  0  0
 16  4  1  0  0  0  0
 18 22  1  1  0  0  0
 19 14  2  0  0  0  0
 19 20  1  0  0  0  0
 20 15  2  0  0  0  0
 21 24  1  0  0  0  0
 22 21  1  0  0  0  0
 23 22  1  0  0  0  0
 23 25  1  0  0  0  0
 25 24  1  0  0  0  0
 27 26  1  0  0  0  0
 28 30  1  0  0  0  0
 30 29  1  0  0  0  0
M  END
>  <MODEL>
6

>  <REMARK>
 VINA RESULT:      -6.3      3.942      6.669
  Name = 
  4 active torsions:
  status: ('A' for Active; 'I' for Inactive)
    1  A    between atoms: C_9  and  C_22
    2  A    between atoms: C_11  and  C_28
    3  A    between atoms: C_12  and  C_27
    4  A    between atoms: C_28  and  C_30
                            x       y       z     vdW  Elec       q    Type
                         _______ _______ _______ _____ _____    ______ ____

>  <TORSDO>
F 4

$$$$
=
 OpenBabel11122410263D

 30 34  0  0  1  0  0  0  0  0999 V2000
  189.6120  176.2390  138.3670 N   0  0  0  0  0  0  0  0  0  0  0  0
  189.7000  177.1790  140.6950 C   0  0  0  0  0  0  0  0  0  0  0  0
  185.8090  177.9740  137.6990 C   0  0  0  0  0  2  0  0  0  0  0  0
  188.7110  175.7180  137.3160 C   0  0  2  0  0  3  0  0  0  0  0  0
  191.0410  175.9170  138.3260 C   0  0  0  0  0  2  0  0  0  0  0  0
  191.2970  175.7840  134.5940 O   0  0  0  0  0  1  0  0  0  0  0  0
  190.6720  176.1110  135.8000 C   0  0  2  0  0  3  0  0  0  0  0  0
  185.5190  177.4980  136.2850 C   0  0  2  0  0  3  0  0  0  0  0  0
  191.6670  176.2740  136.9710 C   0  0  2  0  0  3  0  0  0  0  0  0
  189.4930  175.1770  136.1090 C   0  0  1  0  0  3  0  0  0  0  0  0
  189.1260  177.9780  141.6880 C   0  0  0  0  0  3  0  0  0  0  0  0
  190.8870  176.5180  140.9870 O   0  0  0  0  0  1  0  0  0  0  0  0
  187.1760  177.5600  137.9580 N   0  0  0  0  0  0  0  0  0  0  0  0
  187.9200  178.6360  141.4580 C   0  0  0  0  0  3  0  0  0  0  0  0
  189.0640  177.0440  139.4370 C   0  0  0  0  0  0  0  0  0  0  0  0
  187.7480  176.8220  136.8460 C   0  0  2  0  0  3  0  0  0  0  0  0
  184.1970  177.0660  136.1650 O   0  0  0  0  0  1  0  0  0  0  0  0
  186.5430  176.3880  135.9960 C   0  0  1  0  0  3  0  0  0  0  0  0
  187.2770  178.5010  140.2290 C   0  0  0  0  0  3  0  0  0  0  0  0
  187.8400  177.7090  139.2190 C   0  0  0  0  0  0  0  0  0  0  0  0
  185.2980  174.4120  135.2540 O   0  0  0  0  0  0  0  0  0  0  0  0
  185.9700  174.9950  136.3420 C   0  0  0  0  0  3  0  0  0  0  0  0
  185.1410  175.0530  137.4680 O   0  0  0  0  0  0  0  0  0  0  0  0
  184.3060  173.6290  135.8390 C   0  0  0  0  0  2  0  0  0  0  0  0
  184.2770  173.9780  137.2990 C   0  0  0  0  0  2  0  0  0  0  0  0
  188.7620  172.9090  136.8670 C   0  0  0  0  0  1  0  0  0  0  0  0
  189.9290  173.7360  136.3630 C   0  0  0  0  0  2  0  0  0  0  0  0
  192.9400  175.4560  136.7730 C   0  0  0  0  0  2  0  0  0  0  0  0
  195.3170  175.6880  136.7350 O   0  0  0  0  0  1  0  0  0  0  0  0
  194.1240  176.3500  136.4420 C   0  0  0  0  0  2  0  0  0  0  0  0
  1 15  1  0  0  0  0
  2 12  1  0  0  0  0
  2 11  1  0  0  0  0
  3 13  1  0  0  0  0
  4  1  1  1  0  0  0
  5  1  1  0  0  0  0
  7  6  1  6  0  0  0
  7 10  1  0  0  0  0
  7  9  1  0  0  0  0
  8 17  1  1  0  0  0
  8  3  1  0  0  0  0
  9 28  1  6  0  0  0
  9  5  1  0  0  0  0
 10 27  1  1  0  0  0
 10  4  1  0  0  0  0
 13 20  1  0  0  0  0
 14 11  2  0  0  0  0
 15  2  2  0  0  0  0
 16  4  1  0  0  0  0
 16 13  1  1  0  0  0
 18  8  1  0  0  0  0
 18 22  1  1  0  0  0
 18 16  1  0  0  0  0
 19 14  1  0  0  0  0
 20 15  1  0  0  0  0
 20 19  2  0  0  0  0
 21 24  1  0  0  0  0
 21 22  1  0  0  0  0
 22 23  1  0  0  0  0
 24 25  1  0  0  0  0
 25 23  1  0  0  0  0
 27 26  1  0  0  0  0
 30 29  1  0  0  0  0
 30 28  1  0  0  0  0
M  END
>  <MODEL>
7

>  <REMARK>
 VINA RESULT:      -6.2      3.265      6.488
  Name = 
  4 active torsions:
  status: ('A' for Active; 'I' for Inactive)
    1  A    between atoms: C_9  and  C_22
    2  A    between atoms: C_11  and  C_28
    3  A    between atoms: C_12  and  C_27
    4  A    between atoms: C_28  and  C_30
                            x       y       z     vdW  Elec       q    Type
                         _______ _______ _______ _____ _____    ______ ____

>  <TORSDO>
F 4

$$$$
=
 OpenBabel11122410263D

 30 34  0  0  1  0  0  0  0  0999 V2000
  187.2620  177.7320  140.4600 N   0  0  0  0  0  0  0  0  0  0  0  0
  187.3500  177.6130  142.9680 C   0  0  0  0  0  0  0  0  0  0  0  0
  183.3650  179.3810  140.5720 C   0  0  0  0  0  2  0  0  0  0  0  0
  186.3680  177.6540  139.2850 C   0  0  2  0  0  3  0  0  0  0  0  0
  188.7050  177.5350  140.2910 C   0  0  0  0  0  2  0  0  0  0  0  0
  188.8920  178.9950  136.8500 O   0  0  0  0  0  1  0  0  0  0  0  0
  188.2760  178.7510  138.0800 C   0  0  2  0  0  3  0  0  0  0  0  0
  183.0710  179.5280  139.0880 C   0  0  2  0  0  3  0  0  0  0  0  0
  189.2840  178.4620  139.2140 C   0  0  2  0  0  3  0  0  0  0  0  0
  187.1510  177.7120  137.9650 C   0  0  1  0  0  3  0  0  0  0  0  0
  186.7570  177.8890  144.2030 C   0  0  0  0  0  3  0  0  0  0  0  0
  188.5740  176.9550  142.9590 O   0  0  0  0  0  1  0  0  0  0  0  0
  184.7550  178.9710  140.6380 N   0  0  0  0  0  0  0  0  0  0  0  0
  185.5150  178.5180  144.2670 C   0  0  0  0  0  3  0  0  0  0  0  0
  186.6960  177.9840  141.7680 C   0  0  0  0  0  0  0  0  0  0  0  0
  185.3420  178.8000  139.3200 C   0  0  2  0  0  3  0  0  0  0  0  0
  181.7700  179.1150  138.7940 O   0  0  0  0  0  1  0  0  0  0  0  0
  184.1420  178.6980  138.3630 C   0  0  1  0  0  3  0  0  0  0  0  0
  184.8550  178.8760  143.0930 C   0  0  0  0  0  3  0  0  0  0  0  0
  185.4360  178.6120  141.8460 C   0  0  0  0  0  0  0  0  0  0  0  0
  182.7700  177.1990  136.9940 O   0  0  0  0  0  0  0  0  0  0  0  0
  183.6480  177.2600  138.0900 C   0  0  0  0  0  3  0  0  0  0  0  0
  183.0600  176.7010  139.2310 O   0  0  0  0  0  0  0  0  0  0  0  0
  181.9130  176.1440  137.2930 C   0  0  0  0  0  2  0  0  0  0  0  0
  182.1770  175.7570  138.7200 C   0  0  0  0  0  2  0  0  0  0  0  0
  186.9820  175.8270  136.3300 C   0  0  0  0  0  1  0  0  0  0  0  0
  187.6630  176.3240  137.5910 C   0  0  0  0  0  2  0  0  0  0  0  0
  190.5930  177.8710  138.6940 C   0  0  0  0  0  2  0  0  0  0  0  0
  190.9530  175.5120  138.6130 O   0  0  0  0  0  1  0  0  0  0  0  0
  190.9750  176.6170  139.4640 C   0  0  0  0  0  2  0  0  0  0  0  0
  1 15  1  0  0  0  0
  2 11  1  0  0  0  0
  3 13  1  0  0  0  0
  4 16  1  0  0  0  0
  4  1  1  1  0  0  0
  5  1  1  0  0  0  0
  7  6  1  6  0  0  0
  7  9  1  0  0  0  0
  8 17  1  1  0  0  0
  8  3  1  0  0  0  0
  9 28  1  6  0  0  0
  9  5  1  0  0  0  0
 10 27  1  1  0  0  0
 10  7  1  0  0  0  0
 10  4  1  0  0  0  0
 11 14  2  0  0  0  0
 12  2  1  0  0  0  0
 13 20  1  0  0  0  0
 15 20  1  0  0  0  0
 15  2  2  0  0  0  0
 16 13  1  1  0  0  0
 18 22  1  1  0  0  0
 18  8  1  0  0  0  0
 18 16  1  0  0  0  0
 19 14  1  0  0  0  0
 20 19  2  0  0  0  0
 21 24  1  0  0  0  0
 21 22  1  0  0  0  0
 22 23  1  0  0  0  0
 24 25  1  0  0  0  0
 25 23  1  0  0  0  0
 26 27  1  0  0  0  0
 28 30  1  0  0  0  0
 29 30  1  0  0  0  0
M  END
>  <MODEL>
8

>  <REMARK>
 VINA RESULT:      -6.0      2.890      5.891
  Name = 
  4 active torsions:
  status: ('A' for Active; 'I' for Inactive)
    1  A    between atoms: C_9  and  C_22
    2  A    between atoms: C_11  and  C_28
    3  A    between atoms: C_12  and  C_27
    4  A    between atoms: C_28  and  C_30
                            x       y       z     vdW  Elec       q    Type
                         _______ _______ _______ _____ _____    ______ ____

>  <TORSDO>
F 4

$$$$
=
 OpenBabel11122410263D

 30 34  0  0  1  0  0  0  0  0999 V2000
  189.1590  174.7620  136.9860 N   0  0  0  0  0  0  0  0  0  0  0  0
  187.8720  172.6590  136.5060 C   0  0  0  0  0  0  0  0  0  0  0  0
  192.3960  173.4480  134.5940 C   0  0  0  0  0  2  0  0  0  0  0  0
  190.5150  175.3260  137.1620 C   0  0  2  0  0  3  0  0  0  0  0  0
  187.9970  175.4840  137.5100 C   0  0  0  0  0  2  0  0  0  0  0  0
  189.4130  178.9120  137.0050 O   0  0  0  0  0  1  0  0  0  0  0  0
  189.3670  177.5290  136.8090 C   0  0  2  0  0  3  0  0  0  0  0  0
  193.3640  174.6090  134.7560 C   0  0  2  0  0  3  0  0  0  0  0  0
  187.9560  176.9360  137.0150 C   0  0  2  0  0  3  0  0  0  0  0  0
  190.4700  176.8010  137.5910 C   0  0  1  0  0  3  0  0  0  0  0  0
  187.7710  171.4440  135.8220 C   0  0  0  0  0  3  0  0  0  0  0  0
  186.8520  173.0060  137.3840 O   0  0  0  0  0  1  0  0  0  0  0  0
  191.1790  173.8840  135.2530 N   0  0  0  0  0  0  0  0  0  0  0  0
  188.7810  171.0340  134.9540 C   0  0  0  0  0  3  0  0  0  0  0  0
  189.0010  173.4910  136.3120 C   0  0  0  0  0  0  0  0  0  0  0  0
  191.3190  175.1980  135.8570 C   0  0  2  0  0  3  0  0  0  0  0  0
  194.6670  174.1480  134.9510 O   0  0  0  0  0  1  0  0  0  0  0  0
  192.8360  175.4360  135.9390 C   0  0  1  0  0  3  0  0  0  0  0  0
  189.9040  171.8380  134.7650 C   0  0  0  0  0  3  0  0  0  0  0  0
  190.0200  173.0610  135.4380 C   0  0  0  0  0  0  0  0  0  0  0  0
  194.7260  175.6310  137.4860 O   0  0  0  0  0  0  0  0  0  0  0  0
  193.4920  174.9950  137.2670 C   0  0  0  0  0  3  0  0  0  0  0  0
  193.6310  173.6040  137.3270 O   0  0  0  0  0  0  0  0  0  0  0  0
  195.4700  174.7050  138.2130 C   0  0  0  0  0  2  0  0  0  0  0  0
  194.7030  173.4140  138.1910 C   0  0  0  0  0  2  0  0  0  0  0  0
  191.6420  177.0500  139.7850 C   0  0  0  0  0  1  0  0  0  0  0  0
  190.2950  176.9090  139.1030 C   0  0  0  0  0  2  0  0  0  0  0  0
  187.1060  177.7700  137.9700 C   0  0  0  0  0  2  0  0  0  0  0  0
  185.6540  177.5440  136.0870 O   0  0  0  0  0  1  0  0  0  0  0  0
  185.7230  178.0290  137.3940 C   0  0  0  0  0  2  0  0  0  0  0  0
  1  5  1  0  0  0  0
  2 12  1  0  0  0  0
  3  8  1  0  0  0  0
  3 13  1  0  0  0  0
  4  1  1  6  0  0  0
  4 10  1  0  0  0  0
  7  6  1  1  0  0  0
  7  9  1  0  0  0  0
  7 10  1  0  0  0  0
  8 17  1  1  0  0  0
  8 18  1  0  0  0  0
  9  5  1  0  0  0  0
  9 28  1  1  0  0  0
 10 27  1  1  0  0  0
 11  2  2  0  0  0  0
 13 20  1  0  0  0  0
 14 11  1  0  0  0  0
 15  2  1  0  0  0  0
 15  1  1  0  0  0  0
 16 13  1  1  0  0  0
 16 18  1  0  0  0  0
 16  4  1  0  0  0  0
 18 22  1  1  0  0  0
 19 14  2  0  0  0  0
 19 20  1  0  0  0  0
 20 15  2  0  0  0  0
 21 24  1  0  0  0  0
 22 23  1  0  0  0  0
 22 21  1  0  0  0  0
 23 25  1  0  0  0  0
 25 24  1  0  0  0  0
 27 26  1  0  0  0  0
 29 30  1  0  0  0  0
 30 28  1  0  0  0  0
M  END
>  <MODEL>
9

>  <REMARK>
 VINA RESULT:      -5.7      4.779      7.434
  Name = 
  4 active torsions:
  status: ('A' for Active; 'I' for Inactive)
    1  A    between atoms: C_9  and  C_22
    2  A    between atoms: C_11  and  C_28
    3  A    between atoms: C_12  and  C_27
    4  A    between atoms: C_28  and  C_30
                            x       y       z     vdW  Elec       q    Type
                         _______ _______ _______ _____ _____    ______ ____

>  <TORSDO>
F 4

$$$$
