=
 OpenBabel11122410283D

 30 35  0  0  1  0  0  0  0  0999 V2000
  189.0720  177.4270  143.7090 C   0  0  0  0  0  0  0  0  0  0  0  0
  191.0720  176.4340  144.8810 C   0  0  0  0  0  0  0  0  0  0  0  0
  187.1510  178.1010  147.3800 N   0  0  0  0  0  2  0  0  0  0  0  0
  187.7680  177.9970  143.8010 C   0  0  0  0  0  0  0  0  0  0  0  0
  189.6350  177.2840  142.4790 N   0  0  0  0  0  0  0  0  0  0  0  0
  187.0790  178.5380  140.1940 O   0  0  0  0  0  1  0  0  0  0  0  0
  184.7570  177.9820  143.3600 N   0  0  1  0  0  0  0  0  0  0  0  0
  187.7240  178.1850  141.3770 C   0  0  0  0  0  0  0  0  0  0  0  0
  184.7050  178.1810  144.8230 C   0  0  2  0  0  3  0  0  0  0  0  0
  185.8990  178.7360  146.9850 C   0  0  1  0  0  3  0  0  0  0  0  0
  189.0100  177.6480  141.3280 C   0  0  0  0  0  0  0  0  0  0  0  0
  187.0850  178.3560  142.6130 C   0  0  0  0  0  0  0  0  0  0  0  0
  191.6850  176.0740  146.0850 C   0  0  0  0  0  3  0  0  0  0  0  0
  183.4330  178.9320  145.1370 C   0  0  0  0  0  2  0  0  0  0  0  0
  183.4020  178.2020  142.8590 C   0  0  0  0  0  2  0  0  0  0  0  0
  192.0160  176.1000  143.4320 Cl  0  0  0  0  0  0  0  0  0  0  0  0
  187.8720  177.7920  146.2020 C   0  0  0  0  0  0  0  0  0  0  0  0
  191.0490  176.2790  147.3060 C   0  0  0  0  0  3  0  0  0  0  0  0
  189.7720  177.0210  144.8900 C   0  0  0  0  0  0  0  0  0  0  0  0
  187.2060  178.1680  145.0740 C   0  0  0  0  0  0  0  0  0  0  0  0
  185.8220  180.0080  147.5500 O   0  0  0  0  0  1  0  0  0  0  0  0
  185.9330  178.8530  145.4480 C   0  0  1  0  0  3  0  0  0  0  0  0
  182.4990  178.5250  144.0320 C   0  0  0  0  0  2  0  0  0  0  0  0
  185.5540  180.3580  142.9310 C   0  0  0  0  0  1  0  0  0  0  0  0
  189.7820  176.8480  147.3400 C   0  0  0  0  0  3  0  0  0  0  0  0
  189.1390  177.2160  146.1540 C   0  0  0  0  0  0  0  0  0  0  0  0
  185.6680  178.8660  142.6100 C   0  0  2  0  0  3  0  0  0  0  0  0
  189.6410  177.4820  140.0930 O   0  0  0  0  0  0  0  0  0  0  0  0
  191.2980  176.5360  138.6460 C   0  0  0  0  0  1  0  0  0  0  0  0
  191.0240  177.1800  139.9880 C   0  0  0  0  0  2  0  0  0  0  0  0
  1  4  2  0  0  0  0
  1 19  1  0  0  0  0
  2 19  2  0  0  0  0
  2 13  1  0  0  0  0
  4 20  1  0  0  0  0
  5  1  1  0  0  0  0
  6  8  1  0  0  0  0
  7 15  1  6  0  0  0
  7  9  1  0  0  0  0
  8 12  2  0  0  0  0
  9 14  1  6  0  0  0
  9 22  1  0  0  0  0
 10  3  1  0  0  0  0
 10 21  1  1  0  0  0
 11  8  1  0  0  0  0
 11  5  2  0  0  0  0
 12  4  1  0  0  0  0
 13 18  2  0  0  0  0
 15 23  1  0  0  0  0
 16  2  1  0  0  0  0
 17  3  1  0  0  0  0
 18 25  1  0  0  0  0
 19 26  1  0  0  0  0
 20 17  2  0  0  0  0
 22 20  1  6  0  0  0
 22 10  1  0  0  0  0
 23 14  1  0  0  0  0
 26 17  1  0  0  0  0
 26 25  2  0  0  0  0
 27 12  1  0  0  0  0
 27 24  1  1  0  0  0
 27  7  1  0  0  0  0
 28 11  1  0  0  0  0
 29 30  1  0  0  0  0
 30 28  1  0  0  0  0
M  END
>  <MODEL>
1

>  <REMARK>
 VINA RESULT:      -9.9      0.000      0.000
  Name = 
  2 active torsions:
  status: ('A' for Active; 'I' for Inactive)
    1  A    between atoms: C_11  and  O_28
    2  A    between atoms: O_28  and  C_30
                            x       y       z     vdW  Elec       q    Type
                         _______ _______ _______ _____ _____    ______ ____

>  <TORSDO>
F 2

$$$$
=
 OpenBabel11122410283D

 30 35  0  0  1  0  0  0  0  0999 V2000
  187.9530  177.8720  142.6500 C   0  0  0  0  0  0  0  0  0  0  0  0
  186.8600  177.9970  144.9200 C   0  0  0  0  0  0  0  0  0  0  0  0
  184.3730  179.0040  140.7730 N   0  0  0  0  0  2  0  0  0  0  0  0
  187.8310  177.9890  141.2340 C   0  0  0  0  0  0  0  0  0  0  0  0
  189.1630  177.5410  143.1740 N   0  0  0  0  0  0  0  0  0  0  0  0
  191.3020  177.1210  140.2470 O   0  0  0  0  0  1  0  0  0  0  0  0
  187.7990  176.8660  138.4060 N   0  0  1  0  0  0  0  0  0  0  0  0
  190.1770  177.3840  141.0230 C   0  0  0  0  0  0  0  0  0  0  0  0
  186.4590  177.4850  138.3490 C   0  0  2  0  0  3  0  0  0  0  0  0
  184.7390  179.0430  139.3610 C   0  0  1  0  0  3  0  0  0  0  0  0
  190.2640  177.3040  142.4130 C   0  0  0  0  0  0  0  0  0  0  0  0
  188.9570  177.7180  140.4180 C   0  0  0  0  0  0  0  0  0  0  0  0
  185.7080  178.2500  145.6710 C   0  0  0  0  0  3  0  0  0  0  0  0
  186.1810  177.8440  136.9080 C   0  0  0  0  0  2  0  0  0  0  0  0
  188.1350  176.4680  137.0400 C   0  0  0  0  0  2  0  0  0  0  0  0
  188.2810  177.5500  145.8580 Cl  0  0  0  0  0  0  0  0  0  0  0  0
  185.5110  178.5910  141.5050 C   0  0  0  0  0  0  0  0  0  0  0  0
  184.5120  178.6100  145.0550 C   0  0  0  0  0  3  0  0  0  0  0  0
  186.8230  178.1050  143.4970 C   0  0  0  0  0  0  0  0  0  0  0  0
  186.5880  178.3590  140.7030 C   0  0  0  0  0  0  0  0  0  0  0  0
  184.5470  180.3310  138.8640 O   0  0  0  0  0  1  0  0  0  0  0  0
  186.2350  178.6770  139.2870 C   0  0  1  0  0  3  0  0  0  0  0  0
  186.9780  176.8330  136.1310 C   0  0  0  0  0  2  0  0  0  0  0  0
  188.9870  179.1110  138.2950 C   0  0  0  0  0  1  0  0  0  0  0  0
  184.4510  178.7210  143.6720 C   0  0  0  0  0  3  0  0  0  0  0  0
  185.5840  178.4710  142.8910 C   0  0  0  0  0  0  0  0  0  0  0  0
  188.8920  177.7150  138.9140 C   0  0  2  0  0  3  0  0  0  0  0  0
  191.4830  176.9720  143.0090 O   0  0  0  0  0  0  0  0  0  0  0  0
  191.6850  176.4330  145.3340 C   0  0  0  0  0  1  0  0  0  0  0  0
  191.6060  175.8930  143.9220 C   0  0  0  0  0  2  0  0  0  0  0  0
  1  5  1  0  0  0  0
  1 19  1  0  0  0  0
  2 13  1  0  0  0  0
  2 16  1  0  0  0  0
  3 17  1  0  0  0  0
  4  1  2  0  0  0  0
  6  8  1  0  0  0  0
  7 15  1  6  0  0  0
  7 27  1  0  0  0  0
  8 11  1  0  0  0  0
  9 14  1  6  0  0  0
  9  7  1  0  0  0  0
  9 22  1  0  0  0  0
 10 21  1  1  0  0  0
 10  3  1  0  0  0  0
 11 28  1  0  0  0  0
 11  5  2  0  0  0  0
 12  8  2  0  0  0  0
 12  4  1  0  0  0  0
 17 26  1  0  0  0  0
 18 13  2  0  0  0  0
 19  2  2  0  0  0  0
 20  4  1  0  0  0  0
 20 17  2  0  0  0  0
 22 10  1  0  0  0  0
 22 20  1  1  0  0  0
 23 14  1  0  0  0  0
 23 15  1  0  0  0  0
 25 18  1  0  0  0  0
 26 19  1  0  0  0  0
 26 25  2  0  0  0  0
 27 24  1  1  0  0  0
 27 12  1  0  0  0  0
 28 30  1  0  0  0  0
 30 29  1  0  0  0  0
M  END
>  <MODEL>
2

>  <REMARK>
 VINA RESULT:      -9.7      2.573      5.708
  Name = 
  2 active torsions:
  status: ('A' for Active; 'I' for Inactive)
    1  A    between atoms: C_11  and  O_28
    2  A    between atoms: O_28  and  C_30
                            x       y       z     vdW  Elec       q    Type
                         _______ _______ _______ _____ _____    ______ ____

>  <TORSDO>
F 2

$$$$
=
 OpenBabel11122410283D

 30 35  0  0  1  0  0  0  0  0999 V2000
  186.1420  178.3910  142.6830 C   0  0  0  0  0  0  0  0  0  0  0  0
  186.9790  178.2120  145.0560 C   0  0  0  0  0  0  0  0  0  0  0  0
  182.1870  178.8210  144.0250 N   0  0  0  0  0  2  0  0  0  0  0  0
  185.0380  178.5280  141.7910 C   0  0  0  0  0  0  0  0  0  0  0  0
  187.3940  178.3000  142.1610 N   0  0  0  0  0  0  0  0  0  0  0  0
  186.8510  178.4290  138.5540 O   0  0  0  0  0  1  0  0  0  0  0  0
  183.1460  177.5170  139.6330 N   0  0  1  0  0  0  0  0  0  0  0  0
  186.5900  178.4270  139.9210 C   0  0  0  0  0  0  0  0  0  0  0  0
  182.1000  177.8470  140.6220 C   0  0  2  0  0  3  0  0  0  0  0  0
  181.4350  178.9820  142.7860 C   0  0  1  0  0  3  0  0  0  0  0  0
  187.6460  178.3210  140.8250 C   0  0  0  0  0  0  0  0  0  0  0  0
  185.2730  178.5220  140.3940 C   0  0  0  0  0  0  0  0  0  0  0  0
  186.6830  178.1970  146.4220 C   0  0  0  0  0  3  0  0  0  0  0  0
  180.8410  178.1890  139.8610 C   0  0  0  0  0  2  0  0  0  0  0  0
  182.4580  177.2430  138.3720 C   0  0  0  0  0  2  0  0  0  0  0  0
  188.6860  178.0380  144.6590 Cl  0  0  0  0  0  0  0  0  0  0  0  0
  183.5470  178.6280  143.6850 C   0  0  0  0  0  0  0  0  0  0  0  0
  185.3720  178.3220  146.8750 C   0  0  0  0  0  3  0  0  0  0  0  0
  185.9310  178.3580  144.0990 C   0  0  0  0  0  0  0  0  0  0  0  0
  183.7530  178.6500  142.3380 C   0  0  0  0  0  0  0  0  0  0  0  0
  180.7910  180.2180  142.7870 O   0  0  0  0  0  1  0  0  0  0  0  0
  182.4640  178.9360  141.6390 C   0  0  1  0  0  3  0  0  0  0  0  0
  180.9660  177.3910  138.5930 C   0  0  0  0  0  2  0  0  0  0  0  0
  183.6160  179.9620  139.1160 C   0  0  0  0  0  1  0  0  0  0  0  0
  184.3340  178.4640  145.9620 C   0  0  0  0  0  3  0  0  0  0  0  0
  184.5960  178.4800  144.5890 C   0  0  0  0  0  0  0  0  0  0  0  0
  184.1610  178.5560  139.3800 C   0  0  2  0  0  3  0  0  0  0  0  0
  188.9550  178.2290  140.3470 O   0  0  0  0  0  0  0  0  0  0  0  0
  190.8430  177.3010  141.4920 C   0  0  0  0  0  1  0  0  0  0  0  0
  189.7310  177.0490  140.4970 C   0  0  0  0  0  2  0  0  0  0  0  0
  1 19  1  0  0  0  0
  2 13  1  0  0  0  0
  4 20  1  0  0  0  0
  4  1  2  0  0  0  0
  5  1  1  0  0  0  0
  6  8  1  0  0  0  0
  7 15  1  6  0  0  0
  7  9  1  0  0  0  0
  8 12  2  0  0  0  0
  8 11  1  0  0  0  0
  9 14  1  6  0  0  0
  9 22  1  0  0  0  0
 10 21  1  1  0  0  0
 10  3  1  0  0  0  0
 11  5  2  0  0  0  0
 12  4  1  0  0  0  0
 13 18  2  0  0  0  0
 15 23  1  0  0  0  0
 16  2  1  0  0  0  0
 17  3  1  0  0  0  0
 17 26  1  0  0  0  0
 19 26  1  0  0  0  0
 19  2  2  0  0  0  0
 20 17  2  0  0  0  0
 22 20  1  1  0  0  0
 22 10  1  0  0  0  0
 23 14  1  0  0  0  0
 25 18  1  0  0  0  0
 26 25  2  0  0  0  0
 27 24  1  1  0  0  0
 27  7  1  0  0  0  0
 27 12  1  0  0  0  0
 28 30  1  0  0  0  0
 28 11  1  0  0  0  0
 30 29  1  0  0  0  0
M  END
>  <MODEL>
3

>  <REMARK>
 VINA RESULT:      -9.7      2.764      4.445
  Name = 
  2 active torsions:
  status: ('A' for Active; 'I' for Inactive)
    1  A    between atoms: C_11  and  O_28
    2  A    between atoms: O_28  and  C_30
                            x       y       z     vdW  Elec       q    Type
                         _______ _______ _______ _____ _____    ______ ____

>  <TORSDO>
F 2

$$$$
=
 OpenBabel11122410283D

 30 35  0  0  1  0  0  0  0  0999 V2000
  185.9880  178.3580  141.8900 C   0  0  0  0  0  0  0  0  0  0  0  0
  183.5480  178.9410  142.1560 C   0  0  0  0  0  0  0  0  0  0  0  0
  186.4160  177.9050  146.0410 N   0  0  0  0  0  2  0  0  0  0  0  0
  187.2320  178.0240  142.5020 C   0  0  0  0  0  0  0  0  0  0  0  0
  185.9320  178.4430  140.5340 N   0  0  0  0  0  0  0  0  0  0  0  0
  189.3520  177.7410  139.4700 O   0  0  0  0  0  1  0  0  0  0  0  0
  190.1230  178.5860  143.2660 N   0  0  1  0  0  0  0  0  0  0  0  0
  188.2480  177.9330  140.2950 C   0  0  0  0  0  0  0  0  0  0  0  0
  189.6370  178.3480  144.6410 C   0  0  2  0  0  3  0  0  0  0  0  0
  187.8140  177.5150  146.1880 C   0  0  1  0  0  3  0  0  0  0  0  0
  187.0090  178.2350  139.7300 C   0  0  0  0  0  0  0  0  0  0  0  0
  188.3750  177.8340  141.6880 C   0  0  0  0  0  0  0  0  0  0  0  0
  182.4620  179.1450  143.0120 C   0  0  0  0  0  3  0  0  0  0  0  0
  190.7970  177.8220  145.4520 C   0  0  0  0  0  2  0  0  0  0  0  0
  191.5830  178.6260  143.3400 C   0  0  0  0  0  2  0  0  0  0  0  0
  183.2000  179.1540  140.4420 Cl  0  0  0  0  0  0  0  0  0  0  0  0
  186.1680  178.1230  144.6660 C   0  0  0  0  0  0  0  0  0  0  0  0
  182.5990  179.0120  144.3910 C   0  0  0  0  0  3  0  0  0  0  0  0
  184.8240  178.5920  142.6900 C   0  0  0  0  0  0  0  0  0  0  0  0
  187.2750  177.9110  143.8990 C   0  0  0  0  0  0  0  0  0  0  0  0
  187.8890  176.2580  146.7840 O   0  0  0  0  0  1  0  0  0  0  0  0
  188.4010  177.4480  144.7640 C   0  0  1  0  0  3  0  0  0  0  0  0
  192.0000  178.4260  144.7830 C   0  0  0  0  0  2  0  0  0  0  0  0
  189.9880  176.1230  142.6490 C   0  0  0  0  0  1  0  0  0  0  0  0
  183.8320  178.6740  144.9360 C   0  0  0  0  0  3  0  0  0  0  0  0
  184.9390  178.4680  144.1070 C   0  0  0  0  0  0  0  0  0  0  0  0
  189.7470  177.5820  142.2540 C   0  0  2  0  0  3  0  0  0  0  0  0
  186.8890  178.3320  138.3420 O   0  0  0  0  0  0  0  0  0  0  0  0
  186.8320  176.2240  137.2070 C   0  0  0  0  0  1  0  0  0  0  0  0
  186.0530  177.4610  137.5960 C   0  0  0  0  0  2  0  0  0  0  0  0
  1  4  2  0  0  0  0
  1 19  1  0  0  0  0
  2 19  2  0  0  0  0
  2 13  1  0  0  0  0
  3 10  1  0  0  0  0
  4 20  1  0  0  0  0
  5  1  1  0  0  0  0
  6  8  1  0  0  0  0
  7 15  1  1  0  0  0
  7  9  1  0  0  0  0
  8 12  2  0  0  0  0
  9 22  1  0  0  0  0
  9 14  1  1  0  0  0
 10 21  1  6  0  0  0
 11  8  1  0  0  0  0
 11  5  2  0  0  0  0
 12 27  1  0  0  0  0
 12  4  1  0  0  0  0
 13 18  2  0  0  0  0
 15 23  1  0  0  0  0
 16  2  1  0  0  0  0
 17  3  1  0  0  0  0
 18 25  1  0  0  0  0
 19 26  1  0  0  0  0
 20 17  2  0  0  0  0
 22 20  1  6  0  0  0
 22 10  1  0  0  0  0
 23 14  1  0  0  0  0
 26 17  1  0  0  0  0
 26 25  2  0  0  0  0
 27 24  1  1  0  0  0
 27  7  1  0  0  0  0
 28 11  1  0  0  0  0
 29 30  1  0  0  0  0
 30 28  1  0  0  0  0
M  END
>  <MODEL>
4

>  <REMARK>
 VINA RESULT:      -9.2      2.635      5.595
  Name = 
  2 active torsions:
  status: ('A' for Active; 'I' for Inactive)
    1  A    between atoms: C_11  and  O_28
    2  A    between atoms: O_28  and  C_30
                            x       y       z     vdW  Elec       q    Type
                         _______ _______ _______ _____ _____    ______ ____

>  <TORSDO>
F 2

$$$$
=
 OpenBabel11122410283D

 30 35  0  0  1  0  0  0  0  0999 V2000
  187.7320  178.1200  141.5060 C   0  0  0  0  0  0  0  0  0  0  0  0
  189.3350  177.7160  143.4120 C   0  0  0  0  0  0  0  0  0  0  0  0
  184.4850  178.2830  144.1620 N   0  0  0  0  0  2  0  0  0  0  0  0
  186.3900  178.3170  141.0670 C   0  0  0  0  0  0  0  0  0  0  0  0
  188.7280  178.1230  140.5790 N   0  0  0  0  0  0  0  0  0  0  0  0
  186.9760  178.6180  137.4150 O   0  0  0  0  0  1  0  0  0  0  0  0
  183.8620  177.4830  139.5920 N   0  0  1  0  0  0  0  0  0  0  0  0
  187.2020  178.4630  138.7800 C   0  0  0  0  0  0  0  0  0  0  0  0
  183.2240  177.6740  140.9100 C   0  0  2  0  0  3  0  0  0  0  0  0
  183.3540  178.5520  143.2820 C   0  0  1  0  0  3  0  0  0  0  0  0
  188.5040  178.2940  139.2490 C   0  0  0  0  0  0  0  0  0  0  0  0
  186.1300  178.4670  139.6830 C   0  0  0  0  0  0  0  0  0  0  0  0
  189.5260  177.5460  144.7870 C   0  0  0  0  0  3  0  0  0  0  0  0
  181.7820  178.0570  140.6700 C   0  0  0  0  0  2  0  0  0  0  0  0
  182.7800  177.3240  138.6220 C   0  0  0  0  0  2  0  0  0  0  0  0
  190.7990  177.6370  142.4370 Cl  0  0  0  0  0  0  0  0  0  0  0  0
  185.6430  178.1700  143.3570 C   0  0  0  0  0  0  0  0  0  0  0  0
  188.4530  177.5830  145.6720 C   0  0  0  0  0  3  0  0  0  0  0  0
  188.0220  177.9300  142.8950 C   0  0  0  0  0  0  0  0  0  0  0  0
  185.3730  178.3410  142.0320 C   0  0  0  0  0  0  0  0  0  0  0  0
  182.7600  179.7610  143.6410 O   0  0  0  0  0  1  0  0  0  0  0  0
  183.9250  178.6590  141.8540 C   0  0  1  0  0  3  0  0  0  0  0  0
  181.4570  177.4020  139.3560 C   0  0  0  0  0  2  0  0  0  0  0  0
  184.1460  179.9830  139.2180 C   0  0  0  0  0  1  0  0  0  0  0  0
  187.1660  177.7890  145.1930 C   0  0  0  0  0  3  0  0  0  0  0  0
  186.9390  177.9580  143.8240 C   0  0  0  0  0  0  0  0  0  0  0  0
  184.7360  178.5750  139.1230 C   0  0  2  0  0  3  0  0  0  0  0  0
  189.5680  178.2930  138.3440 O   0  0  0  0  0  0  0  0  0  0  0  0
  190.6820  176.1740  138.4100 C   0  0  0  0  0  1  0  0  0  0  0  0
  189.8950  177.1520  137.5650 C   0  0  0  0  0  2  0  0  0  0  0  0
  1 19  1  0  0  0  0
  2 13  1  0  0  0  0
  4  1  2  0  0  0  0
  4 20  1  0  0  0  0
  5  1  1  0  0  0  0
  6  8  1  0  0  0  0
  7 15  1  6  0  0  0
  7  9  1  0  0  0  0
  8 11  1  0  0  0  0
  8 12  2  0  0  0  0
  9 14  1  6  0  0  0
  9 22  1  0  0  0  0
 10 21  1  1  0  0  0
 10  3  1  0  0  0  0
 11  5  2  0  0  0  0
 12  4  1  0  0  0  0
 13 18  2  0  0  0  0
 15 23  1  0  0  0  0
 16  2  1  0  0  0  0
 17 26  1  0  0  0  0
 17  3  1  0  0  0  0
 19  2  2  0  0  0  0
 19 26  1  0  0  0  0
 20 17  2  0  0  0  0
 22 20  1  1  0  0  0
 22 10  1  0  0  0  0
 23 14  1  0  0  0  0
 25 18  1  0  0  0  0
 26 25  2  0  0  0  0
 27 24  1  1  0  0  0
 27  7  1  0  0  0  0
 27 12  1  0  0  0  0
 28 11  1  0  0  0  0
 30 28  1  0  0  0  0
 30 29  1  0  0  0  0
M  END
>  <MODEL>
5

>  <REMARK>
 VINA RESULT:      -8.5      2.365      3.459
  Name = 
  2 active torsions:
  status: ('A' for Active; 'I' for Inactive)
    1  A    between atoms: C_11  and  O_28
    2  A    between atoms: O_28  and  C_30
                            x       y       z     vdW  Elec       q    Type
                         _______ _______ _______ _____ _____    ______ ____

>  <TORSDO>
F 2

$$$$
=
 OpenBabel11122410283D

 30 35  0  0  1  0  0  0  0  0999 V2000
  188.1170  177.6460  142.5310 C   0  0  0  0  0  0  0  0  0  0  0  0
  185.8630  178.2390  143.4960 C   0  0  0  0  0  0  0  0  0  0  0  0
  186.8120  178.6280  138.6640 N   0  0  0  0  0  2  0  0  0  0  0  0
  188.9510  177.5140  141.3820 C   0  0  0  0  0  0  0  0  0  0  0  0
  188.6370  177.3440  143.7510 N   0  0  0  0  0  0  0  0  0  0  0  0
  192.0500  176.2830  143.0110 O   0  0  0  0  0  1  0  0  0  0  0  0
  190.5550  175.9050  139.3580 N   0  0  1  0  0  0  0  0  0  0  0  0
  190.7500  176.7450  142.8260 C   0  0  0  0  0  0  0  0  0  0  0  0
  189.6850  176.5800  138.3730 C   0  0  2  0  0  3  0  0  0  0  0  0
  187.9960  178.3920  137.8470 C   0  0  1  0  0  3  0  0  0  0  0  0
  189.9130  176.9110  143.9290 C   0  0  0  0  0  0  0  0  0  0  0  0
  190.2740  177.0350  141.5390 C   0  0  0  0  0  0  0  0  0  0  0  0
  184.5580  178.6900  143.2750 C   0  0  0  0  0  3  0  0  0  0  0  0
  190.4570  176.6910  137.0790 C   0  0  0  0  0  2  0  0  0  0  0  0
  191.6180  175.2500  138.5970 C   0  0  0  0  0  2  0  0  0  0  0  0
  186.2580  177.8860  145.1750 Cl  0  0  0  0  0  0  0  0  0  0  0  0
  187.1310  178.2880  139.9990 C   0  0  0  0  0  0  0  0  0  0  0  0
  184.1120  179.0020  141.9940 C   0  0  0  0  0  3  0  0  0  0  0  0
  186.7630  178.0920  142.3980 C   0  0  0  0  0  0  0  0  0  0  0  0
  188.4160  177.8540  140.1310 C   0  0  0  0  0  0  0  0  0  0  0  0
  188.3780  179.5790  137.2230 O   0  0  0  0  0  1  0  0  0  0  0  0
  189.1090  177.9320  138.8100 C   0  0  1  0  0  3  0  0  0  0  0  0
  191.3890  175.5120  137.1220 C   0  0  0  0  0  2  0  0  0  0  0  0
  191.8810  178.0210  139.8370 C   0  0  0  0  0  1  0  0  0  0  0  0
  184.9700  178.8660  140.9090 C   0  0  0  0  0  3  0  0  0  0  0  0
  186.2800  178.4150  141.0950 C   0  0  0  0  0  0  0  0  0  0  0  0
  191.1880  176.7670  140.3730 C   0  0  2  0  0  3  0  0  0  0  0  0
  190.3930  176.6220  145.2080 O   0  0  0  0  0  0  0  0  0  0  0  0
  189.2920  176.7540  147.3310 C   0  0  0  0  0  1  0  0  0  0  0  0
  190.1510  177.4760  146.3160 C   0  0  0  0  0  2  0  0  0  0  0  0
  1  5  1  0  0  0  0
  2 16  1  0  0  0  0
  3 17  1  0  0  0  0
  4 12  1  0  0  0  0
  4  1  2  0  0  0  0
  5 11  2  0  0  0  0
  7 15  1  6  0  0  0
  7 27  1  0  0  0  0
  8  6  1  0  0  0  0
  8 11  1  0  0  0  0
  9 14  1  6  0  0  0
  9 22  1  0  0  0  0
  9  7  1  0  0  0  0
 10 21  1  1  0  0  0
 10  3  1  0  0  0  0
 10 22  1  0  0  0  0
 11 28  1  0  0  0  0
 12  8  2  0  0  0  0
 13  2  1  0  0  0  0
 14 23  1  0  0  0  0
 17 20  2  0  0  0  0
 17 26  1  0  0  0  0
 18 13  2  0  0  0  0
 19  1  1  0  0  0  0
 19  2  2  0  0  0  0
 20  4  1  0  0  0  0
 22 20  1  1  0  0  0
 23 15  1  0  0  0  0
 25 26  2  0  0  0  0
 25 18  1  0  0  0  0
 26 19  1  0  0  0  0
 27 24  1  6  0  0  0
 27 12  1  0  0  0  0
 28 30  1  0  0  0  0
 30 29  1  0  0  0  0
M  END
>  <MODEL>
6

>  <REMARK>
 VINA RESULT:      -8.3      2.589      7.163
  Name = 
  2 active torsions:
  status: ('A' for Active; 'I' for Inactive)
    1  A    between atoms: C_11  and  O_28
    2  A    between atoms: O_28  and  C_30
                            x       y       z     vdW  Elec       q    Type
                         _______ _______ _______ _____ _____    ______ ____

>  <TORSDO>
F 2

$$$$
=
 OpenBabel11122410283D

 30 35  0  0  1  0  0  0  0  0999 V2000
  187.6680  177.9740  139.8570 C   0  0  0  0  0  0  0  0  0  0  0  0
  185.5330  178.7260  138.7430 C   0  0  0  0  0  0  0  0  0  0  0  0
  185.8870  178.2630  143.6480 N   0  0  0  0  0  2  0  0  0  0  0  0
  188.3760  177.6910  141.0620 C   0  0  0  0  0  0  0  0  0  0  0  0
  188.3120  177.8130  138.6700 N   0  0  0  0  0  0  0  0  0  0  0  0
  191.6670  176.7460  139.6320 O   0  0  0  0  0  1  0  0  0  0  0  0
  190.5400  178.2270  143.1330 N   0  0  1  0  0  0  0  0  0  0  0  0
  190.3370  177.1450  139.7330 C   0  0  0  0  0  0  0  0  0  0  0  0
  189.4020  178.2700  144.0750 C   0  0  2  0  0  3  0  0  0  0  0  0
  186.9530  177.8320  144.5460 C   0  0  1  0  0  3  0  0  0  0  0  0
  189.6050  177.4050  138.5750 C   0  0  0  0  0  0  0  0  0  0  0  0
  189.7330  177.2940  140.9890 C   0  0  0  0  0  0  0  0  0  0  0  0
  184.2040  179.1400  138.8790 C   0  0  0  0  0  3  0  0  0  0  0  0
  189.9120  177.8390  145.4300 C   0  0  0  0  0  2  0  0  0  0  0  0
  191.7550  178.2020  143.9460 C   0  0  0  0  0  2  0  0  0  0  0  0
  186.1240  178.6410  137.0860 Cl  0  0  0  0  0  0  0  0  0  0  0  0
  186.3960  178.2400  142.3280 C   0  0  0  0  0  0  0  0  0  0  0  0
  183.6110  179.2540  140.1330 C   0  0  0  0  0  3  0  0  0  0  0  0
  186.3050  178.4120  139.9010 C   0  0  0  0  0  0  0  0  0  0  0  0
  187.6960  177.8320  142.2800 C   0  0  0  0  0  0  0  0  0  0  0  0
  186.5420  176.7020  145.2510 O   0  0  0  0  0  1  0  0  0  0  0  0
  188.1590  177.4760  143.6540 C   0  0  1  0  0  3  0  0  0  0  0  0
  191.3590  178.2460  145.4090 C   0  0  0  0  0  2  0  0  0  0  0  0
  190.3890  175.7040  142.8580 C   0  0  0  0  0  1  0  0  0  0  0  0
  184.3440  178.9550  141.2760 C   0  0  0  0  0  3  0  0  0  0  0  0
  185.6750  178.5420  141.1750 C   0  0  0  0  0  0  0  0  0  0  0  0
  190.5850  177.0770  142.2120 C   0  0  2  0  0  3  0  0  0  0  0  0
  190.2130  177.2530  137.3270 O   0  0  0  0  0  0  0  0  0  0  0  0
  189.2640  177.4910  135.1410 C   0  0  0  0  0  1  0  0  0  0  0  0
  189.5930  176.5370  136.2690 C   0  0  0  0  0  2  0  0  0  0  0  0
  1 19  2  0  0  0  0
  1  4  1  0  0  0  0
  2 13  2  0  0  0  0
  2 19  1  0  0  0  0
  3 10  1  0  0  0  0
  4 20  2  0  0  0  0
  5  1  1  0  0  0  0
  6  8  1  0  0  0  0
  7 15  1  1  0  0  0
  7  9  1  0  0  0  0
  8 12  2  0  0  0  0
  9 14  1  1  0  0  0
 10 21  1  6  0  0  0
 11  5  2  0  0  0  0
 11  8  1  0  0  0  0
 12  4  1  0  0  0  0
 12 27  1  0  0  0  0
 13 18  1  0  0  0  0
 15 23  1  0  0  0  0
 16  2  1  0  0  0  0
 17  3  1  0  0  0  0
 18 25  2  0  0  0  0
 19 26  1  0  0  0  0
 20 17  1  0  0  0  0
 22 20  1  6  0  0  0
 22  9  1  0  0  0  0
 22 10  1  0  0  0  0
 23 14  1  0  0  0  0
 26 25  1  0  0  0  0
 26 17  2  0  0  0  0
 27 24  1  1  0  0  0
 27  7  1  0  0  0  0
 28 11  1  0  0  0  0
 29 30  1  0  0  0  0
 30 28  1  0  0  0  0
M  END
>  <MODEL>
7

>  <REMARK>
 VINA RESULT:      -8.1      2.784      5.979
  Name = 
  2 active torsions:
  status: ('A' for Active; 'I' for Inactive)
    1  A    between atoms: C_11  and  O_28
    2  A    between atoms: O_28  and  C_30
                            x       y       z     vdW  Elec       q    Type
                         _______ _______ _______ _____ _____    ______ ____

>  <TORSDO>
F 2

$$$$
=
 OpenBabel11122410283D

 30 35  0  0  1  0  0  0  0  0999 V2000
  187.8950  177.9050  142.2080 C   0  0  0  0  0  0  0  0  0  0  0  0
  188.9980  177.5850  144.4540 C   0  0  0  0  0  0  0  0  0  0  0  0
  191.2030  176.2140  140.2530 N   0  0  0  0  0  2  0  0  0  0  0  0
  187.9680  177.7790  140.7900 C   0  0  0  0  0  0  0  0  0  0  0  0
  186.7660  178.4260  142.7590 N   0  0  0  0  0  0  0  0  0  0  0  0
  184.6680  179.2120  139.8770 O   0  0  0  0  0  1  0  0  0  0  0  0
  188.1280  178.9020  137.9660 N   0  0  1  0  0  0  0  0  0  0  0  0
  185.7500  178.7630  140.6300 C   0  0  0  0  0  0  0  0  0  0  0  0
  189.3470  178.0720  137.8780 C   0  0  2  0  0  3  0  0  0  0  0  0
  190.8070  176.2450  138.8490 C   0  0  1  0  0  3  0  0  0  0  0  0
  185.7040  178.8460  142.0210 C   0  0  0  0  0  0  0  0  0  0  0  0
  186.8860  178.2380  139.9980 C   0  0  0  0  0  0  0  0  0  0  0  0
  190.1070  177.1410  145.1810 C   0  0  0  0  0  3  0  0  0  0  0  0
  189.5330  177.6820  136.4310 C   0  0  0  0  0  2  0  0  0  0  0  0
  187.8350  179.3590  136.6080 C   0  0  0  0  0  2  0  0  0  0  0  0
  187.6870  178.2530  145.4240 Cl  0  0  0  0  0  0  0  0  0  0  0  0
  190.1630  176.8020  141.0100 C   0  0  0  0  0  0  0  0  0  0  0  0
  191.2140  176.5940  144.5390 C   0  0  0  0  0  3  0  0  0  0  0  0
  188.9880  177.4830  143.0310 C   0  0  0  0  0  0  0  0  0  0  0  0
  189.1230  177.2140  140.2310 C   0  0  0  0  0  0  0  0  0  0  0  0
  190.7750  174.9470  138.3430 O   0  0  0  0  0  1  0  0  0  0  0  0
  189.3910  176.8530  138.8070 C   0  0  1  0  0  3  0  0  0  0  0  0
  188.8980  178.8160  135.6750 C   0  0  0  0  0  2  0  0  0  0  0  0
  186.5860  176.8830  137.8710 C   0  0  0  0  0  1  0  0  0  0  0  0
  191.2290  176.4850  143.1540 C   0  0  0  0  0  3  0  0  0  0  0  0
  190.1380  176.9230  142.3980 C   0  0  0  0  0  0  0  0  0  0  0  0
  186.9210  178.2400  138.4930 C   0  0  2  0  0  3  0  0  0  0  0  0
  184.5690  179.3690  142.6430 O   0  0  0  0  0  0  0  0  0  0  0  0
  183.4510  179.0030  144.7300 C   0  0  0  0  0  1  0  0  0  0  0  0
  184.5630  179.7390  144.0140 C   0  0  0  0  0  2  0  0  0  0  0  0
  1  5  1  0  0  0  0
  1 19  1  0  0  0  0
  2 13  1  0  0  0  0
  2 16  1  0  0  0  0
  3 17  1  0  0  0  0
  4  1  2  0  0  0  0
  6  8  1  0  0  0  0
  7 15  1  6  0  0  0
  7 27  1  0  0  0  0
  8 11  1  0  0  0  0
  9 14  1  6  0  0  0
  9  7  1  0  0  0  0
  9 22  1  0  0  0  0
 10 21  1  1  0  0  0
 10  3  1  0  0  0  0
 11 28  1  0  0  0  0
 11  5  2  0  0  0  0
 12  8  2  0  0  0  0
 12  4  1  0  0  0  0
 17 26  1  0  0  0  0
 18 13  2  0  0  0  0
 19  2  2  0  0  0  0
 20  4  1  0  0  0  0
 20 17  2  0  0  0  0
 22 10  1  0  0  0  0
 22 20  1  1  0  0  0
 23 14  1  0  0  0  0
 23 15  1  0  0  0  0
 25 18  1  0  0  0  0
 26 19  1  0  0  0  0
 26 25  2  0  0  0  0
 27 24  1  1  0  0  0
 27 12  1  0  0  0  0
 28 30  1  0  0  0  0
 30 29  1  0  0  0  0
M  END
>  <MODEL>
8

>  <REMARK>
 VINA RESULT:      -8.1      2.620      6.379
  Name = 
  2 active torsions:
  status: ('A' for Active; 'I' for Inactive)
    1  A    between atoms: C_11  and  O_28
    2  A    between atoms: O_28  and  C_30
                            x       y       z     vdW  Elec       q    Type
                         _______ _______ _______ _____ _____    ______ ____

>  <TORSDO>
F 2

$$$$
=
 OpenBabel11122410283D

 30 35  0  0  1  0  0  0  0  0999 V2000
  184.7630  178.6200  142.0770 C   0  0  0  0  0  0  0  0  0  0  0  0
  186.0890  178.5590  144.2230 C   0  0  0  0  0  0  0  0  0  0  0  0
  181.1530  178.7660  144.2150 N   0  0  0  0  0  2  0  0  0  0  0  0
  183.4910  178.6500  141.4350 C   0  0  0  0  0  0  0  0  0  0  0  0
  185.8830  178.6160  141.3040 N   0  0  0  0  0  0  0  0  0  0  0  0
  184.5910  178.6230  137.8900 O   0  0  0  0  0  1  0  0  0  0  0  0
  181.2790  177.4460  139.7260 N   0  0  1  0  0  0  0  0  0  0  0  0
  184.6220  178.6310  139.2820 C   0  0  0  0  0  0  0  0  0  0  0  0
  180.4390  177.7140  140.9100 C   0  0  2  0  0  3  0  0  0  0  0  0
  180.1490  178.8400  143.1600 C   0  0  1  0  0  3  0  0  0  0  0  0
  185.8480  178.6280  139.9450 C   0  0  0  0  0  0  0  0  0  0  0  0
  183.4290  178.6320  140.0200 C   0  0  0  0  0  0  0  0  0  0  0  0
  186.0850  178.5500  145.6210 C   0  0  0  0  0  3  0  0  0  0  0  0
  179.0250  177.9400  140.4280 C   0  0  0  0  0  2  0  0  0  0  0  0
  180.3680  177.0920  138.6380 C   0  0  0  0  0  2  0  0  0  0  0  0
  187.6840  178.5110  143.4780 Cl  0  0  0  0  0  0  0  0  0  0  0  0
  182.4240  178.6740  143.5980 C   0  0  0  0  0  0  0  0  0  0  0  0
  184.8920  178.5820  146.3370 C   0  0  0  0  0  3  0  0  0  0  0  0
  184.8560  178.6010  143.5050 C   0  0  0  0  0  0  0  0  0  0  0  0
  182.3420  178.6830  142.2380 C   0  0  0  0  0  0  0  0  0  0  0  0
  179.4210  180.0220  143.2900 O   0  0  0  0  0  1  0  0  0  0  0  0
  180.9170  178.8500  141.8230 C   0  0  1  0  0  3  0  0  0  0  0  0
  178.9480  177.1260  139.1660 C   0  0  0  0  0  2  0  0  0  0  0  0
  181.4310  179.9090  139.1100 C   0  0  0  0  0  1  0  0  0  0  0  0
  183.6790  178.6220  145.6610 C   0  0  0  0  0  3  0  0  0  0  0  0
  183.6470  178.6280  144.2640 C   0  0  0  0  0  0  0  0  0  0  0  0
  182.1310  178.5570  139.2610 C   0  0  2  0  0  3  0  0  0  0  0  0
  187.0320  178.6290  139.2050 O   0  0  0  0  0  0  0  0  0  0  0  0
  189.3680  178.3720  138.7400 C   0  0  0  0  0  1  0  0  0  0  0  0
  188.2500  178.1210  139.7290 C   0  0  0  0  0  2  0  0  0  0  0  0
  1 19  1  0  0  0  0
  2 13  1  0  0  0  0
  4  1  2  0  0  0  0
  4 20  1  0  0  0  0
  5  1  1  0  0  0  0
  6  8  1  0  0  0  0
  7 15  1  6  0  0  0
  7  9  1  0  0  0  0
  8 11  1  0  0  0  0
  8 12  2  0  0  0  0
  9 14  1  6  0  0  0
  9 22  1  0  0  0  0
 10 21  1  1  0  0  0
 10  3  1  0  0  0  0
 11  5  2  0  0  0  0
 12  4  1  0  0  0  0
 13 18  2  0  0  0  0
 15 23  1  0  0  0  0
 16  2  1  0  0  0  0
 17  3  1  0  0  0  0
 17 26  1  0  0  0  0
 19  2  2  0  0  0  0
 19 26  1  0  0  0  0
 20 17  2  0  0  0  0
 22 20  1  1  0  0  0
 22 10  1  0  0  0  0
 23 14  1  0  0  0  0
 25 18  1  0  0  0  0
 26 25  2  0  0  0  0
 27 24  1  1  0  0  0
 27  7  1  0  0  0  0
 27 12  1  0  0  0  0
 28 30  1  0  0  0  0
 28 11  1  0  0  0  0
 29 30  1  0  0  0  0
M  END
>  <MODEL>
9

>  <REMARK>
 VINA RESULT:      -8.0      3.445      5.404
  Name = 
  2 active torsions:
  status: ('A' for Active; 'I' for Inactive)
    1  A    between atoms: C_11  and  O_28
    2  A    between atoms: O_28  and  C_30
                            x       y       z     vdW  Elec       q    Type
                         _______ _______ _______ _____ _____    ______ ____

>  <TORSDO>
F 2

$$$$
