=
 OpenBabel11122410253D

 30 35  0  0  1  0  0  0  0  0999 V2000
  189.0550  177.3900  143.5130 C   0  0  1  0  0  3  0  0  0  0  0  0
  191.1960  177.0700  144.8700 C   0  0  0  0  0  0  0  0  0  0  0  0
  186.9840  177.8320  147.0470 N   0  0  0  0  0  2  0  0  0  0  0  0
  187.6810  178.0580  143.6990 C   0  0  1  0  0  3  0  0  0  0  0  0
  189.8320  178.1610  142.6200 O   0  0  0  0  0  0  0  0  0  0  0  0
  187.3570  178.4950  139.9770 O   0  0  0  0  0  1  0  0  0  0  0  0
  184.4840  178.0860  142.8890 C   0  0  1  0  0  3  0  0  0  0  0  0
  187.9090  178.6870  141.2460 C   0  0  2  0  0  3  0  0  0  0  0  0
  184.3810  178.0090  144.4160 C   0  0  2  0  0  3  0  0  0  0  0  0
  185.8440  178.4220  146.4680 C   0  0  0  0  0  0  0  0  0  0  0  0
  189.2930  178.0390  141.3210 C   0  0  2  0  0  3  0  0  0  0  0  0
  186.9770  178.1230  142.3250 C   0  0  2  0  0  3  0  0  0  0  0  0
  191.8450  176.8500  146.0870 C   0  0  0  0  0  3  0  0  0  0  0  0
  183.4150  179.1120  144.7990 C   0  0  0  0  0  2  0  0  0  0  0  0
  183.1690  178.6880  142.4170 C   0  0  0  0  0  2  0  0  0  0  0  0
  191.9670  177.1470  143.7170 O   0  0  0  0  0  1  0  0  0  0  0  0
  187.5460  176.9550  146.0290 C   0  0  1  0  0  3  0  0  0  0  0  0
  191.1130  176.7090  147.2620 C   0  0  0  0  0  3  0  0  0  0  0  0
  189.7850  177.1930  144.8250 C   0  0  0  0  0  0  0  0  0  0  0  0
  186.8150  177.2870  144.7010 C   0  0  1  0  0  3  0  0  0  0  0  0
  185.0550  179.1510  147.1230 O   0  0  0  0  0  0  0  0  0  0  0  0
  185.6790  178.1200  145.0900 N   0  0  0  0  0  0  0  0  0  0  0  0
  182.4310  179.1820  143.6510 C   0  0  0  0  0  2  0  0  0  0  0  0
  185.7890  180.3170  142.9190 C   0  0  0  0  0  1  0  0  0  0  0  0
  189.7220  176.7730  147.2240 C   0  0  0  0  0  3  0  0  0  0  0  0
  189.0490  177.0100  146.0180 C   0  0  0  0  0  0  0  0  0  0  0  0
  185.6600  178.9090  142.3360 C   0  0  2  0  0  3  0  0  0  0  0  0
  189.2680  176.7010  140.8960 O   0  0  0  0  0  0  0  0  0  0  0  0
  189.9710  176.4980  138.6350 C   0  0  0  0  0  1  0  0  0  0  0  0
  190.3960  176.5620  140.0870 C   0  0  0  0  0  2  0  0  0  0  0  0
  1  5  1  6  0  0  0
  1  4  1  0  0  0  0
  1 19  1  0  0  0  0
  2 13  1  0  0  0  0
  4 20  1  0  0  0  0
  6  8  1  0  0  0  0
  7  9  1  0  0  0  0
  8 11  1  0  0  0  0
  8 12  1  0  0  0  0
  9 14  1  0  0  0  0
  9 22  1  0  0  0  0
 10  3  1  0  0  0  0
 10 21  2  0  0  0  0
 11  5  1  0  0  0  0
 12 27  1  0  0  0  0
 12  4  1  0  0  0  0
 13 18  2  0  0  0  0
 15  7  1  0  0  0  0
 15 23  1  0  0  0  0
 16  2  1  0  0  0  0
 17  3  1  0  0  0  0
 19  2  2  0  0  0  0
 19 26  1  0  0  0  0
 20 22  1  0  0  0  0
 20 17  1  0  0  0  0
 22 10  1  0  0  0  0
 23 14  1  0  0  0  0
 25 18  1  0  0  0  0
 26 17  1  0  0  0  0
 26 25  2  0  0  0  0
 27  7  1  0  0  0  0
 27 24  1  0  0  0  0
 28 11  1  0  0  0  0
 29 30  1  0  0  0  0
 30 28  1  0  0  0  0
M  END
>  <MODEL>
1

>  <REMARK>
 VINA RESULT:      -9.8      0.000      0.000
  Name = 
  2 active torsions:
  status: ('A' for Active; 'I' for Inactive)
    1  A    between atoms: C_11  and  O_28
    2  A    between atoms: O_28  and  C_30
                            x       y       z     vdW  Elec       q    Type
                         _______ _______ _______ _____ _____    ______ ____

>  <TORSDO>
F 2

$$$$
=
 OpenBabel11122410253D

 30 35  0  0  1  0  0  0  0  0999 V2000
  187.0000  177.8690  145.1130 C   0  0  1  0  0  3  0  0  0  0  0  0
  184.6210  178.7220  145.4900 C   0  0  0  0  0  0  0  0  0  0  0  0
  186.5030  178.5240  141.0770 N   0  0  0  0  0  2  0  0  0  0  0  0
  188.1120  178.0310  144.0630 C   0  0  1  0  0  3  0  0  0  0  0  0
  187.3540  178.5800  146.2820 O   0  0  0  0  0  0  0  0  0  0  0  0
  190.7200  177.2590  146.6600 O   0  0  0  0  0  1  0  0  0  0  0  0
  190.7430  176.6960  142.5880 C   0  0  1  0  0  3  0  0  0  0  0  0
  189.6890  177.9820  146.0560 C   0  0  2  0  0  3  0  0  0  0  0  0
  189.8770  177.0210  141.3660 C   0  0  2  0  0  3  0  0  0  0  0  0
  187.8740  178.4840  140.7600 C   0  0  0  0  0  0  0  0  0  0  0  0
  188.4250  177.9150  146.9160 C   0  0  2  0  0  3  0  0  0  0  0  0
  189.4220  177.4530  144.6420 C   0  0  2  0  0  3  0  0  0  0  0  0
  183.3700  179.0990  144.9970 C   0  0  0  0  0  3  0  0  0  0  0  0
  190.7970  177.7700  140.4240 C   0  0  0  0  0  2  0  0  0  0  0  0
  192.1740  176.6350  142.0750 C   0  0  0  0  0  2  0  0  0  0  0  0
  184.8200  178.7400  146.8650 O   0  0  0  0  0  1  0  0  0  0  0  0
  186.3300  177.6550  142.2320 C   0  0  1  0  0  3  0  0  0  0  0  0
  183.1030  179.0440  143.6320 C   0  0  0  0  0  3  0  0  0  0  0  0
  185.6480  178.3200  144.6010 C   0  0  0  0  0  0  0  0  0  0  0  0
  187.7530  177.3180  142.7540 C   0  0  1  0  0  3  0  0  0  0  0  0
  188.3460  179.0390  139.7330 O   0  0  0  0  0  0  0  0  0  0  0  0
  188.6610  177.7680  141.7010 N   0  0  0  0  0  0  0  0  0  0  0  0
  192.1640  177.1610  140.6490 C   0  0  0  0  0  2  0  0  0  0  0  0
  190.8590  179.1560  143.3720 C   0  0  0  0  0  1  0  0  0  0  0  0
  184.0870  178.5990  142.7520 C   0  0  0  0  0  3  0  0  0  0  0  0
  185.3550  178.2320  143.2210 C   0  0  0  0  0  0  0  0  0  0  0  0
  190.6540  177.6910  143.7580 C   0  0  2  0  0  3  0  0  0  0  0  0
  188.0880  176.5940  147.2480 O   0  0  0  0  0  0  0  0  0  0  0  0
  188.1240  178.0120  149.1550 C   0  0  0  0  0  1  0  0  0  0  0  0
  187.8610  176.6180  148.6250 C   0  0  0  0  0  2  0  0  0  0  0  0
  1 19  1  6  0  0  0
  1  5  1  0  0  0  0
  2 16  1  0  0  0  0
  3 17  1  0  0  0  0
  4 12  1  0  0  0  0
  4  1  1  0  0  0  0
  5 11  1  0  0  0  0
  7 27  1  0  0  0  0
  8  6  1  0  0  0  0
  8 11  1  0  0  0  0
  9 22  1  0  0  0  0
  9  7  1  0  0  0  0
 10  3  1  0  0  0  0
 10 22  1  0  0  0  0
 11 28  1  0  0  0  0
 12  8  1  0  0  0  0
 13  2  1  0  0  0  0
 14 23  1  0  0  0  0
 14  9  1  0  0  0  0
 15  7  1  0  0  0  0
 17 20  1  0  0  0  0
 17 26  1  0  0  0  0
 18 13  2  0  0  0  0
 19  2  2  0  0  0  0
 20  4  1  0  0  0  0
 21 10  2  0  0  0  0
 22 20  1  0  0  0  0
 23 15  1  0  0  0  0
 24 27  1  0  0  0  0
 25 26  2  0  0  0  0
 25 18  1  0  0  0  0
 26 19  1  0  0  0  0
 27 12  1  0  0  0  0
 28 30  1  0  0  0  0
 30 29  1  0  0  0  0
M  END
>  <MODEL>
2

>  <REMARK>
 VINA RESULT:      -9.1      2.027      6.698
  Name = 
  2 active torsions:
  status: ('A' for Active; 'I' for Inactive)
    1  A    between atoms: C_11  and  O_28
    2  A    between atoms: O_28  and  C_30
                            x       y       z     vdW  Elec       q    Type
                         _______ _______ _______ _____ _____    ______ ____

>  <TORSDO>
F 2

$$$$
=
 OpenBabel11122410253D

 30 35  0  0  1  0  0  0  0  0999 V2000
  187.1470  178.3790  140.3980 C   0  0  1  0  0  3  0  0  0  0  0  0
  184.8070  178.4780  139.3750 C   0  0  0  0  0  0  0  0  0  0  0  0
  185.4120  178.0080  144.1150 N   0  0  0  0  0  2  0  0  0  0  0  0
  187.8080  177.8240  141.6710 C   0  0  1  0  0  3  0  0  0  0  0  0
  187.5080  177.5730  139.2950 O   0  0  0  0  0  0  0  0  0  0  0  0
  191.0970  177.5290  139.8720 O   0  0  0  0  0  1  0  0  0  0  0  0
  190.2630  178.0900  143.8580 C   0  0  1  0  0  3  0  0  0  0  0  0
  189.7540  177.2530  140.1390 C   0  0  2  0  0  3  0  0  0  0  0  0
  189.0520  178.1300  144.7960 C   0  0  2  0  0  3  0  0  0  0  0  0
  186.5690  177.5340  144.7620 C   0  0  0  0  0  0  0  0  0  0  0  0
  188.8730  177.7800  139.0040 C   0  0  2  0  0  3  0  0  0  0  0  0
  189.3400  177.8600  141.4840 C   0  0  2  0  0  3  0  0  0  0  0  0
  183.4230  178.6050  139.5100 C   0  0  0  0  0  3  0  0  0  0  0  0
  189.3540  177.1010  145.8670 C   0  0  0  0  0  2  0  0  0  0  0  0
  191.4300  177.6160  144.7100 C   0  0  0  0  0  2  0  0  0  0  0  0
  185.3360  178.3700  138.0950 O   0  0  0  0  0  1  0  0  0  0  0  0
  185.8760  178.8640  143.0330 C   0  0  1  0  0  3  0  0  0  0  0  0
  182.8490  178.7720  140.7680 C   0  0  0  0  0  3  0  0  0  0  0  0
  185.6400  178.4750  140.5210 C   0  0  0  0  0  0  0  0  0  0  0  0
  187.4070  178.6360  142.9080 C   0  0  1  0  0  3  0  0  0  0  0  0
  186.5210  176.8540  145.8200 O   0  0  0  0  0  0  0  0  0  0  0  0
  187.7790  177.8900  144.1090 N   0  0  0  0  0  0  0  0  0  0  0  0
  190.8570  177.1490  146.0390 C   0  0  0  0  0  2  0  0  0  0  0  0
  189.6710  175.7580  142.9150 C   0  0  0  0  0  1  0  0  0  0  0  0
  183.6620  178.8260  141.8980 C   0  0  0  0  0  3  0  0  0  0  0  0
  185.0510  178.6840  141.7890 C   0  0  0  0  0  0  0  0  0  0  0  0
  190.1240  177.1880  142.6200 C   0  0  2  0  0  3  0  0  0  0  0  0
  189.1420  179.1270  138.7150 O   0  0  0  0  0  0  0  0  0  0  0  0
  189.4410  178.0000  136.6440 C   0  0  0  0  0  1  0  0  0  0  0  0
  188.9350  179.2460  137.3400 C   0  0  0  0  0  2  0  0  0  0  0  0
  1  5  1  6  0  0  0
  1 19  1  0  0  0  0
  1  4  1  0  0  0  0
  2 13  2  0  0  0  0
  2 19  1  0  0  0  0
  3 10  1  0  0  0  0
  4 20  1  0  0  0  0
  6  8  1  0  0  0  0
  7 15  1  0  0  0  0
  7  9  1  0  0  0  0
  8 12  1  0  0  0  0
  9 14  1  0  0  0  0
 10 21  2  0  0  0  0
 11  5  1  0  0  0  0
 11  8  1  0  0  0  0
 12  4  1  0  0  0  0
 12 27  1  0  0  0  0
 13 18  1  0  0  0  0
 14 23  1  0  0  0  0
 15 23  1  0  0  0  0
 16  2  1  0  0  0  0
 17  3  1  0  0  0  0
 18 25  2  0  0  0  0
 19 26  2  0  0  0  0
 20 17  1  0  0  0  0
 20 22  1  0  0  0  0
 22 10  1  0  0  0  0
 22  9  1  0  0  0  0
 26 25  1  0  0  0  0
 26 17  1  0  0  0  0
 27 24  1  0  0  0  0
 27  7  1  0  0  0  0
 28 11  1  0  0  0  0
 29 30  1  0  0  0  0
 30 28  1  0  0  0  0
M  END
>  <MODEL>
3

>  <REMARK>
 VINA RESULT:      -8.7      1.796      5.745
  Name = 
  2 active torsions:
  status: ('A' for Active; 'I' for Inactive)
    1  A    between atoms: C_11  and  O_28
    2  A    between atoms: O_28  and  C_30
                            x       y       z     vdW  Elec       q    Type
                         _______ _______ _______ _____ _____    ______ ____

>  <TORSDO>
F 2

$$$$
=
 OpenBabel11122410253D

 30 35  0  0  1  0  0  0  0  0999 V2000
  188.5490  177.6290  144.4710 C   0  0  1  0  0  3  0  0  0  0  0  0
  189.8530  177.7970  146.6610 C   0  0  0  0  0  0  0  0  0  0  0  0
  185.1070  178.5110  146.5530 N   0  0  0  0  0  2  0  0  0  0  0  0
  187.2330  178.1710  143.8870 C   0  0  1  0  0  3  0  0  0  0  0  0
  189.6380  178.2930  143.8640 O   0  0  0  0  0  0  0  0  0  0  0  0
  188.6130  177.8590  140.4020 O   0  0  0  0  0  1  0  0  0  0  0  0
  184.7420  177.7100  141.7760 C   0  0  1  0  0  3  0  0  0  0  0  0
  188.5340  178.3440  141.7100 C   0  0  2  0  0  3  0  0  0  0  0  0
  183.9630  177.9130  143.0810 C   0  0  2  0  0  3  0  0  0  0  0  0
  184.3440  178.8580  145.4220 C   0  0  0  0  0  0  0  0  0  0  0  0
  189.7420  177.8710  142.5210 C   0  0  2  0  0  3  0  0  0  0  0  0
  187.2220  177.9010  142.3670 C   0  0  2  0  0  3  0  0  0  0  0  0
  189.8890  177.8810  148.0540 C   0  0  0  0  0  3  0  0  0  0  0  0
  182.9190  178.9610  142.7530 C   0  0  0  0  0  2  0  0  0  0  0  0
  183.7740  178.0700  140.6580 C   0  0  0  0  0  2  0  0  0  0  0  0
  191.0610  177.7360  145.9750 O   0  0  0  0  0  1  0  0  0  0  0  0
  186.0740  177.5220  146.1010 C   0  0  1  0  0  3  0  0  0  0  0  0
  188.7070  177.8890  148.7910 C   0  0  0  0  0  3  0  0  0  0  0  0
  188.6130  177.7610  145.9780 C   0  0  0  0  0  0  0  0  0  0  0  0
  186.0160  177.5170  144.5500 C   0  0  1  0  0  3  0  0  0  0  0  0
  183.3380  179.6110  145.4910 O   0  0  0  0  0  0  0  0  0  0  0  0
  184.8190  178.2850  144.2120 N   0  0  0  0  0  0  0  0  0  0  0  0
  182.5560  178.7080  141.3060 C   0  0  0  0  0  2  0  0  0  0  0  0
  185.8740  180.0300  141.8910 C   0  0  0  0  0  1  0  0  0  0  0  0
  187.4820  177.7990  148.1350 C   0  0  0  0  0  3  0  0  0  0  0  0
  187.4210  177.7310  146.7370 C   0  0  0  0  0  0  0  0  0  0  0  0
  186.0330  178.5320  141.6290 C   0  0  2  0  0  3  0  0  0  0  0  0
  189.9220  176.4830  142.4290 O   0  0  0  0  0  0  0  0  0  0  0  0
  191.5670  175.3780  143.7420 C   0  0  0  0  0  1  0  0  0  0  0  0
  191.2980  176.2910  142.5640 C   0  0  0  0  0  2  0  0  0  0  0  0
  1  5  1  6  0  0  0
  1 19  1  0  0  0  0
  2 13  1  0  0  0  0
  4  1  1  0  0  0  0
  4 20  1  0  0  0  0
  6  8  1  0  0  0  0
  7  9  1  0  0  0  0
  8 12  1  0  0  0  0
  8 11  1  0  0  0  0
  9 22  1  0  0  0  0
 10 21  2  0  0  0  0
 10  3  1  0  0  0  0
 11  5  1  0  0  0  0
 12  4  1  0  0  0  0
 13 18  2  0  0  0  0
 14  9  1  0  0  0  0
 15 23  1  0  0  0  0
 15  7  1  0  0  0  0
 16  2  1  0  0  0  0
 17  3  1  0  0  0  0
 17 26  1  0  0  0  0
 19  2  2  0  0  0  0
 19 26  1  0  0  0  0
 20 17  1  0  0  0  0
 22 20  1  0  0  0  0
 22 10  1  0  0  0  0
 23 14  1  0  0  0  0
 25 18  1  0  0  0  0
 26 25  2  0  0  0  0
 27  7  1  0  0  0  0
 27 24  1  0  0  0  0
 27 12  1  0  0  0  0
 28 11  1  0  0  0  0
 28 30  1  0  0  0  0
 30 29  1  0  0  0  0
M  END
>  <MODEL>
4

>  <REMARK>
 VINA RESULT:      -7.8      1.579      2.073
  Name = 
  2 active torsions:
  status: ('A' for Active; 'I' for Inactive)
    1  A    between atoms: C_11  and  O_28
    2  A    between atoms: O_28  and  C_30
                            x       y       z     vdW  Elec       q    Type
                         _______ _______ _______ _____ _____    ______ ____

>  <TORSDO>
F 2

$$$$
=
 OpenBabel11122410253D

 30 35  0  0  1  0  0  0  0  0999 V2000
  186.4100  178.0970  140.5740 C   0  0  1  0  0  3  0  0  0  0  0  0
  187.8980  178.2670  138.5040 C   0  0  0  0  0  0  0  0  0  0  0  0
  189.8070  177.8430  142.8900 N   0  0  0  0  0  2  0  0  0  0  0  0
  186.5210  178.3870  142.0810 C   0  0  1  0  0  3  0  0  0  0  0  0
  185.5930  179.0780  139.9680 O   0  0  0  0  0  0  0  0  0  0  0  0
  182.8000  178.8940  142.2900 O   0  0  0  0  0  1  0  0  0  0  0  0
  185.4990  177.6430  145.1270 C   0  0  1  0  0  3  0  0  0  0  0  0
  184.1080  179.1620  141.8790 C   0  0  2  0  0  3  0  0  0  0  0  0
  187.0130  177.4750  145.2950 C   0  0  2  0  0  3  0  0  0  0  0  0
  189.1690  178.1520  144.1070 C   0  0  0  0  0  0  0  0  0  0  0  0
  184.2580  178.8820  140.3820 C   0  0  2  0  0  3  0  0  0  0  0  0
  185.1060  178.3340  142.6970 C   0  0  2  0  0  3  0  0  0  0  0  0
  189.1490  178.1650  137.8920 C   0  0  0  0  0  3  0  0  0  0  0  0
  187.3610  178.2800  146.5310 C   0  0  0  0  0  2  0  0  0  0  0  0
  184.9570  177.9140  146.5220 C   0  0  0  0  0  2  0  0  0  0  0  0
  186.8020  178.5890  137.7130 O   0  0  0  0  0  1  0  0  0  0  0  0
  188.8050  177.1830  142.0650 C   0  0  1  0  0  3  0  0  0  0  0  0
  190.2680  177.7910  138.6300 C   0  0  0  0  0  3  0  0  0  0  0  0
  187.7620  178.0320  139.8950 C   0  0  0  0  0  0  0  0  0  0  0  0
  187.4400  177.3780  142.7780 C   0  0  1  0  0  3  0  0  0  0  0  0
  189.7900  178.6280  145.0920 O   0  0  0  0  0  0  0  0  0  0  0  0
  187.7760  177.8790  144.1090 N   0  0  0  0  0  0  0  0  0  0  0  0
  186.1520  178.1500  147.4320 C   0  0  0  0  0  2  0  0  0  0  0  0
  185.6810  180.1280  144.4370 C   0  0  0  0  0  1  0  0  0  0  0  0
  190.1380  177.5040  139.9870 C   0  0  0  0  0  3  0  0  0  0  0  0
  188.8970  177.6160  140.6270 C   0  0  0  0  0  0  0  0  0  0  0  0
  185.0500  178.7600  144.1700 C   0  0  2  0  0  3  0  0  0  0  0  0
  183.7950  177.6020  140.0410 O   0  0  0  0  0  0  0  0  0  0  0  0
  183.8000  176.7330  137.8290 C   0  0  0  0  0  1  0  0  0  0  0  0
  183.2150  177.7550  138.7810 C   0  0  0  0  0  2  0  0  0  0  0  0
  1 19  1  6  0  0  0
  1  4  1  0  0  0  0
  2 19  1  0  0  0  0
  3 10  1  0  0  0  0
  4 12  1  0  0  0  0
  4 20  1  0  0  0  0
  5 11  1  0  0  0  0
  5  1  1  0  0  0  0
  7  9  1  0  0  0  0
  7 15  1  0  0  0  0
  8  6  1  0  0  0  0
  8 12  1  0  0  0  0
  9 14  1  0  0  0  0
 10 22  1  0  0  0  0
 10 21  2  0  0  0  0
 11  8  1  0  0  0  0
 12 27  1  0  0  0  0
 13  2  2  0  0  0  0
 13 18  1  0  0  0  0
 14 23  1  0  0  0  0
 15 23  1  0  0  0  0
 16  2  1  0  0  0  0
 17 20  1  0  0  0  0
 17  3  1  0  0  0  0
 18 25  2  0  0  0  0
 19 26  2  0  0  0  0
 20 22  1  0  0  0  0
 22  9  1  0  0  0  0
 25 26  1  0  0  0  0
 26 17  1  0  0  0  0
 27 24  1  0  0  0  0
 27  7  1  0  0  0  0
 28 11  1  0  0  0  0
 29 30  1  0  0  0  0
 30 28  1  0  0  0  0
M  END
>  <MODEL>
5

>  <REMARK>
 VINA RESULT:      -7.6      2.331      5.196
  Name = 
  2 active torsions:
  status: ('A' for Active; 'I' for Inactive)
    1  A    between atoms: C_11  and  O_28
    2  A    between atoms: O_28  and  C_30
                            x       y       z     vdW  Elec       q    Type
                         _______ _______ _______ _____ _____    ______ ____

>  <TORSDO>
F 2

$$$$
=
 OpenBabel11122410253D

 30 35  0  0  1  0  0  0  0  0999 V2000
  186.5580  178.2220  142.7900 C   0  0  1  0  0  3  0  0  0  0  0  0
  188.8330  177.2420  143.4150 C   0  0  0  0  0  0  0  0  0  0  0  0
  187.4790  177.6080  138.8230 N   0  0  0  0  0  2  0  0  0  0  0  0
  185.5660  178.1350  141.6170 C   0  0  1  0  0  3  0  0  0  0  0  0
  186.0380  177.5110  143.8950 O   0  0  0  0  0  0  0  0  0  0  0  0
  182.7200  178.9980  143.9190 O   0  0  0  0  0  1  0  0  0  0  0  0
  183.1900  179.6260  139.8840 C   0  0  1  0  0  3  0  0  0  0  0  0
  183.7760  178.2330  143.4190 C   0  0  2  0  0  3  0  0  0  0  0  0
  184.1730  179.2770  138.7600 C   0  0  2  0  0  3  0  0  0  0  0  0
  186.1570  177.7230  138.3530 C   0  0  0  0  0  0  0  0  0  0  0  0
  184.9350  178.2210  144.4180 C   0  0  2  0  0  3  0  0  0  0  0  0
  184.2290  178.7690  142.0570 C   0  0  2  0  0  3  0  0  0  0  0  0
  190.1130  176.8100  143.0590 C   0  0  0  0  0  3  0  0  0  0  0  0
  183.3310  178.5910  137.7040 C   0  0  0  0  0  2  0  0  0  0  0  0
  181.8310  179.7690  139.2130 C   0  0  0  0  0  2  0  0  0  0  0  0
  188.4780  177.2120  144.7580 O   0  0  0  0  0  1  0  0  0  0  0  0
  187.5620  178.4480  140.0090 C   0  0  1  0  0  3  0  0  0  0  0  0
  190.5360  176.8720  141.7340 C   0  0  0  0  0  3  0  0  0  0  0  0
  187.9350  177.7110  142.4240 C   0  0  0  0  0  0  0  0  0  0  0  0
  186.1070  178.8490  140.3740 C   0  0  1  0  0  3  0  0  0  0  0  0
  185.7790  177.2100  137.2680 O   0  0  0  0  0  0  0  0  0  0  0  0
  185.3050  178.4630  139.2150 N   0  0  0  0  0  0  0  0  0  0  0  0
  181.9790  179.2660  137.7860 C   0  0  0  0  0  2  0  0  0  0  0  0
  182.8650  177.1630  140.5960 C   0  0  0  0  0  1  0  0  0  0  0  0
  189.6820  177.3820  140.7580 C   0  0  0  0  0  3  0  0  0  0  0  0
  188.3880  177.8060  141.0880 C   0  0  0  0  0  0  0  0  0  0  0  0
  183.0960  178.6100  141.0340 C   0  0  2  0  0  3  0  0  0  0  0  0
  185.2970  179.5170  144.8150 O   0  0  0  0  0  0  0  0  0  0  0  0
  184.9430  178.3130  146.8330 C   0  0  0  0  0  1  0  0  0  0  0  0
  185.7570  179.3750  146.1250 C   0  0  0  0  0  2  0  0  0  0  0  0
  1 19  1  6  0  0  0
  1  5  1  0  0  0  0
  2 16  1  0  0  0  0
  3 17  1  0  0  0  0
  4 12  1  0  0  0  0
  4  1  1  0  0  0  0
  5 11  1  0  0  0  0
  7 27  1  0  0  0  0
  8  6  1  0  0  0  0
  8 11  1  0  0  0  0
  9 22  1  0  0  0  0
  9  7  1  0  0  0  0
 10  3  1  0  0  0  0
 10 22  1  0  0  0  0
 11 28  1  0  0  0  0
 12  8  1  0  0  0  0
 13  2  1  0  0  0  0
 14 23  1  0  0  0  0
 14  9  1  0  0  0  0
 15  7  1  0  0  0  0
 17 20  1  0  0  0  0
 17 26  1  0  0  0  0
 18 13  2  0  0  0  0
 19  2  2  0  0  0  0
 20  4  1  0  0  0  0
 21 10  2  0  0  0  0
 22 20  1  0  0  0  0
 23 15  1  0  0  0  0
 24 27  1  0  0  0  0
 25 26  2  0  0  0  0
 25 18  1  0  0  0  0
 26 19  1  0  0  0  0
 27 12  1  0  0  0  0
 28 30  1  0  0  0  0
 30 29  1  0  0  0  0
M  END
>  <MODEL>
6

>  <REMARK>
 VINA RESULT:      -7.4      2.902      5.711
  Name = 
  2 active torsions:
  status: ('A' for Active; 'I' for Inactive)
    1  A    between atoms: C_11  and  O_28
    2  A    between atoms: O_28  and  C_30
                            x       y       z     vdW  Elec       q    Type
                         _______ _______ _______ _____ _____    ______ ____

>  <TORSDO>
F 2

$$$$
=
 OpenBabel11122410253D

 30 35  0  0  1  0  0  0  0  0999 V2000
  188.3960  177.4800  145.3240 C   0  0  1  0  0  3  0  0  0  0  0  0
  186.6180  178.2800  146.9750 C   0  0  0  0  0  0  0  0  0  0  0  0
  185.8510  178.4670  142.2390 N   0  0  0  0  0  2  0  0  0  0  0  0
  188.7830  177.7380  143.8580 C   0  0  1  0  0  3  0  0  0  0  0  0
  189.3450  178.0940  146.1730 O   0  0  0  0  0  0  0  0  0  0  0  0
  192.3420  176.7720  144.5950 O   0  0  0  0  0  1  0  0  0  0  0  0
  190.1710  176.5530  141.1110 C   0  0  1  0  0  3  0  0  0  0  0  0
  191.1760  177.5350  144.6900 C   0  0  2  0  0  3  0  0  0  0  0  0
  188.8000  176.9720  140.5680 C   0  0  2  0  0  3  0  0  0  0  0  0
  186.8390  178.4640  141.2370 C   0  0  0  0  0  0  0  0  0  0  0  0
  190.5630  177.3860  146.0850 C   0  0  2  0  0  3  0  0  0  0  0  0
  190.1770  177.1250  143.6030 C   0  0  2  0  0  3  0  0  0  0  0  0
  185.3120  178.6860  147.2570 C   0  0  0  0  0  3  0  0  0  0  0  0
  189.1040  177.8050  139.3400 C   0  0  0  0  0  2  0  0  0  0  0  0
  191.1050  176.5460  139.9100 C   0  0  0  0  0  2  0  0  0  0  0  0
  187.5190  178.1840  148.0290 O   0  0  0  0  0  1  0  0  0  0  0  0
  186.2870  177.5020  143.2390 C   0  0  1  0  0  3  0  0  0  0  0  0
  184.3570  178.7440  146.2450 C   0  0  0  0  0  3  0  0  0  0  0  0
  186.9970  177.9620  145.6480 C   0  0  0  0  0  0  0  0  0  0  0  0
  187.7550  177.1340  142.8940 C   0  0  1  0  0  3  0  0  0  0  0  0
  186.7130  179.1070  140.1620 O   0  0  0  0  0  0  0  0  0  0  0  0
  187.9790  177.6790  141.5560 N   0  0  0  0  0  0  0  0  0  0  0  0
  190.3570  177.1900  138.7540 C   0  0  0  0  0  2  0  0  0  0  0  0
  190.7800  178.9400  141.8940 C   0  0  0  0  0  1  0  0  0  0  0  0
  184.7030  178.3820  144.9460 C   0  0  0  0  0  3  0  0  0  0  0  0
  186.0110  177.9880  144.6360 C   0  0  0  0  0  0  0  0  0  0  0  0
  190.7560  177.4450  142.2180 C   0  0  2  0  0  3  0  0  0  0  0  0
  190.4050  176.0390  146.4450 O   0  0  0  0  0  0  0  0  0  0  0  0
  192.4160  175.6600  147.6520 C   0  0  0  0  0  1  0  0  0  0  0  0
  190.9330  175.9500  147.7340 C   0  0  0  0  0  2  0  0  0  0  0  0
  1 19  1  1  0  0  0
  1  5  1  0  0  0  0
  2 13  1  0  0  0  0
  2 16  1  0  0  0  0
  3 17  1  0  0  0  0
  4  1  1  0  0  0  0
  6  8  1  0  0  0  0
  7 27  1  0  0  0  0
  8 11  1  0  0  0  0
  9  7  1  0  0  0  0
  9 22  1  0  0  0  0
 10 22  1  0  0  0  0
 10  3  1  0  0  0  0
 11  5  1  0  0  0  0
 11 28  1  0  0  0  0
 12  4  1  0  0  0  0
 12  8  1  0  0  0  0
 14  9  1  0  0  0  0
 15  7  1  0  0  0  0
 17 26  1  0  0  0  0
 18 13  2  0  0  0  0
 19  2  2  0  0  0  0
 20 17  1  0  0  0  0
 20  4  1  0  0  0  0
 21 10  2  0  0  0  0
 22 20  1  0  0  0  0
 23 14  1  0  0  0  0
 23 15  1  0  0  0  0
 24 27  1  0  0  0  0
 25 18  1  0  0  0  0
 26 25  2  0  0  0  0
 26 19  1  0  0  0  0
 27 12  1  0  0  0  0
 28 30  1  0  0  0  0
 29 30  1  0  0  0  0
M  END
>  <MODEL>
7

>  <REMARK>
 VINA RESULT:      -7.2      1.997      5.833
  Name = 
  2 active torsions:
  status: ('A' for Active; 'I' for Inactive)
    1  A    between atoms: C_11  and  O_28
    2  A    between atoms: O_28  and  C_30
                            x       y       z     vdW  Elec       q    Type
                         _______ _______ _______ _____ _____    ______ ____

>  <TORSDO>
F 2

$$$$
=
 OpenBabel11122410253D

 30 35  0  0  1  0  0  0  0  0999 V2000
  187.1090  178.0210  140.2570 C   0  0  1  0  0  3  0  0  0  0  0  0
  186.7500  178.6160  137.7980 C   0  0  0  0  0  0  0  0  0  0  0  0
  191.0220  177.0920  139.3720 N   0  0  0  0  0  2  0  0  0  0  0  0
  188.2830  177.9430  141.2480 C   0  0  1  0  0  3  0  0  0  0  0  0
  186.3150  179.1500  140.5630 O   0  0  0  0  0  0  0  0  0  0  0  0
  185.9360  178.5340  144.1260 O   0  0  0  0  0  1  0  0  0  0  0  0
  189.5280  176.5420  143.9620 C   0  0  1  0  0  3  0  0  0  0  0  0
  186.6160  178.8390  142.9450 C   0  0  2  0  0  3  0  0  0  0  0  0
  190.6650  176.2780  142.9690 C   0  0  2  0  0  3  0  0  0  0  0  0
  191.4790  177.1300  140.7030 C   0  0  0  0  0  0  0  0  0  0  0  0
  185.6320  178.9150  141.7760 C   0  0  2  0  0  3  0  0  0  0  0  0
  187.7130  177.8020  142.6760 C   0  0  2  0  0  3  0  0  0  0  0  0
  187.1780  178.6110  136.4690 C   0  0  0  0  0  3  0  0  0  0  0  0
  191.9180  176.7540  143.6750 C   0  0  0  0  0  2  0  0  0  0  0  0
  190.1670  176.4970  145.3420 C   0  0  0  0  0  2  0  0  0  0  0  0
  185.5030  179.1590  138.0870 O   0  0  0  0  0  1  0  0  0  0  0  0
  189.6260  176.6860  139.4350 C   0  0  1  0  0  3  0  0  0  0  0  0
  188.3940  178.0290  136.1210 C   0  0  0  0  0  3  0  0  0  0  0  0
  187.5680  178.0650  138.8150 C   0  0  0  0  0  0  0  0  0  0  0  0
  189.2060  176.7620  140.9280 C   0  0  1  0  0  3  0  0  0  0  0  0
  192.6860  177.3340  140.9980 O   0  0  0  0  0  0  0  0  0  0  0  0
  190.4570  176.9210  141.6670 N   0  0  0  0  0  0  0  0  0  0  0  0
  191.6730  176.4630  145.1400 C   0  0  0  0  0  2  0  0  0  0  0  0
  189.6670  179.1100  143.7000 C   0  0  0  0  0  1  0  0  0  0  0  0
  189.1830  177.4350  137.1030 C   0  0  0  0  0  3  0  0  0  0  0  0
  188.7830  177.4430  138.4460 C   0  0  0  0  0  0  0  0  0  0  0  0
  188.7740  177.8700  143.7820 C   0  0  2  0  0  3  0  0  0  0  0  0
  184.8220  177.7710  141.6990 O   0  0  0  0  0  0  0  0  0  0  0  0
  183.0730  177.5060  140.1130 C   0  0  0  0  0  1  0  0  0  0  0  0
  183.5620  178.2490  141.3380 C   0  0  0  0  0  2  0  0  0  0  0  0
  1 19  1  6  0  0  0
  1  5  1  0  0  0  0
  1  4  1  0  0  0  0
  2 16  1  0  0  0  0
  2 19  1  0  0  0  0
  3 17  1  0  0  0  0
  3 10  1  0  0  0  0
  4 12  1  0  0  0  0
  5 11  1  0  0  0  0
  7 15  1  0  0  0  0
  8  6  1  0  0  0  0
  9 14  1  0  0  0  0
  9  7  1  0  0  0  0
 10 21  2  0  0  0  0
 10 22  1  0  0  0  0
 11  8  1  0  0  0  0
 12  8  1  0  0  0  0
 12 27  1  0  0  0  0
 13  2  2  0  0  0  0
 14 23  1  0  0  0  0
 17 20  1  0  0  0  0
 18 13  1  0  0  0  0
 18 25  2  0  0  0  0
 20  4  1  0  0  0  0
 20 22  1  0  0  0  0
 22  9  1  0  0  0  0
 23 15  1  0  0  0  0
 24 27  1  0  0  0  0
 25 26  1  0  0  0  0
 26 19  2  0  0  0  0
 26 17  1  0  0  0  0
 27  7  1  0  0  0  0
 28 11  1  0  0  0  0
 29 30  1  0  0  0  0
 30 28  1  0  0  0  0
M  END
>  <MODEL>
8

>  <REMARK>
 VINA RESULT:      -7.0      2.706      7.046
  Name = 
  2 active torsions:
  status: ('A' for Active; 'I' for Inactive)
    1  A    between atoms: C_11  and  O_28
    2  A    between atoms: O_28  and  C_30
                            x       y       z     vdW  Elec       q    Type
                         _______ _______ _______ _____ _____    ______ ____

>  <TORSDO>
F 2

$$$$
=
 OpenBabel11122410253D

 30 35  0  0  1  0  0  0  0  0999 V2000
  188.3430  177.7770  141.0760 C   0  0  1  0  0  3  0  0  0  0  0  0
  188.1670  177.4700  138.5460 C   0  0  0  0  0  0  0  0  0  0  0  0
  184.3220  178.6650  141.1620 N   0  0  0  0  0  2  0  0  0  0  0  0
  187.4110  177.7060  142.2980 C   0  0  1  0  0  3  0  0  0  0  0  0
  189.1950  176.6500  141.0730 O   0  0  0  0  0  0  0  0  0  0  0  0
  190.3310  176.8820  144.5190 O   0  0  0  0  0  1  0  0  0  0  0  0
  186.7700  178.7570  145.3570 C   0  0  1  0  0  3  0  0  0  0  0  0
  189.4140  176.6860  143.4840 C   0  0  2  0  0  3  0  0  0  0  0  0
  185.4420  179.0900  144.6680 C   0  0  2  0  0  3  0  0  0  0  0  0
  184.1650  178.4660  142.5470 C   0  0  0  0  0  0  0  0  0  0  0  0
  190.1220  176.7730  142.1300 C   0  0  2  0  0  3  0  0  0  0  0  0
  188.2760  177.7090  143.5770 C   0  0  2  0  0  3  0  0  0  0  0  0
  187.4610  177.6070  137.3490 C   0  0  0  0  0  3  0  0  0  0  0  0
  184.3770  178.4970  145.5670 C   0  0  0  0  0  2  0  0  0  0  0  0
  186.4450  178.6280  146.8380 C   0  0  0  0  0  2  0  0  0  0  0  0
  189.4510  176.9410  138.4960 O   0  0  0  0  0  1  0  0  0  0  0  0
  185.6960  179.1090  140.9710 C   0  0  1  0  0  3  0  0  0  0  0  0
  186.1940  178.1820  137.3380 C   0  0  0  0  0  3  0  0  0  0  0  0
  187.5830  177.8780  139.7710 C   0  0  0  0  0  0  0  0  0  0  0  0
  186.4300  178.8840  142.3210 C   0  0  1  0  0  3  0  0  0  0  0  0
  183.0530  178.1890  143.0670 O   0  0  0  0  0  0  0  0  0  0  0  0
  185.3700  178.6020  143.2870 N   0  0  0  0  0  0  0  0  0  0  0  0
  184.9300  178.6330  146.9680 C   0  0  0  0  0  2  0  0  0  0  0  0
  186.6020  176.2310  144.8380 C   0  0  0  0  0  1  0  0  0  0  0  0
  185.6300  178.6370  138.5280 C   0  0  0  0  0  3  0  0  0  0  0  0
  186.3120  178.4950  139.7440 C   0  0  0  0  0  0  0  0  0  0  0  0
  187.4790  177.4830  144.8690 C   0  0  2  0  0  3  0  0  0  0  0  0
  190.8850  177.9450  142.0140 O   0  0  0  0  0  0  0  0  0  0  0  0
  192.3910  177.5030  140.2300 C   0  0  0  0  0  1  0  0  0  0  0  0
  192.1780  177.5030  141.7290 C   0  0  0  0  0  2  0  0  0  0  0  0
  1 19  1  6  0  0  0
  1  4  1  0  0  0  0
  2 19  1  0  0  0  0
  3 10  1  0  0  0  0
  4 20  1  0  0  0  0
  4 12  1  0  0  0  0
  5  1  1  0  0  0  0
  5 11  1  0  0  0  0
  7 15  1  0  0  0  0
  8 12  1  0  0  0  0
  8  6  1  0  0  0  0
  9  7  1  0  0  0  0
  9 14  1  0  0  0  0
 10 21  2  0  0  0  0
 10 22  1  0  0  0  0
 11  8  1  0  0  0  0
 12 27  1  0  0  0  0
 13  2  2  0  0  0  0
 14 23  1  0  0  0  0
 15 23  1  0  0  0  0
 16  2  1  0  0  0  0
 17  3  1  0  0  0  0
 17 20  1  0  0  0  0
 18 13  1  0  0  0  0
 18 25  2  0  0  0  0
 20 22  1  0  0  0  0
 22  9  1  0  0  0  0
 24 27  1  0  0  0  0
 25 26  1  0  0  0  0
 26 19  2  0  0  0  0
 26 17  1  0  0  0  0
 27  7  1  0  0  0  0
 28 11  1  0  0  0  0
 29 30  1  0  0  0  0
 30 28  1  0  0  0  0
M  END
>  <MODEL>
9

>  <REMARK>
 VINA RESULT:      -7.0      2.124      5.129
  Name = 
  2 active torsions:
  status: ('A' for Active; 'I' for Inactive)
    1  A    between atoms: C_11  and  O_28
    2  A    between atoms: O_28  and  C_30
                            x       y       z     vdW  Elec       q    Type
                         _______ _______ _______ _____ _____    ______ ____

>  <TORSDO>
F 2

$$$$
