=
 OpenBabel11122410493D

 32 37  0  0  1  0  0  0  0  0999 V2000
  189.0080  177.0530  138.9310 C   0  0  1  0  0  3  0  0  0  0  0  0
  184.5970  179.0540  139.7060 C   0  0  0  0  0  3  0  0  0  0  0  0
  184.8400  179.0270  141.0800 C   0  0  0  0  0  3  0  0  0  0  0  0
  190.7890  176.9860  140.7370 C   0  0  2  0  0  3  0  0  0  0  0  0
  190.9140  176.9830  142.2740 C   0  0  2  0  0  3  0  0  0  0  0  0
  189.3820  175.9430  137.0070 C   0  0  2  0  0  3  0  0  0  0  0  0
  187.5280  177.6280  137.0180 O   0  0  0  0  0  0  0  0  0  0  0  0
  189.8630  177.4330  144.3250 N   0  0  0  0  0  0  0  0  0  0  0  0
  185.6090  178.7010  138.8100 C   0  0  0  0  0  3  0  0  0  0  0  0
  187.9780  177.9980  138.3180 C   0  0  1  0  0  3  0  0  0  0  0  0
  186.8670  178.3080  139.2840 C   0  0  0  0  0  0  0  0  0  0  0  0
  188.4580  177.8320  141.2290 C   0  0  2  0  0  3  0  0  0  0  0  0
  189.5100  176.1090  144.0060 N   0  0  0  0  0  2  0  0  0  0  0  0
  187.9140  176.3110  136.6450 C   0  0  2  0  0  3  0  0  0  0  0  0
  190.3320  175.7190  142.8630 C   0  0  0  0  0  2  0  0  0  0  0  0
  186.0980  178.6570  141.5630 C   0  0  0  0  0  3  0  0  0  0  0  0
  187.1320  178.3240  140.6750 C   0  0  0  0  0  0  0  0  0  0  0  0
  188.9960  178.7250  142.3340 C   0  0  0  0  0  2  0  0  0  0  0  0
  189.9770  176.8080  137.9550 O   0  0  0  0  0  0  0  0  0  0  0  0
  191.9480  177.5230  140.1770 O   0  0  0  0  0  1  0  0  0  0  0  0
  188.7350  178.0530  145.0140 C   0  0  0  0  0  1  0  0  0  0  0  0
  189.5660  177.7220  140.1780 C   0  0  2  0  0  3  0  0  0  0  0  0
  190.2130  178.0890  143.0590 C   0  0  2  0  0  3  0  0  0  0  0  0
  185.8330  175.0160  136.2200 C   0  0  0  0  0  2  0  0  0  0  0  0
  186.9450  175.2840  137.2150 C   0  0  1  0  0  3  0  0  0  0  0  0
  186.9800  174.0360  136.3560 C   0  0  1  0  0  3  0  0  0  0  0  0
  186.5380  172.8510  137.1930 C   0  0  0  0  0  2  0  0  0  0  0  0
  185.3410  172.2160  136.5760 C   0  0  0  0  0  0  0  0  0  0  0  0
  185.4330  171.6600  135.4510 O   0  0  0  0  0  0  0  0  0  0  0  0
  184.1310  172.2040  137.2580 O   0  0  0  0  0  1  0  0  0  0  0  0
  189.4120  176.1730  134.6350 O   0  0  0  0  0  1  0  0  0  0  0  0
  190.2190  175.9160  135.7440 C   0  0  0  0  0  2  0  0  0  0  0  0
  1 19  1  6  0  0  0
  1 22  1  0  0  0  0
  2  3  1  0  0  0  0
  3 16  2  0  0  0  0
  4 20  1  6  0  0  0
  4  5  1  0  0  0  0
  5 15  1  1  0  0  0
  5 23  1  0  0  0  0
  6 32  1  6  0  0  0
  6 19  1  0  0  0  0
  8 21  1  0  0  0  0
  9 11  1  0  0  0  0
  9  2  2  0  0  0  0
 10  7  1  6  0  0  0
 10  1  1  0  0  0  0
 10 11  1  0  0  0  0
 11 17  2  0  0  0  0
 12 18  1  1  0  0  0
 13  8  1  0  0  0  0
 14  6  1  0  0  0  0
 14  7  1  1  0  0  0
 14 25  1  0  0  0  0
 15 13  1  0  0  0  0
 17 12  1  0  0  0  0
 17 16  1  0  0  0  0
 18 23  1  0  0  0  0
 22  4  1  0  0  0  0
 22 12  1  0  0  0  0
 23  8  1  0  0  0  0
 24 26  1  0  0  0  0
 24 25  1  0  0  0  0
 26 27  1  0  0  0  0
 26 25  1  0  0  0  0
 28 27  1  0  0  0  0
 28 30  1  0  0  0  0
 29 28  2  0  0  0  0
 31 32  1  0  0  0  0
M  END
>  <MODEL>
1

>  <REMARK>
 VINA RESULT:      -7.0      0.000      0.000
  Name = 
  4 active torsions:
  status: ('A' for Active; 'I' for Inactive)
    1  A    between atoms: C_7  and  C_19
    2  A    between atoms: C_10  and  C_17
    3  A    between atoms: C_20  and  C_29
    4  A    between atoms: C_29  and  C_30
                            x       y       z     vdW  Elec       q    Type
                         _______ _______ _______ _____ _____    ______ ____

>  <TORSDO>
F 4

$$$$
=
 OpenBabel11122410493D

 32 37  0  0  1  0  0  0  0  0999 V2000
  183.4210  178.3170  140.8390 C   0  0  1  0  0  3  0  0  0  0  0  0
  186.6460  178.3080  137.1420 C   0  0  0  0  0  3  0  0  0  0  0  0
  185.8160  177.4350  136.4370 C   0  0  0  0  0  3  0  0  0  0  0  0
  181.0500  177.4590  140.5560 C   0  0  2  0  0  3  0  0  0  0  0  0
  180.2470  176.4710  139.6870 C   0  0  2  0  0  3  0  0  0  0  0  0
  184.1300  178.8650  142.9060 C   0  0  2  0  0  3  0  0  0  0  0  0
  185.4980  179.6770  140.9720 O   0  0  0  0  0  0  0  0  0  0  0  0
  180.1780  175.2200  137.7010 N   0  0  0  0  0  0  0  0  0  0  0  0
  186.2140  178.8600  138.3510 C   0  0  0  0  0  3  0  0  0  0  0  0
  184.4600  179.1840  140.1310 C   0  0  1  0  0  3  0  0  0  0  0  0
  184.9540  178.5330  138.8680 C   0  0  0  0  0  0  0  0  0  0  0  0
  182.7500  177.2470  138.6960 C   0  0  2  0  0  3  0  0  0  0  0  0
  180.8330  174.3990  138.6370 N   0  0  0  0  0  2  0  0  0  0  0  0
  185.5280  179.0550  142.2510 C   0  0  2  0  0  3  0  0  0  0  0  0
  180.6850  175.0470  139.9390 C   0  0  0  0  0  2  0  0  0  0  0  0
  184.5490  177.1190  136.9330 C   0  0  0  0  0  3  0  0  0  0  0  0
  184.0900  177.6840  138.1320 C   0  0  0  0  0  0  0  0  0  0  0  0
  181.6410  177.2780  137.6560 C   0  0  0  0  0  2  0  0  0  0  0  0
  183.0470  178.9910  142.0040 O   0  0  0  0  0  0  0  0  0  0  0  0
  180.2020  178.4620  141.0230 O   0  0  0  0  0  1  0  0  0  0  0  0
  180.7650  174.9720  136.3870 C   0  0  0  0  0  1  0  0  0  0  0  0
  182.2660  178.0970  139.8740 C   0  0  2  0  0  3  0  0  0  0  0  0
  180.3410  176.6010  138.1680 C   0  0  2  0  0  3  0  0  0  0  0  0
  187.6680  177.9540  141.6240 C   0  0  0  0  0  2  0  0  0  0  0  0
  186.2790  177.7320  142.1890 C   0  0  1  0  0  3  0  0  0  0  0  0
  187.4750  177.7950  143.1180 C   0  0  1  0  0  3  0  0  0  0  0  0
  187.8500  176.3860  143.5310 C   0  0  0  0  0  2  0  0  0  0  0  0
  189.3310  176.2670  143.6340 C   0  0  0  0  0  0  0  0  0  0  0  0
  189.9590  176.9490  144.4840 O   0  0  0  0  0  1  0  0  0  0  0  0
  190.0160  175.3770  142.8170 O   0  0  0  0  0  0  0  0  0  0  0  0
  183.6570  179.1800  145.2210 O   0  0  0  0  0  1  0  0  0  0  0  0
  183.9680  179.8570  144.0410 C   0  0  0  0  0  2  0  0  0  0  0  0
  1 19  1  1  0  0  0
  2  9  1  0  0  0  0
  3 16  1  0  0  0  0
  3  2  2  0  0  0  0
  4 20  1  6  0  0  0
  5 15  1  6  0  0  0
  5  4  1  0  0  0  0
  6 32  1  1  0  0  0
  8 23  1  0  0  0  0
  8 13  1  0  0  0  0
  9 11  2  0  0  0  0
 10 11  1  6  0  0  0
 10  1  1  0  0  0  0
 10  7  1  0  0  0  0
 12 18  1  6  0  0  0
 12 22  1  0  0  0  0
 13 15  1  0  0  0  0
 14  7  1  6  0  0  0
 14  6  1  0  0  0  0
 16 17  2  0  0  0  0
 17 12  1  0  0  0  0
 17 11  1  0  0  0  0
 18 23  1  0  0  0  0
 19  6  1  0  0  0  0
 21  8  1  0  0  0  0
 22  4  1  0  0  0  0
 22  1  1  0  0  0  0
 23  5  1  0  0  0  0
 24 25  1  0  0  0  0
 24 26  1  0  0  0  0
 25 14  1  0  0  0  0
 25 26  1  0  0  0  0
 26 27  1  0  0  0  0
 27 28  1  0  0  0  0
 28 29  1  0  0  0  0
 30 28  2  0  0  0  0
 32 31  1  0  0  0  0
M  END
>  <MODEL>
2

>  <REMARK>
 VINA RESULT:      -6.8      4.691      8.379
  Name = 
  4 active torsions:
  status: ('A' for Active; 'I' for Inactive)
    1  A    between atoms: C_7  and  C_19
    2  A    between atoms: C_10  and  C_17
    3  A    between atoms: C_20  and  C_29
    4  A    between atoms: C_29  and  C_30
                            x       y       z     vdW  Elec       q    Type
                         _______ _______ _______ _____ _____    ______ ____

>  <TORSDO>
F 4

$$$$
=
 OpenBabel11122410493D

 32 37  0  0  1  0  0  0  0  0999 V2000
  189.7510  176.9890  138.6670 C   0  0  1  0  0  3  0  0  0  0  0  0
  185.1540  178.6720  138.3440 C   0  0  0  0  0  3  0  0  0  0  0  0
  185.0690  178.6680  139.7370 C   0  0  0  0  0  3  0  0  0  0  0  0
  191.0570  177.0580  140.8420 C   0  0  2  0  0  3  0  0  0  0  0  0
  190.8170  177.0710  142.3640 C   0  0  2  0  0  3  0  0  0  0  0  0
  190.6430  175.9010  136.9080 C   0  0  2  0  0  3  0  0  0  0  0  0
  188.7280  177.4490  136.4490 O   0  0  0  0  0  0  0  0  0  0  0  0
  189.2840  177.4530  144.1020 N   0  0  0  0  0  0  0  0  0  0  0  0
  186.3710  178.3880  137.7180 C   0  0  0  0  0  3  0  0  0  0  0  0
  188.8320  177.8550  137.8100 C   0  0  1  0  0  3  0  0  0  0  0  0
  187.5070  178.0880  138.4820 C   0  0  0  0  0  0  0  0  0  0  0  0
  188.6230  177.7360  140.7550 C   0  0  2  0  0  3  0  0  0  0  0  0
  189.1080  176.1060  143.7380 N   0  0  0  0  0  2  0  0  0  0  0  0
  189.2800  176.1600  136.2040 C   0  0  2  0  0  3  0  0  0  0  0  0
  190.2020  175.7700  142.8270 C   0  0  0  0  0  2  0  0  0  0  0  0
  186.2000  178.3910  140.5090 C   0  0  0  0  0  3  0  0  0  0  0  0
  187.4350  178.1290  139.8960 C   0  0  0  0  0  0  0  0  0  0  0  0
  188.8240  178.6710  141.9370 C   0  0  0  0  0  2  0  0  0  0  0  0
  190.9370  176.8110  137.9510 O   0  0  0  0  0  0  0  0  0  0  0  0
  192.2760  177.6740  140.5580 O   0  0  0  0  0  1  0  0  0  0  0  0
  187.9860  177.9930  144.4940 C   0  0  0  0  0  1  0  0  0  0  0  0
  189.9520  177.7020  139.9960 C   0  0  2  0  0  3  0  0  0  0  0  0
  189.8760  178.1260  142.9400 C   0  0  2  0  0  3  0  0  0  0  0  0
  187.6700  174.5030  135.2840 C   0  0  0  0  0  2  0  0  0  0  0  0
  188.2770  175.0690  136.5530 C   0  0  1  0  0  3  0  0  0  0  0  0
  188.7680  173.7470  136.0010 C   0  0  1  0  0  3  0  0  0  0  0  0
  188.1620  172.6190  136.8130 C   0  0  0  0  0  2  0  0  0  0  0  0
  187.6740  171.5460  135.9030 C   0  0  0  0  0  0  0  0  0  0  0  0
  188.4980  170.8310  135.2760 O   0  0  0  0  0  0  0  0  0  0  0  0
  186.3120  171.3100  135.7740 O   0  0  0  0  0  1  0  0  0  0  0  0
  191.2080  175.9610  134.5940 O   0  0  0  0  0  1  0  0  0  0  0  0
  191.7540  175.9290  135.8770 C   0  0  0  0  0  2  0  0  0  0  0  0
  1 19  1  6  0  0  0
  1 22  1  0  0  0  0
  2  3  1  0  0  0  0
  3 16  2  0  0  0  0
  4 20  1  1  0  0  0
  4  5  1  0  0  0  0
  5 15  1  6  0  0  0
  5 23  1  0  0  0  0
  6 32  1  6  0  0  0
  6 19  1  0  0  0  0
  8 21  1  0  0  0  0
  9  2  2  0  0  0  0
  9 11  1  0  0  0  0
 10  7  1  6  0  0  0
 10 11  1  0  0  0  0
 10  1  1  0  0  0  0
 11 17  2  0  0  0  0
 12 18  1  1  0  0  0
 13  8  1  0  0  0  0
 14  7  1  1  0  0  0
 14 25  1  0  0  0  0
 14  6  1  0  0  0  0
 15 13  1  0  0  0  0
 17 16  1  0  0  0  0
 17 12  1  0  0  0  0
 18 23  1  0  0  0  0
 22 12  1  0  0  0  0
 22  4  1  0  0  0  0
 23  8  1  0  0  0  0
 24 26  1  0  0  0  0
 24 25  1  0  0  0  0
 26 25  1  0  0  0  0
 26 27  1  0  0  0  0
 28 27  1  0  0  0  0
 29 28  2  0  0  0  0
 30 28  1  0  0  0  0
 31 32  1  0  0  0  0
M  END
>  <MODEL>
3

>  <REMARK>
 VINA RESULT:      -6.7      1.186      1.400
  Name = 
  4 active torsions:
  status: ('A' for Active; 'I' for Inactive)
    1  A    between atoms: C_7  and  C_19
    2  A    between atoms: C_10  and  C_17
    3  A    between atoms: C_20  and  C_29
    4  A    between atoms: C_29  and  C_30
                            x       y       z     vdW  Elec       q    Type
                         _______ _______ _______ _____ _____    ______ ____

>  <TORSDO>
F 4

$$$$
=
 OpenBabel11122410493D

 32 37  0  0  1  0  0  0  0  0999 V2000
  185.4650  178.3360  140.2490 C   0  0  1  0  0  3  0  0  0  0  0  0
  180.8990  179.1110  141.8670 C   0  0  0  0  0  3  0  0  0  0  0  0
  181.3230  178.8220  143.1650 C   0  0  0  0  0  3  0  0  0  0  0  0
  187.4510  178.2400  141.8270 C   0  0  2  0  0  3  0  0  0  0  0  0
  187.7770  177.9110  143.2970 C   0  0  2  0  0  3  0  0  0  0  0  0
  185.7820  177.8050  138.0840 C   0  0  2  0  0  3  0  0  0  0  0  0
  183.6630  179.0040  138.6720 O   0  0  0  0  0  0  0  0  0  0  0  0
  186.9410  177.6410  145.4750 N   0  0  0  0  0  0  0  0  0  0  0  0
  181.8310  179.1990  140.8300 C   0  0  0  0  0  3  0  0  0  0  0  0
  184.2040  179.1530  139.9820 C   0  0  1  0  0  3  0  0  0  0  0  0
  183.1930  178.9870  141.0830 C   0  0  0  0  0  0  0  0  0  0  0  0
  185.0880  178.4290  142.7070 C   0  0  2  0  0  3  0  0  0  0  0  0
  186.8050  176.3820  144.8630 N   0  0  0  0  0  2  0  0  0  0  0  0
  184.2370  177.9220  137.9490 C   0  0  2  0  0  3  0  0  0  0  0  0
  187.5270  176.4500  143.5940 C   0  0  0  0  0  2  0  0  0  0  0  0
  182.6810  178.6290  143.4320 C   0  0  0  0  0  3  0  0  0  0  0  0
  183.6320  178.7390  142.4070 C   0  0  0  0  0  0  0  0  0  0  0  0
  185.5910  179.1390  143.9530 C   0  0  0  0  0  2  0  0  0  0  0  0
  186.3250  178.5360  139.1660 O   0  0  0  0  0  0  0  0  0  0  0  0
  188.4040  179.1270  141.3260 O   0  0  0  0  0  1  0  0  0  0  0  0
  185.8180  177.8290  146.3890 C   0  0  0  0  0  1  0  0  0  0  0  0
  186.0480  178.8040  141.5740 C   0  0  2  0  0  3  0  0  0  0  0  0
  186.9910  178.6300  144.3900 C   0  0  2  0  0  3  0  0  0  0  0  0
  182.5960  176.1970  137.2260 C   0  0  0  0  0  2  0  0  0  0  0  0
  183.5620  176.6080  138.3190 C   0  0  1  0  0  3  0  0  0  0  0  0
  183.9590  175.5440  137.3170 C   0  0  1  0  0  3  0  0  0  0  0  0
  183.8260  174.1810  137.9680 C   0  0  0  0  0  2  0  0  0  0  0  0
  184.7910  173.2300  137.3510 C   0  0  0  0  0  0  0  0  0  0  0  0
  184.5070  172.6610  136.2650 O   0  0  0  0  0  0  0  0  0  0  0  0
  186.0210  172.9980  137.9530 O   0  0  0  0  0  1  0  0  0  0  0  0
  187.5590  179.0260  137.0670 O   0  0  0  0  0  1  0  0  0  0  0  0
  186.4340  178.2500  136.7890 C   0  0  0  0  0  2  0  0  0  0  0  0
  1 19  1  6  0  0  0
  1 22  1  0  0  0  0
  2  3  1  0  0  0  0
  3 16  2  0  0  0  0
  4 20  1  1  0  0  0
  4  5  1  0  0  0  0
  5 15  1  6  0  0  0
  5 23  1  0  0  0  0
  6 32  1  6  0  0  0
  6 19  1  0  0  0  0
  8 21  1  0  0  0  0
  9 11  1  0  0  0  0
  9  2  2  0  0  0  0
 10  7  1  6  0  0  0
 10  1  1  0  0  0  0
 10 11  1  0  0  0  0
 11 17  2  0  0  0  0
 12 18  1  1  0  0  0
 13  8  1  0  0  0  0
 14  6  1  0  0  0  0
 14 25  1  0  0  0  0
 14  7  1  1  0  0  0
 15 13  1  0  0  0  0
 17 12  1  0  0  0  0
 17 16  1  0  0  0  0
 18 23  1  0  0  0  0
 22  4  1  0  0  0  0
 22 12  1  0  0  0  0
 23  8  1  0  0  0  0
 24 26  1  0  0  0  0
 24 25  1  0  0  0  0
 26 27  1  0  0  0  0
 26 25  1  0  0  0  0
 28 30  1  0  0  0  0
 28 27  1  0  0  0  0
 29 28  2  0  0  0  0
 32 31  1  0  0  0  0
M  END
>  <MODEL>
4

>  <REMARK>
 VINA RESULT:      -6.4      2.595      3.713
  Name = 
  4 active torsions:
  status: ('A' for Active; 'I' for Inactive)
    1  A    between atoms: C_7  and  C_19
    2  A    between atoms: C_10  and  C_17
    3  A    between atoms: C_20  and  C_29
    4  A    between atoms: C_29  and  C_30
                            x       y       z     vdW  Elec       q    Type
                         _______ _______ _______ _____ _____    ______ ____

>  <TORSDO>
F 4

$$$$
=
 OpenBabel11122410493D

 32 37  0  0  1  0  0  0  0  0999 V2000
  184.2800  177.2990  137.9580 C   0  0  1  0  0  3  0  0  0  0  0  0
  189.1470  177.6750  138.4410 C   0  0  0  0  0  3  0  0  0  0  0  0
  189.2840  176.3780  137.9450 C   0  0  0  0  0  3  0  0  0  0  0  0
  183.2060  175.4690  136.5660 C   0  0  2  0  0  3  0  0  0  0  0  0
  183.4960  174.0400  136.0670 C   0  0  2  0  0  3  0  0  0  0  0  0
  182.9530  178.6290  139.1990 C   0  0  2  0  0  3  0  0  0  0  0  0
  185.3060  179.3950  138.8140 O   0  0  0  0  0  0  0  0  0  0  0  0
  185.1270  172.3970  135.6740 N   0  0  0  0  0  0  0  0  0  0  0  0
  187.8940  178.2920  138.4490 C   0  0  0  0  0  3  0  0  0  0  0  0
  185.4310  178.3000  137.9120 C   0  0  1  0  0  3  0  0  0  0  0  0
  186.7670  177.6100  137.9710 C   0  0  0  0  0  0  0  0  0  0  0  0
  185.7010  175.5130  136.9680 C   0  0  2  0  0  3  0  0  0  0  0  0
  184.7320  172.2190  137.0120 N   0  0  0  0  0  2  0  0  0  0  0  0
  184.2740  179.2140  139.7760 C   0  0  2  0  0  3  0  0  0  0  0  0
  183.5580  173.0650  137.2200 C   0  0  0  0  0  2  0  0  0  0  0  0
  188.1710  175.6960  137.4470 C   0  0  0  0  0  3  0  0  0  0  0  0
  186.9100  176.3110  137.4250 C   0  0  0  0  0  0  0  0  0  0  0  0
  185.9430  174.7870  135.6550 C   0  0  0  0  0  2  0  0  0  0  0  0
  183.0920  178.0330  137.9240 O   0  0  0  0  0  0  0  0  0  0  0  0
  182.3250  176.0990  135.6870 O   0  0  0  0  0  1  0  0  0  0  0  0
  186.5490  172.0800  135.5710 C   0  0  0  0  0  1  0  0  0  0  0  0
  184.4390  176.3560  136.7750 C   0  0  2  0  0  3  0  0  0  0  0  0
  184.8050  173.7850  135.3230 C   0  0  2  0  0  3  0  0  0  0  0  0
  186.0170  179.0020  141.5380 C   0  0  0  0  0  2  0  0  0  0  0  0
  184.7690  178.3760  140.9470 C   0  0  1  0  0  3  0  0  0  0  0  0
  184.6780  179.1940  142.2180 C   0  0  1  0  0  3  0  0  0  0  0  0
  184.5710  178.2530  143.4020 C   0  0  0  0  0  2  0  0  0  0  0  0
  183.5270  178.7420  144.3440 C   0  0  0  0  0  0  0  0  0  0  0  0
  182.3410  178.8880  143.9480 O   0  0  0  0  0  0  0  0  0  0  0  0
  183.8520  179.0030  145.6690 O   0  0  0  0  0  1  0  0  0  0  0  0
  182.4850  180.9160  138.7180 O   0  0  0  0  0  1  0  0  0  0  0  0
  181.9030  179.7210  139.1410 C   0  0  0  0  0  2  0  0  0  0  0  0
  1 19  1  6  0  0  0
  2  9  1  0  0  0  0
  3  2  2  0  0  0  0
  4 20  1  6  0  0  0
  4 22  1  0  0  0  0
  5  4  1  0  0  0  0
  5 15  1  1  0  0  0
  6 32  1  6  0  0  0
  6 14  1  0  0  0  0
  8 13  1  0  0  0  0
 10  1  1  0  0  0  0
 10 11  1  1  0  0  0
 10  7  1  0  0  0  0
 11  9  2  0  0  0  0
 12 18  1  6  0  0  0
 12 17  1  0  0  0  0
 13 15  1  0  0  0  0
 14  7  1  6  0  0  0
 14 25  1  0  0  0  0
 16  3  1  0  0  0  0
 17 16  2  0  0  0  0
 17 11  1  0  0  0  0
 19  6  1  0  0  0  0
 21  8  1  0  0  0  0
 22 12  1  0  0  0  0
 22  1  1  0  0  0  0
 23 18  1  0  0  0  0
 23  8  1  0  0  0  0
 23  5  1  0  0  0  0
 24 26  1  0  0  0  0
 25 24  1  0  0  0  0
 25 26  1  0  0  0  0
 26 27  1  0  0  0  0
 27 28  1  0  0  0  0
 28 30  1  0  0  0  0
 29 28  2  0  0  0  0
 31 32  1  0  0  0  0
M  END
>  <MODEL>
5

>  <REMARK>
 VINA RESULT:      -6.4      4.031      7.914
  Name = 
  4 active torsions:
  status: ('A' for Active; 'I' for Inactive)
    1  A    between atoms: C_7  and  C_19
    2  A    between atoms: C_10  and  C_17
    3  A    between atoms: C_20  and  C_29
    4  A    between atoms: C_29  and  C_30
                            x       y       z     vdW  Elec       q    Type
                         _______ _______ _______ _____ _____    ______ ____

>  <TORSDO>
F 4

$$$$
=
 OpenBabel11122410493D

 32 37  0  0  1  0  0  0  0  0999 V2000
  186.6270  177.8690  139.3000 C   0  0  1  0  0  3  0  0  0  0  0  0
  182.9670  178.8870  142.4040 C   0  0  0  0  0  3  0  0  0  0  0  0
  183.8220  178.6280  143.4770 C   0  0  0  0  0  3  0  0  0  0  0  0
  189.0440  177.7500  140.0650 C   0  0  2  0  0  3  0  0  0  0  0  0
  189.8680  177.4610  141.3360 C   0  0  2  0  0  3  0  0  0  0  0  0
  186.1320  177.2480  137.1920 C   0  0  2  0  0  3  0  0  0  0  0  0
  184.3960  178.5530  138.4410 O   0  0  0  0  0  0  0  0  0  0  0  0
  189.8630  177.3050  143.6790 N   0  0  0  0  0  0  0  0  0  0  0  0
  183.4670  178.8990  141.0990 C   0  0  0  0  0  3  0  0  0  0  0  0
  185.3750  178.7270  139.4620 C   0  0  1  0  0  3  0  0  0  0  0  0
  184.8230  178.6410  140.8590 C   0  0  0  0  0  0  0  0  0  0  0  0
  187.1600  178.0670  141.7220 C   0  0  2  0  0  3  0  0  0  0  0  0
  189.4850  176.0310  143.2180 N   0  0  0  0  0  2  0  0  0  0  0  0
  184.6440  177.4220  137.6140 C   0  0  2  0  0  3  0  0  0  0  0  0
  189.7040  176.0240  141.7730 C   0  0  0  0  0  2  0  0  0  0  0  0
  185.1790  178.3900  143.2500 C   0  0  0  0  0  3  0  0  0  0  0  0
  185.7020  178.4240  141.9480 C   0  0  0  0  0  0  0  0  0  0  0  0
  188.0940  178.8000  142.6700 C   0  0  0  0  0  2  0  0  0  0  0  0
  187.0450  177.9950  137.9730 O   0  0  0  0  0  0  0  0  0  0  0  0
  189.7750  178.5790  139.2150 O   0  0  0  0  0  1  0  0  0  0  0  0
  189.1490  177.5710  144.9240 C   0  0  0  0  0  1  0  0  0  0  0  0
  187.6580  178.3610  140.3050 C   0  0  2  0  0  3  0  0  0  0  0  0
  189.5450  178.2500  142.6020 C   0  0  2  0  0  3  0  0  0  0  0  0
  182.8190  175.7330  137.6000 C   0  0  0  0  0  2  0  0  0  0  0  0
  184.1150  176.1510  138.2640 C   0  0  1  0  0  3  0  0  0  0  0  0
  184.1130  175.0330  137.2430 C   0  0  1  0  0  3  0  0  0  0  0  0
  184.1880  173.7040  137.9680 C   0  0  0  0  0  2  0  0  0  0  0  0
  185.2870  172.8770  137.3970 C   0  0  0  0  0  0  0  0  0  0  0  0
  186.4080  172.8390  137.9670 O   0  0  0  0  0  1  0  0  0  0  0  0
  185.0650  172.1200  136.2540 O   0  0  0  0  0  0  0  0  0  0  0  0
  187.2130  178.6530  135.5990 O   0  0  0  0  0  1  0  0  0  0  0  0
  186.2860  177.6180  135.7310 C   0  0  0  0  0  2  0  0  0  0  0  0
  1 19  1  6  0  0  0
  1 10  1  0  0  0  0
  1 22  1  0  0  0  0
  2  3  1  0  0  0  0
  4 20  1  6  0  0  0
  4 22  1  0  0  0  0
  4  5  1  0  0  0  0
  5 15  1  1  0  0  0
  5 23  1  0  0  0  0
  6 32  1  6  0  0  0
  6 14  1  0  0  0  0
  6 19  1  0  0  0  0
  8 21  1  0  0  0  0
  9  2  2  0  0  0  0
 10  7  1  6  0  0  0
 10 11  1  0  0  0  0
 11  9  1  0  0  0  0
 11 17  2  0  0  0  0
 12 17  1  0  0  0  0
 12 18  1  1  0  0  0
 13  8  1  0  0  0  0
 14 25  1  0  0  0  0
 14  7  1  1  0  0  0
 15 13  1  0  0  0  0
 16  3  2  0  0  0  0
 17 16  1  0  0  0  0
 22 12  1  0  0  0  0
 23 18  1  0  0  0  0
 23  8  1  0  0  0  0
 24 25  1  0  0  0  0
 26 24  1  0  0  0  0
 26 27  1  0  0  0  0
 26 25  1  0  0  0  0
 28 29  1  0  0  0  0
 28 27  1  0  0  0  0
 30 28  2  0  0  0  0
 31 32  1  0  0  0  0
M  END
>  <MODEL>
6

>  <REMARK>
 VINA RESULT:      -6.0      1.770      2.549
  Name = 
  4 active torsions:
  status: ('A' for Active; 'I' for Inactive)
    1  A    between atoms: C_7  and  C_19
    2  A    between atoms: C_10  and  C_17
    3  A    between atoms: C_20  and  C_29
    4  A    between atoms: C_29  and  C_30
                            x       y       z     vdW  Elec       q    Type
                         _______ _______ _______ _____ _____    ______ ____

>  <TORSDO>
F 4

$$$$
=
 OpenBabel11122410493D

 32 37  0  0  1  0  0  0  0  0999 V2000
  186.1010  177.5000  137.3290 C   0  0  1  0  0  3  0  0  0  0  0  0
  184.8420  178.8840  141.8640 C   0  0  0  0  0  3  0  0  0  0  0  0
  186.1470  178.6330  142.2890 C   0  0  0  0  0  3  0  0  0  0  0  0
  188.5260  177.2820  136.6160 C   0  0  2  0  0  3  0  0  0  0  0  0
  189.9170  177.0120  137.2240 C   0  0  2  0  0  3  0  0  0  0  0  0
  184.4940  176.8010  135.9140 C   0  0  2  0  0  3  0  0  0  0  0  0
  183.7870  178.2650  137.8190 O   0  0  0  0  0  0  0  0  0  0  0  0
  191.2290  176.9770  139.1710 N   0  0  0  0  0  0  0  0  0  0  0  0
  184.5210  178.8010  140.5070 C   0  0  0  0  0  3  0  0  0  0  0  0
  185.1730  178.4350  138.1000 C   0  0  1  0  0  3  0  0  0  0  0  0
  185.5010  178.4540  139.5680 C   0  0  0  0  0  0  0  0  0  0  0  0
  187.9080  177.7910  139.0140 C   0  0  2  0  0  3  0  0  0  0  0  0
  190.6340  175.7050  139.0980 N   0  0  0  0  0  2  0  0  0  0  0  0
  183.5050  177.0820  137.0820 C   0  0  2  0  0  3  0  0  0  0  0  0
  190.0020  175.6110  137.7840 C   0  0  0  0  0  2  0  0  0  0  0  0
  187.1370  178.3060  141.3590 C   0  0  0  0  0  3  0  0  0  0  0  0
  186.8370  178.2430  139.9900 C   0  0  0  0  0  0  0  0  0  0  0  0
  189.2270  178.5180  139.2180 C   0  0  0  0  0  2  0  0  0  0  0  0
  185.7020  177.5340  135.9900 O   0  0  0  0  0  0  0  0  0  0  0  0
  188.6670  178.0230  135.4430 O   0  0  0  0  0  1  0  0  0  0  0  0
  191.3440  177.3480  140.5780 C   0  0  0  0  0  1  0  0  0  0  0  0
  187.5270  177.9830  137.5440 C   0  0  2  0  0  3  0  0  0  0  0  0
  190.3770  177.8830  138.3900 C   0  0  2  0  0  3  0  0  0  0  0  0
  182.0260  175.2670  137.9220 C   0  0  0  0  0  2  0  0  0  0  0  0
  183.4100  175.8780  138.0100 C   0  0  1  0  0  3  0  0  0  0  0  0
  183.1840  174.6290  137.1840 C   0  0  1  0  0  3  0  0  0  0  0  0
  183.6820  173.4270  137.9630 C   0  0  0  0  0  2  0  0  0  0  0  0
  184.9350  172.9100  137.3460 C   0  0  0  0  0  0  0  0  0  0  0  0
  184.8870  172.2890  136.2520 O   0  0  0  0  0  0  0  0  0  0  0  0
  186.1590  173.1430  137.9580 O   0  0  0  0  0  1  0  0  0  0  0  0
  182.5110  177.5520  134.8250 O   0  0  0  0  0  1  0  0  0  0  0  0
  183.8060  177.0860  134.5940 C   0  0  0  0  0  2  0  0  0  0  0  0
  1 19  1  6  0  0  0
  1 22  1  0  0  0  0
  1 10  1  0  0  0  0
  2  3  1  0  0  0  0
  4 20  1  6  0  0  0
  4  5  1  0  0  0  0
  4 22  1  0  0  0  0
  5 15  1  1  0  0  0
  5 23  1  0  0  0  0
  6 32  1  6  0  0  0
  6 19  1  0  0  0  0
  6 14  1  0  0  0  0
  8 21  1  0  0  0  0
  9  2  2  0  0  0  0
 10  7  1  1  0  0  0
 10 11  1  0  0  0  0
 11 17  2  0  0  0  0
 11  9  1  0  0  0  0
 12 18  1  1  0  0  0
 12 17  1  0  0  0  0
 13  8  1  0  0  0  0
 14  7  1  1  0  0  0
 14 25  1  0  0  0  0
 15 13  1  0  0  0  0
 16  3  2  0  0  0  0
 17 16  1  0  0  0  0
 22 12  1  0  0  0  0
 23  8  1  0  0  0  0
 23 18  1  0  0  0  0
 24 25  1  0  0  0  0
 26 24  1  0  0  0  0
 26 27  1  0  0  0  0
 26 25  1  0  0  0  0
 28 30  1  0  0  0  0
 28 27  1  0  0  0  0
 29 28  2  0  0  0  0
 32 31  1  0  0  0  0
M  END
>  <MODEL>
7

>  <REMARK>
 VINA RESULT:      -6.0      2.499      4.004
  Name = 
  4 active torsions:
  status: ('A' for Active; 'I' for Inactive)
    1  A    between atoms: C_7  and  C_19
    2  A    between atoms: C_10  and  C_17
    3  A    between atoms: C_20  and  C_29
    4  A    between atoms: C_29  and  C_30
                            x       y       z     vdW  Elec       q    Type
                         _______ _______ _______ _____ _____    ______ ____

>  <TORSDO>
F 4

$$$$
=
 OpenBabel11122410493D

 32 37  0  0  1  0  0  0  0  0999 V2000
  187.5260  177.0470  138.7090 C   0  0  1  0  0  3  0  0  0  0  0  0
  192.4230  176.7690  138.7270 C   0  0  0  0  0  3  0  0  0  0  0  0
  192.3470  175.6020  137.9650 C   0  0  0  0  0  3  0  0  0  0  0  0
  186.1090  175.6910  137.0970 C   0  0  2  0  0  3  0  0  0  0  0  0
  186.1670  174.3800  136.2890 C   0  0  2  0  0  3  0  0  0  0  0  0
  186.4910  178.2170  140.3320 C   0  0  2  0  0  3  0  0  0  0  0  0
  188.8840  178.7830  139.8570 O   0  0  0  0  0  0  0  0  0  0  0  0
  187.5300  172.6900  135.3950 N   0  0  0  0  0  0  0  0  0  0  0  0
  191.2660  177.5040  138.9960 C   0  0  0  0  0  3  0  0  0  0  0  0
  188.7900  177.9010  138.7430 C   0  0  1  0  0  3  0  0  0  0  0  0
  190.0240  177.0700  138.5150 C   0  0  0  0  0  0  0  0  0  0  0  0
  188.6130  175.3700  137.2270 C   0  0  2  0  0  3  0  0  0  0  0  0
  187.2270  172.2730  136.7030 N   0  0  0  0  0  2  0  0  0  0  0  0
  187.9210  178.5140  140.8690 C   0  0  2  0  0  3  0  0  0  0  0  0
  186.1960  173.1780  137.2050 C   0  0  0  0  0  2  0  0  0  0  0  0
  191.1170  175.1710  137.4620 C   0  0  0  0  0  3  0  0  0  0  0  0
  189.9500  175.9120  137.7030 C   0  0  0  0  0  0  0  0  0  0  0  0
  188.6480  174.9230  135.7750 C   0  0  0  0  0  2  0  0  0  0  0  0
  186.4450  177.8990  138.9540 O   0  0  0  0  0  0  0  0  0  0  0  0
  185.2490  176.5890  136.4660 O   0  0  0  0  0  1  0  0  0  0  0  0
  188.8840  172.2480  135.0760 C   0  0  0  0  0  1  0  0  0  0  0  0
  187.4600  176.3700  137.3480 C   0  0  2  0  0  3  0  0  0  0  0  0
  187.3650  174.1480  135.3720 C   0  0  2  0  0  3  0  0  0  0  0  0
  189.7160  177.7760  142.4240 C   0  0  0  0  0  2  0  0  0  0  0  0
  188.3970  177.3930  141.7830 C   0  0  1  0  0  3  0  0  0  0  0  0
  188.4280  177.8960  143.2120 C   0  0  1  0  0  3  0  0  0  0  0  0
  188.2970  176.7130  144.1520 C   0  0  0  0  0  2  0  0  0  0  0  0
  188.6240  177.1340  145.5420 C   0  0  0  0  0  0  0  0  0  0  0  0
  189.8050  177.0410  145.9660 O   0  0  0  0  0  0  0  0  0  0  0  0
  187.6340  177.6640  146.3590 O   0  0  0  0  0  1  0  0  0  0  0  0
  184.8920  179.7520  139.4570 O   0  0  0  0  0  1  0  0  0  0  0  0
  185.5930  179.4050  140.6120 C   0  0  0  0  0  2  0  0  0  0  0  0
  1 10  1  0  0  0  0
  1 19  1  6  0  0  0
  2  9  1  0  0  0  0
  3  2  2  0  0  0  0
  4 20  1  6  0  0  0
  4 22  1  0  0  0  0
  5  4  1  0  0  0  0
  5 15  1  1  0  0  0
  6 32  1  6  0  0  0
  6 14  1  0  0  0  0
  8 13  1  0  0  0  0
 10 11  1  1  0  0  0
 10  7  1  0  0  0  0
 11  9  2  0  0  0  0
 12 18  1  6  0  0  0
 12 22  1  0  0  0  0
 12 17  1  0  0  0  0
 13 15  1  0  0  0  0
 14  7  1  6  0  0  0
 14 25  1  0  0  0  0
 16 17  2  0  0  0  0
 16  3  1  0  0  0  0
 17 11  1  0  0  0  0
 19  6  1  0  0  0  0
 21  8  1  0  0  0  0
 22  1  1  0  0  0  0
 23  8  1  0  0  0  0
 23 18  1  0  0  0  0
 23  5  1  0  0  0  0
 24 26  1  0  0  0  0
 25 24  1  0  0  0  0
 25 26  1  0  0  0  0
 26 27  1  0  0  0  0
 27 28  1  0  0  0  0
 28 29  2  0  0  0  0
 28 30  1  0  0  0  0
 31 32  1  0  0  0  0
M  END
>  <MODEL>
8

>  <REMARK>
 VINA RESULT:      -5.8      3.301      7.464
  Name = 
  4 active torsions:
  status: ('A' for Active; 'I' for Inactive)
    1  A    between atoms: C_7  and  C_19
    2  A    between atoms: C_10  and  C_17
    3  A    between atoms: C_20  and  C_29
    4  A    between atoms: C_29  and  C_30
                            x       y       z     vdW  Elec       q    Type
                         _______ _______ _______ _____ _____    ______ ____

>  <TORSDO>
F 4

$$$$
=
 OpenBabel11122410493D

 32 37  0  0  1  0  0  0  0  0999 V2000
  188.7850  176.4300  138.3850 C   0  0  1  0  0  3  0  0  0  0  0  0
  193.5520  175.8920  137.3630 C   0  0  0  0  0  3  0  0  0  0  0  0
  193.2550  174.7320  136.6460 C   0  0  0  0  0  3  0  0  0  0  0  0
  186.9880  175.1540  137.1260 C   0  0  2  0  0  3  0  0  0  0  0  0
  186.8040  173.8430  136.3360 C   0  0  2  0  0  3  0  0  0  0  0  0
  188.1820  177.6500  140.1790 C   0  0  2  0  0  3  0  0  0  0  0  0
  190.4460  178.0890  139.2010 O   0  0  0  0  0  0  0  0  0  0  0  0
  187.8550  172.0840  135.1890 N   0  0  0  0  0  0  0  0  0  0  0  0
  192.5190  176.6870  137.8660 C   0  0  0  0  0  3  0  0  0  0  0  0
  190.0700  177.2150  138.1410 C   0  0  1  0  0  3  0  0  0  0  0  0
  191.1820  176.3210  137.6640 C   0  0  0  0  0  0  0  0  0  0  0  0
  189.4420  174.7000  136.7220 C   0  0  2  0  0  3  0  0  0  0  0  0
  187.8170  171.6810  136.5360 N   0  0  0  0  0  2  0  0  0  0  0  0
  189.7070  177.8700  140.3970 C   0  0  2  0  0  3  0  0  0  0  0  0
  186.9640  172.6400  137.2370 C   0  0  0  0  0  2  0  0  0  0  0  0
  191.9250  174.3680  136.4220 C   0  0  0  0  0  3  0  0  0  0  0  0
  190.8760  175.1690  136.8970 C   0  0  0  0  0  0  0  0  0  0  0  0
  189.1440  174.2530  135.3010 C   0  0  0  0  0  2  0  0  0  0  0  0
  187.8280  177.3370  138.8460 O   0  0  0  0  0  0  0  0  0  0  0  0
  186.0620  176.0970  136.6830 O   0  0  0  0  0  1  0  0  0  0  0  0
  189.0850  171.5710  134.5940 C   0  0  0  0  0  1  0  0  0  0  0  0
  188.3960  175.7600  137.0760 C   0  0  2  0  0  3  0  0  0  0  0  0
  187.7650  173.5490  135.1870 C   0  0  2  0  0  3  0  0  0  0  0  0
  191.7240  177.0720  141.6130 C   0  0  0  0  0  2  0  0  0  0  0  0
  190.3080  176.7240  141.2000 C   0  0  1  0  0  3  0  0  0  0  0  0
  190.5920  177.2000  142.6100 C   0  0  1  0  0  3  0  0  0  0  0  0
  190.5970  176.0030  143.5410 C   0  0  0  0  0  2  0  0  0  0  0  0
  191.3640  176.3260  144.7750 C   0  0  0  0  0  0  0  0  0  0  0  0
  192.1600  175.4810  145.2610 O   0  0  0  0  0  0  0  0  0  0  0  0
  191.2290  177.5730  145.3710 O   0  0  0  0  0  1  0  0  0  0  0  0
  186.1320  178.8640  140.1160 O   0  0  0  0  0  1  0  0  0  0  0  0
  187.4270  178.8840  140.6330 C   0  0  0  0  0  2  0  0  0  0  0  0
  1 19  1  6  0  0  0
  2  9  1  0  0  0  0
  3  2  2  0  0  0  0
  4 20  1  6  0  0  0
  5  4  1  0  0  0  0
  5 15  1  1  0  0  0
  6 14  1  0  0  0  0
  6 32  1  6  0  0  0
  8 13  1  0  0  0  0
 10 11  1  1  0  0  0
 10  1  1  0  0  0  0
 10  7  1  0  0  0  0
 11  9  2  0  0  0  0
 12 18  1  6  0  0  0
 12 17  1  0  0  0  0
 12 22  1  0  0  0  0
 13 15  1  0  0  0  0
 14  7  1  6  0  0  0
 14 25  1  0  0  0  0
 16  3  1  0  0  0  0
 16 17  2  0  0  0  0
 17 11  1  0  0  0  0
 19  6  1  0  0  0  0
 21  8  1  0  0  0  0
 22  4  1  0  0  0  0
 22  1  1  0  0  0  0
 23  8  1  0  0  0  0
 23 18  1  0  0  0  0
 23  5  1  0  0  0  0
 24 26  1  0  0  0  0
 25 24  1  0  0  0  0
 25 26  1  0  0  0  0
 26 27  1  0  0  0  0
 27 28  1  0  0  0  0
 28 29  2  0  0  0  0
 28 30  1  0  0  0  0
 31 32  1  0  0  0  0
M  END
>  <MODEL>
9

>  <REMARK>
 VINA RESULT:      -5.8      3.255      7.783
  Name = 
  4 active torsions:
  status: ('A' for Active; 'I' for Inactive)
    1  A    between atoms: C_7  and  C_19
    2  A    between atoms: C_10  and  C_17
    3  A    between atoms: C_20  and  C_29
    4  A    between atoms: C_29  and  C_30
                            x       y       z     vdW  Elec       q    Type
                         _______ _______ _______ _____ _____    ______ ____

>  <TORSDO>
F 4

$$$$
