=
 OpenBabel11122412003D

 28 32  0  0  1  0  0  0  0  0999 V2000
  189.4420  177.9820  137.9600 C   0  0  0  0  0  0  0  0  0  0  0  0
  193.1880  176.2670  134.9980 O   0  0  0  0  0  0  0  0  0  0  0  0
  187.5790  173.3580  137.2910 C   0  0  0  0  0  1  0  0  0  0  0  0
  189.9010  176.7790  140.4490 C   0  0  0  0  0  3  0  0  0  0  0  0
  189.3420  173.3000  135.5750 C   0  0  0  0  0  0  0  0  0  0  0  0
  189.1040  178.6010  136.6360 C   0  0  0  0  0  2  0  0  0  0  0  0
  193.9270  177.0020  137.2220 O   0  0  0  0  0  0  0  0  0  0  0  0
  193.4100  175.8410  136.4220 S   0  0  0  0  0  0  0  0  0  0  0  0
  193.9110  173.2250  136.8790 C   0  0  2  0  0  3  0  0  0  0  0  0
  191.9250  175.2550  137.1250 N   0  0  2  0  0  0  0  0  0  0  0  0
  185.5540  177.1240  136.2230 C   0  0  0  0  0  1  0  0  0  0  0  0
  189.9270  175.5860  135.7600 C   0  0  1  0  0  3  0  0  0  0  0  0
  192.6340  173.0330  136.0710 C   0  0  0  0  0  2  0  0  0  0  0  0
  194.5980  174.5150  136.4590 C   0  0  0  0  0  2  0  0  0  0  0  0
  187.0530  177.0970  136.4380 C   0  0  1  0  0  3  0  0  0  0  0  0
  190.2290  176.8120  138.0370 C   0  0  0  0  0  0  0  0  0  0  0  0
  188.0790  173.9550  135.9900 C   0  0  2  0  0  3  0  0  0  0  0  0
  194.8450  172.0600  136.6330 C   0  0  0  0  0  1  0  0  0  0  0  0
  187.6430  176.2560  135.4890 O   0  0  0  0  0  0  0  0  0  0  0  0
  190.4390  176.2160  139.2910 C   0  0  0  0  0  3  0  0  0  0  0  0
  188.9130  178.5450  139.1300 C   0  0  0  0  0  3  0  0  0  0  0  0
  189.1440  177.9480  140.3690 C   0  0  0  0  0  3  0  0  0  0  0  0
  187.6060  178.5160  136.3270 C   0  0  0  0  0  2  0  0  0  0  0  0
  190.4980  174.2200  135.4540 C   0  0  1  0  0  3  0  0  0  0  0  0
  188.4730  175.4040  136.2250 C   0  0  2  0  0  3  0  0  0  0  0  0
  191.5060  173.9620  136.5530 C   0  0  2  0  0  3  0  0  0  0  0  0
  189.4150  172.1110  135.3050 O   0  0  0  0  0  0  0  0  0  0  0  0
  190.8700  176.2160  136.7960 C   0  0  1  0  0  3  0  0  0  0  0  0
  1 16  2  0  0  0  0
  1 21  1  0  0  0  0
  2  8  2  0  0  0  0
  5 17  1  0  0  0  0
  6  1  1  0  0  0  0
  8 14  1  0  0  0  0
  8  7  2  0  0  0  0
  9 18  1  6  0  0  0
 10  8  1  6  0  0  0
 11 15  1  0  0  0  0
 12 25  1  0  0  0  0
 12 28  1  0  0  0  0
 13 26  1  0  0  0  0
 13  9  1  0  0  0  0
 14  9  1  0  0  0  0
 16 20  1  0  0  0  0
 17 25  1  0  0  0  0
 17  3  1  0  0  0  0
 19 25  1  0  0  0  0
 19 15  1  0  0  0  0
 20  4  2  0  0  0  0
 21 22  2  0  0  0  0
 22  4  1  0  0  0  0
 23 15  1  0  0  0  0
 23  6  1  0  0  0  0
 24  5  1  0  0  0  0
 24 12  1  0  0  0  0
 24 26  1  0  0  0  0
 26 10  1  0  0  0  0
 27  5  2  0  0  0  0
 28 10  1  0  0  0  0
 28 16  1  0  0  0  0
M  END
>  <MODEL>
1

>  <REMARK>
 VINA RESULT:      -6.4      0.000      0.000
  Name = 
  0 active torsions:
  status: ('A' for Active; 'I' for Inactive)
                            x       y       z     vdW  Elec       q    Type
                         _______ _______ _______ _____ _____    ______ ____

>  <TORSDO>
F 0

$$$$
=
 OpenBabel11122412003D

 28 32  0  0  1  0  0  0  0  0999 V2000
  179.4010  176.9190  138.2790 C   0  0  0  0  0  0  0  0  0  0  0  0
  180.1500  180.3880  141.9050 O   0  0  0  0  0  0  0  0  0  0  0  0
  184.4090  177.1320  137.8500 C   0  0  0  0  0  1  0  0  0  0  0  0
  180.2120  174.4990  139.4360 C   0  0  0  0  0  3  0  0  0  0  0  0
  184.0730  179.1070  139.2810 C   0  0  0  0  0  0  0  0  0  0  0  0
  179.0180  178.1900  137.5800 C   0  0  0  0  0  2  0  0  0  0  0  0
  179.0540  178.3360  142.6940 O   0  0  0  0  0  0  0  0  0  0  0  0
  180.3760  179.0050  142.4490 S   0  0  0  0  0  0  0  0  0  0  0  0
  182.6780  178.5520  143.7890 C   0  0  2  0  0  3  0  0  0  0  0  0
  181.3200  178.0550  141.3330 N   0  0  2  0  0  0  0  0  0  0  0  0
  181.5160  177.9800  134.6350 C   0  0  0  0  0  1  0  0  0  0  0  0
  181.7110  179.0900  139.1550 C   0  0  1  0  0  3  0  0  0  0  0  0
  183.3060  179.1370  142.5310 C   0  0  0  0  0  2  0  0  0  0  0  0
  181.2790  179.1170  143.9790 C   0  0  0  0  0  2  0  0  0  0  0  0
  181.0770  178.0090  136.0850 C   0  0  1  0  0  3  0  0  0  0  0  0
  180.2740  176.9320  139.3890 C   0  0  0  0  0  0  0  0  0  0  0  0
  183.7940  178.5160  137.9510 C   0  0  2  0  0  3  0  0  0  0  0  0
  183.5270  178.9070  144.9900 C   0  0  0  0  0  1  0  0  0  0  0  0
  181.7760  179.0130  136.7620 O   0  0  0  0  0  0  0  0  0  0  0  0
  180.6780  175.7100  139.9500 C   0  0  0  0  0  3  0  0  0  0  0  0
  178.9310  175.6980  137.7750 C   0  0  0  0  0  3  0  0  0  0  0  0
  179.3320  174.4930  138.3540 C   0  0  0  0  0  3  0  0  0  0  0  0
  179.5710  178.2530  136.1530 C   0  0  0  0  0  2  0  0  0  0  0  0
  182.8630  179.4410  140.0680 C   0  0  1  0  0  3  0  0  0  0  0  0
  182.2800  178.3930  137.9100 C   0  0  2  0  0  3  0  0  0  0  0  0
  182.7210  178.5100  141.2530 C   0  0  2  0  0  3  0  0  0  0  0  0
  185.2040  179.3470  139.6750 O   0  0  0  0  0  0  0  0  0  0  0  0
  180.7480  178.2400  139.9980 C   0  0  1  0  0  3  0  0  0  0  0  0
  1 16  1  0  0  0  0
  2  8  2  0  0  0  0
  3 17  1  0  0  0  0
  4 20  1  0  0  0  0
  5 27  2  0  0  0  0
  5 24  1  0  0  0  0
  6  1  1  0  0  0  0
  8  7  2  0  0  0  0
  8 14  1  0  0  0  0
  9 14  1  0  0  0  0
  9 18  1  1  0  0  0
 10  8  1  1  0  0  0
 11 15  1  0  0  0  0
 12 28  1  0  0  0  0
 12 24  1  0  0  0  0
 13  9  1  0  0  0  0
 15 23  1  0  0  0  0
 15 19  1  0  0  0  0
 16 20  2  0  0  0  0
 16 28  1  0  0  0  0
 17  5  1  0  0  0  0
 19 25  1  0  0  0  0
 21  1  2  0  0  0  0
 21 22  1  0  0  0  0
 22  4  2  0  0  0  0
 23  6  1  0  0  0  0
 24 26  1  0  0  0  0
 25 17  1  0  0  0  0
 25 12  1  0  0  0  0
 26 10  1  0  0  0  0
 26 13  1  0  0  0  0
 28 10  1  0  0  0  0
M  END
>  <MODEL>
2

>  <REMARK>
 VINA RESULT:      -6.1      7.690     10.881
  Name = 
  0 active torsions:
  status: ('A' for Active; 'I' for Inactive)
                            x       y       z     vdW  Elec       q    Type
                         _______ _______ _______ _____ _____    ______ ____

>  <TORSDO>
F 0

$$$$
=
 OpenBabel11122412003D

 28 32  0  0  1  0  0  0  0  0999 V2000
  183.1870  177.4600  136.4760 C   0  0  0  0  0  0  0  0  0  0  0  0
  188.0340  177.9680  135.0640 O   0  0  0  0  0  0  0  0  0  0  0  0
  184.6700  172.8460  137.8260 C   0  0  0  0  0  1  0  0  0  0  0  0
  183.2420  177.6360  139.2720 C   0  0  0  0  0  3  0  0  0  0  0  0
  186.6540  173.5110  136.5310 C   0  0  0  0  0  0  0  0  0  0  0  0
  183.1000  177.2880  134.9880 C   0  0  0  0  0  2  0  0  0  0  0  0
  187.3100  179.5900  136.7610 O   0  0  0  0  0  0  0  0  0  0  0  0
  187.8890  178.2210  136.5390 S   0  0  0  0  0  0  0  0  0  0  0  0
  189.5480  176.8880  138.2040 C   0  0  2  0  0  3  0  0  0  0  0  0
  186.8580  177.0200  137.2680 N   0  0  2  0  0  0  0  0  0  0  0  0
  181.4820  173.7760  134.9270 C   0  0  0  0  0  1  0  0  0  0  0  0
  185.7310  175.5240  135.7000 C   0  0  1  0  0  3  0  0  0  0  0  0
  189.0290  175.6740  137.4450 C   0  0  0  0  0  2  0  0  0  0  0  0
  189.4900  178.1190  137.3120 C   0  0  0  0  0  2  0  0  0  0  0  0
  182.5150  174.8230  135.2890 C   0  0  1  0  0  3  0  0  0  0  0  0
  184.3910  177.2050  137.1690 C   0  0  0  0  0  0  0  0  0  0  0  0
  185.2010  173.2290  136.4580 C   0  0  2  0  0  3  0  0  0  0  0  0
  190.9800  176.6460  138.6260 C   0  0  0  0  0  1  0  0  0  0  0  0
  183.7840  174.3770  134.9060 O   0  0  0  0  0  0  0  0  0  0  0  0
  184.3980  177.2870  138.5710 C   0  0  0  0  0  3  0  0  0  0  0  0
  182.0340  177.8180  137.1880 C   0  0  0  0  0  3  0  0  0  0  0  0
  182.0620  177.9080  138.5800 C   0  0  0  0  0  3  0  0  0  0  0  0
  182.1680  176.1380  134.5940 C   0  0  0  0  0  2  0  0  0  0  0  0
  187.0330  174.8840  136.1230 C   0  0  1  0  0  3  0  0  0  0  0  0
  184.5870  174.5540  136.0370 C   0  0  2  0  0  3  0  0  0  0  0  0
  187.4950  175.6900  137.3180 C   0  0  2  0  0  3  0  0  0  0  0  0
  187.4780  172.6670  136.8510 O   0  0  0  0  0  0  0  0  0  0  0  0
  185.6720  176.8790  136.4210 C   0  0  1  0  0  3  0  0  0  0  0  0
  1 16  2  0  0  0  0
  1 21  1  0  0  0  0
  2  8  2  0  0  0  0
  5 27  2  0  0  0  0
  6  1  1  0  0  0  0
  8  7  2  0  0  0  0
  8 14  1  0  0  0  0
  9 18  1  6  0  0  0
 10  8  1  6  0  0  0
 10 26  1  0  0  0  0
 11 15  1  0  0  0  0
 12 25  1  0  0  0  0
 12 24  1  0  0  0  0
 12 28  1  0  0  0  0
 13  9  1  0  0  0  0
 14  9  1  0  0  0  0
 16 20  1  0  0  0  0
 17  5  1  0  0  0  0
 17  3  1  0  0  0  0
 19 15  1  0  0  0  0
 19 25  1  0  0  0  0
 20  4  2  0  0  0  0
 21 22  2  0  0  0  0
 22  4  1  0  0  0  0
 23  6  1  0  0  0  0
 23 15  1  0  0  0  0
 24  5  1  0  0  0  0
 24 26  1  0  0  0  0
 25 17  1  0  0  0  0
 26 13  1  0  0  0  0
 28 16  1  0  0  0  0
 28 10  1  0  0  0  0
M  END
>  <MODEL>
3

>  <REMARK>
 VINA RESULT:      -5.4      3.351      5.436
  Name = 
  0 active torsions:
  status: ('A' for Active; 'I' for Inactive)
                            x       y       z     vdW  Elec       q    Type
                         _______ _______ _______ _____ _____    ______ ____

>  <TORSDO>
F 0

$$$$
=
 OpenBabel11122412003D

 28 32  0  0  1  0  0  0  0  0999 V2000
  189.3490  174.3930  135.4440 C   0  0  0  0  0  0  0  0  0  0  0  0
  185.9820  178.1340  134.8030 O   0  0  0  0  0  0  0  0  0  0  0  0
  189.9550  176.4980  139.9730 C   0  0  0  0  0  1  0  0  0  0  0  0
  188.0650  172.5660  137.1370 C   0  0  0  0  0  3  0  0  0  0  0  0
  188.6450  178.2860  138.9030 C   0  0  0  0  0  0  0  0  0  0  0  0
  190.1160  175.3620  134.5940 C   0  0  0  0  0  2  0  0  0  0  0  0
  185.0270  175.8810  134.5950 O   0  0  0  0  0  0  0  0  0  0  0  0
  185.3570  176.9900  135.5520 S   0  0  0  0  0  0  0  0  0  0  0  0
  184.0670  177.5630  137.8560 C   0  0  2  0  0  3  0  0  0  0  0  0
  186.4400  176.4020  136.7850 N   0  0  2  0  0  0  0  0  0  0  0  0
  193.1220  175.9240  136.9620 C   0  0  0  0  0  1  0  0  0  0  0  0
  188.6920  177.3470  136.7320 C   0  0  1  0  0  3  0  0  0  0  0  0
  185.3800  178.2520  138.2010 C   0  0  0  0  0  2  0  0  0  0  0  0
  183.8680  177.5540  136.3480 C   0  0  0  0  0  2  0  0  0  0  0  0
  191.6630  175.8850  136.5540 C   0  0  1  0  0  3  0  0  0  0  0  0
  188.2710  174.8230  136.2480 C   0  0  0  0  0  0  0  0  0  0  0  0
  189.9240  177.5390  138.8690 C   0  0  2  0  0  3  0  0  0  0  0  0
  182.9200  178.3050  138.5060 C   0  0  0  0  0  1  0  0  0  0  0  0
  191.0760  177.1270  136.8100 O   0  0  0  0  0  0  0  0  0  0  0  0
  187.6460  173.8970  137.0990 C   0  0  0  0  0  3  0  0  0  0  0  0
  189.7570  173.0520  135.4830 C   0  0  0  0  0  3  0  0  0  0  0  0
  189.1150  172.1420  136.3240 C   0  0  0  0  0  3  0  0  0  0  0  0
  191.5620  175.5300  135.0710 C   0  0  0  0  0  2  0  0  0  0  0  0
  187.8420  178.1820  137.6620 C   0  0  1  0  0  3  0  0  0  0  0  0
  189.9070  176.8360  137.5220 C   0  0  2  0  0  3  0  0  0  0  0  0
  186.5950  177.3570  137.8990 C   0  0  2  0  0  3  0  0  0  0  0  0
  188.3040  178.9740  139.8540 O   0  0  0  0  0  0  0  0  0  0  0  0
  187.7650  176.2540  136.1800 C   0  0  1  0  0  3  0  0  0  0  0  0
  1 21  2  0  0  0  0
  1 16  1  0  0  0  0
  2  8  2  0  0  0  0
  5 27  2  0  0  0  0
  6 23  1  0  0  0  0
  6  1  1  0  0  0  0
  7  8  2  0  0  0  0
  8 14  1  0  0  0  0
  9 13  1  0  0  0  0
  9 18  1  1  0  0  0
 10  8  1  6  0  0  0
 10 26  1  0  0  0  0
 12 25  1  0  0  0  0
 12 24  1  0  0  0  0
 14  9  1  0  0  0  0
 15 19  1  0  0  0  0
 15 11  1  0  0  0  0
 16 20  2  0  0  0  0
 17  5  1  0  0  0  0
 17  3  1  0  0  0  0
 19 25  1  0  0  0  0
 20  4  1  0  0  0  0
 21 22  1  0  0  0  0
 22  4  2  0  0  0  0
 23 15  1  0  0  0  0
 24 26  1  0  0  0  0
 24  5  1  0  0  0  0
 25 17  1  0  0  0  0
 26 13  1  0  0  0  0
 28 16  1  0  0  0  0
 28 12  1  0  0  0  0
 28 10  1  0  0  0  0
M  END
>  <MODEL>
4

>  <REMARK>
 VINA RESULT:      -4.9      2.761      6.822
  Name = 
  0 active torsions:
  status: ('A' for Active; 'I' for Inactive)
                            x       y       z     vdW  Elec       q    Type
                         _______ _______ _______ _____ _____    ______ ____

>  <TORSDO>
F 0

$$$$
=
 OpenBabel11122412003D

 28 32  0  0  1  0  0  0  0  0999 V2000
  180.3540  175.5580  137.4610 C   0  0  0  0  0  0  0  0  0  0  0  0
  185.2860  174.3740  137.5930 O   0  0  0  0  0  0  0  0  0  0  0  0
  182.0140  180.1370  138.7180 C   0  0  0  0  0  1  0  0  0  0  0  0
  180.0340  176.9930  135.0760 C   0  0  0  0  0  3  0  0  0  0  0  0
  184.0900  178.8700  139.1010 C   0  0  0  0  0  0  0  0  0  0  0  0
  180.4730  174.8570  138.7830 C   0  0  0  0  0  2  0  0  0  0  0  0
  184.2230  173.9900  135.4130 O   0  0  0  0  0  0  0  0  0  0  0  0
  184.9330  174.9970  136.2720 S   0  0  0  0  0  0  0  0  0  0  0  0
  186.4640  177.0500  135.4100 C   0  0  2  0  0  3  0  0  0  0  0  0
  183.9160  176.3940  136.5060 N   0  0  2  0  0  0  0  0  0  0  0  0
  179.1630  177.7090  141.0430 C   0  0  0  0  0  1  0  0  0  0  0  0
  183.1230  176.7330  138.7910 C   0  0  1  0  0  3  0  0  0  0  0  0
  186.1460  177.6190  136.7860 C   0  0  0  0  0  2  0  0  0  0  0  0
  186.4230  175.5300  135.4570 C   0  0  0  0  0  2  0  0  0  0  0  0
  180.0530  177.0570  140.0050 C   0  0  1  0  0  3  0  0  0  0  0  0
  181.4750  176.1680  136.8570 C   0  0  0  0  0  0  0  0  0  0  0  0
  182.6860  179.0510  139.5390 C   0  0  2  0  0  3  0  0  0  0  0  0
  187.8460  177.4980  134.9840 C   0  0  0  0  0  1  0  0  0  0  0  0
  181.3920  177.2170  140.3750 O   0  0  0  0  0  0  0  0  0  0  0  0
  181.2950  176.8930  135.6670 C   0  0  0  0  0  3  0  0  0  0  0  0
  179.0940  175.6570  136.8550 C   0  0  0  0  0  3  0  0  0  0  0  0
  178.9350  176.3690  135.6660 C   0  0  0  0  0  3  0  0  0  0  0  0
  179.6950  175.5770  139.8880 C   0  0  0  0  0  2  0  0  0  0  0  0
  184.4070  177.5090  138.6080 C   0  0  1  0  0  3  0  0  0  0  0  0
  182.0270  177.7160  139.2330 C   0  0  2  0  0  3  0  0  0  0  0  0
  184.6460  177.5240  137.1130 C   0  0  2  0  0  3  0  0  0  0  0  0
  184.9300  179.7530  139.1880 O   0  0  0  0  0  0  0  0  0  0  0  0
  182.8640  176.0230  137.4540 C   0  0  1  0  0  3  0  0  0  0  0  0
  1  6  1  0  0  0  0
  3 17  1  0  0  0  0
  4 22  2  0  0  0  0
  4 20  1  0  0  0  0
  5 27  2  0  0  0  0
  5 17  1  0  0  0  0
  6 23  1  0  0  0  0
  7  8  2  0  0  0  0
  8  2  2  0  0  0  0
  9 18  1  1  0  0  0
  9 14  1  0  0  0  0
  9 13  1  0  0  0  0
 10  8  1  1  0  0  0
 10 26  1  0  0  0  0
 10 28  1  0  0  0  0
 12 25  1  0  0  0  0
 13 26  1  0  0  0  0
 14  8  1  0  0  0  0
 15 19  1  0  0  0  0
 15 11  1  0  0  0  0
 16 28  1  0  0  0  0
 16  1  1  0  0  0  0
 20 16  2  0  0  0  0
 21  1  2  0  0  0  0
 22 21  1  0  0  0  0
 23 15  1  0  0  0  0
 24 12  1  0  0  0  0
 24  5  1  0  0  0  0
 25 17  1  0  0  0  0
 25 19  1  0  0  0  0
 26 24  1  0  0  0  0
 28 12  1  0  0  0  0
M  END
>  <MODEL>
5

>  <REMARK>
 VINA RESULT:      -4.9      5.363      8.877
  Name = 
  0 active torsions:
  status: ('A' for Active; 'I' for Inactive)
                            x       y       z     vdW  Elec       q    Type
                         _______ _______ _______ _____ _____    ______ ____

>  <TORSDO>
F 0

$$$$
=
 OpenBabel11122412003D

 28 32  0  0  1  0  0  0  0  0999 V2000
  180.1350  178.4100  140.2280 C   0  0  0  0  0  0  0  0  0  0  0  0
  183.4990  180.4180  143.4530 O   0  0  0  0  0  0  0  0  0  0  0  0
  184.2420  177.3040  137.5430 C   0  0  0  0  0  1  0  0  0  0  0  0
  180.3690  175.6420  140.5930 C   0  0  0  0  0  3  0  0  0  0  0  0
  185.2670  178.8330  139.1770 C   0  0  0  0  0  0  0  0  0  0  0  0
  180.0120  179.8770  139.9370 C   0  0  0  0  0  2  0  0  0  0  0  0
  182.1260  178.6280  144.4240 O   0  0  0  0  0  0  0  0  0  0  0  0
  183.3880  178.9350  143.6680 S   0  0  0  0  0  0  0  0  0  0  0  0
  185.6800  177.5060  143.7200 C   0  0  2  0  0  3  0  0  0  0  0  0
  183.3810  178.0930  142.1420 N   0  0  2  0  0  0  0  0  0  0  0  0
  180.8570  179.7680  136.1650 C   0  0  0  0  0  1  0  0  0  0  0  0
  183.2300  179.5200  140.1660 C   0  0  1  0  0  3  0  0  0  0  0  0
  185.9260  178.2040  142.3900 C   0  0  0  0  0  2  0  0  0  0  0  0
  184.7940  178.3710  144.6030 C   0  0  0  0  0  2  0  0  0  0  0  0
  181.0760  179.5290  137.6440 C   0  0  1  0  0  3  0  0  0  0  0  0
  181.3120  177.8770  140.7970 C   0  0  0  0  0  0  0  0  0  0  0  0
  184.2840  178.7250  138.0730 C   0  0  2  0  0  3  0  0  0  0  0  0
  187.0020  177.2700  144.4190 C   0  0  0  0  0  1  0  0  0  0  0  0
  182.3060  180.0740  138.0270 O   0  0  0  0  0  0  0  0  0  0  0  0
  181.4170  176.4870  140.9630 C   0  0  0  0  0  3  0  0  0  0  0  0
  179.0850  177.5550  139.8680 C   0  0  0  0  0  3  0  0  0  0  0  0
  179.2000  176.1770  140.0530 C   0  0  0  0  0  3  0  0  0  0  0  0
  179.9320  180.1620  138.4340 C   0  0  0  0  0  2  0  0  0  0  0  0
  184.6900  179.2720  140.4690 C   0  0  1  0  0  3  0  0  0  0  0  0
  182.9520  179.0520  138.7290 C   0  0  2  0  0  3  0  0  0  0  0  0
  184.6940  178.1370  141.4710 C   0  0  2  0  0  3  0  0  0  0  0  0
  186.4610  178.6280  139.0230 O   0  0  0  0  0  0  0  0  0  0  0  0
  182.4400  178.7840  141.2580 C   0  0  1  0  0  3  0  0  0  0  0  0
  1 16  1  0  0  0  0
  2  8  2  0  0  0  0
  3 17  1  0  0  0  0
  4 20  1  0  0  0  0
  5 24  1  0  0  0  0
  6  1  1  0  0  0  0
  8  7  2  0  0  0  0
  8 14  1  0  0  0  0
  9 18  1  1  0  0  0
  9 14  1  0  0  0  0
 10  8  1  1  0  0  0
 11 15  1  0  0  0  0
 12 24  1  0  0  0  0
 12 28  1  0  0  0  0
 13  9  1  0  0  0  0
 15 19  1  0  0  0  0
 15 23  1  0  0  0  0
 16 20  2  0  0  0  0
 16 28  1  0  0  0  0
 17 25  1  0  0  0  0
 17  5  1  0  0  0  0
 19 25  1  0  0  0  0
 21 22  1  0  0  0  0
 21  1  2  0  0  0  0
 22  4  2  0  0  0  0
 23  6  1  0  0  0  0
 24 26  1  0  0  0  0
 25 12  1  0  0  0  0
 26 10  1  0  0  0  0
 26 13  1  0  0  0  0
 27  5  2  0  0  0  0
 28 10  1  0  0  0  0
M  END
>  <MODEL>
6

>  <REMARK>
 VINA RESULT:      -4.8      7.177      9.727
  Name = 
  0 active torsions:
  status: ('A' for Active; 'I' for Inactive)
                            x       y       z     vdW  Elec       q    Type
                         _______ _______ _______ _____ _____    ______ ____

>  <TORSDO>
F 0

$$$$
=
 OpenBabel11122412003D

 28 32  0  0  1  0  0  0  0  0999 V2000
  186.0120  175.0060  135.6310 C   0  0  0  0  0  0  0  0  0  0  0  0
  181.6440  177.5110  136.2520 O   0  0  0  0  0  0  0  0  0  0  0  0
  187.3650  177.5080  139.7800 C   0  0  0  0  0  1  0  0  0  0  0  0
  185.9630  173.0020  137.5890 C   0  0  0  0  0  3  0  0  0  0  0  0
  185.3000  178.7420  139.2590 C   0  0  0  0  0  0  0  0  0  0  0  0
  186.1290  176.0990  134.6090 C   0  0  0  0  0  2  0  0  0  0  0  0
  181.4100  175.0670  136.2920 O   0  0  0  0  0  0  0  0  0  0  0  0
  181.6740  176.2880  137.1260 S   0  0  0  0  0  0  0  0  0  0  0  0
  181.0830  176.6080  139.7430 C   0  0  2  0  0  3  0  0  0  0  0  0
  183.2210  176.1390  137.9170 N   0  0  2  0  0  0  0  0  0  0  0  0
  189.4120  177.7000  135.8820 C   0  0  0  0  0  1  0  0  0  0  0  0
  184.9320  177.7100  137.1610 C   0  0  1  0  0  3  0  0  0  0  0  0
  182.1590  177.6820  139.6620 C   0  0  0  0  0  2  0  0  0  0  0  0
  180.4230  176.4340  138.3830 C   0  0  0  0  0  2  0  0  0  0  0  0
  187.9860  177.1970  135.9720 C   0  0  1  0  0  3  0  0  0  0  0  0
  185.1730  175.1490  136.7570 C   0  0  0  0  0  0  0  0  0  0  0  0
  186.6640  178.4120  138.7830 C   0  0  2  0  0  3  0  0  0  0  0  0
  180.0360  177.0160  140.7560 C   0  0  0  0  0  1  0  0  0  0  0  0
  187.1610  178.2210  136.4480 O   0  0  0  0  0  0  0  0  0  0  0  0
  185.1690  174.1400  137.7340 C   0  0  0  0  0  3  0  0  0  0  0  0
  186.8000  173.8560  135.4890 C   0  0  0  0  0  3  0  0  0  0  0  0
  186.7730  172.8560  136.4630 C   0  0  0  0  0  3  0  0  0  0  0  0
  187.5270  176.7260  134.5940 C   0  0  0  0  0  2  0  0  0  0  0  0
  184.2140  178.3150  138.3460 C   0  0  1  0  0  3  0  0  0  0  0  0
  186.4320  177.6440  137.4920 C   0  0  2  0  0  3  0  0  0  0  0  0
  183.4250  177.1730  138.9500 C   0  0  2  0  0  3  0  0  0  0  0  0
  185.0900  179.3610  140.2910 O   0  0  0  0  0  0  0  0  0  0  0  0
  184.2590  176.3530  136.9060 C   0  0  1  0  0  3  0  0  0  0  0  0
  1 16  1  0  0  0  0
  2  8  2  0  0  0  0
  4 20  1  0  0  0  0
  5 27  2  0  0  0  0
  6  1  1  0  0  0  0
  7  8  2  0  0  0  0
  8 14  1  0  0  0  0
  9 18  1  1  0  0  0
 10  8  1  6  0  0  0
 10 26  1  0  0  0  0
 11 15  1  0  0  0  0
 12 25  1  0  0  0  0
 12 24  1  0  0  0  0
 13  9  1  0  0  0  0
 14  9  1  0  0  0  0
 15 19  1  0  0  0  0
 16 28  1  0  0  0  0
 16 20  2  0  0  0  0
 17  5  1  0  0  0  0
 17  3  1  0  0  0  0
 19 25  1  0  0  0  0
 21  1  2  0  0  0  0
 21 22  1  0  0  0  0
 22  4  2  0  0  0  0
 23  6  1  0  0  0  0
 23 15  1  0  0  0  0
 24 26  1  0  0  0  0
 24  5  1  0  0  0  0
 25 17  1  0  0  0  0
 26 13  1  0  0  0  0
 28 12  1  0  0  0  0
 28 10  1  0  0  0  0
M  END
>  <MODEL>
7

>  <REMARK>
 VINA RESULT:      -4.7      4.729      8.480
  Name = 
  0 active torsions:
  status: ('A' for Active; 'I' for Inactive)
                            x       y       z     vdW  Elec       q    Type
                         _______ _______ _______ _____ _____    ______ ____

>  <TORSDO>
F 0

$$$$
=
 OpenBabel11122412003D

 28 32  0  0  1  0  0  0  0  0999 V2000
  182.1920  178.2760  137.5970 C   0  0  0  0  0  0  0  0  0  0  0  0
  186.5870  177.9180  135.0880 O   0  0  0  0  0  0  0  0  0  0  0  0
  182.2340  173.2600  137.2180 C   0  0  0  0  0  1  0  0  0  0  0  0
  182.8020  177.4770  140.2120 C   0  0  0  0  0  3  0  0  0  0  0  0
  184.0610  173.7670  135.6490 C   0  0  0  0  0  0  0  0  0  0  0  0
  181.7870  178.6470  136.2000 C   0  0  0  0  0  2  0  0  0  0  0  0
  186.7740  179.0030  137.2840 O   0  0  0  0  0  0  0  0  0  0  0  0
  186.8030  177.6880  136.5570 S   0  0  0  0  0  0  0  0  0  0  0  0
  188.1790  175.4800  137.2870 C   0  0  2  0  0  3  0  0  0  0  0  0
  185.5730  176.6320  137.1990 N   0  0  2  0  0  0  0  0  0  0  0  0
  179.0890  175.9280  135.6640 C   0  0  0  0  0  1  0  0  0  0  0  0
  183.7440  176.1120  135.6670 C   0  0  1  0  0  3  0  0  0  0  0  0
  187.1520  174.7790  136.4090 C   0  0  0  0  0  2  0  0  0  0  0  0
  188.3840  176.9070  136.8030 C   0  0  0  0  0  2  0  0  0  0  0  0
  180.4630  176.4760  135.9900 C   0  0  1  0  0  3  0  0  0  0  0  0
  183.3400  177.4910  137.8380 C   0  0  0  0  0  0  0  0  0  0  0  0
  182.6110  173.9260  135.9080 C   0  0  2  0  0  3  0  0  0  0  0  0
  189.4960  174.7360  137.2180 C   0  0  0  0  0  1  0  0  0  0  0  0
  181.4140  175.8640  135.1680 O   0  0  0  0  0  0  0  0  0  0  0  0
  183.6250  177.0900  139.1540 C   0  0  0  0  0  3  0  0  0  0  0  0
  181.3760  178.6670  138.6670 C   0  0  0  0  0  3  0  0  0  0  0  0
  181.6820  178.2720  139.9700 C   0  0  0  0  0  3  0  0  0  0  0  0
  180.4650  177.9900  135.7900 C   0  0  0  0  0  2  0  0  0  0  0  0
  184.8040  175.0440  135.5300 C   0  0  1  0  0  3  0  0  0  0  0  0
  182.4190  175.4280  136.0380 C   0  0  2  0  0  3  0  0  0  0  0  0
  185.7180  175.2440  136.7190 C   0  0  2  0  0  3  0  0  0  0  0  0
  184.5920  172.6780  135.4950 O   0  0  0  0  0  0  0  0  0  0  0  0
  184.2790  177.1080  136.7070 C   0  0  1  0  0  3  0  0  0  0  0  0
  1 16  2  0  0  0  0
  1 21  1  0  0  0  0
  2  8  2  0  0  0  0
  5 17  1  0  0  0  0
  6  1  1  0  0  0  0
  8 14  1  0  0  0  0
  8  7  2  0  0  0  0
  9 18  1  6  0  0  0
 10  8  1  6  0  0  0
 11 15  1  0  0  0  0
 12 25  1  0  0  0  0
 12 28  1  0  0  0  0
 13 26  1  0  0  0  0
 13  9  1  0  0  0  0
 14  9  1  0  0  0  0
 16 20  1  0  0  0  0
 17 25  1  0  0  0  0
 17  3  1  0  0  0  0
 19 15  1  0  0  0  0
 19 25  1  0  0  0  0
 20  4  2  0  0  0  0
 21 22  2  0  0  0  0
 22  4  1  0  0  0  0
 23 15  1  0  0  0  0
 23  6  1  0  0  0  0
 24  5  1  0  0  0  0
 24 12  1  0  0  0  0
 24 26  1  0  0  0  0
 26 10  1  0  0  0  0
 27  5  2  0  0  0  0
 28 10  1  0  0  0  0
 28 16  1  0  0  0  0
M  END
>  <MODEL>
8

>  <REMARK>
 VINA RESULT:      -4.4      4.179      6.504
  Name = 
  0 active torsions:
  status: ('A' for Active; 'I' for Inactive)
                            x       y       z     vdW  Elec       q    Type
                         _______ _______ _______ _____ _____    ______ ____

>  <TORSDO>
F 0

$$$$
=
 OpenBabel11122412003D

 28 32  0  0  1  0  0  0  0  0999 V2000
  185.4920  176.8840  135.7920 C   0  0  0  0  0  0  0  0  0  0  0  0
  183.9590  180.4930  139.0130 O   0  0  0  0  0  0  0  0  0  0  0  0
  189.0820  176.1480  139.2380 C   0  0  0  0  0  1  0  0  0  0  0  0
  184.6960  174.4810  136.9920 C   0  0  0  0  0  3  0  0  0  0  0  0
  188.1870  178.2780  140.0840 C   0  0  0  0  0  0  0  0  0  0  0  0
  186.0050  178.1310  135.1330 C   0  0  0  0  0  2  0  0  0  0  0  0
  182.2760  178.7590  138.5780 O   0  0  0  0  0  0  0  0  0  0  0  0
  183.4390  179.1510  139.4440 S   0  0  0  0  0  0  0  0  0  0  0  0
  183.8470  178.4200  142.0140 C   0  0  2  0  0  3  0  0  0  0  0  0
  184.6910  177.9430  139.3330 N   0  0  2  0  0  0  0  0  0  0  0  0
  189.7550  177.1920  135.0090 C   0  0  0  0  0  1  0  0  0  0  0  0
  186.7510  178.6770  138.2460 C   0  0  1  0  0  3  0  0  0  0  0  0
  185.2940  178.7590  141.6830 C   0  0  0  0  0  2  0  0  0  0  0  0
  182.9120  179.2440  141.1430 C   0  0  0  0  0  2  0  0  0  0  0  0
  188.4050  177.4380  135.6520 C   0  0  1  0  0  3  0  0  0  0  0  0
  185.2370  176.8460  137.1810 C   0  0  0  0  0  0  0  0  0  0  0  0
  188.8770  177.6220  138.9480 C   0  0  2  0  0  3  0  0  0  0  0  0
  183.5750  178.7300  143.4700 C   0  0  0  0  0  1  0  0  0  0  0  0
  188.5480  178.3600  136.6930 O   0  0  0  0  0  0  0  0  0  0  0  0
  184.8490  175.6310  137.7670 C   0  0  0  0  0  3  0  0  0  0  0  0
  185.3270  175.7270  135.0200 C   0  0  0  0  0  3  0  0  0  0  0  0
  184.9270  174.5300  135.6170 C   0  0  0  0  0  3  0  0  0  0  0  0
  187.4290  177.9550  134.5970 C   0  0  0  0  0  2  0  0  0  0  0  0
  186.8880  178.9000  139.7340 C   0  0  1  0  0  3  0  0  0  0  0  0
  187.9060  177.7720  137.7880 C   0  0  2  0  0  3  0  0  0  0  0  0
  185.7420  178.1280  140.3520 C   0  0  2  0  0  3  0  0  0  0  0  0
  188.6710  178.3470  141.2030 O   0  0  0  0  0  0  0  0  0  0  0  0
  185.3440  178.1000  138.0320 C   0  0  1  0  0  3  0  0  0  0  0  0
  1 16  1  0  0  0  0
  2  8  2  0  0  0  0
  4 20  1  0  0  0  0
  5 27  2  0  0  0  0
  6  1  1  0  0  0  0
  7  8  2  0  0  0  0
  8 14  1  0  0  0  0
  9 18  1  1  0  0  0
 10  8  1  1  0  0  0
 10 26  1  0  0  0  0
 11 15  1  0  0  0  0
 12 24  1  0  0  0  0
 13  9  1  0  0  0  0
 14  9  1  0  0  0  0
 15 19  1  0  0  0  0
 16 20  2  0  0  0  0
 16 28  1  0  0  0  0
 17  3  1  0  0  0  0
 17  5  1  0  0  0  0
 19 25  1  0  0  0  0
 21 22  1  0  0  0  0
 21  1  2  0  0  0  0
 22  4  2  0  0  0  0
 23  6  1  0  0  0  0
 23 15  1  0  0  0  0
 24  5  1  0  0  0  0
 24 26  1  0  0  0  0
 25 12  1  0  0  0  0
 25 17  1  0  0  0  0
 26 13  1  0  0  0  0
 28 12  1  0  0  0  0
 28 10  1  0  0  0  0
M  END
>  <MODEL>
9

>  <REMARK>
 VINA RESULT:      -3.9      4.376      7.838
  Name = 
  0 active torsions:
  status: ('A' for Active; 'I' for Inactive)
                            x       y       z     vdW  Elec       q    Type
                         _______ _______ _______ _____ _____    ______ ____

>  <TORSDO>
F 0

$$$$
