=
 OpenBabel11122410263D

 30 34  0  0  1  0  0  0  0  0999 V2000
  187.9530  177.5330  142.6770 N   0  0  0  0  0  0  0  0  0  0  0  0
  185.5000  177.9610  142.9990 C   0  0  0  0  0  0  0  0  0  0  0  0
  187.7380  178.7890  138.6340 C   0  0  0  0  0  2  0  0  0  0  0  0
  188.9870  177.1100  141.7070 C   0  0  2  0  0  3  0  0  0  0  0  0
  188.2410  177.4830  144.1140 C   0  0  0  0  0  2  0  0  0  0  0  0
  191.8970  178.2110  143.8080 O   0  0  0  0  0  1  0  0  0  0  0  0
  190.5820  178.1550  143.3360 C   0  0  2  0  0  3  0  0  0  0  0  0
  189.0770  178.3300  138.1950 C   0  0  0  0  0  0  0  0  0  0  0  0
  189.5290  178.2380  144.4630 C   0  0  2  0  0  3  0  0  0  0  0  0
  190.3680  176.9830  142.3670 C   0  0  1  0  0  3  0  0  0  0  0  0
  184.2890  178.4360  142.4880 C   0  0  0  0  0  3  0  0  0  0  0  0
  185.5130  177.4410  144.2870 O   0  0  0  0  0  1  0  0  0  0  0  0
  187.7490  178.5080  140.0580 N   0  0  0  0  0  0  0  0  0  0  0  0
  184.2140  178.9380  141.1910 C   0  0  0  0  0  3  0  0  0  0  0  0
  186.6690  177.9970  142.2000 C   0  0  0  0  0  0  0  0  0  0  0  0
  189.0680  178.1140  140.5430 C   0  0  2  0  0  3  0  0  0  0  0  0
  189.4800  178.4460  137.0480 O   0  0  0  0  0  0  0  0  0  0  0  0
  189.8780  177.7100  139.2900 C   0  0  1  0  0  3  0  0  0  0  0  0
  185.3540  178.9640  140.3890 C   0  0  0  0  0  3  0  0  0  0  0  0
  186.5790  178.4970  140.8860 C   0  0  0  0  0  0  0  0  0  0  0  0
  191.3100  175.8030  138.7570 O   0  0  0  0  0  0  0  0  0  0  0  0
  189.9880  176.2020  139.0100 C   0  0  0  0  0  3  0  0  0  0  0  0
  189.1430  175.8140  137.9630 O   0  0  0  0  0  0  0  0  0  0  0  0
  191.1840  174.7180  137.8940 C   0  0  0  0  0  2  0  0  0  0  0  0
  189.7440  174.6610  137.4690 C   0  0  0  0  0  2  0  0  0  0  0  0
  191.8610  175.5010  143.7220 C   0  0  0  0  0  1  0  0  0  0  0  0
  190.5110  175.6210  143.0430 C   0  0  0  0  0  2  0  0  0  0  0  0
  190.0650  177.7290  145.8010 C   0  0  0  0  0  2  0  0  0  0  0  0
  188.8010  178.0450  147.9290 C   0  0  0  0  0  1  0  0  0  0  0  0
  188.9450  177.1950  146.6800 C   0  0  0  0  0  2  0  0  0  0  0  0
  1  5  1  0  0  0  0
  2 12  1  0  0  0  0
  3 13  1  0  0  0  0
  4 10  1  0  0  0  0
  4  1  1  1  0  0  0
  5  9  1  0  0  0  0
  7  6  1  1  0  0  0
  7  9  1  0  0  0  0
  8  3  1  0  0  0  0
  8 18  1  0  0  0  0
  9 28  1  1  0  0  0
 10 27  1  1  0  0  0
 10  7  1  0  0  0  0
 11  2  1  0  0  0  0
 13 20  1  0  0  0  0
 14 11  2  0  0  0  0
 15  1  1  0  0  0  0
 15  2  2  0  0  0  0
 16 13  1  6  0  0  0
 16  4  1  0  0  0  0
 17  8  2  0  0  0  0
 18 22  1  6  0  0  0
 18 16  1  0  0  0  0
 19 20  2  0  0  0  0
 19 14  1  0  0  0  0
 20 15  1  0  0  0  0
 21 22  1  0  0  0  0
 23 22  1  0  0  0  0
 24 21  1  0  0  0  0
 25 24  1  0  0  0  0
 25 23  1  0  0  0  0
 27 26  1  0  0  0  0
 28 30  1  0  0  0  0
 30 29  1  0  0  0  0
M  END
>  <MODEL>
1

>  <REMARK>
 VINA RESULT:      -8.0      0.000      0.000
  Name = 
  4 active torsions:
  status: ('A' for Active; 'I' for Inactive)
    1  A    between atoms: C_9  and  C_22
    2  A    between atoms: C_11  and  C_28
    3  A    between atoms: C_12  and  C_27
    4  A    between atoms: C_28  and  C_30
                            x       y       z     vdW  Elec       q    Type
                         _______ _______ _______ _____ _____    ______ ____

>  <TORSDO>
F 4

$$$$
=
 OpenBabel11122410263D

 30 34  0  0  1  0  0  0  0  0999 V2000
  183.3670  176.9570  138.4060 N   0  0  0  0  0  0  0  0  0  0  0  0
  182.2980  174.7830  137.7460 C   0  0  0  0  0  0  0  0  0  0  0  0
  186.4450  176.4220  135.5410 C   0  0  0  0  0  2  0  0  0  0  0  0
  184.6540  177.6750  138.5480 C   0  0  2  0  0  3  0  0  0  0  0  0
  182.1790  177.4510  139.1090 C   0  0  0  0  0  2  0  0  0  0  0  0
  183.1040  181.0710  138.9510 O   0  0  0  0  0  1  0  0  0  0  0  0
  183.2120  179.7280  138.5780 C   0  0  2  0  0  3  0  0  0  0  0  0
  187.3480  177.5080  135.9900 C   0  0  0  0  0  0  0  0  0  0  0  0
  181.9100  178.9290  138.8030 C   0  0  2  0  0  3  0  0  0  0  0  0
  184.4620  179.0640  139.1750 C   0  0  1  0  0  3  0  0  0  0  0  0
  182.2680  173.6700  136.9010 C   0  0  0  0  0  3  0  0  0  0  0  0
  181.3490  174.8700  138.7560 O   0  0  0  0  0  1  0  0  0  0  0  0
  185.2840  176.5910  136.3950 N   0  0  0  0  0  0  0  0  0  0  0  0
  183.2170  173.5190  135.8930 C   0  0  0  0  0  3  0  0  0  0  0  0
  183.2930  175.7770  137.5740 C   0  0  0  0  0  0  0  0  0  0  0  0
  185.3340  177.8230  137.1760 C   0  0  2  0  0  3  0  0  0  0  0  0
  188.4290  177.7360  135.4700 O   0  0  0  0  0  0  0  0  0  0  0  0
  186.8080  178.2870  137.1420 C   0  0  1  0  0  3  0  0  0  0  0  0
  184.2110  174.4820  135.7240 C   0  0  0  0  0  3  0  0  0  0  0  0
  184.2540  175.6070  136.5580 C   0  0  0  0  0  0  0  0  0  0  0  0
  188.6450  178.9210  138.6250 O   0  0  0  0  0  0  0  0  0  0  0  0
  187.6520  177.9580  138.3850 C   0  0  0  0  0  3  0  0  0  0  0  0
  188.2130  176.6780  138.2940 O   0  0  0  0  0  0  0  0  0  0  0  0
  189.6740  178.2110  139.2370 C   0  0  0  0  0  2  0  0  0  0  0  0
  189.3300  176.7530  139.1200 C   0  0  0  0  0  2  0  0  0  0  0  0
  185.8010  179.0420  141.2890 C   0  0  0  0  0  1  0  0  0  0  0  0
  184.4070  178.9580  140.6970 C   0  0  0  0  0  2  0  0  0  0  0  0
  181.0440  179.5250  139.9130 C   0  0  0  0  0  2  0  0  0  0  0  0
  181.0670  179.0570  142.3630 C   0  0  0  0  0  1  0  0  0  0  0  0
  180.7410  178.4960  140.9920 C   0  0  0  0  0  2  0  0  0  0  0  0
  1  5  1  0  0  0  0
  2 12  1  0  0  0  0
  3  8  1  0  0  0  0
  3 13  1  0  0  0  0
  4  1  1  6  0  0  0
  4 10  1  0  0  0  0
  7  9  1  0  0  0  0
  7  6  1  1  0  0  0
  7 10  1  0  0  0  0
  8 18  1  0  0  0  0
  9  5  1  0  0  0  0
  9 28  1  1  0  0  0
 10 27  1  1  0  0  0
 11  2  2  0  0  0  0
 13 20  1  0  0  0  0
 14 11  1  0  0  0  0
 15  2  1  0  0  0  0
 15  1  1  0  0  0  0
 16 13  1  1  0  0  0
 16  4  1  0  0  0  0
 17  8  2  0  0  0  0
 18 16  1  0  0  0  0
 18 22  1  1  0  0  0
 19 14  2  0  0  0  0
 19 20  1  0  0  0  0
 20 15  2  0  0  0  0
 21 24  1  0  0  0  0
 22 21  1  0  0  0  0
 23 22  1  0  0  0  0
 23 25  1  0  0  0  0
 25 24  1  0  0  0  0
 27 26  1  0  0  0  0
 28 30  1  0  0  0  0
 30 29  1  0  0  0  0
M  END
>  <MODEL>
2

>  <REMARK>
 VINA RESULT:      -6.4      4.017      6.724
  Name = 
  4 active torsions:
  status: ('A' for Active; 'I' for Inactive)
    1  A    between atoms: C_9  and  C_22
    2  A    between atoms: C_11  and  C_28
    3  A    between atoms: C_12  and  C_27
    4  A    between atoms: C_28  and  C_30
                            x       y       z     vdW  Elec       q    Type
                         _______ _______ _______ _____ _____    ______ ____

>  <TORSDO>
F 4

$$$$
=
 OpenBabel11122410263D

 30 34  0  0  1  0  0  0  0  0999 V2000
  188.0240  177.2350  138.4950 N   0  0  0  0  0  0  0  0  0  0  0  0
  189.6090  177.1430  140.4410 C   0  0  0  0  0  0  0  0  0  0  0  0
  185.0740  179.1420  140.8690 C   0  0  0  0  0  2  0  0  0  0  0  0
  186.5990  177.1900  138.0970 C   0  0  2  0  0  3  0  0  0  0  0  0
  189.0660  176.9790  137.4970 C   0  0  0  0  0  2  0  0  0  0  0  0
  187.1900  178.4040  134.5940 O   0  0  0  0  0  1  0  0  0  0  0  0
  187.4310  178.1960  135.9540 C   0  0  2  0  0  3  0  0  0  0  0  0
  183.9330  179.0230  139.9310 C   0  0  0  0  0  0  0  0  0  0  0  0
  188.9110  177.8800  136.2670 C   0  0  2  0  0  3  0  0  0  0  0  0
  186.4370  177.2000  136.5690 C   0  0  1  0  0  3  0  0  0  0  0  0
  189.9000  177.4730  141.7680 C   0  0  0  0  0  3  0  0  0  0  0  0
  190.5460  176.4090  139.7240 O   0  0  0  0  0  1  0  0  0  0  0  0
  186.1850  178.6150  140.0980 N   0  0  0  0  0  0  0  0  0  0  0  0
  188.9800  178.1800  142.5400 C   0  0  0  0  0  3  0  0  0  0  0  0
  188.3750  177.5360  139.8660 C   0  0  0  0  0  0  0  0  0  0  0  0
  185.8410  178.3860  138.6990 C   0  0  2  0  0  3  0  0  0  0  0  0
  182.8080  179.4160  140.1940 O   0  0  0  0  0  0  0  0  0  0  0  0
  184.2960  178.3700  138.6390 C   0  0  1  0  0  3  0  0  0  0  0  0
  187.7560  178.5580  141.9900 C   0  0  0  0  0  3  0  0  0  0  0  0
  187.4490  178.2400  140.6610 C   0  0  0  0  0  0  0  0  0  0  0  0
  182.7660  176.8420  137.5000 O   0  0  0  0  0  0  0  0  0  0  0  0
  183.6320  176.9840  138.5960 C   0  0  0  0  0  3  0  0  0  0  0  0
  182.9670  176.7000  139.7960 O   0  0  0  0  0  0  0  0  0  0  0  0
  181.7930  175.9500  137.9440 C   0  0  0  0  0  2  0  0  0  0  0  0
  182.0010  175.7730  139.4210 C   0  0  0  0  0  2  0  0  0  0  0  0
  185.9450  174.7740  136.9330 C   0  0  0  0  0  1  0  0  0  0  0  0
  186.5900  175.7880  136.0090 C   0  0  0  0  0  2  0  0  0  0  0  0
  189.6340  177.2440  135.0800 C   0  0  0  0  0  2  0  0  0  0  0  0
  190.1120  174.8450  134.5940 C   0  0  0  0  0  1  0  0  0  0  0  0
  190.4240  176.0160  135.5060 C   0  0  0  0  0  2  0  0  0  0  0  0
  1 15  1  0  0  0  0
  2 11  1  0  0  0  0
  4  1  1  6  0  0  0
  4 16  1  0  0  0  0
  5  1  1  0  0  0  0
  7  6  1  6  0  0  0
  7  9  1  0  0  0  0
  7 10  1  0  0  0  0
  8 17  2  0  0  0  0
  8  3  1  0  0  0  0
  9 28  1  6  0  0  0
  9  5  1  0  0  0  0
 10 27  1  6  0  0  0
 10  4  1  0  0  0  0
 11 14  2  0  0  0  0
 12  2  1  0  0  0  0
 13 20  1  0  0  0  0
 13  3  1  0  0  0  0
 15  2  2  0  0  0  0
 15 20  1  0  0  0  0
 16 13  1  1  0  0  0
 18 22  1  1  0  0  0
 18 16  1  0  0  0  0
 18  8  1  0  0  0  0
 19 14  1  0  0  0  0
 20 19  2  0  0  0  0
 21 24  1  0  0  0  0
 21 22  1  0  0  0  0
 22 23  1  0  0  0  0
 24 25  1  0  0  0  0
 25 23  1  0  0  0  0
 27 26  1  0  0  0  0
 28 30  1  0  0  0  0
 29 30  1  0  0  0  0
M  END
>  <MODEL>
3

>  <REMARK>
 VINA RESULT:      -6.4      2.990      7.203
  Name = 
  4 active torsions:
  status: ('A' for Active; 'I' for Inactive)
    1  A    between atoms: C_9  and  C_22
    2  A    between atoms: C_11  and  C_28
    3  A    between atoms: C_12  and  C_27
    4  A    between atoms: C_28  and  C_30
                            x       y       z     vdW  Elec       q    Type
                         _______ _______ _______ _____ _____    ______ ____

>  <TORSDO>
F 4

$$$$
=
 OpenBabel11122410263D

 30 34  0  0  1  0  0  0  0  0999 V2000
  190.2120  176.2210  138.4200 N   0  0  0  0  0  0  0  0  0  0  0  0
  190.1430  177.3220  140.6760 C   0  0  0  0  0  0  0  0  0  0  0  0
  186.2330  177.4350  137.6030 C   0  0  0  0  0  2  0  0  0  0  0  0
  189.4090  175.5130  137.3990 C   0  0  2  0  0  3  0  0  0  0  0  0
  191.6730  176.1100  138.4010 C   0  0  0  0  0  2  0  0  0  0  0  0
  191.9930  175.7820  134.6890 O   0  0  0  0  0  1  0  0  0  0  0  0
  191.3120  176.0910  135.8700 C   0  0  2  0  0  3  0  0  0  0  0  0
  186.0030  176.6150  136.3900 C   0  0  0  0  0  0  0  0  0  0  0  0
  192.2540  176.4790  137.0310 C   0  0  2  0  0  3  0  0  0  0  0  0
  190.2810  175.0130  136.2370 C   0  0  1  0  0  3  0  0  0  0  0  0
  189.4580  178.1100  141.6050 C   0  0  0  0  0  3  0  0  0  0  0  0
  191.3970  176.8350  141.0220 O   0  0  0  0  0  1  0  0  0  0  0  0
  187.6290  177.1810  137.9070 N   0  0  0  0  0  0  0  0  0  0  0  0
  188.1840  178.5970  141.3200 C   0  0  0  0  0  3  0  0  0  0  0  0
  189.5470  177.0200  139.4270 C   0  0  0  0  0  0  0  0  0  0  0  0
  188.3090  176.4390  136.8500 C   0  0  2  0  0  3  0  0  0  0  0  0
  184.9420  176.5990  135.7860 O   0  0  0  0  0  0  0  0  0  0  0  0
  187.1920  175.8090  135.9870 C   0  0  1  0  0  3  0  0  0  0  0  0
  187.5810  178.2920  140.1010 C   0  0  0  0  0  3  0  0  0  0  0  0
  188.2540  177.5080  139.1550 C   0  0  0  0  0  0  0  0  0  0  0  0
  186.1800  173.7290  135.1960 O   0  0  0  0  0  0  0  0  0  0  0  0
  186.8820  174.3260  136.2550 C   0  0  0  0  0  3  0  0  0  0  0  0
  186.1950  174.1600  137.4640 O   0  0  0  0  0  0  0  0  0  0  0  0
  185.4080  172.7440  135.8070 C   0  0  0  0  0  2  0  0  0  0  0  0
  185.5150  172.9590  137.2890 C   0  0  0  0  0  2  0  0  0  0  0  0
  190.7520  172.6820  135.4600 C   0  0  0  0  0  1  0  0  0  0  0  0
  190.9240  173.6750  136.5930 C   0  0  0  0  0  2  0  0  0  0  0  0
  193.6430  175.8580  136.8870 C   0  0  0  0  0  2  0  0  0  0  0  0
  194.4750  173.6680  137.7450 C   0  0  0  0  0  1  0  0  0  0  0  0
  194.0270  175.0660  138.1280 C   0  0  0  0  0  2  0  0  0  0  0  0
  1 15  1  0  0  0  0
  2 12  1  0  0  0  0
  2 11  1  0  0  0  0
  3 13  1  0  0  0  0
  4  1  1  1  0  0  0
  5  1  1  0  0  0  0
  7  6  1  6  0  0  0
  7 10  1  0  0  0  0
  7  9  1  0  0  0  0
  8  3  1  0  0  0  0
  9 28  1  6  0  0  0
  9  5  1  0  0  0  0
 10 27  1  1  0  0  0
 10  4  1  0  0  0  0
 13 20  1  0  0  0  0
 14 11  2  0  0  0  0
 15  2  2  0  0  0  0
 16  4  1  0  0  0  0
 16 13  1  1  0  0  0
 17  8  2  0  0  0  0
 18 22  1  1  0  0  0
 18  8  1  0  0  0  0
 18 16  1  0  0  0  0
 19 14  1  0  0  0  0
 20 15  1  0  0  0  0
 20 19  2  0  0  0  0
 21 24  1  0  0  0  0
 21 22  1  0  0  0  0
 22 23  1  0  0  0  0
 24 25  1  0  0  0  0
 25 23  1  0  0  0  0
 26 27  1  0  0  0  0
 28 30  1  0  0  0  0
 29 30  1  0  0  0  0
M  END
>  <MODEL>
4

>  <REMARK>
 VINA RESULT:      -6.4      3.251      6.330
  Name = 
  4 active torsions:
  status: ('A' for Active; 'I' for Inactive)
    1  A    between atoms: C_9  and  C_22
    2  A    between atoms: C_11  and  C_28
    3  A    between atoms: C_12  and  C_27
    4  A    between atoms: C_28  and  C_30
                            x       y       z     vdW  Elec       q    Type
                         _______ _______ _______ _____ _____    ______ ____

>  <TORSDO>
F 4

$$$$
=
 OpenBabel11122410263D

 30 34  0  0  1  0  0  0  0  0999 V2000
  188.6780  176.9930  139.9590 N   0  0  0  0  0  0  0  0  0  0  0  0
  189.2780  176.7020  142.3790 C   0  0  0  0  0  0  0  0  0  0  0  0
  185.2750  179.3050  140.9840 C   0  0  0  0  0  2  0  0  0  0  0  0
  187.5570  177.1400  139.0030 C   0  0  2  0  0  3  0  0  0  0  0  0
  190.0000  176.5880  139.4720 C   0  0  0  0  0  2  0  0  0  0  0  0
  189.7070  178.2320  136.1250 O   0  0  0  0  0  1  0  0  0  0  0  0
  189.3290  178.0040  137.4520 C   0  0  2  0  0  3  0  0  0  0  0  0
  184.6260  179.3340  139.6520 C   0  0  0  0  0  0  0  0  0  0  0  0
  190.4890  177.4920  138.3340 C   0  0  2  0  0  3  0  0  0  0  0  0
  188.0510  177.1580  137.5490 C   0  0  1  0  0  3  0  0  0  0  0  0
  189.0280  177.0010  143.7220 C   0  0  0  0  0  3  0  0  0  0  0  0
  190.3270  175.8410  142.0820 O   0  0  0  0  0  1  0  0  0  0  0  0
  186.5300  178.6240  140.7200 N   0  0  0  0  0  0  0  0  0  0  0  0
  187.9680  177.8340  144.0760 C   0  0  0  0  0  3  0  0  0  0  0  0
  188.4590  177.2550  141.3650 C   0  0  0  0  0  0  0  0  0  0  0  0
  186.7760  178.4330  139.2940 C   0  0  2  0  0  3  0  0  0  0  0  0
  183.5540  179.8800  139.4440 O   0  0  0  0  0  0  0  0  0  0  0  0
  185.4090  178.6280  138.5970 C   0  0  1  0  0  3  0  0  0  0  0  0
  187.1450  178.3700  143.0880 C   0  0  0  0  0  3  0  0  0  0  0  0
  187.3840  178.0860  141.7370 C   0  0  0  0  0  0  0  0  0  0  0  0
  184.0710  177.4290  136.9400 O   0  0  0  0  0  0  0  0  0  0  0  0
  184.6530  177.3440  138.2150 C   0  0  0  0  0  3  0  0  0  0  0  0
  183.6930  177.0130  139.1790 O   0  0  0  0  0  0  0  0  0  0  0  0
  182.9430  176.6180  137.0210 C   0  0  0  0  0  2  0  0  0  0  0  0
  182.7670  176.2550  138.4690 C   0  0  0  0  0  2  0  0  0  0  0  0
  186.9690  174.9280  137.2040 C   0  0  0  0  0  1  0  0  0  0  0  0
  188.2430  175.7340  137.0340 C   0  0  0  0  0  2  0  0  0  0  0  0
  191.5540  176.7530  137.5250 C   0  0  0  0  0  2  0  0  0  0  0  0
  191.6840  174.3800  136.7640 C   0  0  0  0  0  1  0  0  0  0  0  0
  191.6810  175.3030  137.9680 C   0  0  0  0  0  2  0  0  0  0  0  0
  1 15  1  0  0  0  0
  2 11  1  0  0  0  0
  4 16  1  0  0  0  0
  4  1  1  1  0  0  0
  5  1  1  0  0  0  0
  7  6  1  6  0  0  0
  7 10  1  0  0  0  0
  7  9  1  0  0  0  0
  8  3  1  0  0  0  0
  9 28  1  6  0  0  0
  9  5  1  0  0  0  0
 10 27  1  1  0  0  0
 10  4  1  0  0  0  0
 11 14  2  0  0  0  0
 12  2  1  0  0  0  0
 13  3  1  0  0  0  0
 13 20  1  0  0  0  0
 15 20  1  0  0  0  0
 15  2  2  0  0  0  0
 16 13  1  1  0  0  0
 17  8  2  0  0  0  0
 18 22  1  1  0  0  0
 18 16  1  0  0  0  0
 18  8  1  0  0  0  0
 19 14  1  0  0  0  0
 20 19  2  0  0  0  0
 21 24  1  0  0  0  0
 21 22  1  0  0  0  0
 22 23  1  0  0  0  0
 24 25  1  0  0  0  0
 25 23  1  0  0  0  0
 27 26  1  0  0  0  0
 28 30  1  0  0  0  0
 29 30  1  0  0  0  0
M  END
>  <MODEL>
5

>  <REMARK>
 VINA RESULT:      -6.2      2.540      6.030
  Name = 
  4 active torsions:
  status: ('A' for Active; 'I' for Inactive)
    1  A    between atoms: C_9  and  C_22
    2  A    between atoms: C_11  and  C_28
    3  A    between atoms: C_12  and  C_27
    4  A    between atoms: C_28  and  C_30
                            x       y       z     vdW  Elec       q    Type
                         _______ _______ _______ _____ _____    ______ ____

>  <TORSDO>
F 4

$$$$
=
 OpenBabel11122410263D

 30 34  0  0  1  0  0  0  0  0999 V2000
  191.0300  176.4380  138.7990 N   0  0  0  0  0  0  0  0  0  0  0  0
  193.2460  175.6310  137.9370 C   0  0  0  0  0  0  0  0  0  0  0  0
  188.9600  173.7140  136.2970 C   0  0  0  0  0  2  0  0  0  0  0  0
  189.6130  176.6750  138.4470 C   0  0  2  0  0  3  0  0  0  0  0  0
  191.6080  177.0980  139.9740 C   0  0  0  0  0  2  0  0  0  0  0  0
  188.4570  177.1420  141.9880 O   0  0  0  0  0  1  0  0  0  0  0  0
  189.2680  176.7180  140.9310 C   0  0  2  0  0  3  0  0  0  0  0  0
  187.5910  174.2540  136.4760 C   0  0  0  0  0  0  0  0  0  0  0  0
  190.7770  176.8420  141.2370 C   0  0  2  0  0  3  0  0  0  0  0  0
  188.8480  177.3500  139.5960 C   0  0  1  0  0  3  0  0  0  0  0  0
  193.9710  174.7400  137.1400 C   0  0  0  0  0  3  0  0  0  0  0  0
  193.9470  176.5940  138.6520 O   0  0  0  0  0  1  0  0  0  0  0  0
  189.7480  174.5140  137.2150 N   0  0  0  0  0  0  0  0  0  0  0  0
  193.3140  173.7760  136.3780 C   0  0  0  0  0  3  0  0  0  0  0  0
  191.8330  175.5530  137.9840 C   0  0  0  0  0  0  0  0  0  0  0  0
  188.9250  175.3470  138.0860 C   0  0  2  0  0  3  0  0  0  0  0  0
  186.6130  173.8000  135.9040 O   0  0  0  0  0  0  0  0  0  0  0  0
  187.5310  175.4090  137.4190 C   0  0  1  0  0  3  0  0  0  0  0  0
  191.9230  173.6990  136.4030 C   0  0  0  0  0  3  0  0  0  0  0  0
  191.1800  174.5810  137.2000 C   0  0  0  0  0  0  0  0  0  0  0  0
  185.8580  176.7950  136.3000 O   0  0  0  0  0  0  0  0  0  0  0  0
  187.2230  176.6780  136.6070 C   0  0  0  0  0  3  0  0  0  0  0  0
  188.0010  176.7410  135.4450 O   0  0  0  0  0  0  0  0  0  0  0  0
  185.8340  177.4840  135.0900 C   0  0  0  0  0  2  0  0  0  0  0  0
  187.2510  177.5450  134.5940 C   0  0  0  0  0  2  0  0  0  0  0  0
  189.0510  179.3690  138.1330 C   0  0  0  0  0  1  0  0  0  0  0  0
  189.0620  178.8610  139.5610 C   0  0  0  0  0  2  0  0  0  0  0  0
  191.0760  177.9300  142.2670 C   0  0  0  0  0  2  0  0  0  0  0  0
  190.7540  177.7380  144.7340 C   0  0  0  0  0  1  0  0  0  0  0  0
  191.6230  177.3370  143.5570 C   0  0  0  0  0  2  0  0  0  0  0  0
  1  5  1  0  0  0  0
  2 15  1  0  0  0  0
  2 12  1  0  0  0  0
  3  8  1  0  0  0  0
  3 13  1  0  0  0  0
  4  1  1  1  0  0  0
  4 10  1  0  0  0  0
  5  9  1  0  0  0  0
  7  9  1  0  0  0  0
  7  6  1  1  0  0  0
  8 18  1  0  0  0  0
  9 28  1  1  0  0  0
 10 27  1  1  0  0  0
 10  7  1  0  0  0  0
 11  2  2  0  0  0  0
 14 19  2  0  0  0  0
 14 11  1  0  0  0  0
 15  1  1  0  0  0  0
 16 13  1  6  0  0  0
 16  4  1  0  0  0  0
 17  8  2  0  0  0  0
 18 22  1  6  0  0  0
 18 16  1  0  0  0  0
 19 20  1  0  0  0  0
 20 13  1  0  0  0  0
 20 15  2  0  0  0  0
 21 22  1  0  0  0  0
 23 22  1  0  0  0  0
 24 21  1  0  0  0  0
 25 24  1  0  0  0  0
 25 23  1  0  0  0  0
 26 27  1  0  0  0  0
 28 30  1  0  0  0  0
 30 29  1  0  0  0  0
M  END
>  <MODEL>
6

>  <REMARK>
 VINA RESULT:      -6.1      2.929      6.210
  Name = 
  4 active torsions:
  status: ('A' for Active; 'I' for Inactive)
    1  A    between atoms: C_9  and  C_22
    2  A    between atoms: C_11  and  C_28
    3  A    between atoms: C_12  and  C_27
    4  A    between atoms: C_28  and  C_30
                            x       y       z     vdW  Elec       q    Type
                         _______ _______ _______ _____ _____    ______ ____

>  <TORSDO>
F 4

$$$$
=
 OpenBabel11122410263D

 30 34  0  0  1  0  0  0  0  0999 V2000
  182.9400  174.6350  137.7630 N   0  0  0  0  0  0  0  0  0  0  0  0
  184.9220  173.3040  136.9860 C   0  0  0  0  0  0  0  0  0  0  0  0
  185.3070  178.1350  138.1060 C   0  0  0  0  0  2  0  0  0  0  0  0
  182.5020  175.7520  138.6290 C   0  0  2  0  0  3  0  0  0  0  0  0
  181.9610  173.6470  137.3000 C   0  0  0  0  0  2  0  0  0  0  0  0
  179.0670  176.0100  137.1360 O   0  0  0  0  0  1  0  0  0  0  0  0
  180.4240  175.6890  137.2240 C   0  0  2  0  0  3  0  0  0  0  0  0
  184.3340  178.9810  138.8370 C   0  0  0  0  0  0  0  0  0  0  0  0
  180.7630  174.3120  136.6110 C   0  0  2  0  0  3  0  0  0  0  0  0
  180.9720  175.8910  138.6440 C   0  0  1  0  0  3  0  0  0  0  0  0
  186.2680  173.2650  136.6110 C   0  0  0  0  0  3  0  0  0  0  0  0
  184.2030  172.1150  136.9810 O   0  0  0  0  0  1  0  0  0  0  0  0
  184.5460  176.9300  137.8300 N   0  0  0  0  0  0  0  0  0  0  0  0
  187.0430  174.4230  136.6290 C   0  0  0  0  0  3  0  0  0  0  0  0
  184.3310  174.5290  137.3780 C   0  0  0  0  0  0  0  0  0  0  0  0
  183.1300  177.0730  138.1510 C   0  0  2  0  0  3  0  0  0  0  0  0
  184.5820  180.1190  139.2050 O   0  0  0  0  0  0  0  0  0  0  0  0
  183.0280  178.3040  139.0810 C   0  0  1  0  0  3  0  0  0  0  0  0
  186.4760  175.6320  137.0290 C   0  0  0  0  0  3  0  0  0  0  0  0
  185.1270  175.6910  137.4030 C   0  0  0  0  0  0  0  0  0  0  0  0
  181.9910  178.8550  141.2250 O   0  0  0  0  0  0  0  0  0  0  0  0
  182.9130  178.0090  140.5860 C   0  0  0  0  0  3  0  0  0  0  0  0
  184.1620  178.0710  141.2150 O   0  0  0  0  0  0  0  0  0  0  0  0
  182.4780  178.9760  142.5240 C   0  0  0  0  0  2  0  0  0  0  0  0
  183.8480  178.3600  142.5380 C   0  0  0  0  0  2  0  0  0  0  0  0
  179.5150  175.6780  140.6670 C   0  0  0  0  0  1  0  0  0  0  0  0
  180.3610  174.9270  139.6580 C   0  0  0  0  0  2  0  0  0  0  0  0
  179.5730  173.3550  136.6330 C   0  0  0  0  0  2  0  0  0  0  0  0
  179.4140  170.8680  136.5050 C   0  0  0  0  0  1  0  0  0  0  0  0
  179.9280  172.0430  137.3160 C   0  0  0  0  0  2  0  0  0  0  0  0
  2 15  1  0  0  0  0
  3  8  1  0  0  0  0
  4  1  1  6  0  0  0
  4 10  1  0  0  0  0
  5  1  1  0  0  0  0
  7  6  1  1  0  0  0
  7 10  1  0  0  0  0
  8 18  1  0  0  0  0
  8 17  2  0  0  0  0
  9 28  1  1  0  0  0
  9  7  1  0  0  0  0
  9  5  1  0  0  0  0
 10 27  1  1  0  0  0
 11 14  1  0  0  0  0
 11  2  2  0  0  0  0
 12  2  1  0  0  0  0
 13  3  1  0  0  0  0
 14 19  2  0  0  0  0
 15 20  2  0  0  0  0
 15  1  1  0  0  0  0
 16 13  1  1  0  0  0
 16  4  1  0  0  0  0
 16 18  1  0  0  0  0
 18 22  1  1  0  0  0
 19 20  1  0  0  0  0
 20 13  1  0  0  0  0
 21 24  1  0  0  0  0
 22 23  1  0  0  0  0
 22 21  1  0  0  0  0
 23 25  1  0  0  0  0
 24 25  1  0  0  0  0
 27 26  1  0  0  0  0
 28 30  1  0  0  0  0
 29 30  1  0  0  0  0
M  END
>  <MODEL>
7

>  <REMARK>
 VINA RESULT:      -5.9      5.552      9.459
  Name = 
  4 active torsions:
  status: ('A' for Active; 'I' for Inactive)
    1  A    between atoms: C_9  and  C_22
    2  A    between atoms: C_11  and  C_28
    3  A    between atoms: C_12  and  C_27
    4  A    between atoms: C_28  and  C_30
                            x       y       z     vdW  Elec       q    Type
                         _______ _______ _______ _____ _____    ______ ____

>  <TORSDO>
F 4

$$$$
=
 OpenBabel11122410263D

 30 34  0  0  1  0  0  0  0  0999 V2000
  188.8200  176.6490  138.3640 N   0  0  0  0  0  0  0  0  0  0  0  0
  188.7800  177.6880  140.6500 C   0  0  0  0  0  0  0  0  0  0  0  0
  184.8180  177.8480  137.6460 C   0  0  0  0  0  2  0  0  0  0  0  0
  188.0070  175.9610  137.3370 C   0  0  2  0  0  3  0  0  0  0  0  0
  190.2820  176.5520  138.3180 C   0  0  0  0  0  2  0  0  0  0  0  0
  190.5430  176.3280  134.5940 O   0  0  0  0  0  1  0  0  0  0  0  0
  189.8790  176.5980  135.7930 C   0  0  2  0  0  3  0  0  0  0  0  0
  184.5750  177.0590  136.4150 C   0  0  0  0  0  0  0  0  0  0  0  0
  190.8370  176.9640  136.9490 C   0  0  2  0  0  3  0  0  0  0  0  0
  188.8640  175.5020  136.1480 C   0  0  1  0  0  3  0  0  0  0  0  0
  188.1040  178.4450  141.6110 C   0  0  0  0  0  3  0  0  0  0  0  0
  190.0440  177.2040  140.9620 O   0  0  0  0  0  1  0  0  0  0  0  0
  186.2210  177.5990  137.9200 N   0  0  0  0  0  0  0  0  0  0  0  0
  186.8210  178.9270  141.3610 C   0  0  0  0  0  3  0  0  0  0  0  0
  188.1660  177.4140  139.4030 C   0  0  0  0  0  0  0  0  0  0  0  0
  186.8900  176.8920  136.8320 C   0  0  2  0  0  3  0  0  0  0  0  0
  183.5040  177.0490  135.8290 O   0  0  0  0  0  0  0  0  0  0  0  0
  185.7640  176.2750  135.9710 C   0  0  1  0  0  3  0  0  0  0  0  0
  186.2000  178.6500  140.1440 C   0  0  0  0  0  3  0  0  0  0  0  0
  186.8640  177.8970  139.1660 C   0  0  0  0  0  0  0  0  0  0  0  0
  184.7320  174.2160  135.1540 O   0  0  0  0  0  0  0  0  0  0  0  0
  185.4720  174.7830  136.2040 C   0  0  0  0  0  3  0  0  0  0  0  0
  184.8320  174.5750  137.4320 O   0  0  0  0  0  0  0  0  0  0  0  0
  183.9900  173.2070  135.7610 C   0  0  0  0  0  2  0  0  0  0  0  0
  184.1520  173.3760  137.2450 C   0  0  0  0  0  2  0  0  0  0  0  0
  188.4830  173.1290  136.8430 C   0  0  0  0  0  1  0  0  0  0  0  0
  189.5240  174.1600  136.4570 C   0  0  0  0  0  2  0  0  0  0  0  0
  192.2290  176.3600  136.7650 C   0  0  0  0  0  2  0  0  0  0  0  0
  193.2720  174.2170  137.5030 C   0  0  0  0  0  1  0  0  0  0  0  0
  192.6270  175.5110  137.9630 C   0  0  0  0  0  2  0  0  0  0  0  0
  1 15  1  0  0  0  0
  2 12  1  0  0  0  0
  2 11  1  0  0  0  0
  3 13  1  0  0  0  0
  4  1  1  1  0  0  0
  5  1  1  0  0  0  0
  7  6  1  6  0  0  0
  7 10  1  0  0  0  0
  7  9  1  0  0  0  0
  8  3  1  0  0  0  0
  9 28  1  6  0  0  0
  9  5  1  0  0  0  0
 10 27  1  1  0  0  0
 10  4  1  0  0  0  0
 13 20  1  0  0  0  0
 14 11  2  0  0  0  0
 15  2  2  0  0  0  0
 16  4  1  0  0  0  0
 16 13  1  1  0  0  0
 17  8  2  0  0  0  0
 18 22  1  1  0  0  0
 18  8  1  0  0  0  0
 18 16  1  0  0  0  0
 19 14  1  0  0  0  0
 20 15  1  0  0  0  0
 20 19  2  0  0  0  0
 21 24  1  0  0  0  0
 21 22  1  0  0  0  0
 22 23  1  0  0  0  0
 24 25  1  0  0  0  0
 25 23  1  0  0  0  0
 27 26  1  0  0  0  0
 28 30  1  0  0  0  0
 29 30  1  0  0  0  0
M  END
>  <MODEL>
8

>  <REMARK>
 VINA RESULT:      -5.8      3.232      6.288
  Name = 
  4 active torsions:
  status: ('A' for Active; 'I' for Inactive)
    1  A    between atoms: C_9  and  C_22
    2  A    between atoms: C_11  and  C_28
    3  A    between atoms: C_12  and  C_27
    4  A    between atoms: C_28  and  C_30
                            x       y       z     vdW  Elec       q    Type
                         _______ _______ _______ _____ _____    ______ ____

>  <TORSDO>
F 4

$$$$
=
 OpenBabel11122410263D

 30 34  0  0  1  0  0  0  0  0999 V2000
  184.0210  175.0590  137.1450 N   0  0  0  0  0  0  0  0  0  0  0  0
  184.1360  172.6280  136.5270 C   0  0  0  0  0  0  0  0  0  0  0  0
  187.6530  175.8460  135.1050 C   0  0  0  0  0  2  0  0  0  0  0  0
  184.8210  176.2590  137.4780 C   0  0  2  0  0  3  0  0  0  0  0  0
  182.6010  175.0100  137.5060 C   0  0  0  0  0  2  0  0  0  0  0  0
  181.9710  178.6770  137.1290 O   0  0  0  0  0  1  0  0  0  0  0  0
  182.7080  177.5030  136.9500 C   0  0  2  0  0  3  0  0  0  0  0  0
  187.8900  177.2190  135.6100 C   0  0  0  0  0  0  0  0  0  0  0  0
  181.8350  176.2280  136.9770 C   0  0  2  0  0  3  0  0  0  0  0  0
  183.9290  177.4430  137.8790 C   0  0  1  0  0  3  0  0  0  0  0  0
  184.7740  171.5960  135.8340 C   0  0  0  0  0  3  0  0  0  0  0  0
  183.0160  172.3160  137.2880 O   0  0  0  0  0  1  0  0  0  0  0  0
  186.3530  175.5160  135.6590 N   0  0  0  0  0  0  0  0  0  0  0  0
  185.9200  171.8490  135.0820 C   0  0  0  0  0  3  0  0  0  0  0  0
  184.6450  173.9480  136.4610 C   0  0  0  0  0  0  0  0  0  0  0  0
  185.6980  176.6630  136.2810 C   0  0  2  0  0  3  0  0  0  0  0  0
  188.8740  177.8780  135.3150 O   0  0  0  0  0  0  0  0  0  0  0  0
  186.8110  177.7100  136.5160 C   0  0  1  0  0  3  0  0  0  0  0  0
  186.4400  173.1410  135.0230 C   0  0  0  0  0  3  0  0  0  0  0  0
  185.8100  174.1900  135.7070 C   0  0  0  0  0  0  0  0  0  0  0  0
  188.0900  178.9780  138.1680 O   0  0  0  0  0  0  0  0  0  0  0  0
  187.3790  177.7880  137.9430 C   0  0  0  0  0  3  0  0  0  0  0  0
  188.1700  176.6720  138.2380 O   0  0  0  0  0  0  0  0  0  0  0  0
  189.0550  178.6290  139.1090 C   0  0  0  0  0  2  0  0  0  0  0  0
  189.0240  177.1330  139.2350 C   0  0  0  0  0  2  0  0  0  0  0  0
  183.9540  178.6020  140.0970 C   0  0  0  0  0  1  0  0  0  0  0  0
  183.5470  177.3440  139.3550 C   0  0  0  0  0  2  0  0  0  0  0  0
  180.5560  176.4140  137.7920 C   0  0  0  0  0  2  0  0  0  0  0  0
  180.0760  176.0730  140.2170 C   0  0  0  0  0  1  0  0  0  0  0  0
  180.4620  175.3940  138.9170 C   0  0  0  0  0  2  0  0  0  0  0  0
  1  5  1  0  0  0  0
  2 12  1  0  0  0  0
  3  8  1  0  0  0  0
  3 13  1  0  0  0  0
  4  1  1  6  0  0  0
  4 10  1  0  0  0  0
  7  9  1  0  0  0  0
  7  6  1  1  0  0  0
  7 10  1  0  0  0  0
  8 18  1  0  0  0  0
  9  5  1  0  0  0  0
  9 28  1  1  0  0  0
 10 27  1  1  0  0  0
 11  2  2  0  0  0  0
 13 20  1  0  0  0  0
 14 11  1  0  0  0  0
 15  2  1  0  0  0  0
 15  1  1  0  0  0  0
 16 13  1  1  0  0  0
 16 18  1  0  0  0  0
 16  4  1  0  0  0  0
 17  8  2  0  0  0  0
 18 22  1  1  0  0  0
 19 14  2  0  0  0  0
 19 20  1  0  0  0  0
 20 15  2  0  0  0  0
 21 24  1  0  0  0  0
 22 21  1  0  0  0  0
 22 23  1  0  0  0  0
 23 25  1  0  0  0  0
 24 25  1  0  0  0  0
 27 26  1  0  0  0  0
 28 30  1  0  0  0  0
 30 29  1  0  0  0  0
M  END
>  <MODEL>
9

>  <REMARK>
 VINA RESULT:      -5.7      4.469      7.863
  Name = 
  4 active torsions:
  status: ('A' for Active; 'I' for Inactive)
    1  A    between atoms: C_9  and  C_22
    2  A    between atoms: C_11  and  C_28
    3  A    between atoms: C_12  and  C_27
    4  A    between atoms: C_28  and  C_30
                            x       y       z     vdW  Elec       q    Type
                         _______ _______ _______ _____ _____    ______ ____

>  <TORSDO>
F 4

$$$$
