=
 OpenBabel11122410253D

 30 35  0  0  1  0  0  0  0  0999 V2000
  185.6400  178.3400  142.0310 C   0  0  1  0  0  3  0  0  0  0  0  0
  186.3010  178.0440  144.3820 C   0  0  0  0  0  0  0  0  0  0  0  0
  181.6960  179.2430  143.2350 N   0  0  0  0  0  0  0  0  0  0  0  0
  184.6520  178.8970  141.0180 C   0  0  1  0  0  3  0  0  0  0  0  0
  186.9530  177.8300  141.5040 C   0  0  0  0  0  2  0  0  0  0  0  0
  186.5560  178.9010  137.8110 C   0  0  0  0  0  1  0  0  0  0  0  0
  182.9560  176.6340  139.8050 C   0  0  1  0  0  3  0  0  0  0  0  0
  186.2600  178.1330  139.0950 C   0  0  1  0  0  3  0  0  0  0  0  0
  181.7710  177.3480  140.4410 C   0  0  2  0  0  3  0  0  0  0  0  0
  181.0770  179.1590  141.9520 C   0  0  0  0  0  0  0  0  0  0  0  0
  187.3160  178.4530  140.1610 C   0  0  2  0  0  3  0  0  0  0  0  0
  184.8260  178.4500  139.5420 C   0  0  1  0  0  3  0  0  0  0  0  0
  185.9660  178.1260  145.7360 C   0  0  0  0  0  3  0  0  0  0  0  0
  180.6700  177.2270  139.5840 O   0  0  0  0  0  0  0  0  0  0  0  0
  182.2770  175.5530  139.0100 C   0  0  0  0  0  2  0  0  0  0  0  0
  187.5960  177.6350  144.0750 O   0  0  0  0  0  1  0  0  0  0  0  0
  183.0660  179.0190  142.9270 C   0  0  0  0  0  0  0  0  0  0  0  0
  184.6970  178.5250  146.1380 C   0  0  0  0  0  3  0  0  0  0  0  0
  185.3480  178.3870  143.3750 C   0  0  0  0  0  0  0  0  0  0  0  0
  183.2970  178.8620  141.5450 N   0  0  0  0  0  0  0  0  0  0  0  0
  179.8450  179.3460  141.7840 O   0  0  0  0  0  0  0  0  0  0  0  0
  182.0270  178.8020  140.8460 C   0  0  1  0  0  3  0  0  0  0  0  0
  180.8090  175.9510  139.0060 C   0  0  0  0  0  2  0  0  0  0  0  0
  183.0150  178.2540  137.8000 C   0  0  0  0  0  1  0  0  0  0  0  0
  183.7360  178.8440  145.1840 C   0  0  0  0  0  3  0  0  0  0  0  0
  184.0350  178.7790  143.8170 C   0  0  0  0  0  0  0  0  0  0  0  0
  183.8100  177.5090  138.8690 C   0  0  2  0  0  3  0  0  0  0  0  0
  188.7180  178.0090  139.7340 C   0  0  0  0  0  2  0  0  0  0  0  0
  190.2600  176.3210  140.4150 O   0  0  0  0  0  1  0  0  0  0  0  0
  189.5160  177.4040  140.8830 C   0  0  0  0  0  2  0  0  0  0  0  0
  1  5  1  1  0  0  0
  1 19  1  0  0  0  0
  2 13  1  0  0  0  0
  4 20  1  1  0  0  0
  4  1  1  0  0  0  0
  7 15  1  6  0  0  0
  7  9  1  0  0  0  0
  8  6  1  6  0  0  0
  8 12  1  0  0  0  0
  8 11  1  0  0  0  0
  9 14  1  6  0  0  0
  9 22  1  0  0  0  0
 10  3  1  0  0  0  0
 11 28  1  6  0  0  0
 11  5  1  0  0  0  0
 12  4  1  0  0  0  0
 13 18  2  0  0  0  0
 16  2  1  0  0  0  0
 17  3  2  0  0  0  0
 17 26  1  0  0  0  0
 19 26  1  0  0  0  0
 19  2  2  0  0  0  0
 20 17  1  0  0  0  0
 21 10  2  0  0  0  0
 22 20  1  0  0  0  0
 22 10  1  0  0  0  0
 23 15  1  0  0  0  0
 23 14  1  0  0  0  0
 24 27  1  0  0  0  0
 25 18  1  0  0  0  0
 26 25  2  0  0  0  0
 27 12  1  0  0  0  0
 27  7  1  0  0  0  0
 28 30  1  0  0  0  0
 29 30  1  0  0  0  0
M  END
>  <MODEL>
1

>  <REMARK>
 VINA RESULT:      -8.1      0.000      0.000
  Name = 
  2 active torsions:
  status: ('A' for Active; 'I' for Inactive)
    1  A    between atoms: C_11  and  C_28
    2  A    between atoms: C_28  and  C_30
                            x       y       z     vdW  Elec       q    Type
                         _______ _______ _______ _____ _____    ______ ____

>  <TORSDO>
F 2

$$$$
=
 OpenBabel11122410253D

 30 35  0  0  1  0  0  0  0  0999 V2000
  188.5280  177.7660  141.0960 C   0  0  1  0  0  3  0  0  0  0  0  0
  186.5750  177.9990  142.5750 C   0  0  0  0  0  0  0  0  0  0  0  0
  186.1320  178.7070  137.7510 N   0  0  0  0  0  0  0  0  0  0  0  0
  189.1860  178.0510  139.7560 C   0  0  1  0  0  3  0  0  0  0  0  0
  189.4040  177.2220  142.1920 C   0  0  0  0  0  2  0  0  0  0  0  0
  192.8160  177.4790  140.3920 C   0  0  0  0  0  1  0  0  0  0  0  0
  189.2670  175.5040  138.0290 C   0  0  1  0  0  3  0  0  0  0  0  0
  191.3990  176.9820  140.6630 C   0  0  1  0  0  3  0  0  0  0  0  0
  188.3750  176.2770  137.0670 C   0  0  2  0  0  3  0  0  0  0  0  0
  187.0590  178.3270  136.7360 C   0  0  0  0  0  0  0  0  0  0  0  0
  190.8740  177.5680  141.9800 C   0  0  2  0  0  3  0  0  0  0  0  0
  190.5180  177.3150  139.4510 C   0  0  1  0  0  3  0  0  0  0  0  0
  185.2310  178.3450  142.7310 C   0  0  0  0  0  3  0  0  0  0  0  0
  188.7290  175.9270  135.7580 O   0  0  0  0  0  0  0  0  0  0  0  0
  189.5510  174.2500  137.2510 C   0  0  0  0  0  2  0  0  0  0  0  0
  187.2610  177.5990  143.7180 O   0  0  0  0  0  1  0  0  0  0  0  0
  186.8790  178.4900  138.9410 C   0  0  0  0  0  0  0  0  0  0  0  0
  184.4650  178.7570  141.6450 C   0  0  0  0  0  3  0  0  0  0  0  0
  187.2020  178.0780  141.2940 C   0  0  0  0  0  0  0  0  0  0  0  0
  188.1980  178.0610  138.6880 N   0  0  0  0  0  0  0  0  0  0  0  0
  186.7900  178.4150  135.5100 O   0  0  0  0  0  0  0  0  0  0  0  0
  188.3560  177.7940  137.2700 C   0  0  1  0  0  3  0  0  0  0  0  0
  189.0820  174.5670  135.8390 C   0  0  0  0  0  2  0  0  0  0  0  0
  191.4040  176.6720  137.1810 C   0  0  0  0  0  1  0  0  0  0  0  0
  185.0370  178.8230  140.3800 C   0  0  0  0  0  3  0  0  0  0  0  0
  186.3830  178.4900  140.1840 C   0  0  0  0  0  0  0  0  0  0  0  0
  190.5900  176.2060  138.3860 C   0  0  2  0  0  3  0  0  0  0  0  0
  191.7020  177.1140  143.1850 C   0  0  0  0  0  2  0  0  0  0  0  0
  191.5600  179.3630  143.9680 O   0  0  0  0  0  1  0  0  0  0  0  0
  191.5370  178.0320  144.3890 C   0  0  0  0  0  2  0  0  0  0  0  0
  1 19  1  0  0  0  0
  1  5  1  1  0  0  0
  2 13  1  0  0  0  0
  2 16  1  0  0  0  0
  3 17  2  0  0  0  0
  4 20  1  6  0  0  0
  4  1  1  0  0  0  0
  7 15  1  6  0  0  0
  7 27  1  0  0  0  0
  8  6  1  6  0  0  0
  8 11  1  0  0  0  0
  9 14  1  6  0  0  0
  9 22  1  0  0  0  0
  9  7  1  0  0  0  0
 10 22  1  0  0  0  0
 10  3  1  0  0  0  0
 11  5  1  0  0  0  0
 11 28  1  1  0  0  0
 12  4  1  0  0  0  0
 12  8  1  0  0  0  0
 14 23  1  0  0  0  0
 17 26  1  0  0  0  0
 18 13  2  0  0  0  0
 19  2  2  0  0  0  0
 20 17  1  0  0  0  0
 21 10  2  0  0  0  0
 22 20  1  0  0  0  0
 23 15  1  0  0  0  0
 24 27  1  0  0  0  0
 25 18  1  0  0  0  0
 26 25  2  0  0  0  0
 26 19  1  0  0  0  0
 27 12  1  0  0  0  0
 28 30  1  0  0  0  0
 29 30  1  0  0  0  0
M  END
>  <MODEL>
2

>  <REMARK>
 VINA RESULT:      -7.8      3.471      5.987
  Name = 
  2 active torsions:
  status: ('A' for Active; 'I' for Inactive)
    1  A    between atoms: C_11  and  C_28
    2  A    between atoms: C_28  and  C_30
                            x       y       z     vdW  Elec       q    Type
                         _______ _______ _______ _____ _____    ______ ____

>  <TORSDO>
F 2

$$$$
=
 OpenBabel11122410253D

 30 35  0  0  1  0  0  0  0  0999 V2000
  186.6790  178.1440  142.2550 C   0  0  1  0  0  3  0  0  0  0  0  0
  184.5060  179.1510  142.8160 C   0  0  0  0  0  0  0  0  0  0  0  0
  187.3030  177.1840  146.3190 N   0  0  0  0  0  0  0  0  0  0  0  0
  187.8250  177.2230  142.6440 C   0  0  1  0  0  3  0  0  0  0  0  0
  186.6370  178.6290  140.8320 C   0  0  0  0  0  2  0  0  0  0  0  0
  189.5660  176.5380  139.4180 C   0  0  0  0  0  1  0  0  0  0  0  0
  190.3080  178.8610  143.4340 C   0  0  1  0  0  3  0  0  0  0  0  0
  188.8720  177.5960  140.2710 C   0  0  1  0  0  3  0  0  0  0  0  0
  190.1370  178.2260  144.8070 C   0  0  2  0  0  3  0  0  0  0  0  0
  188.6850  176.8410  146.2270 C   0  0  0  0  0  0  0  0  0  0  0  0
  187.3910  177.7010  139.8850 C   0  0  2  0  0  3  0  0  0  0  0  0
  189.0950  177.2590  141.7520 C   0  0  1  0  0  3  0  0  0  0  0  0
  183.5220  179.4120  143.7730 C   0  0  0  0  0  3  0  0  0  0  0  0
  191.4080  177.9830  145.3420 O   0  0  0  0  0  0  0  0  0  0  0  0
  191.6090  179.5980  143.5910 C   0  0  0  0  0  2  0  0  0  0  0  0
  184.2610  179.5990  141.5210 O   0  0  0  0  0  1  0  0  0  0  0  0
  186.9690  177.4630  144.9650 C   0  0  0  0  0  0  0  0  0  0  0  0
  183.6790  179.0030  145.0930 C   0  0  0  0  0  3  0  0  0  0  0  0
  185.6930  178.4400  143.1690 C   0  0  0  0  0  0  0  0  0  0  0  0
  188.0470  177.2540  144.0810 N   0  0  0  0  0  0  0  0  0  0  0  0
  189.3580  176.4810  147.2260 O   0  0  0  0  0  0  0  0  0  0  0  0
  189.2510  176.9790  144.8440 C   0  0  1  0  0  3  0  0  0  0  0  0
  192.1970  179.0560  144.8850 C   0  0  0  0  0  2  0  0  0  0  0  0
  191.4590  176.7650  142.4700 C   0  0  0  0  0  1  0  0  0  0  0  0
  184.8330  178.3290  145.4770 C   0  0  0  0  0  3  0  0  0  0  0  0
  185.8390  178.0440  144.5450 C   0  0  0  0  0  0  0  0  0  0  0  0
  190.4140  177.8590  142.2690 C   0  0  2  0  0  3  0  0  0  0  0  0
  187.2040  178.1600  138.4360 C   0  0  0  0  0  2  0  0  0  0  0  0
  185.3640  177.0870  137.3600 O   0  0  0  0  0  1  0  0  0  0  0  0
  185.7370  178.2510  138.0360 C   0  0  0  0  0  2  0  0  0  0  0  0
  1  5  1  6  0  0  0
  1  4  1  0  0  0  0
  1 19  1  0  0  0  0
  2 19  2  0  0  0  0
  2 13  1  0  0  0  0
  4 20  1  1  0  0  0
  7 15  1  1  0  0  0
  7  9  1  0  0  0  0
  8  6  1  6  0  0  0
  8 12  1  0  0  0  0
  9 22  1  0  0  0  0
  9 14  1  6  0  0  0
 10  3  1  0  0  0  0
 10 21  2  0  0  0  0
 11 28  1  6  0  0  0
 11  8  1  0  0  0  0
 11  5  1  0  0  0  0
 12 27  1  0  0  0  0
 12  4  1  0  0  0  0
 13 18  2  0  0  0  0
 15 23  1  0  0  0  0
 16  2  1  0  0  0  0
 17  3  2  0  0  0  0
 18 25  1  0  0  0  0
 19 26  1  0  0  0  0
 20 22  1  0  0  0  0
 20 17  1  0  0  0  0
 22 10  1  0  0  0  0
 23 14  1  0  0  0  0
 26 17  1  0  0  0  0
 26 25  2  0  0  0  0
 27 24  1  0  0  0  0
 27  7  1  0  0  0  0
 29 30  1  0  0  0  0
 30 28  1  0  0  0  0
M  END
>  <MODEL>
3

>  <REMARK>
 VINA RESULT:      -7.7      3.112      6.628
  Name = 
  2 active torsions:
  status: ('A' for Active; 'I' for Inactive)
    1  A    between atoms: C_11  and  C_28
    2  A    between atoms: C_28  and  C_30
                            x       y       z     vdW  Elec       q    Type
                         _______ _______ _______ _____ _____    ______ ____

>  <TORSDO>
F 2

$$$$
=
 OpenBabel11122410253D

 30 35  0  0  1  0  0  0  0  0999 V2000
  188.8050  177.2940  139.2880 C   0  0  1  0  0  3  0  0  0  0  0  0
  189.4040  176.9440  141.6490 C   0  0  0  0  0  0  0  0  0  0  0  0
  185.2070  179.1650  140.4590 N   0  0  0  0  0  0  0  0  0  0  0  0
  187.9690  178.0300  138.2540 C   0  0  1  0  0  3  0  0  0  0  0  0
  189.9520  176.4620  138.7820 C   0  0  0  0  0  2  0  0  0  0  0  0
  189.7810  177.4470  135.0470 C   0  0  0  0  0  1  0  0  0  0  0  0
  185.7650  176.1930  137.1400 C   0  0  1  0  0  3  0  0  0  0  0  0
  189.3240  176.8250  136.3630 C   0  0  1  0  0  3  0  0  0  0  0  0
  184.7940  177.1960  137.7470 C   0  0  2  0  0  3  0  0  0  0  0  0
  184.5720  179.1810  139.1810 C   0  0  0  0  0  0  0  0  0  0  0  0
  190.4390  176.9250  137.4130 C   0  0  2  0  0  3  0  0  0  0  0  0
  188.0130  177.4950  136.7980 C   0  0  1  0  0  3  0  0  0  0  0  0
  189.1140  177.1580  142.9980 C   0  0  0  0  0  3  0  0  0  0  0  0
  183.6860  177.3080  136.8980 O   0  0  0  0  0  0  0  0  0  0  0  0
  184.8380  175.2750  136.3930 C   0  0  0  0  0  2  0  0  0  0  0  0
  190.5590  176.2230  141.3580 O   0  0  0  0  0  1  0  0  0  0  0  0
  186.4800  178.6070  140.1590 C   0  0  0  0  0  0  0  0  0  0  0  0
  187.9820  177.8670  143.3850 C   0  0  0  0  0  3  0  0  0  0  0  0
  188.5490  177.4640  140.6300 C   0  0  0  0  0  0  0  0  0  0  0  0
  186.6510  178.3430  138.7840 N   0  0  0  0  0  0  0  0  0  0  0  0
  183.4190  179.6510  139.0080 O   0  0  0  0  0  0  0  0  0  0  0  0
  185.3950  178.5610  138.0900 C   0  0  1  0  0  3  0  0  0  0  0  0
  183.5090  176.0140  136.3740 C   0  0  0  0  0  2  0  0  0  0  0  0
  186.1890  177.6690  135.0680 C   0  0  0  0  0  1  0  0  0  0  0  0
  187.1150  178.3680  142.4200 C   0  0  0  0  0  3  0  0  0  0  0  0
  187.3740  178.1780  141.0570 C   0  0  0  0  0  0  0  0  0  0  0  0
  186.7940  176.7990  136.1670 C   0  0  2  0  0  3  0  0  0  0  0  0
  191.6880  176.1410  137.0040 C   0  0  0  0  0  2  0  0  0  0  0  0
  193.9470  176.8940  137.1470 O   0  0  0  0  0  1  0  0  0  0  0  0
  192.8790  176.4210  137.9110 C   0  0  0  0  0  2  0  0  0  0  0  0
  1  5  1  1  0  0  0
  1 19  1  0  0  0  0
  2 13  1  0  0  0  0
  4 20  1  1  0  0  0
  4  1  1  0  0  0  0
  7 15  1  6  0  0  0
  7  9  1  0  0  0  0
  8  6  1  6  0  0  0
  8 12  1  0  0  0  0
  8 11  1  0  0  0  0
  9 14  1  6  0  0  0
  9 22  1  0  0  0  0
 10  3  1  0  0  0  0
 11 28  1  6  0  0  0
 11  5  1  0  0  0  0
 12  4  1  0  0  0  0
 13 18  2  0  0  0  0
 16  2  1  0  0  0  0
 17  3  2  0  0  0  0
 17 26  1  0  0  0  0
 19 26  1  0  0  0  0
 19  2  2  0  0  0  0
 20 17  1  0  0  0  0
 21 10  2  0  0  0  0
 22 20  1  0  0  0  0
 22 10  1  0  0  0  0
 23 15  1  0  0  0  0
 23 14  1  0  0  0  0
 24 27  1  0  0  0  0
 25 18  1  0  0  0  0
 26 25  2  0  0  0  0
 27 12  1  0  0  0  0
 27  7  1  0  0  0  0
 28 30  1  0  0  0  0
 29 30  1  0  0  0  0
M  END
>  <MODEL>
4

>  <REMARK>
 VINA RESULT:      -7.3      2.908      4.312
  Name = 
  2 active torsions:
  status: ('A' for Active; 'I' for Inactive)
    1  A    between atoms: C_11  and  C_28
    2  A    between atoms: C_28  and  C_30
                            x       y       z     vdW  Elec       q    Type
                         _______ _______ _______ _____ _____    ______ ____

>  <TORSDO>
F 2

$$$$
=
 OpenBabel11122410253D

 30 35  0  0  1  0  0  0  0  0999 V2000
  187.8480  177.7210  140.8400 C   0  0  1  0  0  3  0  0  0  0  0  0
  187.7970  177.4170  143.2810 C   0  0  0  0  0  0  0  0  0  0  0  0
  183.9630  179.3680  140.9460 N   0  0  0  0  0  0  0  0  0  0  0  0
  187.2840  178.4000  139.6010 C   0  0  1  0  0  3  0  0  0  0  0  0
  189.1370  176.9610  140.6820 C   0  0  0  0  0  2  0  0  0  0  0  0
  189.9360  177.9210  137.0230 C   0  0  0  0  0  1  0  0  0  0  0  0
  185.5820  176.4260  137.9660 C   0  0  1  0  0  3  0  0  0  0  0  0
  189.1740  177.2760  138.1770 C   0  0  1  0  0  3  0  0  0  0  0  0
  184.4240  177.3690  138.2650 C   0  0  2  0  0  3  0  0  0  0  0  0
  183.7020  179.3400  139.5430 C   0  0  0  0  0  0  0  0  0  0  0  0
  189.9510  177.4490  139.4890 C   0  0  2  0  0  3  0  0  0  0  0  0
  187.7570  177.8640  138.2240 C   0  0  1  0  0  3  0  0  0  0  0  0
  187.1370  177.6180  144.4950 C   0  0  0  0  0  3  0  0  0  0  0  0
  183.5870  177.4080  137.1430 O   0  0  0  0  0  0  0  0  0  0  0  0
  184.9510  175.4490  137.0130 C   0  0  0  0  0  2  0  0  0  0  0  0
  189.0290  176.7690  143.3310 O   0  0  0  0  0  1  0  0  0  0  0  0
  185.3000  178.8890  141.0150 C   0  0  0  0  0  0  0  0  0  0  0  0
  185.9020  178.2560  144.5440 C   0  0  0  0  0  3  0  0  0  0  0  0
  187.2250  177.8790  142.0570 C   0  0  0  0  0  0  0  0  0  0  0  0
  185.8560  178.6320  139.7460 N   0  0  0  0  0  0  0  0  0  0  0  0
  182.6150  179.7360  139.0520 O   0  0  0  0  0  0  0  0  0  0  0  0
  184.8270  178.7690  138.7310 C   0  0  1  0  0  3  0  0  0  0  0  0
  183.6360  176.1040  136.6170 C   0  0  0  0  0  2  0  0  0  0  0  0
  186.4690  177.9190  136.0590 C   0  0  0  0  0  1  0  0  0  0  0  0
  185.3040  178.6980  143.3690 C   0  0  0  0  0  3  0  0  0  0  0  0
  185.9380  178.5200  142.1320 C   0  0  0  0  0  0  0  0  0  0  0  0
  186.8000  177.0920  137.2990 C   0  0  2  0  0  3  0  0  0  0  0  0
  191.3090  176.7430  139.4520 C   0  0  0  0  0  2  0  0  0  0  0  0
  193.6220  177.3060  139.6070 O   0  0  0  0  0  1  0  0  0  0  0  0
  192.3840  177.5000  140.2210 C   0  0  0  0  0  2  0  0  0  0  0  0
  1  5  1  1  0  0  0
  1 19  1  0  0  0  0
  2 16  1  0  0  0  0
  2 13  1  0  0  0  0
  3 17  2  0  0  0  0
  4 20  1  6  0  0  0
  4  1  1  0  0  0  0
  7 15  1  6  0  0  0
  7  9  1  0  0  0  0
  8  6  1  6  0  0  0
  8 12  1  0  0  0  0
  8 11  1  0  0  0  0
  9 14  1  6  0  0  0
  9 22  1  0  0  0  0
 10  3  1  0  0  0  0
 11 28  1  6  0  0  0
 11  5  1  0  0  0  0
 12  4  1  0  0  0  0
 13 18  2  0  0  0  0
 17 26  1  0  0  0  0
 19 26  1  0  0  0  0
 19  2  2  0  0  0  0
 20 17  1  0  0  0  0
 21 10  2  0  0  0  0
 22 10  1  0  0  0  0
 22 20  1  0  0  0  0
 23 15  1  0  0  0  0
 23 14  1  0  0  0  0
 24 27  1  0  0  0  0
 25 18  1  0  0  0  0
 26 25  2  0  0  0  0
 27  7  1  0  0  0  0
 27 12  1  0  0  0  0
 28 30  1  0  0  0  0
 29 30  1  0  0  0  0
M  END
>  <MODEL>
5

>  <REMARK>
 VINA RESULT:      -7.1      2.113      3.076
  Name = 
  2 active torsions:
  status: ('A' for Active; 'I' for Inactive)
    1  A    between atoms: C_11  and  C_28
    2  A    between atoms: C_28  and  C_30
                            x       y       z     vdW  Elec       q    Type
                         _______ _______ _______ _____ _____    ______ ____

>  <TORSDO>
F 2

$$$$
=
 OpenBabel11122410253D

 30 35  0  0  1  0  0  0  0  0999 V2000
  184.5530  178.2340  141.0960 C   0  0  1  0  0  3  0  0  0  0  0  0
  183.0500  177.5910  139.2560 C   0  0  0  0  0  0  0  0  0  0  0  0
  187.7900  178.4660  138.3960 N   0  0  0  0  0  0  0  0  0  0  0  0
  185.8660  178.8530  141.5470 C   0  0  1  0  0  3  0  0  0  0  0  0
  183.5140  177.9740  142.1530 C   0  0  0  0  0  2  0  0  0  0  0  0
  185.3010  179.6460  145.1470 C   0  0  0  0  0  1  0  0  0  0  0  0
  187.8130  176.6750  142.5130 C   0  0  1  0  0  3  0  0  0  0  0  0
  185.0680  178.6300  144.0330 C   0  0  1  0  0  3  0  0  0  0  0  0
  188.6980  177.1280  141.3600 C   0  0  2  0  0  3  0  0  0  0  0  0
  188.8390  178.5490  139.3590 C   0  0  0  0  0  0  0  0  0  0  0  0
  183.7010  178.8660  143.3760 C   0  0  2  0  0  3  0  0  0  0  0  0
  186.2410  178.7030  143.0450 C   0  0  1  0  0  3  0  0  0  0  0  0
  182.8580  177.3890  137.8880 C   0  0  0  0  0  3  0  0  0  0  0  0
  190.0350  177.0440  141.7700 O   0  0  0  0  0  0  0  0  0  0  0  0
  188.7020  175.6880  143.2190 C   0  0  0  0  0  2  0  0  0  0  0  0
  181.9510  177.3890  140.0860 O   0  0  0  0  0  1  0  0  0  0  0  0
  186.6270  178.4530  139.2150 C   0  0  0  0  0  0  0  0  0  0  0  0
  183.8980  177.5680  136.9830 C   0  0  0  0  0  3  0  0  0  0  0  0
  184.3220  178.0040  139.7590 C   0  0  0  0  0  0  0  0  0  0  0  0
  186.9230  178.5750  140.5880 N   0  0  0  0  0  0  0  0  0  0  0  0
  190.0500  178.6260  139.0300 O   0  0  0  0  0  0  0  0  0  0  0  0
  188.3600  178.5040  140.7800 C   0  0  1  0  0  3  0  0  0  0  0  0
  190.0780  175.9170  142.6120 C   0  0  0  0  0  2  0  0  0  0  0  0
  188.5640  178.6280  144.0210 C   0  0  0  0  0  1  0  0  0  0  0  0
  185.1560  177.9470  137.4390 C   0  0  0  0  0  3  0  0  0  0  0  0
  185.3870  178.1640  138.8030 C   0  0  0  0  0  0  0  0  0  0  0  0
  187.4010  177.7940  143.4880 C   0  0  2  0  0  3  0  0  0  0  0  0
  182.5460  178.6630  144.3590 C   0  0  0  0  0  2  0  0  0  0  0  0
  180.2060  178.2000  144.3290 O   0  0  0  0  0  1  0  0  0  0  0  0
  181.1920  179.0000  143.7490 C   0  0  0  0  0  2  0  0  0  0  0  0
  1  4  1  0  0  0  0
  1  5  1  6  0  0  0
  2 19  1  0  0  0  0
  2 16  1  0  0  0  0
  3 17  2  0  0  0  0
  3 10  1  0  0  0  0
  4 20  1  6  0  0  0
  4 12  1  0  0  0  0
  5 11  1  0  0  0  0
  7 15  1  1  0  0  0
  7 27  1  0  0  0  0
  8  6  1  1  0  0  0
  9 14  1  1  0  0  0
  9  7  1  0  0  0  0
 10 22  1  0  0  0  0
 11  8  1  0  0  0  0
 11 28  1  1  0  0  0
 12 27  1  0  0  0  0
 12  8  1  0  0  0  0
 13  2  2  0  0  0  0
 14 23  1  0  0  0  0
 17 20  1  0  0  0  0
 18 25  2  0  0  0  0
 18 13  1  0  0  0  0
 19  1  1  0  0  0  0
 20 22  1  0  0  0  0
 21 10  2  0  0  0  0
 22  9  1  0  0  0  0
 23 15  1  0  0  0  0
 25 26  1  0  0  0  0
 26 17  1  0  0  0  0
 26 19  2  0  0  0  0
 27 24  1  0  0  0  0
 30 29  1  0  0  0  0
 30 28  1  0  0  0  0
M  END
>  <MODEL>
6

>  <REMARK>
 VINA RESULT:      -6.8      1.993      7.068
  Name = 
  2 active torsions:
  status: ('A' for Active; 'I' for Inactive)
    1  A    between atoms: C_11  and  C_28
    2  A    between atoms: C_28  and  C_30
                            x       y       z     vdW  Elec       q    Type
                         _______ _______ _______ _____ _____    ______ ____

>  <TORSDO>
F 2

$$$$
=
 OpenBabel11122410253D

 30 35  0  0  1  0  0  0  0  0999 V2000
  184.2700  178.4380  140.6300 C   0  0  1  0  0  3  0  0  0  0  0  0
  186.4810  178.4320  139.5490 C   0  0  0  0  0  0  0  0  0  0  0  0
  182.5090  176.9890  137.0780 N   0  0  0  0  0  0  0  0  0  0  0  0
  182.8300  177.9510  140.6480 C   0  0  1  0  0  3  0  0  0  0  0  0
  184.7740  179.1460  141.8580 C   0  0  0  0  0  2  0  0  0  0  0  0
  181.6960  178.6200  144.1380 C   0  0  0  0  0  1  0  0  0  0  0  0
  180.9170  180.2010  139.7820 C   0  0  1  0  0  3  0  0  0  0  0  0
  182.5000  179.1510  142.9540 C   0  0  1  0  0  3  0  0  0  0  0  0
  180.5700  179.2880  138.6140 C   0  0  2  0  0  3  0  0  0  0  0  0
  181.1450  177.2090  137.4340 C   0  0  0  0  0  0  0  0  0  0  0  0
  183.9790  178.7740  143.1050 C   0  0  2  0  0  3  0  0  0  0  0  0
  181.8660  178.6340  141.6550 C   0  0  1  0  0  3  0  0  0  0  0  0
  187.2660  178.1120  138.4380 C   0  0  0  0  0  3  0  0  0  0  0  0
  179.2070  179.4330  138.3300 O   0  0  0  0  0  0  0  0  0  0  0  0
  179.9300  181.3220  139.6050 C   0  0  0  0  0  2  0  0  0  0  0  0
  187.1310  179.0050  140.6380 O   0  0  0  0  0  1  0  0  0  0  0  0
  183.1980  177.3880  138.2560 C   0  0  0  0  0  0  0  0  0  0  0  0
  186.7030  177.5360  137.3050 C   0  0  0  0  0  3  0  0  0  0  0  0
  185.0790  178.1580  139.5520 C   0  0  0  0  0  0  0  0  0  0  0  0
  182.3280  177.7750  139.2950 N   0  0  0  0  0  0  0  0  0  0  0  0
  180.1930  176.9340  136.6600 O   0  0  0  0  0  0  0  0  0  0  0  0
  180.9660  177.8210  138.7930 C   0  0  1  0  0  3  0  0  0  0  0  0
  178.9340  180.7900  138.5860 C   0  0  0  0  0  2  0  0  0  0  0  0
  179.3750  178.9200  141.4040 C   0  0  0  0  0  1  0  0  0  0  0  0
  185.3380  177.2780  137.2630 C   0  0  0  0  0  3  0  0  0  0  0  0
  184.5190  177.5790  138.3580 C   0  0  0  0  0  0  0  0  0  0  0  0
  180.7400  179.5650  141.1730 C   0  0  2  0  0  3  0  0  0  0  0  0
  184.6130  179.4100  144.3450 C   0  0  0  0  0  2  0  0  0  0  0  0
  184.5580  178.6130  146.5930 O   0  0  0  0  0  1  0  0  0  0  0  0
  185.1210  178.3730  145.3390 C   0  0  0  0  0  2  0  0  0  0  0  0
  1  4  1  0  0  0  0
  1  5  1  1  0  0  0
  2 19  1  0  0  0  0
  2 16  1  0  0  0  0
  3 10  1  0  0  0  0
  3 17  2  0  0  0  0
  4 20  1  6  0  0  0
  4 12  1  0  0  0  0
  5 11  1  0  0  0  0
  7 15  1  1  0  0  0
  7 27  1  0  0  0  0
  8 11  1  0  0  0  0
  8  6  1  1  0  0  0
  9 14  1  1  0  0  0
  9 22  1  0  0  0  0
  9  7  1  0  0  0  0
 10 22  1  0  0  0  0
 11 28  1  1  0  0  0
 12  8  1  0  0  0  0
 13  2  2  0  0  0  0
 14 23  1  0  0  0  0
 17 26  1  0  0  0  0
 17 20  1  0  0  0  0
 18 13  1  0  0  0  0
 19  1  1  0  0  0  0
 21 10  2  0  0  0  0
 22 20  1  0  0  0  0
 23 15  1  0  0  0  0
 25 18  2  0  0  0  0
 25 26  1  0  0  0  0
 26 19  2  0  0  0  0
 27 24  1  0  0  0  0
 27 12  1  0  0  0  0
 28 30  1  0  0  0  0
 30 29  1  0  0  0  0
M  END
>  <MODEL>
7

>  <REMARK>
 VINA RESULT:      -6.6      2.254      5.389
  Name = 
  2 active torsions:
  status: ('A' for Active; 'I' for Inactive)
    1  A    between atoms: C_11  and  C_28
    2  A    between atoms: C_28  and  C_30
                            x       y       z     vdW  Elec       q    Type
                         _______ _______ _______ _____ _____    ______ ____

>  <TORSDO>
F 2

$$$$
=
 OpenBabel11122410253D

 30 35  0  0  1  0  0  0  0  0999 V2000
  185.3560  178.1320  138.9430 C   0  0  1  0  0  3  0  0  0  0  0  0
  185.7520  178.8880  141.2510 C   0  0  0  0  0  0  0  0  0  0  0  0
  181.3240  177.3100  139.8860 N   0  0  0  0  0  0  0  0  0  0  0  0
  184.3710  177.8200  137.8280 C   0  0  1  0  0  3  0  0  0  0  0  0
  186.8140  178.1970  138.5780 C   0  0  0  0  0  2  0  0  0  0  0  0
  186.4690  177.8220  134.7450 C   0  0  0  0  0  1  0  0  0  0  0  0
  184.1090  174.7780  137.4370 C   0  0  1  0  0  3  0  0  0  0  0  0
  186.3940  177.4150  136.2140 C   0  0  1  0  0  3  0  0  0  0  0  0
  182.6540  174.9760  137.8400 C   0  0  2  0  0  3  0  0  0  0  0  0
  180.9970  176.5700  138.7100 C   0  0  0  0  0  0  0  0  0  0  0  0
  187.0230  178.4990  137.0980 C   0  0  2  0  0  3  0  0  0  0  0  0
  184.9320  177.1090  136.5680 C   0  0  1  0  0  3  0  0  0  0  0  0
  185.2370  179.1830  142.5160 C   0  0  0  0  0  3  0  0  0  0  0  0
  181.8650  174.0940  137.0910 O   0  0  0  0  0  0  0  0  0  0  0  0
  184.1290  173.3270  137.0440 C   0  0  0  0  0  2  0  0  0  0  0  0
  187.1170  179.0900  141.0620 O   0  0  0  0  0  1  0  0  0  0  0  0
  182.6680  177.7010  139.6340 C   0  0  0  0  0  0  0  0  0  0  0  0
  183.8860  179.0130  142.7980 C   0  0  0  0  0  3  0  0  0  0  0  0
  184.8960  178.4170  140.2090 C   0  0  0  0  0  0  0  0  0  0  0  0
  183.1310  177.2850  138.3700 N   0  0  0  0  0  0  0  0  0  0  0  0
  179.8560  176.0770  138.5200 O   0  0  0  0  0  0  0  0  0  0  0  0
  182.1440  176.4170  137.7550 C   0  0  1  0  0  3  0  0  0  0  0  0
  182.6610  172.9420  136.9460 C   0  0  0  0  0  2  0  0  0  0  0  0
  183.6780  175.5660  135.0200 C   0  0  0  0  0  1  0  0  0  0  0  0
  183.0280  178.5340  141.8140 C   0  0  0  0  0  3  0  0  0  0  0  0
  183.5050  178.2320  140.5330 C   0  0  0  0  0  0  0  0  0  0  0  0
  184.5750  175.6460  136.2530 C   0  0  2  0  0  3  0  0  0  0  0  0
  188.5130  178.6910  136.8040 C   0  0  0  0  0  2  0  0  0  0  0  0
  190.2810  177.3300  137.6490 O   0  0  0  0  0  1  0  0  0  0  0  0
  189.3950  178.3500  137.9980 C   0  0  0  0  0  2  0  0  0  0  0  0
  1  5  1  6  0  0  0
  1 19  1  0  0  0  0
  2 13  1  0  0  0  0
  4 20  1  1  0  0  0
  4  1  1  0  0  0  0
  7 15  1  6  0  0  0
  7  9  1  0  0  0  0
  8  6  1  6  0  0  0
  8 12  1  0  0  0  0
  8 11  1  0  0  0  0
  9 14  1  6  0  0  0
 10  3  1  0  0  0  0
 11 28  1  1  0  0  0
 11  5  1  0  0  0  0
 12  4  1  0  0  0  0
 13 18  2  0  0  0  0
 16  2  1  0  0  0  0
 17  3  2  0  0  0  0
 17 26  1  0  0  0  0
 19 26  1  0  0  0  0
 19  2  2  0  0  0  0
 20 17  1  0  0  0  0
 21 10  2  0  0  0  0
 22  9  1  0  0  0  0
 22 20  1  0  0  0  0
 22 10  1  0  0  0  0
 23 15  1  0  0  0  0
 23 14  1  0  0  0  0
 24 27  1  0  0  0  0
 25 18  1  0  0  0  0
 26 25  2  0  0  0  0
 27 12  1  0  0  0  0
 27  7  1  0  0  0  0
 28 30  1  0  0  0  0
 29 30  1  0  0  0  0
M  END
>  <MODEL>
8

>  <REMARK>
 VINA RESULT:      -6.5      2.346      3.496
  Name = 
  2 active torsions:
  status: ('A' for Active; 'I' for Inactive)
    1  A    between atoms: C_11  and  C_28
    2  A    between atoms: C_28  and  C_30
                            x       y       z     vdW  Elec       q    Type
                         _______ _______ _______ _____ _____    ______ ____

>  <TORSDO>
F 2

$$$$
=
 OpenBabel11122410253D

 30 35  0  0  1  0  0  0  0  0999 V2000
  187.5480  177.8370  140.8360 C   0  0  1  0  0  3  0  0  0  0  0  0
  188.9050  177.0760  142.7420 C   0  0  0  0  0  0  0  0  0  0  0  0
  184.3640  178.7630  143.4480 N   0  0  0  0  0  0  0  0  0  0  0  0
  186.3590  178.6330  140.3210 C   0  0  1  0  0  3  0  0  0  0  0  0
  188.5420  177.3460  139.8180 C   0  0  0  0  0  2  0  0  0  0  0  0
  187.0860  179.0950  136.6920 C   0  0  0  0  0  1  0  0  0  0  0  0
  184.0920  176.7440  139.4460 C   0  0  1  0  0  3  0  0  0  0  0  0
  187.1370  178.1270  137.8700 C   0  0  1  0  0  3  0  0  0  0  0  0
  183.2810  177.4070  140.5520 C   0  0  2  0  0  3  0  0  0  0  0  0
  183.3530  178.9550  142.4600 C   0  0  0  0  0  0  0  0  0  0  0  0
  188.5160  178.1780  138.5400 C   0  0  2  0  0  3  0  0  0  0  0  0
  185.9810  178.4510  138.8270 C   0  0  1  0  0  3  0  0  0  0  0  0
  189.0470  176.9320  144.1240 C   0  0  0  0  0  3  0  0  0  0  0  0
  181.9530  177.5160  140.1200 O   0  0  0  0  0  0  0  0  0  0  0  0
  183.0620  175.8730  138.7840 C   0  0  0  0  0  2  0  0  0  0  0  0
  189.9660  176.6450  141.9500 O   0  0  0  0  0  1  0  0  0  0  0  0
  185.5170  178.5090  142.6560 C   0  0  0  0  0  0  0  0  0  0  0  0
  188.0400  177.3340  144.9950 C   0  0  0  0  0  3  0  0  0  0  0  0
  187.7230  177.6580  142.1890 C   0  0  0  0  0  0  0  0  0  0  0  0
  185.2600  178.5920  141.2720 N   0  0  0  0  0  0  0  0  0  0  0  0
  182.1670  179.2490  142.7580 O   0  0  0  0  0  0  0  0  0  0  0  0
  183.8330  178.7430  141.0540 C   0  0  1  0  0  3  0  0  0  0  0  0
  181.7350  176.3610  139.3460 C   0  0  0  0  0  2  0  0  0  0  0  0
  183.6880  178.6950  137.8090 C   0  0  0  0  0  1  0  0  0  0  0  0
  186.8670  177.8830  144.4900 C   0  0  0  0  0  3  0  0  0  0  0  0
  186.6890  178.0490  143.1110 C   0  0  0  0  0  0  0  0  0  0  0  0
  184.6920  177.7170  138.4150 C   0  0  2  0  0  3  0  0  0  0  0  0
  189.6340  177.7280  137.5950 C   0  0  0  0  0  2  0  0  0  0  0  0
  190.2990  175.4460  137.7940 O   0  0  0  0  0  1  0  0  0  0  0  0
  189.4420  176.3010  137.0990 C   0  0  0  0  0  2  0  0  0  0  0  0
  1  5  1  1  0  0  0
  1 19  1  0  0  0  0
  2 13  1  0  0  0  0
  4  1  1  0  0  0  0
  4 20  1  1  0  0  0
  7 15  1  6  0  0  0
  7  9  1  0  0  0  0
  8  6  1  6  0  0  0
  8 11  1  0  0  0  0
  8 12  1  0  0  0  0
  9 14  1  6  0  0  0
  9 22  1  0  0  0  0
 10 21  2  0  0  0  0
 10  3  1  0  0  0  0
 11 28  1  6  0  0  0
 11  5  1  0  0  0  0
 12  4  1  0  0  0  0
 13 18  2  0  0  0  0
 15 23  1  0  0  0  0
 16  2  1  0  0  0  0
 17 26  1  0  0  0  0
 17  3  2  0  0  0  0
 19  2  2  0  0  0  0
 19 26  1  0  0  0  0
 20 17  1  0  0  0  0
 22 20  1  0  0  0  0
 22 10  1  0  0  0  0
 23 14  1  0  0  0  0
 24 27  1  0  0  0  0
 25 18  1  0  0  0  0
 26 25  2  0  0  0  0
 27 12  1  0  0  0  0
 27  7  1  0  0  0  0
 30 28  1  0  0  0  0
 30 29  1  0  0  0  0
M  END
>  <MODEL>
9

>  <REMARK>
 VINA RESULT:      -6.4      1.623      2.387
  Name = 
  2 active torsions:
  status: ('A' for Active; 'I' for Inactive)
    1  A    between atoms: C_11  and  C_28
    2  A    between atoms: C_28  and  C_30
                            x       y       z     vdW  Elec       q    Type
                         _______ _______ _______ _____ _____    ______ ____

>  <TORSDO>
F 2

$$$$
