=
 OpenBabel11122411113D

 31 35  0  0  1  0  0  0  0  0999 V2000
  184.6870  178.7720  144.8020 C   0  0  0  0  0  0  0  0  0  0  0  0
  188.1780  177.6230  143.9750 C   0  0  0  0  0  0  0  0  0  0  0  0
  188.8670  177.4640  145.2140 C   0  0  0  0  0  0  0  0  0  0  0  0
  188.9840  177.5480  147.6530 C   0  0  0  0  0  0  0  0  0  0  0  0
  186.8170  178.0480  143.8490 C   0  0  0  0  0  0  0  0  0  0  0  0
  184.1370  178.8830  143.5260 C   0  0  0  0  0  3  0  0  0  0  0  0
  188.2720  177.7150  146.4640 C   0  0  0  0  0  3  0  0  0  0  0  0
  188.3080  177.4600  141.5190 C   0  0  0  0  0  0  0  0  0  0  0  0
  183.9160  179.0720  145.9180 O   0  0  0  0  0  1  0  0  0  0  0  0
  190.8310  176.7810  144.0210 N   0  0  0  0  0  0  0  0  0  0  0  0
  188.3690  177.8030  148.8710 O   0  0  0  0  0  1  0  0  0  0  0  0
  186.9810  177.8760  141.4230 C   0  0  0  0  0  3  0  0  0  0  0  0
  188.9040  177.3330  142.7850 C   0  0  0  0  0  0  0  0  0  0  0  0
  186.0100  178.3600  144.9580 C   0  0  0  0  0  3  0  0  0  0  0  0
  190.3120  177.1240  147.6170 C   0  0  0  0  0  3  0  0  0  0  0  0
  186.2390  178.1680  142.5590 C   0  0  0  0  0  0  0  0  0  0  0  0
  184.9120  178.5820  142.4070 C   0  0  0  0  0  3  0  0  0  0  0  0
  190.1980  176.9250  142.8610 N   0  0  0  0  0  0  0  0  0  0  0  0
  190.2160  177.0350  145.1980 C   0  0  0  0  0  0  0  0  0  0  0  0
  190.9260  176.8680  146.3910 C   0  0  0  0  0  3  0  0  0  0  0  0
  188.7740  179.1530  139.1450 O   0  0  0  0  0  0  0  0  0  0  0  0
  189.2850  178.0020  139.2050 C   0  0  0  0  0  0  0  0  0  0  0  0
  189.0790  177.1560  140.3440 N   0  0  0  0  0  2  0  0  0  0  0  0
  190.4750  174.7760  137.1720 C   0  0  0  0  0  0  0  0  0  0  0  0
  189.2390  176.8600  137.0200 C   0  0  0  0  0  3  0  0  0  0  0  0
  192.1500  177.1300  139.4930 O   0  0  0  0  0  1  0  0  0  0  0  0
  190.6150  173.5810  136.8020 O   0  0  0  0  0  0  0  0  0  0  0  0
  189.4020  175.6010  136.6100 C   0  0  0  0  0  3  0  0  0  0  0  0
  191.2430  176.6140  138.5760 C   0  0  0  0  0  0  0  0  0  0  0  0
  190.1180  177.4970  138.0730 C   0  0  2  0  0  3  0  0  0  0  0  0
  191.3940  175.3540  138.1580 C   0  0  0  0  0  3  0  0  0  0  0  0
  1 14  1  0  0  0  0
  1  9  1  0  0  0  0
  2  3  1  0  0  0  0
  3  7  1  0  0  0  0
  4 11  1  0  0  0  0
  5  2  1  0  0  0  0
  5 14  2  0  0  0  0
  6  1  2  0  0  0  0
  7  4  2  0  0  0  0
  8 13  1  0  0  0  0
 10 19  1  0  0  0  0
 12  8  2  0  0  0  0
 12 16  1  0  0  0  0
 13 18  1  0  0  0  0
 13  2  2  0  0  0  0
 15  4  1  0  0  0  0
 16  5  1  0  0  0  0
 17 16  2  0  0  0  0
 17  6  1  0  0  0  0
 18 10  2  0  0  0  0
 19  3  2  0  0  0  0
 19 20  1  0  0  0  0
 20 15  2  0  0  0  0
 21 22  2  0  0  0  0
 22 23  1  0  0  0  0
 23  8  1  0  0  0  0
 24 31  1  0  0  0  0
 25 30  1  0  0  0  0
 27 24  2  0  0  0  0
 28 25  2  0  0  0  0
 28 24  1  0  0  0  0
 29 26  1  0  0  0  0
 30 29  1  0  0  0  0
 30 22  1  1  0  0  0
 31 29  2  0  0  0  0
M  END
>  <MODEL>
1

>  <REMARK>
 VINA RESULT:     -11.4      0.000      0.000
  Name = 
  2 active torsions:
  status: ('A' for Active; 'I' for Inactive)
    1  A    between atoms: C_5  and  C_30
    2  A    between atoms: C_10  and  N_16
                            x       y       z     vdW  Elec       q    Type
                         _______ _______ _______ _____ _____    ______ ____

>  <TORSDO>
F 2

$$$$
=
 OpenBabel11122411113D

 31 35  0  0  1  0  0  0  0  0999 V2000
  190.0070  177.1190  146.3290 C   0  0  0  0  0  0  0  0  0  0  0  0
  187.6600  177.8950  143.4850 C   0  0  0  0  0  0  0  0  0  0  0  0
  186.3940  178.2080  144.0650 C   0  0  0  0  0  0  0  0  0  0  0  0
  184.9050  178.5130  145.9780 C   0  0  0  0  0  0  0  0  0  0  0  0
  188.8310  177.5420  144.2290 C   0  0  0  0  0  0  0  0  0  0  0  0
  191.1800  176.8380  145.6320 C   0  0  0  0  0  3  0  0  0  0  0  0
  186.1600  178.2010  145.4520 C   0  0  0  0  0  3  0  0  0  0  0  0
  188.9590  177.6490  141.4060 C   0  0  0  0  0  0  0  0  0  0  0  0
  189.9900  177.0540  147.7160 O   0  0  0  0  0  1  0  0  0  0  0  0
  185.4900  178.5620  141.8740 N   0  0  0  0  0  0  0  0  0  0  0  0
  184.7040  178.4980  147.3510 O   0  0  0  0  0  1  0  0  0  0  0  0
  190.0860  177.3080  142.1520 C   0  0  0  0  0  3  0  0  0  0  0  0
  187.7540  177.9420  142.0650 C   0  0  0  0  0  0  0  0  0  0  0  0
  188.8480  177.4670  145.6330 C   0  0  0  0  0  3  0  0  0  0  0  0
  183.8530  178.8400  145.1220 C   0  0  0  0  0  3  0  0  0  0  0  0
  190.0360  177.2520  143.5390 C   0  0  0  0  0  0  0  0  0  0  0  0
  191.1940  176.9050  144.2400 C   0  0  0  0  0  3  0  0  0  0  0  0
  186.6660  178.2730  141.3220 N   0  0  0  0  0  0  0  0  0  0  0  0
  185.3140  178.5420  143.2140 C   0  0  0  0  0  0  0  0  0  0  0  0
  184.0580  178.8540  143.7430 C   0  0  0  0  0  3  0  0  0  0  0  0
  190.6370  176.0640  139.5640 O   0  0  0  0  0  0  0  0  0  0  0  0
  189.8380  176.9240  139.1030 C   0  0  0  0  0  0  0  0  0  0  0  0
  189.0100  177.7090  139.9710 N   0  0  0  0  0  2  0  0  0  0  0  0
  187.3980  177.6030  136.0140 C   0  0  0  0  0  0  0  0  0  0  0  0
  189.2130  178.5270  137.3360 C   0  0  0  0  0  3  0  0  0  0  0  0
  189.4430  174.7110  137.1030 O   0  0  0  0  0  1  0  0  0  0  0  0
  186.3570  177.8000  135.3340 O   0  0  0  0  0  0  0  0  0  0  0  0
  188.1240  178.7360  136.5950 C   0  0  0  0  0  3  0  0  0  0  0  0
  188.9890  176.0160  136.9560 C   0  0  0  0  0  0  0  0  0  0  0  0
  189.7480  177.1430  137.6280 C   0  0  2  0  0  3  0  0  0  0  0  0
  187.8980  176.2400  136.2180 C   0  0  0  0  0  3  0  0  0  0  0  0
  1  9  1  0  0  0  0
  2  3  1  0  0  0  0
  2  5  1  0  0  0  0
  3  7  1  0  0  0  0
  4 11  1  0  0  0  0
  5 14  2  0  0  0  0
  6  1  2  0  0  0  0
  7  4  2  0  0  0  0
  8 13  1  0  0  0  0
  8 12  2  0  0  0  0
 10 19  1  0  0  0  0
 12 16  1  0  0  0  0
 13  2  2  0  0  0  0
 14  1  1  0  0  0  0
 15  4  1  0  0  0  0
 16  5  1  0  0  0  0
 16 17  2  0  0  0  0
 17  6  1  0  0  0  0
 18 10  2  0  0  0  0
 18 13  1  0  0  0  0
 19 20  1  0  0  0  0
 19  3  2  0  0  0  0
 20 15  2  0  0  0  0
 22 21  2  0  0  0  0
 22 23  1  0  0  0  0
 23  8  1  0  0  0  0
 24 31  1  0  0  0  0
 24 28  1  0  0  0  0
 25 30  1  0  0  0  0
 27 24  2  0  0  0  0
 28 25  2  0  0  0  0
 29 26  1  0  0  0  0
 29 30  1  0  0  0  0
 30 22  1  1  0  0  0
 31 29  2  0  0  0  0
M  END
>  <MODEL>
2

>  <REMARK>
 VINA RESULT:     -11.1      1.727      4.393
  Name = 
  2 active torsions:
  status: ('A' for Active; 'I' for Inactive)
    1  A    between atoms: C_5  and  C_30
    2  A    between atoms: C_10  and  N_16
                            x       y       z     vdW  Elec       q    Type
                         _______ _______ _______ _____ _____    ______ ____

>  <TORSDO>
F 2

$$$$
=
 OpenBabel11122411113D

 31 35  0  0  1  0  0  0  0  0999 V2000
  190.1840  177.1140  147.0820 C   0  0  0  0  0  0  0  0  0  0  0  0
  188.3730  177.5000  143.8000 C   0  0  0  0  0  0  0  0  0  0  0  0
  187.0680  177.9900  144.1020 C   0  0  0  0  0  0  0  0  0  0  0  0
  185.3390  178.7280  145.6620 C   0  0  0  0  0  0  0  0  0  0  0  0
  189.3820  177.2180  144.7760 C   0  0  0  0  0  0  0  0  0  0  0  0
  191.4200  176.6400  146.6470 C   0  0  0  0  0  3  0  0  0  0  0  0
  186.6260  178.2500  145.4120 C   0  0  0  0  0  3  0  0  0  0  0  0
  189.9460  176.8010  142.0370 C   0  0  0  0  0  0  0  0  0  0  0  0
  189.9520  177.3040  148.4380 O   0  0  0  0  0  1  0  0  0  0  0  0
  186.5410  177.9930  141.7630 N   0  0  0  0  0  0  0  0  0  0  0  0
  184.9320  178.9750  146.9660 O   0  0  0  0  0  1  0  0  0  0  0  0
  190.9120  176.5340  143.0050 C   0  0  0  0  0  3  0  0  0  0  0  0
  188.6860  177.2820  142.4280 C   0  0  0  0  0  0  0  0  0  0  0  0
  189.1800  177.3990  146.1560 C   0  0  0  0  0  3  0  0  0  0  0  0
  184.4620  178.9570  144.6020 C   0  0  0  0  0  3  0  0  0  0  0  0
  190.6470  176.7350  144.3540 C   0  0  0  0  0  0  0  0  0  0  0  0
  191.6510  176.4510  145.2850 C   0  0  0  0  0  3  0  0  0  0  0  0
  187.7560  177.5370  141.4710 N   0  0  0  0  0  0  0  0  0  0  0  0
  186.1630  178.2290  143.0400 C   0  0  0  0  0  0  0  0  0  0  0  0
  184.8740  178.7070  143.2940 C   0  0  0  0  0  3  0  0  0  0  0  0
  192.1760  177.8770  140.4270 O   0  0  0  0  0  0  0  0  0  0  0  0
  191.3120  177.1340  139.8860 C   0  0  0  0  0  0  0  0  0  0  0  0
  190.2180  176.5960  140.6400 N   0  0  0  0  0  2  0  0  0  0  0  0
  191.1340  174.2400  137.1380 C   0  0  0  0  0  0  0  0  0  0  0  0
  190.0920  176.2910  137.9160 C   0  0  0  0  0  3  0  0  0  0  0  0
  193.8710  176.3120  138.5340 O   0  0  0  0  0  1  0  0  0  0  0  0
  191.0090  173.1090  136.6000 O   0  0  0  0  0  0  0  0  0  0  0  0
  189.9630  175.1020  137.3240 C   0  0  0  0  0  3  0  0  0  0  0  0
  192.5980  175.8970  138.1620 C   0  0  0  0  0  0  0  0  0  0  0  0
  191.4160  176.8070  138.4320 C   0  0  2  0  0  3  0  0  0  0  0  0
  192.4550  174.7080  137.5700 C   0  0  0  0  0  3  0  0  0  0  0  0
  1  9  1  0  0  0  0
  2  3  1  0  0  0  0
  2  5  1  0  0  0  0
  3  7  2  0  0  0  0
  4 11  1  0  0  0  0
  5 14  1  0  0  0  0
  6  1  1  0  0  0  0
  7  4  1  0  0  0  0
  8 13  1  0  0  0  0
  8 12  2  0  0  0  0
 10 19  1  0  0  0  0
 12 16  1  0  0  0  0
 13  2  2  0  0  0  0
 14  1  2  0  0  0  0
 15  4  2  0  0  0  0
 16  5  2  0  0  0  0
 16 17  1  0  0  0  0
 17  6  2  0  0  0  0
 18 10  2  0  0  0  0
 18 13  1  0  0  0  0
 19 20  2  0  0  0  0
 19  3  1  0  0  0  0
 20 15  1  0  0  0  0
 22 21  2  0  0  0  0
 22 23  1  0  0  0  0
 23  8  1  0  0  0  0
 24 28  1  0  0  0  0
 24 31  1  0  0  0  0
 25 30  1  0  0  0  0
 27 24  2  0  0  0  0
 28 25  2  0  0  0  0
 29 30  1  0  0  0  0
 29 26  1  0  0  0  0
 30 22  1  1  0  0  0
 31 29  2  0  0  0  0
M  END
>  <MODEL>
3

>  <REMARK>
 VINA RESULT:     -11.0      1.442      4.065
  Name = 
  2 active torsions:
  status: ('A' for Active; 'I' for Inactive)
    1  A    between atoms: C_5  and  C_30
    2  A    between atoms: C_10  and  N_16
                            x       y       z     vdW  Elec       q    Type
                         _______ _______ _______ _____ _____    ______ ____

>  <TORSDO>
F 2

$$$$
=
 OpenBabel11122411113D

 31 35  0  0  1  0  0  0  0  0999 V2000
  184.9380  178.6190  145.4950 C   0  0  0  0  0  0  0  0  0  0  0  0
  187.8850  177.9180  143.2540 C   0  0  0  0  0  0  0  0  0  0  0  0
  188.9690  177.5390  144.1010 C   0  0  0  0  0  0  0  0  0  0  0  0
  189.9510  177.0960  146.2940 C   0  0  0  0  0  0  0  0  0  0  0  0
  186.5750  178.2670  143.7160 C   0  0  0  0  0  0  0  0  0  0  0  0
  183.9700  178.9690  144.5550 C   0  0  0  0  0  3  0  0  0  0  0  0
  188.8640  177.4700  145.5020 C   0  0  0  0  0  3  0  0  0  0  0  0
  187.1260  178.3060  140.9430 C   0  0  0  0  0  0  0  0  0  0  0  0
  184.6220  178.6140  146.8480 O   0  0  0  0  0  1  0  0  0  0  0  0
  190.3660  177.2690  142.1720 N   0  0  0  0  0  0  0  0  0  0  0  0
  189.8170  177.0360  147.6740 O   0  0  0  0  0  1  0  0  0  0  0  0
  185.8580  178.6420  141.4160 C   0  0  0  0  0  3  0  0  0  0  0  0
  188.1320  177.9450  141.8530 C   0  0  0  0  0  0  0  0  0  0  0  0
  186.2230  178.2730  145.0780 C   0  0  0  0  0  3  0  0  0  0  0  0
  191.1720  176.7810  145.6970 C   0  0  0  0  0  3  0  0  0  0  0  0
  185.5760  178.6260  142.7760 C   0  0  0  0  0  0  0  0  0  0  0  0
  184.2890  178.9720  143.1980 C   0  0  0  0  0  3  0  0  0  0  0  0
  189.3620  177.6200  141.3740 N   0  0  0  0  0  0  0  0  0  0  0  0
  190.2160  177.2160  143.5150 C   0  0  0  0  0  0  0  0  0  0  0  0
  191.3030  176.8420  144.3100 C   0  0  0  0  0  3  0  0  0  0  0  0
  185.2340  178.3230  138.6750 O   0  0  0  0  0  0  0  0  0  0  0  0
  186.4760  178.3260  138.4570 C   0  0  0  0  0  0  0  0  0  0  0  0
  187.4200  178.3190  139.5350 N   0  0  0  0  0  2  0  0  0  0  0  0
  188.9200  176.5710  135.8290 C   0  0  0  0  0  0  0  0  0  0  0  0
  186.5970  177.0510  136.3500 C   0  0  0  0  0  3  0  0  0  0  0  0
  188.9170  179.8440  137.5670 O   0  0  0  0  0  1  0  0  0  0  0  0
  189.7670  175.7910  135.3220 O   0  0  0  0  0  0  0  0  0  0  0  0
  187.4940  176.2360  135.7910 C   0  0  0  0  0  3  0  0  0  0  0  0
  188.4660  178.6530  137.0120 C   0  0  0  0  0  0  0  0  0  0  0  0
  186.9850  178.3330  137.0520 C   0  0  2  0  0  3  0  0  0  0  0  0
  189.3530  177.8270  136.4500 C   0  0  0  0  0  3  0  0  0  0  0  0
  1  9  1  0  0  0  0
  2  5  1  0  0  0  0
  2  3  1  0  0  0  0
  3  7  1  0  0  0  0
  4 11  1  0  0  0  0
  5 14  2  0  0  0  0
  6  1  2  0  0  0  0
  7  4  2  0  0  0  0
  8 12  2  0  0  0  0
  8 13  1  0  0  0  0
 10 19  1  0  0  0  0
 12 16  1  0  0  0  0
 13  2  2  0  0  0  0
 14  1  1  0  0  0  0
 15  4  1  0  0  0  0
 16 17  2  0  0  0  0
 16  5  1  0  0  0  0
 17  6  1  0  0  0  0
 18 13  1  0  0  0  0
 18 10  2  0  0  0  0
 19  3  2  0  0  0  0
 19 20  1  0  0  0  0
 20 15  2  0  0  0  0
 22 21  2  0  0  0  0
 22 23  1  0  0  0  0
 23  8  1  0  0  0  0
 24 31  1  0  0  0  0
 25 30  1  0  0  0  0
 27 24  2  0  0  0  0
 28 24  1  0  0  0  0
 28 25  2  0  0  0  0
 29 30  1  0  0  0  0
 29 26  1  0  0  0  0
 30 22  1  1  0  0  0
 31 29  2  0  0  0  0
M  END
>  <MODEL>
4

>  <REMARK>
 VINA RESULT:     -11.0      1.791      2.241
  Name = 
  2 active torsions:
  status: ('A' for Active; 'I' for Inactive)
    1  A    between atoms: C_5  and  C_30
    2  A    between atoms: C_10  and  N_16
                            x       y       z     vdW  Elec       q    Type
                         _______ _______ _______ _____ _____    ______ ____

>  <TORSDO>
F 2

$$$$
=
 OpenBabel11122411113D

 31 35  0  0  1  0  0  0  0  0999 V2000
  186.6130  178.0260  146.9490 C   0  0  0  0  0  0  0  0  0  0  0  0
  187.6680  178.0430  143.3310 C   0  0  0  0  0  0  0  0  0  0  0  0
  189.0150  177.5730  143.2900 C   0  0  0  0  0  0  0  0  0  0  0  0
  191.0520  176.7430  144.3530 C   0  0  0  0  0  0  0  0  0  0  0  0
  186.8930  178.1870  144.5260 C   0  0  0  0  0  0  0  0  0  0  0  0
  185.3050  178.4970  146.8430 C   0  0  0  0  0  3  0  0  0  0  0  0
  189.7350  177.1970  144.4390 C   0  0  0  0  0  3  0  0  0  0  0  0
  185.7400  178.8600  142.0340 C   0  0  0  0  0  0  0  0  0  0  0  0
  187.1380  177.7080  148.1940 O   0  0  0  0  0  1  0  0  0  0  0  0
  189.0180  177.8270  140.9070 N   0  0  0  0  0  0  0  0  0  0  0  0
  191.7370  176.3790  145.5040 O   0  0  0  0  0  1  0  0  0  0  0  0
  185.0050  178.9920  143.2110 C   0  0  0  0  0  3  0  0  0  0  0  0
  187.0610  178.3890  142.0910 C   0  0  0  0  0  0  0  0  0  0  0  0
  187.3940  177.8740  145.8030 C   0  0  0  0  0  3  0  0  0  0  0  0
  191.6800  176.6550  143.1100 C   0  0  0  0  0  3  0  0  0  0  0  0
  185.5600  178.6640  144.4410 C   0  0  0  0  0  0  0  0  0  0  0  0
  184.7810  178.8150  145.5920 C   0  0  0  0  0  3  0  0  0  0  0  0
  187.7630  178.2660  140.9340 N   0  0  0  0  0  0  0  0  0  0  0  0
  189.6690  177.4760  142.0390 C   0  0  0  0  0  0  0  0  0  0  0  0
  190.9880  177.0220  141.9560 C   0  0  0  0  0  3  0  0  0  0  0  0
  183.4830  177.5630  140.6400 O   0  0  0  0  0  0  0  0  0  0  0  0
  184.0690  178.5450  140.1080 C   0  0  0  0  0  0  0  0  0  0  0  0
  185.1670  179.1970  140.7590 N   0  0  0  0  0  2  0  0  0  0  0  0
  181.1520  178.5030  137.3790 C   0  0  0  0  0  0  0  0  0  0  0  0
  182.3920  179.9100  138.9220 C   0  0  0  0  0  3  0  0  0  0  0  0
  184.5750  177.0920  137.5220 O   0  0  0  0  0  1  0  0  0  0  0  0
  180.0670  178.2490  136.7930 O   0  0  0  0  0  0  0  0  0  0  0  0
  181.2490  179.6540  138.2820 C   0  0  0  0  0  3  0  0  0  0  0  0
  183.4780  177.9040  137.7850 C   0  0  0  0  0  0  0  0  0  0  0  0
  183.6230  179.0450  138.7720 C   0  0  2  0  0  3  0  0  0  0  0  0
  182.3280  177.6570  137.1520 C   0  0  0  0  0  3  0  0  0  0  0  0
  1  9  1  0  0  0  0
  2  5  1  0  0  0  0
  3  2  1  0  0  0  0
  3  7  2  0  0  0  0
  4  7  1  0  0  0  0
  4 11  1  0  0  0  0
  5 14  1  0  0  0  0
  6  1  1  0  0  0  0
  8 13  1  0  0  0  0
  8 12  2  0  0  0  0
 10 18  2  0  0  0  0
 10 19  1  0  0  0  0
 12 16  1  0  0  0  0
 13  2  2  0  0  0  0
 14  1  2  0  0  0  0
 15  4  2  0  0  0  0
 16  5  2  0  0  0  0
 16 17  1  0  0  0  0
 17  6  2  0  0  0  0
 18 13  1  0  0  0  0
 19  3  1  0  0  0  0
 20 19  2  0  0  0  0
 20 15  1  0  0  0  0
 22 21  2  0  0  0  0
 22 23  1  0  0  0  0
 23  8  1  0  0  0  0
 24 28  1  0  0  0  0
 26 29  1  0  0  0  0
 27 24  2  0  0  0  0
 28 25  2  0  0  0  0
 29 30  1  0  0  0  0
 30 25  1  0  0  0  0
 30 22  1  1  0  0  0
 31 24  1  0  0  0  0
 31 29  2  0  0  0  0
M  END
>  <MODEL>
5

>  <REMARK>
 VINA RESULT:     -10.6      3.537      5.465
  Name = 
  2 active torsions:
  status: ('A' for Active; 'I' for Inactive)
    1  A    between atoms: C_5  and  C_30
    2  A    between atoms: C_10  and  N_16
                            x       y       z     vdW  Elec       q    Type
                         _______ _______ _______ _____ _____    ______ ____

>  <TORSDO>
F 2

$$$$
=
 OpenBabel11122411113D

 31 35  0  0  1  0  0  0  0  0999 V2000
  189.2220  177.0780  146.7490 C   0  0  0  0  0  0  0  0  0  0  0  0
  188.2730  177.9090  143.1980 C   0  0  0  0  0  0  0  0  0  0  0  0
  186.8840  178.2330  143.2050 C   0  0  0  0  0  0  0  0  0  0  0  0
  184.7380  178.5410  144.3320 C   0  0  0  0  0  0  0  0  0  0  0  0
  189.0280  177.5340  144.3560 C   0  0  0  0  0  0  0  0  0  0  0  0
  190.5770  176.7870  146.5980 C   0  0  0  0  0  3  0  0  0  0  0  0
  186.0950  178.2170  144.3700 C   0  0  0  0  0  3  0  0  0  0  0  0
  190.3160  177.6630  141.8420 C   0  0  0  0  0  0  0  0  0  0  0  0
  188.6310  177.0000  148.0030 O   0  0  0  0  0  1  0  0  0  0  0  0
  186.9730  178.6180  140.8410 N   0  0  0  0  0  0  0  0  0  0  0  0
  183.9860  178.5170  145.4980 O   0  0  0  0  0  1  0  0  0  0  0  0
  191.0290  177.3010  142.9840 C   0  0  0  0  0  3  0  0  0  0  0  0
  188.9490  177.9660  141.9460 C   0  0  0  0  0  0  0  0  0  0  0  0
  188.4600  177.4460  145.6400 C   0  0  0  0  0  3  0  0  0  0  0  0
  184.1380  178.8890  143.1220 C   0  0  0  0  0  3  0  0  0  0  0  0
  190.4070  177.2340  144.2240 C   0  0  0  0  0  0  0  0  0  0  0  0
  191.1680  176.8650  145.3370 C   0  0  0  0  0  3  0  0  0  0  0  0
  188.2690  178.3180  140.8230 N   0  0  0  0  0  0  0  0  0  0  0  0
  186.2570  178.5890  141.9870 C   0  0  0  0  0  0  0  0  0  0  0  0
  184.8970  178.9130  141.9520 C   0  0  0  0  0  3  0  0  0  0  0  0
  190.2310  175.6980  139.6400 O   0  0  0  0  0  0  0  0  0  0  0  0
  190.8970  176.7610  139.5080 C   0  0  0  0  0  0  0  0  0  0  0  0
  190.9580  177.7350  140.5580 N   0  0  0  0  0  2  0  0  0  0  0  0
  192.6810  175.1070  136.3390 C   0  0  0  0  0  0  0  0  0  0  0  0
  190.8480  176.5300  137.0530 C   0  0  0  0  0  3  0  0  0  0  0  0
  193.8980  176.9150  139.3370 O   0  0  0  0  0  1  0  0  0  0  0  0
  193.1240  174.2530  135.5280 O   0  0  0  0  0  0  0  0  0  0  0  0
  191.3260  175.6420  136.1800 C   0  0  0  0  0  3  0  0  0  0  0  0
  193.0580  176.4720  138.3220 C   0  0  0  0  0  0  0  0  0  0  0  0
  191.6460  177.0180  138.2410 C   0  0  2  0  0  3  0  0  0  0  0  0
  193.5230  175.5830  137.4410 C   0  0  0  0  0  3  0  0  0  0  0  0
  1  9  1  0  0  0  0
  2  3  1  0  0  0  0
  2  5  1  0  0  0  0
  3  7  2  0  0  0  0
  4  7  1  0  0  0  0
  4 11  1  0  0  0  0
  5 14  1  0  0  0  0
  6  1  1  0  0  0  0
  8 13  1  0  0  0  0
  8 12  2  0  0  0  0
 10 19  1  0  0  0  0
 12 16  1  0  0  0  0
 13  2  2  0  0  0  0
 14  1  2  0  0  0  0
 15  4  2  0  0  0  0
 16  5  2  0  0  0  0
 16 17  1  0  0  0  0
 17  6  2  0  0  0  0
 18 10  2  0  0  0  0
 18 13  1  0  0  0  0
 19  3  1  0  0  0  0
 20 19  2  0  0  0  0
 20 15  1  0  0  0  0
 22 21  2  0  0  0  0
 22 23  1  0  0  0  0
 23  8  1  0  0  0  0
 24 31  1  0  0  0  0
 25 30  1  0  0  0  0
 27 24  2  0  0  0  0
 28 24  1  0  0  0  0
 28 25  2  0  0  0  0
 29 26  1  0  0  0  0
 30 29  1  0  0  0  0
 30 22  1  1  0  0  0
 31 29  2  0  0  0  0
M  END
>  <MODEL>
6

>  <REMARK>
 VINA RESULT:     -10.6      1.589      4.203
  Name = 
  2 active torsions:
  status: ('A' for Active; 'I' for Inactive)
    1  A    between atoms: C_5  and  C_30
    2  A    between atoms: C_10  and  N_16
                            x       y       z     vdW  Elec       q    Type
                         _______ _______ _______ _____ _____    ______ ____

>  <TORSDO>
F 2

$$$$
=
 OpenBabel11122411113D

 31 35  0  0  1  0  0  0  0  0999 V2000
  190.1760  177.1280  146.3370 C   0  0  0  0  0  0  0  0  0  0  0  0
  187.7780  177.6870  143.4840 C   0  0  0  0  0  0  0  0  0  0  0  0
  186.5360  178.0890  144.0590 C   0  0  0  0  0  0  0  0  0  0  0  0
  185.1040  178.6200  145.9660 C   0  0  0  0  0  0  0  0  0  0  0  0
  188.9590  177.3760  144.2320 C   0  0  0  0  0  0  0  0  0  0  0  0
  191.3240  176.7480  145.6440 C   0  0  0  0  0  3  0  0  0  0  0  0
  186.3360  178.2240  145.4450 C   0  0  0  0  0  3  0  0  0  0  0  0
  189.0180  177.2030  141.4110 C   0  0  0  0  0  0  0  0  0  0  0  0
  190.1930  177.1990  147.7240 O   0  0  0  0  0  1  0  0  0  0  0  0
  185.5860  178.2520  141.8650 N   0  0  0  0  0  0  0  0  0  0  0  0
  184.9380  178.7450  147.3380 O   0  0  0  0  0  1  0  0  0  0  0  0
  190.1550  176.9060  142.1610 C   0  0  0  0  0  3  0  0  0  0  0  0
  187.8380  177.5920  142.0650 C   0  0  0  0  0  0  0  0  0  0  0  0
  189.0090  177.4370  145.6370 C   0  0  0  0  0  3  0  0  0  0  0  0
  184.0390  178.8910  145.1070 C   0  0  0  0  0  3  0  0  0  0  0  0
  190.1380  176.9870  143.5470 C   0  0  0  0  0  0  0  0  0  0  0  0
  191.3050  176.6780  144.2520 C   0  0  0  0  0  3  0  0  0  0  0  0
  186.7390  177.8780  141.3180 N   0  0  0  0  0  0  0  0  0  0  0  0
  185.4440  178.3680  143.2040 C   0  0  0  0  0  0  0  0  0  0  0  0
  184.2100  178.7650  143.7290 C   0  0  0  0  0  3  0  0  0  0  0  0
  189.0560  179.4110  139.4500 O   0  0  0  0  0  0  0  0  0  0  0  0
  189.0510  178.2150  139.0490 C   0  0  0  0  0  0  0  0  0  0  0  0
  189.0340  177.1210  139.9750 N   0  0  0  0  0  2  0  0  0  0  0  0
  188.0650  175.5800  136.2130 C   0  0  0  0  0  0  0  0  0  0  0  0
  187.6410  177.8140  137.0660 C   0  0  0  0  0  3  0  0  0  0  0  0
  191.2750  176.7530  137.6450 O   0  0  0  0  0  1  0  0  0  0  0  0
  187.6260  174.5490  135.6410 O   0  0  0  0  0  0  0  0  0  0  0  0
  187.1830  176.7300  136.4380 C   0  0  0  0  0  3  0  0  0  0  0  0
  189.9360  176.7240  137.2740 C   0  0  0  0  0  0  0  0  0  0  0  0
  189.0580  177.9200  137.5850 C   0  0  2  0  0  3  0  0  0  0  0  0
  189.4640  175.6440  136.6460 C   0  0  0  0  0  3  0  0  0  0  0  0
  1  9  1  0  0  0  0
  2  3  1  0  0  0  0
  2  5  1  0  0  0  0
  3  7  2  0  0  0  0
  4 11  1  0  0  0  0
  5 14  1  0  0  0  0
  6  1  1  0  0  0  0
  7  4  1  0  0  0  0
  8 13  1  0  0  0  0
  8 12  2  0  0  0  0
 10 19  1  0  0  0  0
 12 16  1  0  0  0  0
 13  2  2  0  0  0  0
 14  1  2  0  0  0  0
 15  4  2  0  0  0  0
 16  5  2  0  0  0  0
 16 17  1  0  0  0  0
 17  6  2  0  0  0  0
 18 10  2  0  0  0  0
 18 13  1  0  0  0  0
 19 20  2  0  0  0  0
 19  3  1  0  0  0  0
 20 15  1  0  0  0  0
 22 21  2  0  0  0  0
 22 23  1  0  0  0  0
 23  8  1  0  0  0  0
 24 28  1  0  0  0  0
 24 31  1  0  0  0  0
 25 30  1  0  0  0  0
 27 24  2  0  0  0  0
 28 25  2  0  0  0  0
 29 30  1  0  0  0  0
 29 26  1  0  0  0  0
 30 22  1  1  0  0  0
 31 29  2  0  0  0  0
M  END
>  <MODEL>
7

>  <REMARK>
 VINA RESULT:     -10.6      1.618      4.058
  Name = 
  2 active torsions:
  status: ('A' for Active; 'I' for Inactive)
    1  A    between atoms: C_5  and  C_30
    2  A    between atoms: C_10  and  N_16
                            x       y       z     vdW  Elec       q    Type
                         _______ _______ _______ _____ _____    ______ ____

>  <TORSDO>
F 2

$$$$
=
 OpenBabel11122411113D

 31 35  0  0  1  0  0  0  0  0999 V2000
  186.8250  177.8730  146.3550 C   0  0  0  0  0  0  0  0  0  0  0  0
  186.9990  178.2200  142.6060 C   0  0  0  0  0  0  0  0  0  0  0  0
  188.3200  177.8490  142.2160 C   0  0  0  0  0  0  0  0  0  0  0  0
  190.5890  177.0890  142.7070 C   0  0  0  0  0  0  0  0  0  0  0  0
  186.5190  178.2250  143.9550 C   0  0  0  0  0  0  0  0  0  0  0  0
  185.5070  178.2580  146.5940 C   0  0  0  0  0  3  0  0  0  0  0  0
  189.3080  177.4430  143.1320 C   0  0  0  0  0  3  0  0  0  0  0  0
  184.7800  178.9920  141.8630 C   0  0  0  0  0  0  0  0  0  0  0  0
  187.6440  177.5050  147.4140 O   0  0  0  0  0  1  0  0  0  0  0  0
  187.7500  178.2710  139.9270 N   0  0  0  0  0  0  0  0  0  0  0  0
  191.5430  176.6920  143.6340 O   0  0  0  0  0  1  0  0  0  0  0  0
  184.3370  178.9880  143.1840 C   0  0  0  0  0  3  0  0  0  0  0  0
  186.1000  178.6100  141.5730 C   0  0  0  0  0  0  0  0  0  0  0  0
  187.3220  177.8580  145.0510 C   0  0  0  0  0  3  0  0  0  0  0  0
  190.9110  177.1330  141.3500 C   0  0  0  0  0  3  0  0  0  0  0  0
  185.1820  178.6130  144.2210 C   0  0  0  0  0  0  0  0  0  0  0  0
  184.6870  178.6280  145.5280 C   0  0  0  0  0  3  0  0  0  0  0  0
  186.5150  178.6190  140.2790 N   0  0  0  0  0  0  0  0  0  0  0  0
  188.6650  177.8870  140.8450 C   0  0  0  0  0  0  0  0  0  0  0  0
  189.9500  177.5320  140.4220 C   0  0  0  0  0  3  0  0  0  0  0  0
  183.0280  177.2750  140.2190 O   0  0  0  0  0  0  0  0  0  0  0  0
  183.0680  178.5170  140.0070 C   0  0  0  0  0  0  0  0  0  0  0  0
  183.9070  179.3780  140.7880 N   0  0  0  0  0  2  0  0  0  0  0  0
  180.4310  181.3670  139.0660 C   0  0  0  0  0  0  0  0  0  0  0  0
  182.6730  180.5350  138.6450 C   0  0  0  0  0  3  0  0  0  0  0  0
  180.2380  177.6830  139.4180 O   0  0  0  0  0  1  0  0  0  0  0  0
  179.6500  182.3500  139.1570 O   0  0  0  0  0  0  0  0  0  0  0  0
  181.8400  181.5740  138.7190 C   0  0  0  0  0  3  0  0  0  0  0  0
  180.7560  178.9570  139.2200 C   0  0  0  0  0  0  0  0  0  0  0  0
  182.2330  179.1150  138.9210 C   0  0  2  0  0  3  0  0  0  0  0  0
  179.9330  180.0060  139.2930 C   0  0  0  0  0  3  0  0  0  0  0  0
  1  6  1  0  0  0  0
  1  9  1  0  0  0  0
  2  5  1  0  0  0  0
  3  2  1  0  0  0  0
  3  7  2  0  0  0  0
  4  7  1  0  0  0  0
  4 11  1  0  0  0  0
  5 16  2  0  0  0  0
  5 14  1  0  0  0  0
  8 12  2  0  0  0  0
 10 18  2  0  0  0  0
 10 19  1  0  0  0  0
 12 16  1  0  0  0  0
 13  8  1  0  0  0  0
 13  2  2  0  0  0  0
 14  1  2  0  0  0  0
 15  4  2  0  0  0  0
 16 17  1  0  0  0  0
 17  6  2  0  0  0  0
 18 13  1  0  0  0  0
 19  3  1  0  0  0  0
 20 19  2  0  0  0  0
 20 15  1  0  0  0  0
 22 21  2  0  0  0  0
 22 23  1  0  0  0  0
 23  8  1  0  0  0  0
 24 27  2  0  0  0  0
 24 31  1  0  0  0  0
 25 28  2  0  0  0  0
 25 30  1  0  0  0  0
 28 24  1  0  0  0  0
 29 31  2  0  0  0  0
 29 26  1  0  0  0  0
 30 29  1  0  0  0  0
 30 22  1  1  0  0  0
M  END
>  <MODEL>
8

>  <REMARK>
 VINA RESULT:     -10.3      3.782      6.785
  Name = 
  2 active torsions:
  status: ('A' for Active; 'I' for Inactive)
    1  A    between atoms: C_5  and  C_30
    2  A    between atoms: C_10  and  N_16
                            x       y       z     vdW  Elec       q    Type
                         _______ _______ _______ _____ _____    ______ ____

>  <TORSDO>
F 2

$$$$
=
 OpenBabel11122411113D

 31 35  0  0  1  0  0  0  0  0999 V2000
  188.1850  177.3550  146.0950 C   0  0  0  0  0  0  0  0  0  0  0  0
  187.3480  178.1060  142.4990 C   0  0  0  0  0  0  0  0  0  0  0  0
  188.5380  177.8910  141.7420 C   0  0  0  0  0  0  0  0  0  0  0  0
  190.8950  177.2800  141.5410 C   0  0  0  0  0  0  0  0  0  0  0  0
  187.2410  177.9280  143.9150 C   0  0  0  0  0  0  0  0  0  0  0  0
  186.9570  177.5990  146.7070 C   0  0  0  0  0  3  0  0  0  0  0  0
  189.7530  177.4780  142.3180 C   0  0  0  0  0  3  0  0  0  0  0  0
  184.9730  178.7600  142.4450 C   0  0  0  0  0  0  0  0  0  0  0  0
  189.2720  176.9480  146.8570 O   0  0  0  0  0  1  0  0  0  0  0  0
  187.3640  178.5020  139.7430 N   0  0  0  0  0  0  0  0  0  0  0  0
  192.0790  176.8710  142.1380 O   0  0  0  0  0  1  0  0  0  0  0  0
  184.8930  178.5800  143.8250 C   0  0  0  0  0  3  0  0  0  0  0  0
  186.1890  178.5240  141.7850 C   0  0  0  0  0  0  0  0  0  0  0  0
  188.3220  177.5180  144.7160 C   0  0  0  0  0  3  0  0  0  0  0  0
  190.8460  177.4940  140.1630 C   0  0  0  0  0  3  0  0  0  0  0  0
  186.0000  178.1720  144.5580 C   0  0  0  0  0  0  0  0  0  0  0  0
  185.8670  178.0070  145.9400 C   0  0  0  0  0  3  0  0  0  0  0  0
  186.2490  178.7040  140.4390 N   0  0  0  0  0  0  0  0  0  0  0  0
  188.5080  178.1030  140.3430 C   0  0  0  0  0  0  0  0  0  0  0  0
  189.6540  177.9050  139.5670 C   0  0  0  0  0  3  0  0  0  0  0  0
  183.2380  177.1330  140.6940 O   0  0  0  0  0  0  0  0  0  0  0  0
  183.0060  178.3640  140.8410 C   0  0  0  0  0  0  0  0  0  0  0  0
  183.8280  179.1810  141.6840 N   0  0  0  0  0  2  0  0  0  0  0  0
  180.7050  178.2710  137.5760 C   0  0  0  0  0  0  0  0  0  0  0  0
  180.7180  178.0110  139.9910 C   0  0  0  0  0  3  0  0  0  0  0  0
  183.3010  180.5930  138.8410 O   0  0  0  0  0  1  0  0  0  0  0  0
  180.2230  177.9350  136.4630 O   0  0  0  0  0  0  0  0  0  0  0  0
  180.1910  177.6730  138.8120 C   0  0  0  0  0  3  0  0  0  0  0  0
  182.3080  179.6220  138.8180 C   0  0  0  0  0  0  0  0  0  0  0  0
  181.8570  178.9960  140.1230 C   0  0  2  0  0  3  0  0  0  0  0  0
  181.7730  179.2730  137.6450 C   0  0  0  0  0  3  0  0  0  0  0  0
  1  6  1  0  0  0  0
  1  9  1  0  0  0  0
  2  5  1  0  0  0  0
  3  7  2  0  0  0  0
  3  2  1  0  0  0  0
  4 11  1  0  0  0  0
  4  7  1  0  0  0  0
  5 16  2  0  0  0  0
  5 14  1  0  0  0  0
  8 12  2  0  0  0  0
 10 19  1  0  0  0  0
 10 18  2  0  0  0  0
 12 16  1  0  0  0  0
 13  8  1  0  0  0  0
 13  2  2  0  0  0  0
 14  1  2  0  0  0  0
 15  4  2  0  0  0  0
 16 17  1  0  0  0  0
 17  6  2  0  0  0  0
 18 13  1  0  0  0  0
 19  3  1  0  0  0  0
 20 15  1  0  0  0  0
 20 19  2  0  0  0  0
 21 22  2  0  0  0  0
 22 23  1  0  0  0  0
 23  8  1  0  0  0  0
 24 31  1  0  0  0  0
 24 28  1  0  0  0  0
 25 30  1  0  0  0  0
 27 24  2  0  0  0  0
 28 25  2  0  0  0  0
 29 26  1  0  0  0  0
 29 30  1  0  0  0  0
 30 22  1  6  0  0  0
 31 29  2  0  0  0  0
M  END
>  <MODEL>
9

>  <REMARK>
 VINA RESULT:     -10.2      3.600      6.578
  Name = 
  2 active torsions:
  status: ('A' for Active; 'I' for Inactive)
    1  A    between atoms: C_5  and  C_30
    2  A    between atoms: C_10  and  N_16
                            x       y       z     vdW  Elec       q    Type
                         _______ _______ _______ _____ _____    ______ ____

>  <TORSDO>
F 2

$$$$
