=
 OpenBabel11122412073D

 34 40  0  0  1  0  0  0  0  0999 V2000
  182.0600  178.7790  143.3720 C   0  0  0  0  0  0  0  0  0  0  0  0
  183.5210  178.9680  145.4680 C   0  0  0  0  0  2  0  0  0  0  0  0
  181.9230  177.5960  137.0820 C   0  0  2  0  0  3  0  0  0  0  0  0
  180.8410  178.9780  141.2860 C   0  0  0  0  0  0  0  0  0  0  0  0
  182.1490  179.1020  139.1440 C   0  0  2  0  0  3  0  0  0  0  0  0
  181.3450  179.9590  137.0270 O   0  0  0  0  0  1  0  0  0  0  0  0
  182.6660  177.3840  135.7800 C   0  0  0  0  0  1  0  0  0  0  0  0
  179.5060  177.6890  138.0070 C   0  0  0  0  0  2  0  0  0  0  0  0
  184.4830  179.0010  143.3150 C   0  0  2  0  0  3  0  0  0  0  0  0
  187.2310  177.5510  142.6950 C   0  0  0  0  0  2  0  0  0  0  0  0
  183.2030  178.2080  139.7960 C   0  0  0  0  0  2  0  0  0  0  0  0
  180.1220  177.5570  139.3890 C   0  0  0  0  0  2  0  0  0  0  0  0
  184.5650  178.3340  141.9370 C   0  0  1  0  0  3  0  0  0  0  0  0
  185.0350  178.9420  145.6640 C   0  0  0  0  0  2  0  0  0  0  0  0
  180.7620  178.8860  139.7850 C   0  0  1  0  0  3  0  0  0  0  0  0
  180.4450  177.2330  136.8900 C   0  0  0  0  0  2  0  0  0  0  0  0
  186.5380  177.6540  144.0700 C   0  0  2  0  0  3  0  0  0  0  0  0
  182.0480  178.7300  141.9640 C   0  0  0  0  0  0  0  0  0  0  0  0
  182.1890  179.0100  137.6130 C   0  0  2  0  0  3  0  0  0  0  0  0
  183.2780  178.4950  141.2280 N   0  0  0  0  0  0  0  0  0  0  0  0
  179.7400  179.2770  143.4160 C   0  0  0  0  0  3  0  0  0  0  0  0
  187.0930  178.8020  141.8230 C   0  0  0  0  0  2  0  0  0  0  0  0
  179.6830  179.2530  142.0200 C   0  0  0  0  0  3  0  0  0  0  0  0
  185.7380  178.8800  141.1090 C   0  0  0  0  0  2  0  0  0  0  0  0
  185.6730  178.9170  144.2680 C   0  0  1  0  0  3  0  0  0  0  0  0
  180.9120  179.0310  144.0600 N   0  0  0  0  0  0  0  0  0  0  0  0
  183.3300  178.4200  144.0770 C   0  0  2  0  0  3  0  0  0  0  0  0
  187.5490  177.5740  145.1110 N   0  0  0  0  0  2  0  0  0  0  0  0
  188.8290  177.3890  144.4480 C   0  0  0  0  0  2  0  0  0  0  0  0
  191.9150  176.6370  146.2710 N   0  0  0  0  0  0  0  0  0  0  0  0
  189.6820  177.0560  146.7610 C   0  0  0  0  0  3  0  0  0  0  0  0
  189.8880  177.1380  145.4620 C   0  0  0  0  0  0  0  0  0  0  0  0
  190.9960  176.7390  147.3990 C   0  0  0  0  0  2  0  0  0  0  0  0
  191.2790  176.8630  145.1720 C   0  0  0  0  0  3  0  0  0  0  0  0
  1 26  1  0  0  0  0
  1 27  1  0  0  0  0
  2 14  1  0  0  0  0
  3  7  1  6  0  0  0
  3 19  1  0  0  0  0
  4 18  1  0  0  0  0
  4 23  2  0  0  0  0
  5 15  1  0  0  0  0
  5 11  1  1  0  0  0
  6 19  1  0  0  0  0
  8 12  1  0  0  0  0
  9 27  1  0  0  0  0
  9 25  1  0  0  0  0
 10 17  1  0  0  0  0
 11 20  1  0  0  0  0
 12 15  1  0  0  0  0
 13  9  1  0  0  0  0
 15  4  1  0  0  0  0
 16  3  1  0  0  0  0
 16  8  1  0  0  0  0
 17 25  1  0  0  0  0
 17 28  1  0  0  0  0
 18  1  2  0  0  0  0
 19  5  1  0  0  0  0
 20 13  1  0  0  0  0
 20 18  1  0  0  0  0
 21 26  2  0  0  0  0
 22 10  1  0  0  0  0
 23 21  1  0  0  0  0
 24 22  1  0  0  0  0
 24 13  1  0  0  0  0
 25 14  1  0  0  0  0
 27  2  1  0  0  0  0
 29 28  1  0  0  0  0
 29 32  1  0  0  0  0
 30 33  1  0  0  0  0
 31 33  1  0  0  0  0
 32 31  2  0  0  0  0
 34 32  1  0  0  0  0
 34 30  2  0  0  0  0
M  END
>  <MODEL>
1

>  <REMARK>
 VINA RESULT:      -9.7      0.000      0.000
  Name = 
  3 active torsions:
  status: ('A' for Active; 'I' for Inactive)
    1  A    between atoms: C_17  and  N_28
    2  A    between atoms: N_28  and  C_29
    3  A    between atoms: C_29  and  C_32
                            x       y       z     vdW  Elec       q    Type
                         _______ _______ _______ _____ _____    ______ ____

>  <TORSDO>
F 3

$$$$
=
 OpenBabel11122412073D

 34 40  0  0  1  0  0  0  0  0999 V2000
  184.7090  178.5470  144.2570 C   0  0  0  0  0  0  0  0  0  0  0  0
  182.2630  179.0310  143.6690 C   0  0  0  0  0  2  0  0  0  0  0  0
  190.6430  177.6940  142.0110 C   0  0  2  0  0  3  0  0  0  0  0  0
  186.9420  177.6970  144.6680 C   0  0  0  0  0  0  0  0  0  0  0  0
  188.3030  176.9130  142.7050 C   0  0  2  0  0  3  0  0  0  0  0  0
  190.2150  175.4300  142.7950 O   0  0  0  0  0  1  0  0  0  0  0  0
  191.5730  177.4890  140.8340 C   0  0  0  0  0  1  0  0  0  0  0  0
  190.7040  177.8850  144.5920 C   0  0  0  0  0  2  0  0  0  0  0  0
  183.7890  178.3290  142.0130 C   0  0  2  0  0  3  0  0  0  0  0  0
  183.7330  179.5230  139.0790 C   0  0  0  0  0  2  0  0  0  0  0  0
  187.5970  177.9710  141.8590 C   0  0  0  0  0  2  0  0  0  0  0  0
  189.2960  178.4470  144.4980 C   0  0  0  0  0  2  0  0  0  0  0  0
  185.1670  178.5300  141.3710 C   0  0  1  0  0  3  0  0  0  0  0  0
  181.5330  179.1250  142.3310 C   0  0  0  0  0  2  0  0  0  0  0  0
  188.3190  177.3130  144.1960 C   0  0  1  0  0  3  0  0  0  0  0  0
  191.4700  177.9720  143.2720 C   0  0  0  0  0  2  0  0  0  0  0  0
  182.7520  179.8530  140.2230 C   0  0  2  0  0  3  0  0  0  0  0  0
  185.9660  178.1510  143.7600 C   0  0  0  0  0  0  0  0  0  0  0  0
  189.6620  176.5190  142.1140 C   0  0  2  0  0  3  0  0  0  0  0  0
  186.2240  178.1480  142.3310 N   0  0  0  0  0  0  0  0  0  0  0  0
  185.3900  178.0770  146.4810 C   0  0  0  0  0  3  0  0  0  0  0  0
  184.1860  178.0610  139.0390 C   0  0  0  0  0  2  0  0  0  0  0  0
  186.6470  177.6610  146.0340 C   0  0  0  0  0  3  0  0  0  0  0  0
  185.2970  177.7570  140.0510 C   0  0  0  0  0  2  0  0  0  0  0  0
  182.5310  178.7120  141.2390 C   0  0  1  0  0  3  0  0  0  0  0  0
  184.4580  178.5180  145.5940 N   0  0  0  0  0  0  0  0  0  0  0  0
  183.7190  179.1140  143.2880 C   0  0  2  0  0  3  0  0  0  0  0  0
  181.4810  180.2610  139.6460 N   0  0  0  0  0  2  0  0  0  0  0  0
  181.7790  180.9450  138.4000 C   0  0  0  0  0  2  0  0  0  0  0  0
  179.0170  183.3490  138.4440 N   0  0  0  0  0  0  0  0  0  0  0  0
  181.1200  183.1580  137.4730 C   0  0  0  0  0  3  0  0  0  0  0  0
  180.8730  182.1140  138.2390 C   0  0  0  0  0  0  0  0  0  0  0  0
  179.9320  184.0610  137.5600 C   0  0  0  0  0  3  0  0  0  0  0  0
  179.5570  182.2420  138.8260 C   0  0  0  0  0  2  0  0  0  0  0  0
  1 26  1  0  0  0  0
  3  7  1  6  0  0  0
  3 19  1  0  0  0  0
  3 16  1  0  0  0  0
  4 23  2  0  0  0  0
  5 11  1  6  0  0  0
  5 15  1  0  0  0  0
  9 27  1  0  0  0  0
 10 17  1  0  0  0  0
 11 20  1  0  0  0  0
 12  8  1  0  0  0  0
 13  9  1  0  0  0  0
 13 20  1  0  0  0  0
 14  2  1  0  0  0  0
 15 12  1  0  0  0  0
 15  4  1  0  0  0  0
 16  8  1  0  0  0  0
 17 25  1  0  0  0  0
 18  1  2  0  0  0  0
 18  4  1  0  0  0  0
 19  5  1  0  0  0  0
 19  6  1  0  0  0  0
 20 18  1  0  0  0  0
 22 10  1  0  0  0  0
 22 24  1  0  0  0  0
 23 21  1  0  0  0  0
 24 13  1  0  0  0  0
 25  9  1  0  0  0  0
 25 14  1  0  0  0  0
 26 21  2  0  0  0  0
 27  2  1  0  0  0  0
 27  1  1  0  0  0  0
 28 17  1  0  0  0  0
 29 28  1  0  0  0  0
 30 34  1  0  0  0  0
 31 33  1  0  0  0  0
 31 32  2  0  0  0  0
 32 29  1  0  0  0  0
 32 34  1  0  0  0  0
 33 30  2  0  0  0  0
M  END
>  <MODEL>
2

>  <REMARK>
 VINA RESULT:      -9.6      3.233      8.824
  Name = 
  3 active torsions:
  status: ('A' for Active; 'I' for Inactive)
    1  A    between atoms: C_17  and  N_28
    2  A    between atoms: N_28  and  C_29
    3  A    between atoms: C_29  and  C_32
                            x       y       z     vdW  Elec       q    Type
                         _______ _______ _______ _____ _____    ______ ____

>  <TORSDO>
F 3

$$$$
=
 OpenBabel11122412073D

 34 40  0  0  1  0  0  0  0  0999 V2000
  188.5530  177.3700  138.0540 C   0  0  0  0  0  0  0  0  0  0  0  0
  187.1000  178.4010  139.8960 C   0  0  0  0  0  2  0  0  0  0  0  0
  193.9810  174.2660  136.6840 C   0  0  2  0  0  3  0  0  0  0  0  0
  190.1700  176.7400  136.3610 C   0  0  0  0  0  0  0  0  0  0  0  0
  192.5520  176.3590  137.0660 C   0  0  2  0  0  3  0  0  0  0  0  0
  194.4920  176.3930  135.6180 O   0  0  0  0  0  1  0  0  0  0  0  0
  195.3380  173.7580  137.1240 C   0  0  0  0  0  1  0  0  0  0  0  0
  192.4540  174.3210  134.5940 C   0  0  0  0  0  2  0  0  0  0  0  0
  189.3680  177.8840  140.2900 C   0  0  2  0  0  3  0  0  0  0  0  0
  190.3510  176.6930  143.0560 C   0  0  0  0  0  2  0  0  0  0  0  0
  192.0210  175.8640  138.4100 C   0  0  0  0  0  2  0  0  0  0  0  0
  191.3280  174.7130  135.5330 C   0  0  0  0  0  2  0  0  0  0  0  0
  190.4810  176.8360  140.1830 C   0  0  1  0  0  3  0  0  0  0  0  0
  187.3530  178.6400  141.3830 C   0  0  0  0  0  2  0  0  0  0  0  0
  191.5020  176.1720  135.9500 C   0  0  1  0  0  3  0  0  0  0  0  0
  193.6330  173.6680  135.3160 C   0  0  0  0  0  2  0  0  0  0  0  0
  188.9130  177.1300  142.7040 C   0  0  2  0  0  3  0  0  0  0  0  0
  189.8310  176.8810  137.7200 C   0  0  0  0  0  0  0  0  0  0  0  0
  193.9460  175.7970  136.7590 C   0  0  2  0  0  3  0  0  0  0  0  0
  190.8020  176.5930  138.7600 N   0  0  0  0  0  0  0  0  0  0  0  0
  187.9710  177.5420  135.7600 C   0  0  0  0  0  3  0  0  0  0  0  0
  191.4440  177.5770  142.4510 C   0  0  0  0  0  2  0  0  0  0  0  0
  189.2310  177.0750  135.3800 C   0  0  0  0  0  3  0  0  0  0  0  0
  191.7280  177.2460  140.9810 C   0  0  0  0  0  2  0  0  0  0  0  0
  188.8150  178.2630  141.6610 C   0  0  1  0  0  3  0  0  0  0  0  0
  187.6540  177.6690  137.0760 N   0  0  0  0  0  0  0  0  0  0  0  0
  188.1780  177.4230  139.5020 C   0  0  2  0  0  3  0  0  0  0  0  0
  188.2280  177.5160  143.9270 N   0  0  0  0  0  2  0  0  0  0  0  0
  189.0700  177.1000  145.0360 C   0  0  0  0  0  2  0  0  0  0  0  0
  186.8860  178.2900  147.7230 N   0  0  0  0  0  0  0  0  0  0  0  0
  189.1150  177.6940  147.4510 C   0  0  0  0  0  3  0  0  0  0  0  0
  188.4580  177.5310  146.3210 C   0  0  0  0  0  0  0  0  0  0  0  0
  188.1360  178.1870  148.4670 C   0  0  0  0  0  2  0  0  0  0  0  0
  187.0750  177.9180  146.5030 C   0  0  0  0  0  3  0  0  0  0  0  0
  1 27  1  0  0  0  0
  2 14  1  0  0  0  0
  3 19  1  0  0  0  0
  3  7  1  6  0  0  0
  4 18  2  0  0  0  0
  5 11  1  1  0  0  0
  6 19  1  0  0  0  0
  8 16  1  0  0  0  0
  8 12  1  0  0  0  0
  9 25  1  0  0  0  0
 11 20  1  0  0  0  0
 12 15  1  0  0  0  0
 13  9  1  0  0  0  0
 13 24  1  0  0  0  0
 14 25  1  0  0  0  0
 15  4  1  0  0  0  0
 15  5  1  0  0  0  0
 16  3  1  0  0  0  0
 17 10  1  0  0  0  0
 17 28  1  0  0  0  0
 18  1  1  0  0  0  0
 18 20  1  0  0  0  0
 19  5  1  0  0  0  0
 20 13  1  0  0  0  0
 21 26  1  0  0  0  0
 22 10  1  0  0  0  0
 23 21  2  0  0  0  0
 23  4  1  0  0  0  0
 24 22  1  0  0  0  0
 25 17  1  0  0  0  0
 26  1  2  0  0  0  0
 27  2  1  0  0  0  0
 27  9  1  0  0  0  0
 28 29  1  0  0  0  0
 29 32  1  0  0  0  0
 30 33  1  0  0  0  0
 31 33  1  0  0  0  0
 32 34  1  0  0  0  0
 32 31  2  0  0  0  0
 34 30  2  0  0  0  0
M  END
>  <MODEL>
3

>  <REMARK>
 VINA RESULT:      -9.0      6.049      8.734
  Name = 
  3 active torsions:
  status: ('A' for Active; 'I' for Inactive)
    1  A    between atoms: C_17  and  N_28
    2  A    between atoms: N_28  and  C_29
    3  A    between atoms: C_29  and  C_32
                            x       y       z     vdW  Elec       q    Type
                         _______ _______ _______ _____ _____    ______ ____

>  <TORSDO>
F 3

$$$$
=
 OpenBabel11122412073D

 34 40  0  0  1  0  0  0  0  0999 V2000
  187.7870  178.2110  139.6720 C   0  0  0  0  0  0  0  0  0  0  0  0
  190.1490  177.6710  140.5020 C   0  0  0  0  0  2  0  0  0  0  0  0
  181.7110  179.3640  141.3250 C   0  0  2  0  0  3  0  0  0  0  0  0
  185.4670  178.3130  138.9730 C   0  0  0  0  0  0  0  0  0  0  0  0
  183.6820  177.8580  140.6820 C   0  0  2  0  0  3  0  0  0  0  0  0
  181.3920  177.2190  140.2210 O   0  0  0  0  0  1  0  0  0  0  0  0
  180.6290  179.3780  142.3850 C   0  0  0  0  0  1  0  0  0  0  0  0
  182.0450  179.8800  138.8100 C   0  0  0  0  0  2  0  0  0  0  0  0
  188.2780  177.3910  141.9110 C   0  0  2  0  0  3  0  0  0  0  0  0
  188.3920  178.1090  144.9950 C   0  0  0  0  0  2  0  0  0  0  0  0
  184.6090  178.4640  141.7350 C   0  0  0  0  0  2  0  0  0  0  0  0
  183.5370  179.8600  139.0930 C   0  0  0  0  0  2  0  0  0  0  0  0
  186.9960  178.0110  142.4780 C   0  0  1  0  0  3  0  0  0  0  0  0
  190.6910  177.3210  141.8860 C   0  0  0  0  0  2  0  0  0  0  0  0
  183.9960  178.4150  139.2780 C   0  0  1  0  0  3  0  0  0  0  0  0
  181.2020  180.0830  140.0690 C   0  0  0  0  0  2  0  0  0  0  0  0
  189.5610  178.1860  143.9910 C   0  0  2  0  0  3  0  0  0  0  0  0
  186.4190  178.2550  140.0080 C   0  0  0  0  0  0  0  0  0  0  0  0
  182.2090  177.9310  141.1060 C   0  0  2  0  0  3  0  0  0  0  0  0
  186.0010  178.1720  141.3960 N   0  0  0  0  0  0  0  0  0  0  0  0
  187.2660  178.3060  137.3590 C   0  0  0  0  0  3  0  0  0  0  0  0
  187.4440  176.9280  144.7680 C   0  0  0  0  0  2  0  0  0  0  0  0
  185.8980  178.3370  137.6430 C   0  0  0  0  0  3  0  0  0  0  0  0
  186.4330  177.1870  143.6450 C   0  0  0  0  0  2  0  0  0  0  0  0
  189.4840  177.1800  142.8230 C   0  0  1  0  0  3  0  0  0  0  0  0
  188.1750  178.2550  138.3680 N   0  0  0  0  0  0  0  0  0  0  0  0
  188.7850  178.2440  140.7870 C   0  0  2  0  0  3  0  0  0  0  0  0
  190.8110  178.0170  144.7150 N   0  0  0  0  0  2  0  0  0  0  0  0
  190.9670  176.5940  144.9680 C   0  0  0  0  0  2  0  0  0  0  0  0
  192.0490  176.8060  148.4600 N   0  0  0  0  0  0  0  0  0  0  0  0
  192.4290  175.4410  146.6170 C   0  0  0  0  0  3  0  0  0  0  0  0
  191.5610  176.3860  146.3150 C   0  0  0  0  0  0  0  0  0  0  0  0
  192.8050  175.6280  148.0510 C   0  0  0  0  0  2  0  0  0  0  0  0
  191.3440  177.2330  147.4680 C   0  0  0  0  0  3  0  0  0  0  0  0
  1 18  1  0  0  0  0
  1 27  1  0  0  0  0
  2 27  1  0  0  0  0
  2 14  1  0  0  0  0
  3  7  1  1  0  0  0
  4 15  1  0  0  0  0
  4 18  2  0  0  0  0
  5 19  1  0  0  0  0
  5 11  1  1  0  0  0
  6 19  1  0  0  0  0
  8 12  1  0  0  0  0
  8 16  1  0  0  0  0
  9 13  1  0  0  0  0
  9 25  1  0  0  0  0
 12 15  1  0  0  0  0
 13 24  1  0  0  0  0
 14 25  1  0  0  0  0
 15  5  1  0  0  0  0
 16  3  1  0  0  0  0
 17 28  1  0  0  0  0
 17 10  1  0  0  0  0
 18 20  1  0  0  0  0
 19  3  1  0  0  0  0
 20 11  1  0  0  0  0
 20 13  1  0  0  0  0
 21 23  2  0  0  0  0
 21 26  1  0  0  0  0
 22 10  1  0  0  0  0
 23  4  1  0  0  0  0
 24 22  1  0  0  0  0
 25 17  1  0  0  0  0
 26  1  2  0  0  0  0
 27  9  1  0  0  0  0
 28 29  1  0  0  0  0
 29 32  1  0  0  0  0
 31 33  1  0  0  0  0
 32 31  2  0  0  0  0
 32 34  1  0  0  0  0
 33 30  1  0  0  0  0
 34 30  2  0  0  0  0
M  END
>  <MODEL>
4

>  <REMARK>
 VINA RESULT:      -8.6      2.379      4.872
  Name = 
  3 active torsions:
  status: ('A' for Active; 'I' for Inactive)
    1  A    between atoms: C_17  and  N_28
    2  A    between atoms: N_28  and  C_29
    3  A    between atoms: C_29  and  C_32
                            x       y       z     vdW  Elec       q    Type
                         _______ _______ _______ _____ _____    ______ ____

>  <TORSDO>
F 3

$$$$
=
 OpenBabel11122412073D

 34 40  0  0  1  0  0  0  0  0999 V2000
  187.0420  178.2530  139.7330 C   0  0  0  0  0  0  0  0  0  0  0  0
  184.8140  178.9090  138.6510 C   0  0  0  0  0  2  0  0  0  0  0  0
  190.0800  176.8130  145.1800 C   0  0  2  0  0  3  0  0  0  0  0  0
  189.1620  178.0360  140.8890 C   0  0  0  0  0  0  0  0  0  0  0  0
  189.2120  178.4110  143.3740 C   0  0  2  0  0  3  0  0  0  0  0  0
  191.1690  178.9360  144.7000 O   0  0  0  0  0  1  0  0  0  0  0  0
  190.0820  176.7510  146.6930 C   0  0  0  0  0  1  0  0  0  0  0  0
  191.6180  176.3040  143.1610 C   0  0  0  0  0  2  0  0  0  0  0  0
  185.1320  179.1040  140.9800 C   0  0  2  0  0  3  0  0  0  0  0  0
  182.8300  178.4060  143.0410 C   0  0  0  0  0  2  0  0  0  0  0  0
  187.7900  177.8550  143.4340 C   0  0  0  0  0  2  0  0  0  0  0  0
  190.3720  176.3970  142.2980 C   0  0  0  0  0  2  0  0  0  0  0  0
  185.6040  178.4250  142.2710 C   0  0  1  0  0  3  0  0  0  0  0  0
  183.4620  179.2920  139.2470 C   0  0  0  0  0  2  0  0  0  0  0  0
  189.9710  177.8640  142.1470 C   0  0  1  0  0  3  0  0  0  0  0  0
  191.3040  176.0660  144.6380 C   0  0  0  0  0  2  0  0  0  0  0  0
  182.7220  178.3810  141.5020 C   0  0  2  0  0  3  0  0  0  0  0  0
  187.7590  178.1440  140.9400 C   0  0  0  0  0  0  0  0  0  0  0  0
  189.9400  178.2680  144.7170 C   0  0  2  0  0  3  0  0  0  0  0  0
  187.0660  178.2120  142.2150 N   0  0  0  0  0  0  0  0  0  0  0  0
  189.0510  178.1220  138.4770 C   0  0  0  0  0  3  0  0  0  0  0  0
  183.6990  179.5390  143.5930 C   0  0  0  0  0  2  0  0  0  0  0  0
  189.8060  178.0260  139.6490 C   0  0  0  0  0  3  0  0  0  0  0  0
  185.1980  179.2270  143.5160 C   0  0  0  0  0  2  0  0  0  0  0  0
  183.6460  179.3780  140.7690 C   0  0  1  0  0  3  0  0  0  0  0  0
  187.6970  178.2220  138.5400 N   0  0  0  0  0  0  0  0  0  0  0  0
  185.5470  178.2720  139.8040 C   0  0  2  0  0  3  0  0  0  0  0  0
  181.3370  178.6140  141.1260 N   0  0  0  0  0  2  0  0  0  0  0  0
  180.7120  177.3110  140.9750 C   0  0  0  0  0  2  0  0  0  0  0  0
  180.9930  176.4400  137.4290 N   0  0  0  0  0  0  0  0  0  0  0  0
  181.8400  175.6920  139.4600 C   0  0  0  0  0  3  0  0  0  0  0  0
  181.0600  176.7380  139.6470 C   0  0  0  0  0  0  0  0  0  0  0  0
  181.8750  175.4230  137.9900 C   0  0  0  0  0  3  0  0  0  0  0  0
  180.5320  177.1840  138.3760 C   0  0  0  0  0  2  0  0  0  0  0  0
  1 27  1  0  0  0  0
  1 18  1  0  0  0  0
  2 14  1  0  0  0  0
  2 27  1  0  0  0  0
  3  7  1  1  0  0  0
  4 18  2  0  0  0  0
  4 15  1  0  0  0  0
  5 11  1  1  0  0  0
  5 19  1  0  0  0  0
  6 19  1  0  0  0  0
  8 16  1  0  0  0  0
  9 13  1  0  0  0  0
 10 22  1  0  0  0  0
 12  8  1  0  0  0  0
 13 24  1  0  0  0  0
 14 25  1  0  0  0  0
 15 12  1  0  0  0  0
 15  5  1  0  0  0  0
 16  3  1  0  0  0  0
 17 10  1  0  0  0  0
 18 20  1  0  0  0  0
 19  3  1  0  0  0  0
 20 13  1  0  0  0  0
 20 11  1  0  0  0  0
 21 26  1  0  0  0  0
 21 23  2  0  0  0  0
 23  4  1  0  0  0  0
 24 22  1  0  0  0  0
 25  9  1  0  0  0  0
 25 17  1  0  0  0  0
 26  1  2  0  0  0  0
 27  9  1  0  0  0  0
 28 17  1  0  0  0  0
 29 28  1  0  0  0  0
 30 33  2  0  0  0  0
 30 34  1  0  0  0  0
 31 32  2  0  0  0  0
 32 29  1  0  0  0  0
 33 31  1  0  0  0  0
 34 32  1  0  0  0  0
M  END
>  <MODEL>
5

>  <REMARK>
 VINA RESULT:      -8.5      3.061      9.062
  Name = 
  3 active torsions:
  status: ('A' for Active; 'I' for Inactive)
    1  A    between atoms: C_17  and  N_28
    2  A    between atoms: N_28  and  C_29
    3  A    between atoms: C_29  and  C_32
                            x       y       z     vdW  Elec       q    Type
                         _______ _______ _______ _____ _____    ______ ____

>  <TORSDO>
F 3

$$$$
=
 OpenBabel11122412073D

 34 40  0  0  1  0  0  0  0  0999 V2000
  186.4750  178.0520  143.2610 C   0  0  0  0  0  0  0  0  0  0  0  0
  186.7210  178.0090  145.8110 C   0  0  0  0  0  2  0  0  0  0  0  0
  189.4130  177.2710  137.6280 C   0  0  2  0  0  3  0  0  0  0  0  0
  186.4470  178.4650  140.8720 C   0  0  0  0  0  0  0  0  0  0  0  0
  188.6430  178.6280  139.6610 C   0  0  2  0  0  3  0  0  0  0  0  0
  189.0120  179.6680  137.5060 O   0  0  0  0  0  1  0  0  0  0  0  0
  190.6940  177.0880  136.8410 C   0  0  0  0  0  1  0  0  0  0  0  0
  186.8590  177.4780  137.2600 C   0  0  0  0  0  2  0  0  0  0  0  0
  188.6190  178.1060  144.4130 C   0  0  2  0  0  3  0  0  0  0  0  0
  191.2700  176.5070  145.0870 C   0  0  0  0  0  2  0  0  0  0  0  0
  189.2110  177.6230  140.6630 C   0  0  0  0  0  2  0  0  0  0  0  0
  186.7110  177.2180  138.7490 C   0  0  0  0  0  2  0  0  0  0  0  0
  189.3480  177.5210  143.1980 C   0  0  1  0  0  3  0  0  0  0  0  0
  187.9420  177.8640  146.7180 C   0  0  0  0  0  2  0  0  0  0  0  0
  187.1140  178.4720  139.5220 C   0  0  1  0  0  3  0  0  0  0  0  0
  188.2110  177.0260  136.7080 C   0  0  0  0  0  2  0  0  0  0  0  0
  189.9940  176.5740  145.9530 C   0  0  2  0  0  3  0  0  0  0  0  0
  187.1570  178.0910  142.0290 C   0  0  0  0  0  0  0  0  0  0  0  0
  189.4280  178.6280  138.3430 C   0  0  2  0  0  3  0  0  0  0  0  0
  188.5810  177.8160  141.9690 N   0  0  0  0  0  0  0  0  0  0  0  0
  184.4510  178.7090  142.2120 C   0  0  0  0  0  3  0  0  0  0  0  0
  191.6170  177.8150  144.3740 C   0  0  0  0  0  2  0  0  0  0  0  0
  185.0880  178.7760  140.9700 C   0  0  0  0  0  3  0  0  0  0  0  0
  190.7920  178.0330  143.1000 C   0  0  0  0  0  2  0  0  0  0  0  0
  189.1830  177.8810  145.8140 C   0  0  1  0  0  3  0  0  0  0  0  0
  185.1460  178.3420  143.3210 N   0  0  0  0  0  0  0  0  0  0  0  0
  187.2230  177.5620  144.4610 C   0  0  2  0  0  3  0  0  0  0  0  0
  190.3590  176.3590  147.3430 N   0  0  0  0  0  2  0  0  0  0  0  0
  191.6950  175.7880  147.3490 C   0  0  0  0  0  2  0  0  0  0  0  0
  193.1540  177.8900  149.9690 N   0  0  0  0  0  0  0  0  0  0  0  0
  193.5490  175.8120  149.0080 C   0  0  0  0  0  3  0  0  0  0  0  0
  192.4850  176.3710  148.4660 C   0  0  0  0  0  0  0  0  0  0  0  0
  194.0630  176.7530  150.0490 C   0  0  0  0  0  2  0  0  0  0  0  0
  192.2600  177.6680  149.0660 C   0  0  0  0  0  3  0  0  0  0  0  0
  1 26  1  0  0  0  0
  1 27  1  0  0  0  0
  2 14  1  0  0  0  0
  3  7  1  6  0  0  0
  3 19  1  0  0  0  0
  4 23  2  0  0  0  0
  4 18  1  0  0  0  0
  5 11  1  1  0  0  0
  6 19  1  0  0  0  0
  8 12  1  0  0  0  0
  9 27  1  0  0  0  0
  9 25  1  0  0  0  0
 10 17  1  0  0  0  0
 11 20  1  0  0  0  0
 12 15  1  0  0  0  0
 13  9  1  0  0  0  0
 15  5  1  0  0  0  0
 15  4  1  0  0  0  0
 16  8  1  0  0  0  0
 16  3  1  0  0  0  0
 17 28  1  0  0  0  0
 18  1  2  0  0  0  0
 19  5  1  0  0  0  0
 20 18  1  0  0  0  0
 20 13  1  0  0  0  0
 21 26  2  0  0  0  0
 22 10  1  0  0  0  0
 23 21  1  0  0  0  0
 24 13  1  0  0  0  0
 24 22  1  0  0  0  0
 25 17  1  0  0  0  0
 25 14  1  0  0  0  0
 27  2  1  0  0  0  0
 28 29  1  0  0  0  0
 29 32  1  0  0  0  0
 30 33  1  0  0  0  0
 31 33  1  0  0  0  0
 32 31  2  0  0  0  0
 32 34  1  0  0  0  0
 34 30  2  0  0  0  0
M  END
>  <MODEL>
6

>  <REMARK>
 VINA RESULT:      -8.4      3.487      5.456
  Name = 
  3 active torsions:
  status: ('A' for Active; 'I' for Inactive)
    1  A    between atoms: C_17  and  N_28
    2  A    between atoms: N_28  and  C_29
    3  A    between atoms: C_29  and  C_32
                            x       y       z     vdW  Elec       q    Type
                         _______ _______ _______ _____ _____    ______ ____

>  <TORSDO>
F 3

$$$$
=
 OpenBabel11122412073D

 34 40  0  0  1  0  0  0  0  0999 V2000
  185.5550  178.7960  142.7890 C   0  0  0  0  0  0  0  0  0  0  0  0
  185.1710  178.9620  140.2620 C   0  0  0  0  0  2  0  0  0  0  0  0
  189.7790  177.6250  147.4540 C   0  0  2  0  0  3  0  0  0  0  0  0
  185.9150  178.2180  145.1160 C   0  0  0  0  0  0  0  0  0  0  0  0
  188.0050  176.9630  145.7260 C   0  0  2  0  0  3  0  0  0  0  0  0
  188.3570  175.6710  147.7440 O   0  0  0  0  0  1  0  0  0  0  0  0
  191.1460  177.1310  147.8790 C   0  0  0  0  0  1  0  0  0  0  0  0
  187.5930  178.5660  148.4710 C   0  0  0  0  0  2  0  0  0  0  0  0
  187.0820  177.8830  141.1270 C   0  0  2  0  0  3  0  0  0  0  0  0
  189.9210  178.1610  139.7480 C   0  0  0  0  0  2  0  0  0  0  0  0
  188.7130  177.6900  144.5840 C   0  0  0  0  0  2  0  0  0  0  0  0
  187.2280  179.0040  147.0630 C   0  0  0  0  0  2  0  0  0  0  0  0
  188.2670  177.9570  142.0970 C   0  0  1  0  0  3  0  0  0  0  0  0
  186.0610  178.6220  139.0680 C   0  0  0  0  0  2  0  0  0  0  0  0
  186.8060  177.7830  146.2490 C   0  0  1  0  0  3  0  0  0  0  0  0
  189.0890  178.3010  148.6440 C   0  0  0  0  0  2  0  0  0  0  0  0
  188.5930  178.7620  139.2420 C   0  0  2  0  0  3  0  0  0  0  0  0
  186.4150  178.3360  143.8060 C   0  0  0  0  0  0  0  0  0  0  0  0
  188.9920  176.4830  146.7980 C   0  0  2  0  0  3  0  0  0  0  0  0
  187.7720  177.9280  143.4900 N   0  0  0  0  0  0  0  0  0  0  0  0
  183.7760  179.0340  144.3420 C   0  0  0  0  0  3  0  0  0  0  0  0
  189.7840  176.7770  140.3870 C   0  0  0  0  0  2  0  0  0  0  0  0
  184.5880  178.5690  145.3800 C   0  0  0  0  0  3  0  0  0  0  0  0
  189.2860  176.8390  141.8350 C   0  0  0  0  0  2  0  0  0  0  0  0
  187.3300  177.9600  139.6230 C   0  0  1  0  0  3  0  0  0  0  0  0
  184.2730  179.1480  143.0810 N   0  0  0  0  0  0  0  0  0  0  0  0
  186.1310  179.0040  141.4230 C   0  0  2  0  0  3  0  0  0  0  0  0
  188.6690  178.9180  137.7990 N   0  0  0  0  0  2  0  0  0  0  0  0
  189.4300  177.7900  137.2880 C   0  0  0  0  0  2  0  0  0  0  0  0
  187.0040  176.2090  135.0470 N   0  0  0  0  0  0  0  0  0  0  0  0
  188.2890  175.6150  136.8900 C   0  0  0  0  0  3  0  0  0  0  0  0
  188.5260  176.8670  136.5510 C   0  0  0  0  0  0  0  0  0  0  0  0
  187.2870  175.0770  135.9210 C   0  0  0  0  0  2  0  0  0  0  0  0
  187.7100  177.2250  135.4110 C   0  0  0  0  0  3  0  0  0  0  0  0
  1 26  2  0  0  0  0
  1 18  1  0  0  0  0
  2 27  1  0  0  0  0
  3  7  1  1  0  0  0
  3 16  1  0  0  0  0
  4 23  1  0  0  0  0
  4 15  1  0  0  0  0
  5 11  1  6  0  0  0
  5 15  1  0  0  0  0
  5 19  1  0  0  0  0
  8 16  1  0  0  0  0
  9 27  1  0  0  0  0
  9 13  1  0  0  0  0
 10 22  1  0  0  0  0
 12  8  1  0  0  0  0
 13 20  1  0  0  0  0
 14 25  1  0  0  0  0
 14  2  1  0  0  0  0
 15 12  1  0  0  0  0
 17 25  1  0  0  0  0
 17 10  1  0  0  0  0
 18  4  2  0  0  0  0
 19  3  1  0  0  0  0
 19  6  1  0  0  0  0
 20 18  1  0  0  0  0
 20 11  1  0  0  0  0
 21 23  2  0  0  0  0
 22 24  1  0  0  0  0
 24 13  1  0  0  0  0
 25  9  1  0  0  0  0
 26 21  1  0  0  0  0
 27  1  1  0  0  0  0
 28 17  1  0  0  0  0
 29 28  1  0  0  0  0
 30 34  2  0  0  0  0
 30 33  1  0  0  0  0
 32 31  2  0  0  0  0
 32 29  1  0  0  0  0
 33 31  1  0  0  0  0
 34 32  1  0  0  0  0
M  END
>  <MODEL>
7

>  <REMARK>
 VINA RESULT:      -8.2      3.928      8.585
  Name = 
  3 active torsions:
  status: ('A' for Active; 'I' for Inactive)
    1  A    between atoms: C_17  and  N_28
    2  A    between atoms: N_28  and  C_29
    3  A    between atoms: C_29  and  C_32
                            x       y       z     vdW  Elec       q    Type
                         _______ _______ _______ _____ _____    ______ ____

>  <TORSDO>
F 3

$$$$
=
 OpenBabel11122412073D

 34 40  0  0  1  0  0  0  0  0999 V2000
  181.2810  178.2250  141.6750 C   0  0  0  0  0  0  0  0  0  0  0  0
  181.9930  179.1120  143.9700 C   0  0  0  0  0  2  0  0  0  0  0  0
  183.2350  175.8640  136.0550 C   0  0  2  0  0  3  0  0  0  0  0  0
  180.7380  177.7640  139.3570 C   0  0  0  0  0  0  0  0  0  0  0  0
  182.6030  177.7480  137.6730 C   0  0  2  0  0  3  0  0  0  0  0  0
  182.3650  177.9990  135.2760 O   0  0  0  0  0  1  0  0  0  0  0  0
  184.3610  175.5690  135.0870 C   0  0  0  0  0  1  0  0  0  0  0  0
  180.6650  175.6240  136.2570 C   0  0  0  0  0  2  0  0  0  0  0  0
  183.5490  178.9340  142.2060 C   0  0  2  0  0  3  0  0  0  0  0  0
  186.5340  178.0000  142.7050 C   0  0  0  0  0  2  0  0  0  0  0  0
  183.5270  177.2360  138.7770 C   0  0  0  0  0  2  0  0  0  0  0  0
  180.8440  175.8900  137.7420 C   0  0  0  0  0  2  0  0  0  0  0  0
  184.1410  178.0490  141.1040 C   0  0  1  0  0  3  0  0  0  0  0  0
  183.3630  179.4410  144.5590 C   0  0  0  0  0  2  0  0  0  0  0  0
  181.1340  177.3740  137.9580 C   0  0  1  0  0  3  0  0  0  0  0  0
  181.9550  175.1710  135.5730 C   0  0  0  0  0  2  0  0  0  0  0  0
  185.4490  178.2160  143.7800 C   0  0  2  0  0  3  0  0  0  0  0  0
  181.7060  177.9080  140.3690 C   0  0  0  0  0  0  0  0  0  0  0  0
  183.1190  177.3770  136.2760 C   0  0  2  0  0  3  0  0  0  0  0  0
  183.1210  177.8000  140.0640 N   0  0  0  0  0  0  0  0  0  0  0  0
  179.0110  178.2270  140.9830 C   0  0  0  0  0  3  0  0  0  0  0  0
  186.4880  179.0050  141.5510 C   0  0  0  0  0  2  0  0  0  0  0  0
  179.3860  177.9260  139.6710 C   0  0  0  0  0  3  0  0  0  0  0  0
  185.4180  178.6610  140.5080 C   0  0  0  0  0  2  0  0  0  0  0  0
  184.3910  179.2840  143.4300 C   0  0  1  0  0  3  0  0  0  0  0  0
  179.9550  178.3580  141.9520 N   0  0  0  0  0  0  0  0  0  0  0  0
  182.3160  178.2810  142.7550 C   0  0  2  0  0  3  0  0  0  0  0  0
  186.0970  178.5490  145.0390 N   0  0  0  0  0  2  0  0  0  0  0  0
  186.4670  177.2950  145.6720 C   0  0  0  0  0  2  0  0  0  0  0  0
  189.9580  177.3570  146.7760 N   0  0  0  0  0  0  0  0  0  0  0  0
  187.8620  177.8350  147.6600 C   0  0  0  0  0  3  0  0  0  0  0  0
  187.7530  177.4600  146.4000 C   0  0  0  0  0  0  0  0  0  0  0  0
  189.3170  177.8160  148.0030 C   0  0  0  0  0  2  0  0  0  0  0  0
  189.0640  177.1550  145.8690 C   0  0  0  0  0  3  0  0  0  0  0  0
  1 26  1  0  0  0  0
  1 27  1  0  0  0  0
  2 14  1  0  0  0  0
  3  7  1  6  0  0  0
  3 19  1  0  0  0  0
  4 23  2  0  0  0  0
  4 18  1  0  0  0  0
  5 15  1  0  0  0  0
  5 11  1  1  0  0  0
  6 19  1  0  0  0  0
  8 12  1  0  0  0  0
  9 27  1  0  0  0  0
  9 25  1  0  0  0  0
 10 17  1  0  0  0  0
 11 20  1  0  0  0  0
 12 15  1  0  0  0  0
 13  9  1  0  0  0  0
 15  4  1  0  0  0  0
 16  3  1  0  0  0  0
 16  8  1  0  0  0  0
 17 28  1  0  0  0  0
 18  1  2  0  0  0  0
 19  5  1  0  0  0  0
 20 18  1  0  0  0  0
 20 13  1  0  0  0  0
 21 26  2  0  0  0  0
 22 10  1  0  0  0  0
 23 21  1  0  0  0  0
 24 13  1  0  0  0  0
 24 22  1  0  0  0  0
 25 17  1  0  0  0  0
 25 14  1  0  0  0  0
 27  2  1  0  0  0  0
 28 29  1  0  0  0  0
 29 32  1  0  0  0  0
 30 33  1  0  0  0  0
 31 33  1  0  0  0  0
 32 31  2  0  0  0  0
 34 32  1  0  0  0  0
 34 30  2  0  0  0  0
M  END
>  <MODEL>
8

>  <REMARK>
 VINA RESULT:      -8.2      1.508      2.107
  Name = 
  3 active torsions:
  status: ('A' for Active; 'I' for Inactive)
    1  A    between atoms: C_17  and  N_28
    2  A    between atoms: N_28  and  C_29
    3  A    between atoms: C_29  and  C_32
                            x       y       z     vdW  Elec       q    Type
                         _______ _______ _______ _____ _____    ______ ____

>  <TORSDO>
F 3

$$$$
=
 OpenBabel11122412073D

 34 40  0  0  1  0  0  0  0  0999 V2000
  187.9840  177.7850  139.7200 C   0  0  0  0  0  0  0  0  0  0  0  0
  185.9230  178.3940  138.3250 C   0  0  0  0  0  2  0  0  0  0  0  0
  190.3040  176.7530  145.5960 C   0  0  2  0  0  3  0  0  0  0  0  0
  189.9430  177.6230  141.1390 C   0  0  0  0  0  0  0  0  0  0  0  0
  189.7080  178.2080  143.5720 C   0  0  2  0  0  3  0  0  0  0  0  0
  191.5090  178.8030  145.0780 O   0  0  0  0  0  1  0  0  0  0  0  0
  190.1240  176.8210  147.0980 C   0  0  0  0  0  1  0  0  0  0  0  0
  192.0550  176.0400  143.8280 C   0  0  0  0  0  2  0  0  0  0  0  0
  185.9670  178.7810  140.6510 C   0  0  2  0  0  3  0  0  0  0  0  0
  183.4140  178.3120  142.4680 C   0  0  0  0  0  2  0  0  0  0  0  0
  188.2720  177.6900  143.5050 C   0  0  0  0  0  2  0  0  0  0  0  0
  190.9240  176.0860  142.8150 C   0  0  0  0  0  2  0  0  0  0  0  0
  186.2600  178.2050  142.0410 C   0  0  1  0  0  3  0  0  0  0  0  0
  184.5210  178.8550  138.7190 C   0  0  0  0  0  2  0  0  0  0  0  0
  190.5910  177.5420  142.4960 C   0  0  1  0  0  3  0  0  0  0  0  0
  191.5600  175.9360  145.2700 C   0  0  0  0  0  2  0  0  0  0  0  0
  183.4900  178.1570  140.9350 C   0  0  2  0  0  3  0  0  0  0  0  0
  188.5480  177.7650  141.0100 C   0  0  0  0  0  0  0  0  0  0  0  0
  190.2660  178.1660  145.0000 C   0  0  2  0  0  3  0  0  0  0  0  0
  187.7110  177.9570  142.1810 N   0  0  0  0  0  0  0  0  0  0  0  0
  190.1230  177.5050  138.7320 C   0  0  0  0  0  3  0  0  0  0  0  0
  184.2470  179.4680  143.0270 C   0  0  0  0  0  2  0  0  0  0  0  0
  190.7300  177.4940  139.9910 C   0  0  0  0  0  3  0  0  0  0  0  0
  185.7340  179.1190  143.1580 C   0  0  0  0  0  2  0  0  0  0  0  0
  184.5250  179.0670  140.2400 C   0  0  1  0  0  3  0  0  0  0  0  0
  188.7750  177.6380  138.6220 N   0  0  0  0  0  0  0  0  0  0  0  0
  186.4920  177.8430  139.6070 C   0  0  2  0  0  3  0  0  0  0  0  0
  182.1680  178.3860  140.3750 N   0  0  0  0  0  2  0  0  0  0  0  0
  181.2820  178.6880  141.4860 C   0  0  0  0  0  2  0  0  0  0  0  0
  179.5410  181.4870  139.8900 N   0  0  0  0  0  0  0  0  0  0  0  0
  179.5740  180.4340  141.9610 C   0  0  0  0  0  3  0  0  0  0  0  0
  180.4000  179.8320  141.1290 C   0  0  0  0  0  0  0  0  0  0  0  0
  178.9310  181.5560  141.2120 C   0  0  0  0  0  2  0  0  0  0  0  0
  180.3770  180.5050  139.8490 C   0  0  0  0  0  3  0  0  0  0  0  0
  1 18  1  0  0  0  0
  2 14  1  0  0  0  0
  2 27  1  0  0  0  0
  3  7  1  1  0  0  0
  4 15  1  0  0  0  0
  5 11  1  1  0  0  0
  5 19  1  0  0  0  0
  8 16  1  0  0  0  0
  9 13  1  0  0  0  0
 10 22  1  0  0  0  0
 12  8  1  0  0  0  0
 13 20  1  0  0  0  0
 13 24  1  0  0  0  0
 14 25  1  0  0  0  0
 15 12  1  0  0  0  0
 15  5  1  0  0  0  0
 16  3  1  0  0  0  0
 17 10  1  0  0  0  0
 18  4  2  0  0  0  0
 18 20  1  0  0  0  0
 19  6  1  0  0  0  0
 19  3  1  0  0  0  0
 20 11  1  0  0  0  0
 21 23  2  0  0  0  0
 22 24  1  0  0  0  0
 23  4  1  0  0  0  0
 25  9  1  0  0  0  0
 25 17  1  0  0  0  0
 26 21  1  0  0  0  0
 26  1  2  0  0  0  0
 27  1  1  0  0  0  0
 27  9  1  0  0  0  0
 28 17  1  0  0  0  0
 28 29  1  0  0  0  0
 30 33  1  0  0  0  0
 32 29  1  0  0  0  0
 32 31  2  0  0  0  0
 33 31  1  0  0  0  0
 34 30  2  0  0  0  0
 34 32  1  0  0  0  0
M  END
>  <MODEL>
9

>  <REMARK>
 VINA RESULT:      -8.1      3.252      9.528
  Name = 
  3 active torsions:
  status: ('A' for Active; 'I' for Inactive)
    1  A    between atoms: C_17  and  N_28
    2  A    between atoms: N_28  and  C_29
    3  A    between atoms: C_29  and  C_32
                            x       y       z     vdW  Elec       q    Type
                         _______ _______ _______ _____ _____    ______ ____

>  <TORSDO>
F 3

$$$$
