=
 OpenBabel11122410423D

 32 38  0  0  1  0  0  0  0  0999 V2000
  187.6390  178.4010  136.9420 C   0  0  1  0  0  3  0  0  0  0  0  0
  187.4980  177.9940  142.2000 C   0  0  0  0  0  0  0  0  0  0  0  0
  182.8990  179.1630  143.2390 C   0  0  0  0  0  3  0  0  0  0  0  0
  183.1450  178.9350  144.6750 C   0  0  0  0  0  3  0  0  0  0  0  0
  189.1350  177.4990  144.0350 C   0  0  0  0  0  0  0  0  0  0  0  0
  189.3260  177.4160  145.4800 C   0  0  0  0  0  0  0  0  0  0  0  0
  188.1680  177.7700  139.7820 C   0  0  1  0  0  3  0  0  0  0  0  0
  185.7950  178.1600  140.3310 C   0  0  0  0  0  2  0  0  0  0  0  0
  188.8770  177.5140  147.5550 C   0  0  0  0  0  0  0  0  0  0  0  0
  186.5030  178.5400  137.9620 C   0  0  2  0  0  3  0  0  0  0  0  0
  183.7840  178.7710  142.3190 C   0  0  0  0  0  3  0  0  0  0  0  0
  186.1340  178.2240  141.7600 N   0  0  0  0  0  0  0  0  0  0  0  0
  185.0230  177.9870  142.6920 C   0  0  1  0  0  3  0  0  0  0  0  0
  186.6850  178.0390  144.5340 C   0  0  0  0  0  0  0  0  0  0  0  0
  190.1890  177.1050  147.4130 C   0  0  0  0  0  3  0  0  0  0  0  0
  189.0300  178.3070  137.5340 C   0  0  0  0  0  3  0  0  0  0  0  0
  186.9420  178.6110  139.4420 C   0  0  2  0  0  3  0  0  0  0  0  0
  190.4700  177.0420  146.0910 N   0  0  0  0  0  0  0  0  0  0  0  0
  189.2800  178.0480  138.8230 C   0  0  0  0  0  3  0  0  0  0  0  0
  186.7890  177.1930  137.3110 C   0  0  1  0  0  3  0  0  0  0  0  0
  184.3310  178.4970  145.1020 C   0  0  0  0  0  3  0  0  0  0  0  0
  185.4130  178.2010  144.1350 C   0  0  0  0  0  0  0  0  0  0  0  0
  187.0240  178.2260  146.0010 C   0  0  0  0  0  2  0  0  0  0  0  0
  188.6210  178.0920  141.1930 C   0  0  0  0  0  2  0  0  0  0  0  0
  190.1020  177.2370  143.2700 O   0  0  0  0  0  0  0  0  0  0  0  0
  188.1710  177.7440  148.8460 C   0  0  0  0  0  1  0  0  0  0  0  0
  187.7730  177.8400  143.5210 C   0  0  0  0  0  0  0  0  0  0  0  0
  188.3400  177.6950  146.3400 N   0  0  0  0  0  0  0  0  0  0  0  0
  185.8080  176.9510  136.2550 N   0  0  0  0  0  2  0  0  0  0  0  0
  185.0170  175.7510  136.5440 C   0  0  0  0  0  3  0  0  0  0  0  0
  185.8810  174.6060  137.0480 C   0  0  0  0  0  1  0  0  0  0  0  0
  183.8700  176.0400  137.5020 C   0  0  0  0  0  1  0  0  0  0  0  0
  1 20  1  0  0  0  0
  1 16  1  1  0  0  0
  1 10  1  0  0  0  0
  2 27  2  0  0  0  0
  3  4  1  0  0  0  0
  4 21  2  0  0  0  0
  5  6  1  0  0  0  0
  6 18  2  0  0  0  0
  6 28  1  0  0  0  0
  7 19  1  6  0  0  0
  7 24  1  0  0  0  0
  8 12  1  0  0  0  0
  9 26  1  0  0  0  0
 10 17  1  0  0  0  0
 11 13  1  0  0  0  0
 11  3  2  0  0  0  0
 12  2  1  0  0  0  0
 12 13  1  0  0  0  0
 13 22  1  0  0  0  0
 14 23  1  0  0  0  0
 15  9  2  0  0  0  0
 16 19  2  0  0  0  0
 17  7  1  0  0  0  0
 17  8  1  0  0  0  0
 18 15  1  0  0  0  0
 20 10  1  0  0  0  0
 22 14  2  0  0  0  0
 22 21  1  0  0  0  0
 23 28  1  0  0  0  0
 24  2  1  0  0  0  0
 25  5  2  0  0  0  0
 27  5  1  0  0  0  0
 27 14  1  0  0  0  0
 28  9  1  0  0  0  0
 29 30  1  0  0  0  0
 29 20  1  0  0  0  0
 30 31  1  0  0  0  0
 30 32  1  0  0  0  0
M  END
>  <MODEL>
1

>  <REMARK>
 VINA RESULT:      -9.9      0.000      0.000
  Name = 
  2 active torsions:
  status: ('A' for Active; 'I' for Inactive)
    1  A    between atoms: C_20  and  N_29
    2  A    between atoms: N_29  and  C_30
                            x       y       z     vdW  Elec       q    Type
                         _______ _______ _______ _____ _____    ______ ____

>  <TORSDO>
F 2

$$$$
=
 OpenBabel11122410423D

 32 38  0  0  1  0  0  0  0  0999 V2000
  181.7440  178.9280  139.9620 C   0  0  1  0  0  3  0  0  0  0  0  0
  185.9970  178.2040  142.9980 C   0  0  0  0  0  0  0  0  0  0  0  0
  189.5200  177.4480  139.7400 C   0  0  0  0  0  3  0  0  0  0  0  0
  190.5180  177.3260  140.8180 C   0  0  0  0  0  3  0  0  0  0  0  0
  186.4820  178.0720  145.4550 C   0  0  0  0  0  0  0  0  0  0  0  0
  187.5080  177.8150  146.4620 C   0  0  0  0  0  0  0  0  0  0  0  0
  183.7090  178.8550  142.1710 C   0  0  1  0  0  3  0  0  0  0  0  0
  185.5570  178.6690  140.5470 C   0  0  0  0  0  2  0  0  0  0  0  0
  189.4030  177.3290  147.2930 C   0  0  0  0  0  0  0  0  0  0  0  0
  183.2280  178.7220  139.6360 C   0  0  2  0  0  3  0  0  0  0  0  0
  188.2920  177.9100  139.9880 C   0  0  0  0  0  3  0  0  0  0  0  0
  186.4660  178.2550  141.6250 N   0  0  0  0  0  0  0  0  0  0  0  0
  187.8990  178.4270  141.3550 C   0  0  1  0  0  3  0  0  0  0  0  0
  188.3230  177.7620  143.7070 C   0  0  0  0  0  0  0  0  0  0  0  0
  188.5270  177.5850  148.3300 C   0  0  0  0  0  3  0  0  0  0  0  0
  181.3660  178.7100  141.4120 C   0  0  0  0  0  3  0  0  0  0  0  0
  184.1150  178.2760  140.8200 C   0  0  2  0  0  3  0  0  0  0  0  0
  187.3220  177.8950  147.7970 N   0  0  0  0  0  0  0  0  0  0  0  0
  182.2500  178.6490  142.4160 C   0  0  0  0  0  3  0  0  0  0  0  0
  182.6670  180.1290  139.7970 C   0  0  1  0  0  3  0  0  0  0  0  0
  190.1690  177.5030  142.0940 C   0  0  0  0  0  3  0  0  0  0  0  0
  188.7740  177.8570  142.4460 C   0  0  0  0  0  0  0  0  0  0  0  0
  189.2500  177.2190  144.7790 C   0  0  0  0  0  2  0  0  0  0  0  0
  184.5100  178.1800  143.2670 C   0  0  0  0  0  2  0  0  0  0  0  0
  185.3140  178.3640  145.8280 O   0  0  0  0  0  0  0  0  0  0  0  0
  190.8280  176.9200  147.4370 C   0  0  0  0  0  1  0  0  0  0  0  0
  186.8810  178.0310  144.0150 C   0  0  0  0  0  0  0  0  0  0  0  0
  188.7610  177.4880  146.1270 N   0  0  0  0  0  0  0  0  0  0  0  0
  182.4610  180.7180  138.4760 N   0  0  0  0  0  2  0  0  0  0  0  0
  181.0390  180.7090  138.1180 C   0  0  0  0  0  3  0  0  0  0  0  0
  180.3480  182.0110  138.4910 C   0  0  0  0  0  1  0  0  0  0  0  0
  180.8230  180.3710  136.6500 C   0  0  0  0  0  1  0  0  0  0  0  0
  1 16  1  1  0  0  0
  2 24  1  0  0  0  0
  2 27  2  0  0  0  0
  3 11  2  0  0  0  0
  3  4  1  0  0  0  0
  4 21  2  0  0  0  0
  5 25  2  0  0  0  0
  5  6  1  0  0  0  0
  6 18  2  0  0  0  0
  7 19  1  1  0  0  0
  7 24  1  0  0  0  0
  8 17  1  0  0  0  0
  8 12  1  0  0  0  0
  9 26  1  0  0  0  0
  9 15  2  0  0  0  0
 10 20  1  0  0  0  0
 10  1  1  0  0  0  0
 10 17  1  0  0  0  0
 11 13  1  0  0  0  0
 12  2  1  0  0  0  0
 13 12  1  0  0  0  0
 13 22  1  0  0  0  0
 14 27  1  0  0  0  0
 14 23  1  0  0  0  0
 16 19  2  0  0  0  0
 17  7  1  0  0  0  0
 18 15  1  0  0  0  0
 20  1  1  0  0  0  0
 21 22  1  0  0  0  0
 22 14  2  0  0  0  0
 23 28  1  0  0  0  0
 27  5  1  0  0  0  0
 28  6  1  0  0  0  0
 28  9  1  0  0  0  0
 29 20  1  0  0  0  0
 30 29  1  0  0  0  0
 30 31  1  0  0  0  0
 32 30  1  0  0  0  0
M  END
>  <MODEL>
2

>  <REMARK>
 VINA RESULT:      -9.9      2.580      4.960
  Name = 
  2 active torsions:
  status: ('A' for Active; 'I' for Inactive)
    1  A    between atoms: C_20  and  N_29
    2  A    between atoms: N_29  and  C_30
                            x       y       z     vdW  Elec       q    Type
                         _______ _______ _______ _____ _____    ______ ____

>  <TORSDO>
F 2

$$$$
=
 OpenBabel11122410423D

 32 38  0  0  1  0  0  0  0  0999 V2000
  179.2550  179.2500  141.5460 C   0  0  1  0  0  3  0  0  0  0  0  0
  184.1870  178.6100  143.3050 C   0  0  0  0  0  0  0  0  0  0  0  0
  186.7420  178.1880  139.1950 C   0  0  0  0  0  3  0  0  0  0  0  0
  187.9940  178.0690  139.9630 C   0  0  0  0  0  3  0  0  0  0  0  0
  185.3130  178.3910  145.5360 C   0  0  0  0  0  0  0  0  0  0  0  0
  186.5790  178.1430  146.2200 C   0  0  0  0  0  0  0  0  0  0  0  0
  181.7380  179.1790  143.1500 C   0  0  1  0  0  3  0  0  0  0  0  0
  183.0930  179.1630  141.0880 C   0  0  0  0  0  2  0  0  0  0  0  0
  188.6440  177.7190  146.4910 C   0  0  0  0  0  0  0  0  0  0  0  0
  180.6050  179.1360  140.8280 C   0  0  2  0  0  3  0  0  0  0  0  0
  185.6070  178.5740  139.7850 C   0  0  0  0  0  3  0  0  0  0  0  0
  184.2710  178.7480  141.8620 N   0  0  0  0  0  0  0  0  0  0  0  0
  185.5730  179.0070  141.2340 C   0  0  1  0  0  3  0  0  0  0  0  0
  186.6330  178.2580  143.3490 C   0  0  0  0  0  0  0  0  0  0  0  0
  188.0660  177.8810  147.7360 C   0  0  0  0  0  3  0  0  0  0  0  0
  179.2860  178.9460  143.0290 C   0  0  0  0  0  3  0  0  0  0  0  0
  181.7920  178.6840  141.7090 C   0  0  2  0  0  3  0  0  0  0  0  0
  186.7530  178.1510  147.5580 N   0  0  0  0  0  0  0  0  0  0  0  0
  180.4060  178.8860  143.7590 C   0  0  0  0  0  3  0  0  0  0  0  0
  180.0540  180.5040  141.2130 C   0  0  1  0  0  3  0  0  0  0  0  0
  187.9910  178.1690  141.2930 C   0  0  0  0  0  3  0  0  0  0  0  0
  186.7280  178.4340  142.0210 C   0  0  0  0  0  0  0  0  0  0  0  0
  187.8320  177.7150  144.1050 C   0  0  0  0  0  2  0  0  0  0  0  0
  182.8270  178.4970  143.9550 C   0  0  0  0  0  2  0  0  0  0  0  0
  184.2760  178.6050  146.2190 O   0  0  0  0  0  0  0  0  0  0  0  0
  190.0700  177.3780  146.2310 C   0  0  0  0  0  1  0  0  0  0  0  0
  185.3150  178.4370  144.0410 C   0  0  0  0  0  0  0  0  0  0  0  0
  187.7090  177.8970  145.5470 N   0  0  0  0  0  0  0  0  0  0  0  0
  179.4820  181.1410  140.0300 N   0  0  0  0  0  2  0  0  0  0  0  0
  180.2170  180.7540  138.8220 C   0  0  0  0  0  3  0  0  0  0  0  0
  179.2840  180.4020  137.6750 C   0  0  0  0  0  1  0  0  0  0  0  0
  181.2270  181.8140  138.4050 C   0  0  0  0  0  1  0  0  0  0  0  0
  1 16  1  1  0  0  0
  2 24  1  0  0  0  0
  2 27  2  0  0  0  0
  3 11  2  0  0  0  0
  3  4  1  0  0  0  0
  4 21  2  0  0  0  0
  5 25  2  0  0  0  0
  5  6  1  0  0  0  0
  6 18  2  0  0  0  0
  7 19  1  1  0  0  0
  7 24  1  0  0  0  0
  8 17  1  0  0  0  0
  8 12  1  0  0  0  0
  9 15  2  0  0  0  0
 10 20  1  0  0  0  0
 10  1  1  0  0  0  0
 10 17  1  0  0  0  0
 11 13  1  0  0  0  0
 12  2  1  0  0  0  0
 13 12  1  0  0  0  0
 13 22  1  0  0  0  0
 14 27  1  0  0  0  0
 14 23  1  0  0  0  0
 16 19  2  0  0  0  0
 17  7  1  0  0  0  0
 18 15  1  0  0  0  0
 20  1  1  0  0  0  0
 21 22  1  0  0  0  0
 22 14  2  0  0  0  0
 23 28  1  0  0  0  0
 26  9  1  0  0  0  0
 27  5  1  0  0  0  0
 28  6  1  0  0  0  0
 28  9  1  0  0  0  0
 29 20  1  0  0  0  0
 30 29  1  0  0  0  0
 31 30  1  0  0  0  0
 32 30  1  0  0  0  0
M  END
>  <MODEL>
3

>  <REMARK>
 VINA RESULT:      -9.9      3.010      5.804
  Name = 
  2 active torsions:
  status: ('A' for Active; 'I' for Inactive)
    1  A    between atoms: C_20  and  N_29
    2  A    between atoms: N_29  and  C_30
                            x       y       z     vdW  Elec       q    Type
                         _______ _______ _______ _____ _____    ______ ____

>  <TORSDO>
F 2

$$$$
=
 OpenBabel11122410423D

 32 38  0  0  1  0  0  0  0  0999 V2000
  189.1330  177.7060  148.0940 C   0  0  1  0  0  3  0  0  0  0  0  0
  186.3640  178.2430  143.6350 C   0  0  0  0  0  0  0  0  0  0  0  0
  189.8050  178.0500  140.2110 C   0  0  0  0  0  3  0  0  0  0  0  0
  188.7860  178.1790  139.1530 C   0  0  0  0  0  3  0  0  0  0  0  0
  183.9670  178.6420  143.0140 C   0  0  0  0  0  0  0  0  0  0  0  0
  183.0390  178.8900  141.9150 C   0  0  0  0  0  0  0  0  0  0  0  0
  187.0190  177.8080  146.0280 C   0  0  1  0  0  3  0  0  0  0  0  0
  188.7090  177.5120  144.2560 C   0  0  0  0  0  2  0  0  0  0  0  0
  182.3460  179.2180  139.9320 C   0  0  0  0  0  0  0  0  0  0  0  0
  189.5310  177.6580  146.6140 C   0  0  2  0  0  3  0  0  0  0  0  0
  189.4550  177.8000  141.4760 C   0  0  0  0  0  3  0  0  0  0  0  0
  187.7300  177.9400  143.2470 N   0  0  0  0  0  0  0  0  0  0  0  0
  188.0170  177.5360  141.8650 C   0  0  1  0  0  3  0  0  0  0  0  0
  185.7980  178.4520  141.2380 C   0  0  0  0  0  0  0  0  0  0  0  0
  181.2560  179.2300  140.7810 C   0  0  0  0  0  3  0  0  0  0  0  0
  187.7180  178.1720  148.3660 C   0  0  0  0  0  3  0  0  0  0  0  0
  188.4510  178.1350  145.6170 C   0  0  2  0  0  3  0  0  0  0  0  0
  181.7020  179.0210  142.0420 N   0  0  0  0  0  0  0  0  0  0  0  0
  186.7600  178.2460  147.4330 C   0  0  0  0  0  3  0  0  0  0  0  0
  189.1540  176.3780  147.3480 C   0  0  1  0  0  3  0  0  0  0  0  0
  187.4880  178.2290  139.4580 C   0  0  0  0  0  3  0  0  0  0  0  0
  187.0460  178.1230  140.8680 C   0  0  0  0  0  0  0  0  0  0  0  0
  184.8430  179.0030  140.1950 C   0  0  0  0  0  2  0  0  0  0  0  0
  186.0560  178.5100  145.0910 C   0  0  0  0  0  2  0  0  0  0  0  0
  183.5210  178.5690  144.1910 O   0  0  0  0  0  0  0  0  0  0  0  0
  182.3050  179.4420  138.4600 C   0  0  0  0  0  1  0  0  0  0  0  0
  185.4100  178.4300  142.6870 C   0  0  0  0  0  0  0  0  0  0  0  0
  183.4570  178.9910  140.6480 N   0  0  0  0  0  0  0  0  0  0  0  0
  190.3690  175.6470  147.6970 N   0  0  0  0  0  2  0  0  0  0  0  0
  191.5590  176.3490  147.2040 C   0  0  0  0  0  3  0  0  0  0  0  0
  192.7690  176.1140  148.0930 C   0  0  0  0  0  1  0  0  0  0  0  0
  191.8640  176.0030  145.7530 C   0  0  0  0  0  1  0  0  0  0  0  0
  1 16  1  6  0  0  0
  2 24  1  0  0  0  0
  3 11  2  0  0  0  0
  4 21  2  0  0  0  0
  4  3  1  0  0  0  0
  5 25  2  0  0  0  0
  6 18  2  0  0  0  0
  6  5  1  0  0  0  0
  7 24  1  6  0  0  0
  7 19  1  0  0  0  0
  8 17  1  0  0  0  0
  9 28  1  0  0  0  0
  9 15  2  0  0  0  0
 10 20  1  0  0  0  0
 10  1  1  0  0  0  0
 11 13  1  0  0  0  0
 12  2  1  0  0  0  0
 12  8  1  0  0  0  0
 13 12  1  0  0  0  0
 14 27  1  0  0  0  0
 15 18  1  0  0  0  0
 17  7  1  0  0  0  0
 17 10  1  0  0  0  0
 19 16  2  0  0  0  0
 20 29  1  0  0  0  0
 20  1  1  0  0  0  0
 21 22  1  0  0  0  0
 22 14  2  0  0  0  0
 22 13  1  0  0  0  0
 23 28  1  0  0  0  0
 23 14  1  0  0  0  0
 26  9  1  0  0  0  0
 27  5  1  0  0  0  0
 27  2  2  0  0  0  0
 28  6  1  0  0  0  0
 30 29  1  0  0  0  0
 30 31  1  0  0  0  0
 32 30  1  0  0  0  0
M  END
>  <MODEL>
4

>  <REMARK>
 VINA RESULT:      -9.6      2.439      8.305
  Name = 
  2 active torsions:
  status: ('A' for Active; 'I' for Inactive)
    1  A    between atoms: C_20  and  N_29
    2  A    between atoms: N_29  and  C_30
                            x       y       z     vdW  Elec       q    Type
                         _______ _______ _______ _____ _____    ______ ____

>  <TORSDO>
F 2

$$$$
=
 OpenBabel11122410423D

 32 38  0  0  1  0  0  0  0  0999 V2000
  190.1610  177.0690  136.9650 C   0  0  1  0  0  3  0  0  0  0  0  0
  189.3550  177.3600  142.1710 C   0  0  0  0  0  0  0  0  0  0  0  0
  184.8870  179.2450  142.4570 C   0  0  0  0  0  3  0  0  0  0  0  0
  184.9300  179.1720  143.9290 C   0  0  0  0  0  3  0  0  0  0  0  0
  190.6790  176.8950  144.2490 C   0  0  0  0  0  0  0  0  0  0  0  0
  190.6880  176.9720  145.7070 C   0  0  0  0  0  0  0  0  0  0  0  0
  190.2610  176.7430  139.9030 C   0  0  1  0  0  3  0  0  0  0  0  0
  187.9230  177.5080  140.0870 C   0  0  0  0  0  2  0  0  0  0  0  0
  190.0210  177.3940  147.6820 C   0  0  0  0  0  0  0  0  0  0  0  0
  188.9470  177.4850  137.8050 C   0  0  2  0  0  3  0  0  0  0  0  0
  185.8060  178.6260  141.7110 C   0  0  0  0  0  3  0  0  0  0  0  0
  188.0990  177.7090  141.5320 N   0  0  0  0  0  0  0  0  0  0  0  0
  186.8660  177.7410  142.3290 C   0  0  1  0  0  3  0  0  0  0  0  0
  188.2930  177.8100  144.3570 C   0  0  0  0  0  0  0  0  0  0  0  0
  191.2670  176.8010  147.7610 C   0  0  0  0  0  3  0  0  0  0  0  0
  191.4450  176.8710  137.7430 C   0  0  0  0  0  3  0  0  0  0  0  0
  189.2180  177.6870  139.3130 C   0  0  2  0  0  3  0  0  0  0  0  0
  191.6870  176.5340  146.5020 N   0  0  0  0  0  0  0  0  0  0  0  0
  191.5050  176.7480  139.0740 C   0  0  0  0  0  3  0  0  0  0  0  0
  189.1070  176.0400  137.3500 C   0  0  1  0  0  3  0  0  0  0  0  0
  185.9820  178.6410  144.5550 C   0  0  0  0  0  3  0  0  0  0  0  0
  187.1130  178.0850  143.7780 C   0  0  0  0  0  0  0  0  0  0  0  0
  188.4850  178.1370  145.8270 C   0  0  0  0  0  2  0  0  0  0  0  0
  190.5900  177.1810  141.3170 C   0  0  0  0  0  2  0  0  0  0  0  0
  191.6800  176.4120  143.6530 O   0  0  0  0  0  0  0  0  0  0  0  0
  189.2120  177.8780  148.8340 C   0  0  0  0  0  1  0  0  0  0  0  0
  189.4510  177.3430  143.5260 C   0  0  0  0  0  0  0  0  0  0  0  0
  189.6610  177.4860  146.3930 N   0  0  0  0  0  0  0  0  0  0  0  0
  188.2300  175.7960  136.2070 N   0  0  0  0  0  2  0  0  0  0  0  0
  186.9640  176.5200  136.3580 C   0  0  0  0  0  3  0  0  0  0  0  0
  186.5940  177.2910  135.1010 C   0  0  0  0  0  1  0  0  0  0  0  0
  185.8310  175.6020  136.7960 C   0  0  0  0  0  1  0  0  0  0  0  0
  1 20  1  0  0  0  0
  1 16  1  1  0  0  0
  1 10  1  0  0  0  0
  2 27  2  0  0  0  0
  3  4  1  0  0  0  0
  4 21  2  0  0  0  0
  5  6  1  0  0  0  0
  6 28  1  0  0  0  0
  6 18  2  0  0  0  0
  7 19  1  6  0  0  0
  7 24  1  0  0  0  0
  8 12  1  0  0  0  0
  9 15  2  0  0  0  0
  9 26  1  0  0  0  0
 10 17  1  0  0  0  0
 11 13  1  0  0  0  0
 11  3  2  0  0  0  0
 12  2  1  0  0  0  0
 12 13  1  0  0  0  0
 13 22  1  0  0  0  0
 14 23  1  0  0  0  0
 16 19  2  0  0  0  0
 17  7  1  0  0  0  0
 17  8  1  0  0  0  0
 18 15  1  0  0  0  0
 20 10  1  0  0  0  0
 22 14  2  0  0  0  0
 22 21  1  0  0  0  0
 23 28  1  0  0  0  0
 24  2  1  0  0  0  0
 25  5  2  0  0  0  0
 27  5  1  0  0  0  0
 27 14  1  0  0  0  0
 28  9  1  0  0  0  0
 29 30  1  0  0  0  0
 29 20  1  0  0  0  0
 30 32  1  0  0  0  0
 31 30  1  0  0  0  0
M  END
>  <MODEL>
5

>  <REMARK>
 VINA RESULT:      -9.5      1.535      2.089
  Name = 
  2 active torsions:
  status: ('A' for Active; 'I' for Inactive)
    1  A    between atoms: C_20  and  N_29
    2  A    between atoms: N_29  and  C_30
                            x       y       z     vdW  Elec       q    Type
                         _______ _______ _______ _____ _____    ______ ____

>  <TORSDO>
F 2

$$$$
=
 OpenBabel11122410423D

 32 38  0  0  1  0  0  0  0  0999 V2000
  180.1490  179.0700  138.2660 C   0  0  1  0  0  3  0  0  0  0  0  0
  184.0830  178.6380  141.7550 C   0  0  0  0  0  0  0  0  0  0  0  0
  187.9400  177.8140  138.9190 C   0  0  0  0  0  3  0  0  0  0  0  0
  188.8240  177.7800  140.0980 C   0  0  0  0  0  3  0  0  0  0  0  0
  184.3150  178.6530  144.2520 C   0  0  0  0  0  0  0  0  0  0  0  0
  185.2370  178.4820  145.3710 C   0  0  0  0  0  0  0  0  0  0  0  0
  181.8770  179.1750  140.6640 C   0  0  1  0  0  3  0  0  0  0  0  0
  183.8860  178.9570  139.2490 C   0  0  0  0  0  2  0  0  0  0  0  0
  187.0490  178.0980  146.4160 C   0  0  0  0  0  0  0  0  0  0  0  0
  181.6630  178.8910  138.1050 C   0  0  2  0  0  3  0  0  0  0  0  0
  186.6820  178.2520  139.0150 C   0  0  0  0  0  3  0  0  0  0  0  0
  184.6890  178.6290  140.4350 N   0  0  0  0  0  0  0  0  0  0  0  0
  186.1380  178.8290  140.3030 C   0  0  1  0  0  3  0  0  0  0  0  0
  186.3340  178.3040  142.7200 C   0  0  0  0  0  0  0  0  0  0  0  0
  186.0640  178.3830  147.3420 C   0  0  0  0  0  3  0  0  0  0  0  0
  179.6290  178.9180  139.6810 C   0  0  0  0  0  3  0  0  0  0  0  0
  182.4340  178.5360  139.3960 C   0  0  2  0  0  3  0  0  0  0  0  0
  184.9140  178.6270  146.6730 N   0  0  0  0  0  0  0  0  0  0  0  0
  180.4050  178.9380  140.7710 C   0  0  0  0  0  3  0  0  0  0  0  0
  181.0540  180.2870  138.1280 C   0  0  1  0  0  3  0  0  0  0  0  0
  188.3410  178.0150  141.3190 C   0  0  0  0  0  3  0  0  0  0  0  0
  186.9100  178.3450  141.5070 C   0  0  0  0  0  0  0  0  0  0  0  0
  187.1580  177.8480  143.9100 C   0  0  0  0  0  2  0  0  0  0  0  0
  182.5770  178.5840  141.8720 C   0  0  0  0  0  2  0  0  0  0  0  0
  183.1080  178.9300  144.4870 O   0  0  0  0  0  0  0  0  0  0  0  0
  188.4600  177.7400  146.7270 C   0  0  0  0  0  1  0  0  0  0  0  0
  184.8610  178.5460  142.8640 C   0  0  0  0  0  0  0  0  0  0  0  0
  186.5260  178.1740  145.1830 N   0  0  0  0  0  0  0  0  0  0  0  0
  180.9710  180.7990  136.7620 N   0  0  0  0  0  2  0  0  0  0  0  0
  180.2610  182.0820  136.7290 C   0  0  0  0  0  3  0  0  0  0  0  0
  180.3220  182.8020  138.0660 C   0  0  0  0  0  1  0  0  0  0  0  0
  180.7520  182.9750  135.5980 C   0  0  0  0  0  1  0  0  0  0  0  0
  1 16  1  1  0  0  0
  2 24  1  0  0  0  0
  2 27  2  0  0  0  0
  3 11  2  0  0  0  0
  3  4  1  0  0  0  0
  4 21  2  0  0  0  0
  5 25  2  0  0  0  0
  5  6  1  0  0  0  0
  6 18  2  0  0  0  0
  7 19  1  1  0  0  0
  7 24  1  0  0  0  0
  8 17  1  0  0  0  0
  8 12  1  0  0  0  0
  9 26  1  0  0  0  0
  9 15  2  0  0  0  0
 10 20  1  0  0  0  0
 10  1  1  0  0  0  0
 10 17  1  0  0  0  0
 11 13  1  0  0  0  0
 12  2  1  0  0  0  0
 13 12  1  0  0  0  0
 13 22  1  0  0  0  0
 14 27  1  0  0  0  0
 14 23  1  0  0  0  0
 16 19  2  0  0  0  0
 17  7  1  0  0  0  0
 18 15  1  0  0  0  0
 20  1  1  0  0  0  0
 21 22  1  0  0  0  0
 22 14  2  0  0  0  0
 23 28  1  0  0  0  0
 27  5  1  0  0  0  0
 28  6  1  0  0  0  0
 28  9  1  0  0  0  0
 29 20  1  0  0  0  0
 30 29  1  0  0  0  0
 30 31  1  0  0  0  0
 32 30  1  0  0  0  0
M  END
>  <MODEL>
6

>  <REMARK>
 VINA RESULT:      -9.0      3.550      5.680
  Name = 
  2 active torsions:
  status: ('A' for Active; 'I' for Inactive)
    1  A    between atoms: C_20  and  N_29
    2  A    between atoms: N_29  and  C_30
                            x       y       z     vdW  Elec       q    Type
                         _______ _______ _______ _____ _____    ______ ____

>  <TORSDO>
F 2

$$$$
=
 OpenBabel11122410423D

 32 38  0  0  1  0  0  0  0  0999 V2000
  182.9330  179.2560  138.4260 C   0  0  1  0  0  3  0  0  0  0  0  0
  186.5190  178.0320  142.0970 C   0  0  0  0  0  0  0  0  0  0  0  0
  184.1790  179.0030  146.2420 C   0  0  0  0  0  3  0  0  0  0  0  0
  185.3440  178.5550  147.0270 C   0  0  0  0  0  3  0  0  0  0  0  0
  188.9060  177.2640  142.1290 C   0  0  0  0  0  0  0  0  0  0  0  0
  190.0550  176.9570  142.9760 C   0  0  0  0  0  0  0  0  0  0  0  0
  185.2470  178.1920  139.9290 C   0  0  1  0  0  3  0  0  0  0  0  0
  184.0260  178.4800  142.0520 C   0  0  0  0  0  2  0  0  0  0  0  0
  191.2250  176.7290  144.7370 C   0  0  0  0  0  0  0  0  0  0  0  0
  182.8800  179.2280  139.9580 C   0  0  2  0  0  3  0  0  0  0  0  0
  184.1010  178.7640  144.9300 C   0  0  0  0  0  3  0  0  0  0  0  0
  185.2810  178.3210  142.7990 N   0  0  0  0  0  0  0  0  0  0  0  0
  185.1430  177.9370  144.2100 C   0  0  1  0  0  3  0  0  0  0  0  0
  187.6120  177.7080  144.2900 C   0  0  0  0  0  0  0  0  0  0  0  0
  191.9940  176.3520  143.6520 C   0  0  0  0  0  3  0  0  0  0  0  0
  184.3110  179.0770  137.8250 C   0  0  0  0  0  3  0  0  0  0  0  0
  184.2430  179.0690  140.6690 C   0  0  2  0  0  3  0  0  0  0  0  0
  191.2450  176.4980  142.5340 N   0  0  0  0  0  0  0  0  0  0  0  0
  185.3720  178.6210  138.5030 C   0  0  0  0  0  3  0  0  0  0  0  0
  182.4710  178.0010  139.1540 C   0  0  1  0  0  3  0  0  0  0  0  0
  186.4250  178.0610  146.4210 C   0  0  0  0  0  3  0  0  0  0  0  0
  186.4610  177.9250  144.9470 C   0  0  0  0  0  0  0  0  0  0  0  0
  188.9090  177.6660  145.0760 C   0  0  0  0  0  2  0  0  0  0  0  0
  186.5980  178.2910  140.6100 C   0  0  0  0  0  2  0  0  0  0  0  0
  189.0100  177.1290  140.8800 O   0  0  0  0  0  0  0  0  0  0  0  0
  191.6730  176.7510  146.1570 C   0  0  0  0  0  1  0  0  0  0  0  0
  187.6310  177.6750  142.7910 C   0  0  0  0  0  0  0  0  0  0  0  0
  190.0080  177.0940  144.3060 N   0  0  0  0  0  0  0  0  0  0  0  0
  181.0130  177.9230  139.1050 N   0  0  0  0  0  2  0  0  0  0  0  0
  180.5660  176.5260  139.0970 C   0  0  0  0  0  3  0  0  0  0  0  0
  181.6670  175.5720  139.5300 C   0  0  0  0  0  1  0  0  0  0  0  0
  179.3050  176.3260  139.9260 C   0  0  0  0  0  1  0  0  0  0  0  0
  1 16  1  1  0  0  0
  1 20  1  0  0  0  0
  1 10  1  0  0  0  0
  2 27  2  0  0  0  0
  2 12  1  0  0  0  0
  3  4  1  0  0  0  0
  5 27  1  0  0  0  0
  5  6  1  0  0  0  0
  6 28  1  0  0  0  0
  7 19  1  6  0  0  0
  7 24  1  0  0  0  0
  7 17  1  0  0  0  0
  8 12  1  0  0  0  0
  9 26  1  0  0  0  0
 10 17  1  0  0  0  0
 11  3  2  0  0  0  0
 12 13  1  0  0  0  0
 13 11  1  0  0  0  0
 13 22  1  0  0  0  0
 14 22  2  0  0  0  0
 14 23  1  0  0  0  0
 15  9  2  0  0  0  0
 16 19  2  0  0  0  0
 17  8  1  0  0  0  0
 18  6  2  0  0  0  0
 18 15  1  0  0  0  0
 20 10  1  0  0  0  0
 21  4  2  0  0  0  0
 22 21  1  0  0  0  0
 24  2  1  0  0  0  0
 25  5  2  0  0  0  0
 27 14  1  0  0  0  0
 28  9  1  0  0  0  0
 28 23  1  0  0  0  0
 29 20  1  0  0  0  0
 30 29  1  0  0  0  0
 30 31  1  0  0  0  0
 30 32  1  0  0  0  0
M  END
>  <MODEL>
7

>  <REMARK>
 VINA RESULT:      -8.5      2.352      3.454
  Name = 
  2 active torsions:
  status: ('A' for Active; 'I' for Inactive)
    1  A    between atoms: C_20  and  N_29
    2  A    between atoms: N_29  and  C_30
                            x       y       z     vdW  Elec       q    Type
                         _______ _______ _______ _____ _____    ______ ____

>  <TORSDO>
F 2

$$$$
=
 OpenBabel11122410423D

 32 38  0  0  1  0  0  0  0  0999 V2000
  191.7460  175.8410  136.9040 C   0  0  1  0  0  3  0  0  0  0  0  0
  188.8960  177.3350  141.0860 C   0  0  0  0  0  0  0  0  0  0  0  0
  191.7100  176.0210  144.8210 C   0  0  0  0  0  3  0  0  0  0  0  0
  190.7300  176.5670  145.7770 C   0  0  0  0  0  3  0  0  0  0  0  0
  186.6350  178.3430  141.4840 C   0  0  0  0  0  0  0  0  0  0  0  0
  185.6640  178.7450  142.4980 C   0  0  0  0  0  0  0  0  0  0  0  0
  189.8070  177.1000  138.7490 C   0  0  1  0  0  3  0  0  0  0  0  0
  191.2930  176.6330  140.6610 C   0  0  0  0  0  2  0  0  0  0  0  0
  184.8000  179.0480  144.4160 C   0  0  0  0  0  0  0  0  0  0  0  0
  192.0290  175.8240  138.4120 C   0  0  2  0  0  3  0  0  0  0  0  0
  191.6180  176.2850  143.5150 C   0  0  0  0  0  3  0  0  0  0  0  0
  190.1870  176.9010  141.5900 N   0  0  0  0  0  0  0  0  0  0  0  0
  190.5730  177.2330  142.9680 C   0  0  1  0  0  3  0  0  0  0  0  0
  188.1820  177.7130  143.4210 C   0  0  0  0  0  0  0  0  0  0  0  0
  183.9220  179.5300  143.4630 C   0  0  0  0  0  3  0  0  0  0  0  0
  190.3200  176.1770  136.5190 C   0  0  0  0  0  3  0  0  0  0  0  0
  190.8110  176.1050  139.3210 C   0  0  2  0  0  3  0  0  0  0  0  0
  184.4770  179.3350  142.2440 N   0  0  0  0  0  0  0  0  0  0  0  0
  189.4270  176.7220  137.3540 C   0  0  0  0  0  3  0  0  0  0  0  0
  192.4420  177.0230  137.5670 C   0  0  1  0  0  3  0  0  0  0  0  0
  189.6280  177.1860  145.3460 C   0  0  0  0  0  3  0  0  0  0  0  0
  189.3890  177.3620  143.8950 C   0  0  0  0  0  0  0  0  0  0  0  0
  187.0280  177.8690  144.3940 C   0  0  0  0  0  2  0  0  0  0  0  0
  188.5700  177.1230  139.6250 C   0  0  0  0  0  2  0  0  0  0  0  0
  186.3610  178.5200  140.2660 O   0  0  0  0  0  0  0  0  0  0  0  0
  184.5670  179.0360  145.8870 C   0  0  0  0  0  1  0  0  0  0  0  0
  187.9440  177.7860  141.9420 C   0  0  0  0  0  0  0  0  0  0  0  0
  185.8930  178.5700  143.8040 N   0  0  0  0  0  0  0  0  0  0  0  0
  193.8760  176.9520  137.2990 N   0  0  0  0  0  2  0  0  0  0  0  0
  194.1600  175.9810  136.2370 C   0  0  0  0  0  3  0  0  0  0  0  0
  194.6370  176.6560  134.9610 C   0  0  0  0  0  1  0  0  0  0  0  0
  195.1390  174.9080  136.6920 C   0  0  0  0  0  1  0  0  0  0  0  0
  1 16  1  1  0  0  0
  1 20  1  0  0  0  0
  1 10  1  0  0  0  0
  2 12  1  0  0  0  0
  2 27  2  0  0  0  0
  3  4  1  0  0  0  0
  5 27  1  0  0  0  0
  5  6  1  0  0  0  0
  6 28  1  0  0  0  0
  7 19  1  6  0  0  0
  7 17  1  0  0  0  0
  7 24  1  0  0  0  0
  8 12  1  0  0  0  0
  9 26  1  0  0  0  0
 10 17  1  0  0  0  0
 11  3  2  0  0  0  0
 12 13  1  0  0  0  0
 13 11  1  0  0  0  0
 13 22  1  0  0  0  0
 14 22  2  0  0  0  0
 14 23  1  0  0  0  0
 15  9  2  0  0  0  0
 16 19  2  0  0  0  0
 17  8  1  0  0  0  0
 18  6  2  0  0  0  0
 18 15  1  0  0  0  0
 20 10  1  0  0  0  0
 21  4  2  0  0  0  0
 22 21  1  0  0  0  0
 24  2  1  0  0  0  0
 25  5  2  0  0  0  0
 27 14  1  0  0  0  0
 28 23  1  0  0  0  0
 28  9  1  0  0  0  0
 29 20  1  0  0  0  0
 30 32  1  0  0  0  0
 30 29  1  0  0  0  0
 31 30  1  0  0  0  0
M  END
>  <MODEL>
8

>  <REMARK>
 VINA RESULT:      -8.3      3.242      5.880
  Name = 
  2 active torsions:
  status: ('A' for Active; 'I' for Inactive)
    1  A    between atoms: C_20  and  N_29
    2  A    between atoms: N_29  and  C_30
                            x       y       z     vdW  Elec       q    Type
                         _______ _______ _______ _____ _____    ______ ____

>  <TORSDO>
F 2

$$$$
=
 OpenBabel11122410423D

 32 38  0  0  1  0  0  0  0  0999 V2000
  189.9240  176.7530  146.1080 C   0  0  1  0  0  3  0  0  0  0  0  0
  188.2750  177.6750  141.1820 C   0  0  0  0  0  0  0  0  0  0  0  0
  183.5420  178.5840  141.7910 C   0  0  0  0  0  3  0  0  0  0  0  0
  183.3830  178.8250  140.3460 C   0  0  0  0  0  3  0  0  0  0  0  0
  189.2810  177.6310  138.8840 C   0  0  0  0  0  0  0  0  0  0  0  0
  189.0110  177.7650  137.4560 C   0  0  0  0  0  0  0  0  0  0  0  0
  189.7190  177.3780  143.2240 C   0  0  1  0  0  3  0  0  0  0  0  0
  187.3610  178.0410  143.5160 C   0  0  0  0  0  2  0  0  0  0  0  0
  187.9180  178.0530  135.6550 C   0  0  0  0  0  0  0  0  0  0  0  0
  188.5700  177.1860  145.5310 C   0  0  2  0  0  3  0  0  0  0  0  0
  184.7550  178.4920  142.3440 C   0  0  0  0  0  3  0  0  0  0  0  0
  187.1610  177.9810  142.0610 N   0  0  0  0  0  0  0  0  0  0  0  0
  186.0140  178.7350  141.5410 C   0  0  1  0  0  3  0  0  0  0  0  0
  186.8110  178.1850  139.2560 C   0  0  0  0  0  0  0  0  0  0  0  0
  189.2500  177.8780  135.3320 C   0  0  0  0  0  3  0  0  0  0  0  0
  190.9550  176.3280  145.0830 C   0  0  0  0  0  3  0  0  0  0  0  0
  188.4370  177.0820  143.9950 C   0  0  2  0  0  3  0  0  0  0  0  0
  189.9420  177.6950  136.4800 N   0  0  0  0  0  0  0  0  0  0  0  0
  190.8590  176.5820  143.7720 C   0  0  0  0  0  3  0  0  0  0  0  0
  189.5820  178.2320  145.9810 C   0  0  1  0  0  3  0  0  0  0  0  0
  184.4350  178.7810  139.5270 C   0  0  0  0  0  3  0  0  0  0  0  0
  185.7900  178.5180  140.0630 C   0  0  0  0  0  0  0  0  0  0  0  0
  186.5490  178.0150  137.7710 C   0  0  0  0  0  2  0  0  0  0  0  0
  189.5150  177.0340  141.7620 C   0  0  0  0  0  2  0  0  0  0  0  0
  190.4590  177.4030  139.2700 O   0  0  0  0  0  0  0  0  0  0  0  0
  186.8050  178.2530  134.6860 C   0  0  0  0  0  1  0  0  0  0  0  0
  188.1460  177.8270  139.8380 C   0  0  0  0  0  0  0  0  0  0  0  0
  187.7790  177.9940  136.9880 N   0  0  0  0  0  0  0  0  0  0  0  0
  189.1890  178.7510  147.2880 N   0  0  0  0  0  2  0  0  0  0  0  0
  187.9270  178.1490  147.7290 C   0  0  0  0  0  3  0  0  0  0  0  0
  187.9300  177.8440  149.2180 C   0  0  0  0  0  1  0  0  0  0  0  0
  186.7250  178.9990  147.3430 C   0  0  0  0  0  1  0  0  0  0  0  0
  1 16  1  6  0  0  0
  2 24  1  0  0  0  0
  2 12  1  0  0  0  0
  3 11  2  0  0  0  0
  4  3  1  0  0  0  0
  5 25  2  0  0  0  0
  5 27  1  0  0  0  0
  6  5  1  0  0  0  0
  7 24  1  6  0  0  0
  7 19  1  0  0  0  0
  7 17  1  0  0  0  0
  8 17  1  0  0  0  0
  9 28  1  0  0  0  0
 10 20  1  0  0  0  0
 10  1  1  0  0  0  0
 12  8  1  0  0  0  0
 13 12  1  0  0  0  0
 13 11  1  0  0  0  0
 14 27  1  0  0  0  0
 14 22  2  0  0  0  0
 15  9  2  0  0  0  0
 15 18  1  0  0  0  0
 17 10  1  0  0  0  0
 18  6  2  0  0  0  0
 19 16  2  0  0  0  0
 20  1  1  0  0  0  0
 20 29  1  0  0  0  0
 21 22  1  0  0  0  0
 21  4  2  0  0  0  0
 22 13  1  0  0  0  0
 23 14  1  0  0  0  0
 26  9  1  0  0  0  0
 27  2  2  0  0  0  0
 28  6  1  0  0  0  0
 28 23  1  0  0  0  0
 29 30  1  0  0  0  0
 30 31  1  0  0  0  0
 32 30  1  0  0  0  0
M  END
>  <MODEL>
9

>  <REMARK>
 VINA RESULT:      -8.0      1.791      7.720
  Name = 
  2 active torsions:
  status: ('A' for Active; 'I' for Inactive)
    1  A    between atoms: C_20  and  N_29
    2  A    between atoms: N_29  and  C_30
                            x       y       z     vdW  Elec       q    Type
                         _______ _______ _______ _____ _____    ______ ____

>  <TORSDO>
F 2

$$$$
