=
 OpenBabel11122411563D

 28 32  0  0  1  0  0  0  0  0999 V2000
  181.2460  179.2090  137.5620 C   0  0  0  0  0  0  0  0  0  0  0  0
  185.5940  176.8350  138.5070 F   0  0  0  0  0  0  0  0  0  0  0  0
  180.7330  178.6920  142.2920 O   0  0  0  0  0  0  0  0  0  0  0  0
  181.6240  181.8590  138.3890 C   0  0  0  0  0  3  0  0  0  0  0  0
  183.1090  178.7450  142.0060 C   0  0  0  0  0  0  0  0  0  0  0  0
  180.9840  177.7860  137.1770 C   0  0  0  0  0  2  0  0  0  0  0  0
  186.1750  178.4890  136.9310 C   0  0  0  0  0  1  0  0  0  0  0  0
  185.9310  178.1740  138.3940 C   0  0  1  0  0  0  0  0  0  0  0  0
  186.8940  178.3570  140.6320 C   0  0  1  0  0  3  0  0  0  0  0  0
  184.8040  179.0930  138.9270 C   0  0  2  0  0  3  0  0  0  0  0  0
  179.2190  178.6150  139.7100 O   0  0  0  0  0  1  0  0  0  0  0  0
  183.1270  177.6450  139.8910 C   0  0  1  0  0  3  0  0  0  0  0  0
  186.0690  179.4530  140.9510 O   0  0  0  0  0  0  0  0  0  0  0  0
  187.2180  178.4060  139.1570 C   0  0  0  0  0  2  0  0  0  0  0  0
  179.5510  177.3250  139.2900 C   0  0  2  0  0  3  0  0  0  0  0  0
  182.3940  179.5500  138.3060 C   0  0  0  0  0  0  0  0  0  0  0  0
  181.7630  178.4470  141.6080 C   0  0  0  0  0  0  0  0  0  0  0  0
  188.1760  178.4440  141.4320 C   0  0  0  0  0  1  0  0  0  0  0  0
  180.7470  176.7540  140.0550 C   0  0  0  0  0  2  0  0  0  0  0  0
  182.5580  180.8800  138.7320 C   0  0  0  0  0  3  0  0  0  0  0  0
  180.3240  180.2010  137.2050 C   0  0  0  0  0  3  0  0  0  0  0  0
  180.5110  181.5230  137.6170 C   0  0  0  0  0  3  0  0  0  0  0  0
  179.6760  177.2440  137.7640 C   0  0  0  0  0  2  0  0  0  0  0  0
  184.0570  178.2010  140.9990 C   0  0  1  0  0  3  0  0  0  0  0  0
  181.7450  177.7720  140.3630 N   0  0  0  0  0  0  0  0  0  0  0  0
  184.8250  179.2860  140.3900 N   0  0  2  0  0  0  0  0  0  0  0  0
  183.4370  179.3400  143.0660 O   0  0  0  0  0  0  0  0  0  0  0  0
  183.4320  178.4890  138.6380 C   0  0  1  0  0  3  0  0  0  0  0  0
  1 16  1  0  0  0  0
  4 20  1  0  0  0  0
  5 27  2  0  0  0  0
  6  1  1  0  0  0  0
  6 23  1  0  0  0  0
  8  7  1  6  0  0  0
  8  2  1  0  0  0  0
  8 10  1  0  0  0  0
  8 14  1  0  0  0  0
  9 13  1  0  0  0  0
  9 18  1  1  0  0  0
 10 26  1  0  0  0  0
 12 25  1  0  0  0  0
 12 24  1  0  0  0  0
 14  9  1  0  0  0  0
 15 11  1  0  0  0  0
 15 19  1  0  0  0  0
 16 28  1  0  0  0  0
 16 20  2  0  0  0  0
 17  5  1  0  0  0  0
 17  3  2  0  0  0  0
 19 25  1  0  0  0  0
 21  1  2  0  0  0  0
 21 22  1  0  0  0  0
 22  4  2  0  0  0  0
 23 15  1  0  0  0  0
 24  5  1  0  0  0  0
 25 17  1  0  0  0  0
 26 13  1  0  0  0  0
 26 24  1  0  0  0  0
 28 10  1  0  0  0  0
 28 12  1  0  0  0  0
M  END
>  <MODEL>
1

>  <REMARK>
 VINA RESULT:      -6.0      0.000      0.000
  Name = 
  0 active torsions:
  status: ('A' for Active; 'I' for Inactive)
                            x       y       z     vdW  Elec       q    Type
                         _______ _______ _______ _____ _____    ______ ____

>  <TORSDO>
F 0

$$$$
=
 OpenBabel11122411563D

 28 32  0  0  1  0  0  0  0  0999 V2000
  189.4040  178.1800  138.1120 C   0  0  0  0  0  0  0  0  0  0  0  0
  192.2140  175.9100  134.5940 F   0  0  0  0  0  0  0  0  0  0  0  0
  186.5660  174.4160  137.2890 O   0  0  0  0  0  0  0  0  0  0  0  0
  189.8130  176.7300  140.4740 C   0  0  0  0  0  3  0  0  0  0  0  0
  188.7420  173.5850  136.7400 C   0  0  0  0  0  0  0  0  0  0  0  0
  189.1040  178.9330  136.8530 C   0  0  0  0  0  2  0  0  0  0  0  0
  193.7840  176.6650  136.1820 C   0  0  0  0  0  1  0  0  0  0  0  0
  192.8060  175.5720  135.8010 C   0  0  1  0  0  0  0  0  0  0  0  0
  192.5710  173.1590  135.5030 C   0  0  1  0  0  3  0  0  0  0  0  0
  191.7530  175.4210  136.9280 C   0  0  2  0  0  3  0  0  0  0  0  0
  186.5170  177.3530  137.8670 O   0  0  0  0  0  1  0  0  0  0  0  0
  189.5850  175.6450  135.8870 C   0  0  1  0  0  3  0  0  0  0  0  0
  191.9140  173.0200  136.7410 O   0  0  0  0  0  0  0  0  0  0  0  0
  193.5750  174.2830  135.6090 C   0  0  0  0  0  2  0  0  0  0  0  0
  186.7670  177.8420  136.5820 C   0  0  2  0  0  3  0  0  0  0  0  0
  190.0840  176.9460  138.0630 C   0  0  0  0  0  0  0  0  0  0  0  0
  187.7320  174.5980  136.8480 C   0  0  0  0  0  0  0  0  0  0  0  0
  193.2910  171.8700  135.1700 C   0  0  0  0  0  1  0  0  0  0  0  0
  187.3080  176.7620  135.6440 C   0  0  0  0  0  2  0  0  0  0  0  0
  190.2620  176.2210  139.2540 C   0  0  0  0  0  3  0  0  0  0  0  0
  188.9740  178.6940  139.3430 C   0  0  0  0  0  3  0  0  0  0  0  0
  189.1780  177.9720  140.5210 C   0  0  0  0  0  3  0  0  0  0  0  0
  187.6020  179.1270  136.6210 C   0  0  0  0  0  2  0  0  0  0  0  0
  189.9420  174.1480  136.0670 C   0  0  1  0  0  3  0  0  0  0  0  0
  188.1990  175.8300  136.3270 N   0  0  0  0  0  0  0  0  0  0  0  0
  191.0950  174.1020  136.9650 N   0  0  2  0  0  0  0  0  0  0  0  0
  188.6160  172.3910  137.1210 O   0  0  0  0  0  0  0  0  0  0  0  0
  190.6120  176.4160  136.7390 C   0  0  1  0  0  3  0  0  0  0  0  0
  1 21  1  0  0  0  0
  2  8  1  0  0  0  0
  4 22  1  0  0  0  0
  5 17  1  0  0  0  0
  5 27  2  0  0  0  0
  6  1  1  0  0  0  0
  8  7  1  1  0  0  0
  8 10  1  0  0  0  0
  9 18  1  1  0  0  0
  9 14  1  0  0  0  0
  9 13  1  0  0  0  0
 10 26  1  0  0  0  0
 12 24  1  0  0  0  0
 12 25  1  0  0  0  0
 12 28  1  0  0  0  0
 13 26  1  0  0  0  0
 14  8  1  0  0  0  0
 15 23  1  0  0  0  0
 15 11  1  0  0  0  0
 16  1  2  0  0  0  0
 16 20  1  0  0  0  0
 17  3  2  0  0  0  0
 19 25  1  0  0  0  0
 19 15  1  0  0  0  0
 20  4  2  0  0  0  0
 21 22  2  0  0  0  0
 23  6  1  0  0  0  0
 24  5  1  0  0  0  0
 24 26  1  0  0  0  0
 25 17  1  0  0  0  0
 28 10  1  0  0  0  0
 28 16  1  0  0  0  0
M  END
>  <MODEL>
2

>  <REMARK>
 VINA RESULT:      -5.8      5.842      8.650
  Name = 
  0 active torsions:
  status: ('A' for Active; 'I' for Inactive)
                            x       y       z     vdW  Elec       q    Type
                         _______ _______ _______ _____ _____    ______ ____

>  <TORSDO>
F 0

$$$$
=
 OpenBabel11122411563D

 28 32  0  0  1  0  0  0  0  0999 V2000
  179.7490  179.1420  137.2410 C   0  0  0  0  0  0  0  0  0  0  0  0
  181.1970  174.5530  138.7490 F   0  0  0  0  0  0  0  0  0  0  0  0
  183.9960  180.3360  139.0930 O   0  0  0  0  0  0  0  0  0  0  0  0
  181.1810  179.6650  134.8900 C   0  0  0  0  0  3  0  0  0  0  0  0
  184.3120  178.0560  138.4380 C   0  0  0  0  0  0  0  0  0  0  0  0
  179.0220  178.9280  138.5320 C   0  0  0  0  0  2  0  0  0  0  0  0
  180.1930  174.1760  136.6500 C   0  0  0  0  0  1  0  0  0  0  0  0
  181.4530  174.5830  137.3870 C   0  0  1  0  0  0  0  0  0  0  0  0
  183.8450  174.1270  137.5930 C   0  0  1  0  0  3  0  0  0  0  0  0
  181.8790  175.9970  136.9180 C   0  0  2  0  0  3  0  0  0  0  0  0
  181.1690  181.2800  138.8200 O   0  0  0  0  0  1  0  0  0  0  0  0
  182.0820  177.3550  138.9060 C   0  0  1  0  0  3  0  0  0  0  0  0
  184.1770  175.2650  136.8340 O   0  0  0  0  0  0  0  0  0  0  0  0
  182.5360  173.5690  137.0850 C   0  0  0  0  0  2  0  0  0  0  0  0
  180.5800  180.5350  139.8440 C   0  0  2  0  0  3  0  0  0  0  0  0
  180.8030  178.2860  136.8620 C   0  0  0  0  0  0  0  0  0  0  0  0
  183.5470  179.1730  138.9130 C   0  0  0  0  0  0  0  0  0  0  0  0
  184.9310  173.0850  137.4380 C   0  0  0  0  0  1  0  0  0  0  0  0
  181.4740  179.3870  140.3170 C   0  0  0  0  0  2  0  0  0  0  0  0
  181.5250  178.5750  135.6910 C   0  0  0  0  0  3  0  0  0  0  0  0
  179.3960  180.2220  136.4220 C   0  0  0  0  0  3  0  0  0  0  0  0
  180.1090  180.4830  135.2490 C   0  0  0  0  0  3  0  0  0  0  0  0
  179.1480  180.1200  139.4880 C   0  0  0  0  0  2  0  0  0  0  0  0
  183.4730  176.8290  138.4700 C   0  0  1  0  0  3  0  0  0  0  0  0
  182.2210  178.7800  139.2200 N   0  0  0  0  0  0  0  0  0  0  0  0
  183.3100  176.2940  137.1190 N   0  0  2  0  0  0  0  0  0  0  0  0
  185.5210  178.1010  138.0880 O   0  0  0  0  0  0  0  0  0  0  0  0
  181.1460  177.0740  137.7140 C   0  0  1  0  0  3  0  0  0  0  0  0
  1  6  1  0  0  0  0
  4 22  2  0  0  0  0
  4 20  1  0  0  0  0
  5 24  1  0  0  0  0
  5 17  1  0  0  0  0
  6 23  1  0  0  0  0
  8  7  1  6  0  0  0
  8  2  1  0  0  0  0
  9 18  1  6  0  0  0
 10 26  1  0  0  0  0
 10  8  1  0  0  0  0
 10 28  1  0  0  0  0
 11 15  1  0  0  0  0
 12 25  1  0  0  0  0
 13 26  1  0  0  0  0
 13  9  1  0  0  0  0
 14  8  1  0  0  0  0
 14  9  1  0  0  0  0
 15 19  1  0  0  0  0
 16  1  1  0  0  0  0
 16 28  1  0  0  0  0
 17  3  2  0  0  0  0
 17 25  1  0  0  0  0
 20 16  2  0  0  0  0
 21  1  2  0  0  0  0
 22 21  1  0  0  0  0
 23 15  1  0  0  0  0
 24 12  1  0  0  0  0
 25 19  1  0  0  0  0
 26 24  1  0  0  0  0
 27  5  2  0  0  0  0
 28 12  1  0  0  0  0
M  END
>  <MODEL>
3

>  <REMARK>
 VINA RESULT:      -5.2      2.953      4.379
  Name = 
  0 active torsions:
  status: ('A' for Active; 'I' for Inactive)
                            x       y       z     vdW  Elec       q    Type
                         _______ _______ _______ _____ _____    ______ ____

>  <TORSDO>
F 0

$$$$
=
 OpenBabel11122411563D

 28 32  0  0  1  0  0  0  0  0999 V2000
  182.3760  179.2180  138.8330 C   0  0  0  0  0  0  0  0  0  0  0  0
  179.6760  176.1030  135.9280 F   0  0  0  0  0  0  0  0  0  0  0  0
  179.0650  177.9700  142.0550 O   0  0  0  0  0  0  0  0  0  0  0  0
  183.9110  177.5730  140.5030 C   0  0  0  0  0  3  0  0  0  0  0  0
  179.1430  176.0750  140.5950 C   0  0  0  0  0  0  0  0  0  0  0  0
  181.5180  180.1270  138.0090 C   0  0  0  0  0  2  0  0  0  0  0  0
  181.9140  175.6160  135.3670 C   0  0  0  0  0  1  0  0  0  0  0  0
  180.7740  175.3590  136.3330 C   0  0  1  0  0  0  0  0  0  0  0  0
  179.4700  173.5980  137.4130 C   0  0  1  0  0  3  0  0  0  0  0  0
  181.2270  175.7440  137.7630 C   0  0  2  0  0  3  0  0  0  0  0  0
  180.6980  180.2880  141.0950 O   0  0  0  0  0  1  0  0  0  0  0  0
  179.5960  177.3130  138.6090 C   0  0  1  0  0  3  0  0  0  0  0  0
  180.1760  173.7480  138.6210 O   0  0  0  0  0  0  0  0  0  0  0  0
  180.4050  173.8930  136.2630 C   0  0  0  0  0  2  0  0  0  0  0  0
  179.9310  180.6650  139.9890 C   0  0  2  0  0  3  0  0  0  0  0  0
  182.1120  177.8340  138.8810 C   0  0  0  0  0  0  0  0  0  0  0  0
  179.2370  177.4720  140.9110 C   0  0  0  0  0  0  0  0  0  0  0  0
  178.9650  172.1760  137.3000 C   0  0  0  0  0  1  0  0  0  0  0  0
  178.9380  179.5770  139.5730 C   0  0  0  0  0  2  0  0  0  0  0  0
  182.8780  177.0260  139.7400 C   0  0  0  0  0  3  0  0  0  0  0  0
  183.4280  179.7560  139.5870 C   0  0  0  0  0  3  0  0  0  0  0  0
  184.1940  178.9370  140.4180 C   0  0  0  0  0  3  0  0  0  0  0  0
  180.8080  181.1950  138.8490 C   0  0  0  0  0  2  0  0  0  0  0  0
  179.2880  175.8860  139.1280 C   0  0  1  0  0  3  0  0  0  0  0  0
  179.4840  178.2350  139.7430 N   0  0  0  0  0  0  0  0  0  0  0  0
  180.4690  175.0740  138.8370 N   0  0  2  0  0  0  0  0  0  0  0  0
  178.9310  175.1560  141.4290 O   0  0  0  0  0  0  0  0  0  0  0  0
  181.0160  177.2350  138.0150 C   0  0  1  0  0  3  0  0  0  0  0  0
  1 16  2  0  0  0  0
  1 21  1  0  0  0  0
  2  8  1  0  0  0  0
  5 17  1  0  0  0  0
  5 27  2  0  0  0  0
  6  1  1  0  0  0  0
  6 23  1  0  0  0  0
  8  7  1  6  0  0  0
  8 10  1  0  0  0  0
  9 18  1  6  0  0  0
  9 13  1  0  0  0  0
 10 28  1  0  0  0  0
 10 26  1  0  0  0  0
 12 24  1  0  0  0  0
 12 25  1  0  0  0  0
 13 26  1  0  0  0  0
 14  8  1  0  0  0  0
 14  9  1  0  0  0  0
 15 11  1  0  0  0  0
 16 20  1  0  0  0  0
 17  3  2  0  0  0  0
 19 25  1  0  0  0  0
 19 15  1  0  0  0  0
 20  4  2  0  0  0  0
 21 22  2  0  0  0  0
 22  4  1  0  0  0  0
 23 15  1  0  0  0  0
 24  5  1  0  0  0  0
 25 17  1  0  0  0  0
 26 24  1  0  0  0  0
 28 12  1  0  0  0  0
 28 16  1  0  0  0  0
M  END
>  <MODEL>
4

>  <REMARK>
 VINA RESULT:      -5.2      2.796      5.464
  Name = 
  0 active torsions:
  status: ('A' for Active; 'I' for Inactive)
                            x       y       z     vdW  Elec       q    Type
                         _______ _______ _______ _____ _____    ______ ____

>  <TORSDO>
F 0

$$$$
=
 OpenBabel11122411563D

 28 32  0  0  1  0  0  0  0  0999 V2000
  181.8260  175.7620  136.1050 C   0  0  0  0  0  0  0  0  0  0  0  0
  186.6370  175.2640  137.5330 F   0  0  0  0  0  0  0  0  0  0  0  0
  181.8340  178.9940  139.6340 O   0  0  0  0  0  0  0  0  0  0  0  0
  181.7120  178.1270  134.6060 C   0  0  0  0  0  3  0  0  0  0  0  0
  184.1130  178.9810  138.9050 C   0  0  0  0  0  0  0  0  0  0  0  0
  181.8350  174.5340  136.9610 C   0  0  0  0  0  2  0  0  0  0  0  0
  186.7250  175.1710  135.1790 C   0  0  0  0  0  1  0  0  0  0  0  0
  186.6770  176.0650  136.4030 C   0  0  1  0  0  0  0  0  0  0  0  0
  187.7660  177.9560  137.5010 C   0  0  1  0  0  3  0  0  0  0  0  0
  185.4320  176.9820  136.3100 C   0  0  2  0  0  3  0  0  0  0  0  0
  180.1560  176.8710  138.3540 O   0  0  0  0  0  1  0  0  0  0  0  0
  184.1820  176.6630  138.3520 C   0  0  1  0  0  3  0  0  0  0  0  0
  186.7620  178.8450  137.0760 O   0  0  0  0  0  0  0  0  0  0  0  0
  187.9470  176.8870  136.4490 C   0  0  0  0  0  2  0  0  0  0  0  0
  180.7130  175.7430  138.9630 C   0  0  2  0  0  3  0  0  0  0  0  0
  182.9370  176.6310  136.0880 C   0  0  0  0  0  0  0  0  0  0  0  0
  182.8300  178.3900  139.1560 C   0  0  0  0  0  0  0  0  0  0  0  0
  189.0650  178.7130  137.6780 C   0  0  0  0  0  1  0  0  0  0  0  0
  182.0620  176.0430  139.6210 C   0  0  0  0  0  2  0  0  0  0  0  0
  182.8550  177.8230  135.3480 C   0  0  0  0  0  3  0  0  0  0  0  0
  180.6900  176.0640  135.3420 C   0  0  0  0  0  3  0  0  0  0  0  0
  180.6330  177.2420  134.5940 C   0  0  0  0  0  3  0  0  0  0  0  0
  180.7220  174.5380  138.0150 C   0  0  0  0  0  2  0  0  0  0  0  0
  185.0650  177.9310  138.4560 C   0  0  1  0  0  3  0  0  0  0  0  0
  182.8480  177.0050  138.8570 N   0  0  0  0  0  0  0  0  0  0  0  0
  185.5360  178.2220  137.1030 N   0  0  2  0  0  0  0  0  0  0  0  0
  184.3990  180.1950  139.0790 O   0  0  0  0  0  0  0  0  0  0  0  0
  184.1970  176.2750  136.8610 C   0  0  1  0  0  3  0  0  0  0  0  0
  1  6  1  0  0  0  0
  4 20  1  0  0  0  0
  5 27  2  0  0  0  0
  5 17  1  0  0  0  0
  6 23  1  0  0  0  0
  8  7  1  6  0  0  0
  8 14  1  0  0  0  0
  8  2  1  0  0  0  0
  9 18  1  6  0  0  0
 10  8  1  0  0  0  0
 10 28  1  0  0  0  0
 10 26  1  0  0  0  0
 11 15  1  0  0  0  0
 12 24  1  0  0  0  0
 12 25  1  0  0  0  0
 13 26  1  0  0  0  0
 13  9  1  0  0  0  0
 14  9  1  0  0  0  0
 15 19  1  0  0  0  0
 16  1  1  0  0  0  0
 16 28  1  0  0  0  0
 17  3  2  0  0  0  0
 20 16  2  0  0  0  0
 21  1  2  0  0  0  0
 22  4  2  0  0  0  0
 22 21  1  0  0  0  0
 23 15  1  0  0  0  0
 24  5  1  0  0  0  0
 25 17  1  0  0  0  0
 25 19  1  0  0  0  0
 26 24  1  0  0  0  0
 28 12  1  0  0  0  0
M  END
>  <MODEL>
5

>  <REMARK>
 VINA RESULT:      -5.1      2.565      3.431
  Name = 
  0 active torsions:
  status: ('A' for Active; 'I' for Inactive)
                            x       y       z     vdW  Elec       q    Type
                         _______ _______ _______ _____ _____    ______ ____

>  <TORSDO>
F 0

$$$$
=
 OpenBabel11122411563D

 28 32  0  0  1  0  0  0  0  0999 V2000
  180.6190  177.5940  137.9770 C   0  0  0  0  0  0  0  0  0  0  0  0
  183.9220  173.8410  137.3130 F   0  0  0  0  0  0  0  0  0  0  0  0
  184.5550  179.8710  139.4680 O   0  0  0  0  0  0  0  0  0  0  0  0
  181.0130  179.3520  135.8310 C   0  0  0  0  0  3  0  0  0  0  0  0
  185.4150  178.2530  137.9290 C   0  0  0  0  0  0  0  0  0  0  0  0
  180.4310  176.7170  139.1750 C   0  0  0  0  0  2  0  0  0  0  0  0
  182.5250  173.7180  135.4180 C   0  0  0  0  0  1  0  0  0  0  0  0
  183.7310  174.3820  136.0510 C   0  0  1  0  0  0  0  0  0  0  0  0
  186.0800  174.9500  135.6890 C   0  0  1  0  0  3  0  0  0  0  0  0
  183.4900  175.9110  136.1160 C   0  0  2  0  0  3  0  0  0  0  0  0
  181.6320  179.5540  140.0290 O   0  0  0  0  0  1  0  0  0  0  0  0
  183.8060  176.5640  138.4210 C   0  0  1  0  0  3  0  0  0  0  0  0
  185.7630  176.2900  135.3970 O   0  0  0  0  0  0  0  0  0  0  0  0
  184.9510  174.0670  135.2110 C   0  0  0  0  0  2  0  0  0  0  0  0
  181.6670  178.3610  140.7560 C   0  0  2  0  0  3  0  0  0  0  0  0
  181.7370  177.4250  137.1340 C   0  0  0  0  0  0  0  0  0  0  0  0
  184.4960  178.7390  138.9170 C   0  0  0  0  0  0  0  0  0  0  0  0
  187.3560  174.5690  134.9690 C   0  0  0  0  0  1  0  0  0  0  0  0
  182.9960  177.6200  140.5930 C   0  0  0  0  0  2  0  0  0  0  0  0
  181.9310  178.3280  136.0740 C   0  0  0  0  0  3  0  0  0  0  0  0
  179.6920  178.6110  137.7140 C   0  0  0  0  0  3  0  0  0  0  0  0
  179.8880  179.4870  136.6440 C   0  0  0  0  0  3  0  0  0  0  0  0
  180.4250  177.5030  140.4910 C   0  0  0  0  0  2  0  0  0  0  0  0
  185.0930  176.8380  137.6040 C   0  0  1  0  0  3  0  0  0  0  0  0
  183.5400  177.7470  139.2450 N   0  0  0  0  0  0  0  0  0  0  0  0
  184.7250  176.7140  136.1950 N   0  0  2  0  0  0  0  0  0  0  0  0
  186.3720  178.9100  137.4420 O   0  0  0  0  0  0  0  0  0  0  0  0
  182.7100  176.2820  137.3750 C   0  0  1  0  0  3  0  0  0  0  0  0
  1  6  1  0  0  0  0
  4 20  2  0  0  0  0
  4 22  1  0  0  0  0
  5 17  1  0  0  0  0
  6 23  1  0  0  0  0
  8  7  1  6  0  0  0
  8 10  1  0  0  0  0
  8  2  1  0  0  0  0
  9 18  1  6  0  0  0
 10 26  1  0  0  0  0
 10 28  1  0  0  0  0
 11 15  1  0  0  0  0
 12 25  1  0  0  0  0
 13  9  1  0  0  0  0
 13 26  1  0  0  0  0
 14  9  1  0  0  0  0
 14  8  1  0  0  0  0
 16 28  1  0  0  0  0
 16  1  2  0  0  0  0
 17 25  1  0  0  0  0
 17  3  2  0  0  0  0
 19 15  1  0  0  0  0
 20 16  1  0  0  0  0
 21  1  1  0  0  0  0
 22 21  2  0  0  0  0
 23 15  1  0  0  0  0
 24  5  1  0  0  0  0
 24 12  1  0  0  0  0
 25 19  1  0  0  0  0
 26 24  1  0  0  0  0
 27  5  2  0  0  0  0
 28 12  1  0  0  0  0
M  END
>  <MODEL>
6

>  <REMARK>
 VINA RESULT:      -5.1      2.956      4.249
  Name = 
  0 active torsions:
  status: ('A' for Active; 'I' for Inactive)
                            x       y       z     vdW  Elec       q    Type
                         _______ _______ _______ _____ _____    ______ ____

>  <TORSDO>
F 0

$$$$
=
 OpenBabel11122411563D

 28 32  0  0  1  0  0  0  0  0999 V2000
  182.5230  177.6760  138.1140 C   0  0  0  0  0  0  0  0  0  0  0  0
  185.0900  173.3360  138.0490 F   0  0  0  0  0  0  0  0  0  0  0  0
  186.8300  179.4410  137.0030 O   0  0  0  0  0  0  0  0  0  0  0  0
  182.0980  178.3560  135.4290 C   0  0  0  0  0  3  0  0  0  0  0  0
  186.9140  177.2150  136.1280 C   0  0  0  0  0  0  0  0  0  0  0  0
  182.7950  177.3830  139.5570 C   0  0  0  0  0  2  0  0  0  0  0  0
  183.0410  172.8060  137.0110 C   0  0  0  0  0  1  0  0  0  0  0  0
  184.4300  173.3830  136.8310 C   0  0  1  0  0  0  0  0  0  0  0  0
  186.4550  173.2490  135.4700 C   0  0  1  0  0  3  0  0  0  0  0  0
  184.3100  174.8360  136.3050 C   0  0  2  0  0  3  0  0  0  0  0  0
  184.3730  180.0010  138.6190 O   0  0  0  0  0  1  0  0  0  0  0  0
  185.5630  176.2310  137.8280 C   0  0  1  0  0  3  0  0  0  0  0  0
  186.1120  174.4130  134.7560 O   0  0  0  0  0  0  0  0  0  0  0  0
  185.1880  172.5180  135.8470 C   0  0  0  0  0  2  0  0  0  0  0  0
  184.6420  179.1960  139.7290 C   0  0  2  0  0  3  0  0  0  0  0  0
  183.1940  176.9620  137.1000 C   0  0  0  0  0  0  0  0  0  0  0  0
  186.4980  178.2270  137.0560 C   0  0  0  0  0  0  0  0  0  0  0  0
  187.3100  172.3580  134.5960 C   0  0  0  0  0  1  0  0  0  0  0  0
  185.7540  178.1810  139.4560 C   0  0  0  0  0  2  0  0  0  0  0  0
  182.9850  177.3300  135.7590 C   0  0  0  0  0  3  0  0  0  0  0  0
  181.6190  178.6910  137.7750 C   0  0  0  0  0  3  0  0  0  0  0  0
  181.4060  179.0300  136.4370 C   0  0  0  0  0  3  0  0  0  0  0  0
  183.3600  178.5920  140.3110 C   0  0  0  0  0  2  0  0  0  0  0  0
  186.4210  175.8890  136.5840 C   0  0  1  0  0  3  0  0  0  0  0  0
  185.7110  177.6660  138.0920 N   0  0  0  0  0  0  0  0  0  0  0  0
  185.5080  175.3210  135.5930 N   0  0  2  0  0  0  0  0  0  0  0  0
  187.6220  177.4150  135.1060 O   0  0  0  0  0  0  0  0  0  0  0  0
  184.1250  175.8160  137.4600 C   0  0  1  0  0  3  0  0  0  0  0  0
  1  6  1  0  0  0  0
  3 17  2  0  0  0  0
  4 20  2  0  0  0  0
  4 22  1  0  0  0  0
  5 24  1  0  0  0  0
  5 17  1  0  0  0  0
  6 23  1  0  0  0  0
  8  7  1  1  0  0  0
  8  2  1  0  0  0  0
  9 18  1  6  0  0  0
  9 14  1  0  0  0  0
 10  8  1  0  0  0  0
 10 28  1  0  0  0  0
 11 15  1  0  0  0  0
 12 25  1  0  0  0  0
 13  9  1  0  0  0  0
 13 26  1  0  0  0  0
 14  8  1  0  0  0  0
 15 23  1  0  0  0  0
 16 28  1  0  0  0  0
 16  1  2  0  0  0  0
 17 25  1  0  0  0  0
 19 15  1  0  0  0  0
 20 16  1  0  0  0  0
 21  1  1  0  0  0  0
 22 21  2  0  0  0  0
 24 12  1  0  0  0  0
 25 19  1  0  0  0  0
 26 10  1  0  0  0  0
 26 24  1  0  0  0  0
 27  5  2  0  0  0  0
 28 12  1  0  0  0  0
M  END
>  <MODEL>
7

>  <REMARK>
 VINA RESULT:      -4.6      3.879      5.675
  Name = 
  0 active torsions:
  status: ('A' for Active; 'I' for Inactive)
                            x       y       z     vdW  Elec       q    Type
                         _______ _______ _______ _____ _____    ______ ____

>  <TORSDO>
F 0

$$$$
=
 OpenBabel11122411563D

 28 32  0  0  1  0  0  0  0  0999 V2000
  180.2930  174.8830  137.3850 C   0  0  0  0  0  0  0  0  0  0  0  0
  184.4570  172.0710  137.8120 F   0  0  0  0  0  0  0  0  0  0  0  0
  183.4700  178.4290  137.8650 O   0  0  0  0  0  0  0  0  0  0  0  0
  180.3080  175.8850  134.7690 C   0  0  0  0  0  3  0  0  0  0  0  0
  184.7660  176.6680  136.8920 C   0  0  0  0  0  0  0  0  0  0  0  0
  180.2890  174.4260  138.8110 C   0  0  0  0  0  2  0  0  0  0  0  0
  183.2070  170.9920  136.1290 C   0  0  0  0  0  1  0  0  0  0  0  0
  184.1830  172.1060  136.4530 C   0  0  1  0  0  0  0  0  0  0  0  0
  186.3240  173.0930  135.8130 C   0  0  1  0  0  3  0  0  0  0  0  0
  183.5610  173.4610  136.0320 C   0  0  2  0  0  3  0  0  0  0  0  0
  180.7020  177.5910  138.6400 O   0  0  0  0  0  1  0  0  0  0  0  0
  183.6170  174.8850  137.9820 C   0  0  1  0  0  3  0  0  0  0  0  0
  185.6890  174.1410  135.1190 O   0  0  0  0  0  0  0  0  0  0  0  0
  185.4720  171.8500  135.7020 C   0  0  0  0  0  2  0  0  0  0  0  0
  181.0110  176.7490  139.7110 C   0  0  2  0  0  3  0  0  0  0  0  0
  181.4470  174.7330  136.5880 C   0  0  0  0  0  0  0  0  0  0  0  0
  183.7180  177.2030  137.7130 C   0  0  0  0  0  0  0  0  0  0  0  0
  187.6800  172.8310  135.1940 C   0  0  0  0  0  1  0  0  0  0  0  0
  182.4890  176.3530  139.7320 C   0  0  0  0  0  2  0  0  0  0  0  0
  181.4450  175.2610  135.2860 C   0  0  0  0  0  3  0  0  0  0  0  0
  179.1490  175.4920  136.8530 C   0  0  0  0  0  3  0  0  0  0  0  0
  179.1560  175.9920  135.5480 C   0  0  0  0  0  3  0  0  0  0  0  0
  180.0360  175.5690  139.7990 C   0  0  0  0  0  2  0  0  0  0  0  0
  184.8230  175.1910  137.0590 C   0  0  1  0  0  3  0  0  0  0  0  0
  183.0320  176.1660  138.3910 N   0  0  0  0  0  0  0  0  0  0  0  0
  184.5500  174.5270  135.7860 N   0  0  2  0  0  0  0  0  0  0  0  0
  185.5430  177.3480  136.1720 O   0  0  0  0  0  0  0  0  0  0  0  0
  182.6670  174.0130  137.1390 C   0  0  1  0  0  3  0  0  0  0  0  0
  1  6  1  0  0  0  0
  4 20  2  0  0  0  0
  4 22  1  0  0  0  0
  5 24  1  0  0  0  0
  5 17  1  0  0  0  0
  6 23  1  0  0  0  0
  8  7  1  6  0  0  0
  8  2  1  0  0  0  0
  9 18  1  6  0  0  0
 10  8  1  0  0  0  0
 10 28  1  0  0  0  0
 11 15  1  0  0  0  0
 12 25  1  0  0  0  0
 13 26  1  0  0  0  0
 13  9  1  0  0  0  0
 14  9  1  0  0  0  0
 14  8  1  0  0  0  0
 15 19  1  0  0  0  0
 15 23  1  0  0  0  0
 16 28  1  0  0  0  0
 16  1  2  0  0  0  0
 17  3  2  0  0  0  0
 17 25  1  0  0  0  0
 20 16  1  0  0  0  0
 21  1  1  0  0  0  0
 22 21  2  0  0  0  0
 24 12  1  0  0  0  0
 25 19  1  0  0  0  0
 26 10  1  0  0  0  0
 26 24  1  0  0  0  0
 27  5  2  0  0  0  0
 28 12  1  0  0  0  0
M  END
>  <MODEL>
8

>  <REMARK>
 VINA RESULT:      -4.5      4.334      5.670
  Name = 
  0 active torsions:
  status: ('A' for Active; 'I' for Inactive)
                            x       y       z     vdW  Elec       q    Type
                         _______ _______ _______ _____ _____    ______ ____

>  <TORSDO>
F 0

$$$$
=
 OpenBabel11122411563D

 28 32  0  0  1  0  0  0  0  0999 V2000
  181.6930  179.4360  138.7940 C   0  0  0  0  0  0  0  0  0  0  0  0
  185.1750  177.4800  135.7150 F   0  0  0  0  0  0  0  0  0  0  0  0
  179.2430  175.5900  137.3430 O   0  0  0  0  0  0  0  0  0  0  0  0
  181.7780  177.8910  141.1290 C   0  0  0  0  0  3  0  0  0  0  0  0
  181.5230  174.8900  137.1390 C   0  0  0  0  0  0  0  0  0  0  0  0
  181.5690  180.2370  137.5350 C   0  0  0  0  0  2  0  0  0  0  0  0
  186.4120  178.2270  137.5770 C   0  0  0  0  0  1  0  0  0  0  0  0
  185.5720  177.1100  136.9900 C   0  0  1  0  0  0  0  0  0  0  0  0
  185.5220  174.7060  136.5560 C   0  0  1  0  0  3  0  0  0  0  0  0
  184.3550  176.8530  137.9140 C   0  0  2  0  0  3  0  0  0  0  0  0
  178.9380  178.4890  138.0270 O   0  0  0  0  0  1  0  0  0  0  0  0
  182.3840  177.0280  136.5280 C   0  0  1  0  0  3  0  0  0  0  0  0
  184.6760  174.4750  137.6570 O   0  0  0  0  0  0  0  0  0  0  0  0
  186.4320  175.8690  136.8780 C   0  0  0  0  0  2  0  0  0  0  0  0
  179.3730  179.0530  136.8250 C   0  0  2  0  0  3  0  0  0  0  0  0
  182.4380  178.2390  138.8110 C   0  0  0  0  0  0  0  0  0  0  0  0
  180.4550  175.8490  137.1160 C   0  0  0  0  0  0  0  0  0  0  0  0
  186.3570  173.4700  136.2980 C   0  0  0  0  0  1  0  0  0  0  0  0
  180.1230  178.0480  135.9480 C   0  0  0  0  0  2  0  0  0  0  0  0
  182.4530  177.4650  139.9830 C   0  0  0  0  0  3  0  0  0  0  0  0
  181.0350  179.8670  139.9540 C   0  0  0  0  0  3  0  0  0  0  0  0
  181.0780  179.0970  141.1180 C   0  0  0  0  0  3  0  0  0  0  0  0
  180.1190  180.3720  137.0590 C   0  0  0  0  0  2  0  0  0  0  0  0
  182.7860  175.5420  136.7040 C   0  0  1  0  0  3  0  0  0  0  0  0
  180.9350  177.1260  136.7330 N   0  0  0  0  0  0  0  0  0  0  0  0
  183.7720  175.5040  137.7830 N   0  0  2  0  0  0  0  0  0  0  0  0
  181.4000  173.6740  137.4430 O   0  0  0  0  0  0  0  0  0  0  0  0
  183.2090  177.8020  137.5750 C   0  0  1  0  0  3  0  0  0  0  0  0
  1 16  2  0  0  0  0
  1 21  1  0  0  0  0
  2  8  1  0  0  0  0
  5 27  2  0  0  0  0
  6  1  1  0  0  0  0
  8  7  1  1  0  0  0
  8 10  1  0  0  0  0
  9 18  1  1  0  0  0
  9 14  1  0  0  0  0
  9 13  1  0  0  0  0
 12 24  1  0  0  0  0
 12 25  1  0  0  0  0
 12 28  1  0  0  0  0
 13 26  1  0  0  0  0
 14  8  1  0  0  0  0
 15 23  1  0  0  0  0
 15 11  1  0  0  0  0
 16 20  1  0  0  0  0
 17  5  1  0  0  0  0
 17  3  2  0  0  0  0
 19 25  1  0  0  0  0
 19 15  1  0  0  0  0
 20  4  2  0  0  0  0
 21 22  2  0  0  0  0
 22  4  1  0  0  0  0
 23  6  1  0  0  0  0
 24  5  1  0  0  0  0
 24 26  1  0  0  0  0
 25 17  1  0  0  0  0
 26 10  1  0  0  0  0
 28 10  1  0  0  0  0
 28 16  1  0  0  0  0
M  END
>  <MODEL>
9

>  <REMARK>
 VINA RESULT:      -4.5      2.844      4.312
  Name = 
  0 active torsions:
  status: ('A' for Active; 'I' for Inactive)
                            x       y       z     vdW  Elec       q    Type
                         _______ _______ _______ _____ _____    ______ ____

>  <TORSDO>
F 0

$$$$
