=
 OpenBabel11122410333D

 30 35  0  0  1  0  0  0  0  0999 V2000
  189.1330  176.6300  143.4100 C   0  0  0  0  0  0  0  0  0  0  0  0
  191.2010  176.0650  144.6110 C   0  0  0  0  0  0  0  0  0  0  0  0
  187.4430  178.2430  146.9250 N   0  0  0  0  0  0  0  0  0  0  0  0
  187.6890  177.1140  143.3480 C   0  0  0  0  0  0  0  0  0  0  0  0
  189.6860  176.2800  142.0700 C   0  0  0  0  0  2  0  0  0  0  0  0
  188.3860  179.3320  140.4950 O   0  0  0  0  0  0  0  0  0  0  0  0
  184.9450  177.9630  142.8190 C   0  0  1  0  0  3  0  0  0  0  0  0
  188.4970  178.3400  141.2670 C   0  0  0  0  0  0  0  0  0  0  0  0
  185.0210  178.4960  144.1670 N   0  0  0  0  0  0  0  0  0  0  0  0
  186.2940  178.6190  146.4530 C   0  0  2  0  0  3  0  0  0  0  0  0
  189.7860  177.5540  141.2420 C   0  0  2  0  0  3  0  0  0  0  0  0
  187.4360  178.0200  142.2060 N   0  0  0  0  0  0  0  0  0  0  0  0
  191.9230  176.0500  145.8060 C   0  0  0  0  0  3  0  0  0  0  0  0
  183.7810  179.0970  144.6100 C   0  0  0  0  0  2  0  0  0  0  0  0
  183.5790  178.3750  142.2900 C   0  0  0  0  0  2  0  0  0  0  0  0
  191.8220  175.5300  143.4880 O   0  0  0  0  0  1  0  0  0  0  0  0
  188.1210  177.6670  145.8110 C   0  0  0  0  0  0  0  0  0  0  0  0
  191.3740  176.5530  146.9800 C   0  0  0  0  0  3  0  0  0  0  0  0
  189.8770  176.5950  144.5690 C   0  0  0  0  0  0  0  0  0  0  0  0
  187.3000  177.7440  144.6450 C   0  0  0  0  0  0  0  0  0  0  0  0
  185.2620  179.2730  147.3020 C   0  0  0  0  0  1  0  0  0  0  0  0
  186.1630  178.3030  145.0170 C   0  0  0  0  0  0  0  0  0  0  0  0
  182.7810  178.8520  143.4960 C   0  0  0  0  0  2  0  0  0  0  0  0
  185.8460  179.3370  141.0730 O   0  0  0  0  0  0  0  0  0  0  0  0
  190.0900  177.0850  146.9730 C   0  0  0  0  0  3  0  0  0  0  0  0
  189.3380  177.1170  145.7930 C   0  0  0  0  0  0  0  0  0  0  0  0
  186.0830  178.4810  141.9710 C   0  0  0  0  0  0  0  0  0  0  0  0
  190.1790  177.2080  139.8120 C   0  0  0  0  0  2  0  0  0  0  0  0
  192.3170  177.7750  140.7130 O   0  0  0  0  0  1  0  0  0  0  0  0
  191.6890  177.0980  139.6680 C   0  0  0  0  0  2  0  0  0  0  0  0
  1 19  1  0  0  0  0
  2 13  1  0  0  0  0
  4  1  2  0  0  0  0
  4 20  1  0  0  0  0
  5  1  1  0  0  0  0
  6  8  2  0  0  0  0
  7 15  1  6  0  0  0
  7  9  1  0  0  0  0
  8 12  1  0  0  0  0
  9 14  1  0  0  0  0
  9 22  1  0  0  0  0
 10  3  1  0  0  0  0
 10 21  1  1  0  0  0
 11 28  1  6  0  0  0
 11  8  1  0  0  0  0
 11  5  1  0  0  0  0
 12  4  1  0  0  0  0
 13 18  2  0  0  0  0
 15 23  1  0  0  0  0
 16  2  1  0  0  0  0
 17  3  2  0  0  0  0
 19  2  2  0  0  0  0
 19 26  1  0  0  0  0
 20 22  2  0  0  0  0
 20 17  1  0  0  0  0
 22 10  1  0  0  0  0
 23 14  1  0  0  0  0
 24 27  2  0  0  0  0
 25 18  1  0  0  0  0
 26 17  1  0  0  0  0
 26 25  2  0  0  0  0
 27 12  1  0  0  0  0
 27  7  1  0  0  0  0
 30 28  1  0  0  0  0
 30 29  1  0  0  0  0
M  END
>  <MODEL>
1

>  <REMARK>
 VINA RESULT:     -10.7      0.000      0.000
  Name = 
  2 active torsions:
  status: ('A' for Active; 'I' for Inactive)
    1  A    between atoms: C_11  and  C_28
    2  A    between atoms: C_28  and  C_30
                            x       y       z     vdW  Elec       q    Type
                         _______ _______ _______ _____ _____    ______ ____

>  <TORSDO>
F 2

$$$$
=
 OpenBabel11122410333D

 30 35  0  0  1  0  0  0  0  0999 V2000
  187.9470  177.2790  144.3130 C   0  0  0  0  0  0  0  0  0  0  0  0
  186.4540  177.8030  146.1930 C   0  0  0  0  0  0  0  0  0  0  0  0
  185.1930  178.9250  141.5700 N   0  0  0  0  0  0  0  0  0  0  0  0
  188.2720  177.1730  142.8270 C   0  0  0  0  0  0  0  0  0  0  0  0
  189.0790  176.8570  145.1860 C   0  0  0  0  0  2  0  0  0  0  0  0
  191.5580  178.7720  143.2690 O   0  0  0  0  0  0  0  0  0  0  0  0
  189.2640  176.8140  140.1030 C   0  0  1  0  0  3  0  0  0  0  0  0
  190.5320  178.0950  143.5550 C   0  0  0  0  0  0  0  0  0  0  0  0
  188.1180  177.6330  139.7510 N   0  0  0  0  0  0  0  0  0  0  0  0
  185.8530  178.7340  140.4690 C   0  0  0  0  0  0  0  0  0  0  0  0
  190.2190  177.8530  145.0120 C   0  0  2  0  0  3  0  0  0  0  0  0
  189.6410  177.6360  142.5050 N   0  0  0  0  0  0  0  0  0  0  0  0
  185.2420  178.3280  146.6460 C   0  0  0  0  0  3  0  0  0  0  0  0
  187.9750  177.8230  138.3230 C   0  0  0  0  0  2  0  0  0  0  0  0
  190.0080  176.5640  138.8000 C   0  0  0  0  0  2  0  0  0  0  0  0
  187.3210  177.2890  147.1510 O   0  0  0  0  0  1  0  0  0  0  0  0
  186.0350  178.3970  142.5930 C   0  0  2  0  0  3  0  0  0  0  0  0
  184.3110  178.8510  145.7570 C   0  0  0  0  0  3  0  0  0  0  0  0
  186.7630  177.7870  144.8000 C   0  0  0  0  0  0  0  0  0  0  0  0
  187.2450  177.8980  142.0210 C   0  0  0  0  0  0  0  0  0  0  0  0
  185.3180  179.1420  139.1410 C   0  0  0  0  0  1  0  0  0  0  0  0
  187.1490  178.0720  140.7150 C   0  0  0  0  0  0  0  0  0  0  0  0
  189.0620  176.9800  137.6820 C   0  0  0  0  0  2  0  0  0  0  0  0
  191.2360  177.9810  140.8070 O   0  0  0  0  0  0  0  0  0  0  0  0
  184.5830  178.8590  144.3930 C   0  0  0  0  0  3  0  0  0  0  0  0
  185.7880  178.3420  143.9040 C   0  0  0  0  0  0  0  0  0  0  0  0
  190.1170  177.5020  141.1430 C   0  0  0  0  0  0  0  0  0  0  0  0
  191.4530  177.3550  145.7530 C   0  0  0  0  0  2  0  0  0  0  0  0
  192.2300  176.4620  147.8290 O   0  0  0  0  0  1  0  0  0  0  0  0
  191.0780  176.7360  147.0910 C   0  0  0  0  0  2  0  0  0  0  0  0
  1 19  1  0  0  0  0
  1  5  1  0  0  0  0
  2 13  1  0  0  0  0
  2 16  1  0  0  0  0
  4  1  2  0  0  0  0
  6  8  2  0  0  0  0
  7 15  1  6  0  0  0
  7 27  1  0  0  0  0
  8 11  1  0  0  0  0
  9  7  1  0  0  0  0
  9 22  1  0  0  0  0
 10 22  1  0  0  0  0
 10  3  2  0  0  0  0
 11  5  1  0  0  0  0
 11 28  1  1  0  0  0
 12  4  1  0  0  0  0
 12  8  1  0  0  0  0
 14  9  1  0  0  0  0
 17  3  1  6  0  0  0
 17 26  1  0  0  0  0
 18 13  2  0  0  0  0
 19  2  2  0  0  0  0
 20 17  1  0  0  0  0
 20  4  1  0  0  0  0
 21 10  1  0  0  0  0
 22 20  2  0  0  0  0
 23 14  1  0  0  0  0
 23 15  1  0  0  0  0
 24 27  2  0  0  0  0
 25 18  1  0  0  0  0
 26 25  2  0  0  0  0
 26 19  1  0  0  0  0
 27 12  1  0  0  0  0
 28 30  1  0  0  0  0
 30 29  1  0  0  0  0
M  END
>  <MODEL>
2

>  <REMARK>
 VINA RESULT:     -10.7      2.091      5.549
  Name = 
  2 active torsions:
  status: ('A' for Active; 'I' for Inactive)
    1  A    between atoms: C_11  and  C_28
    2  A    between atoms: C_28  and  C_30
                            x       y       z     vdW  Elec       q    Type
                         _______ _______ _______ _____ _____    ______ ____

>  <TORSDO>
F 2

$$$$
=
 OpenBabel11122410333D

 30 35  0  0  1  0  0  0  0  0999 V2000
  188.1370  177.2910  143.4010 C   0  0  0  0  0  0  0  0  0  0  0  0
  186.2350  177.9700  144.8000 C   0  0  0  0  0  0  0  0  0  0  0  0
  186.2010  178.7360  139.9390 N   0  0  0  0  0  0  0  0  0  0  0  0
  188.8200  177.0670  142.0560 C   0  0  0  0  0  0  0  0  0  0  0  0
  189.0030  176.9310  144.5600 C   0  0  0  0  0  2  0  0  0  0  0  0
  191.9310  178.6740  143.1920 O   0  0  0  0  0  0  0  0  0  0  0  0
  190.4530  176.4900  139.7040 C   0  0  1  0  0  3  0  0  0  0  0  0
  190.8490  178.0280  143.2600 C   0  0  0  0  0  0  0  0  0  0  0  0
  189.4540  177.2870  139.0150 N   0  0  0  0  0  0  0  0  0  0  0  0
  187.1110  178.4560  139.0570 C   0  0  0  0  0  0  0  0  0  0  0  0
  190.1750  177.9020  144.6050 C   0  0  2  0  0  3  0  0  0  0  0  0
  190.2380  177.4940  142.0560 N   0  0  0  0  0  0  0  0  0  0  0  0
  184.9620  178.5370  144.8950 C   0  0  0  0  0  3  0  0  0  0  0  0
  189.6780  177.3660  137.5880 C   0  0  0  0  0  2  0  0  0  0  0  0
  191.4930  176.1340  138.6520 C   0  0  0  0  0  2  0  0  0  0  0  0
  186.8210  177.5260  145.9810 O   0  0  0  0  0  1  0  0  0  0  0  0
  186.7460  178.2840  141.1770 C   0  0  2  0  0  3  0  0  0  0  0  0
  184.2970  178.9950  143.7630 C   0  0  0  0  0  3  0  0  0  0  0  0
  186.8820  177.8430  143.5350 C   0  0  0  0  0  0  0  0  0  0  0  0
  188.0470  177.7330  140.9660 C   0  0  0  0  0  0  0  0  0  0  0  0
  186.9360  178.7630  137.6110 C   0  0  0  0  0  1  0  0  0  0  0  0
  188.2860  177.8060  139.6690 C   0  0  0  0  0  0  0  0  0  0  0  0
  190.8680  176.4680  137.3040 C   0  0  0  0  0  2  0  0  0  0  0  0
  192.2160  177.6950  140.7940 O   0  0  0  0  0  0  0  0  0  0  0  0
  184.9020  178.8950  142.5150 C   0  0  0  0  0  3  0  0  0  0  0  0
  186.1770  178.3330  142.3840 C   0  0  0  0  0  0  0  0  0  0  0  0
  191.0360  177.2520  140.8710 C   0  0  0  0  0  0  0  0  0  0  0  0
  191.1710  177.4550  145.6680 C   0  0  0  0  0  2  0  0  0  0  0  0
  191.3260  176.0390  147.5850 O   0  0  0  0  0  1  0  0  0  0  0  0
  190.4580  176.8700  146.8770 C   0  0  0  0  0  2  0  0  0  0  0  0
  1 19  1  0  0  0  0
  1  5  1  0  0  0  0
  2 13  1  0  0  0  0
  2 16  1  0  0  0  0
  4 12  1  0  0  0  0
  4  1  2  0  0  0  0
  5 11  1  0  0  0  0
  6  8  2  0  0  0  0
  7 15  1  6  0  0  0
  7 27  1  0  0  0  0
  8 11  1  0  0  0  0
  9 22  1  0  0  0  0
  9  7  1  0  0  0  0
 10 22  1  0  0  0  0
 10  3  2  0  0  0  0
 11 28  1  1  0  0  0
 12  8  1  0  0  0  0
 14  9  1  0  0  0  0
 17  3  1  6  0  0  0
 17 26  1  0  0  0  0
 18 13  2  0  0  0  0
 19  2  2  0  0  0  0
 20 17  1  0  0  0  0
 20  4  1  0  0  0  0
 21 10  1  0  0  0  0
 22 20  2  0  0  0  0
 23 14  1  0  0  0  0
 23 15  1  0  0  0  0
 24 27  2  0  0  0  0
 25 18  1  0  0  0  0
 26 25  2  0  0  0  0
 26 19  1  0  0  0  0
 27 12  1  0  0  0  0
 28 30  1  0  0  0  0
 30 29  1  0  0  0  0
M  END
>  <MODEL>
3

>  <REMARK>
 VINA RESULT:     -10.3      2.252      6.281
  Name = 
  2 active torsions:
  status: ('A' for Active; 'I' for Inactive)
    1  A    between atoms: C_11  and  C_28
    2  A    between atoms: C_28  and  C_30
                            x       y       z     vdW  Elec       q    Type
                         _______ _______ _______ _____ _____    ______ ____

>  <TORSDO>
F 2

$$$$
=
 OpenBabel11122410333D

 30 35  0  0  1  0  0  0  0  0999 V2000
  187.5890  177.3040  143.9840 C   0  0  0  0  0  0  0  0  0  0  0  0
  188.7000  177.3460  146.1750 C   0  0  0  0  0  0  0  0  0  0  0  0
  184.1090  179.0330  145.6340 N   0  0  0  0  0  0  0  0  0  0  0  0
  186.3780  177.4740  143.0740 C   0  0  0  0  0  0  0  0  0  0  0  0
  188.8150  176.8840  143.2480 C   0  0  0  0  0  2  0  0  0  0  0  0
  188.3200  179.3540  140.5750 O   0  0  0  0  0  0  0  0  0  0  0  0
  184.3100  177.6700  141.0210 C   0  0  1  0  0  3  0  0  0  0  0  0
  188.0790  178.5250  141.4960 C   0  0  0  0  0  0  0  0  0  0  0  0
  183.5850  178.3960  142.0480 N   0  0  0  0  0  0  0  0  0  0  0  0
  183.3790  179.0990  144.5630 C   0  0  0  0  0  0  0  0  0  0  0  0
  189.2360  178.0190  142.3250 C   0  0  2  0  0  3  0  0  0  0  0  0
  186.7120  178.1380  141.7940 N   0  0  0  0  0  0  0  0  0  0  0  0
  188.6470  177.6480  147.5370 C   0  0  0  0  0  3  0  0  0  0  0  0
  182.2570  178.7930  141.6330 C   0  0  0  0  0  2  0  0  0  0  0  0
  183.4260  177.7190  139.7820 C   0  0  0  0  0  2  0  0  0  0  0  0
  189.8810  176.7900  145.6950 O   0  0  0  0  0  1  0  0  0  0  0  0
  185.3370  178.4510  145.1990 C   0  0  2  0  0  3  0  0  0  0  0  0
  187.5010  178.1940  148.1050 C   0  0  0  0  0  3  0  0  0  0  0  0
  187.5750  177.5870  145.3330 C   0  0  0  0  0  0  0  0  0  0  0  0
  185.2860  178.1930  143.7960 C   0  0  0  0  0  0  0  0  0  0  0  0
  181.9950  179.6470  144.5770 C   0  0  0  0  0  1  0  0  0  0  0  0
  184.0850  178.5600  143.3850 C   0  0  0  0  0  0  0  0  0  0  0  0
  182.0580  178.1940  140.2530 C   0  0  0  0  0  2  0  0  0  0  0  0
  185.8910  178.9320  139.7340 O   0  0  0  0  0  0  0  0  0  0  0  0
  186.3890  178.4500  147.3110 C   0  0  0  0  0  3  0  0  0  0  0  0
  186.4080  178.1600  145.9420 C   0  0  0  0  0  0  0  0  0  0  0  0
  185.6730  178.2790  140.7930 C   0  0  0  0  0  0  0  0  0  0  0  0
  190.3780  177.5570  141.4290 C   0  0  0  0  0  2  0  0  0  0  0  0
  191.6780  178.4360  143.2310 O   0  0  0  0  0  1  0  0  0  0  0  0
  191.6890  177.4990  142.1980 C   0  0  0  0  0  2  0  0  0  0  0  0
  1 19  1  0  0  0  0
  2 13  1  0  0  0  0
  4 20  1  0  0  0  0
  4  1  2  0  0  0  0
  5  1  1  0  0  0  0
  6  8  2  0  0  0  0
  7 15  1  6  0  0  0
  7  9  1  0  0  0  0
  8 12  1  0  0  0  0
  8 11  1  0  0  0  0
  9 22  1  0  0  0  0
 10 21  1  0  0  0  0
 10  3  2  0  0  0  0
 11 28  1  6  0  0  0
 11  5  1  0  0  0  0
 12  4  1  0  0  0  0
 13 18  2  0  0  0  0
 14  9  1  0  0  0  0
 15 23  1  0  0  0  0
 16  2  1  0  0  0  0
 17 20  1  1  0  0  0
 17  3  1  0  0  0  0
 17 26  1  0  0  0  0
 19 26  1  0  0  0  0
 19  2  2  0  0  0  0
 22 20  2  0  0  0  0
 22 10  1  0  0  0  0
 23 14  1  0  0  0  0
 24 27  2  0  0  0  0
 25 18  1  0  0  0  0
 26 25  2  0  0  0  0
 27  7  1  0  0  0  0
 27 12  1  0  0  0  0
 28 30  1  0  0  0  0
 30 29  1  0  0  0  0
M  END
>  <MODEL>
4

>  <REMARK>
 VINA RESULT:      -9.8      1.750      2.726
  Name = 
  2 active torsions:
  status: ('A' for Active; 'I' for Inactive)
    1  A    between atoms: C_11  and  C_28
    2  A    between atoms: C_28  and  C_30
                            x       y       z     vdW  Elec       q    Type
                         _______ _______ _______ _____ _____    ______ ____

>  <TORSDO>
F 2

$$$$
=
 OpenBabel11122410333D

 30 35  0  0  1  0  0  0  0  0999 V2000
  187.8010  178.3640  141.6840 C   0  0  0  0  0  0  0  0  0  0  0  0
  186.1920  178.6470  139.8490 C   0  0  0  0  0  0  0  0  0  0  0  0
  184.6710  178.2710  144.5150 N   0  0  0  0  0  0  0  0  0  0  0  0
  188.1770  178.2910  143.1600 C   0  0  2  0  0  3  0  0  0  0  0  0
  188.9700  178.1790  140.7770 C   0  0  0  0  0  2  0  0  0  0  0  0
  190.2420  175.2870  142.6490 O   0  0  0  0  0  0  0  0  0  0  0  0
  189.2930  178.1070  145.8530 C   0  0  1  0  0  3  0  0  0  0  0  0
  189.6730  176.3810  142.3820 C   0  0  0  0  0  0  0  0  0  0  0  0
  187.9030  177.9540  146.2430 N   0  0  0  0  0  0  0  0  0  0  0  0
  185.3700  178.1090  145.5960 C   0  0  0  0  0  0  0  0  0  0  0  0
  189.4790  176.7520  140.9310 C   0  0  2  0  0  3  0  0  0  0  0  0
  189.1510  177.2150  143.4500 N   0  0  0  0  0  0  0  0  0  0  0  0
  184.8660  178.7850  139.4320 C   0  0  0  0  0  3  0  0  0  0  0  0
  187.7250  177.8530  147.6760 C   0  0  0  0  0  2  0  0  0  0  0  0
  190.1000  177.9550  147.1340 C   0  0  0  0  0  2  0  0  0  0  0  0
  187.1720  178.6730  138.8630 O   0  0  0  0  0  1  0  0  0  0  0  0
  185.6350  178.3220  143.4650 C   0  0  0  0  0  0  0  0  0  0  0  0
  183.8230  178.7830  140.3520 C   0  0  0  0  0  3  0  0  0  0  0  0
  186.5070  178.5040  141.2330 C   0  0  0  0  0  0  0  0  0  0  0  0
  186.9500  178.1610  144.0000 C   0  0  0  0  0  0  0  0  0  0  0  0
  184.7410  178.0110  146.9410 C   0  0  0  0  0  1  0  0  0  0  0  0
  186.8170  178.0510  145.3090 C   0  0  0  0  0  0  0  0  0  0  0  0
  189.1030  178.0530  148.2800 C   0  0  0  0  0  2  0  0  0  0  0  0
  190.4190  176.1250  145.1100 O   0  0  0  0  0  0  0  0  0  0  0  0
  184.0940  178.6380  141.7070 C   0  0  0  0  0  3  0  0  0  0  0  0
  185.4100  178.4960  142.1600 C   0  0  0  0  0  0  0  0  0  0  0  0
  189.6690  177.0930  144.7990 C   0  0  0  0  0  0  0  0  0  0  0  0
  190.7770  176.5830  140.1530 C   0  0  0  0  0  2  0  0  0  0  0  0
  190.6820  175.0350  138.3360 O   0  0  0  0  0  1  0  0  0  0  0  0
  190.5070  176.3770  138.6710 C   0  0  0  0  0  2  0  0  0  0  0  0
  2 19  1  0  0  0  0
  3 10  2  0  0  0  0
  4  1  1  6  0  0  0
  4 12  1  0  0  0  0
  4 20  1  0  0  0  0
  5 11  1  0  0  0  0
  5  1  1  0  0  0  0
  7  9  1  0  0  0  0
  7 15  1  1  0  0  0
  8  6  2  0  0  0  0
  8 12  1  0  0  0  0
  9 14  1  0  0  0  0
 10 21  1  0  0  0  0
 11 28  1  6  0  0  0
 11  8  1  0  0  0  0
 12 27  1  0  0  0  0
 13  2  2  0  0  0  0
 13 18  1  0  0  0  0
 14 23  1  0  0  0  0
 15 23  1  0  0  0  0
 16  2  1  0  0  0  0
 17 20  1  0  0  0  0
 17  3  1  0  0  0  0
 18 25  2  0  0  0  0
 19  1  2  0  0  0  0
 19 26  1  0  0  0  0
 20 22  2  0  0  0  0
 22 10  1  0  0  0  0
 22  9  1  0  0  0  0
 25 26  1  0  0  0  0
 26 17  2  0  0  0  0
 27 24  2  0  0  0  0
 27  7  1  0  0  0  0
 29 30  1  0  0  0  0
 30 28  1  0  0  0  0
M  END
>  <MODEL>
5

>  <REMARK>
 VINA RESULT:      -9.2      1.598      5.176
  Name = 
  2 active torsions:
  status: ('A' for Active; 'I' for Inactive)
    1  A    between atoms: C_11  and  C_28
    2  A    between atoms: C_28  and  C_30
                            x       y       z     vdW  Elec       q    Type
                         _______ _______ _______ _____ _____    ______ ____

>  <TORSDO>
F 2

$$$$
=
 OpenBabel11122410333D

 30 35  0  0  1  0  0  0  0  0999 V2000
  185.0820  178.9030  142.9120 C   0  0  0  0  0  0  0  0  0  0  0  0
  184.9750  178.6900  145.3580 C   0  0  0  0  0  0  0  0  0  0  0  0
  188.9170  177.1400  142.8530 N   0  0  0  0  0  0  0  0  0  0  0  0
  185.8080  178.8210  141.5740 C   0  0  0  0  0  0  0  0  0  0  0  0
  183.6650  179.3470  142.7790 C   0  0  0  0  0  2  0  0  0  0  0  0
  182.9900  177.0740  139.9740 O   0  0  0  0  0  0  0  0  0  0  0  0
  186.8410  178.8080  138.8420 C   0  0  1  0  0  3  0  0  0  0  0  0
  183.5970  177.8430  140.7690 C   0  0  0  0  0  0  0  0  0  0  0  0
  187.9190  178.0300  139.4260 N   0  0  0  0  0  0  0  0  0  0  0  0
  189.1390  177.1630  141.5740 C   0  0  0  0  0  0  0  0  0  0  0  0
  182.8910  178.2680  142.0350 C   0  0  2  0  0  3  0  0  0  0  0  0
  184.9690  178.2390  140.5030 N   0  0  0  0  0  0  0  0  0  0  0  0
  185.5840  178.2980  146.5520 C   0  0  0  0  0  3  0  0  0  0  0  0
  188.9530  177.6900  138.4720 C   0  0  0  0  0  2  0  0  0  0  0  0
  187.1330  178.8620  137.3500 C   0  0  0  0  0  2  0  0  0  0  0  0
  183.7060  179.2520  145.4480 O   0  0  0  0  0  1  0  0  0  0  0  0
  187.6250  177.7250  143.0060 C   0  0  2  0  0  3  0  0  0  0  0  0
  186.8570  177.7390  146.5560 C   0  0  0  0  0  3  0  0  0  0  0  0
  185.6490  178.5300  144.1110 C   0  0  0  0  0  0  0  0  0  0  0  0
  187.0940  178.0780  141.7280 C   0  0  0  0  0  0  0  0  0  0  0  0
  190.4000  176.6440  140.9780 C   0  0  0  0  0  1  0  0  0  0  0  0
  188.0140  177.7650  140.8340 C   0  0  0  0  0  0  0  0  0  0  0  0
  188.5690  178.3850  137.1790 C   0  0  0  0  0  2  0  0  0  0  0  0
  184.8580  177.6040  138.2370 O   0  0  0  0  0  0  0  0  0  0  0  0
  187.5400  177.5610  145.3580 C   0  0  0  0  0  3  0  0  0  0  0  0
  186.9590  177.9420  144.1430 C   0  0  0  0  0  0  0  0  0  0  0  0
  185.5000  178.1870  139.1550 C   0  0  0  0  0  0  0  0  0  0  0  0
  181.4850  178.7650  141.7260 C   0  0  0  0  0  2  0  0  0  0  0  0
  180.2760  180.4980  142.8410 O   0  0  0  0  0  1  0  0  0  0  0  0
  180.7650  179.2010  142.9930 C   0  0  0  0  0  2  0  0  0  0  0  0
  1 19  1  0  0  0  0
  2 16  1  0  0  0  0
  2 13  1  0  0  0  0
  3 17  1  0  0  0  0
  4 20  1  0  0  0  0
  4  1  2  0  0  0  0
  5  1  1  0  0  0  0
  6  8  2  0  0  0  0
  7 15  1  6  0  0  0
  7 27  1  0  0  0  0
  7  9  1  0  0  0  0
  8 11  1  0  0  0  0
  9 22  1  0  0  0  0
 10  3  2  0  0  0  0
 11 28  1  6  0  0  0
 11  5  1  0  0  0  0
 12  8  1  0  0  0  0
 12  4  1  0  0  0  0
 13 18  2  0  0  0  0
 14  9  1  0  0  0  0
 17 20  1  1  0  0  0
 17 26  1  0  0  0  0
 19 26  1  0  0  0  0
 19  2  2  0  0  0  0
 21 10  1  0  0  0  0
 22 10  1  0  0  0  0
 22 20  2  0  0  0  0
 23 15  1  0  0  0  0
 23 14  1  0  0  0  0
 24 27  2  0  0  0  0
 25 18  1  0  0  0  0
 26 25  2  0  0  0  0
 27 12  1  0  0  0  0
 28 30  1  0  0  0  0
 29 30  1  0  0  0  0
M  END
>  <MODEL>
6

>  <REMARK>
 VINA RESULT:      -8.9      3.203      6.376
  Name = 
  2 active torsions:
  status: ('A' for Active; 'I' for Inactive)
    1  A    between atoms: C_11  and  C_28
    2  A    between atoms: C_28  and  C_30
                            x       y       z     vdW  Elec       q    Type
                         _______ _______ _______ _____ _____    ______ ____

>  <TORSDO>
F 2

$$$$
=
 OpenBabel11122410333D

 30 35  0  0  1  0  0  0  0  0999 V2000
  188.4590  177.0220  143.2230 C   0  0  0  0  0  0  0  0  0  0  0  0
  189.9750  176.8760  145.1510 C   0  0  0  0  0  0  0  0  0  0  0  0
  185.3920  178.5950  145.6600 N   0  0  0  0  0  0  0  0  0  0  0  0
  187.0960  177.2670  142.5840 C   0  0  0  0  0  0  0  0  0  0  0  0
  189.5120  176.6690  142.2290 C   0  0  0  0  0  2  0  0  0  0  0  0
  188.5440  179.3590  139.9240 O   0  0  0  0  0  0  0  0  0  0  0  0
  184.6720  177.6350  140.9970 C   0  0  1  0  0  3  0  0  0  0  0  0
  188.4740  178.4540  140.8010 C   0  0  0  0  0  0  0  0  0  0  0  0
  184.1720  178.2680  142.2040 N   0  0  0  0  0  0  0  0  0  0  0  0
  184.4680  178.7510  144.7610 C   0  0  0  0  0  0  0  0  0  0  0  0
  189.7620  177.8810  141.3420 C   0  0  2  0  0  3  0  0  0  0  0  0
  187.1850  178.0390  141.3250 N   0  0  0  0  0  0  0  0  0  0  0  0
  190.1910  177.0600  146.5190 C   0  0  0  0  0  3  0  0  0  0  0  0
  182.7940  178.6970  142.0910 C   0  0  0  0  0  2  0  0  0  0  0  0
  183.5660  177.7890  139.9640 C   0  0  0  0  0  2  0  0  0  0  0  0
  191.0320  176.3670  144.4050 O   0  0  0  0  0  1  0  0  0  0  0  0
  186.5030  178.0550  144.9470 C   0  0  2  0  0  3  0  0  0  0  0  0
  189.1860  177.5520  147.3430 C   0  0  0  0  0  3  0  0  0  0  0  0
  188.7110  177.1870  144.5680 C   0  0  0  0  0  0  0  0  0  0  0  0
  186.1760  177.9190  143.5630 C   0  0  0  0  0  0  0  0  0  0  0  0
  183.1220  179.2940  145.0920 C   0  0  0  0  0  1  0  0  0  0  0  0
  184.9240  178.3180  143.4270 C   0  0  0  0  0  0  0  0  0  0  0  0
  182.3220  178.2190  140.7300 C   0  0  0  0  0  2  0  0  0  0  0  0
  185.9920  179.0060  139.5390 O   0  0  0  0  0  0  0  0  0  0  0  0
  187.9440  177.8740  146.8050 C   0  0  0  0  0  3  0  0  0  0  0  0
  187.6930  177.7030  145.4390 C   0  0  0  0  0  0  0  0  0  0  0  0
  185.9740  178.2650  140.5610 C   0  0  0  0  0  0  0  0  0  0  0  0
  190.7020  177.5000  140.2050 C   0  0  0  0  0  2  0  0  0  0  0  0
  189.9290  177.0390  137.9920 O   0  0  0  0  0  1  0  0  0  0  0  0
  190.0520  176.4920  139.2700 C   0  0  0  0  0  2  0  0  0  0  0  0
  1 19  1  0  0  0  0
  2 13  1  0  0  0  0
  4  1  2  0  0  0  0
  4 20  1  0  0  0  0
  5  1  1  0  0  0  0
  6  8  2  0  0  0  0
  7 15  1  6  0  0  0
  7  9  1  0  0  0  0
  8 12  1  0  0  0  0
  8 11  1  0  0  0  0
  9 22  1  0  0  0  0
 10 21  1  0  0  0  0
 10  3  2  0  0  0  0
 11 28  1  6  0  0  0
 11  5  1  0  0  0  0
 12  4  1  0  0  0  0
 13 18  2  0  0  0  0
 14  9  1  0  0  0  0
 15 23  1  0  0  0  0
 16  2  1  0  0  0  0
 17 20  1  1  0  0  0
 17 26  1  0  0  0  0
 17  3  1  0  0  0  0
 19  2  2  0  0  0  0
 19 26  1  0  0  0  0
 22 20  2  0  0  0  0
 22 10  1  0  0  0  0
 23 14  1  0  0  0  0
 24 27  2  0  0  0  0
 25 18  1  0  0  0  0
 26 25  2  0  0  0  0
 27  7  1  0  0  0  0
 27 12  1  0  0  0  0
 29 30  1  0  0  0  0
 30 28  1  0  0  0  0
M  END
>  <MODEL>
7

>  <REMARK>
 VINA RESULT:      -8.8      1.404      1.930
  Name = 
  2 active torsions:
  status: ('A' for Active; 'I' for Inactive)
    1  A    between atoms: C_11  and  C_28
    2  A    between atoms: C_28  and  C_30
                            x       y       z     vdW  Elec       q    Type
                         _______ _______ _______ _____ _____    ______ ____

>  <TORSDO>
F 2

$$$$
=
 OpenBabel11122410333D

 30 35  0  0  1  0  0  0  0  0999 V2000
  188.1250  178.3500  140.2970 C   0  0  0  0  0  0  0  0  0  0  0  0
  188.8480  178.0950  137.9620 C   0  0  0  0  0  0  0  0  0  0  0  0
  184.0720  178.3540  139.1200 N   0  0  0  0  0  0  0  0  0  0  0  0
  187.0720  178.5880  141.3720 C   0  0  2  0  0  3  0  0  0  0  0  0
  189.4940  178.1610  140.8560 C   0  0  0  0  0  2  0  0  0  0  0  0
  188.3470  175.8340  143.4550 O   0  0  0  0  0  0  0  0  0  0  0  0
  185.3710  179.0280  143.7060 C   0  0  1  0  0  3  0  0  0  0  0  0
  188.3620  176.7810  142.6210 C   0  0  0  0  0  0  0  0  0  0  0  0
  184.2940  178.7670  142.7690 N   0  0  0  0  0  0  0  0  0  0  0  0
  183.5140  178.4760  140.2860 C   0  0  0  0  0  0  0  0  0  0  0  0
  189.5150  176.8620  141.6500 C   0  0  2  0  0  3  0  0  0  0  0  0
  187.2520  177.7160  142.5540 N   0  0  0  0  0  0  0  0  0  0  0  0
  188.5100  177.9850  136.6110 C   0  0  0  0  0  3  0  0  0  0  0  0
  182.9810  178.8980  143.3640 C   0  0  0  0  0  2  0  0  0  0  0  0
  184.7030  179.2100  145.0610 C   0  0  0  0  0  2  0  0  0  0  0  0
  190.2010  178.0730  138.2820 O   0  0  0  0  0  1  0  0  0  0  0  0
  185.4720  178.3430  139.3880 C   0  0  0  0  0  0  0  0  0  0  0  0
  187.1820  178.0100  136.2010 C   0  0  0  0  0  3  0  0  0  0  0  0
  187.8340  178.2400  138.9540 C   0  0  0  0  0  0  0  0  0  0  0  0
  185.7020  178.4500  140.7940 C   0  0  0  0  0  0  0  0  0  0  0  0
  182.0370  178.5360  140.4570 C   0  0  0  0  0  1  0  0  0  0  0  0
  184.5160  178.5570  141.3660 C   0  0  0  0  0  0  0  0  0  0  0  0
  183.2150  179.3780  144.7840 C   0  0  0  0  0  2  0  0  0  0  0  0
  186.4310  177.1080  144.6770 O   0  0  0  0  0  0  0  0  0  0  0  0
  186.1680  178.1420  137.1430 C   0  0  0  0  0  3  0  0  0  0  0  0
  186.4700  178.2530  138.5050 C   0  0  0  0  0  0  0  0  0  0  0  0
  186.3770  177.9010  143.6950 C   0  0  0  0  0  0  0  0  0  0  0  0
  190.8450  176.7280  142.3810 C   0  0  0  0  0  2  0  0  0  0  0  0
  191.6380  177.6450  144.4390 O   0  0  0  0  0  1  0  0  0  0  0  0
  191.1670  177.9860  143.1720 C   0  0  0  0  0  2  0  0  0  0  0  0
  1  5  1  0  0  0  0
  2 16  1  0  0  0  0
  2 19  1  0  0  0  0
  3 17  1  0  0  0  0
  3 10  2  0  0  0  0
  4  1  1  6  0  0  0
  4 12  1  0  0  0  0
  5 11  1  0  0  0  0
  7 15  1  1  0  0  0
  8  6  2  0  0  0  0
  9 14  1  0  0  0  0
  9  7  1  0  0  0  0
 10 21  1  0  0  0  0
 10 22  1  0  0  0  0
 11 28  1  1  0  0  0
 11  8  1  0  0  0  0
 12  8  1  0  0  0  0
 12 27  1  0  0  0  0
 13  2  2  0  0  0  0
 14 23  1  0  0  0  0
 17 20  1  0  0  0  0
 18 13  1  0  0  0  0
 18 25  2  0  0  0  0
 19  1  2  0  0  0  0
 20 22  2  0  0  0  0
 20  4  1  0  0  0  0
 22  9  1  0  0  0  0
 23 15  1  0  0  0  0
 25 26  1  0  0  0  0
 26 19  1  0  0  0  0
 26 17  2  0  0  0  0
 27  7  1  0  0  0  0
 27 24  2  0  0  0  0
 28 30  1  0  0  0  0
 30 29  1  0  0  0  0
M  END
>  <MODEL>
8

>  <REMARK>
 VINA RESULT:      -8.5      2.511      5.554
  Name = 
  2 active torsions:
  status: ('A' for Active; 'I' for Inactive)
    1  A    between atoms: C_11  and  C_28
    2  A    between atoms: C_28  and  C_30
                            x       y       z     vdW  Elec       q    Type
                         _______ _______ _______ _____ _____    ______ ____

>  <TORSDO>
F 2

$$$$
=
 OpenBabel11122410333D

 30 35  0  0  1  0  0  0  0  0999 V2000
  184.0570  178.7920  141.7510 C   0  0  0  0  0  0  0  0  0  0  0  0
  183.4900  178.8080  144.1420 C   0  0  0  0  0  0  0  0  0  0  0  0
  188.0830  177.8840  142.6360 N   0  0  0  0  0  0  0  0  0  0  0  0
  185.0450  178.7310  140.5910 C   0  0  0  0  0  0  0  0  0  0  0  0
  182.6400  178.9100  141.3020 C   0  0  0  0  0  2  0  0  0  0  0  0
  182.9960  176.2760  138.7670 O   0  0  0  0  0  0  0  0  0  0  0  0
  186.6020  178.6630  138.1210 C   0  0  1  0  0  3  0  0  0  0  0  0
  183.2710  177.2320  139.5440 C   0  0  0  0  0  0  0  0  0  0  0  0
  187.6630  178.1930  138.9940 N   0  0  0  0  0  0  0  0  0  0  0  0
  188.5560  177.8250  141.4280 C   0  0  0  0  0  0  0  0  0  0  0  0
  182.2520  177.6220  140.5880 C   0  0  2  0  0  3  0  0  0  0  0  0
  184.5690  177.8800  139.4780 N   0  0  0  0  0  0  0  0  0  0  0  0
  183.9030  178.6750  145.4690 C   0  0  0  0  0  3  0  0  0  0  0  0
  188.9170  177.9860  138.3010 C   0  0  0  0  0  2  0  0  0  0  0  0
  187.1800  178.6280  136.7140 C   0  0  0  0  0  2  0  0  0  0  0  0
  182.1470  179.0940  143.9210 O   0  0  0  0  0  1  0  0  0  0  0  0
  186.7010  178.1940  142.4680 C   0  0  2  0  0  3  0  0  0  0  0  0
  185.2290  178.4020  145.7820 C   0  0  0  0  0  3  0  0  0  0  0  0
  184.4250  178.6700  143.0730 C   0  0  0  0  0  0  0  0  0  0  0  0
  186.3870  178.2970  141.0790 C   0  0  0  0  0  0  0  0  0  0  0  0
  189.9870  177.5270  141.1490 C   0  0  0  0  0  1  0  0  0  0  0  0
  187.5140  178.0970  140.4190 C   0  0  0  0  0  0  0  0  0  0  0  0
  188.6840  178.4500  136.8750 C   0  0  0  0  0  2  0  0  0  0  0  0
  185.0490  177.0120  137.3410 O   0  0  0  0  0  0  0  0  0  0  0  0
  186.1650  178.2530  144.7650 C   0  0  0  0  0  3  0  0  0  0  0  0
  185.7860  178.3780  143.4240 C   0  0  0  0  0  0  0  0  0  0  0  0
  185.3670  177.8070  138.2690 C   0  0  0  0  0  0  0  0  0  0  0  0
  180.8720  177.7770  139.9620 C   0  0  0  0  0  2  0  0  0  0  0  0
  179.3550  177.1950  141.7130 O   0  0  0  0  0  1  0  0  0  0  0  0
  179.9010  176.7440  140.5120 C   0  0  0  0  0  2  0  0  0  0  0  0
  1 19  1  0  0  0  0
  2 13  1  0  0  0  0
  4 20  1  0  0  0  0
  4  1  2  0  0  0  0
  5  1  1  0  0  0  0
  6  8  2  0  0  0  0
  7 15  1  6  0  0  0
  7 27  1  0  0  0  0
  7  9  1  0  0  0  0
  8 11  1  0  0  0  0
  9 22  1  0  0  0  0
 10  3  2  0  0  0  0
 11 28  1  6  0  0  0
 11  5  1  0  0  0  0
 12  8  1  0  0  0  0
 12  4  1  0  0  0  0
 13 18  2  0  0  0  0
 14  9  1  0  0  0  0
 15 23  1  0  0  0  0
 16  2  1  0  0  0  0
 17 20  1  1  0  0  0
 17  3  1  0  0  0  0
 17 26  1  0  0  0  0
 19 26  1  0  0  0  0
 19  2  2  0  0  0  0
 21 10  1  0  0  0  0
 22 20  2  0  0  0  0
 22 10  1  0  0  0  0
 23 14  1  0  0  0  0
 24 27  2  0  0  0  0
 25 18  1  0  0  0  0
 26 25  2  0  0  0  0
 27 12  1  0  0  0  0
 28 30  1  0  0  0  0
 30 29  1  0  0  0  0
M  END
>  <MODEL>
9

>  <REMARK>
 VINA RESULT:      -8.5      3.593      6.982
  Name = 
  2 active torsions:
  status: ('A' for Active; 'I' for Inactive)
    1  A    between atoms: C_11  and  C_28
    2  A    between atoms: C_28  and  C_30
                            x       y       z     vdW  Elec       q    Type
                         _______ _______ _______ _____ _____    ______ ____

>  <TORSDO>
F 2

$$$$
