=
 OpenBabel11122410333D

 30 35  0  0  1  0  0  0  0  0999 V2000
  186.2170  178.1190  142.1390 C   0  0  2  0  0  3  0  0  0  0  0  0
  184.0510  178.6980  140.8290 C   0  0  0  0  0  0  0  0  0  0  0  0
  184.6080  179.2330  145.4890 O   0  0  0  0  0  0  0  0  0  0  0  0
  186.8470  178.3290  143.5260 C   0  0  2  0  0  3  0  0  0  0  0  0
  186.9260  178.8940  141.2050 O   0  0  0  0  0  0  0  0  0  0  0  0
  190.2250  178.2780  142.0330 O   0  0  0  0  0  0  0  0  0  0  0  0
  188.6070  176.8760  145.7640 C   0  0  2  0  0  3  0  0  0  0  0  0
  189.0090  178.2170  142.1440 C   0  0  0  0  0  0  0  0  0  0  0  0
  187.9380  178.1080  146.1840 N   0  0  2  0  0  0  0  0  0  0  0  0
  185.6750  179.1070  146.3550 C   0  0  0  0  0  0  0  0  0  0  0  0
  188.1150  178.1990  140.9280 C   0  0  2  0  0  3  0  0  0  0  0  0
  188.3870  178.0860  143.5110 C   0  0  2  0  0  3  0  0  0  0  0  0
  182.6350  178.8800  140.8040 N   0  0  0  0  0  0  0  0  0  0  0  0
  188.2760  178.2170  147.5990 C   0  0  0  0  0  2  0  0  0  0  0  0
  189.8870  176.7630  146.5580 C   0  0  0  0  0  2  0  0  0  0  0  0
  184.6840  178.6700  139.7420 O   0  0  0  0  0  0  0  0  0  0  0  0
  184.5930  178.1320  144.5980 C   0  0  2  0  0  3  0  0  0  0  0  0
  181.9320  178.9570  141.8910 C   0  0  0  0  0  3  0  0  0  0  0  0
  184.7480  178.4920  142.1220 C   0  0  0  0  0  0  0  0  0  0  0  0
  186.0310  177.5820  144.6070 C   0  0  2  0  0  3  0  0  0  0  0  0
  185.8770  179.9000  147.3110 O   0  0  0  0  0  0  0  0  0  0  0  0
  186.4910  177.8960  146.0540 C   0  0  1  0  0  3  0  0  0  0  0  0
  189.6370  177.5830  147.8000 C   0  0  0  0  0  2  0  0  0  0  0  0
  188.3710  175.5500  143.6510 C   0  0  0  0  0  1  0  0  0  0  0  0
  182.5620  178.9170  143.2540 C   0  0  0  0  0  2  0  0  0  0  0  0
  184.0100  178.4940  143.2550 C   0  0  0  0  0  0  0  0  0  0  0  0
  188.8940  176.8420  144.2600 C   0  0  2  0  0  3  0  0  0  0  0  0
  188.7950  178.8230  139.7170 C   0  0  0  0  0  2  0  0  0  0  0  0
  188.9160  178.8590  137.2460 C   0  0  0  0  0  1  0  0  0  0  0  0
  188.3130  178.1560  138.4440 C   0  0  0  0  0  2  0  0  0  0  0  0
  1  5  1  6  0  0  0
  1  4  1  0  0  0  0
  2 19  1  0  0  0  0
  3 10  1  0  0  0  0
  4 20  1  0  0  0  0
  6  8  2  0  0  0  0
  7  9  1  0  0  0  0
  7 15  1  0  0  0  0
  8 12  1  0  0  0  0
  9 14  1  0  0  0  0
 10 21  2  0  0  0  0
 11  5  1  0  0  0  0
 11  8  1  0  0  0  0
 12  4  1  0  0  0  0
 12 27  1  0  0  0  0
 13  2  1  0  0  0  0
 13 18  2  0  0  0  0
 14 23  1  0  0  0  0
 15 23  1  0  0  0  0
 16  2  2  0  0  0  0
 17 20  1  0  0  0  0
 17  3  1  0  0  0  0
 18 25  1  0  0  0  0
 19  1  1  0  0  0  0
 19 26  2  0  0  0  0
 20 22  1  0  0  0  0
 22  9  1  0  0  0  0
 22 10  1  0  0  0  0
 24 27  1  0  0  0  0
 25 26  1  0  0  0  0
 26 17  1  0  0  0  0
 27  7  1  0  0  0  0
 28 11  1  0  0  0  0
 29 30  1  0  0  0  0
 30 28  1  0  0  0  0
M  END
>  <MODEL>
1

>  <REMARK>
 VINA RESULT:      -9.1      0.000      0.000
  Name = 
  2 active torsions:
  status: ('A' for Active; 'I' for Inactive)
    1  A    between atoms: C_11  and  C_28
    2  A    between atoms: C_28  and  C_30
                            x       y       z     vdW  Elec       q    Type
                         _______ _______ _______ _____ _____    ______ ____

>  <TORSDO>
F 2

$$$$
=
 OpenBabel11122410333D

 30 35  0  0  1  0  0  0  0  0999 V2000
  187.2100  177.8770  142.7200 C   0  0  2  0  0  3  0  0  0  0  0  0
  184.8060  178.6720  142.1420 C   0  0  0  0  0  0  0  0  0  0  0  0
  186.6300  178.5410  146.4980 O   0  0  0  0  0  0  0  0  0  0  0  0
  188.2010  177.8800  143.8950 C   0  0  2  0  0  3  0  0  0  0  0  0
  187.6820  178.7630  141.7350 O   0  0  0  0  0  0  0  0  0  0  0  0
  191.0430  177.9770  141.5360 O   0  0  0  0  0  0  0  0  0  0  0  0
  190.4170  176.0970  145.3550 C   0  0  2  0  0  3  0  0  0  0  0  0
  189.9000  177.9230  141.9690 C   0  0  0  0  0  0  0  0  0  0  0  0
  189.9550  177.2700  146.0980 N   0  0  2  0  0  0  0  0  0  0  0  0
  187.8810  178.2750  147.0130 C   0  0  0  0  0  0  0  0  0  0  0  0
  188.7110  178.0910  141.0540 C   0  0  2  0  0  3  0  0  0  0  0  0
  189.6640  177.6130  143.4260 C   0  0  2  0  0  3  0  0  0  0  0  0
  183.4480  178.8810  142.5320 N   0  0  0  0  0  0  0  0  0  0  0  0
  190.6680  177.1740  147.3670 C   0  0  0  0  0  2  0  0  0  0  0  0
  191.8550  175.8510  145.7440 C   0  0  0  0  0  2  0  0  0  0  0  0
  185.1200  178.7850  140.9290 O   0  0  0  0  0  0  0  0  0  0  0  0
  186.3130  177.5760  145.5100 C   0  0  2  0  0  3  0  0  0  0  0  0
  183.0700  178.8190  143.7700 C   0  0  0  0  0  3  0  0  0  0  0  0
  185.8140  178.2750  143.1560 C   0  0  0  0  0  0  0  0  0  0  0  0
  187.6670  177.0040  145.0520 C   0  0  2  0  0  3  0  0  0  0  0  0
  188.3780  178.9240  147.9710 O   0  0  0  0  0  0  0  0  0  0  0  0
  188.5170  177.1050  146.3450 C   0  0  1  0  0  3  0  0  0  0  0  0
  191.9960  176.4930  147.1020 C   0  0  0  0  0  2  0  0  0  0  0  0
  189.5450  175.0840  143.2350 C   0  0  0  0  0  1  0  0  0  0  0  0
  184.0410  178.5770  144.8900 C   0  0  0  0  0  2  0  0  0  0  0  0
  185.4110  178.1330  144.4380 C   0  0  0  0  0  0  0  0  0  0  0  0
  190.2840  176.2680  143.8380 C   0  0  2  0  0  3  0  0  0  0  0  0
  189.0730  178.8660  139.7940 C   0  0  0  0  0  2  0  0  0  0  0  0
  189.0670  178.8480  137.3210 C   0  0  0  0  0  1  0  0  0  0  0  0
  188.6410  178.0940  138.5630 C   0  0  0  0  0  2  0  0  0  0  0  0
  1  5  1  6  0  0  0
  1 19  1  0  0  0  0
  1  4  1  0  0  0  0
  2 13  1  0  0  0  0
  2 19  1  0  0  0  0
  3 10  1  0  0  0  0
  4 20  1  0  0  0  0
  6  8  2  0  0  0  0
  7 15  1  0  0  0  0
  7  9  1  0  0  0  0
  8 12  1  0  0  0  0
  9 22  1  0  0  0  0
  9 14  1  0  0  0  0
 10 21  2  0  0  0  0
 11  5  1  0  0  0  0
 11  8  1  0  0  0  0
 12 27  1  0  0  0  0
 12  4  1  0  0  0  0
 13 18  2  0  0  0  0
 15 23  1  0  0  0  0
 16  2  2  0  0  0  0
 17  3  1  0  0  0  0
 18 25  1  0  0  0  0
 19 26  2  0  0  0  0
 20 17  1  0  0  0  0
 20 22  1  0  0  0  0
 22 10  1  0  0  0  0
 23 14  1  0  0  0  0
 24 27  1  0  0  0  0
 26 25  1  0  0  0  0
 26 17  1  0  0  0  0
 27  7  1  0  0  0  0
 28 11  1  0  0  0  0
 29 30  1  0  0  0  0
 30 28  1  0  0  0  0
M  END
>  <MODEL>
2

>  <REMARK>
 VINA RESULT:      -8.5      1.304      1.787
  Name = 
  2 active torsions:
  status: ('A' for Active; 'I' for Inactive)
    1  A    between atoms: C_11  and  C_28
    2  A    between atoms: C_28  and  C_30
                            x       y       z     vdW  Elec       q    Type
                         _______ _______ _______ _____ _____    ______ ____

>  <TORSDO>
F 2

$$$$
=
 OpenBabel11122410333D

 30 35  0  0  1  0  0  0  0  0999 V2000
  187.9920  178.0010  144.1620 C   0  0  2  0  0  3  0  0  0  0  0  0
  185.5070  178.3960  144.8010 C   0  0  0  0  0  0  0  0  0  0  0  0
  187.0720  177.6150  140.4130 O   0  0  0  0  0  0  0  0  0  0  0  0
  188.8420  177.5290  142.9720 C   0  0  2  0  0  3  0  0  0  0  0  0
  188.0360  177.0130  145.1620 O   0  0  0  0  0  0  0  0  0  0  0  0
  191.3900  176.1850  145.2830 O   0  0  0  0  0  0  0  0  0  0  0  0
  191.5860  178.0840  141.4280 C   0  0  2  0  0  3  0  0  0  0  0  0
  190.3860  176.7460  144.8690 C   0  0  0  0  0  0  0  0  0  0  0  0
  190.6220  177.2380  140.7240 N   0  0  2  0  0  0  0  0  0  0  0  0
  188.2930  177.2730  139.8700 C   0  0  0  0  0  0  0  0  0  0  0  0
  189.2760  177.1520  145.8080 C   0  0  2  0  0  3  0  0  0  0  0  0
  190.2780  177.1070  143.4090 C   0  0  2  0  0  3  0  0  0  0  0  0
  184.1920  178.8230  144.4400 N   0  0  0  0  0  0  0  0  0  0  0  0
  191.2650  176.9790  139.4410 C   0  0  0  0  0  2  0  0  0  0  0  0
  192.9670  177.6420  141.0080 C   0  0  0  0  0  2  0  0  0  0  0  0
  185.7670  178.1720  146.0120 O   0  0  0  0  0  0  0  0  0  0  0  0
  187.2550  178.6340  141.3800 C   0  0  2  0  0  3  0  0  0  0  0  0
  183.8500  179.0310  143.2070 C   0  0  0  0  0  3  0  0  0  0  0  0
  186.5570  178.2750  143.7600 C   0  0  0  0  0  0  0  0  0  0  0  0
  188.7340  178.5330  141.8010 C   0  0  2  0  0  3  0  0  0  0  0  0
  188.4150  176.4550  138.9210 O   0  0  0  0  0  0  0  0  0  0  0  0
  189.4100  178.0360  140.4960 C   0  0  1  0  0  3  0  0  0  0  0  0
  192.7640  176.9850  139.6650 C   0  0  0  0  0  2  0  0  0  0  0  0
  191.3280  179.4160  143.5350 C   0  0  0  0  0  1  0  0  0  0  0  0
  184.7950  178.7860  142.0650 C   0  0  0  0  0  2  0  0  0  0  0  0
  186.2280  178.5660  142.4820 C   0  0  0  0  0  0  0  0  0  0  0  0
  191.4310  178.0160  142.9510 C   0  0  2  0  0  3  0  0  0  0  0  0
  189.2800  176.3170  147.0810 C   0  0  0  0  0  2  0  0  0  0  0  0
  188.7310  178.3060  148.4470 C   0  0  0  0  0  1  0  0  0  0  0  0
  188.3070  176.8970  148.0890 C   0  0  0  0  0  2  0  0  0  0  0  0
  1 19  1  6  0  0  0
  1  5  1  0  0  0  0
  2 16  2  0  0  0  0
  3 17  1  0  0  0  0
  4 12  1  0  0  0  0
  4  1  1  0  0  0  0
  5 11  1  0  0  0  0
  7 27  1  0  0  0  0
  8  6  2  0  0  0  0
  8 11  1  0  0  0  0
  9  7  1  0  0  0  0
 10  3  1  0  0  0  0
 10 22  1  0  0  0  0
 11 28  1  0  0  0  0
 12  8  1  0  0  0  0
 13  2  1  0  0  0  0
 14 23  1  0  0  0  0
 14  9  1  0  0  0  0
 15  7  1  0  0  0  0
 17 20  1  0  0  0  0
 17 26  1  0  0  0  0
 18 13  2  0  0  0  0
 19  2  1  0  0  0  0
 20  4  1  0  0  0  0
 21 10  2  0  0  0  0
 22  9  1  0  0  0  0
 22 20  1  0  0  0  0
 23 15  1  0  0  0  0
 25 26  1  0  0  0  0
 25 18  1  0  0  0  0
 26 19  2  0  0  0  0
 27 12  1  0  0  0  0
 27 24  1  0  0  0  0
 28 30  1  0  0  0  0
 30 29  1  0  0  0  0
M  END
>  <MODEL>
3

>  <REMARK>
 VINA RESULT:      -7.7      2.521      5.812
  Name = 
  2 active torsions:
  status: ('A' for Active; 'I' for Inactive)
    1  A    between atoms: C_11  and  C_28
    2  A    between atoms: C_28  and  C_30
                            x       y       z     vdW  Elec       q    Type
                         _______ _______ _______ _____ _____    ______ ____

>  <TORSDO>
F 2

$$$$
=
 OpenBabel11122410333D

 30 35  0  0  1  0  0  0  0  0999 V2000
  184.8390  178.7550  141.1800 C   0  0  2  0  0  3  0  0  0  0  0  0
  185.1520  178.6840  138.6030 C   0  0  0  0  0  0  0  0  0  0  0  0
  188.2610  177.0160  141.7440 O   0  0  0  0  0  0  0  0  0  0  0  0
  185.4610  178.1720  142.4590 C   0  0  2  0  0  3  0  0  0  0  0  0
  183.5760  178.1670  140.9890 O   0  0  0  0  0  0  0  0  0  0  0  0
  182.1800  178.2960  144.1490 O   0  0  0  0  0  0  0  0  0  0  0  0
  186.2270  178.9030  145.4750 C   0  0  2  0  0  3  0  0  0  0  0  0
  183.0480  178.4290  143.2990 C   0  0  0  0  0  0  0  0  0  0  0  0
  186.8110  177.6670  144.9540 N   0  0  2  0  0  0  0  0  0  0  0  0
  188.2540  176.8460  143.1120 C   0  0  0  0  0  0  0  0  0  0  0  0
  182.6990  178.8080  141.8800 C   0  0  2  0  0  3  0  0  0  0  0  0
  184.5000  178.2840  143.6810 C   0  0  2  0  0  3  0  0  0  0  0  0
  186.0130  178.6300  137.4640 N   0  0  0  0  0  0  0  0  0  0  0  0
  187.6540  177.1980  146.0480 C   0  0  0  0  0  2  0  0  0  0  0  0
  186.0270  178.7190  146.9600 C   0  0  0  0  0  2  0  0  0  0  0  0
  183.9260  178.9160  138.4330 O   0  0  0  0  0  0  0  0  0  0  0  0
  187.7390  178.2940  141.4250 C   0  0  2  0  0  3  0  0  0  0  0  0
  187.2760  178.3560  137.5690 C   0  0  0  0  0  3  0  0  0  0  0  0
  185.7150  178.5200  139.9650 C   0  0  0  0  0  0  0  0  0  0  0  0
  186.9000  178.7060  142.6500 C   0  0  2  0  0  3  0  0  0  0  0  0
  188.7460  175.8350  143.6780 O   0  0  0  0  0  0  0  0  0  0  0  0
  187.6640  178.0210  143.8130 C   0  0  1  0  0  3  0  0  0  0  0  0
  187.0210  177.6530  147.3480 C   0  0  0  0  0  2  0  0  0  0  0  0
  184.9490  180.7070  144.2950 C   0  0  0  0  0  1  0  0  0  0  0  0
  187.9130  178.0200  138.8880 C   0  0  0  0  0  2  0  0  0  0  0  0
  187.0450  178.3100  140.0880 C   0  0  0  0  0  0  0  0  0  0  0  0
  184.9070  179.2690  144.7890 C   0  0  2  0  0  3  0  0  0  0  0  0
  181.2640  178.4350  141.5320 C   0  0  0  0  0  2  0  0  0  0  0  0
  180.0520  176.5880  140.4190 C   0  0  0  0  0  1  0  0  0  0  0  0
  181.2400  177.5220  140.3220 C   0  0  0  0  0  2  0  0  0  0  0  0
  1 19  1  6  0  0  0
  1  4  1  0  0  0  0
  2 19  1  0  0  0  0
  3 10  1  0  0  0  0
  4 20  1  0  0  0  0
  4 12  1  0  0  0  0
  5  1  1  0  0  0  0
  5 11  1  0  0  0  0
  7 15  1  0  0  0  0
  8 12  1  0  0  0  0
  8  6  2  0  0  0  0
  9  7  1  0  0  0  0
  9 14  1  0  0  0  0
 10 21  2  0  0  0  0
 10 22  1  0  0  0  0
 11  8  1  0  0  0  0
 12 27  1  0  0  0  0
 13 18  2  0  0  0  0
 13  2  1  0  0  0  0
 14 23  1  0  0  0  0
 15 23  1  0  0  0  0
 16  2  2  0  0  0  0
 17  3  1  0  0  0  0
 17 20  1  0  0  0  0
 18 25  1  0  0  0  0
 19 26  2  0  0  0  0
 20 22  1  0  0  0  0
 22  9  1  0  0  0  0
 24 27  1  0  0  0  0
 25 26  1  0  0  0  0
 26 17  1  0  0  0  0
 27  7  1  0  0  0  0
 28 11  1  0  0  0  0
 30 29  1  0  0  0  0
 30 28  1  0  0  0  0
M  END
>  <MODEL>
4

>  <REMARK>
 VINA RESULT:      -7.1      1.931      5.027
  Name = 
  2 active torsions:
  status: ('A' for Active; 'I' for Inactive)
    1  A    between atoms: C_11  and  C_28
    2  A    between atoms: C_28  and  C_30
                            x       y       z     vdW  Elec       q    Type
                         _______ _______ _______ _____ _____    ______ ____

>  <TORSDO>
F 2

$$$$
=
 OpenBabel11122410333D

 30 35  0  0  1  0  0  0  0  0999 V2000
  187.8090  178.1430  143.7500 C   0  0  2  0  0  3  0  0  0  0  0  0
  186.8370  178.5620  141.3780 C   0  0  0  0  0  0  0  0  0  0  0  0
  190.6110  175.8770  142.3110 O   0  0  0  0  0  0  0  0  0  0  0  0
  188.8170  177.2300  144.4650 C   0  0  2  0  0  3  0  0  0  0  0  0
  186.5130  177.7840  144.1590 O   0  0  0  0  0  0  0  0  0  0  0  0
  186.8490  177.4470  147.5830 O   0  0  0  0  0  0  0  0  0  0  0  0
  191.0610  177.2130  146.7420 C   0  0  2  0  0  3  0  0  0  0  0  0
  187.2150  177.6330  146.4310 C   0  0  0  0  0  0  0  0  0  0  0  0
  191.0400  176.0430  145.8640 N   0  0  2  0  0  0  0  0  0  0  0  0
  191.2160  175.4310  143.4670 C   0  0  0  0  0  0  0  0  0  0  0  0
  186.3280  178.3400  145.4350 C   0  0  2  0  0  3  0  0  0  0  0  0
  188.6010  177.2170  146.0090 C   0  0  2  0  0  3  0  0  0  0  0  0
  187.0200  178.6280  139.9630 N   0  0  0  0  0  0  0  0  0  0  0  0
  192.1750  175.2490  146.3220 C   0  0  0  0  0  2  0  0  0  0  0  0
  191.5550  176.7560  148.0940 C   0  0  0  0  0  2  0  0  0  0  0  0
  185.7630  178.9880  141.8770 O   0  0  0  0  0  0  0  0  0  0  0  0
  190.2960  177.2520  142.4440 C   0  0  2  0  0  3  0  0  0  0  0  0
  188.0860  178.1690  139.3840 C   0  0  0  0  0  3  0  0  0  0  0  0
  187.9280  178.0460  142.2420 C   0  0  0  0  0  0  0  0  0  0  0  0
  190.2520  177.5130  143.9620 C   0  0  2  0  0  3  0  0  0  0  0  0
  191.6810  174.2680  143.5910 O   0  0  0  0  0  0  0  0  0  0  0  0
  191.3040  176.5060  144.4960 C   0  0  1  0  0  3  0  0  0  0  0  0
  192.3510  175.5080  147.8050 C   0  0  0  0  0  2  0  0  0  0  0  0
  189.8090  179.3780  146.5780 C   0  0  0  0  0  1  0  0  0  0  0  0
  189.1800  177.4860  140.1540 C   0  0  0  0  0  2  0  0  0  0  0  0
  189.0730  177.6370  141.6510 C   0  0  0  0  0  0  0  0  0  0  0  0
  189.6910  177.8880  146.8620 C   0  0  2  0  0  3  0  0  0  0  0  0
  184.8580  178.2440  145.8210 C   0  0  0  0  0  2  0  0  0  0  0  0
  182.9910  178.6280  144.2440 C   0  0  0  0  0  1  0  0  0  0  0  0
  184.0540  179.3000  145.0870 C   0  0  0  0  0  2  0  0  0  0  0  0
  1 19  1  6  0  0  0
  1  5  1  0  0  0  0
  1  4  1  0  0  0  0
  2 16  2  0  0  0  0
  2 19  1  0  0  0  0
  3 17  1  0  0  0  0
  3 10  1  0  0  0  0
  4 12  1  0  0  0  0
  5 11  1  0  0  0  0
  7 27  1  0  0  0  0
  7 15  1  0  0  0  0
  8  6  2  0  0  0  0
  9 14  1  0  0  0  0
  9  7  1  0  0  0  0
 10 21  2  0  0  0  0
 10 22  1  0  0  0  0
 11 28  1  0  0  0  0
 11  8  1  0  0  0  0
 12  8  1  0  0  0  0
 12 27  1  0  0  0  0
 13  2  1  0  0  0  0
 14 23  1  0  0  0  0
 17 20  1  0  0  0  0
 18 13  2  0  0  0  0
 18 25  1  0  0  0  0
 20  4  1  0  0  0  0
 20 22  1  0  0  0  0
 22  9  1  0  0  0  0
 23 15  1  0  0  0  0
 24 27  1  0  0  0  0
 25 26  1  0  0  0  0
 26 19  2  0  0  0  0
 26 17  1  0  0  0  0
 29 30  1  0  0  0  0
 30 28  1  0  0  0  0
M  END
>  <MODEL>
5

>  <REMARK>
 VINA RESULT:      -7.0      2.140      5.357
  Name = 
  2 active torsions:
  status: ('A' for Active; 'I' for Inactive)
    1  A    between atoms: C_11  and  C_28
    2  A    between atoms: C_28  and  C_30
                            x       y       z     vdW  Elec       q    Type
                         _______ _______ _______ _____ _____    ______ ____

>  <TORSDO>
F 2

$$$$
=
 OpenBabel11122410333D

 30 35  0  0  1  0  0  0  0  0999 V2000
  188.3760  177.3810  139.8500 C   0  0  2  0  0  3  0  0  0  0  0  0
  187.5270  177.9900  142.2270 C   0  0  0  0  0  0  0  0  0  0  0  0
  192.0720  177.5560  141.0170 O   0  0  0  0  0  0  0  0  0  0  0  0
  189.6800  177.3520  139.0360 C   0  0  2  0  0  3  0  0  0  0  0  0
  187.5620  178.4140  139.3530 O   0  0  0  0  0  0  0  0  0  0  0  0
  187.7910  177.9990  135.9280 O   0  0  0  0  0  0  0  0  0  0  0  0
  191.2760  175.6500  136.8510 C   0  0  2  0  0  3  0  0  0  0  0  0
  188.0420  177.7820  137.1050 C   0  0  0  0  0  0  0  0  0  0  0  0
  192.0510  176.6800  137.5430 N   0  0  2  0  0  0  0  0  0  0  0  0
  192.7400  177.3630  139.8250 C   0  0  0  0  0  0  0  0  0  0  0  0
  186.9810  177.9310  138.1690 C   0  0  2  0  0  3  0  0  0  0  0  0
  189.4110  177.2890  137.5020 C   0  0  2  0  0  3  0  0  0  0  0  0
  187.7270  178.0160  143.6410 N   0  0  0  0  0  0  0  0  0  0  0  0
  193.3970  176.5150  137.0050 C   0  0  0  0  0  2  0  0  0  0  0  0
  191.8490  175.5080  135.4610 C   0  0  0  0  0  2  0  0  0  0  0  0
  186.3890  178.2690  141.7650 O   0  0  0  0  0  0  0  0  0  0  0  0
  190.9600  176.6810  141.0810 C   0  0  2  0  0  3  0  0  0  0  0  0
  188.8840  177.7770  144.1760 C   0  0  0  0  0  3  0  0  0  0  0  0
  188.6360  177.5850  141.3290 C   0  0  0  0  0  0  0  0  0  0  0  0
  190.6560  176.3030  139.6190 C   0  0  2  0  0  3  0  0  0  0  0  0
  193.8190  177.9460  139.5430 O   0  0  0  0  0  0  0  0  0  0  0  0
  192.0650  176.3440  138.9720 C   0  0  1  0  0  3  0  0  0  0  0  0
  193.2680  176.0050  135.5840 C   0  0  0  0  0  2  0  0  0  0  0  0
  188.9620  174.7970  137.3000 C   0  0  0  0  0  1  0  0  0  0  0  0
  190.1080  177.5110  143.3460 C   0  0  0  0  0  2  0  0  0  0  0  0
  189.8240  177.2600  141.8860 C   0  0  0  0  0  0  0  0  0  0  0  0
  189.7800  175.9750  136.7930 C   0  0  2  0  0  3  0  0  0  0  0  0
  185.8690  178.8740  137.7290 C   0  0  0  0  0  2  0  0  0  0  0  0
  184.0760  179.4790  139.3220 C   0  0  0  0  0  1  0  0  0  0  0  0
  184.5460  178.4380  138.3280 C   0  0  0  0  0  2  0  0  0  0  0  0
  1  5  1  6  0  0  0
  1 19  1  0  0  0  0
  2 13  1  0  0  0  0
  3 17  1  0  0  0  0
  4 20  1  0  0  0  0
  4  1  1  0  0  0  0
  6  8  2  0  0  0  0
  7  9  1  0  0  0  0
  8 12  1  0  0  0  0
  8 11  1  0  0  0  0
  9 22  1  0  0  0  0
 10  3  1  0  0  0  0
 11  5  1  0  0  0  0
 12  4  1  0  0  0  0
 13 18  2  0  0  0  0
 14  9  1  0  0  0  0
 15 23  1  0  0  0  0
 15  7  1  0  0  0  0
 16  2  2  0  0  0  0
 17 26  1  0  0  0  0
 19 26  2  0  0  0  0
 19  2  1  0  0  0  0
 20 17  1  0  0  0  0
 21 10  2  0  0  0  0
 22 20  1  0  0  0  0
 22 10  1  0  0  0  0
 23 14  1  0  0  0  0
 25 18  1  0  0  0  0
 26 25  1  0  0  0  0
 27  7  1  0  0  0  0
 27 24  1  0  0  0  0
 27 12  1  0  0  0  0
 28 11  1  0  0  0  0
 28 30  1  0  0  0  0
 30 29  1  0  0  0  0
M  END
>  <MODEL>
6

>  <REMARK>
 VINA RESULT:      -6.9      3.457      7.398
  Name = 
  2 active torsions:
  status: ('A' for Active; 'I' for Inactive)
    1  A    between atoms: C_11  and  C_28
    2  A    between atoms: C_28  and  C_30
                            x       y       z     vdW  Elec       q    Type
                         _______ _______ _______ _____ _____    ______ ____

>  <TORSDO>
F 2

$$$$
=
 OpenBabel11122410333D

 30 35  0  0  1  0  0  0  0  0999 V2000
  183.6620  176.9320  137.7300 C   0  0  2  0  0  3  0  0  0  0  0  0
  185.2090  176.6920  135.6590 C   0  0  0  0  0  0  0  0  0  0  0  0
  186.5090  178.5740  139.7930 O   0  0  0  0  0  0  0  0  0  0  0  0
  183.7420  177.2630  139.2290 C   0  0  2  0  0  3  0  0  0  0  0  0
  183.3540  175.5670  137.5900 O   0  0  0  0  0  0  0  0  0  0  0  0
  180.8170  175.1090  139.8940 O   0  0  0  0  0  0  0  0  0  0  0  0
  182.2210  178.8120  141.5750 C   0  0  2  0  0  3  0  0  0  0  0  0
  181.6960  175.7130  139.2960 C   0  0  0  0  0  0  0  0  0  0  0  0
  183.5950  178.4060  141.8700 N   0  0  2  0  0  0  0  0  0  0  0  0
  185.9100  178.6930  141.0290 C   0  0  0  0  0  0  0  0  0  0  0  0
  181.9760  175.4410  137.8380 C   0  0  2  0  0  3  0  0  0  0  0  0
  182.4680  176.8010  140.0000 C   0  0  2  0  0  3  0  0  0  0  0  0
  186.3440  177.1270  134.9080 N   0  0  0  0  0  0  0  0  0  0  0  0
  183.8340  178.9470  143.2040 C   0  0  0  0  0  2  0  0  0  0  0  0
  181.4540  178.7950  142.8760 C   0  0  0  0  0  2  0  0  0  0  0  0
  184.4120  175.8680  135.1400 O   0  0  0  0  0  0  0  0  0  0  0  0
  185.5740  178.9110  138.7820 C   0  0  2  0  0  3  0  0  0  0  0  0
  187.2230  177.9440  135.4010 C   0  0  0  0  0  3  0  0  0  0  0  0
  184.9560  177.2530  137.0090 C   0  0  0  0  0  0  0  0  0  0  0  0
  184.1900  178.7290  139.4330 C   0  0  2  0  0  3  0  0  0  0  0  0
  186.5370  178.5400  142.1100 O   0  0  0  0  0  0  0  0  0  0  0  0
  184.4770  179.0870  140.9150 C   0  0  1  0  0  3  0  0  0  0  0  0
  182.5100  178.9620  143.9410 C   0  0  0  0  0  2  0  0  0  0  0  0
  180.9470  178.7500  139.4180 C   0  0  0  0  0  1  0  0  0  0  0  0
  187.1410  178.4470  136.8140 C   0  0  0  0  0  2  0  0  0  0  0  0
  185.8270  178.1630  137.4980 C   0  0  0  0  0  0  0  0  0  0  0  0
  181.5480  177.9110  140.5350 C   0  0  2  0  0  3  0  0  0  0  0  0
  181.5130  174.0510  137.4240 C   0  0  0  0  0  2  0  0  0  0  0  0
  182.3490  171.7680  136.9710 C   0  0  0  0  0  1  0  0  0  0  0  0
  182.6850  173.2430  136.9040 C   0  0  0  0  0  2  0  0  0  0  0  0
  1 19  1  6  0  0  0
  1  4  1  0  0  0  0
  2 19  1  0  0  0  0
  3 10  1  0  0  0  0
  4 20  1  0  0  0  0
  4 12  1  0  0  0  0
  5  1  1  0  0  0  0
  5 11  1  0  0  0  0
  7  9  1  0  0  0  0
  7 15  1  0  0  0  0
  8  6  2  0  0  0  0
  8 12  1  0  0  0  0
  9 14  1  0  0  0  0
 10 21  2  0  0  0  0
 11  8  1  0  0  0  0
 12 27  1  0  0  0  0
 13 18  2  0  0  0  0
 13  2  1  0  0  0  0
 14 23  1  0  0  0  0
 15 23  1  0  0  0  0
 16  2  2  0  0  0  0
 17 20  1  0  0  0  0
 17  3  1  0  0  0  0
 18 25  1  0  0  0  0
 19 26  2  0  0  0  0
 20 22  1  0  0  0  0
 22 10  1  0  0  0  0
 22  9  1  0  0  0  0
 24 27  1  0  0  0  0
 25 26  1  0  0  0  0
 26 17  1  0  0  0  0
 27  7  1  0  0  0  0
 28 11  1  0  0  0  0
 30 29  1  0  0  0  0
 30 28  1  0  0  0  0
M  END
>  <MODEL>
7

>  <REMARK>
 VINA RESULT:      -6.9      3.777      7.195
  Name = 
  2 active torsions:
  status: ('A' for Active; 'I' for Inactive)
    1  A    between atoms: C_11  and  C_28
    2  A    between atoms: C_28  and  C_30
                            x       y       z     vdW  Elec       q    Type
                         _______ _______ _______ _____ _____    ______ ____

>  <TORSDO>
F 2

$$$$
=
 OpenBabel11122410333D

 30 35  0  0  1  0  0  0  0  0999 V2000
  186.5130  178.0950  138.4500 C   0  0  2  0  0  3  0  0  0  0  0  0
  184.3080  179.1830  139.2810 C   0  0  0  0  0  0  0  0  0  0  0  0
  184.5540  175.5370  136.2880 O   0  0  0  0  0  0  0  0  0  0  0  0
  187.0010  176.8450  137.6990 C   0  0  2  0  0  3  0  0  0  0  0  0
  186.9050  177.9890  139.7960 O   0  0  0  0  0  0  0  0  0  0  0  0
  190.1880  176.9300  139.5630 O   0  0  0  0  0  0  0  0  0  0  0  0
  189.1320  175.8490  135.5350 C   0  0  2  0  0  3  0  0  0  0  0  0
  189.0770  177.2390  139.1590 C   0  0  0  0  0  0  0  0  0  0  0  0
  188.0530  174.9090  135.8410 N   0  0  2  0  0  0  0  0  0  0  0  0
  185.5790  174.7450  135.8140 C   0  0  0  0  0  0  0  0  0  0  0  0
  188.2710  178.3180  139.8410 C   0  0  2  0  0  3  0  0  0  0  0  0
  188.5230  176.5890  137.9160 C   0  0  2  0  0  3  0  0  0  0  0  0
  182.9220  179.4730  139.0840 N   0  0  0  0  0  0  0  0  0  0  0  0
  188.3040  173.7920  134.9380 C   0  0  0  0  0  2  0  0  0  0  0  0
  190.3520  175.0360  135.1730 C   0  0  0  0  0  2  0  0  0  0  0  0
  184.9250  179.7530  140.2190 O   0  0  0  0  0  0  0  0  0  0  0  0
  184.9560  176.8950  136.2550 C   0  0  2  0  0  3  0  0  0  0  0  0
  182.2220  178.8900  138.1620 C   0  0  0  0  0  3  0  0  0  0  0  0
  185.0100  178.2630  138.3540 C   0  0  0  0  0  0  0  0  0  0  0  0
  186.4950  176.8630  136.2370 C   0  0  2  0  0  3  0  0  0  0  0  0
  185.4620  173.5020  135.6500 O   0  0  0  0  0  0  0  0  0  0  0  0
  186.7850  175.5480  135.4670 C   0  0  1  0  0  3  0  0  0  0  0  0
  189.8000  173.7110  134.7080 C   0  0  0  0  0  2  0  0  0  0  0  0
  189.4300  178.2420  136.2150 C   0  0  0  0  0  1  0  0  0  0  0  0
  182.8010  177.8270  137.2720 C   0  0  0  0  0  2  0  0  0  0  0  0
  184.3040  177.7100  137.3430 C   0  0  0  0  0  0  0  0  0  0  0  0
  189.4370  176.8000  136.6970 C   0  0  2  0  0  3  0  0  0  0  0  0
  188.6960  178.5090  141.2910 C   0  0  0  0  0  2  0  0  0  0  0  0
  188.3040  176.6810  142.9110 C   0  0  0  0  0  1  0  0  0  0  0  0
  187.6800  177.8770  142.2220 C   0  0  0  0  0  2  0  0  0  0  0  0
  1 19  1  1  0  0  0
  1  5  1  0  0  0  0
  2 16  2  0  0  0  0
  4 12  1  0  0  0  0
  4  1  1  0  0  0  0
  5 11  1  0  0  0  0
  7  9  1  0  0  0  0
  7 27  1  0  0  0  0
  8  6  2  0  0  0  0
  8 11  1  0  0  0  0
 10  3  1  0  0  0  0
 11 28  1  0  0  0  0
 12  8  1  0  0  0  0
 13  2  1  0  0  0  0
 14  9  1  0  0  0  0
 15  7  1  0  0  0  0
 17  3  1  0  0  0  0
 17 26  1  0  0  0  0
 18 13  2  0  0  0  0
 19  2  1  0  0  0  0
 20 17  1  0  0  0  0
 20  4  1  0  0  0  0
 21 10  2  0  0  0  0
 22 10  1  0  0  0  0
 22  9  1  0  0  0  0
 22 20  1  0  0  0  0
 23 14  1  0  0  0  0
 23 15  1  0  0  0  0
 24 27  1  0  0  0  0
 25 26  1  0  0  0  0
 25 18  1  0  0  0  0
 26 19  2  0  0  0  0
 27 12  1  0  0  0  0
 28 30  1  0  0  0  0
 30 29  1  0  0  0  0
M  END
>  <MODEL>
8

>  <REMARK>
 VINA RESULT:      -6.7      3.618      7.696
  Name = 
  2 active torsions:
  status: ('A' for Active; 'I' for Inactive)
    1  A    between atoms: C_11  and  C_28
    2  A    between atoms: C_28  and  C_30
                            x       y       z     vdW  Elec       q    Type
                         _______ _______ _______ _____ _____    ______ ____

>  <TORSDO>
F 2

$$$$
=
 OpenBabel11122410333D

 30 35  0  0  1  0  0  0  0  0999 V2000
  187.9150  177.7500  143.6330 C   0  0  2  0  0  3  0  0  0  0  0  0
  187.3220  177.8310  146.1590 C   0  0  0  0  0  0  0  0  0  0  0  0
  184.1750  178.0380  142.6420 O   0  0  0  0  0  0  0  0  0  0  0  0
  187.2310  177.5830  142.2670 C   0  0  2  0  0  3  0  0  0  0  0  0
  188.6660  176.5920  143.9010 O   0  0  0  0  0  0  0  0  0  0  0  0
  190.2770  176.0030  140.9000 O   0  0  0  0  0  0  0  0  0  0  0  0
  187.2960  178.6280  139.2460 C   0  0  2  0  0  3  0  0  0  0  0  0
  189.5110  176.5600  141.6730 C   0  0  0  0  0  0  0  0  0  0  0  0
  186.1060  177.8680  139.6290 N   0  0  2  0  0  0  0  0  0  0  0  0
  184.2490  177.8990  141.2720 C   0  0  0  0  0  0  0  0  0  0  0  0
  189.8420  176.6930  143.1390 C   0  0  2  0  0  3  0  0  0  0  0  0
  188.2450  177.1900  141.1490 C   0  0  2  0  0  3  0  0  0  0  0  0
  186.4330  178.2220  147.2080 N   0  0  0  0  0  0  0  0  0  0  0  0
  185.2710  177.9130  138.4330 C   0  0  0  0  0  2  0  0  0  0  0  0
  187.5400  178.3790  137.7770 C   0  0  0  0  0  2  0  0  0  0  0  0
  188.4640  177.3940  146.4570 O   0  0  0  0  0  0  0  0  0  0  0  0
  185.2400  178.8590  143.0900 C   0  0  2  0  0  3  0  0  0  0  0  0
  185.2300  178.6420  146.9680 C   0  0  0  0  0  3  0  0  0  0  0  0
  186.9120  177.9930  144.7430 C   0  0  0  0  0  0  0  0  0  0  0  0
  186.3030  178.7860  141.9780 C   0  0  2  0  0  3  0  0  0  0  0  0
  183.3740  177.2930  140.5990 O   0  0  0  0  0  0  0  0  0  0  0  0
  185.4330  178.6050  140.7070 C   0  0  1  0  0  3  0  0  0  0  0  0
  186.1900  177.9840  137.2310 C   0  0  0  0  0  2  0  0  0  0  0  0
  189.1760  179.5000  140.6550 C   0  0  0  0  0  1  0  0  0  0  0  0
  184.6650  178.6950  145.5770 C   0  0  0  0  0  2  0  0  0  0  0  0
  185.6870  178.5020  144.4850 C   0  0  0  0  0  0  0  0  0  0  0  0
  188.5290  178.2530  140.0740 C   0  0  2  0  0  3  0  0  0  0  0  0
  190.8310  175.6280  143.5930 C   0  0  0  0  0  2  0  0  0  0  0  0
  191.6760  177.6680  144.7080 C   0  0  0  0  0  1  0  0  0  0  0  0
  191.6800  176.1540  144.7340 C   0  0  0  0  0  2  0  0  0  0  0  0
  1  5  1  1  0  0  0
  1 19  1  0  0  0  0
  2 16  2  0  0  0  0
  2 13  1  0  0  0  0
  3 17  1  0  0  0  0
  4  1  1  0  0  0  0
  6  8  2  0  0  0  0
  7  9  1  0  0  0  0
  7 27  1  0  0  0  0
  8 11  1  0  0  0  0
  9 22  1  0  0  0  0
 10  3  1  0  0  0  0
 11 28  1  0  0  0  0
 11  5  1  0  0  0  0
 12  8  1  0  0  0  0
 12  4  1  0  0  0  0
 14  9  1  0  0  0  0
 15  7  1  0  0  0  0
 17 26  1  0  0  0  0
 18 13  2  0  0  0  0
 19  2  1  0  0  0  0
 20  4  1  0  0  0  0
 20 17  1  0  0  0  0
 21 10  2  0  0  0  0
 22 10  1  0  0  0  0
 22 20  1  0  0  0  0
 23 15  1  0  0  0  0
 23 14  1  0  0  0  0
 25 18  1  0  0  0  0
 26 19  2  0  0  0  0
 26 25  1  0  0  0  0
 27 24  1  0  0  0  0
 27 12  1  0  0  0  0
 28 30  1  0  0  0  0
 29 30  1  0  0  0  0
M  END
>  <MODEL>
9

>  <REMARK>
 VINA RESULT:      -6.6      2.006      5.766
  Name = 
  2 active torsions:
  status: ('A' for Active; 'I' for Inactive)
    1  A    between atoms: C_11  and  C_28
    2  A    between atoms: C_28  and  C_30
                            x       y       z     vdW  Elec       q    Type
                         _______ _______ _______ _____ _____    ______ ____

>  <TORSDO>
F 2

$$$$
