=
 OpenBabel11122412013D

 28 32  0  0  1  0  0  0  0  0999 V2000
  183.0460  176.4410  139.2720 C   0  0  2  0  0  3  0  0  0  0  0  0
  185.7450  177.7070  141.6520 O   0  0  0  0  0  0  0  0  0  0  0  0
  179.4780  180.8580  140.3830 C   0  0  0  0  0  1  0  0  0  0  0  0
  184.4350  178.5820  137.8210 C   0  0  0  0  0  2  0  0  0  0  0  0
  180.3560  180.0740  142.5550 C   0  0  2  0  0  3  0  0  0  0  0  0
  181.8340  175.6930  139.6500 N   0  0  0  0  0  2  0  0  0  0  0  0
  185.9020  180.0940  142.1790 O   0  0  0  0  0  0  0  0  0  0  0  0
  185.1620  178.8210  142.4750 S   0  0  0  0  0  0  0  0  0  0  0  0
  184.2620  179.0290  145.0070 C   0  0  2  0  0  3  0  0  0  0  0  0
  183.4120  179.0620  142.0890 C   0  0  2  0  0  3  0  0  0  0  0  0
  179.0950  177.3150  137.7710 O   0  0  0  0  0  1  0  0  0  0  0  0
  181.2910  178.0170  141.6820 C   0  0  1  0  0  3  0  0  0  0  0  0
  182.9370  178.5610  144.4390 C   0  0  0  0  0  2  0  0  0  0  0  0
  185.3790  178.4150  144.1920 C   0  0  0  0  0  2  0  0  0  0  0  0
  180.1390  177.2550  138.6930 C   0  0  1  0  0  3  0  0  0  0  0  0
  183.0040  177.8950  139.7810 C   0  0  2  0  0  3  0  0  0  0  0  0
  179.6580  179.6530  141.2870 C   0  0  2  0  0  3  0  0  0  0  0  0
  184.3850  178.5640  146.4420 C   0  0  0  0  0  1  0  0  0  0  0  0
  179.6220  177.6490  140.0650 C   0  0  0  0  0  2  0  0  0  0  0  0
  184.2450  178.6770  139.3280 C   0  0  0  0  0  2  0  0  0  0  0  0
  183.3650  176.3350  137.7710 C   0  0  0  0  0  2  0  0  0  0  0  0
  184.6190  177.1250  137.4230 C   0  0  0  0  0  2  0  0  0  0  0  0
  180.7280  175.8470  138.6960 C   0  0  0  0  0  2  0  0  0  0  0  0
  181.2280  178.8990  142.9200 C   0  0  1  0  0  3  0  0  0  0  0  0
  180.5000  178.6620  140.6310 N   0  0  2  0  0  0  0  0  0  0  0  0
  182.5710  179.3560  143.2660 N   0  0  2  0  0  0  0  0  0  0  0  0
  179.4180  180.2970  143.5620 O   0  0  0  0  0  1  0  0  0  0  0  0
  182.7710  177.9190  141.3160 C   0  0  1  0  0  3  0  0  0  0  0  0
  1 21  1  6  0  0  0
  1  6  1  0  0  0  0
  1 16  1  0  0  0  0
  2  8  2  0  0  0  0
  3 17  1  0  0  0  0
  4 20  1  0  0  0  0
  5 24  1  0  0  0  0
  5 27  1  1  0  0  0
  7  8  2  0  0  0  0
  8 14  1  0  0  0  0
  9 18  1  1  0  0  0
 10  8  1  1  0  0  0
 10 26  1  0  0  0  0
 11 15  1  0  0  0  0
 12 24  1  0  0  0  0
 13  9  1  0  0  0  0
 14  9  1  0  0  0  0
 15 23  1  0  0  0  0
 15 19  1  0  0  0  0
 16 28  1  0  0  0  0
 17  5  1  0  0  0  0
 19 25  1  0  0  0  0
 20 16  1  0  0  0  0
 22 21  1  0  0  0  0
 22  4  1  0  0  0  0
 23  6  1  0  0  0  0
 24 26  1  0  0  0  0
 25 17  1  0  0  0  0
 25 12  1  0  0  0  0
 26 13  1  0  0  0  0
 28 12  1  0  0  0  0
 28 10  1  0  0  0  0
M  END
>  <MODEL>
1

>  <REMARK>
 VINA RESULT:      -5.6      0.000      0.000
  Name = 
  0 active torsions:
  status: ('A' for Active; 'I' for Inactive)
                            x       y       z     vdW  Elec       q    Type
                         _______ _______ _______ _____ _____    ______ ____

>  <TORSDO>
F 0

$$$$
=
 OpenBabel11122412013D

 28 32  0  0  1  0  0  0  0  0999 V2000
  184.6690  174.9860  136.9410 C   0  0  2  0  0  3  0  0  0  0  0  0
  185.9590  178.0630  138.7910 O   0  0  0  0  0  0  0  0  0  0  0  0
  179.1340  176.6270  137.3170 C   0  0  0  0  0  1  0  0  0  0  0  0
  184.6570  177.1570  134.9650 C   0  0  0  0  0  2  0  0  0  0  0  0
  180.1490  176.9940  139.5400 C   0  0  2  0  0  3  0  0  0  0  0  0
  184.0930  173.7790  137.5580 N   0  0  0  0  0  2  0  0  0  0  0  0
  184.6650  180.1430  138.7750 O   0  0  0  0  0  0  0  0  0  0  0  0
  184.7820  178.7790  139.3920 S   0  0  0  0  0  0  0  0  0  0  0  0
  183.7540  178.9710  141.8760 C   0  0  2  0  0  3  0  0  0  0  0  0
  183.2490  177.8690  139.0880 C   0  0  2  0  0  3  0  0  0  0  0  0
  181.0610  173.0560  135.5710 O   0  0  0  0  0  1  0  0  0  0  0  0
  182.1620  175.7310  139.0700 C   0  0  1  0  0  3  0  0  0  0  0  0
  182.9890  177.7120  141.5180 C   0  0  0  0  0  2  0  0  0  0  0  0
  185.0730  178.9590  141.1360 C   0  0  0  0  0  2  0  0  0  0  0  0
  181.8780  173.8140  136.4080 C   0  0  1  0  0  3  0  0  0  0  0  0
  183.7560  176.2150  137.1240 C   0  0  2  0  0  3  0  0  0  0  0  0
  179.9160  175.9830  138.4460 C   0  0  2  0  0  3  0  0  0  0  0  0
  184.0230  178.9900  143.3650 C   0  0  0  0  0  1  0  0  0  0  0  0
  181.1340  174.1220  137.6950 C   0  0  0  0  0  2  0  0  0  0  0  0
  184.3420  177.4490  136.4250 C   0  0  0  0  0  2  0  0  0  0  0  0
  185.0950  174.7620  135.4810 C   0  0  0  0  0  2  0  0  0  0  0  0
  185.6790  176.0330  134.8810 C   0  0  0  0  0  2  0  0  0  0  0  0
  183.1720  173.0510  136.6750 C   0  0  0  0  0  2  0  0  0  0  0  0
  181.5120  176.6560  140.0880 C   0  0  1  0  0  3  0  0  0  0  0  0
  181.2190  175.5500  137.9630 N   0  0  2  0  0  0  0  0  0  0  0  0
  182.3130  177.8680  140.2300 N   0  0  2  0  0  0  0  0  0  0  0  0
  179.1870  176.8440  140.5380 O   0  0  0  0  0  1  0  0  0  0  0  0
  183.4460  176.4320  138.6300 C   0  0  1  0  0  3  0  0  0  0  0  0
  1 21  1  6  0  0  0
  1 16  1  0  0  0  0
  1  6  1  0  0  0  0
  2  8  2  0  0  0  0
  3 17  1  0  0  0  0
  4 20  1  0  0  0  0
  5 24  1  0  0  0  0
  5 27  1  1  0  0  0
  7  8  2  0  0  0  0
  8 14  1  0  0  0  0
  9 18  1  1  0  0  0
 10  8  1  1  0  0  0
 10 26  1  0  0  0  0
 11 15  1  0  0  0  0
 12 24  1  0  0  0  0
 13  9  1  0  0  0  0
 14  9  1  0  0  0  0
 15 23  1  0  0  0  0
 15 19  1  0  0  0  0
 16 28  1  0  0  0  0
 17  5  1  0  0  0  0
 19 25  1  0  0  0  0
 20 16  1  0  0  0  0
 22  4  1  0  0  0  0
 22 21  1  0  0  0  0
 23  6  1  0  0  0  0
 24 26  1  0  0  0  0
 25 17  1  0  0  0  0
 25 12  1  0  0  0  0
 26 13  1  0  0  0  0
 28 12  1  0  0  0  0
 28 10  1  0  0  0  0
M  END
>  <MODEL>
2

>  <REMARK>
 VINA RESULT:      -5.3      2.388      3.743
  Name = 
  0 active torsions:
  status: ('A' for Active; 'I' for Inactive)
                            x       y       z     vdW  Elec       q    Type
                         _______ _______ _______ _____ _____    ______ ____

>  <TORSDO>
F 0

$$$$
=
 OpenBabel11122412013D

 28 32  0  0  1  0  0  0  0  0999 V2000
  187.3710  176.7700  135.9620 C   0  0  2  0  0  3  0  0  0  0  0  0
  183.5960  176.2210  136.0570 O   0  0  0  0  0  0  0  0  0  0  0  0
  187.8040  177.3250  141.7050 C   0  0  0  0  0  1  0  0  0  0  0  0
  187.0010  173.9700  136.7630 C   0  0  0  0  0  2  0  0  0  0  0  0
  185.8550  178.6680  140.9940 C   0  0  2  0  0  3  0  0  0  0  0  0
  188.0630  178.0680  136.0360 N   0  0  0  0  0  2  0  0  0  0  0  0
  182.5350  175.3060  138.0660 O   0  0  0  0  0  0  0  0  0  0  0  0
  183.1080  176.5460  137.4410 S   0  0  0  0  0  0  0  0  0  0  0  0
  181.8100  178.6330  138.5460 C   0  0  2  0  0  3  0  0  0  0  0  0
  184.4610  177.1480  138.4790 C   0  0  2  0  0  3  0  0  0  0  0  0
  190.7990  177.5480  138.4650 O   0  0  0  0  0  1  0  0  0  0  0  0
  186.3810  178.5790  138.6320 C   0  0  1  0  0  3  0  0  0  0  0  0
  183.1910  179.2260  138.7380 C   0  0  0  0  0  2  0  0  0  0  0  0
  181.8250  177.7680  137.3050 C   0  0  0  0  0  2  0  0  0  0  0  0
  189.4720  177.6080  138.0440 C   0  0  1  0  0  3  0  0  0  0  0  0
  186.6760  176.4150  137.2920 C   0  0  2  0  0  3  0  0  0  0  0  0
  187.3260  178.4210  140.7720 C   0  0  2  0  0  3  0  0  0  0  0  0
  180.8050  179.7490  138.3580 C   0  0  0  0  0  1  0  0  0  0  0  0
  188.7190  178.6170  138.8930 C   0  0  0  0  0  2  0  0  0  0  0  0
  186.0120  175.0340  137.2190 C   0  0  0  0  0  2  0  0  0  0  0  0
  188.2740  175.6440  135.4330 C   0  0  0  0  0  2  0  0  0  0  0  0
  187.5240  174.3220  135.3780 C   0  0  0  0  0  2  0  0  0  0  0  0
  189.4310  177.9760  136.5630 C   0  0  0  0  0  2  0  0  0  0  0  0
  185.3130  179.0030  139.6280 C   0  0  1  0  0  3  0  0  0  0  0  0
  187.4960  178.0020  139.3880 N   0  0  2  0  0  0  0  0  0  0  0  0
  184.0830  178.2570  139.3770 N   0  0  2  0  0  0  0  0  0  0  0  0
  185.6800  179.7530  141.8520 O   0  0  0  0  0  1  0  0  0  0  0  0
  185.7120  177.5560  137.7150 C   0  0  1  0  0  3  0  0  0  0  0  0
  1 21  1  1  0  0  0
  1  6  1  0  0  0  0
  1 16  1  0  0  0  0
  2  8  2  0  0  0  0
  4 20  1  0  0  0  0
  5 27  1  1  0  0  0
  6 23  1  0  0  0  0
  8  7  2  0  0  0  0
  9 18  1  6  0  0  0
  9 13  1  0  0  0  0
 10  8  1  6  0  0  0
 10 26  1  0  0  0  0
 12 25  1  0  0  0  0
 12 24  1  0  0  0  0
 13 26  1  0  0  0  0
 14  8  1  0  0  0  0
 14  9  1  0  0  0  0
 15 11  1  0  0  0  0
 15 19  1  0  0  0  0
 16 28  1  0  0  0  0
 17  5  1  0  0  0  0
 17  3  1  0  0  0  0
 19 25  1  0  0  0  0
 20 16  1  0  0  0  0
 22 21  1  0  0  0  0
 22  4  1  0  0  0  0
 23 15  1  0  0  0  0
 24  5  1  0  0  0  0
 25 17  1  0  0  0  0
 26 24  1  0  0  0  0
 28 10  1  0  0  0  0
 28 12  1  0  0  0  0
M  END
>  <MODEL>
3

>  <REMARK>
 VINA RESULT:      -5.2      3.865      6.925
  Name = 
  0 active torsions:
  status: ('A' for Active; 'I' for Inactive)
                            x       y       z     vdW  Elec       q    Type
                         _______ _______ _______ _____ _____    ______ ____

>  <TORSDO>
F 0

$$$$
=
 OpenBabel11122412013D

 28 32  0  0  1  0  0  0  0  0999 V2000
  189.2470  176.9670  138.7410 C   0  0  2  0  0  3  0  0  0  0  0  0
  185.9850  175.9840  137.0220 O   0  0  0  0  0  0  0  0  0  0  0  0
  192.5550  174.6580  134.5940 C   0  0  0  0  0  1  0  0  0  0  0  0
  188.8440  178.9540  136.6170 C   0  0  0  0  0  2  0  0  0  0  0  0
  190.7750  173.0180  135.0960 C   0  0  2  0  0  3  0  0  0  0  0  0
  190.0970  176.0870  139.5610 N   0  0  0  0  0  2  0  0  0  0  0  0
  185.9180  175.6720  134.5940 O   0  0  0  0  0  0  0  0  0  0  0  0
  186.3110  175.0410  135.8980 S   0  0  0  0  0  0  0  0  0  0  0  0
  186.1130  172.3760  135.5520 C   0  0  2  0  0  3  0  0  0  0  0  0
  188.0800  174.6720  135.8570 C   0  0  2  0  0  3  0  0  0  0  0  0
  193.5390  176.7200  138.3740 O   0  0  0  0  0  1  0  0  0  0  0  0
  190.0380  174.1130  137.1260 C   0  0  1  0  0  3  0  0  0  0  0  0
  187.4870  172.3200  136.1890 C   0  0  0  0  0  2  0  0  0  0  0  0
  185.3620  173.5550  136.1280 C   0  0  0  0  0  2  0  0  0  0  0  0
  192.2110  176.3150  138.2550 C   0  0  1  0  0  3  0  0  0  0  0  0
  189.2520  176.5480  137.2570 C   0  0  2  0  0  3  0  0  0  0  0  0
  191.8750  173.8610  135.6910 C   0  0  2  0  0  3  0  0  0  0  0  0
  185.3580  171.1040  135.8730 C   0  0  0  0  0  1  0  0  0  0  0  0
  192.1650  174.8700  137.7900 C   0  0  0  0  0  2  0  0  0  0  0  0
  188.4110  177.5100  136.4060 C   0  0  0  0  0  2  0  0  0  0  0  0
  189.5590  178.4580  138.9490 C   0  0  0  0  0  2  0  0  0  0  0  0
  188.6650  179.3300  138.0800 C   0  0  0  0  0  2  0  0  0  0  0  0
  191.5060  176.4980  139.5960 C   0  0  0  0  0  2  0  0  0  0  0  0
  189.6960  173.0010  136.1470 C   0  0  1  0  0  3  0  0  0  0  0  0
  191.2620  174.7660  136.6540 N   0  0  2  0  0  0  0  0  0  0  0  0
  188.3950  173.2660  135.5390 N   0  0  2  0  0  0  0  0  0  0  0  0
  191.2390  171.7220  134.8730 O   0  0  0  0  0  1  0  0  0  0  0  0
  188.8380  175.0590  137.1190 C   0  0  1  0  0  3  0  0  0  0  0  0
  1 21  1  6  0  0  0
  1  6  1  0  0  0  0
  3 17  1  0  0  0  0
  4 22  1  0  0  0  0
  5 27  1  1  0  0  0
  5 17  1  0  0  0  0
  5 24  1  0  0  0  0
  6 23  1  0  0  0  0
  7  8  2  0  0  0  0
  8 14  1  0  0  0  0
  8  2  2  0  0  0  0
  9 18  1  1  0  0  0
  9 14  1  0  0  0  0
  9 13  1  0  0  0  0
 10  8  1  1  0  0  0
 10 28  1  0  0  0  0
 15 11  1  0  0  0  0
 15 23  1  0  0  0  0
 16  1  1  0  0  0  0
 17 25  1  0  0  0  0
 19 15  1  0  0  0  0
 20  4  1  0  0  0  0
 20 16  1  0  0  0  0
 22 21  1  0  0  0  0
 24 12  1  0  0  0  0
 25 12  1  0  0  0  0
 25 19  1  0  0  0  0
 26 10  1  0  0  0  0
 26 24  1  0  0  0  0
 26 13  1  0  0  0  0
 28 12  1  0  0  0  0
 28 16  1  0  0  0  0
M  END
>  <MODEL>
4

>  <REMARK>
 VINA RESULT:      -4.9      7.514     10.756
  Name = 
  0 active torsions:
  status: ('A' for Active; 'I' for Inactive)
                            x       y       z     vdW  Elec       q    Type
                         _______ _______ _______ _____ _____    ______ ____

>  <TORSDO>
F 0

$$$$
=
 OpenBabel11122412013D

 28 32  0  0  1  0  0  0  0  0999 V2000
  188.7030  177.7910  135.9150 C   0  0  2  0  0  3  0  0  0  0  0  0
  192.1500  176.3820  136.7430 O   0  0  0  0  0  0  0  0  0  0  0  0
  185.9360  172.9910  137.5810 C   0  0  0  0  0  1  0  0  0  0  0  0
  188.9780  178.0420  138.8270 C   0  0  0  0  0  2  0  0  0  0  0  0
  187.8700  172.2750  136.2200 C   0  0  2  0  0  3  0  0  0  0  0  0
  187.9220  177.5180  134.6960 N   0  0  0  0  0  2  0  0  0  0  0  0
  192.3900  174.6300  138.4390 O   0  0  0  0  0  0  0  0  0  0  0  0
  192.0050  174.9110  137.0150 S   0  0  0  0  0  0  0  0  0  0  0  0
  192.5440  172.6700  135.6180 C   0  0  2  0  0  3  0  0  0  0  0  0
  190.2980  174.3720  136.7560 C   0  0  2  0  0  3  0  0  0  0  0  0
  184.4990  176.8170  135.9010 O   0  0  0  0  0  1  0  0  0  0  0  0
  188.3550  174.4840  135.3530 C   0  0  1  0  0  3  0  0  0  0  0  0
  191.1530  172.8480  135.0420 C   0  0  0  0  0  2  0  0  0  0  0  0
  193.1120  174.0350  135.9350 C   0  0  0  0  0  2  0  0  0  0  0  0
  185.8710  176.6020  135.7840 C   0  0  1  0  0  3  0  0  0  0  0  0
  188.8310  176.5390  136.8060 C   0  0  2  0  0  3  0  0  0  0  0  0
  186.6450  173.1530  136.2500 C   0  0  2  0  0  3  0  0  0  0  0  0
  193.4290  171.9910  134.5950 C   0  0  0  0  0  1  0  0  0  0  0  0
  186.1190  175.2060  135.2410 C   0  0  0  0  0  2  0  0  0  0  0  0
  189.5950  176.8560  138.0990 C   0  0  0  0  0  2  0  0  0  0  0  0
  188.2010  179.0280  136.6780 C   0  0  0  0  0  2  0  0  0  0  0  0
  189.0300  179.2710  137.9310 C   0  0  0  0  0  2  0  0  0  0  0  0
  186.4730  177.6740  134.8800 C   0  0  0  0  0  2  0  0  0  0  0  0
  188.8840  173.0590  135.4280 C   0  0  1  0  0  3  0  0  0  0  0  0
  187.0890  174.5310  136.0890 N   0  0  2  0  0  0  0  0  0  0  0  0
  190.1750  173.0510  136.1110 N   0  0  2  0  0  0  0  0  0  0  0  0
  187.5810  171.0790  135.5660 O   0  0  0  0  0  1  0  0  0  0  0  0
  189.4300  175.3610  135.9920 C   0  0  1  0  0  3  0  0  0  0  0  0
  1 21  1  1  0  0  0
  1 16  1  0  0  0  0
  2  8  2  0  0  0  0
  5 27  1  6  0  0  0
  5 17  1  0  0  0  0
  6 23  1  0  0  0  0
  6  1  1  0  0  0  0
  8  7  2  0  0  0  0
  9 18  1  6  0  0  0
  9 14  1  0  0  0  0
 10  8  1  6  0  0  0
 12 24  1  0  0  0  0
 12 28  1  0  0  0  0
 12 25  1  0  0  0  0
 13  9  1  0  0  0  0
 13 26  1  0  0  0  0
 14  8  1  0  0  0  0
 15 11  1  0  0  0  0
 16 20  1  0  0  0  0
 17  3  1  0  0  0  0
 19 15  1  0  0  0  0
 19 25  1  0  0  0  0
 20  4  1  0  0  0  0
 21 22  1  0  0  0  0
 22  4  1  0  0  0  0
 23 15  1  0  0  0  0
 24 26  1  0  0  0  0
 24  5  1  0  0  0  0
 25 17  1  0  0  0  0
 26 10  1  0  0  0  0
 28 10  1  0  0  0  0
 28 16  1  0  0  0  0
M  END
>  <MODEL>
5

>  <REMARK>
 VINA RESULT:      -4.9      7.247      9.938
  Name = 
  0 active torsions:
  status: ('A' for Active; 'I' for Inactive)
                            x       y       z     vdW  Elec       q    Type
                         _______ _______ _______ _____ _____    ______ ____

>  <TORSDO>
F 0

$$$$
=
 OpenBabel11122412013D

 28 32  0  0  1  0  0  0  0  0999 V2000
  187.8230  174.8630  135.2970 C   0  0  2  0  0  3  0  0  0  0  0  0
  184.1690  173.7700  135.3840 O   0  0  0  0  0  0  0  0  0  0  0  0
  187.4480  177.7920  140.2730 C   0  0  0  0  0  1  0  0  0  0  0  0
  187.7150  172.6210  137.1890 C   0  0  0  0  0  2  0  0  0  0  0  0
  185.4500  178.3720  138.9400 C   0  0  2  0  0  3  0  0  0  0  0  0
  188.3280  176.1740  134.8540 N   0  0  0  0  0  2  0  0  0  0  0  0
  182.9860  173.5960  137.5220 O   0  0  0  0  0  0  0  0  0  0  0  0
  183.4710  174.5470  136.4660 S   0  0  0  0  0  0  0  0  0  0  0  0
  181.7870  176.6500  136.4950 C   0  0  2  0  0  3  0  0  0  0  0  0
  184.5930  175.7420  137.2290 C   0  0  2  0  0  3  0  0  0  0  0  0
  190.7780  177.1680  137.4370 O   0  0  0  0  0  1  0  0  0  0  0  0
  186.2790  177.4120  136.8770 C   0  0  1  0  0  3  0  0  0  0  0  0
  183.0450  177.4950  136.5020 C   0  0  0  0  0  2  0  0  0  0  0  0
  182.0700  175.3690  135.7440 C   0  0  0  0  0  2  0  0  0  0  0  0
  189.5180  176.8250  136.9490 C   0  0  1  0  0  3  0  0  0  0  0  0
  187.0160  174.9730  136.6060 C   0  0  2  0  0  3  0  0  0  0  0  0
  186.9560  178.3090  138.9340 C   0  0  2  0  0  3  0  0  0  0  0  0
  180.6800  177.4030  135.7880 C   0  0  0  0  0  1  0  0  0  0  0  0
  188.5410  177.9490  137.2400 C   0  0  0  0  0  2  0  0  0  0  0  0
  186.5480  173.5930  137.0870 C   0  0  0  0  0  2  0  0  0  0  0  0
  188.9230  173.7900  135.3540 C   0  0  0  0  0  2  0  0  0  0  0  0
  188.3610  172.4550  135.8210 C   0  0  0  0  0  2  0  0  0  0  0  0
  189.6190  176.5390  135.4530 C   0  0  0  0  0  2  0  0  0  0  0  0
  185.0470  178.0200  137.5300 C   0  0  1  0  0  3  0  0  0  0  0  0
  187.3530  177.3950  137.8730 N   0  0  2  0  0  0  0  0  0  0  0  0
  183.9650  177.0400  137.5450 N   0  0  2  0  0  0  0  0  0  0  0  0
  185.0300  179.6670  139.2420 O   0  0  0  0  0  1  0  0  0  0  0  0
  185.8680  176.0060  136.4430 C   0  0  1  0  0  3  0  0  0  0  0  0
  1 21  1  1  0  0  0
  1 16  1  0  0  0  0
  2  8  2  0  0  0  0
  5 27  1  6  0  0  0
  6  1  1  0  0  0  0
  6 23  1  0  0  0  0
  8  7  2  0  0  0  0
  9 18  1  6  0  0  0
  9 13  1  0  0  0  0
 10  8  1  6  0  0  0
 10 26  1  0  0  0  0
 12 24  1  0  0  0  0
 12 25  1  0  0  0  0
 13 26  1  0  0  0  0
 14  8  1  0  0  0  0
 14  9  1  0  0  0  0
 15 19  1  0  0  0  0
 15 11  1  0  0  0  0
 16 20  1  0  0  0  0
 17  5  1  0  0  0  0
 17  3  1  0  0  0  0
 19 25  1  0  0  0  0
 20  4  1  0  0  0  0
 21 22  1  0  0  0  0
 22  4  1  0  0  0  0
 23 15  1  0  0  0  0
 24 26  1  0  0  0  0
 24  5  1  0  0  0  0
 25 17  1  0  0  0  0
 28 16  1  0  0  0  0
 28 12  1  0  0  0  0
 28 10  1  0  0  0  0
M  END
>  <MODEL>
6

>  <REMARK>
 VINA RESULT:      -4.8      4.713      7.916
  Name = 
  0 active torsions:
  status: ('A' for Active; 'I' for Inactive)
                            x       y       z     vdW  Elec       q    Type
                         _______ _______ _______ _____ _____    ______ ____

>  <TORSDO>
F 0

$$$$
=
 OpenBabel11122412013D

 28 32  0  0  1  0  0  0  0  0999 V2000
  191.2250  174.1040  136.8990 C   0  0  2  0  0  3  0  0  0  0  0  0
  193.4840  175.8860  139.4050 O   0  0  0  0  0  0  0  0  0  0  0  0
  187.5700  178.5680  136.4640 C   0  0  0  0  0  1  0  0  0  0  0  0
  192.8710  175.9440  135.3090 C   0  0  0  0  0  2  0  0  0  0  0  0
  188.0480  178.2570  138.8680 C   0  0  2  0  0  3  0  0  0  0  0  0
  189.9580  173.4190  137.2050 N   0  0  0  0  0  2  0  0  0  0  0  0
  193.5740  178.3340  139.4590 O   0  0  0  0  0  0  0  0  0  0  0  0
  192.7790  177.1290  139.8740 S   0  0  0  0  0  0  0  0  0  0  0  0
  191.4550  177.8180  142.1170 C   0  0  2  0  0  3  0  0  0  0  0  0
  191.1260  177.2450  139.1500 C   0  0  2  0  0  3  0  0  0  0  0  0
  187.6070  174.5650  134.5940 O   0  0  0  0  0  1  0  0  0  0  0  0
  189.0960  176.0900  138.6020 C   0  0  1  0  0  3  0  0  0  0  0  0
  190.2440  177.2140  141.4350 C   0  0  0  0  0  2  0  0  0  0  0  0
  192.6890  177.0800  141.6480 C   0  0  0  0  0  2  0  0  0  0  0  0
  188.4730  174.7160  135.6750 C   0  0  1  0  0  3  0  0  0  0  0  0
  191.1120  175.6300  137.0900 C   0  0  2  0  0  3  0  0  0  0  0  0
  187.5760  177.5740  137.6090 C   0  0  2  0  0  3  0  0  0  0  0  0
  191.3210  177.6530  143.6160 C   0  0  0  0  0  1  0  0  0  0  0  0
  187.7300  175.3650  136.8290 C   0  0  0  0  0  2  0  0  0  0  0  0
  192.4220  176.3350  136.7100 C   0  0  0  0  0  2  0  0  0  0  0  0
  191.8000  173.7080  135.5290 C   0  0  0  0  0  2  0  0  0  0  0  0
  193.1040  174.4410  135.2500 C   0  0  0  0  0  2  0  0  0  0  0  0
  189.0360  173.3520  136.0640 C   0  0  0  0  0  2  0  0  0  0  0  0
  188.8290  177.2000  139.6070 C   0  0  1  0  0  3  0  0  0  0  0  0
  188.5070  176.4920  137.3220 N   0  0  2  0  0  0  0  0  0  0  0  0
  190.0960  177.7490  140.0800 N   0  0  2  0  0  0  0  0  0  0  0  0
  186.9510  178.6550  139.6310 O   0  0  0  0  0  1  0  0  0  0  0  0
  190.6160  175.9550  138.5250 C   0  0  1  0  0  3  0  0  0  0  0  0
  1 21  1  6  0  0  0
  1 16  1  0  0  0  0
  1  6  1  0  0  0  0
  2  8  2  0  0  0  0
  3 17  1  0  0  0  0
  4 20  1  0  0  0  0
  5 24  1  0  0  0  0
  5 27  1  1  0  0  0
  7  8  2  0  0  0  0
  8 14  1  0  0  0  0
  9 18  1  1  0  0  0
 10  8  1  1  0  0  0
 10 26  1  0  0  0  0
 11 15  1  0  0  0  0
 12 24  1  0  0  0  0
 13  9  1  0  0  0  0
 14  9  1  0  0  0  0
 15 23  1  0  0  0  0
 15 19  1  0  0  0  0
 16 28  1  0  0  0  0
 17  5  1  0  0  0  0
 19 25  1  0  0  0  0
 20 16  1  0  0  0  0
 22  4  1  0  0  0  0
 22 21  1  0  0  0  0
 23  6  1  0  0  0  0
 24 26  1  0  0  0  0
 25 17  1  0  0  0  0
 25 12  1  0  0  0  0
 26 13  1  0  0  0  0
 28 12  1  0  0  0  0
 28 10  1  0  0  0  0
M  END
>  <MODEL>
7

>  <REMARK>
 VINA RESULT:      -4.8      6.880      8.679
  Name = 
  0 active torsions:
  status: ('A' for Active; 'I' for Inactive)
                            x       y       z     vdW  Elec       q    Type
                         _______ _______ _______ _____ _____    ______ ____

>  <TORSDO>
F 0

$$$$
=
 OpenBabel11122412013D

 28 32  0  0  1  0  0  0  0  0999 V2000
  183.7970  175.9950  138.4170 C   0  0  2  0  0  3  0  0  0  0  0  0
  185.9170  177.5610  141.1760 O   0  0  0  0  0  0  0  0  0  0  0  0
  180.0540  180.4060  138.2850 C   0  0  0  0  0  1  0  0  0  0  0  0
  185.4560  178.0180  137.0850 C   0  0  0  0  0  2  0  0  0  0  0  0
  180.4490  179.8640  140.6630 C   0  0  2  0  0  3  0  0  0  0  0  0
  182.5350  175.2580  138.6030 N   0  0  0  0  0  2  0  0  0  0  0  0
  185.9460  179.9920  141.4770 O   0  0  0  0  0  0  0  0  0  0  0  0
  185.1660  178.7360  141.7380 S   0  0  0  0  0  0  0  0  0  0  0  0
  183.7430  179.1690  143.9850 C   0  0  2  0  0  3  0  0  0  0  0  0
  183.5380  178.8910  140.9650 C   0  0  2  0  0  3  0  0  0  0  0  0
  180.2570  176.6130  136.0280 O   0  0  0  0  0  1  0  0  0  0  0  0
  181.5580  177.7560  140.2240 C   0  0  1  0  0  3  0  0  0  0  0  0
  182.5720  178.6130  143.1980 C   0  0  0  0  0  2  0  0  0  0  0  0
  185.0110  178.5070  143.4930 C   0  0  0  0  0  2  0  0  0  0  0  0
  181.0780  176.6720  137.1520 C   0  0  1  0  0  3  0  0  0  0  0  0
  183.6400  177.4920  138.7550 C   0  0  2  0  0  3  0  0  0  0  0  0
  180.0410  179.3020  139.3250 C   0  0  2  0  0  3  0  0  0  0  0  0
  183.5570  178.8520  145.4530 C   0  0  0  0  0  1  0  0  0  0  0  0
  180.2770  177.1860  138.3350 C   0  0  0  0  0  2  0  0  0  0  0  0
  184.9460  178.2570  138.4990 C   0  0  0  0  0  2  0  0  0  0  0  0
  184.4310  175.7500  137.0380 C   0  0  0  0  0  2  0  0  0  0  0  0
  185.7270  176.5340  136.8860 C   0  0  0  0  0  2  0  0  0  0  0  0
  181.6590  175.2870  137.4250 C   0  0  0  0  0  2  0  0  0  0  0  0
  181.2270  178.7550  141.3230 C   0  0  1  0  0  3  0  0  0  0  0  0
  181.0090  178.2730  138.9680 N   0  0  2  0  0  0  0  0  0  0  0  0
  182.4630  179.2780  141.8990 N   0  0  2  0  0  0  0  0  0  0  0  0
  179.3150  180.1610  141.4190 O   0  0  0  0  0  1  0  0  0  0  0  0
  183.0830  177.6600  140.1940 C   0  0  1  0  0  3  0  0  0  0  0  0
  1 21  1  6  0  0  0
  1  6  1  0  0  0  0
  1 16  1  0  0  0  0
  2  8  2  0  0  0  0
  3 17  1  0  0  0  0
  4 20  1  0  0  0  0
  5 24  1  0  0  0  0
  5 27  1  1  0  0  0
  7  8  2  0  0  0  0
  8 14  1  0  0  0  0
  9 18  1  1  0  0  0
 10  8  1  1  0  0  0
 10 26  1  0  0  0  0
 11 15  1  0  0  0  0
 12 24  1  0  0  0  0
 13  9  1  0  0  0  0
 14  9  1  0  0  0  0
 15 23  1  0  0  0  0
 15 19  1  0  0  0  0
 16 28  1  0  0  0  0
 17  5  1  0  0  0  0
 19 25  1  0  0  0  0
 20 16  1  0  0  0  0
 22 21  1  0  0  0  0
 22  4  1  0  0  0  0
 23  6  1  0  0  0  0
 24 26  1  0  0  0  0
 25 17  1  0  0  0  0
 25 12  1  0  0  0  0
 26 13  1  0  0  0  0
 28 12  1  0  0  0  0
 28 10  1  0  0  0  0
M  END
>  <MODEL>
8

>  <REMARK>
 VINA RESULT:      -4.7      1.345      1.507
  Name = 
  0 active torsions:
  status: ('A' for Active; 'I' for Inactive)
                            x       y       z     vdW  Elec       q    Type
                         _______ _______ _______ _____ _____    ______ ____

>  <TORSDO>
F 0

$$$$
=
 OpenBabel11122412013D

 28 32  0  0  1  0  0  0  0  0999 V2000
  182.6070  177.9250  137.0860 C   0  0  2  0  0  3  0  0  0  0  0  0
  186.1990  179.0180  137.7620 O   0  0  0  0  0  0  0  0  0  0  0  0
  183.9220  172.2910  137.1480 C   0  0  0  0  0  1  0  0  0  0  0  0
  183.0190  177.5400  139.9680 C   0  0  0  0  0  2  0  0  0  0  0  0
  185.6550  173.4230  135.7980 C   0  0  2  0  0  3  0  0  0  0  0  0
  182.0500  177.5250  135.7830 N   0  0  0  0  0  2  0  0  0  0  0  0
  187.7460  177.5160  138.9240 O   0  0  0  0  0  0  0  0  0  0  0  0
  187.0930  177.8200  137.6060 S   0  0  0  0  0  0  0  0  0  0  0  0
  188.7880  176.9630  135.6940 C   0  0  2  0  0  3  0  0  0  0  0  0
  186.1470  176.3730  137.0780 C   0  0  2  0  0  3  0  0  0  0  0  0
  180.1250  174.4480  136.4780 O   0  0  0  0  0  1  0  0  0  0  0  0
  184.4510  175.5170  135.6120 C   0  0  1  0  0  3  0  0  0  0  0  0
  187.5650  176.3100  135.0820 C   0  0  0  0  0  2  0  0  0  0  0  0
  188.3530  178.2180  136.4170 C   0  0  0  0  0  2  0  0  0  0  0  0
  181.2690  175.2400  136.4140 C   0  0  1  0  0  3  0  0  0  0  0  0
  183.6390  176.9040  137.6060 C   0  0  2  0  0  3  0  0  0  0  0  0
  184.1710  173.2170  135.9720 C   0  0  2  0  0  3  0  0  0  0  0  0
  189.7600  177.3370  134.5960 C   0  0  0  0  0  1  0  0  0  0  0  0
  182.3010  174.5640  135.5290 C   0  0  0  0  0  2  0  0  0  0  0  0
  184.1640  177.3040  138.9920 C   0  0  0  0  0  2  0  0  0  0  0  0
  181.5180  178.2630  138.1190 C   0  0  0  0  0  2  0  0  0  0  0  0
  182.1350  178.6650  139.4510 C   0  0  0  0  0  2  0  0  0  0  0  0
  180.8960  176.6230  135.8880 C   0  0  0  0  0  2  0  0  0  0  0  0
  185.7900  174.8500  135.3330 C   0  0  1  0  0  3  0  0  0  0  0  0
  183.5740  174.5190  136.2320 N   0  0  2  0  0  0  0  0  0  0  0  0
  186.8410  175.5280  136.0860 N   0  0  2  0  0  0  0  0  0  0  0  0
  186.1420  172.5580  134.8190 O   0  0  0  0  0  1  0  0  0  0  0  0
  184.7540  176.6840  136.5490 C   0  0  1  0  0  3  0  0  0  0  0  0
  1 16  1  0  0  0  0
  1 21  1  1  0  0  0
  5 27  1  6  0  0  0
  5 17  1  0  0  0  0
  6 23  1  0  0  0  0
  6  1  1  0  0  0  0
  8  2  2  0  0  0  0
  8  7  2  0  0  0  0
  9 18  1  6  0  0  0
  9 14  1  0  0  0  0
 10  8  1  6  0  0  0
 12 25  1  0  0  0  0
 12 28  1  0  0  0  0
 13  9  1  0  0  0  0
 13 26  1  0  0  0  0
 14  8  1  0  0  0  0
 15 11  1  0  0  0  0
 16 20  1  0  0  0  0
 17 25  1  0  0  0  0
 17  3  1  0  0  0  0
 19 25  1  0  0  0  0
 19 15  1  0  0  0  0
 20  4  1  0  0  0  0
 21 22  1  0  0  0  0
 22  4  1  0  0  0  0
 23 15  1  0  0  0  0
 24 12  1  0  0  0  0
 24  5  1  0  0  0  0
 24 26  1  0  0  0  0
 26 10  1  0  0  0  0
 28 10  1  0  0  0  0
 28 16  1  0  0  0  0
M  END
>  <MODEL>
9

>  <REMARK>
 VINA RESULT:      -4.7      4.080      7.318
  Name = 
  0 active torsions:
  status: ('A' for Active; 'I' for Inactive)
                            x       y       z     vdW  Elec       q    Type
                         _______ _______ _______ _____ _____    ______ ____

>  <TORSDO>
F 0

$$$$
