=
 OpenBabel11122411253D

 37 43  0  0  1  0  0  0  0  0999 V2000
  184.3560  175.0440  137.3730 C   0  0  0  0  0  2  0  0  0  0  0  0
  188.8120  177.5200  136.8930 C   0  0  1  0  0  0  0  0  0  0  0  0
  185.4540  177.9550  139.4530 N   0  0  1  0  0  0  0  0  0  0  0  0
  184.1790  173.7260  136.6150 C   0  0  2  0  0  3  0  0  0  0  0  0
  181.9960  177.4280  138.1830 O   0  0  0  0  0  0  0  0  0  0  0  0
  187.9420  178.2000  139.2000 C   0  0  1  0  0  3  0  0  0  0  0  0
  184.3150  178.0460  138.5260 C   0  0  2  0  0  3  0  0  0  0  0  0
  181.7180  174.3300  136.0430 C   0  0  2  0  0  3  0  0  0  0  0  0
  186.5510  178.2510  138.5600 C   0  0  1  0  0  3  0  0  0  0  0  0
  183.0780  177.2850  139.0610 C   0  0  1  0  0  3  0  0  0  0  0  0
  187.8430  177.8870  140.6950 C   0  0  0  0  0  2  0  0  0  0  0  0
  183.0500  173.7260  135.5710 C   0  0  0  0  0  2  0  0  0  0  0  0
  186.3480  177.3330  137.4180 C   0  0  2  0  0  3  0  0  0  0  0  0
  189.4830  176.3570  136.1930 C   0  0  0  0  0  1  0  0  0  0  0  0
  184.2660  179.0110  141.3680 C   0  0  0  0  0  2  0  0  0  0  0  0
  186.7650  178.7640  141.3740 C   0  0  0  0  0  2  0  0  0  0  0  0
  187.3680  177.6560  136.3380 C   0  0  0  0  0  2  0  0  0  0  0  0
  181.7560  175.8370  136.3940 C   0  0  1  0  0  3  0  0  0  0  0  0
  181.5940  176.1230  137.8900 C   0  0  0  0  0  2  0  0  0  0  0  0
  185.5120  178.9850  140.4940 C   0  0  1  0  0  3  0  0  0  0  0  0
  184.8780  177.5600  137.1330 C   0  0  1  0  0  3  0  0  0  0  0  0
  188.8880  177.2720  138.4250 C   0  0  0  0  0  2  0  0  0  0  0  0
  182.6310  177.6850  140.4880 C   0  0  1  0  0  3  0  0  0  0  0  0
  189.5150  178.6860  136.5890 O   0  0  0  0  0  1  0  0  0  0  0  0
  182.9620  176.5690  135.7770 C   0  0  0  0  0  2  0  0  0  0  0  0
  181.1400  173.5530  137.0520 O   0  0  0  0  0  1  0  0  0  0  0  0
  184.3050  176.2930  136.4750 C   0  0  2  0  0  3  0  0  0  0  0  0
  183.6660  177.7440  141.4490 O   0  0  0  0  0  0  0  0  0  0  0  0
  180.7080  178.7330  141.7190 C   0  0  0  0  0  3  0  0  0  0  0  0
  181.5630  178.7480  140.6110 C   0  0  0  0  0  0  0  0  0  0  0  0
  181.4300  179.7590  139.6480 C   0  0  0  0  0  3  0  0  0  0  0  0
  180.2820  181.9950  138.5810 Cl  0  0  0  0  0  0  0  0  0  0  0  0
  179.5910  180.7170  140.8950 C   0  0  0  0  0  3  0  0  0  0  0  0
  180.4450  180.7400  139.7880 C   0  0  0  0  0  0  0  0  0  0  0  0
  179.7230  179.7150  141.8610 C   0  0  0  0  0  3  0  0  0  0  0  0
  183.9760  171.5260  136.7450 C   0  0  0  0  0  1  0  0  0  0  0  0
  183.9890  172.6830  137.5240 O   0  0  0  0  0  0  0  0  0  0  0  0
  2 14  1  6  0  0  0
  2 22  1  0  0  0  0
  3 20  1  0  0  0  0
  4  1  1  0  0  0  0
  4 37  1  0  0  0  0
  5 10  1  0  0  0  0
  6 11  1  0  0  0  0
  7 10  1  0  0  0  0
  7  3  1  0  0  0  0
  8 18  1  0  0  0  0
  8 26  1  0  0  0  0
  9  6  1  0  0  0  0
  9  3  1  0  0  0  0
 10 23  1  0  0  0  0
 11 16  1  0  0  0  0
 12  8  1  0  0  0  0
 12  4  1  0  0  0  0
 13  9  1  0  0  0  0
 15 28  1  0  0  0  0
 17  2  1  0  0  0  0
 17 13  1  0  0  0  0
 18 19  1  0  0  0  0
 19  5  1  0  0  0  0
 20 15  1  0  0  0  0
 20 16  1  0  0  0  0
 21 13  1  0  0  0  0
 21  7  1  0  0  0  0
 22  6  1  0  0  0  0
 23 30  1  0  0  0  0
 23 28  1  0  0  0  0
 24  2  1  0  0  0  0
 25 18  1  0  0  0  0
 25 27  1  0  0  0  0
 27 21  1  0  0  0  0
 27  1  1  0  0  0  0
 29 35  1  0  0  0  0
 30 29  2  0  0  0  0
 31 34  2  0  0  0  0
 31 30  1  0  0  0  0
 32 34  1  0  0  0  0
 33 35  2  0  0  0  0
 34 33  1  0  0  0  0
 36 37  1  0  0  0  0
M  END
>  <MODEL>
1

>  <REMARK>
 VINA RESULT:      -6.7      0.000      0.000
  Name = 
  2 active torsions:
  status: ('A' for Active; 'I' for Inactive)
    1  A    between atoms: C_4  and  O_37
    2  A    between atoms: C_23  and  C_30
                            x       y       z     vdW  Elec       q    Type
                         _______ _______ _______ _____ _____    ______ ____

>  <TORSDO>
F 2

$$$$
=
 OpenBabel11122411253D

 37 43  0  0  1  0  0  0  0  0999 V2000
  180.7520  180.5390  139.2290 C   0  0  0  0  0  2  0  0  0  0  0  0
  180.1020  178.5450  143.9000 C   0  0  1  0  0  0  0  0  0  0  0  0
  183.3550  178.6850  141.1760 N   0  0  1  0  0  0  0  0  0  0  0  0
  179.6700  181.4780  138.6890 C   0  0  2  0  0  3  0  0  0  0  0  0
  182.8000  178.3560  137.5110 O   0  0  0  0  0  0  0  0  0  0  0  0
  182.6390  178.6340  143.5850 C   0  0  1  0  0  3  0  0  0  0  0  0
  182.7900  178.1510  139.9270 C   0  0  2  0  0  3  0  0  0  0  0  0
  179.8970  180.4510  136.3130 C   0  0  2  0  0  3  0  0  0  0  0  0
  182.3820  178.2120  142.1340 C   0  0  1  0  0  3  0  0  0  0  0  0
  183.3170  178.9150  138.6880 C   0  0  1  0  0  3  0  0  0  0  0  0
  183.9340  179.4420  143.6960 C   0  0  0  0  0  2  0  0  0  0  0  0
  178.9670  180.9880  137.4130 C   0  0  0  0  0  2  0  0  0  0  0  0
  181.0810  178.6400  141.5740 C   0  0  2  0  0  3  0  0  0  0  0  0
  178.9310  179.4510  144.2190 C   0  0  0  0  0  1  0  0  0  0  0  0
  185.7240  178.2520  140.5520 C   0  0  0  0  0  2  0  0  0  0  0  0
  185.0850  178.7520  142.9280 C   0  0  0  0  0  2  0  0  0  0  0  0
  179.9630  178.0680  142.4280 C   0  0  0  0  0  2  0  0  0  0  0  0
  180.6970  179.1780  136.6810 C   0  0  1  0  0  3  0  0  0  0  0  0
  182.2010  179.4230  136.8380 C   0  0  0  0  0  2  0  0  0  0  0  0
  184.6320  178.1020  141.5990 C   0  0  1  0  0  3  0  0  0  0  0  0
  181.2260  178.1720  140.1410 C   0  0  1  0  0  3  0  0  0  0  0  0
  181.4120  179.3250  144.1980 C   0  0  0  0  0  2  0  0  0  0  0  0
  184.8580  178.9990  138.5770 C   0  0  1  0  0  3  0  0  0  0  0  0
  180.0400  177.4300  144.7350 O   0  0  0  0  0  1  0  0  0  0  0  0
  180.0940  178.4090  137.8700 C   0  0  0  0  0  2  0  0  0  0  0  0
  180.7030  181.4670  135.7930 O   0  0  0  0  0  1  0  0  0  0  0  0
  180.3420  179.0560  139.2440 C   0  0  2  0  0  3  0  0  0  0  0  0
  185.5250  179.3950  139.7590 O   0  0  0  0  0  0  0  0  0  0  0  0
  186.7970  178.2320  137.1760 C   0  0  0  0  0  3  0  0  0  0  0  0
  185.5560  177.9400  137.7540 C   0  0  0  0  0  0  0  0  0  0  0  0
  184.9930  176.6670  137.5810 C   0  0  0  0  0  3  0  0  0  0  0  0
  184.9530  174.1140  136.6130 Cl  0  0  0  0  0  0  0  0  0  0  0  0
  186.8990  175.9970  136.2490 C   0  0  0  0  0  3  0  0  0  0  0  0
  185.6630  175.6990  136.8280 C   0  0  0  0  0  0  0  0  0  0  0  0
  187.4670  177.2630  136.4230 C   0  0  0  0  0  3  0  0  0  0  0  0
  179.1080  183.5880  138.3330 C   0  0  0  0  0  1  0  0  0  0  0  0
  180.2120  182.7470  138.4800 O   0  0  0  0  0  0  0  0  0  0  0  0
  1 27  1  0  0  0  0
  2 22  1  0  0  0  0
  2 14  1  1  0  0  0
  2 24  1  0  0  0  0
  3 20  1  0  0  0  0
  3  9  1  0  0  0  0
  4  1  1  0  0  0  0
  5 10  1  0  0  0  0
  6 11  1  0  0  0  0
  6 22  1  0  0  0  0
  7 21  1  0  0  0  0
  7  3  1  0  0  0  0
  8 18  1  0  0  0  0
  8 12  1  0  0  0  0
  9  6  1  0  0  0  0
 10  7  1  0  0  0  0
 12  4  1  0  0  0  0
 13  9  1  0  0  0  0
 13 17  1  0  0  0  0
 15 20  1  0  0  0  0
 16 11  1  0  0  0  0
 17  2  1  0  0  0  0
 18 19  1  0  0  0  0
 18 25  1  0  0  0  0
 19  5  1  0  0  0  0
 20 16  1  0  0  0  0
 21 13  1  0  0  0  0
 23 10  1  0  0  0  0
 23 28  1  0  0  0  0
 25 27  1  0  0  0  0
 26  8  1  0  0  0  0
 27 21  1  0  0  0  0
 28 15  1  0  0  0  0
 29 30  1  0  0  0  0
 30 23  1  0  0  0  0
 31 30  2  0  0  0  0
 32 34  1  0  0  0  0
 33 35  1  0  0  0  0
 33 34  2  0  0  0  0
 34 31  1  0  0  0  0
 35 29  2  0  0  0  0
 36 37  1  0  0  0  0
 37  4  1  0  0  0  0
M  END
>  <MODEL>
2

>  <REMARK>
 VINA RESULT:      -6.3      2.959      7.346
  Name = 
  2 active torsions:
  status: ('A' for Active; 'I' for Inactive)
    1  A    between atoms: C_4  and  O_37
    2  A    between atoms: C_23  and  C_30
                            x       y       z     vdW  Elec       q    Type
                         _______ _______ _______ _____ _____    ______ ____

>  <TORSDO>
F 2

$$$$
=
 OpenBabel11122411253D

 37 43  0  0  1  0  0  0  0  0999 V2000
  187.8570  176.2600  138.2320 C   0  0  0  0  0  2  0  0  0  0  0  0
  190.1290  177.9600  142.4940 C   0  0  1  0  0  0  0  0  0  0  0  0
  186.1380  178.0270  141.0490 N   0  0  1  0  0  0  0  0  0  0  0  0
  188.6580  175.3410  137.3060 C   0  0  2  0  0  3  0  0  0  0  0  0
  185.4180  178.5690  137.4380 O   0  0  0  0  0  0  0  0  0  0  0  0
  187.6360  177.9240  143.0640 C   0  0  1  0  0  3  0  0  0  0  0  0
  186.2590  178.6280  139.7100 C   0  0  2  0  0  3  0  0  0  0  0  0
  187.6670  176.5120  135.2090 C   0  0  2  0  0  3  0  0  0  0  0  0
  187.3950  178.4290  141.6380 C   0  0  1  0  0  3  0  0  0  0  0  0
  185.3160  177.9480  138.6890 C   0  0  1  0  0  3  0  0  0  0  0  0
  186.4300  177.1280  143.5710 C   0  0  0  0  0  2  0  0  0  0  0  0
  188.8980  175.8980  135.8930 C   0  0  0  0  0  2  0  0  0  0  0  0
  188.4110  178.0180  140.6440 C   0  0  2  0  0  3  0  0  0  0  0  0
  191.3080  177.0220  142.3450 C   0  0  0  0  0  1  0  0  0  0  0  0
  183.7140  178.5280  141.2980 C   0  0  0  0  0  2  0  0  0  0  0  0
  185.1100  177.8780  143.2810 C   0  0  0  0  0  2  0  0  0  0  0  0
  189.7730  178.5230  141.0910 C   0  0  0  0  0  2  0  0  0  0  0  0
  187.0820  177.7710  135.8950 C   0  0  1  0  0  3  0  0  0  0  0  0
  185.7160  177.5370  136.5450 C   0  0  0  0  0  2  0  0  0  0  0  0
  185.1030  178.6010  141.9130 C   0  0  1  0  0  3  0  0  0  0  0  0
  187.8010  178.5740  139.3730 C   0  0  1  0  0  3  0  0  0  0  0  0
  188.9750  177.1810  143.1830 C   0  0  0  0  0  2  0  0  0  0  0  0
  183.8280  177.8900  139.1100 C   0  0  1  0  0  3  0  0  0  0  0  0
  190.5090  179.0230  143.3150 O   0  0  0  0  0  1  0  0  0  0  0  0
  188.0810  178.4590  136.8430 C   0  0  0  0  0  2  0  0  0  0  0  0
  186.6980  175.5400  134.9450 O   0  0  0  0  0  1  0  0  0  0  0  0
  188.2960  177.7340  138.1830 C   0  0  2  0  0  3  0  0  0  0  0  0
  183.5920  177.4330  140.4270 O   0  0  0  0  0  0  0  0  0  0  0  0
  183.1480  180.3080  139.0940 C   0  0  0  0  0  3  0  0  0  0  0  0
  182.9260  179.0060  138.6330 C   0  0  0  0  0  0  0  0  0  0  0  0
  181.8890  178.7610  137.7210 C   0  0  0  0  0  3  0  0  0  0  0  0
  179.7800  179.4960  136.1490 Cl  0  0  0  0  0  0  0  0  0  0  0  0
  181.2980  181.1070  137.7500 C   0  0  0  0  0  3  0  0  0  0  0  0
  181.0760  179.8090  137.2830 C   0  0  0  0  0  0  0  0  0  0  0  0
  182.3350  181.3580  138.6540 C   0  0  0  0  0  3  0  0  0  0  0  0
  189.0400  173.2170  136.8190 C   0  0  0  0  0  1  0  0  0  0  0  0
  188.0350  174.0940  137.2300 O   0  0  0  0  0  0  0  0  0  0  0  0
  2 14  1  6  0  0  0
  2 22  1  0  0  0  0
  2 24  1  0  0  0  0
  3  9  1  0  0  0  0
  3 20  1  0  0  0  0
  4  1  1  0  0  0  0
  5 10  1  0  0  0  0
  6 22  1  0  0  0  0
  6 11  1  0  0  0  0
  7  3  1  0  0  0  0
  8 12  1  0  0  0  0
  8 18  1  0  0  0  0
  9  6  1  0  0  0  0
 10 23  1  0  0  0  0
 10  7  1  0  0  0  0
 12  4  1  0  0  0  0
 13 17  1  0  0  0  0
 13  9  1  0  0  0  0
 15 20  1  0  0  0  0
 16 11  1  0  0  0  0
 17  2  1  0  0  0  0
 18 19  1  0  0  0  0
 18 25  1  0  0  0  0
 19  5  1  0  0  0  0
 20 16  1  0  0  0  0
 21  7  1  0  0  0  0
 21 13  1  0  0  0  0
 23 28  1  0  0  0  0
 25 27  1  0  0  0  0
 26  8  1  0  0  0  0
 27  1  1  0  0  0  0
 27 21  1  0  0  0  0
 28 15  1  0  0  0  0
 30 29  2  0  0  0  0
 30 23  1  0  0  0  0
 31 30  1  0  0  0  0
 32 34  1  0  0  0  0
 33 35  2  0  0  0  0
 34 31  2  0  0  0  0
 34 33  1  0  0  0  0
 35 29  1  0  0  0  0
 36 37  1  0  0  0  0
 37  4  1  0  0  0  0
M  END
>  <MODEL>
3

>  <REMARK>
 VINA RESULT:      -6.1      2.796      4.251
  Name = 
  2 active torsions:
  status: ('A' for Active; 'I' for Inactive)
    1  A    between atoms: C_4  and  O_37
    2  A    between atoms: C_23  and  C_30
                            x       y       z     vdW  Elec       q    Type
                         _______ _______ _______ _____ _____    ______ ____

>  <TORSDO>
F 2

$$$$
=
 OpenBabel11122411253D

 37 43  0  0  1  0  0  0  0  0999 V2000
  185.1050  175.4440  137.0430 C   0  0  0  0  0  2  0  0  0  0  0  0
  189.6850  177.3710  138.2770 C   0  0  1  0  0  0  0  0  0  0  0  0
  185.7300  178.0350  139.6700 N   0  0  1  0  0  0  0  0  0  0  0  0
  185.0620  174.2170  136.1280 C   0  0  2  0  0  3  0  0  0  0  0  0
  182.8470  178.0390  137.3170 O   0  0  0  0  0  0  0  0  0  0  0  0
  188.1760  177.9850  140.2490 C   0  0  1  0  0  3  0  0  0  0  0  0
  184.9720  178.3360  138.4440 C   0  0  2  0  0  3  0  0  0  0  0  0
  182.9930  175.1640  134.8740 C   0  0  2  0  0  3  0  0  0  0  0  0
  187.0820  178.2560  139.2100 C   0  0  1  0  0  3  0  0  0  0  0  0
  183.5620  177.6990  138.4730 C   0  0  1  0  0  3  0  0  0  0  0  0
  187.5620  177.5790  141.5910 C   0  0  0  0  0  2  0  0  0  0  0  0
  184.3430  174.4350  134.7870 C   0  0  0  0  0  2  0  0  0  0  0  0
  187.1800  177.4560  137.9690 C   0  0  2  0  0  3  0  0  0  0  0  0
  190.4350  176.1880  137.7040 C   0  0  0  0  0  1  0  0  0  0  0  0
  184.0860  179.0890  141.2110 C   0  0  0  0  0  2  0  0  0  0  0  0
  186.4090  178.5310  141.9840 C   0  0  0  0  0  2  0  0  0  0  0  0
  188.5230  177.7270  137.3110 C   0  0  0  0  0  2  0  0  0  0  0  0
  183.0570  176.6260  135.3820 C   0  0  1  0  0  3  0  0  0  0  0  0
  182.4420  176.8200  136.7710 C   0  0  0  0  0  2  0  0  0  0  0  0
  185.5400  178.9710  140.7820 C   0  0  1  0  0  3  0  0  0  0  0  0
  185.9130  177.8850  137.2580 C   0  0  1  0  0  3  0  0  0  0  0  0
  189.2300  177.0040  139.7170 C   0  0  0  0  0  2  0  0  0  0  0  0
  182.7120  178.0460  139.7180 C   0  0  1  0  0  3  0  0  0  0  0  0
  190.5560  178.4590  138.3430 O   0  0  0  0  0  1  0  0  0  0  0  0
  184.4620  177.2440  135.2640 C   0  0  0  0  0  2  0  0  0  0  0  0
  182.0470  174.3950  135.5560 O   0  0  0  0  0  1  0  0  0  0  0  0
  185.4690  176.7520  136.3180 C   0  0  2  0  0  3  0  0  0  0  0  0
  183.3750  177.9040  140.9580 O   0  0  0  0  0  0  0  0  0  0  0  0
  180.5930  179.2270  140.3710 C   0  0  0  0  0  3  0  0  0  0  0  0
  181.7680  179.2230  139.6110 C   0  0  0  0  0  0  0  0  0  0  0  0
  182.0620  180.3160  138.7840 C   0  0  0  0  0  3  0  0  0  0  0  0
  181.5530  182.7580  137.6730 Cl  0  0  0  0  0  0  0  0  0  0  0  0
  180.0080  181.3970  139.4680 C   0  0  0  0  0  3  0  0  0  0  0  0
  181.1830  181.4000  138.7110 C   0  0  0  0  0  0  0  0  0  0  0  0
  179.7130  180.3120  140.2990 C   0  0  0  0  0  3  0  0  0  0  0  0
  185.2560  173.0010  137.9660 C   0  0  0  0  0  1  0  0  0  0  0  0
  184.4870  173.1430  136.8110 O   0  0  0  0  0  0  0  0  0  0  0  0
  2 14  1  6  0  0  0
  2 24  1  0  0  0  0
  2 22  1  0  0  0  0
  3 20  1  0  0  0  0
  4 37  1  0  0  0  0
  4  1  1  0  0  0  0
  5 10  1  0  0  0  0
  6 11  1  0  0  0  0
  7 10  1  0  0  0  0
  7  3  1  0  0  0  0
  8 18  1  0  0  0  0
  8 26  1  0  0  0  0
  9  3  1  0  0  0  0
  9  6  1  0  0  0  0
 10 23  1  0  0  0  0
 11 16  1  0  0  0  0
 12  8  1  0  0  0  0
 12  4  1  0  0  0  0
 13  9  1  0  0  0  0
 17 13  1  0  0  0  0
 17  2  1  0  0  0  0
 18 19  1  0  0  0  0
 19  5  1  0  0  0  0
 20 15  1  0  0  0  0
 20 16  1  0  0  0  0
 21 13  1  0  0  0  0
 21  7  1  0  0  0  0
 22  6  1  0  0  0  0
 23 28  1  0  0  0  0
 25 18  1  0  0  0  0
 25 27  1  0  0  0  0
 27  1  1  0  0  0  0
 27 21  1  0  0  0  0
 28 15  1  0  0  0  0
 30 23  1  0  0  0  0
 30 29  2  0  0  0  0
 31 30  1  0  0  0  0
 32 34  1  0  0  0  0
 33 35  2  0  0  0  0
 34 31  2  0  0  0  0
 34 33  1  0  0  0  0
 35 29  1  0  0  0  0
 37 36  1  0  0  0  0
M  END
>  <MODEL>
4

>  <REMARK>
 VINA RESULT:      -5.9      1.210      1.364
  Name = 
  2 active torsions:
  status: ('A' for Active; 'I' for Inactive)
    1  A    between atoms: C_4  and  O_37
    2  A    between atoms: C_23  and  C_30
                            x       y       z     vdW  Elec       q    Type
                         _______ _______ _______ _____ _____    ______ ____

>  <TORSDO>
F 2

$$$$
=
 OpenBabel11122411253D

 37 43  0  0  1  0  0  0  0  0999 V2000
  186.7340  175.8920  137.9480 C   0  0  0  0  0  2  0  0  0  0  0  0
  189.4600  177.8870  141.7970 C   0  0  1  0  0  0  0  0  0  0  0  0
  185.3830  178.1190  140.6360 N   0  0  1  0  0  0  0  0  0  0  0  0
  187.3880  174.8060  137.0900 C   0  0  2  0  0  3  0  0  0  0  0  0
  184.4210  178.2880  137.0450 O   0  0  0  0  0  0  0  0  0  0  0  0
  187.0240  178.1290  142.5400 C   0  0  1  0  0  3  0  0  0  0  0  0
  185.4430  178.5450  139.2280 C   0  0  2  0  0  3  0  0  0  0  0  0
  186.3240  175.8000  134.9380 C   0  0  2  0  0  3  0  0  0  0  0  0
  186.7100  178.4800  141.0820 C   0  0  1  0  0  3  0  0  0  0  0  0
  184.3730  177.8300  138.3680 C   0  0  1  0  0  3  0  0  0  0  0  0
  185.8060  177.5030  143.2240 C   0  0  0  0  0  2  0  0  0  0  0  0
  187.5560  175.1690  135.6060 C   0  0  0  0  0  2  0  0  0  0  0  0
  187.6090  177.8700  140.0780 C   0  0  2  0  0  3  0  0  0  0  0  0
  190.5490  176.8410  141.6840 C   0  0  0  0  0  1  0  0  0  0  0  0
  183.0310  178.8490  140.9890 C   0  0  0  0  0  2  0  0  0  0  0  0
  184.5270  178.3220  142.9360 C   0  0  0  0  0  2  0  0  0  0  0  0
  189.0370  178.3070  140.3630 C   0  0  0  0  0  2  0  0  0  0  0  0
  185.8930  177.1760  135.5010 C   0  0  1  0  0  3  0  0  0  0  0  0
  184.5690  177.1370  136.2690 C   0  0  0  0  0  2  0  0  0  0  0  0
  184.4660  178.8760  141.4920 C   0  0  1  0  0  3  0  0  0  0  0  0
  186.9440  178.3210  138.7940 C   0  0  1  0  0  3  0  0  0  0  0  0
  188.3080  177.2950  142.6560 C   0  0  0  0  0  2  0  0  0  0  0  0
  182.9230  177.9490  138.8950 C   0  0  1  0  0  3  0  0  0  0  0  0
  189.9830  179.0030  142.4500 O   0  0  0  0  0  1  0  0  0  0  0  0
  187.0130  177.8850  136.2850 C   0  0  0  0  0  2  0  0  0  0  0  0
  185.2670  174.8880  134.8650 O   0  0  0  0  0  1  0  0  0  0  0  0
  187.2780  177.3080  137.6860 C   0  0  2  0  0  3  0  0  0  0  0  0
  182.7580  177.6720  140.2720 O   0  0  0  0  0  0  0  0  0  0  0  0
  180.9140  178.7630  137.6250 C   0  0  0  0  0  3  0  0  0  0  0  0
  182.0720  179.0730  138.3470 C   0  0  0  0  0  0  0  0  0  0  0  0
  182.4120  180.4150  138.5700 C   0  0  0  0  0  3  0  0  0  0  0  0
  182.0360  183.1100  138.3440 Cl  0  0  0  0  0  0  0  0  0  0  0  0
  180.4510  181.1230  137.3410 C   0  0  0  0  0  3  0  0  0  0  0  0
  181.6040  181.4380  138.0660 C   0  0  0  0  0  0  0  0  0  0  0  0
  180.1050  179.7860  137.1220 C   0  0  0  0  0  3  0  0  0  0  0  0
  187.5760  172.6120  136.8710 C   0  0  0  0  0  1  0  0  0  0  0  0
  186.6690  173.6150  137.2130 O   0  0  0  0  0  0  0  0  0  0  0  0
  2 14  1  6  0  0  0
  2 24  1  0  0  0  0
  2 22  1  0  0  0  0
  3  9  1  0  0  0  0
  3 20  1  0  0  0  0
  4 37  1  0  0  0  0
  4  1  1  0  0  0  0
  5 10  1  0  0  0  0
  6 22  1  0  0  0  0
  6 11  1  0  0  0  0
  7  3  1  0  0  0  0
  8 18  1  0  0  0  0
  8 12  1  0  0  0  0
  9  6  1  0  0  0  0
 10 23  1  0  0  0  0
 10  7  1  0  0  0  0
 12  4  1  0  0  0  0
 13 17  1  0  0  0  0
 13  9  1  0  0  0  0
 15 20  1  0  0  0  0
 16 11  1  0  0  0  0
 17  2  1  0  0  0  0
 18 19  1  0  0  0  0
 18 25  1  0  0  0  0
 19  5  1  0  0  0  0
 20 16  1  0  0  0  0
 21  7  1  0  0  0  0
 21 13  1  0  0  0  0
 23 28  1  0  0  0  0
 25 27  1  0  0  0  0
 26  8  1  0  0  0  0
 27  1  1  0  0  0  0
 27 21  1  0  0  0  0
 28 15  1  0  0  0  0
 29 30  1  0  0  0  0
 30 31  2  0  0  0  0
 30 23  1  0  0  0  0
 33 34  2  0  0  0  0
 34 32  1  0  0  0  0
 34 31  1  0  0  0  0
 35 33  1  0  0  0  0
 35 29  2  0  0  0  0
 36 37  1  0  0  0  0
M  END
>  <MODEL>
5

>  <REMARK>
 VINA RESULT:      -5.9      2.400      3.478
  Name = 
  2 active torsions:
  status: ('A' for Active; 'I' for Inactive)
    1  A    between atoms: C_4  and  O_37
    2  A    between atoms: C_23  and  C_30
                            x       y       z     vdW  Elec       q    Type
                         _______ _______ _______ _____ _____    ______ ____

>  <TORSDO>
F 2

$$$$
=
 OpenBabel11122411253D

 37 43  0  0  1  0  0  0  0  0999 V2000
  188.3190  176.7510  140.5150 C   0  0  0  0  0  2  0  0  0  0  0  0
  184.0170  177.6800  137.8990 C   0  0  1  0  0  0  0  0  0  0  0  0
  187.4460  175.2810  137.1850 N   0  0  1  0  0  0  0  0  0  0  0  0
  188.3990  177.2340  141.9660 C   0  0  2  0  0  3  0  0  0  0  0  0
  190.8380  176.4470  138.1760 O   0  0  0  0  0  0  0  0  0  0  0  0
  184.9730  175.5600  136.8340 C   0  0  1  0  0  3  0  0  0  0  0  0
  188.5700  176.2170  137.3540 C   0  0  2  0  0  3  0  0  0  0  0  0
  190.8810  177.9310  141.6470 C   0  0  2  0  0  3  0  0  0  0  0  0
  186.3520  176.2070  137.0010 C   0  0  1  0  0  3  0  0  0  0  0  0
  189.7680  175.5500  138.0720 C   0  0  1  0  0  3  0  0  0  0  0  0
  185.0820  174.0330  136.8510 C   0  0  0  0  0  2  0  0  0  0  0  0
  189.5040  178.2640  142.2440 C   0  0  0  0  0  2  0  0  0  0  0  0
  186.4740  177.1460  138.1380 C   0  0  2  0  0  3  0  0  0  0  0  0
  183.2610  178.1310  139.1310 C   0  0  0  0  0  1  0  0  0  0  0  0
  188.7340  173.6230  135.8520 C   0  0  0  0  0  2  0  0  0  0  0  0
  186.2260  173.5490  135.9300 C   0  0  0  0  0  2  0  0  0  0  0  0
  185.4550  178.2610  137.9690 C   0  0  0  0  0  2  0  0  0  0  0  0
  190.9430  177.8870  140.1010 C   0  0  1  0  0  3  0  0  0  0  0  0
  191.1520  176.4780  139.5360 C   0  0  0  0  0  2  0  0  0  0  0  0
  187.4730  174.4650  135.9690 C   0  0  1  0  0  3  0  0  0  0  0  0
  187.9490  177.4810  138.0680 C   0  0  1  0  0  3  0  0  0  0  0  0
  183.9560  176.1290  137.8340 C   0  0  0  0  0  2  0  0  0  0  0  0
  190.2670  174.2340  137.4280 C   0  0  1  0  0  3  0  0  0  0  0  0
  183.3810  178.2040  136.7730 O   0  0  0  0  0  1  0  0  0  0  0  0
  189.7730  178.6280  139.4290 C   0  0  0  0  0  2  0  0  0  0  0  0
  191.4290  176.7930  142.2450 O   0  0  0  0  0  1  0  0  0  0  0  0
  188.4300  177.8790  139.4740 C   0  0  2  0  0  3  0  0  0  0  0  0
  189.2560  173.2970  137.1140 O   0  0  0  0  0  0  0  0  0  0  0  0
  191.4140  175.3860  135.5140 C   0  0  0  0  0  3  0  0  0  0  0  0
  191.4010  174.3320  136.4330 C   0  0  0  0  0  0  0  0  0  0  0  0
  192.4480  173.3990  136.4330 C   0  0  0  0  0  3  0  0  0  0  0  0
  194.7950  172.3470  135.5150 Cl  0  0  0  0  0  0  0  0  0  0  0  0
  193.4990  174.5680  134.5940 C   0  0  0  0  0  3  0  0  0  0  0  0
  193.4940  173.5160  135.5140 C   0  0  0  0  0  0  0  0  0  0  0  0
  192.4610  175.5040  134.5940 C   0  0  0  0  0  3  0  0  0  0  0  0
  188.3660  176.6560  144.1010 C   0  0  0  0  0  1  0  0  0  0  0  0
  188.5410  176.1370  142.8180 O   0  0  0  0  0  0  0  0  0  0  0  0
  1  4  1  0  0  0  0
  2 17  1  0  0  0  0
  2 14  1  1  0  0  0
  3  7  1  0  0  0  0
  4 12  1  0  0  0  0
  4 37  1  0  0  0  0
  5 19  1  0  0  0  0
  6 11  1  0  0  0  0
  6  9  1  0  0  0  0
  6 22  1  0  0  0  0
  7 21  1  0  0  0  0
  7 10  1  0  0  0  0
  8 12  1  0  0  0  0
  8 26  1  0  0  0  0
  9  3  1  0  0  0  0
  9 13  1  0  0  0  0
 10  5  1  0  0  0  0
 15 20  1  0  0  0  0
 15 28  1  0  0  0  0
 16 20  1  0  0  0  0
 16 11  1  0  0  0  0
 17 13  1  0  0  0  0
 18  8  1  0  0  0  0
 19 18  1  0  0  0  0
 20  3  1  0  0  0  0
 21 13  1  0  0  0  0
 21 27  1  0  0  0  0
 22  2  1  0  0  0  0
 23 10  1  0  0  0  0
 24  2  1  0  0  0  0
 25 27  1  0  0  0  0
 25 18  1  0  0  0  0
 27  1  1  0  0  0  0
 28 23  1  0  0  0  0
 29 30  1  0  0  0  0
 30 31  2  0  0  0  0
 30 23  1  0  0  0  0
 33 34  2  0  0  0  0
 34 32  1  0  0  0  0
 34 31  1  0  0  0  0
 35 33  1  0  0  0  0
 35 29  2  0  0  0  0
 37 36  1  0  0  0  0
M  END
>  <MODEL>
6

>  <REMARK>
 VINA RESULT:      -4.6      4.099      9.244
  Name = 
  2 active torsions:
  status: ('A' for Active; 'I' for Inactive)
    1  A    between atoms: C_4  and  O_37
    2  A    between atoms: C_23  and  C_30
                            x       y       z     vdW  Elec       q    Type
                         _______ _______ _______ _____ _____    ______ ____

>  <TORSDO>
F 2

$$$$
=
 OpenBabel11122411253D

 37 43  0  0  1  0  0  0  0  0999 V2000
  188.6880  176.5680  140.1870 C   0  0  0  0  0  2  0  0  0  0  0  0
  184.5710  177.2450  137.2190 C   0  0  1  0  0  0  0  0  0  0  0  0
  188.1150  174.9330  136.8690 N   0  0  1  0  0  0  0  0  0  0  0  0
  188.6440  177.1130  141.6170 C   0  0  2  0  0  3  0  0  0  0  0  0
  191.3860  176.2500  138.0580 O   0  0  0  0  0  0  0  0  0  0  0  0
  185.6680  175.1160  136.3220 C   0  0  1  0  0  3  0  0  0  0  0  0
  189.1940  175.9110  137.0790 C   0  0  2  0  0  3  0  0  0  0  0  0
  191.1210  177.8780  141.4540 C   0  0  2  0  0  3  0  0  0  0  0  0
  187.0100  175.8140  136.5630 C   0  0  1  0  0  3  0  0  0  0  0  0
  190.3530  175.3150  137.9130 C   0  0  1  0  0  3  0  0  0  0  0  0
  185.8210  173.5950  136.4150 C   0  0  0  0  0  2  0  0  0  0  0  0
  189.6940  178.1900  141.9320 C   0  0  0  0  0  2  0  0  0  0  0  0
  187.0180  176.8030  137.6640 C   0  0  2  0  0  3  0  0  0  0  0  0
  183.7110  177.7210  138.3710 C   0  0  0  0  0  1  0  0  0  0  0  0
  189.5490  173.2650  135.7090 C   0  0  0  0  0  2  0  0  0  0  0  0
  187.0460  173.1110  135.6030 C   0  0  0  0  0  2  0  0  0  0  0  0
  185.9820  177.8760  137.3710 C   0  0  0  0  0  2  0  0  0  0  0  0
  191.3020  177.7710  139.9200 C   0  0  1  0  0  3  0  0  0  0  0  0
  191.5950  176.3480  139.4350 C   0  0  0  0  0  2  0  0  0  0  0  0
  188.2580  174.0680  135.6950 C   0  0  1  0  0  3  0  0  0  0  0  0
  188.4840  177.1830  137.6890 C   0  0  1  0  0  3  0  0  0  0  0  0
  184.5620  175.6920  137.2180 C   0  0  0  0  0  2  0  0  0  0  0  0
  190.9390  173.9910  137.3670 C   0  0  1  0  0  3  0  0  0  0  0  0
  184.0080  177.7000  136.0270 O   0  0  0  0  0  1  0  0  0  0  0  0
  190.1640  178.4450  139.1310 C   0  0  0  0  0  2  0  0  0  0  0  0
  191.6550  176.7840  142.1400 O   0  0  0  0  0  1  0  0  0  0  0  0
  188.8440  177.6540  139.1080 C   0  0  2  0  0  3  0  0  0  0  0  0
  189.9830  173.0080  137.0200 O   0  0  0  0  0  0  0  0  0  0  0  0
  192.7770  172.9090  136.0410 C   0  0  0  0  0  3  0  0  0  0  0  0
  192.1420  174.0850  136.4560 C   0  0  0  0  0  0  0  0  0  0  0  0
  192.6150  175.3250  136.0040 C   0  0  0  0  0  3  0  0  0  0  0  0
  194.3080  176.9390  134.5940 Cl  0  0  0  0  0  0  0  0  0  0  0  0
  194.3540  174.2110  134.7430 C   0  0  0  0  0  3  0  0  0  0  0  0
  193.7200  175.3880  135.1510 C   0  0  0  0  0  0  0  0  0  0  0  0
  193.8830  172.9720  135.1870 C   0  0  0  0  0  3  0  0  0  0  0  0
  187.9240  176.4130  143.5890 C   0  0  0  0  0  1  0  0  0  0  0  0
  188.7530  176.0570  142.5240 O   0  0  0  0  0  0  0  0  0  0  0  0
  1  4  1  0  0  0  0
  2 17  1  0  0  0  0
  2 14  1  1  0  0  0
  3  7  1  0  0  0  0
  4 12  1  0  0  0  0
  4 37  1  0  0  0  0
  5 19  1  0  0  0  0
  6 11  1  0  0  0  0
  6  9  1  0  0  0  0
  6 22  1  0  0  0  0
  7 21  1  0  0  0  0
  7 10  1  0  0  0  0
  8 12  1  0  0  0  0
  8 26  1  0  0  0  0
  9  3  1  0  0  0  0
  9 13  1  0  0  0  0
 10  5  1  0  0  0  0
 13 21  1  0  0  0  0
 15 28  1  0  0  0  0
 16 20  1  0  0  0  0
 16 11  1  0  0  0  0
 17 13  1  0  0  0  0
 18  8  1  0  0  0  0
 19 18  1  0  0  0  0
 20 15  1  0  0  0  0
 20  3  1  0  0  0  0
 21 27  1  0  0  0  0
 22  2  1  0  0  0  0
 23 10  1  0  0  0  0
 24  2  1  0  0  0  0
 25 18  1  0  0  0  0
 27 25  1  0  0  0  0
 27  1  1  0  0  0  0
 28 23  1  0  0  0  0
 29 30  1  0  0  0  0
 30 23  1  0  0  0  0
 31 30  2  0  0  0  0
 32 34  1  0  0  0  0
 33 34  2  0  0  0  0
 33 35  1  0  0  0  0
 34 31  1  0  0  0  0
 35 29  2  0  0  0  0
 37 36  1  0  0  0  0
M  END
>  <MODEL>
7

>  <REMARK>
 VINA RESULT:      -3.9      4.087      9.422
  Name = 
  2 active torsions:
  status: ('A' for Active; 'I' for Inactive)
    1  A    between atoms: C_4  and  O_37
    2  A    between atoms: C_23  and  C_30
                            x       y       z     vdW  Elec       q    Type
                         _______ _______ _______ _____ _____    ______ ____

>  <TORSDO>
F 2

$$$$
=
 OpenBabel11122411253D

 37 43  0  0  1  0  0  0  0  0999 V2000
  184.5760  177.0810  139.3210 C   0  0  0  0  0  2  0  0  0  0  0  0
  188.8010  178.5800  136.8470 C   0  0  1  0  0  0  0  0  0  0  0  0
  187.9360  177.6000  140.8860 N   0  0  1  0  0  0  0  0  0  0  0  0
  183.3570  176.6770  138.4860 C   0  0  2  0  0  3  0  0  0  0  0  0
  184.6920  178.5600  142.4370 O   0  0  0  0  0  0  0  0  0  0  0  0
  189.6570  177.6100  139.0540 C   0  0  1  0  0  3  0  0  0  0  0  0
  186.7830  178.4530  141.2150 C   0  0  2  0  0  3  0  0  0  0  0  0
  181.7580  177.8360  140.1740 C   0  0  2  0  0  3  0  0  0  0  0  0
  188.4410  178.2730  139.7120 C   0  0  1  0  0  3  0  0  0  0  0  0
  185.7540  177.7100  142.1000 C   0  0  1  0  0  3  0  0  0  0  0  0
  190.1000  176.3780  139.8470 C   0  0  0  0  0  2  0  0  0  0  0  0
  182.1070  177.5440  138.7060 C   0  0  0  0  0  2  0  0  0  0  0  0
  187.2560  178.4220  138.8390 C   0  0  2  0  0  3  0  0  0  0  0  0
  188.2770  178.1320  135.4990 C   0  0  0  0  0  1  0  0  0  0  0  0
  188.6060  177.2110  143.2500 C   0  0  0  0  0  2  0  0  0  0  0  0
  190.1740  176.6890  141.3600 C   0  0  0  0  0  2  0  0  0  0  0  0
  187.6380  179.2530  137.6250 C   0  0  0  0  0  2  0  0  0  0  0  0
  182.8010  178.6730  140.9530 C   0  0  1  0  0  3  0  0  0  0  0  0
  183.5420  177.8780  142.0330 C   0  0  0  0  0  2  0  0  0  0  0  0
  189.0390  177.6190  141.8500 C   0  0  1  0  0  3  0  0  0  0  0  0
  186.2500  178.9790  139.8250 C   0  0  1  0  0  3  0  0  0  0  0  0
  189.4180  177.3450  137.5610 C   0  0  0  0  0  2  0  0  0  0  0  0
  186.3320  177.0830  143.3910 C   0  0  1  0  0  3  0  0  0  0  0  0
  189.8030  179.5280  136.6410 O   0  0  0  0  0  1  0  0  0  0  0  0
  183.7550  179.4550  140.0330 C   0  0  0  0  0  2  0  0  0  0  0  0
  181.3870  176.6680  140.8470 O   0  0  0  0  0  1  0  0  0  0  0  0
  184.8370  178.5980  139.3530 C   0  0  2  0  0  3  0  0  0  0  0  0
  187.5150  176.3280  143.2160 O   0  0  0  0  0  0  0  0  0  0  0  0
  185.3950  179.0030  144.7130 C   0  0  0  0  0  3  0  0  0  0  0  0
  186.2640  177.9070  144.6570 C   0  0  0  0  0  0  0  0  0  0  0  0
  187.0370  177.5770  145.7800 C   0  0  0  0  0  3  0  0  0  0  0  0
  187.9180  177.9310  148.3400 Cl  0  0  0  0  0  0  0  0  0  0  0  0
  186.0830  179.4410  146.9930 C   0  0  0  0  0  3  0  0  0  0  0  0
  186.9470  178.3440  146.9450 C   0  0  0  0  0  0  0  0  0  0  0  0
  185.3050  179.7700  145.8790 C   0  0  0  0  0  3  0  0  0  0  0  0
  183.6900  174.6420  137.6840 C   0  0  0  0  0  1  0  0  0  0  0  0
  183.0550  175.3340  138.7170 O   0  0  0  0  0  0  0  0  0  0  0  0
  1 27  1  0  0  0  0
  2 14  1  6  0  0  0
  2 22  1  0  0  0  0
  2 17  1  0  0  0  0
  3  7  1  0  0  0  0
  3 20  1  0  0  0  0
  4 12  1  0  0  0  0
  4 37  1  0  0  0  0
  4  1  1  0  0  0  0
  6  9  1  0  0  0  0
  6 11  1  0  0  0  0
  7 10  1  0  0  0  0
  8 26  1  0  0  0  0
  8 18  1  0  0  0  0
  9  3  1  0  0  0  0
 10  5  1  0  0  0  0
 10 23  1  0  0  0  0
 11 16  1  0  0  0  0
 12  8  1  0  0  0  0
 13  9  1  0  0  0  0
 13 21  1  0  0  0  0
 16 20  1  0  0  0  0
 17 13  1  0  0  0  0
 18 19  1  0  0  0  0
 19  5  1  0  0  0  0
 20 15  1  0  0  0  0
 21  7  1  0  0  0  0
 22  6  1  0  0  0  0
 23 30  1  0  0  0  0
 24  2  1  0  0  0  0
 25 18  1  0  0  0  0
 27 21  1  0  0  0  0
 27 25  1  0  0  0  0
 28 15  1  0  0  0  0
 28 23  1  0  0  0  0
 29 35  1  0  0  0  0
 30 29  2  0  0  0  0
 30 31  1  0  0  0  0
 31 34  2  0  0  0  0
 34 33  1  0  0  0  0
 34 32  1  0  0  0  0
 35 33  2  0  0  0  0
 36 37  1  0  0  0  0
M  END
>  <MODEL>
8

>  <REMARK>
 VINA RESULT:      -3.8      3.285      5.107
  Name = 
  2 active torsions:
  status: ('A' for Active; 'I' for Inactive)
    1  A    between atoms: C_4  and  O_37
    2  A    between atoms: C_23  and  C_30
                            x       y       z     vdW  Elec       q    Type
                         _______ _______ _______ _____ _____    ______ ____

>  <TORSDO>
F 2

$$$$
=
 OpenBabel11122411253D

 37 43  0  0  1  0  0  0  0  0999 V2000
  182.4800  179.8140  138.9240 C   0  0  0  0  0  2  0  0  0  0  0  0
  183.6200  179.0220  143.8520 C   0  0  1  0  0  0  0  0  0  0  0  0
  185.6960  178.3890  140.2040 N   0  0  1  0  0  0  0  0  0  0  0  0
  181.2300  180.6350  138.5960 C   0  0  2  0  0  3  0  0  0  0  0  0
  183.9060  177.2120  137.1610 O   0  0  0  0  0  0  0  0  0  0  0  0
  185.8760  178.9420  142.6490 C   0  0  1  0  0  3  0  0  0  0  0  0
  184.7560  177.5920  139.3990 C   0  0  2  0  0  3  0  0  0  0  0  0
  180.6610  179.0620  136.6090 C   0  0  2  0  0  3  0  0  0  0  0  0
  185.1480  178.1940  141.5270 C   0  0  1  0  0  3  0  0  0  0  0  0
  184.7730  178.0180  137.9110 C   0  0  1  0  0  3  0  0  0  0  0  0
  187.0830  179.7070  142.1000 C   0  0  0  0  0  2  0  0  0  0  0  0
  180.1500  179.8790  137.8060 C   0  0  0  0  0  2  0  0  0  0  0  0
  183.7130  178.5220  141.3780 C   0  0  2  0  0  3  0  0  0  0  0  0
  182.5910  180.0190  144.3420 C   0  0  0  0  0  1  0  0  0  0  0  0
  187.7130  177.7350  138.9030 C   0  0  0  0  0  2  0  0  0  0  0  0
  187.9250  178.8120  141.1610 C   0  0  0  0  0  2  0  0  0  0  0  0
  182.9980  178.2120  142.6830 C   0  0  0  0  0  2  0  0  0  0  0  0
  181.6050  177.8860  136.9590 C   0  0  1  0  0  3  0  0  0  0  0  0
  183.0530  178.1080  136.5120 C   0  0  0  0  0  2  0  0  0  0  0  0
  187.0680  177.8790  140.2730 C   0  0  1  0  0  3  0  0  0  0  0  0
  183.3680  177.7190  140.1410 C   0  0  1  0  0  3  0  0  0  0  0  0
  184.9090  179.8030  143.4750 C   0  0  0  0  0  2  0  0  0  0  0  0
  186.1700  178.0180  137.2460 C   0  0  1  0  0  3  0  0  0  0  0  0
  183.9150  178.1420  144.8940 O   0  0  0  0  0  1  0  0  0  0  0  0
  181.4990  177.4460  138.4310 C   0  0  0  0  0  2  0  0  0  0  0  0
  181.1780  179.8940  135.6130 O   0  0  0  0  0  1  0  0  0  0  0  0
  182.1810  178.3940  139.4330 C   0  0  2  0  0  3  0  0  0  0  0  0
  187.1890  178.6610  137.9860 O   0  0  0  0  0  0  0  0  0  0  0  0
  187.2710  176.8920  135.2890 C   0  0  0  0  0  3  0  0  0  0  0  0
  186.5890  176.7690  136.5040 C   0  0  0  0  0  0  0  0  0  0  0  0
  186.3260  175.4930  137.0250 C   0  0  0  0  0  3  0  0  0  0  0  0
  186.3980  172.7640  136.9820 Cl  0  0  0  0  0  0  0  0  0  0  0  0
  187.4110  174.4810  135.1140 C   0  0  0  0  0  3  0  0  0  0  0  0
  186.7340  174.3520  136.3300 C   0  0  0  0  0  0  0  0  0  0  0  0
  187.6810  175.7500  134.5940 C   0  0  0  0  0  3  0  0  0  0  0  0
  180.4550  182.5990  137.9350 C   0  0  0  0  0  1  0  0  0  0  0  0
  181.5970  181.7970  137.9150 O   0  0  0  0  0  0  0  0  0  0  0  0
  1 27  1  0  0  0  0
  2 14  1  1  0  0  0
  2 24  1  0  0  0  0
  3 20  1  0  0  0  0
  3  9  1  0  0  0  0
  4  1  1  0  0  0  0
  5 10  1  0  0  0  0
  6 22  1  0  0  0  0
  7 21  1  0  0  0  0
  7  3  1  0  0  0  0
  8 18  1  0  0  0  0
  8 12  1  0  0  0  0
  9  6  1  0  0  0  0
 10  7  1  0  0  0  0
 11  6  1  0  0  0  0
 12  4  1  0  0  0  0
 13  9  1  0  0  0  0
 13 17  1  0  0  0  0
 15 20  1  0  0  0  0
 16 11  1  0  0  0  0
 17  2  1  0  0  0  0
 18 25  1  0  0  0  0
 19 18  1  0  0  0  0
 19  5  1  0  0  0  0
 20 16  1  0  0  0  0
 21 13  1  0  0  0  0
 22  2  1  0  0  0  0
 23 10  1  0  0  0  0
 23 28  1  0  0  0  0
 25 27  1  0  0  0  0
 26  8  1  0  0  0  0
 27 21  1  0  0  0  0
 28 15  1  0  0  0  0
 29 30  1  0  0  0  0
 30 31  2  0  0  0  0
 30 23  1  0  0  0  0
 33 34  2  0  0  0  0
 34 32  1  0  0  0  0
 34 31  1  0  0  0  0
 35 33  1  0  0  0  0
 35 29  2  0  0  0  0
 37 36  1  0  0  0  0
 37  4  1  0  0  0  0
M  END
>  <MODEL>
9

>  <REMARK>
 VINA RESULT:      -3.8      2.941      6.786
  Name = 
  2 active torsions:
  status: ('A' for Active; 'I' for Inactive)
    1  A    between atoms: C_4  and  O_37
    2  A    between atoms: C_23  and  C_30
                            x       y       z     vdW  Elec       q    Type
                         _______ _______ _______ _____ _____    ______ ____

>  <TORSDO>
F 2

$$$$
