=
 OpenBabel11122410363D

 32 37  0  0  1  0  0  0  0  0999 V2000
  187.7310  178.0600  136.7220 O   0  0  0  0  0  0  0  0  0  0  0  0
  187.9630  178.2690  142.4440 C   0  0  0  0  0  0  0  0  0  0  0  0
  183.7330  178.9130  144.8950 C   0  0  0  0  0  3  0  0  0  0  0  0
  184.3390  178.5040  146.0840 C   0  0  0  0  0  3  0  0  0  0  0  0
  190.1210  177.6420  143.6920 C   0  0  2  0  0  3  0  0  0  0  0  0
  190.6340  177.1790  145.0280 C   0  0  0  0  0  0  0  0  0  0  0  0
  188.0120  178.3570  140.0030 C   0  0  0  0  0  0  0  0  0  0  0  0
  185.9050  178.5630  141.1870 C   0  0  0  0  0  3  0  0  0  0  0  0
  190.7640  176.5870  147.2260 C   0  0  2  0  0  3  0  0  0  0  0  0
  185.8740  178.5810  138.7610 N   0  0  0  0  0  2  0  0  0  0  0  0
  184.4590  178.8970  143.7020 C   0  0  0  0  0  3  0  0  0  0  0  0
  186.5650  178.4480  142.4190 C   0  0  0  0  0  0  0  0  0  0  0  0
  185.8000  178.4820  143.6870 C   0  0  0  0  0  0  0  0  0  0  0  0
  187.8330  177.5510  144.8650 C   0  0  2  0  0  3  0  0  0  0  0  0
  192.0620  176.2640  146.6080 N   0  0  0  0  0  0  0  0  0  0  0  0
  188.4820  177.4160  137.7200 C   0  0  0  0  0  2  0  0  0  0  0  0
  186.6080  178.5120  139.9820 C   0  0  0  0  0  0  0  0  0  0  0  0
  191.9210  176.6490  145.2620 N   0  0  0  0  0  0  0  0  0  0  0  0
  188.8660  178.4390  138.7740 C   0  0  0  0  0  2  0  0  0  0  0  0
  185.6810  177.3810  137.9630 C   0  0  0  0  0  2  0  0  0  0  0  0
  185.6710  178.0840  146.0810 C   0  0  0  0  0  3  0  0  0  0  0  0
  186.4210  178.0910  144.8920 C   0  0  0  0  0  0  0  0  0  0  0  0
  188.5290  177.6540  146.2290 C   0  0  0  0  0  2  0  0  0  0  0  0
  188.6690  178.2560  141.2310 C   0  0  0  0  0  3  0  0  0  0  0  0
  191.0820  178.6770  143.1300 C   0  0  0  0  0  1  0  0  0  0  0  0
  190.1430  175.3240  147.7930 C   0  0  0  0  0  1  0  0  0  0  0  0
  188.6920  178.2420  143.7760 C   0  0  2  0  0  3  0  0  0  0  0  0
  189.9230  177.1270  146.1230 C   0  0  0  0  0  0  0  0  0  0  0  0
  186.4460  177.4740  136.6380 C   0  0  2  0  0  3  0  0  0  0  0  0
  186.4620  176.1740  135.8970 C   0  0  0  0  0  0  0  0  0  0  0  0
  186.0580  175.0000  136.5220 O   0  0  0  0  0  1  0  0  0  0  0  0
  186.8680  176.1390  134.7070 O   0  0  0  0  0  0  0  0  0  0  0  0
  1 16  1  0  0  0  0
  3  4  1  0  0  0  0
  5 25  1  1  0  0  0
  5 27  1  0  0  0  0
  5  6  1  0  0  0  0
  6 18  1  0  0  0  0
  6 28  2  0  0  0  0
  7 24  1  0  0  0  0
  8 12  2  0  0  0  0
  9 26  1  6  0  0  0
 10 17  1  0  0  0  0
 11  3  2  0  0  0  0
 12  2  1  0  0  0  0
 12 13  1  0  0  0  0
 13 11  1  0  0  0  0
 13 22  2  0  0  0  0
 14 22  1  0  0  0  0
 14 23  1  1  0  0  0
 15  9  1  0  0  0  0
 16 19  1  0  0  0  0
 17  7  2  0  0  0  0
 17  8  1  0  0  0  0
 18 15  2  0  0  0  0
 19  7  1  0  0  0  0
 20 10  1  0  0  0  0
 21  4  2  0  0  0  0
 22 21  1  0  0  0  0
 24  2  2  0  0  0  0
 27  2  1  6  0  0  0
 27 14  1  0  0  0  0
 28 23  1  0  0  0  0
 28  9  1  0  0  0  0
 29 30  1  1  0  0  0
 29  1  1  0  0  0  0
 29 20  1  0  0  0  0
 30 31  1  0  0  0  0
 32 30  2  0  0  0  0
M  END
>  <MODEL>
1

>  <REMARK>
 VINA RESULT:     -10.8      0.000      0.000
  Name = 
  1 active torsions:
  status: ('A' for Active; 'I' for Inactive)
    1  A    between atoms: C_29  and  C_30
                            x       y       z     vdW  Elec       q    Type
                         _______ _______ _______ _____ _____    ______ ____

>  <TORSDO>
F 1

$$$$
=
 OpenBabel11122410363D

 32 37  0  0  1  0  0  0  0  0999 V2000
  191.2260  176.3390  136.7250 O   0  0  0  0  0  0  0  0  0  0  0  0
  189.1050  177.8000  141.8430 C   0  0  0  0  0  0  0  0  0  0  0  0
  184.3080  178.9150  142.1130 C   0  0  0  0  0  3  0  0  0  0  0  0
  184.3380  178.7830  143.5020 C   0  0  0  0  0  3  0  0  0  0  0  0
  190.5010  177.4880  143.9790 C   0  0  2  0  0  3  0  0  0  0  0  0
  190.3810  177.3350  145.4710 C   0  0  0  0  0  0  0  0  0  0  0  0
  190.1580  177.3510  139.6850 C   0  0  0  0  0  0  0  0  0  0  0  0
  187.7750  177.7870  139.8100 C   0  0  0  0  0  3  0  0  0  0  0  0
  189.5490  177.2420  147.5920 C   0  0  2  0  0  3  0  0  0  0  0  0
  188.7450  177.2730  137.6470 N   0  0  0  0  0  2  0  0  0  0  0  0
  185.4560  178.6470  141.3640 C   0  0  0  0  0  3  0  0  0  0  0  0
  187.8600  177.9520  141.2000 C   0  0  0  0  0  0  0  0  0  0  0  0
  186.6470  178.2550  141.9960 C   0  0  0  0  0  0  0  0  0  0  0  0
  187.9350  177.6290  144.0780 C   0  0  2  0  0  3  0  0  0  0  0  0
  190.9550  176.8060  147.6530 N   0  0  0  0  0  0  0  0  0  0  0  0
  191.4460  175.9390  138.0530 C   0  0  0  0  0  2  0  0  0  0  0  0
  188.9040  177.4810  139.0490 C   0  0  0  0  0  0  0  0  0  0  0  0
  191.4110  176.8850  146.3240 N   0  0  0  0  0  0  0  0  0  0  0  0
  191.4450  177.1720  138.9390 C   0  0  0  0  0  2  0  0  0  0  0  0
  188.7990  175.9240  137.1040 C   0  0  0  0  0  2  0  0  0  0  0  0
  185.5150  178.3900  144.1410 C   0  0  0  0  0  3  0  0  0  0  0  0
  186.6840  178.1450  143.4020 C   0  0  0  0  0  0  0  0  0  0  0  0
  188.0140  178.0370  145.5560 C   0  0  0  0  0  2  0  0  0  0  0  0
  190.2430  177.5300  141.0690 C   0  0  0  0  0  3  0  0  0  0  0  0
  191.6880  178.3870  143.6720 C   0  0  0  0  0  1  0  0  0  0  0  0
  188.6500  176.1260  148.0910 C   0  0  0  0  0  1  0  0  0  0  0  0
  189.2170  178.0750  143.3330 C   0  0  2  0  0  3  0  0  0  0  0  0
  189.2810  177.5160  146.1530 C   0  0  0  0  0  0  0  0  0  0  0  0
  190.0460  175.7330  136.2330 C   0  0  2  0  0  3  0  0  0  0  0  0
  190.2590  174.3020  135.8490 C   0  0  0  0  0  0  0  0  0  0  0  0
  189.5670  173.2870  136.4970 O   0  0  0  0  0  1  0  0  0  0  0  0
  191.0900  174.0160  134.9490 O   0  0  0  0  0  0  0  0  0  0  0  0
  1 16  1  0  0  0  0
  3  4  1  0  0  0  0
  4 21  2  0  0  0  0
  5 25  1  1  0  0  0
  5  6  1  0  0  0  0
  6 28  2  0  0  0  0
  6 18  1  0  0  0  0
  7 24  1  0  0  0  0
  8 12  2  0  0  0  0
  9 15  1  0  0  0  0
  9 26  1  6  0  0  0
 10 17  1  0  0  0  0
 11 13  1  0  0  0  0
 11  3  2  0  0  0  0
 12  2  1  0  0  0  0
 12 13  1  0  0  0  0
 13 22  2  0  0  0  0
 14 23  1  1  0  0  0
 16 19  1  0  0  0  0
 17  7  2  0  0  0  0
 17  8  1  0  0  0  0
 18 15  2  0  0  0  0
 19  7  1  0  0  0  0
 20 10  1  0  0  0  0
 22 14  1  0  0  0  0
 22 21  1  0  0  0  0
 23 28  1  0  0  0  0
 24  2  2  0  0  0  0
 27  2  1  6  0  0  0
 27  5  1  0  0  0  0
 27 14  1  0  0  0  0
 28  9  1  0  0  0  0
 29 30  1  1  0  0  0
 29  1  1  0  0  0  0
 29 20  1  0  0  0  0
 30 31  1  0  0  0  0
 32 30  2  0  0  0  0
M  END
>  <MODEL>
2

>  <REMARK>
 VINA RESULT:     -10.4      2.063      2.508
  Name = 
  1 active torsions:
  status: ('A' for Active; 'I' for Inactive)
    1  A    between atoms: C_29  and  C_30
                            x       y       z     vdW  Elec       q    Type
                         _______ _______ _______ _____ _____    ______ ____

>  <TORSDO>
F 1

$$$$
=
 OpenBabel11122410363D

 32 37  0  0  1  0  0  0  0  0999 V2000
  181.8080  178.3690  138.4020 O   0  0  0  0  0  0  0  0  0  0  0  0
  186.1240  178.4170  142.1710 C   0  0  0  0  0  0  0  0  0  0  0  0
  184.9880  178.5370  146.9680 C   0  0  0  0  0  3  0  0  0  0  0  0
  186.2880  178.1550  147.3040 C   0  0  0  0  0  3  0  0  0  0  0  0
  188.5390  177.9780  141.4050 C   0  0  2  0  0  3  0  0  0  0  0  0
  189.8850  177.5270  141.9030 C   0  0  0  0  0  0  0  0  0  0  0  0
  184.3760  178.5880  140.4740 C   0  0  0  0  0  0  0  0  0  0  0  0
  183.7880  178.5350  142.8270 C   0  0  0  0  0  3  0  0  0  0  0  0
  191.6040  176.8820  143.2560 C   0  0  2  0  0  3  0  0  0  0  0  0
  182.0000  178.6280  141.1900 N   0  0  0  0  0  2  0  0  0  0  0  0
  184.6160  178.6350  145.6260 C   0  0  0  0  0  3  0  0  0  0  0  0
  185.1420  178.4490  143.1810 C   0  0  0  0  0  0  0  0  0  0  0  0
  185.5410  178.3630  144.6060 C   0  0  0  0  0  0  0  0  0  0  0  0
  187.8340  177.6110  143.8520 C   0  0  2  0  0  3  0  0  0  0  0  0
  192.0550  176.7160  141.8630 N   0  0  0  0  0  0  0  0  0  0  0  0
  183.0790  177.7750  138.4800 C   0  0  0  0  0  2  0  0  0  0  0  0
  183.3940  178.5960  141.4890 C   0  0  0  0  0  0  0  0  0  0  0  0
  190.9600  177.1270  141.0820 N   0  0  0  0  0  0  0  0  0  0  0  0
  184.0610  178.7980  139.0240 C   0  0  0  0  0  2  0  0  0  0  0  0
  181.3430  177.4400  140.6660 C   0  0  0  0  0  2  0  0  0  0  0  0
  187.2160  177.8770  146.2980 C   0  0  0  0  0  3  0  0  0  0  0  0
  186.8620  178.0000  144.9440 C   0  0  0  0  0  0  0  0  0  0  0  0
  189.2980  177.7420  144.2930 C   0  0  0  0  0  2  0  0  0  0  0  0
  185.7250  178.5160  140.8300 C   0  0  0  0  0  3  0  0  0  0  0  0
  188.7370  179.1250  140.4270 C   0  0  0  0  0  1  0  0  0  0  0  0
  191.6520  175.5440  143.9690 C   0  0  0  0  0  1  0  0  0  0  0  0
  187.5940  178.4220  142.5540 C   0  0  2  0  0  3  0  0  0  0  0  0
  190.1990  177.3670  143.1620 C   0  0  0  0  0  0  0  0  0  0  0  0
  180.8970  177.6550  139.2150 C   0  0  2  0  0  3  0  0  0  0  0  0
  180.4300  176.3880  138.5700 C   0  0  0  0  0  0  0  0  0  0  0  0
  180.6250  175.1630  139.1960 O   0  0  0  0  0  1  0  0  0  0  0  0
  179.8810  176.4310  137.4390 O   0  0  0  0  0  0  0  0  0  0  0  0
  1 16  1  0  0  0  0
  1 29  1  0  0  0  0
  2 12  1  0  0  0  0
  3  4  1  0  0  0  0
  5 25  1  6  0  0  0
  5  6  1  0  0  0  0
  5 27  1  0  0  0  0
  6 28  2  0  0  0  0
  7 24  1  0  0  0  0
  7 17  2  0  0  0  0
  8 12  2  0  0  0  0
  9 26  1  1  0  0  0
 10 17  1  0  0  0  0
 11  3  2  0  0  0  0
 12 13  1  0  0  0  0
 13 22  2  0  0  0  0
 13 11  1  0  0  0  0
 14 23  1  1  0  0  0
 14 22  1  0  0  0  0
 15  9  1  0  0  0  0
 16 19  1  0  0  0  0
 17  8  1  0  0  0  0
 18 15  2  0  0  0  0
 18  6  1  0  0  0  0
 19  7  1  0  0  0  0
 20 10  1  0  0  0  0
 21  4  2  0  0  0  0
 22 21  1  0  0  0  0
 24  2  2  0  0  0  0
 27  2  1  6  0  0  0
 27 14  1  0  0  0  0
 28  9  1  0  0  0  0
 28 23  1  0  0  0  0
 29 30  1  6  0  0  0
 29 20  1  0  0  0  0
 30 31  1  0  0  0  0
 32 30  2  0  0  0  0
M  END
>  <MODEL>
3

>  <REMARK>
 VINA RESULT:     -10.1      2.964      3.963
  Name = 
  1 active torsions:
  status: ('A' for Active; 'I' for Inactive)
    1  A    between atoms: C_29  and  C_30
                            x       y       z     vdW  Elec       q    Type
                         _______ _______ _______ _____ _____    ______ ____

>  <TORSDO>
F 1

$$$$
=
 OpenBabel11122410363D

 32 37  0  0  1  0  0  0  0  0999 V2000
  182.8230  177.6500  136.3850 O   0  0  0  0  0  0  0  0  0  0  0  0
  186.1370  178.3050  141.0130 C   0  0  0  0  0  0  0  0  0  0  0  0
  183.9080  178.8500  145.3780 C   0  0  0  0  0  3  0  0  0  0  0  0
  185.1030  178.5730  146.0430 C   0  0  0  0  0  3  0  0  0  0  0  0
  188.6740  177.9180  140.8740 C   0  0  2  0  0  3  0  0  0  0  0  0
  189.8790  177.5920  141.7150 C   0  0  0  0  0  0  0  0  0  0  0  0
  184.8290  178.2110  138.9520 C   0  0  0  0  0  0  0  0  0  0  0  0
  183.7090  178.3660  141.0980 C   0  0  0  0  0  3  0  0  0  0  0  0
  191.2510  177.1780  143.4880 C   0  0  2  0  0  3  0  0  0  0  0  0
  182.3510  178.1990  139.0960 N   0  0  0  0  0  2  0  0  0  0  0  0
  183.8580  178.7920  143.9840 C   0  0  0  0  0  3  0  0  0  0  0  0
  184.9450  178.3880  141.7610 C   0  0  0  0  0  0  0  0  0  0  0  0
  185.0030  178.4670  143.2400 C   0  0  0  0  0  0  0  0  0  0  0  0
  187.4280  177.7650  143.1190 C   0  0  2  0  0  3  0  0  0  0  0  0
  192.0200  176.8950  142.2640 N   0  0  0  0  0  0  0  0  0  0  0  0
  184.0570  177.1340  136.8160 C   0  0  0  0  0  2  0  0  0  0  0  0
  183.6370  178.2710  139.7080 C   0  0  0  0  0  0  0  0  0  0  0  0
  191.1270  177.1670  141.2120 N   0  0  0  0  0  0  0  0  0  0  0  0
  184.8560  178.2570  137.4540 C   0  0  0  0  0  2  0  0  0  0  0  0
  181.8680  176.9320  138.5690 C   0  0  0  0  0  2  0  0  0  0  0  0
  186.2480  178.2430  145.3140 C   0  0  0  0  0  3  0  0  0  0  0  0
  186.2170  178.2100  143.9100 C   0  0  0  0  0  0  0  0  0  0  0  0
  188.7440  178.0160  143.8670 C   0  0  0  0  0  2  0  0  0  0  0  0
  186.0590  178.2470  139.6130 C   0  0  0  0  0  3  0  0  0  0  0  0
  189.0630  178.9690  139.8480 C   0  0  0  0  0  1  0  0  0  0  0  0
  191.1690  175.9230  144.3370 C   0  0  0  0  0  1  0  0  0  0  0  0
  187.4760  178.4260  141.7200 C   0  0  2  0  0  3  0  0  0  0  0  0
  189.8940  177.5760  143.0220 C   0  0  0  0  0  0  0  0  0  0  0  0
  181.7680  176.9750  137.0400 C   0  0  2  0  0  3  0  0  0  0  0  0
  181.5000  175.6260  136.4490 C   0  0  0  0  0  0  0  0  0  0  0  0
  181.3780  174.5090  137.2660 O   0  0  0  0  0  1  0  0  0  0  0  0
  181.4100  175.5000  135.2010 O   0  0  0  0  0  0  0  0  0  0  0  0
  1 16  1  0  0  0  0
  1 29  1  0  0  0  0
  2 12  1  0  0  0  0
  3  4  1  0  0  0  0
  5 25  1  6  0  0  0
  5  6  1  0  0  0  0
  5 27  1  0  0  0  0
  6 28  2  0  0  0  0
  7 24  1  0  0  0  0
  7 17  2  0  0  0  0
  8 12  2  0  0  0  0
  9 26  1  1  0  0  0
 10 17  1  0  0  0  0
 11  3  2  0  0  0  0
 12 13  1  0  0  0  0
 13 22  2  0  0  0  0
 13 11  1  0  0  0  0
 14 23  1  1  0  0  0
 14 22  1  0  0  0  0
 15  9  1  0  0  0  0
 16 19  1  0  0  0  0
 17  8  1  0  0  0  0
 18  6  1  0  0  0  0
 18 15  2  0  0  0  0
 19  7  1  0  0  0  0
 20 10  1  0  0  0  0
 21  4  2  0  0  0  0
 22 21  1  0  0  0  0
 24  2  2  0  0  0  0
 27  2  1  6  0  0  0
 27 14  1  0  0  0  0
 28  9  1  0  0  0  0
 28 23  1  0  0  0  0
 29 30  1  6  0  0  0
 29 20  1  0  0  0  0
 30 31  1  0  0  0  0
 32 30  2  0  0  0  0
M  END
>  <MODEL>
4

>  <REMARK>
 VINA RESULT:      -8.9      2.450      3.373
  Name = 
  1 active torsions:
  status: ('A' for Active; 'I' for Inactive)
    1  A    between atoms: C_29  and  C_30
                            x       y       z     vdW  Elec       q    Type
                         _______ _______ _______ _____ _____    ______ ____

>  <TORSDO>
F 1

$$$$
=
 OpenBabel11122410363D

 32 37  0  0  1  0  0  0  0  0999 V2000
  182.0580  179.4260  139.9550 O   0  0  0  0  0  0  0  0  0  0  0  0
  187.6620  178.2370  140.0730 C   0  0  0  0  0  0  0  0  0  0  0  0
  189.7600  177.4800  144.4710 C   0  0  0  0  0  3  0  0  0  0  0  0
  190.8740  176.9020  143.8600 C   0  0  0  0  0  3  0  0  0  0  0  0
  188.9370  177.7140  137.9030 C   0  0  2  0  0  3  0  0  0  0  0  0
  190.1710  177.0310  137.3790 C   0  0  0  0  0  0  0  0  0  0  0  0
  185.3270  178.9390  139.9130 C   0  0  0  0  0  0  0  0  0  0  0  0
  186.3100  178.4630  142.0790 C   0  0  0  0  0  3  0  0  0  0  0  0
  192.1700  175.9420  137.2520 C   0  0  2  0  0  3  0  0  0  0  0  0
  183.9660  179.0810  141.9830 N   0  0  0  0  0  2  0  0  0  0  0  0
  188.6760  177.8930  143.6940 C   0  0  0  0  0  3  0  0  0  0  0  0
  187.5400  178.1630  141.4750 C   0  0  0  0  0  0  0  0  0  0  0  0
  188.6970  177.7420  142.2980 C   0  0  0  0  0  0  0  0  0  0  0  0
  189.8210  176.9260  140.1860 C   0  0  2  0  0  3  0  0  0  0  0  0
  191.6260  176.0210  135.8850 N   0  0  0  0  0  0  0  0  0  0  0  0
  182.9460  178.6990  139.1460 C   0  0  0  0  0  2  0  0  0  0  0  0
  185.2040  178.8410  141.3160 C   0  0  0  0  0  0  0  0  0  0  0  0
  190.4010  176.6980  136.0280 N   0  0  0  0  0  0  0  0  0  0  0  0
  184.2450  179.4770  139.0270 C   0  0  0  0  0  2  0  0  0  0  0  0
  182.8920  178.1030  141.8930 C   0  0  0  0  0  2  0  0  0  0  0  0
  190.9050  176.7420  142.4730 C   0  0  0  0  0  3  0  0  0  0  0  0
  189.8330  177.1800  141.6770 C   0  0  0  0  0  0  0  0  0  0  0  0
  191.2330  176.8070  139.5990 C   0  0  0  0  0  2  0  0  0  0  0  0
  186.5570  178.6530  139.3150 C   0  0  0  0  0  3  0  0  0  0  0  0
  188.7330  179.0120  137.1370 C   0  0  0  0  0  1  0  0  0  0  0  0
  192.3590  174.4880  137.6400 C   0  0  0  0  0  1  0  0  0  0  0  0
  189.0160  178.0080  139.4250 C   0  0  2  0  0  3  0  0  0  0  0  0
  191.1470  176.5810  138.1240 C   0  0  0  0  0  0  0  0  0  0  0  0
  181.7100  178.6600  141.0920 C   0  0  2  0  0  3  0  0  0  0  0  0
  180.6890  177.6100  140.7800 C   0  0  0  0  0  0  0  0  0  0  0  0
  181.0620  176.4270  140.1550 O   0  0  0  0  0  0  0  0  0  0  0  0
  179.4800  177.8130  141.0630 O   0  0  0  0  0  1  0  0  0  0  0  0
  1 29  1  0  0  0  0
  2 12  1  0  0  0  0
  4  3  1  0  0  0  0
  5 25  1  6  0  0  0
  5 27  1  0  0  0  0
  6  5  1  0  0  0  0
  6 28  2  0  0  0  0
  7 17  2  0  0  0  0
  9 26  1  1  0  0  0
  9 28  1  0  0  0  0
 11  3  2  0  0  0  0
 12  8  2  0  0  0  0
 12 13  1  0  0  0  0
 13 11  1  0  0  0  0
 14 23  1  6  0  0  0
 14 22  1  0  0  0  0
 15 18  2  0  0  0  0
 15  9  1  0  0  0  0
 16  1  1  0  0  0  0
 17 10  1  0  0  0  0
 17  8  1  0  0  0  0
 18  6  1  0  0  0  0
 19 16  1  0  0  0  0
 19  7  1  0  0  0  0
 20 10  1  0  0  0  0
 21  4  2  0  0  0  0
 22 13  2  0  0  0  0
 22 21  1  0  0  0  0
 24  7  1  0  0  0  0
 24  2  2  0  0  0  0
 27  2  1  1  0  0  0
 27 14  1  0  0  0  0
 28 23  1  0  0  0  0
 29 30  1  6  0  0  0
 29 20  1  0  0  0  0
 30 32  1  0  0  0  0
 31 30  2  0  0  0  0
M  END
>  <MODEL>
5

>  <REMARK>
 VINA RESULT:      -8.6      3.815      6.383
  Name = 
  1 active torsions:
  status: ('A' for Active; 'I' for Inactive)
    1  A    between atoms: C_29  and  C_30
                            x       y       z     vdW  Elec       q    Type
                         _______ _______ _______ _____ _____    ______ ____

>  <TORSDO>
F 1

$$$$
=
 OpenBabel11122410363D

 32 37  0  0  1  0  0  0  0  0999 V2000
  191.3530  177.2260  145.9440 O   0  0  0  0  0  0  0  0  0  0  0  0
  187.3100  178.4580  142.0750 C   0  0  0  0  0  0  0  0  0  0  0  0
  188.5570  178.2750  137.3070 C   0  0  0  0  0  3  0  0  0  0  0  0
  187.2120  178.2620  136.9370 C   0  0  0  0  0  3  0  0  0  0  0  0
  184.8490  178.6920  142.7800 C   0  0  2  0  0  3  0  0  0  0  0  0
  183.4440  178.6280  142.2450 C   0  0  0  0  0  0  0  0  0  0  0  0
  188.9960  178.1410  143.8140 C   0  0  0  0  0  0  0  0  0  0  0  0
  189.6070  177.9360  141.4760 C   0  0  0  0  0  3  0  0  0  0  0  0
  181.6500  178.4790  140.8470 C   0  0  2  0  0  3  0  0  0  0  0  0
  191.3100  177.5340  143.1550 N   0  0  0  0  0  2  0  0  0  0  0  0
  188.9080  178.2650  138.6590 C   0  0  0  0  0  3  0  0  0  0  0  0
  188.2900  178.2240  141.0880 C   0  0  0  0  0  0  0  0  0  0  0  0
  187.9180  178.2530  139.6540 C   0  0  0  0  0  0  0  0  0  0  0  0
  185.4890  178.1530  140.3470 C   0  0  2  0  0  3  0  0  0  0  0  0
  181.1350  178.4390  142.2270 N   0  0  0  0  0  0  0  0  0  0  0  0
  189.9710  177.0010  145.8310 C   0  0  0  0  0  2  0  0  0  0  0  0
  189.9680  177.8840  142.8230 C   0  0  0  0  0  0  0  0  0  0  0  0
  182.2800  178.5340  143.0370 N   0  0  0  0  0  0  0  0  0  0  0  0
  189.3190  178.2540  145.2730 C   0  0  0  0  0  2  0  0  0  0  0  0
  191.6040  176.2100  143.6830 C   0  0  0  0  0  2  0  0  0  0  0  0
  186.2180  178.2460  137.9180 C   0  0  0  0  0  3  0  0  0  0  0  0
  186.5570  178.2650  139.2820 C   0  0  0  0  0  0  0  0  0  0  0  0
  184.1280  178.6800  139.8720 C   0  0  0  0  0  2  0  0  0  0  0  0
  187.6880  178.4410  143.4260 C   0  0  0  0  0  3  0  0  0  0  0  0
  184.9470  179.8480  143.7620 C   0  0  0  0  0  1  0  0  0  0  0  0
  181.2560  177.2070  140.1210 C   0  0  0  0  0  1  0  0  0  0  0  0
  185.9080  178.8650  141.6570 C   0  0  2  0  0  3  0  0  0  0  0  0
  183.1300  178.5620  140.9780 C   0  0  0  0  0  0  0  0  0  0  0  0
  192.0560  176.2920  145.1460 C   0  0  2  0  0  3  0  0  0  0  0  0
  192.1430  174.9440  145.7910 C   0  0  0  0  0  0  0  0  0  0  0  0
  191.9400  174.8020  147.1580 O   0  0  0  0  0  1  0  0  0  0  0  0
  192.4270  173.9370  145.0930 O   0  0  0  0  0  0  0  0  0  0  0  0
  2 24  1  0  0  0  0
  3 11  1  0  0  0  0
  4  3  2  0  0  0  0
  4 21  1  0  0  0  0
  5 25  1  1  0  0  0
  6  5  1  0  0  0  0
  6 18  1  0  0  0  0
  7 19  1  0  0  0  0
  8 17  2  0  0  0  0
  9 26  1  6  0  0  0
  9 28  1  0  0  0  0
  9 15  1  0  0  0  0
 10 20  1  0  0  0  0
 11 13  2  0  0  0  0
 12  8  1  0  0  0  0
 12  2  2  0  0  0  0
 13 12  1  0  0  0  0
 14 23  1  6  0  0  0
 14 27  1  0  0  0  0
 15 18  2  0  0  0  0
 16  1  1  0  0  0  0
 17 10  1  0  0  0  0
 17  7  1  0  0  0  0
 19 16  1  0  0  0  0
 20 29  1  0  0  0  0
 21 22  2  0  0  0  0
 22 13  1  0  0  0  0
 22 14  1  0  0  0  0
 23 28  1  0  0  0  0
 24  7  2  0  0  0  0
 27  2  1  1  0  0  0
 27  5  1  0  0  0  0
 28  6  2  0  0  0  0
 29 30  1  1  0  0  0
 29  1  1  0  0  0  0
 30 31  1  0  0  0  0
 32 30  2  0  0  0  0
M  END
>  <MODEL>
6

>  <REMARK>
 VINA RESULT:      -8.0      3.950      8.051
  Name = 
  1 active torsions:
  status: ('A' for Active; 'I' for Inactive)
    1  A    between atoms: C_29  and  C_30
                            x       y       z     vdW  Elec       q    Type
                         _______ _______ _______ _____ _____    ______ ____

>  <TORSDO>
F 1

$$$$
=
 OpenBabel11122410363D

 32 37  0  0  1  0  0  0  0  0999 V2000
  193.1560  175.1540  136.3640 O   0  0  0  0  0  0  0  0  0  0  0  0
  189.6290  177.5030  140.2210 C   0  0  0  0  0  0  0  0  0  0  0  0
  185.1660  178.9320  138.6860 C   0  0  0  0  0  3  0  0  0  0  0  0
  184.7190  179.0130  140.0050 C   0  0  0  0  0  3  0  0  0  0  0  0
  190.1960  177.4370  142.7270 C   0  0  2  0  0  3  0  0  0  0  0  0
  189.5720  177.5210  144.0940 C   0  0  0  0  0  0  0  0  0  0  0  0
  191.2840  176.6680  138.6290 C   0  0  0  0  0  0  0  0  0  0  0  0
  189.0560  177.2600  137.8720 C   0  0  0  0  0  3  0  0  0  0  0  0
  188.0790  177.8020  145.7940 C   0  0  2  0  0  3  0  0  0  0  0  0
  190.6270  176.3640  136.2550 N   0  0  0  0  0  2  0  0  0  0  0  0
  186.4610  178.4840  138.4160 C   0  0  0  0  0  3  0  0  0  0  0  0
  188.6920  177.6300  139.1750 C   0  0  0  0  0  0  0  0  0  0  0  0
  187.3250  178.1230  139.4620 C   0  0  0  0  0  0  0  0  0  0  0  0
  187.7730  177.7460  141.9200 C   0  0  2  0  0  3  0  0  0  0  0  0
  189.3290  177.2970  146.3870 N   0  0  0  0  0  0  0  0  0  0  0  0
  192.8790  174.9480  137.7260 C   0  0  0  0  0  2  0  0  0  0  0  0
  190.3340  176.7740  137.5890 C   0  0  0  0  0  0  0  0  0  0  0  0
  190.2050  177.1450  145.2970 N   0  0  0  0  0  0  0  0  0  0  0  0
  192.7180  176.3000  138.3990 C   0  0  0  0  0  2  0  0  0  0  0  0
  190.7120  174.9480  135.9340 C   0  0  0  0  0  2  0  0  0  0  0  0
  185.5670  178.6510  141.0540 C   0  0  0  0  0  3  0  0  0  0  0  0
  186.8820  178.2260  140.7970 C   0  0  0  0  0  0  0  0  0  0  0  0
  187.4020  178.3690  143.2730 C   0  0  0  0  0  2  0  0  0  0  0  0
  190.9230  177.0500  139.9240 C   0  0  0  0  0  3  0  0  0  0  0  0
  191.5080  178.2050  142.7390 C   0  0  0  0  0  1  0  0  0  0  0  0
  186.9500  176.8320  146.0870 C   0  0  0  0  0  1  0  0  0  0  0  0
  189.2700  177.9940  141.6130 C   0  0  2  0  0  3  0  0  0  0  0  0
  188.3340  177.8700  144.3290 C   0  0  0  0  0  0  0  0  0  0  0  0
  192.1490  174.5520  135.5750 C   0  0  2  0  0  3  0  0  0  0  0  0
  192.3200  173.0690  135.4660 C   0  0  0  0  0  0  0  0  0  0  0  0
  191.2140  172.2290  135.4690 O   0  0  0  0  0  1  0  0  0  0  0  0
  193.4770  172.5790  135.3980 O   0  0  0  0  0  0  0  0  0  0  0  0
  1 16  1  0  0  0  0
  3  4  1  0  0  0  0
  4 21  2  0  0  0  0
  5 25  1  1  0  0  0
  5  6  1  0  0  0  0
  6 28  2  0  0  0  0
  6 18  1  0  0  0  0
  7 24  2  0  0  0  0
  8 12  1  0  0  0  0
  9 26  1  6  0  0  0
  9 15  1  0  0  0  0
 10 17  1  0  0  0  0
 11  3  2  0  0  0  0
 11 13  1  0  0  0  0
 12 13  1  0  0  0  0
 12  2  2  0  0  0  0
 13 22  2  0  0  0  0
 14 23  1  1  0  0  0
 16 19  1  0  0  0  0
 17  8  2  0  0  0  0
 17  7  1  0  0  0  0
 18 15  2  0  0  0  0
 19  7  1  0  0  0  0
 20 10  1  0  0  0  0
 22 21  1  0  0  0  0
 22 14  1  0  0  0  0
 23 28  1  0  0  0  0
 24  2  1  0  0  0  0
 27  2  1  6  0  0  0
 27 14  1  0  0  0  0
 27  5  1  0  0  0  0
 28  9  1  0  0  0  0
 29 30  1  1  0  0  0
 29 20  1  0  0  0  0
 29  1  1  0  0  0  0
 30 31  1  0  0  0  0
 32 30  2  0  0  0  0
M  END
>  <MODEL>
7

>  <REMARK>
 VINA RESULT:      -7.9      3.266      4.572
  Name = 
  1 active torsions:
  status: ('A' for Active; 'I' for Inactive)
    1  A    between atoms: C_29  and  C_30
                            x       y       z     vdW  Elec       q    Type
                         _______ _______ _______ _____ _____    ______ ____

>  <TORSDO>
F 1

$$$$
