=
 OpenBabel11122410223D

 30 35  0  0  1  0  0  0  0  0999 V2000
  189.1080  177.3490  143.1370 C   0  0  1  0  0  3  0  0  0  0  0  0
  191.2850  177.0550  144.4750 C   0  0  0  0  0  0  0  0  0  0  0  0
  187.0530  177.5820  146.7680 N   0  0  0  0  0  2  0  0  0  0  0  0
  187.8040  178.1170  143.3770 C   0  0  1  0  0  3  0  0  0  0  0  0
  189.8900  178.0650  142.1300 N   0  0  0  0  0  2  0  0  0  0  0  0
  187.2420  178.6470  139.7800 O   0  0  0  0  0  0  0  0  0  0  0  0
  184.6610  178.0360  142.6660 C   0  0  1  0  0  3  0  0  0  0  0  0
  187.8160  178.3380  140.8580 C   0  0  0  0  0  0  0  0  0  0  0  0
  184.5640  177.9610  144.1400 N   0  0  2  0  0  0  0  0  0  0  0  0
  185.7340  178.0080  146.3290 C   0  0  1  0  0  3  0  0  0  0  0  0
  189.2540  177.9120  140.8190 C   0  0  2  0  0  3  0  0  0  0  0  0
  187.0940  178.3700  142.1060 N   0  0  0  0  0  0  0  0  0  0  0  0
  191.9380  176.8350  145.6900 C   0  0  0  0  0  3  0  0  0  0  0  0
  183.5430  178.9380  144.4980 C   0  0  0  0  0  2  0  0  0  0  0  0
  183.3020  178.4680  142.1500 C   0  0  0  0  0  2  0  0  0  0  0  0
  192.0570  177.1500  143.3240 O   0  0  0  0  0  1  0  0  0  0  0  0
  187.6300  176.8730  145.6310 C   0  0  1  0  0  3  0  0  0  0  0  0
  191.2100  176.6740  146.8650 C   0  0  0  0  0  3  0  0  0  0  0  0
  189.8710  177.1600  144.4340 C   0  0  0  0  0  0  0  0  0  0  0  0
  186.9220  177.3470  144.3580 C   0  0  1  0  0  3  0  0  0  0  0  0
  185.3520  179.2790  147.0630 C   0  0  0  0  0  1  0  0  0  0  0  0
  185.8220  178.2660  144.8360 C   0  0  1  0  0  3  0  0  0  0  0  0
  182.5480  178.9770  143.3590 C   0  0  0  0  0  2  0  0  0  0  0  0
  185.7590  180.3920  142.6480 C   0  0  0  0  0  1  0  0  0  0  0  0
  189.8190  176.7170  146.8310 C   0  0  0  0  0  3  0  0  0  0  0  0
  189.1400  176.9590  145.6290 C   0  0  0  0  0  0  0  0  0  0  0  0
  185.7540  178.9720  142.0910 C   0  0  2  0  0  3  0  0  0  0  0  0
  189.3850  176.4830  140.2960 C   0  0  0  0  0  2  0  0  0  0  0  0
  190.0420  177.2430  138.0130 C   0  0  0  0  0  1  0  0  0  0  0  0
  190.4370  176.3880  139.2020 C   0  0  0  0  0  2  0  0  0  0  0  0
  1  5  1  6  0  0  0
  1  4  1  0  0  0  0
  1 19  1  0  0  0  0
  2 13  1  0  0  0  0
  4 12  1  6  0  0  0
  4 20  1  0  0  0  0
  6  8  2  0  0  0  0
  7 15  1  6  0  0  0
  7  9  1  0  0  0  0
  8 12  1  0  0  0  0
  9 14  1  1  0  0  0
  9 22  1  0  0  0  0
 10  3  1  0  0  0  0
 10 21  1  1  0  0  0
 11 28  1  1  0  0  0
 11  8  1  0  0  0  0
 11  5  1  0  0  0  0
 13 18  2  0  0  0  0
 15 23  1  0  0  0  0
 16  2  1  0  0  0  0
 17 26  1  6  0  0  0
 17  3  1  0  0  0  0
 19  2  2  0  0  0  0
 19 26  1  0  0  0  0
 20 22  1  0  0  0  0
 20 17  1  0  0  0  0
 22 10  1  0  0  0  0
 23 14  1  0  0  0  0
 25 18  1  0  0  0  0
 26 25  2  0  0  0  0
 27 12  1  0  0  0  0
 27 24  1  0  0  0  0
 27  7  1  0  0  0  0
 29 30  1  0  0  0  0
 30 28  1  0  0  0  0
M  END
>  <MODEL>
1

>  <REMARK>
 VINA RESULT:      -8.0      0.000      0.000
  Name = 
  2 active torsions:
  status: ('A' for Active; 'I' for Inactive)
    1  A    between atoms: C_11  and  C_28
    2  A    between atoms: C_28  and  C_30
                            x       y       z     vdW  Elec       q    Type
                         _______ _______ _______ _____ _____    ______ ____

>  <TORSDO>
F 2

$$$$
=
 OpenBabel11122410223D

 30 35  0  0  1  0  0  0  0  0999 V2000
  187.3720  178.1950  140.0170 C   0  0  1  0  0  3  0  0  0  0  0  0
  184.9980  178.2550  139.0320 C   0  0  0  0  0  0  0  0  0  0  0  0
  185.6660  178.4120  143.8250 N   0  0  0  0  0  2  0  0  0  0  0  0
  187.9800  177.6220  141.3020 C   0  0  1  0  0  3  0  0  0  0  0  0
  187.7540  177.3330  138.8990 N   0  0  0  0  0  2  0  0  0  0  0  0
  191.2350  177.0030  139.7030 O   0  0  0  0  0  0  0  0  0  0  0  0
  190.4030  178.0920  143.3750 C   0  0  1  0  0  3  0  0  0  0  0  0
  190.0140  177.2830  139.8380 C   0  0  0  0  0  0  0  0  0  0  0  0
  189.2690  178.2490  144.3100 N   0  0  2  0  0  0  0  0  0  0  0  0
  186.8150  178.1490  144.6750 C   0  0  1  0  0  3  0  0  0  0  0  0
  189.1800  177.5080  138.6120 C   0  0  2  0  0  3  0  0  0  0  0  0
  189.4350  177.4070  141.1530 N   0  0  0  0  0  0  0  0  0  0  0  0
  183.6230  178.4420  139.1980 C   0  0  0  0  0  3  0  0  0  0  0  0
  189.6230  177.4370  145.4680 C   0  0  0  0  0  2  0  0  0  0  0  0
  191.6390  177.8230  144.2120 C   0  0  0  0  0  2  0  0  0  0  0  0
  185.4750  178.0030  137.7520 O   0  0  0  0  0  1  0  0  0  0  0  0
  186.2130  178.9830  142.5990 C   0  0  1  0  0  3  0  0  0  0  0  0
  183.0980  178.7560  140.4480 C   0  0  0  0  0  3  0  0  0  0  0  0
  185.8690  178.3400  140.1480 C   0  0  0  0  0  0  0  0  0  0  0  0
  187.6770  178.5490  142.4770 C   0  0  1  0  0  3  0  0  0  0  0  0
  186.5010  176.9770  145.5850 C   0  0  0  0  0  1  0  0  0  0  0  0
  187.9790  177.8110  143.7610 C   0  0  1  0  0  3  0  0  0  0  0  0
  191.1300  177.4790  145.5940 C   0  0  0  0  0  2  0  0  0  0  0  0
  189.8690  175.6120  142.8120 C   0  0  0  0  0  1  0  0  0  0  0  0
  183.9480  178.8990  141.5410 C   0  0  0  0  0  3  0  0  0  0  0  0
  185.3270  178.6950  141.4070 C   0  0  0  0  0  0  0  0  0  0  0  0
  190.2610  176.9920  142.2930 C   0  0  2  0  0  3  0  0  0  0  0  0
  189.4650  178.8810  138.0040 C   0  0  0  0  0  2  0  0  0  0  0  0
  189.0920  177.8600  135.7590 C   0  0  0  0  0  1  0  0  0  0  0  0
  188.7790  179.0420  136.6570 C   0  0  0  0  0  2  0  0  0  0  0  0
  1  5  1  6  0  0  0
  1 19  1  0  0  0  0
  1  4  1  0  0  0  0
  2 13  2  0  0  0  0
  2 19  1  0  0  0  0
  3 10  1  0  0  0  0
  4 12  1  6  0  0  0
  4 20  1  0  0  0  0
  6  8  2  0  0  0  0
  7 15  1  1  0  0  0
  7  9  1  0  0  0  0
  8 12  1  0  0  0  0
  9 14  1  1  0  0  0
 10 21  1  1  0  0  0
 11 28  1  1  0  0  0
 11  5  1  0  0  0  0
 11  8  1  0  0  0  0
 12 27  1  0  0  0  0
 13 18  1  0  0  0  0
 14 23  1  0  0  0  0
 15 23  1  0  0  0  0
 16  2  1  0  0  0  0
 17 26  1  6  0  0  0
 17  3  1  0  0  0  0
 18 25  2  0  0  0  0
 19 26  2  0  0  0  0
 20 17  1  0  0  0  0
 20 22  1  0  0  0  0
 22  9  1  0  0  0  0
 22 10  1  0  0  0  0
 26 25  1  0  0  0  0
 27 24  1  0  0  0  0
 27  7  1  0  0  0  0
 29 30  1  0  0  0  0
 30 28  1  0  0  0  0
M  END
>  <MODEL>
2

>  <REMARK>
 VINA RESULT:      -7.5      1.863      5.717
  Name = 
  2 active torsions:
  status: ('A' for Active; 'I' for Inactive)
    1  A    between atoms: C_11  and  C_28
    2  A    between atoms: C_28  and  C_30
                            x       y       z     vdW  Elec       q    Type
                         _______ _______ _______ _____ _____    ______ ____

>  <TORSDO>
F 2

$$$$
=
 OpenBabel11122410223D

 30 35  0  0  1  0  0  0  0  0999 V2000
  186.7860  178.0290  142.9710 C   0  0  1  0  0  3  0  0  0  0  0  0
  189.0540  176.9490  143.5200 C   0  0  0  0  0  0  0  0  0  0  0  0
  187.8120  177.8340  138.9250 N   0  0  0  0  0  2  0  0  0  0  0  0
  185.8000  177.9050  141.8040 C   0  0  1  0  0  3  0  0  0  0  0  0
  186.2320  177.3210  144.1240 N   0  0  0  0  0  2  0  0  0  0  0  0
  182.8950  178.6290  143.9440 O   0  0  0  0  0  0  0  0  0  0  0  0
  183.5630  179.5840  140.2020 C   0  0  1  0  0  3  0  0  0  0  0  0
  184.0770  178.3560  143.5990 C   0  0  0  0  0  0  0  0  0  0  0  0
  184.4910  179.3150  139.0830 N   0  0  2  0  0  0  0  0  0  0  0  0
  186.5530  178.1830  138.2870 C   0  0  1  0  0  3  0  0  0  0  0  0
  185.0970  178.0760  144.6620 C   0  0  2  0  0  3  0  0  0  0  0  0
  184.4440  178.3370  142.2050 N   0  0  0  0  0  0  0  0  0  0  0  0
  190.3230  176.5280  143.1170 C   0  0  0  0  0  3  0  0  0  0  0  0
  183.6400  178.8540  137.9930 C   0  0  0  0  0  2  0  0  0  0  0  0
  182.2270  179.9650  139.5920 C   0  0  0  0  0  2  0  0  0  0  0  0
  188.7130  176.8110  144.8600 O   0  0  0  0  0  1  0  0  0  0  0  0
  187.7710  178.4680  140.2380 C   0  0  1  0  0  3  0  0  0  0  0  0
  190.7380  176.6960  141.7990 C   0  0  0  0  0  3  0  0  0  0  0  0
  188.1560  177.5120  142.5780 C   0  0  0  0  0  0  0  0  0  0  0  0
  186.3050  178.7120  140.6100 C   0  0  1  0  0  3  0  0  0  0  0  0
  186.1670  177.0840  137.3160 C   0  0  0  0  0  1  0  0  0  0  0  0
  185.5140  178.3060  139.3880 C   0  0  1  0  0  3  0  0  0  0  0  0
  182.3130  179.5640  138.1370 C   0  0  0  0  0  2  0  0  0  0  0  0
  183.0060  177.0800  140.6190 C   0  0  0  0  0  1  0  0  0  0  0  0
  189.8880  177.3000  140.8760 C   0  0  0  0  0  3  0  0  0  0  0  0
  188.6010  177.7100  141.2490 C   0  0  0  0  0  0  0  0  0  0  0  0
  183.3570  178.4360  141.2220 C   0  0  2  0  0  3  0  0  0  0  0  0
  185.5530  179.3710  145.3340 C   0  0  0  0  0  2  0  0  0  0  0  0
  186.7750  178.3900  147.2750 C   0  0  0  0  0  1  0  0  0  0  0  0
  185.5840  179.2270  146.8470 C   0  0  0  0  0  2  0  0  0  0  0  0
  1 19  1  6  0  0  0
  1  5  1  0  0  0  0
  2 16  1  0  0  0  0
  4 12  1  1  0  0  0
  4  1  1  0  0  0  0
  5 11  1  0  0  0  0
  7 15  1  6  0  0  0
  7 27  1  0  0  0  0
  8  6  2  0  0  0  0
  8 11  1  0  0  0  0
  9 14  1  6  0  0  0
  9 22  1  0  0  0  0
  9  7  1  0  0  0  0
 10 21  1  6  0  0  0
 10  3  1  0  0  0  0
 10 22  1  0  0  0  0
 11 28  1  6  0  0  0
 12  8  1  0  0  0  0
 13  2  1  0  0  0  0
 14 23  1  0  0  0  0
 17  3  1  6  0  0  0
 17 20  1  0  0  0  0
 17 26  1  0  0  0  0
 18 13  2  0  0  0  0
 19  2  2  0  0  0  0
 20  4  1  0  0  0  0
 22 20  1  0  0  0  0
 23 15  1  0  0  0  0
 24 27  1  0  0  0  0
 25 26  2  0  0  0  0
 25 18  1  0  0  0  0
 26 19  1  0  0  0  0
 27 12  1  0  0  0  0
 28 30  1  0  0  0  0
 30 29  1  0  0  0  0
M  END
>  <MODEL>
3

>  <REMARK>
 VINA RESULT:      -7.5      2.531      5.576
  Name = 
  2 active torsions:
  status: ('A' for Active; 'I' for Inactive)
    1  A    between atoms: C_11  and  C_28
    2  A    between atoms: C_28  and  C_30
                            x       y       z     vdW  Elec       q    Type
                         _______ _______ _______ _____ _____    ______ ____

>  <TORSDO>
F 2

$$$$
=
 OpenBabel11122410223D

 30 35  0  0  1  0  0  0  0  0999 V2000
  183.4020  178.6500  140.2060 C   0  0  1  0  0  3  0  0  0  0  0  0
  182.4020  178.6280  142.5750 C   0  0  0  0  0  0  0  0  0  0  0  0
  187.2020  178.6240  141.9430 N   0  0  0  0  0  2  0  0  0  0  0  0
  184.6680  178.0570  139.5770 C   0  0  1  0  0  3  0  0  0  0  0  0
  182.2530  177.8550  139.7730 N   0  0  0  0  0  2  0  0  0  0  0  0
  183.0700  177.6730  136.2840 O   0  0  0  0  0  0  0  0  0  0  0  0
  186.7760  178.5680  137.1930 C   0  0  1  0  0  3  0  0  0  0  0  0
  183.2080  177.8840  137.5200 C   0  0  0  0  0  0  0  0  0  0  0  0
  187.7090  178.6270  138.3390 N   0  0  2  0  0  0  0  0  0  0  0  0
  188.0500  178.3850  140.7870 C   0  0  1  0  0  3  0  0  0  0  0  0
  181.9850  178.1160  138.3570 C   0  0  2  0  0  3  0  0  0  0  0  0
  184.5210  177.9240  138.1120 N   0  0  0  0  0  0  0  0  0  0  0  0
  182.5640  178.7360  143.9580 C   0  0  0  0  0  3  0  0  0  0  0  0
  188.8350  177.7880  137.9500 C   0  0  0  0  0  2  0  0  0  0  0  0
  187.6120  178.3290  135.9500 C   0  0  0  0  0  2  0  0  0  0  0  0
  181.1160  178.4520  142.0780 O   0  0  0  0  0  1  0  0  0  0  0  0
  186.0040  179.2710  141.4190 C   0  0  1  0  0  3  0  0  0  0  0  0
  183.8220  178.9710  144.5060 C   0  0  0  0  0  3  0  0  0  0  0  0
  183.5270  178.7120  141.7160 C   0  0  0  0  0  0  0  0  0  0  0  0
  185.8770  178.9190  139.9340 C   0  0  1  0  0  3  0  0  0  0  0  0
  188.9100  177.1620  141.0440 C   0  0  0  0  0  1  0  0  0  0  0  0
  187.1320  178.1460  139.6020 C   0  0  1  0  0  3  0  0  0  0  0  0
  188.9750  177.9030  136.4480 C   0  0  0  0  0  2  0  0  0  0  0  0
  186.1100  176.0880  137.5940 C   0  0  0  0  0  1  0  0  0  0  0  0
  184.9270  179.1130  143.6710 C   0  0  0  0  0  3  0  0  0  0  0  0
  184.7950  178.9860  142.2820 C   0  0  0  0  0  0  0  0  0  0  0  0
  185.6510  177.5060  137.2710 C   0  0  2  0  0  3  0  0  0  0  0  0
  181.4350  179.5250  138.1400 C   0  0  0  0  0  2  0  0  0  0  0  0
  180.1410  180.9240  139.7490 C   0  0  0  0  0  1  0  0  0  0  0  0
  180.0980  179.7110  138.8390 C   0  0  0  0  0  2  0  0  0  0  0  0
  1  5  1  1  0  0  0
  1 19  1  0  0  0  0
  2 13  1  0  0  0  0
  4 12  1  6  0  0  0
  4 20  1  0  0  0  0
  4  1  1  0  0  0  0
  6  8  2  0  0  0  0
  7 15  1  6  0  0  0
  7 27  1  0  0  0  0
  7  9  1  0  0  0  0
  8 12  1  0  0  0  0
  8 11  1  0  0  0  0
  9 14  1  6  0  0  0
  9 22  1  0  0  0  0
 10 21  1  1  0  0  0
 10  3  1  0  0  0  0
 11 28  1  1  0  0  0
 11  5  1  0  0  0  0
 13 18  2  0  0  0  0
 15 23  1  0  0  0  0
 16  2  1  0  0  0  0
 17  3  1  1  0  0  0
 17 26  1  0  0  0  0
 19 26  1  0  0  0  0
 19  2  2  0  0  0  0
 20 17  1  0  0  0  0
 22 20  1  0  0  0  0
 22 10  1  0  0  0  0
 23 14  1  0  0  0  0
 25 18  1  0  0  0  0
 26 25  2  0  0  0  0
 27 24  1  0  0  0  0
 27 12  1  0  0  0  0
 28 30  1  0  0  0  0
 30 29  1  0  0  0  0
M  END
>  <MODEL>
4

>  <REMARK>
 VINA RESULT:      -7.2      3.757      7.388
  Name = 
  2 active torsions:
  status: ('A' for Active; 'I' for Inactive)
    1  A    between atoms: C_11  and  C_28
    2  A    between atoms: C_28  and  C_30
                            x       y       z     vdW  Elec       q    Type
                         _______ _______ _______ _____ _____    ______ ____

>  <TORSDO>
F 2

$$$$
=
 OpenBabel11122410223D

 30 35  0  0  1  0  0  0  0  0999 V2000
  184.9020  178.2410  139.5350 C   0  0  1  0  0  3  0  0  0  0  0  0
  182.5440  178.9220  138.7670 C   0  0  0  0  0  0  0  0  0  0  0  0
  185.6110  176.8050  135.6760 N   0  0  0  0  0  2  0  0  0  0  0  0
  186.2690  178.1690  138.8460 C   0  0  1  0  0  3  0  0  0  0  0  0
  184.8890  179.4050  140.4200 N   0  0  0  0  0  2  0  0  0  0  0  0
  188.0820  178.8760  141.9690 O   0  0  0  0  0  0  0  0  0  0  0  0
  189.0670  176.5720  138.9550 C   0  0  1  0  0  3  0  0  0  0  0  0
  187.1310  178.7490  141.1510 C   0  0  0  0  0  0  0  0  0  0  0  0
  188.6630  176.2310  137.5740 N   0  0  2  0  0  0  0  0  0  0  0  0
  187.0390  176.5420  135.7200 C   0  0  1  0  0  3  0  0  0  0  0  0
  185.7490  179.1480  141.5780 C   0  0  2  0  0  3  0  0  0  0  0  0
  187.3660  178.2080  139.8360 N   0  0  0  0  0  0  0  0  0  0  0  0
  181.5260  178.8910  137.8100 C   0  0  0  0  0  3  0  0  0  0  0  0
  189.8540  176.4640  136.7660 C   0  0  0  0  0  2  0  0  0  0  0  0
  190.5560  176.3060  139.0620 C   0  0  0  0  0  2  0  0  0  0  0  0
  182.2970  179.5820  139.9640 O   0  0  0  0  0  1  0  0  0  0  0  0
  185.1510  176.6860  137.0550 C   0  0  1  0  0  3  0  0  0  0  0  0
  181.6990  178.1940  136.6180 C   0  0  0  0  0  3  0  0  0  0  0  0
  183.7820  178.2800  138.5130 C   0  0  0  0  0  0  0  0  0  0  0  0
  186.3490  176.9110  137.9830 C   0  0  1  0  0  3  0  0  0  0  0  0
  187.7190  177.2960  134.5940 C   0  0  0  0  0  1  0  0  0  0  0  0
  187.5420  177.0340  137.0650 C   0  0  1  0  0  3  0  0  0  0  0  0
  191.0480  176.1530  137.6410 C   0  0  0  0  0  2  0  0  0  0  0  0
  189.2440  179.1240  138.4960 C   0  0  0  0  0  1  0  0  0  0  0  0
  182.8890  177.5110  136.3790 C   0  0  0  0  0  3  0  0  0  0  0  0
  183.9330  177.5450  137.3120 C   0  0  0  0  0  0  0  0  0  0  0  0
  188.7630  178.0160  139.4280 C   0  0  2  0  0  3  0  0  0  0  0  0
  185.1410  178.0970  142.5060 C   0  0  0  0  0  2  0  0  0  0  0  0
  185.9480  178.0740  144.8660 C   0  0  0  0  0  1  0  0  0  0  0  0
  184.9260  178.6520  143.9040 C   0  0  0  0  0  2  0  0  0  0  0  0
  1 19  1  6  0  0  0
  1  5  1  0  0  0  0
  2 16  1  0  0  0  0
  3 10  1  0  0  0  0
  4  1  1  0  0  0  0
  4 12  1  1  0  0  0
  5 11  1  0  0  0  0
  7 15  1  6  0  0  0
  7 27  1  0  0  0  0
  8 11  1  0  0  0  0
  8  6  2  0  0  0  0
  9 14  1  6  0  0  0
  9  7  1  0  0  0  0
 10 21  1  6  0  0  0
 10 22  1  0  0  0  0
 11 28  1  6  0  0  0
 12  8  1  0  0  0  0
 13  2  2  0  0  0  0
 14 23  1  0  0  0  0
 17  3  1  6  0  0  0
 17 26  1  0  0  0  0
 17 20  1  0  0  0  0
 18 13  1  0  0  0  0
 19  2  1  0  0  0  0
 20  4  1  0  0  0  0
 22  9  1  0  0  0  0
 22 20  1  0  0  0  0
 23 15  1  0  0  0  0
 24 27  1  0  0  0  0
 25 18  2  0  0  0  0
 25 26  1  0  0  0  0
 26 19  2  0  0  0  0
 27 12  1  0  0  0  0
 28 30  1  0  0  0  0
 30 29  1  0  0  0  0
M  END
>  <MODEL>
5

>  <REMARK>
 VINA RESULT:      -7.0      3.479      8.578
  Name = 
  2 active torsions:
  status: ('A' for Active; 'I' for Inactive)
    1  A    between atoms: C_11  and  C_28
    2  A    between atoms: C_28  and  C_30
                            x       y       z     vdW  Elec       q    Type
                         _______ _______ _______ _____ _____    ______ ____

>  <TORSDO>
F 2

$$$$
=
 OpenBabel11122410223D

 30 35  0  0  1  0  0  0  0  0999 V2000
  189.5120  177.3730  141.3670 C   0  0  1  0  0  3  0  0  0  0  0  0
  190.1540  176.8790  138.9260 C   0  0  0  0  0  0  0  0  0  0  0  0
  185.7710  178.6330  139.9980 N   0  0  0  0  0  2  0  0  0  0  0  0
  188.2030  177.3070  142.1600 C   0  0  1  0  0  3  0  0  0  0  0  0
  190.3500  176.2400  141.7580 N   0  0  0  0  0  2  0  0  0  0  0  0
  189.9380  176.5330  145.3110 O   0  0  0  0  0  0  0  0  0  0  0  0
  186.7060  178.6560  144.6750 C   0  0  1  0  0  3  0  0  0  0  0  0
  189.7390  176.7190  144.0800 C   0  0  0  0  0  0  0  0  0  0  0  0
  185.7260  178.9920  143.6200 N   0  0  2  0  0  0  0  0  0  0  0  0
  185.0360  178.7710  141.2450 C   0  0  1  0  0  3  0  0  0  0  0  0
  190.8580  176.4550  143.1160 C   0  0  2  0  0  3  0  0  0  0  0  0
  188.4640  177.2000  143.6110 N   0  0  0  0  0  0  0  0  0  0  0  0
  189.8790  176.9710  137.5600 C   0  0  0  0  0  3  0  0  0  0  0  0
  184.4300  178.6340  144.1830 C   0  0  0  0  0  2  0  0  0  0  0  0
  185.9920  178.7940  146.0070 C   0  0  0  0  0  2  0  0  0  0  0  0
  191.3440  176.2770  139.3150 O   0  0  0  0  0  1  0  0  0  0  0  0
  187.1730  178.8300  140.3500 C   0  0  1  0  0  3  0  0  0  0  0  0
  188.7300  177.6170  137.1130 C   0  0  0  0  0  3  0  0  0  0  0  0
  189.2410  177.4030  139.8750 C   0  0  0  0  0  0  0  0  0  0  0  0
  187.3420  178.5280  141.8430 C   0  0  1  0  0  3  0  0  0  0  0  0
  183.7760  177.9290  141.1750 C   0  0  0  0  0  1  0  0  0  0  0  0
  185.9430  178.2750  142.3560 C   0  0  1  0  0  3  0  0  0  0  0  0
  184.5180  178.8640  145.6760 C   0  0  0  0  0  2  0  0  0  0  0  0
  186.4030  176.0860  144.4310 C   0  0  0  0  0  1  0  0  0  0  0  0
  187.8520  178.1870  138.0310 C   0  0  0  0  0  3  0  0  0  0  0  0
  188.0930  178.0880  139.4080 C   0  0  0  0  0  0  0  0  0  0  0  0
  187.3670  177.2580  144.5860 C   0  0  2  0  0  3  0  0  0  0  0  0
  191.8900  177.5800  143.1570 C   0  0  0  0  0  2  0  0  0  0  0  0
  191.0380  179.7930  143.9310 C   0  0  0  0  0  1  0  0  0  0  0  0
  191.6750  178.4840  144.3600 C   0  0  0  0  0  2  0  0  0  0  0  0
  1 19  1  6  0  0  0
  1  5  1  0  0  0  0
  1  4  1  0  0  0  0
  2 16  1  0  0  0  0
  2 19  1  0  0  0  0
  3 17  1  0  0  0  0
  3 10  1  0  0  0  0
  4 12  1  1  0  0  0
  5 11  1  0  0  0  0
  7 15  1  1  0  0  0
  8  6  2  0  0  0  0
  9 14  1  1  0  0  0
  9  7  1  0  0  0  0
 10 21  1  6  0  0  0
 10 22  1  0  0  0  0
 11 28  1  6  0  0  0
 11  8  1  0  0  0  0
 12  8  1  0  0  0  0
 12 27  1  0  0  0  0
 13  2  2  0  0  0  0
 14 23  1  0  0  0  0
 17 26  1  6  0  0  0
 17 20  1  0  0  0  0
 18 13  1  0  0  0  0
 18 25  2  0  0  0  0
 20  4  1  0  0  0  0
 20 22  1  0  0  0  0
 22  9  1  0  0  0  0
 23 15  1  0  0  0  0
 24 27  1  0  0  0  0
 25 26  1  0  0  0  0
 26 19  2  0  0  0  0
 27  7  1  0  0  0  0
 28 30  1  0  0  0  0
 29 30  1  0  0  0  0
M  END
>  <MODEL>
6

>  <REMARK>
 VINA RESULT:      -6.9      1.897      5.100
  Name = 
  2 active torsions:
  status: ('A' for Active; 'I' for Inactive)
    1  A    between atoms: C_11  and  C_28
    2  A    between atoms: C_28  and  C_30
                            x       y       z     vdW  Elec       q    Type
                         _______ _______ _______ _____ _____    ______ ____

>  <TORSDO>
F 2

$$$$
=
 OpenBabel11122410223D

 30 35  0  0  1  0  0  0  0  0999 V2000
  188.1290  177.8100  141.2460 C   0  0  1  0  0  3  0  0  0  0  0  0
  190.0240  178.1140  142.9580 C   0  0  0  0  0  0  0  0  0  0  0  0
  185.3970  178.2790  144.3720 N   0  0  0  0  0  2  0  0  0  0  0  0
  186.7100  178.3730  141.1150 C   0  0  1  0  0  3  0  0  0  0  0  0
  188.9860  178.4750  140.2640 N   0  0  0  0  0  2  0  0  0  0  0  0
  186.7890  178.2050  137.4400 O   0  0  0  0  0  0  0  0  0  0  0  0
  183.8070  177.6420  139.9210 C   0  0  1  0  0  3  0  0  0  0  0  0
  187.1800  178.1790  138.6380 C   0  0  0  0  0  0  0  0  0  0  0  0
  183.4370  177.7940  141.3440 N   0  0  2  0  0  0  0  0  0  0  0  0
  184.1420  178.3960  143.6480 C   0  0  1  0  0  3  0  0  0  0  0  0
  188.6430  178.0030  138.9200 C   0  0  2  0  0  3  0  0  0  0  0  0
  186.2320  178.2910  139.7180 N   0  0  0  0  0  0  0  0  0  0  0  0
  190.4540  178.2100  144.2840 C   0  0  0  0  0  3  0  0  0  0  0  0
  182.2410  178.6280  141.3340 C   0  0  0  0  0  2  0  0  0  0  0  0
  182.5270  177.7470  139.1130 C   0  0  0  0  0  2  0  0  0  0  0  0
  190.9850  178.1500  141.9540 O   0  0  0  0  0  1  0  0  0  0  0  0
  186.2750  177.5030  143.5040 C   0  0  1  0  0  3  0  0  0  0  0  0
  189.5410  178.1210  145.3310 C   0  0  0  0  0  3  0  0  0  0  0  0
  188.6450  177.9680  142.6630 C   0  0  0  0  0  0  0  0  0  0  0  0
  185.7690  177.6350  142.0640 C   0  0  1  0  0  3  0  0  0  0  0  0
  183.4540  179.6860  144.0510 C   0  0  0  0  0  1  0  0  0  0  0  0
  184.4810  178.4180  142.1680 C   0  0  1  0  0  3  0  0  0  0  0  0
  181.4910  178.3090  140.0600 C   0  0  0  0  0  2  0  0  0  0  0  0
  184.5520  180.1160  139.6340 C   0  0  0  0  0  1  0  0  0  0  0  0
  188.1900  177.9200  145.0580 C   0  0  0  0  0  3  0  0  0  0  0  0
  187.7300  177.8430  143.7370 C   0  0  0  0  0  0  0  0  0  0  0  0
  184.8510  178.6440  139.3670 C   0  0  2  0  0  3  0  0  0  0  0  0
  189.0690  176.5510  138.7090 C   0  0  0  0  0  2  0  0  0  0  0  0
  191.3080  176.5860  137.6110 C   0  0  0  0  0  1  0  0  0  0  0  0
  190.5640  176.3780  138.9170 C   0  0  0  0  0  2  0  0  0  0  0  0
  1  5  1  6  0  0  0
  1 19  1  0  0  0  0
  2 13  1  0  0  0  0
  4 12  1  6  0  0  0
  4  1  1  0  0  0  0
  4 20  1  0  0  0  0
  6  8  2  0  0  0  0
  7 15  1  6  0  0  0
  7  9  1  0  0  0  0
  8 11  1  0  0  0  0
  8 12  1  0  0  0  0
  9 14  1  6  0  0  0
  9 22  1  0  0  0  0
 10 21  1  1  0  0  0
 10  3  1  0  0  0  0
 11 28  1  1  0  0  0
 11  5  1  0  0  0  0
 13 18  2  0  0  0  0
 15 23  1  0  0  0  0
 16  2  1  0  0  0  0
 17 26  1  6  0  0  0
 17  3  1  0  0  0  0
 19  2  2  0  0  0  0
 19 26  1  0  0  0  0
 20 22  1  0  0  0  0
 20 17  1  0  0  0  0
 22 10  1  0  0  0  0
 23 14  1  0  0  0  0
 25 18  1  0  0  0  0
 26 25  2  0  0  0  0
 27 24  1  0  0  0  0
 27 12  1  0  0  0  0
 27  7  1  0  0  0  0
 28 30  1  0  0  0  0
 29 30  1  0  0  0  0
M  END
>  <MODEL>
7

>  <REMARK>
 VINA RESULT:      -6.6      1.836      2.637
  Name = 
  2 active torsions:
  status: ('A' for Active; 'I' for Inactive)
    1  A    between atoms: C_11  and  C_28
    2  A    between atoms: C_28  and  C_30
                            x       y       z     vdW  Elec       q    Type
                         _______ _______ _______ _____ _____    ______ ____

>  <TORSDO>
F 2

$$$$
=
 OpenBabel11122410223D

 30 35  0  0  1  0  0  0  0  0999 V2000
  186.2010  178.1170  140.3820 C   0  0  1  0  0  3  0  0  0  0  0  0
  187.4370  178.4580  138.1530 C   0  0  0  0  0  0  0  0  0  0  0  0
  189.9210  177.7550  142.2490 N   0  0  0  0  0  2  0  0  0  0  0  0
  186.5080  178.4800  141.8390 C   0  0  1  0  0  3  0  0  0  0  0  0
  185.1690  179.0260  139.8840 N   0  0  0  0  0  2  0  0  0  0  0  0
  182.9460  178.8250  142.6940 O   0  0  0  0  0  0  0  0  0  0  0  0
  185.9360  177.5040  144.8570 C   0  0  1  0  0  3  0  0  0  0  0  0
  183.9940  178.6940  142.0060 C   0  0  0  0  0  0  0  0  0  0  0  0
  187.4110  177.4050  144.8610 N   0  0  2  0  0  0  0  0  0  0  0  0
  189.5470  177.7850  143.6530 C   0  0  1  0  0  3  0  0  0  0  0  0
  183.8850  178.6970  140.5100 C   0  0  2  0  0  3  0  0  0  0  0  0
  185.2720  178.5190  142.6490 N   0  0  0  0  0  0  0  0  0  0  0  0
  188.6190  178.4350  137.4090 C   0  0  0  0  0  3  0  0  0  0  0  0
  187.8260  178.0500  146.1000 C   0  0  0  0  0  2  0  0  0  0  0  0
  185.4860  177.5290  146.3050 C   0  0  0  0  0  2  0  0  0  0  0  0
  186.2540  178.7690  137.4940 O   0  0  0  0  0  1  0  0  0  0  0  0
  188.7510  177.2400  141.5470 C   0  0  1  0  0  3  0  0  0  0  0  0
  189.8230  178.0720  138.0060 C   0  0  0  0  0  3  0  0  0  0  0  0
  187.4600  178.1540  139.5380 C   0  0  0  0  0  0  0  0  0  0  0  0
  187.5170  177.4910  142.4180 C   0  0  1  0  0  3  0  0  0  0  0  0
  190.3130  178.8950  144.3480 C   0  0  0  0  0  1  0  0  0  0  0  0
  188.0540  178.0570  143.7120 C   0  0  1  0  0  3  0  0  0  0  0  0
  186.7330  177.8020  147.1160 C   0  0  0  0  0  2  0  0  0  0  0  0
  185.8990  180.0750  144.4790 C   0  0  0  0  0  1  0  0  0  0  0  0
  189.8510  177.7160  139.3520 C   0  0  0  0  0  3  0  0  0  0  0  0
  188.6840  177.7530  140.1260 C   0  0  0  0  0  0  0  0  0  0  0  0
  185.3250  178.7130  144.1040 C   0  0  2  0  0  3  0  0  0  0  0  0
  183.3390  177.3640  140.0010 C   0  0  0  0  0  2  0  0  0  0  0  0
  183.8060  176.2740  137.8060 C   0  0  0  0  0  1  0  0  0  0  0  0
  183.0790  177.4080  138.5040 C   0  0  0  0  0  2  0  0  0  0  0  0
  1 19  1  6  0  0  0
  1  4  1  0  0  0  0
  2 19  1  0  0  0  0
  3 10  1  0  0  0  0
  4 20  1  0  0  0  0
  4 12  1  1  0  0  0
  5  1  1  0  0  0  0
  5 11  1  0  0  0  0
  7  9  1  0  0  0  0
  7 15  1  1  0  0  0
  8 12  1  0  0  0  0
  8  6  2  0  0  0  0
  9 14  1  1  0  0  0
 10 22  1  0  0  0  0
 10 21  1  1  0  0  0
 11 28  1  6  0  0  0
 11  8  1  0  0  0  0
 12 27  1  0  0  0  0
 13 18  1  0  0  0  0
 13  2  2  0  0  0  0
 14 23  1  0  0  0  0
 15 23  1  0  0  0  0
 16  2  1  0  0  0  0
 17 26  1  6  0  0  0
 17  3  1  0  0  0  0
 17 20  1  0  0  0  0
 18 25  2  0  0  0  0
 19 26  2  0  0  0  0
 20 22  1  0  0  0  0
 22  9  1  0  0  0  0
 25 26  1  0  0  0  0
 27 24  1  0  0  0  0
 27  7  1  0  0  0  0
 29 30  1  0  0  0  0
 30 28  1  0  0  0  0
M  END
>  <MODEL>
8

>  <REMARK>
 VINA RESULT:      -6.6      2.250      5.418
  Name = 
  2 active torsions:
  status: ('A' for Active; 'I' for Inactive)
    1  A    between atoms: C_11  and  C_28
    2  A    between atoms: C_28  and  C_30
                            x       y       z     vdW  Elec       q    Type
                         _______ _______ _______ _____ _____    ______ ____

>  <TORSDO>
F 2

$$$$
=
 OpenBabel11122410223D

 30 35  0  0  1  0  0  0  0  0999 V2000
  188.0560  177.9930  142.0790 C   0  0  1  0  0  3  0  0  0  0  0  0
  189.0830  177.1950  144.2970 C   0  0  0  0  0  0  0  0  0  0  0  0
  191.6380  176.9640  140.1910 N   0  0  0  0  0  2  0  0  0  0  0  0
  188.2010  177.5560  140.6180 C   0  0  1  0  0  3  0  0  0  0  0  0
  186.7610  177.5280  142.5760 N   0  0  0  0  0  2  0  0  0  0  0  0
  184.7640  178.5680  139.7820 O   0  0  0  0  0  0  0  0  0  0  0  0
  188.0240  178.7050  137.6110 C   0  0  1  0  0  3  0  0  0  0  0  0
  185.7880  178.2940  140.4650 C   0  0  0  0  0  0  0  0  0  0  0  0
  189.4300  178.2470  137.5980 N   0  0  2  0  0  0  0  0  0  0  0  0
  191.2760  177.0880  138.7890 C   0  0  1  0  0  3  0  0  0  0  0  0
  185.6900  178.3170  141.9610 C   0  0  2  0  0  3  0  0  0  0  0  0
  187.0370  177.9870  139.8140 N   0  0  0  0  0  0  0  0  0  0  0  0
  190.1920  176.7700  145.0340 C   0  0  0  0  0  3  0  0  0  0  0  0
  189.5720  177.5070  136.3510 C   0  0  0  0  0  2  0  0  0  0  0  0
  187.5930  178.8620  136.1650 C   0  0  0  0  0  2  0  0  0  0  0  0
  187.8720  177.3400  144.9610 O   0  0  0  0  0  1  0  0  0  0  0  0
  190.7460  177.8700  140.9050 C   0  0  1  0  0  3  0  0  0  0  0  0
  191.4420  176.6640  144.4320 C   0  0  0  0  0  3  0  0  0  0  0  0
  189.2130  177.4820  142.9140 C   0  0  0  0  0  0  0  0  0  0  0  0
  189.5040  178.1050  140.0390 C   0  0  1  0  0  3  0  0  0  0  0  0
  191.5720  175.7800  138.0800 C   0  0  0  0  0  1  0  0  0  0  0  0
  189.7890  177.3920  138.7380 C   0  0  1  0  0  3  0  0  0  0  0  0
  188.6470  178.1540  135.3440 C   0  0  0  0  0  2  0  0  0  0  0  0
  187.0350  176.3270  137.9680 C   0  0  0  0  0  1  0  0  0  0  0  0
  191.5960  176.9970  143.0890 C   0  0  0  0  0  3  0  0  0  0  0  0
  190.4970  177.4050  142.3220 C   0  0  0  0  0  0  0  0  0  0  0  0
  187.0100  177.8020  138.3580 C   0  0  2  0  0  3  0  0  0  0  0  0
  185.6800  179.7530  142.4840 C   0  0  0  0  0  2  0  0  0  0  0  0
  183.6700  179.0130  143.7620 C   0  0  0  0  0  1  0  0  0  0  0  0
  184.9310  179.8550  143.8030 C   0  0  0  0  0  2  0  0  0  0  0  0
  1  5  1  1  0  0  0
  1 19  1  0  0  0  0
  2 16  1  0  0  0  0
  2 13  1  0  0  0  0
  4 12  1  6  0  0  0
  4  1  1  0  0  0  0
  6  8  2  0  0  0  0
  7 15  1  6  0  0  0
  7 27  1  0  0  0  0
  8 11  1  0  0  0  0
  9 14  1  6  0  0  0
  9  7  1  0  0  0  0
  9 22  1  0  0  0  0
 10 21  1  6  0  0  0
 10  3  1  0  0  0  0
 11 28  1  1  0  0  0
 11  5  1  0  0  0  0
 12  8  1  0  0  0  0
 17  3  1  6  0  0  0
 17 26  1  0  0  0  0
 18 13  2  0  0  0  0
 19  2  2  0  0  0  0
 20  4  1  0  0  0  0
 20 17  1  0  0  0  0
 22 10  1  0  0  0  0
 22 20  1  0  0  0  0
 23 15  1  0  0  0  0
 23 14  1  0  0  0  0
 24 27  1  0  0  0  0
 25 18  1  0  0  0  0
 26 19  1  0  0  0  0
 26 25  2  0  0  0  0
 27 12  1  0  0  0  0
 28 30  1  0  0  0  0
 29 30  1  0  0  0  0
M  END
>  <MODEL>
9

>  <REMARK>
 VINA RESULT:      -6.6      2.108      6.076
  Name = 
  2 active torsions:
  status: ('A' for Active; 'I' for Inactive)
    1  A    between atoms: C_11  and  C_28
    2  A    between atoms: C_28  and  C_30
                            x       y       z     vdW  Elec       q    Type
                         _______ _______ _______ _____ _____    ______ ____

>  <TORSDO>
F 2

$$$$
