=
 OpenBabel11122410373D

 32 38  0  0  1  0  0  0  0  0999 V2000
  182.0470  178.3830  138.8660 C   0  0  2  0  0  3  0  0  0  0  0  0
  186.0750  178.1380  142.0850 C   0  0  1  0  0  3  0  0  0  0  0  0
  185.2440  178.5420  147.0440 C   0  0  0  0  0  3  0  0  0  0  0  0
  186.4890  178.1070  147.2830 C   0  0  0  0  0  3  0  0  0  0  0  0
  188.4780  177.7720  141.2960 C   0  0  2  0  0  3  0  0  0  0  0  0
  189.9880  177.7860  141.6290 C   0  0  2  0  0  3  0  0  0  0  0  0
  184.4290  178.9320  140.4910 C   0  0  0  0  0  0  0  0  0  0  0  0
  183.7580  178.2340  142.8750 C   0  0  0  0  0  2  0  0  0  0  0  0
  190.4100  176.1990  143.2140 C   0  0  1  0  0  3  0  0  0  0  0  0
  182.0710  177.9340  141.0620 C   0  0  0  0  0  2  0  0  0  0  0  0
  184.7490  178.8400  145.6540 C   0  0  0  0  0  2  0  0  0  0  0  0
  185.1760  178.6860  143.1960 C   0  0  1  0  0  3  0  0  0  0  0  0
  185.5900  178.1570  144.5690 C   0  0  1  0  0  3  0  0  0  0  0  0
  187.9570  177.8830  143.7230 C   0  0  2  0  0  3  0  0  0  0  0  0
  190.6490  175.6090  141.9010 N   0  0  0  0  0  2  0  0  0  0  0  0
  183.3690  178.6360  138.1820 C   0  0  0  0  0  2  0  0  0  0  0  0
  183.2880  178.7730  141.5250 C   0  0  2  0  0  3  0  0  0  0  0  0
  190.6030  176.6540  140.9560 N   0  0  0  0  0  2  0  0  0  0  0  0
  184.1750  179.5430  139.1240 C   0  0  0  0  0  2  0  0  0  0  0  0
  182.3730  177.2930  139.8000 N   0  0  1  0  0  0  0  0  0  0  0  0
  187.4520  177.7740  146.1750 C   0  0  0  0  0  2  0  0  0  0  0  0
  187.0720  178.4370  144.8440 C   0  0  2  0  0  3  0  0  0  0  0  0
  189.4060  178.2630  143.9840 C   0  0  0  0  0  2  0  0  0  0  0  0
  185.6580  178.6900  140.8100 N   0  0  0  0  0  0  0  0  0  0  0  0
  188.3180  178.4230  139.9310 C   0  0  0  0  0  1  0  0  0  0  0  0
  191.5590  175.8540  144.1420 C   0  0  0  0  0  1  0  0  0  0  0  0
  187.5680  178.4340  142.3520 C   0  0  2  0  0  3  0  0  0  0  0  0
  190.3320  177.6360  143.0390 N   0  0  2  0  0  0  0  0  0  0  0  0
  181.2560  177.1410  138.8550 C   0  0  2  0  0  3  0  0  0  0  0  0
  181.6030  176.1870  137.6970 C   0  0  0  0  0  3  0  0  0  0  0  0
  180.4950  175.8460  136.9140 O   0  0  0  0  0  1  0  0  0  0  0  0
  182.2200  175.0310  138.1780 O   0  0  0  0  0  1  0  0  0  0  0  0
  1 16  1  6  0  0  0
  1 20  1  0  0  0  0
  2 24  1  6  0  0  0
  2 27  1  0  0  0  0
  2 12  1  0  0  0  0
  3  4  2  0  0  0  0
  5 25  1  6  0  0  0
  5  6  1  0  0  0  0
  5 27  1  0  0  0  0
  6 18  1  6  0  0  0
  6 28  1  0  0  0  0
  7 24  2  0  0  0  0
  7 17  1  0  0  0  0
  9 26  1  1  0  0  0
 11  3  1  0  0  0  0
 12  8  1  6  0  0  0
 12 13  1  0  0  0  0
 13 22  1  0  0  0  0
 13 11  1  1  0  0  0
 14 23  1  1  0  0  0
 14 22  1  0  0  0  0
 15  9  1  0  0  0  0
 16 19  1  0  0  0  0
 17 10  1  6  0  0  0
 17  8  1  0  0  0  0
 18 15  1  0  0  0  0
 19  7  1  0  0  0  0
 20 10  1  1  0  0  0
 21  4  1  0  0  0  0
 22 21  1  1  0  0  0
 27 14  1  0  0  0  0
 28  9  1  0  0  0  0
 28 23  1  0  0  0  0
 29  1  1  0  0  0  0
 29 20  1  0  0  0  0
 30 32  1  0  0  0  0
 30 29  1  0  0  0  0
 31 30  1  0  0  0  0
M  END
>  <MODEL>
1

>  <REMARK>
 VINA RESULT:      -9.8      0.000      0.000
  Name = 
  1 active torsions:
  status: ('A' for Active; 'I' for Inactive)
    1  A    between atoms: C_29  and  C_30
                            x       y       z     vdW  Elec       q    Type
                         _______ _______ _______ _____ _____    ______ ____

>  <TORSDO>
F 1

$$$$
=
 OpenBabel11122410373D

 32 38  0  0  1  0  0  0  0  0999 V2000
  182.2150  179.0100  140.3410 C   0  0  2  0  0  3  0  0  0  0  0  0
  187.2500  177.9020  140.0980 C   0  0  1  0  0  3  0  0  0  0  0  0
  189.8670  177.5620  144.3970 C   0  0  0  0  0  3  0  0  0  0  0  0
  190.8800  176.9890  143.7300 C   0  0  0  0  0  3  0  0  0  0  0  0
  188.4840  177.4660  137.9030 C   0  0  2  0  0  3  0  0  0  0  0  0
  189.8320  177.2970  137.1630 C   0  0  2  0  0  3  0  0  0  0  0  0
  185.1330  179.0830  140.0350 C   0  0  0  0  0  0  0  0  0  0  0  0
  186.0350  178.0650  142.2190 C   0  0  0  0  0  2  0  0  0  0  0  0
  190.8900  175.4420  137.9700 C   0  0  1  0  0  3  0  0  0  0  0  0
  183.5600  178.2100  141.9450 C   0  0  0  0  0  2  0  0  0  0  0  0
  188.6580  178.1230  143.6970 C   0  0  0  0  0  2  0  0  0  0  0  0
  187.3810  178.3360  141.5610 C   0  0  1  0  0  3  0  0  0  0  0  0
  188.4780  177.5570  142.2840 C   0  0  1  0  0  3  0  0  0  0  0  0
  189.6650  177.2240  140.0760 C   0  0  2  0  0  3  0  0  0  0  0  0
  190.1290  175.0560  136.7860 N   0  0  0  0  0  2  0  0  0  0  0  0
  182.8120  179.2590  138.9760 C   0  0  0  0  0  2  0  0  0  0  0  0
  184.9120  178.8550  141.5500 C   0  0  2  0  0  3  0  0  0  0  0  0
  189.6690  176.2410  136.1770 N   0  0  0  0  0  2  0  0  0  0  0  0
  184.1730  179.9280  139.2160 C   0  0  0  0  0  2  0  0  0  0  0  0
  182.8700  177.7600  140.7550 N   0  0  1  0  0  0  0  0  0  0  0  0
  190.8350  176.7610  142.2430 C   0  0  0  0  0  2  0  0  0  0  0  0
  189.8130  177.6610  141.5370 C   0  0  2  0  0  3  0  0  0  0  0  0
  190.9830  177.4310  139.3470 C   0  0  0  0  0  2  0  0  0  0  0  0
  186.2170  178.6880  139.4510 N   0  0  0  0  0  0  0  0  0  0  0  0
  187.6030  178.3420  137.0270 C   0  0  0  0  0  1  0  0  0  0  0  0
  192.2850  174.8540  137.8900 C   0  0  0  0  0  1  0  0  0  0  0  0
  188.5910  178.0220  139.3380 C   0  0  2  0  0  3  0  0  0  0  0  0
  190.9660  176.8900  137.9870 N   0  0  2  0  0  0  0  0  0  0  0  0
  181.4030  177.8590  140.7670 C   0  0  2  0  0  3  0  0  0  0  0  0
  180.7580  177.0800  139.6050 C   0  0  0  0  0  3  0  0  0  0  0  0
  179.3610  177.1200  139.6230 O   0  0  0  0  0  1  0  0  0  0  0  0
  181.1980  175.7550  139.5960 O   0  0  0  0  0  1  0  0  0  0  0  0
  1 16  1  6  0  0  0
  1 20  1  0  0  0  0
  1 29  1  0  0  0  0
  2 24  1  6  0  0  0
  2 12  1  0  0  0  0
  4  3  2  0  0  0  0
  5 25  1  6  0  0  0
  5 27  1  0  0  0  0
  6 18  1  6  0  0  0
  6  5  1  0  0  0  0
  6 28  1  0  0  0  0
  7 17  1  0  0  0  0
  9 26  1  6  0  0  0
  9 28  1  0  0  0  0
 11  3  1  0  0  0  0
 12  8  1  1  0  0  0
 12 13  1  0  0  0  0
 13 11  1  1  0  0  0
 14 23  1  6  0  0  0
 14 22  1  0  0  0  0
 15  9  1  0  0  0  0
 16 19  1  0  0  0  0
 17 10  1  6  0  0  0
 17  8  1  0  0  0  0
 18 15  1  0  0  0  0
 19  7  1  0  0  0  0
 20 29  1  0  0  0  0
 20 10  1  1  0  0  0
 21  4  1  0  0  0  0
 22 21  1  1  0  0  0
 22 13  1  0  0  0  0
 24  7  2  0  0  0  0
 27 14  1  0  0  0  0
 27  2  1  0  0  0  0
 28 23  1  0  0  0  0
 30 31  1  0  0  0  0
 30 29  1  0  0  0  0
 32 30  1  0  0  0  0
M  END
>  <MODEL>
2

>  <REMARK>
 VINA RESULT:      -8.5      2.284      3.697
  Name = 
  1 active torsions:
  status: ('A' for Active; 'I' for Inactive)
    1  A    between atoms: C_29  and  C_30
                            x       y       z     vdW  Elec       q    Type
                         _______ _______ _______ _____ _____    ______ ____

>  <TORSDO>
F 1

$$$$
=
 OpenBabel11122410373D

 32 38  0  0  1  0  0  0  0  0999 V2000
  194.0400  174.3680  135.5090 C   0  0  2  0  0  3  0  0  0  0  0  0
  190.4530  176.6310  138.4500 C   0  0  1  0  0  3  0  0  0  0  0  0
  186.0130  177.8230  136.3710 C   0  0  0  0  0  3  0  0  0  0  0  0
  185.5010  178.0270  137.5930 C   0  0  0  0  0  3  0  0  0  0  0  0
  190.7910  177.1380  140.9320 C   0  0  2  0  0  3  0  0  0  0  0  0
  190.3010  177.8690  142.2030 C   0  0  2  0  0  3  0  0  0  0  0  0
  192.4000  176.2460  137.0580 C   0  0  0  0  0  0  0  0  0  0  0  0
  190.0160  175.9250  136.1450 C   0  0  0  0  0  2  0  0  0  0  0  0
  188.2570  177.0420  142.7900 C   0  0  1  0  0  3  0  0  0  0  0  0
  191.8290  174.5140  135.1720 C   0  0  0  0  0  2  0  0  0  0  0  0
  187.4750  177.5400  136.1490 C   0  0  0  0  0  2  0  0  0  0  0  0
  189.6870  176.9960  137.1750 C   0  0  1  0  0  3  0  0  0  0  0  0
  188.1790  177.0390  137.4150 C   0  0  1  0  0  3  0  0  0  0  0  0
  188.6050  177.5980  139.8440 C   0  0  2  0  0  3  0  0  0  0  0  0
  189.2770  176.3110  143.5370 N   0  0  0  0  0  2  0  0  0  0  0  0
  194.6060  174.9850  136.7660 C   0  0  0  0  0  2  0  0  0  0  0  0
  191.5140  175.8730  135.8460 C   0  0  2  0  0  3  0  0  0  0  0  0
  190.5020  176.9790  143.3350 N   0  0  0  0  0  2  0  0  0  0  0  0
  193.9110  176.3440  136.9310 C   0  0  0  0  0  2  0  0  0  0  0  0
  192.7780  173.7780  135.9810 N   0  0  1  0  0  0  0  0  0  0  0  0
  186.3240  177.8780  138.8460 C   0  0  0  0  0  2  0  0  0  0  0  0
  187.8310  177.9760  138.5770 C   0  0  2  0  0  3  0  0  0  0  0  0
  188.3060  178.6050  140.9430 C   0  0  0  0  0  2  0  0  0  0  0  0
  191.8770  176.6310  138.1760 N   0  0  0  0  0  0  0  0  0  0  0  0
  192.3000  177.3120  140.8720 C   0  0  0  0  0  1  0  0  0  0  0  0
  187.1370  177.4490  143.7280 C   0  0  0  0  0  1  0  0  0  0  0  0
  190.1160  177.5850  139.6180 C   0  0  2  0  0  3  0  0  0  0  0  0
  188.8860  178.2220  142.2320 N   0  0  2  0  0  0  0  0  0  0  0  0
  193.7530  172.9460  135.2600 C   0  0  2  0  0  3  0  0  0  0  0  0
  194.4990  171.9810  136.2000 C   0  0  0  0  0  3  0  0  0  0  0  0
  195.7490  171.5920  135.7100 O   0  0  0  0  0  1  0  0  0  0  0  0
  193.7200  170.8540  136.4680 O   0  0  0  0  0  1  0  0  0  0  0  0
  1 20  1  0  0  0  0
  1 16  1  1  0  0  0
  2 24  1  6  0  0  0
  2 27  1  0  0  0  0
  3  4  2  0  0  0  0
  4 21  1  0  0  0  0
  5 25  1  6  0  0  0
  5  6  1  0  0  0  0
  6 28  1  0  0  0  0
  6 18  1  1  0  0  0
  7 24  2  0  0  0  0
  9 15  1  0  0  0  0
  9 26  1  1  0  0  0
 11  3  1  0  0  0  0
 12  8  1  6  0  0  0
 12 13  1  0  0  0  0
 12  2  1  0  0  0  0
 13 11  1  6  0  0  0
 13 22  1  0  0  0  0
 14 23  1  1  0  0  0
 16 19  1  0  0  0  0
 17 10  1  1  0  0  0
 17  8  1  0  0  0  0
 17  7  1  0  0  0  0
 18 15  1  0  0  0  0
 19  7  1  0  0  0  0
 20 10  1  6  0  0  0
 22 21  1  1  0  0  0
 22 14  1  0  0  0  0
 23 28  1  0  0  0  0
 27 14  1  0  0  0  0
 27  5  1  0  0  0  0
 28  9  1  0  0  0  0
 29  1  1  0  0  0  0
 29 20  1  0  0  0  0
 29 30  1  0  0  0  0
 30 32  1  0  0  0  0
 31 30  1  0  0  0  0
M  END
>  <MODEL>
3

>  <REMARK>
 VINA RESULT:      -7.5      5.446      8.790
  Name = 
  1 active torsions:
  status: ('A' for Active; 'I' for Inactive)
    1  A    between atoms: C_29  and  C_30
                            x       y       z     vdW  Elec       q    Type
                         _______ _______ _______ _____ _____    ______ ____

>  <TORSDO>
F 1

$$$$
=
 OpenBabel11122410373D

 32 38  0  0  1  0  0  0  0  0999 V2000
  184.3230  175.9780  136.1550 C   0  0  2  0  0  3  0  0  0  0  0  0
  183.7450  177.8790  140.9190 C   0  0  1  0  0  3  0  0  0  0  0  0
  179.0880  178.8800  142.5810 C   0  0  0  0  0  3  0  0  0  0  0  0
  179.5640  178.9980  143.8290 C   0  0  0  0  0  3  0  0  0  0  0  0
  185.7030  178.2960  142.5080 C   0  0  2  0  0  3  0  0  0  0  0  0
  186.2210  178.9380  143.8170 C   0  0  2  0  0  3  0  0  0  0  0  0
  184.1890  177.6790  138.5440 C   0  0  0  0  0  0  0  0  0  0  0  0
  181.8430  177.2490  139.5100 C   0  0  0  0  0  2  0  0  0  0  0  0
  185.1670  177.9590  145.5880 C   0  0  1  0  0  3  0  0  0  0  0  0
  182.4950  175.9990  137.4520 C   0  0  0  0  0  2  0  0  0  0  0  0
  179.9910  178.7000  141.3890 C   0  0  0  0  0  2  0  0  0  0  0  0
  182.3040  178.2510  140.5580 C   0  0  1  0  0  3  0  0  0  0  0  0
  181.3830  178.1880  141.7760 C   0  0  1  0  0  3  0  0  0  0  0  0
  183.3670  178.6650  143.2710 C   0  0  2  0  0  3  0  0  0  0  0  0
  186.4310  177.2620  145.3650 N   0  0  0  0  0  2  0  0  0  0  0  0
  185.5940  176.5730  136.7150 C   0  0  0  0  0  2  0  0  0  0  0  0
  182.7150  177.3040  138.2560 C   0  0  2  0  0  3  0  0  0  0  0  0
  187.1630  178.0130  144.4240 N   0  0  0  0  0  2  0  0  0  0  0  0
  185.1870  177.8770  137.4160 C   0  0  0  0  0  2  0  0  0  0  0  0
  183.7500  175.2890  137.3230 N   0  0  1  0  0  0  0  0  0  0  0  0
  181.0270  178.8450  144.1500 C   0  0  0  0  0  2  0  0  0  0  0  0
  181.9250  179.0500  142.9230 C   0  0  2  0  0  3  0  0  0  0  0  0
  183.8990  179.6020  144.3440 C   0  0  0  0  0  2  0  0  0  0  0  0
  184.5810  177.9800  139.7380 N   0  0  0  0  0  0  0  0  0  0  0  0
  186.7460  178.5670  141.4360 C   0  0  0  0  0  1  0  0  0  0  0  0
  185.0050  178.2530  147.0670 C   0  0  0  0  0  1  0  0  0  0  0  0
  184.2990  178.7570  142.0640 C   0  0  2  0  0  3  0  0  0  0  0  0
  185.2150  179.2000  144.8410 N   0  0  2  0  0  0  0  0  0  0  0  0
  183.9650  174.5530  136.0680 C   0  0  2  0  0  3  0  0  0  0  0  0
  185.1680  173.5960  136.1560 C   0  0  0  0  0  3  0  0  0  0  0  0
  185.2630  172.7300  135.0620 O   0  0  0  0  0  1  0  0  0  0  0  0
  185.1290  172.8620  137.3430 O   0  0  0  0  0  1  0  0  0  0  0  0
  1 16  1  1  0  0  0
  1 20  1  0  0  0  0
  2 24  1  6  0  0  0
  2 27  1  0  0  0  0
  3  4  2  0  0  0  0
  4 21  1  0  0  0  0
  5 25  1  6  0  0  0
  5  6  1  0  0  0  0
  6 18  1  1  0  0  0
  6 28  1  0  0  0  0
  7 24  2  0  0  0  0
  9 26  1  1  0  0  0
 11  3  1  0  0  0  0
 12  8  1  6  0  0  0
 12  2  1  0  0  0  0
 12 13  1  0  0  0  0
 13 11  1  6  0  0  0
 13 22  1  0  0  0  0
 14 23  1  1  0  0  0
 15  9  1  0  0  0  0
 16 19  1  0  0  0  0
 17 10  1  1  0  0  0
 17  7  1  0  0  0  0
 17  8  1  0  0  0  0
 18 15  1  0  0  0  0
 19  7  1  0  0  0  0
 20 10  1  6  0  0  0
 22 14  1  0  0  0  0
 22 21  1  1  0  0  0
 23 28  1  0  0  0  0
 27  5  1  0  0  0  0
 27 14  1  0  0  0  0
 28  9  1  0  0  0  0
 29  1  1  0  0  0  0
 29 30  1  0  0  0  0
 29 20  1  0  0  0  0
 30 32  1  0  0  0  0
 31 30  1  0  0  0  0
M  END
>  <MODEL>
4

>  <REMARK>
 VINA RESULT:      -7.5      2.722      4.885
  Name = 
  1 active torsions:
  status: ('A' for Active; 'I' for Inactive)
    1  A    between atoms: C_29  and  C_30
                            x       y       z     vdW  Elec       q    Type
                         _______ _______ _______ _____ _____    ______ ____

>  <TORSDO>
F 1

$$$$
=
 OpenBabel11122410373D

 32 38  0  0  1  0  0  0  0  0999 V2000
  180.4900  177.9290  138.0580 C   0  0  2  0  0  3  0  0  0  0  0  0
  184.8240  178.2140  140.8460 C   0  0  1  0  0  3  0  0  0  0  0  0
  184.4580  178.6540  145.8580 C   0  0  0  0  0  3  0  0  0  0  0  0
  185.7620  178.3650  145.9740 C   0  0  0  0  0  3  0  0  0  0  0  0
  187.1610  178.0940  139.8190 C   0  0  2  0  0  3  0  0  0  0  0  0
  188.6860  178.2830  139.9940 C   0  0  2  0  0  3  0  0  0  0  0  0
  182.9470  178.7800  139.4200 C   0  0  0  0  0  0  0  0  0  0  0  0
  182.6030  178.0750  141.8700 C   0  0  0  0  0  2  0  0  0  0  0  0
  189.4410  176.7940  141.5510 C   0  0  1  0  0  3  0  0  0  0  0  0
  180.7850  177.5440  140.2460 C   0  0  0  0  0  2  0  0  0  0  0  0
  183.7950  178.8590  144.5220 C   0  0  0  0  0  2  0  0  0  0  0  0
  183.9860  178.6880  142.0360 C   0  0  1  0  0  3  0  0  0  0  0  0
  184.5930  178.2450  143.3660 C   0  0  1  0  0  3  0  0  0  0  0  0
  186.8790  178.2110  142.2850 C   0  0  2  0  0  3  0  0  0  0  0  0
  189.6110  176.1990  140.2280 N   0  0  0  0  0  2  0  0  0  0  0  0
  181.6990  178.3090  137.2370 C   0  0  0  0  0  2  0  0  0  0  0  0
  181.9410  178.5240  140.5680 C   0  0  2  0  0  3  0  0  0  0  0  0
  189.3530  177.2080  139.2780 N   0  0  0  0  0  2  0  0  0  0  0  0
  182.4900  179.3240  138.0770 C   0  0  0  0  0  2  0  0  0  0  0  0
  181.0280  176.9070  138.9690 N   0  0  1  0  0  0  0  0  0  0  0  0
  186.6390  178.1110  144.7770 C   0  0  0  0  0  2  0  0  0  0  0  0
  186.0550  178.6930  143.4830 C   0  0  2  0  0  3  0  0  0  0  0  0
  188.2950  178.7540  142.3890 C   0  0  0  0  0  2  0  0  0  0  0  0
  184.2210  178.6830  139.6130 N   0  0  0  0  0  0  0  0  0  0  0  0
  186.7920  178.6880  138.4690 C   0  0  0  0  0  1  0  0  0  0  0  0
  190.7090  176.6020  142.3590 C   0  0  0  0  0  1  0  0  0  0  0  0
  186.2940  178.6790  140.9530 C   0  0  2  0  0  3  0  0  0  0  0  0
  189.1850  178.2080  141.3630 N   0  0  2  0  0  0  0  0  0  0  0  0
  179.8470  176.6090  138.1460 C   0  0  2  0  0  3  0  0  0  0  0  0
  180.1790  175.6680  136.9730 C   0  0  0  0  0  3  0  0  0  0  0  0
  179.0820  175.4120  136.1450 O   0  0  0  0  0  1  0  0  0  0  0  0
  180.7140  174.4660  137.4410 O   0  0  0  0  0  1  0  0  0  0  0  0
  1 16  1  6  0  0  0
  1 29  1  0  0  0  0
  1 20  1  0  0  0  0
  2 24  1  6  0  0  0
  2 27  1  0  0  0  0
  2 12  1  0  0  0  0
  3  4  2  0  0  0  0
  5 25  1  6  0  0  0
  5  6  1  0  0  0  0
  5 27  1  0  0  0  0
  6 18  1  6  0  0  0
  6 28  1  0  0  0  0
  7 24  2  0  0  0  0
  7 17  1  0  0  0  0
  9 26  1  1  0  0  0
 11  3  1  0  0  0  0
 12  8  1  6  0  0  0
 12 13  1  0  0  0  0
 13 22  1  0  0  0  0
 13 11  1  1  0  0  0
 14 23  1  1  0  0  0
 14 22  1  0  0  0  0
 15  9  1  0  0  0  0
 16 19  1  0  0  0  0
 17 10  1  6  0  0  0
 17  8  1  0  0  0  0
 18 15  1  0  0  0  0
 19  7  1  0  0  0  0
 20 10  1  1  0  0  0
 21  4  1  0  0  0  0
 22 21  1  1  0  0  0
 27 14  1  0  0  0  0
 28  9  1  0  0  0  0
 28 23  1  0  0  0  0
 29 20  1  0  0  0  0
 30 32  1  0  0  0  0
 30 29  1  0  0  0  0
 31 30  1  0  0  0  0
M  END
>  <MODEL>
5

>  <REMARK>
 VINA RESULT:      -7.4      1.367      1.822
  Name = 
  1 active torsions:
  status: ('A' for Active; 'I' for Inactive)
    1  A    between atoms: C_29  and  C_30
                            x       y       z     vdW  Elec       q    Type
                         _______ _______ _______ _____ _____    ______ ____

>  <TORSDO>
F 1

$$$$
=
 OpenBabel11122410373D

 32 38  0  0  1  0  0  0  0  0999 V2000
  184.8060  177.2950  136.6550 C   0  0  2  0  0  3  0  0  0  0  0  0
  187.0230  177.8450  141.2830 C   0  0  1  0  0  3  0  0  0  0  0  0
  184.1090  178.9410  145.2530 C   0  0  0  0  0  3  0  0  0  0  0  0
  185.1240  178.6410  146.0750 C   0  0  0  0  0  3  0  0  0  0  0  0
  189.5290  177.5410  141.6810 C   0  0  2  0  0  3  0  0  0  0  0  0
  190.7420  177.7180  142.6250 C   0  0  2  0  0  3  0  0  0  0  0  0
  186.2390  178.2620  139.0280 C   0  0  0  0  0  0  0  0  0  0  0  0
  184.5940  177.8890  140.9700 C   0  0  0  0  0  2  0  0  0  0  0  0
  190.4280  176.4280  144.4810 C   0  0  1  0  0  3  0  0  0  0  0  0
  183.8680  177.1910  138.6880 C   0  0  0  0  0  2  0  0  0  0  0  0
  184.2710  178.9840  143.7570 C   0  0  0  0  0  2  0  0  0  0  0  0
  185.7290  178.4880  141.7890 C   0  0  1  0  0  3  0  0  0  0  0  0
  185.5010  178.2080  143.2730 C   0  0  1  0  0  3  0  0  0  0  0  0
  188.0010  177.9840  143.5900 C   0  0  2  0  0  3  0  0  0  0  0  0
  191.2170  175.6630  143.5200 N   0  0  0  0  0  2  0  0  0  0  0  0
  186.2940  177.5390  136.5740 C   0  0  0  0  0  2  0  0  0  0  0  0
  184.7610  178.1790  139.4790 C   0  0  2  0  0  3  0  0  0  0  0  0
  191.5890  176.5450  142.4860 N   0  0  0  0  0  2  0  0  0  0  0  0
  186.6080  178.6360  137.6020 C   0  0  0  0  0  2  0  0  0  0  0  0
  184.6910  176.3890  137.8080 N   0  0  1  0  0  0  0  0  0  0  0  0
  186.4750  178.2150  145.5640 C   0  0  0  0  0  2  0  0  0  0  0  0
  186.7150  178.6350  144.1080 C   0  0  2  0  0  3  0  0  0  0  0  0
  189.1900  178.5050  144.3800 C   0  0  0  0  0  2  0  0  0  0  0  0
  187.2050  178.1630  139.8800 N   0  0  0  0  0  0  0  0  0  0  0  0
  189.9810  177.9630  140.2920 C   0  0  0  0  0  1  0  0  0  0  0  0
  191.0560  176.3150  145.8560 C   0  0  0  0  0  1  0  0  0  0  0  0
  188.2500  178.2880  142.1130 C   0  0  2  0  0  3  0  0  0  0  0  0
  190.4350  177.8110  144.0480 N   0  0  2  0  0  0  0  0  0  0  0  0
  184.1000  176.0120  136.5150 C   0  0  2  0  0  3  0  0  0  0  0  0
  184.9170  174.9200  135.8000 C   0  0  0  0  0  3  0  0  0  0  0  0
  184.2790  174.4090  134.6660 O   0  0  0  0  0  1  0  0  0  0  0  0
  185.2290  173.8810  136.6800 O   0  0  0  0  0  1  0  0  0  0  0  0
  1 16  1  6  0  0  0
  1 20  1  0  0  0  0
  2 24  1  6  0  0  0
  2 12  1  0  0  0  0
  2 27  1  0  0  0  0
  3  4  2  0  0  0  0
  5 25  1  6  0  0  0
  5 27  1  0  0  0  0
  5  6  1  0  0  0  0
  6 18  1  1  0  0  0
  6 28  1  0  0  0  0
  7 17  1  0  0  0  0
  7 24  2  0  0  0  0
  9 26  1  1  0  0  0
 11  3  1  0  0  0  0
 12  8  1  6  0  0  0
 12 13  1  0  0  0  0
 13 11  1  1  0  0  0
 13 22  1  0  0  0  0
 14 22  1  0  0  0  0
 14 23  1  1  0  0  0
 15  9  1  0  0  0  0
 16 19  1  0  0  0  0
 17 10  1  6  0  0  0
 17  8  1  0  0  0  0
 18 15  1  0  0  0  0
 19  7  1  0  0  0  0
 20 10  1  1  0  0  0
 21  4  1  0  0  0  0
 22 21  1  1  0  0  0
 27 14  1  0  0  0  0
 28 23  1  0  0  0  0
 28  9  1  0  0  0  0
 29  1  1  0  0  0  0
 29 20  1  0  0  0  0
 30 29  1  0  0  0  0
 30 32  1  0  0  0  0
 31 30  1  0  0  0  0
M  END
>  <MODEL>
6

>  <REMARK>
 VINA RESULT:      -7.4      1.989      2.368
  Name = 
  1 active torsions:
  status: ('A' for Active; 'I' for Inactive)
    1  A    between atoms: C_29  and  C_30
                            x       y       z     vdW  Elec       q    Type
                         _______ _______ _______ _____ _____    ______ ____

>  <TORSDO>
F 1

$$$$
