=
 OpenBabel11122411013D

 31 36  0  0  1  0  0  0  0  0999 V2000
  191.8680  176.6550  138.6990 C   0  0  0  0  0  0  0  0  0  0  0  0
  188.8460  177.2380  136.4740 C   0  0  2  0  0  3  0  0  0  0  0  0
  188.3620  175.8320  136.0050 C   0  0  1  0  0  3  0  0  0  0  0  0
  188.2110  173.3590  136.3480 C   0  0  1  0  0  3  0  0  0  0  0  0
  189.7320  177.2110  137.6930 C   0  0  0  0  0  0  0  0  0  0  0  0
  191.3680  177.0030  139.9560 C   0  0  0  0  0  3  0  0  0  0  0  0
  188.5280  174.6960  137.0200 C   0  0  0  0  0  2  0  0  0  0  0  0
  186.9310  177.9550  137.9260 C   0  0  2  0  0  3  0  0  0  0  0  0
  193.1430  176.2160  138.5750 F   0  0  0  0  0  0  0  0  0  0  0  0
  186.6830  177.0270  134.5940 C   0  0  0  0  0  2  0  0  0  0  0  0
  188.3290  172.3300  137.2810 O   0  0  0  0  0  1  0  0  0  0  0  0
  187.8530  178.1500  139.1370 C   0  0  0  0  0  2  0  0  0  0  0  0
  187.7070  178.2640  136.6340 C   0  0  2  0  0  3  0  0  0  0  0  0
  191.0510  176.7570  137.5700 C   0  0  0  0  0  3  0  0  0  0  0  0
  186.7960  173.3630  135.7680 C   0  0  0  0  0  2  0  0  0  0  0  0
  189.2250  177.5550  138.9640 C   0  0  0  0  0  0  0  0  0  0  0  0
  190.0540  177.4580  140.0870 C   0  0  0  0  0  3  0  0  0  0  0  0
  186.8130  178.3370  135.3790 C   0  0  0  0  0  2  0  0  0  0  0  0
  186.9140  175.8330  135.5010 C   0  0  1  0  0  3  0  0  0  0  0  0
  186.6150  174.5220  134.7880 C   0  0  0  0  0  2  0  0  0  0  0  0
  185.4020  178.7300  139.4170 O   0  0  0  0  0  0  0  0  0  0  0  0
  184.6650  177.9940  138.5450 C   0  0  2  0  0  3  0  0  0  0  0  0
  185.7610  178.8140  138.0790 N   0  0  2  0  0  0  0  0  0  0  0  0
  181.3730  176.9280  139.3300 C   0  0  1  0  0  3  0  0  0  0  0  0
  182.6030  178.8050  139.7070 C   0  0  0  0  0  2  0  0  0  0  0  0
  183.0610  177.7950  136.2400 O   0  0  0  0  0  1  0  0  0  0  0  0
  180.9290  175.5950  139.8930 C   0  0  0  0  0  1  0  0  0  0  0  0
  182.3060  177.5190  140.2050 O   0  0  0  0  0  0  0  0  0  0  0  0
  182.4140  178.0080  137.4110 N   0  0  0  0  0  0  0  0  0  0  0  0
  183.3150  178.6980  138.3520 C   0  0  2  0  0  3  0  0  0  0  0  0
  182.0060  176.7120  137.9520 C   0  0  0  0  0  2  0  0  0  0  0  0
  1  6  1  0  0  0  0
  2 13  1  0  0  0  0
  2  5  1  1  0  0  0
  3  2  1  0  0  0  0
  3  7  1  1  0  0  0
  4  7  1  0  0  0  0
  4 11  1  1  0  0  0
  5 16  2  0  0  0  0
  6 17  2  0  0  0  0
  8 23  1  0  0  0  0
  8 12  1  1  0  0  0
  9  1  1  0  0  0  0
 10 18  1  0  0  0  0
 13 18  1  6  0  0  0
 13  8  1  0  0  0  0
 14  5  1  0  0  0  0
 14  1  2  0  0  0  0
 15  4  1  0  0  0  0
 16 12  1  0  0  0  0
 16 17  1  0  0  0  0
 19 10  1  6  0  0  0
 19  3  1  0  0  0  0
 20 19  1  0  0  0  0
 20 15  1  0  0  0  0
 22 21  1  1  0  0  0
 23 22  1  0  0  0  0
 23 21  1  1  0  0  0
 24 27  1  1  0  0  0
 24 28  1  0  0  0  0
 25 28  1  0  0  0  0
 26 29  1  0  0  0  0
 29 31  1  0  0  0  0
 29 30  1  0  0  0  0
 30 22  1  0  0  0  0
 30 25  1  1  0  0  0
 31 24  1  0  0  0  0
M  END
>  <MODEL>
1

>  <REMARK>
 VINA RESULT:      -6.5      0.000      0.000
  Name = 
  2 active torsions:
  status: ('A' for Active; 'I' for Inactive)
    1  A    between atoms: C_5  and  C_30
    2  A    between atoms: C_10  and  N_16
                            x       y       z     vdW  Elec       q    Type
                         _______ _______ _______ _____ _____    ______ ____

>  <TORSDO>
F 2

$$$$
=
 OpenBabel11122411013D

 31 36  0  0  1  0  0  0  0  0999 V2000
  182.5940  178.6370  142.6920 C   0  0  0  0  0  0  0  0  0  0  0  0
  182.4930  177.7030  139.0120 C   0  0  2  0  0  3  0  0  0  0  0  0
  181.6080  178.7760  138.3050 C   0  0  1  0  0  3  0  0  0  0  0  0
  180.6340  181.0780  138.2240 C   0  0  1  0  0  3  0  0  0  0  0  0
  183.0190  178.1270  140.3590 C   0  0  0  0  0  0  0  0  0  0  0  0
  183.9190  179.0500  142.8450 C   0  0  0  0  0  3  0  0  0  0  0  0
  181.7020  180.1960  138.8720 C   0  0  0  0  0  2  0  0  0  0  0  0
  184.7420  178.1920  138.0180 C   0  0  2  0  0  3  0  0  0  0  0  0
  181.7440  178.6840  143.7440 F   0  0  0  0  0  0  0  0  0  0  0  0
  181.8760  177.4320  136.2180 C   0  0  0  0  0  2  0  0  0  0  0  0
  180.7420  182.3780  138.7150 O   0  0  0  0  0  1  0  0  0  0  0  0
  185.3640  178.4160  139.4020 C   0  0  0  0  0  2  0  0  0  0  0  0
  183.6200  177.1450  138.1220 C   0  0  2  0  0  3  0  0  0  0  0  0
  182.1440  178.1780  141.4510 C   0  0  0  0  0  3  0  0  0  0  0  0
  180.7900  181.0920  136.7020 C   0  0  0  0  0  2  0  0  0  0  0  0
  184.3570  178.5510  140.5120 C   0  0  0  0  0  0  0  0  0  0  0  0
  184.7990  179.0010  141.7610 C   0  0  0  0  0  3  0  0  0  0  0  0
  183.0930  176.6660  136.7530 C   0  0  0  0  0  2  0  0  0  0  0  0
  181.8330  178.8360  136.7900 C   0  0  1  0  0  3  0  0  0  0  0  0
  180.7400  179.6710  136.1390 C   0  0  0  0  0  2  0  0  0  0  0  0
  186.1720  176.5070  137.4880 O   0  0  0  0  0  0  0  0  0  0  0  0
  186.9900  177.5270  137.8540 C   0  0  2  0  0  3  0  0  0  0  0  0
  185.7900  177.7800  137.0890 N   0  0  2  0  0  0  0  0  0  0  0  0
  190.4000  176.9550  138.6510 C   0  0  1  0  0  3  0  0  0  0  0  0
  188.9320  176.1300  137.1200 C   0  0  0  0  0  2  0  0  0  0  0  0
  188.5920  179.7530  137.2190 O   0  0  0  0  0  1  0  0  0  0  0  0
  191.0220  176.7530  140.0160 C   0  0  0  0  0  1  0  0  0  0  0  0
  189.4020  175.9830  138.4420 O   0  0  0  0  0  0  0  0  0  0  0  0
  189.2120  178.5490  137.2430 N   0  0  0  0  0  0  0  0  0  0  0  0
  188.2320  177.4860  136.9530 C   0  0  2  0  0  3  0  0  0  0  0  0
  189.7940  178.3590  138.5720 C   0  0  0  0  0  2  0  0  0  0  0  0
  1  6  1  0  0  0  0
  1  9  1  0  0  0  0
  2  5  1  1  0  0  0
  3  7  1  1  0  0  0
  3  2  1  0  0  0  0
  4 11  1  1  0  0  0
  4  7  1  0  0  0  0
  5 16  2  0  0  0  0
  5 14  1  0  0  0  0
  8 13  1  0  0  0  0
  8 12  1  1  0  0  0
 10 18  1  0  0  0  0
 10 19  1  0  0  0  0
 12 16  1  0  0  0  0
 13 18  1  6  0  0  0
 13  2  1  0  0  0  0
 14  1  2  0  0  0  0
 15  4  1  0  0  0  0
 16 17  1  0  0  0  0
 17  6  2  0  0  0  0
 19 20  1  6  0  0  0
 19  3  1  0  0  0  0
 20 15  1  0  0  0  0
 22 21  1  6  0  0  0
 23 21  1  1  0  0  0
 23 22  1  0  0  0  0
 23  8  1  0  0  0  0
 24 27  1  1  0  0  0
 25 28  1  0  0  0  0
 26 29  1  0  0  0  0
 28 24  1  0  0  0  0
 29 31  1  0  0  0  0
 30 25  1  1  0  0  0
 30 29  1  0  0  0  0
 30 22  1  0  0  0  0
 31 24  1  0  0  0  0
M  END
>  <MODEL>
2

>  <REMARK>
 VINA RESULT:      -5.3      3.367      7.559
  Name = 
  2 active torsions:
  status: ('A' for Active; 'I' for Inactive)
    1  A    between atoms: C_5  and  C_30
    2  A    between atoms: C_10  and  N_16
                            x       y       z     vdW  Elec       q    Type
                         _______ _______ _______ _____ _____    ______ ____

>  <TORSDO>
F 2

$$$$
=
 OpenBabel11122411013D

 31 36  0  0  1  0  0  0  0  0999 V2000
  181.3140  179.0150  140.3820 C   0  0  0  0  0  0  0  0  0  0  0  0
  184.2980  178.3560  138.1270 C   0  0  2  0  0  3  0  0  0  0  0  0
  185.5720  178.6060  138.9910 C   0  0  1  0  0  3  0  0  0  0  0  0
  186.6960  178.7190  141.2220 C   0  0  1  0  0  3  0  0  0  0  0  0
  183.0430  178.1290  138.9290 C   0  0  0  0  0  0  0  0  0  0  0  0
  180.7950  177.7300  140.5510 C   0  0  0  0  0  3  0  0  0  0  0  0
  185.4600  178.2250  140.4710 C   0  0  0  0  0  2  0  0  0  0  0  0
  184.4510  175.8840  137.7330 C   0  0  2  0  0  3  0  0  0  0  0  0
  180.7330  180.0680  141.0030 F   0  0  0  0  0  0  0  0  0  0  0  0
  186.8990  178.2010  136.9150 C   0  0  0  0  0  2  0  0  0  0  0  0
  186.6090  178.3430  142.5610 O   0  0  0  0  0  1  0  0  0  0  0  0
  183.0670  175.6460  138.3520 C   0  0  0  0  0  2  0  0  0  0  0  0
  184.4810  177.2640  137.0550 C   0  0  2  0  0  3  0  0  0  0  0  0
  182.4370  179.2150  139.5750 C   0  0  0  0  0  3  0  0  0  0  0  0
  187.9730  178.1390  140.6100 C   0  0  0  0  0  2  0  0  0  0  0  0
  182.5220  176.8290  139.1060 C   0  0  0  0  0  0  0  0  0  0  0  0
  181.3920  176.6420  139.9100 C   0  0  0  0  0  3  0  0  0  0  0  0
  185.7390  177.5030  136.1940 C   0  0  0  0  0  2  0  0  0  0  0  0
  186.8300  177.9500  138.4090 C   0  0  1  0  0  3  0  0  0  0  0  0
  188.0650  178.4810  139.1230 C   0  0  0  0  0  2  0  0  0  0  0  0
  184.9500  173.6740  137.5670 O   0  0  0  0  0  0  0  0  0  0  0  0
  186.0600  174.2960  137.0930 C   0  0  2  0  0  3  0  0  0  0  0  0
  184.7410  174.8060  136.7930 N   0  0  2  0  0  0  0  0  0  0  0  0
  189.3940  173.3770  136.3000 C   0  0  1  0  0  3  0  0  0  0  0  0
  187.4120  172.2760  136.5010 C   0  0  0  0  0  2  0  0  0  0  0  0
  186.8560  175.3290  134.5980 O   0  0  0  0  0  1  0  0  0  0  0  0
  190.6710  173.7840  137.0040 C   0  0  0  0  0  1  0  0  0  0  0  0
  188.5340  172.7440  137.2180 O   0  0  0  0  0  0  0  0  0  0  0  0
  187.4960  174.2130  135.0230 N   0  0  0  0  0  0  0  0  0  0  0  0
  186.6160  173.4580  135.9330 C   0  0  2  0  0  3  0  0  0  0  0  0
  188.7180  174.6210  135.7160 C   0  0  0  0  0  2  0  0  0  0  0  0
  1  6  1  0  0  0  0
  1  9  1  0  0  0  0
  2  5  1  1  0  0  0
  2  3  1  0  0  0  0
  3  7  1  1  0  0  0
  4 11  1  1  0  0  0
  5 16  2  0  0  0  0
  5 14  1  0  0  0  0
  7  4  1  0  0  0  0
  8 12  1  6  0  0  0
 12 16  1  0  0  0  0
 13 18  1  1  0  0  0
 13  8  1  0  0  0  0
 13  2  1  0  0  0  0
 14  1  2  0  0  0  0
 15  4  1  0  0  0  0
 16 17  1  0  0  0  0
 17  6  2  0  0  0  0
 18 10  1  0  0  0  0
 19 10  1  6  0  0  0
 19  3  1  0  0  0  0
 19 20  1  0  0  0  0
 20 15  1  0  0  0  0
 22 21  1  1  0  0  0
 23 22  1  0  0  0  0
 23 21  1  1  0  0  0
 23  8  1  0  0  0  0
 24 27  1  1  0  0  0
 24 28  1  0  0  0  0
 25 28  1  0  0  0  0
 26 29  1  0  0  0  0
 29 31  1  0  0  0  0
 29 30  1  0  0  0  0
 30 25  1  1  0  0  0
 30 22  1  0  0  0  0
 31 24  1  0  0  0  0
M  END
>  <MODEL>
3

>  <REMARK>
 VINA RESULT:      -5.2      3.341      7.174
  Name = 
  2 active torsions:
  status: ('A' for Active; 'I' for Inactive)
    1  A    between atoms: C_5  and  C_30
    2  A    between atoms: C_10  and  N_16
                            x       y       z     vdW  Elec       q    Type
                         _______ _______ _______ _____ _____    ______ ____

>  <TORSDO>
F 2

$$$$
=
 OpenBabel11122411013D

 31 36  0  0  1  0  0  0  0  0999 V2000
  188.1810  177.7890  136.6890 C   0  0  0  0  0  0  0  0  0  0  0  0
  184.7500  176.5240  135.6640 C   0  0  2  0  0  3  0  0  0  0  0  0
  184.8200  174.9670  135.7060 C   0  0  1  0  0  3  0  0  0  0  0  0
  185.8460  172.8600  136.5810 C   0  0  1  0  0  3  0  0  0  0  0  0
  185.8370  177.2120  136.4480 C   0  0  0  0  0  0  0  0  0  0  0  0
  187.9170  178.3490  137.9410 C   0  0  0  0  0  3  0  0  0  0  0  0
  185.7120  174.3680  136.7980 C   0  0  0  0  0  2  0  0  0  0  0  0
  183.1510  176.9920  137.5380 C   0  0  2  0  0  3  0  0  0  0  0  0
  189.4420  177.7950  136.1970 F   0  0  0  0  0  0  0  0  0  0  0  0
  182.4930  174.9690  134.7990 C   0  0  0  0  0  2  0  0  0  0  0  0
  186.6290  172.3120  137.5950 O   0  0  0  0  0  1  0  0  0  0  0  0
  184.1710  177.8840  138.2570 C   0  0  0  0  0  2  0  0  0  0  0  0
  183.3620  177.0920  136.0180 C   0  0  2  0  0  3  0  0  0  0  0  0
  187.1440  177.2210  135.9450 C   0  0  0  0  0  3  0  0  0  0  0  0
  184.4720  172.1870  136.5750 C   0  0  0  0  0  2  0  0  0  0  0  0
  185.5720  177.7700  137.7170 C   0  0  0  0  0  0  0  0  0  0  0  0
  186.6160  178.3450  138.4500 C   0  0  0  0  0  3  0  0  0  0  0  0
  182.2380  176.4290  135.1940 C   0  0  0  0  0  2  0  0  0  0  0  0
  183.4390  174.3060  135.7820 C   0  0  1  0  0  3  0  0  0  0  0  0
  183.5660  172.8130  135.5150 C   0  0  0  0  0  2  0  0  0  0  0  0
  181.8180  177.4600  139.3180 O   0  0  0  0  0  0  0  0  0  0  0  0
  181.2500  176.3570  138.7650 C   0  0  2  0  0  3  0  0  0  0  0  0
  181.8060  177.4000  137.9320 N   0  0  2  0  0  0  0  0  0  0  0  0
  178.9510  174.6540  140.8630 C   0  0  1  0  0  3  0  0  0  0  0  0
  179.3710  176.8300  140.3470 C   0  0  0  0  0  2  0  0  0  0  0  0
  179.3720  174.8880  137.2690 O   0  0  0  0  0  1  0  0  0  0  0  0
  179.2270  173.5280  141.8360 C   0  0  0  0  0  1  0  0  0  0  0  0
  179.7430  175.7690  141.2000 O   0  0  0  0  0  0  0  0  0  0  0  0
  178.9880  175.2760  138.5080 N   0  0  0  0  0  0  0  0  0  0  0  0
  179.7270  176.4920  138.8930 C   0  0  2  0  0  3  0  0  0  0  0  0
  179.2750  174.1870  139.4410 C   0  0  0  0  0  2  0  0  0  0  0  0
  1  6  1  0  0  0  0
  2  3  1  0  0  0  0
  2 13  1  0  0  0  0
  2  5  1  1  0  0  0
  3 19  1  0  0  0  0
  3  7  1  1  0  0  0
  4  7  1  0  0  0  0
  4 11  1  1  0  0  0
  5 16  2  0  0  0  0
  6 17  2  0  0  0  0
  8 23  1  0  0  0  0
  8 12  1  1  0  0  0
  9  1  1  0  0  0  0
 10 18  1  0  0  0  0
 13 18  1  6  0  0  0
 13  8  1  0  0  0  0
 14  5  1  0  0  0  0
 14  1  2  0  0  0  0
 15  4  1  0  0  0  0
 16 12  1  0  0  0  0
 16 17  1  0  0  0  0
 19 10  1  6  0  0  0
 20 19  1  0  0  0  0
 20 15  1  0  0  0  0
 22 30  1  0  0  0  0
 22 21  1  1  0  0  0
 23 22  1  0  0  0  0
 23 21  1  1  0  0  0
 24 28  1  0  0  0  0
 24 27  1  1  0  0  0
 25 28  1  0  0  0  0
 26 29  1  0  0  0  0
 29 30  1  0  0  0  0
 29 31  1  0  0  0  0
 30 25  1  1  0  0  0
 31 24  1  0  0  0  0
M  END
>  <MODEL>
4

>  <REMARK>
 VINA RESULT:      -5.2      2.486      3.924
  Name = 
  2 active torsions:
  status: ('A' for Active; 'I' for Inactive)
    1  A    between atoms: C_5  and  C_30
    2  A    between atoms: C_10  and  N_16
                            x       y       z     vdW  Elec       q    Type
                         _______ _______ _______ _____ _____    ______ ____

>  <TORSDO>
F 2

$$$$
=
 OpenBabel11122411013D

 31 36  0  0  1  0  0  0  0  0999 V2000
  188.0500  177.2100  136.9260 C   0  0  0  0  0  0  0  0  0  0  0  0
  184.3910  177.0100  135.9310 C   0  0  2  0  0  3  0  0  0  0  0  0
  183.9900  175.5050  136.0120 C   0  0  1  0  0  3  0  0  0  0  0  0
  184.3420  173.2090  136.9400 C   0  0  1  0  0  3  0  0  0  0  0  0
  185.6400  177.3580  136.6980 C   0  0  0  0  0  0  0  0  0  0  0  0
  187.9750  177.8530  138.1630 C   0  0  0  0  0  3  0  0  0  0  0  0
  184.6680  174.6920  137.1200 C   0  0  0  0  0  2  0  0  0  0  0  0
  183.0190  177.9820  137.7910 C   0  0  2  0  0  3  0  0  0  0  0  0
  189.2520  176.8250  136.4350 F   0  0  0  0  0  0  0  0  0  0  0  0
  181.7650  176.1840  135.1030 C   0  0  0  0  0  2  0  0  0  0  0  0
  184.9310  172.4750  137.9690 O   0  0  0  0  0  1  0  0  0  0  0  0
  184.2650  178.5430  138.4880 C   0  0  0  0  0  2  0  0  0  0  0  0
  183.2400  177.9770  136.2690 C   0  0  2  0  0  3  0  0  0  0  0  0
  186.8860  176.9610  136.1950 C   0  0  0  0  0  3  0  0  0  0  0  0
  182.8290  172.9800  136.9500 C   0  0  0  0  0  2  0  0  0  0  0  0
  185.5630  178.0010  137.9520 C   0  0  0  0  0  0  0  0  0  0  0  0
  186.7360  178.2530  138.6710 C   0  0  0  0  0  3  0  0  0  0  0  0
  181.9630  177.6620  135.4610 C   0  0  0  0  0  2  0  0  0  0  0  0
  182.4740  175.2910  136.1040 C   0  0  1  0  0  3  0  0  0  0  0  0
  182.1460  173.8230  135.8740 C   0  0  0  0  0  2  0  0  0  0  0  0
  182.2300  179.4560  139.3290 O   0  0  0  0  0  0  0  0  0  0  0  0
  181.4420  178.3630  139.4900 C   0  0  2  0  0  3  0  0  0  0  0  0
  181.8610  178.7840  138.1730 N   0  0  2  0  0  0  0  0  0  0  0  0
  179.7430  178.6530  142.5920 C   0  0  1  0  0  3  0  0  0  0  0  0
  180.0930  180.0130  140.8010 C   0  0  0  0  0  2  0  0  0  0  0  0
  179.1650  176.7100  139.5860 O   0  0  0  0  0  1  0  0  0  0  0  0
  180.2310  178.2540  143.9690 C   0  0  0  0  0  1  0  0  0  0  0  0
  180.6420  179.5780  142.0260 O   0  0  0  0  0  0  0  0  0  0  0  0
  179.1540  177.8010  140.3870 N   0  0  0  0  0  0  0  0  0  0  0  0
  180.0190  178.8450  139.8090 C   0  0  2  0  0  3  0  0  0  0  0  0
  179.6430  177.4060  141.7080 C   0  0  0  0  0  2  0  0  0  0  0  0
  1  6  1  0  0  0  0
  2  3  1  0  0  0  0
  2 13  1  0  0  0  0
  2  5  1  1  0  0  0
  3 19  1  0  0  0  0
  3  7  1  1  0  0  0
  4 15  1  0  0  0  0
  4  7  1  0  0  0  0
  4 11  1  1  0  0  0
  5 16  2  0  0  0  0
  6 17  2  0  0  0  0
  8 23  1  0  0  0  0
  8 12  1  1  0  0  0
  9  1  1  0  0  0  0
 10 18  1  0  0  0  0
 13 18  1  6  0  0  0
 13  8  1  0  0  0  0
 14  5  1  0  0  0  0
 14  1  2  0  0  0  0
 16 12  1  0  0  0  0
 16 17  1  0  0  0  0
 19 10  1  6  0  0  0
 20 19  1  0  0  0  0
 20 15  1  0  0  0  0
 22 21  1  1  0  0  0
 22 30  1  0  0  0  0
 23 21  1  1  0  0  0
 23 22  1  0  0  0  0
 24 27  1  1  0  0  0
 25 28  1  0  0  0  0
 26 29  1  0  0  0  0
 28 24  1  0  0  0  0
 29 31  1  0  0  0  0
 30 29  1  0  0  0  0
 30 25  1  1  0  0  0
 31 24  1  0  0  0  0
M  END
>  <MODEL>
5

>  <REMARK>
 VINA RESULT:      -4.9      2.783      4.155
  Name = 
  2 active torsions:
  status: ('A' for Active; 'I' for Inactive)
    1  A    between atoms: C_5  and  C_30
    2  A    between atoms: C_10  and  N_16
                            x       y       z     vdW  Elec       q    Type
                         _______ _______ _______ _____ _____    ______ ____

>  <TORSDO>
F 2

$$$$
=
 OpenBabel11122411013D

 31 36  0  0  1  0  0  0  0  0999 V2000
  180.0160  179.8010  142.4510 C   0  0  0  0  0  0  0  0  0  0  0  0
  180.6580  178.6430  138.8910 C   0  0  2  0  0  3  0  0  0  0  0  0
  182.1960  178.7520  138.6600 C   0  0  1  0  0  3  0  0  0  0  0  0
  184.5300  178.8030  139.5560 C   0  0  1  0  0  3  0  0  0  0  0  0
  180.2520  178.6250  140.3430 C   0  0  0  0  0  0  0  0  0  0  0  0
  179.6500  178.6070  143.0780 C   0  0  0  0  0  3  0  0  0  0  0  0
  183.0770  178.4530  139.8770 C   0  0  0  0  0  2  0  0  0  0  0  0
  180.3230  176.1600  138.8030 C   0  0  2  0  0  3  0  0  0  0  0  0
  180.0810  180.9480  143.1660 F   0  0  0  0  0  0  0  0  0  0  0  0
  181.7530  178.0810  136.2950 C   0  0  0  0  0  2  0  0  0  0  0  0
  185.3360  178.4990  140.6520 O   0  0  0  0  0  1  0  0  0  0  0  0
  179.6990  176.1410  140.2040 C   0  0  0  0  0  2  0  0  0  0  0  0
  179.9930  177.4930  138.1110 C   0  0  2  0  0  3  0  0  0  0  0  0
  180.3180  179.8100  141.0870 C   0  0  0  0  0  3  0  0  0  0  0  0
  185.0190  178.0280  138.3300 C   0  0  0  0  0  2  0  0  0  0  0  0
  179.8900  177.4170  140.9780 C   0  0  0  0  0  0  0  0  0  0  0  0
  179.5810  177.4220  142.3420 C   0  0  0  0  0  3  0  0  0  0  0  0
  180.3620  177.5200  136.6130 C   0  0  0  0  0  2  0  0  0  0  0  0
  182.6860  177.9060  137.4780 C   0  0  1  0  0  3  0  0  0  0  0  0
  184.1150  178.2910  137.1260 C   0  0  0  0  0  2  0  0  0  0  0  0
  180.1630  173.8940  138.7940 O   0  0  0  0  0  0  0  0  0  0  0  0
  180.9550  174.1690  137.7270 C   0  0  2  0  0  3  0  0  0  0  0  0
  179.8270  175.0140  138.0480 N   0  0  2  0  0  0  0  0  0  0  0  0
  182.9740  171.7560  136.0860 C   0  0  1  0  0  3  0  0  0  0  0  0
  180.9310  171.7500  137.0880 C   0  0  0  0  0  2  0  0  0  0  0  0
  181.1770  174.7010  134.9710 O   0  0  0  0  0  1  0  0  0  0  0  0
  184.4530  171.4910  136.2700 C   0  0  0  0  0  1  0  0  0  0  0  0
  182.3150  171.6130  137.3230 O   0  0  0  0  0  0  0  0  0  0  0  0
  181.3460  173.4130  135.3540 N   0  0  0  0  0  0  0  0  0  0  0  0
  180.6120  173.1730  136.6100 C   0  0  2  0  0  3  0  0  0  0  0  0
  182.7770  173.1750  135.5440 C   0  0  0  0  0  2  0  0  0  0  0  0
  1  6  1  0  0  0  0
  1  9  1  0  0  0  0
  2  5  1  1  0  0  0
  3  2  1  0  0  0  0
  3  7  1  1  0  0  0
  4  7  1  0  0  0  0
  4 11  1  1  0  0  0
  5 16  2  0  0  0  0
  5 14  1  0  0  0  0
  8 12  1  1  0  0  0
 10 18  1  0  0  0  0
 12 16  1  0  0  0  0
 13 18  1  6  0  0  0
 13  8  1  0  0  0  0
 13  2  1  0  0  0  0
 14  1  2  0  0  0  0
 15  4  1  0  0  0  0
 16 17  1  0  0  0  0
 17  6  2  0  0  0  0
 19 10  1  6  0  0  0
 19  3  1  0  0  0  0
 20 19  1  0  0  0  0
 20 15  1  0  0  0  0
 22 23  1  0  0  0  0
 22 21  1  1  0  0  0
 23 21  1  1  0  0  0
 23  8  1  0  0  0  0
 24 27  1  1  0  0  0
 24 28  1  0  0  0  0
 25 28  1  0  0  0  0
 26 29  1  0  0  0  0
 29 31  1  0  0  0  0
 29 30  1  0  0  0  0
 30 25  1  1  0  0  0
 30 22  1  0  0  0  0
 31 24  1  0  0  0  0
M  END
>  <MODEL>
6

>  <REMARK>
 VINA RESULT:      -4.7      4.836      8.063
  Name = 
  2 active torsions:
  status: ('A' for Active; 'I' for Inactive)
    1  A    between atoms: C_5  and  C_30
    2  A    between atoms: C_10  and  N_16
                            x       y       z     vdW  Elec       q    Type
                         _______ _______ _______ _____ _____    ______ ____

>  <TORSDO>
F 2

$$$$
=
 OpenBabel11122411013D

 31 36  0  0  1  0  0  0  0  0999 V2000
  179.9160  179.4880  142.7190 C   0  0  0  0  0  0  0  0  0  0  0  0
  182.4940  179.0660  139.9620 C   0  0  2  0  0  3  0  0  0  0  0  0
  183.8860  179.0050  140.6610 C   0  0  1  0  0  3  0  0  0  0  0  0
  185.2860  178.5280  142.6780 C   0  0  1  0  0  3  0  0  0  0  0  0
  181.3300  178.7860  140.8780 C   0  0  0  0  0  0  0  0  0  0  0  0
  179.2710  178.2500  142.6980 C   0  0  0  0  0  3  0  0  0  0  0  0
  183.9150  178.3230  142.0330 C   0  0  0  0  0  2  0  0  0  0  0  0
  182.2970  176.7360  139.0560 C   0  0  2  0  0  3  0  0  0  0  0  0
  179.5470  180.4290  143.6200 F   0  0  0  0  0  0  0  0  0  0  0  0
  184.8850  178.9430  138.3730 C   0  0  0  0  0  2  0  0  0  0  0  0
  185.3220  177.8780  143.9100 O   0  0  0  0  0  1  0  0  0  0  0  0
  180.9840  176.4970  139.8110 C   0  0  0  0  0  2  0  0  0  0  0  0
  182.4080  178.2230  138.6750 C   0  0  2  0  0  3  0  0  0  0  0  0
  180.9450  179.7550  141.8120 C   0  0  0  0  0  3  0  0  0  0  0  0
  186.3970  177.9810  141.7790 C   0  0  0  0  0  2  0  0  0  0  0  0
  180.6830  177.5310  140.8620 C   0  0  0  0  0  0  0  0  0  0  0  0
  179.6490  177.2780  141.7690 C   0  0  0  0  0  3  0  0  0  0  0  0
  183.5680  178.5270  137.7050 C   0  0  0  0  0  2  0  0  0  0  0  0
  184.9730  178.3800  139.7790 C   0  0  1  0  0  3  0  0  0  0  0  0
  186.3430  178.6280  140.3950 C   0  0  0  0  0  2  0  0  0  0  0  0
  182.5180  174.5810  138.3730 O   0  0  0  0  0  0  0  0  0  0  0  0
  183.6170  175.1980  137.8680 C   0  0  2  0  0  3  0  0  0  0  0  0
  182.3360  175.8670  137.8850 N   0  0  2  0  0  0  0  0  0  0  0  0
  186.2710  173.1000  136.7980 C   0  0  1  0  0  3  0  0  0  0  0  0
  184.0020  173.0620  136.6240 C   0  0  0  0  0  2  0  0  0  0  0  0
  185.1680  176.4250  135.8640 O   0  0  0  0  0  1  0  0  0  0  0  0
  187.4680  172.6240  137.5930 C   0  0  0  0  0  1  0  0  0  0  0  0
  185.0870  172.7050  137.4520 O   0  0  0  0  0  0  0  0  0  0  0  0
  185.1690  175.0710  135.8850 N   0  0  0  0  0  0  0  0  0  0  0  0
  183.9150  174.5880  136.4910 C   0  0  2  0  0  3  0  0  0  0  0  0
  186.3200  174.6250  136.6700 C   0  0  0  0  0  2  0  0  0  0  0  0
  1  9  1  0  0  0  0
  2  3  1  0  0  0  0
  2  5  1  1  0  0  0
  3  7  1  1  0  0  0
  4 11  1  1  0  0  0
  5 14  1  0  0  0  0
  6  1  1  0  0  0  0
  7  4  1  0  0  0  0
  8 12  1  6  0  0  0
 12 16  1  0  0  0  0
 13 18  1  6  0  0  0
 13  8  1  0  0  0  0
 13  2  1  0  0  0  0
 14  1  2  0  0  0  0
 15  4  1  0  0  0  0
 16  5  2  0  0  0  0
 16 17  1  0  0  0  0
 17  6  2  0  0  0  0
 18 10  1  0  0  0  0
 19 10  1  6  0  0  0
 19 20  1  0  0  0  0
 19  3  1  0  0  0  0
 20 15  1  0  0  0  0
 22 23  1  0  0  0  0
 22 21  1  1  0  0  0
 23 21  1  1  0  0  0
 23  8  1  0  0  0  0
 24 28  1  0  0  0  0
 24 27  1  1  0  0  0
 25 28  1  0  0  0  0
 26 29  1  0  0  0  0
 29 30  1  0  0  0  0
 29 31  1  0  0  0  0
 30 25  1  1  0  0  0
 30 22  1  0  0  0  0
 31 24  1  0  0  0  0
M  END
>  <MODEL>
7

>  <REMARK>
 VINA RESULT:      -4.7      4.102      7.761
  Name = 
  2 active torsions:
  status: ('A' for Active; 'I' for Inactive)
    1  A    between atoms: C_5  and  C_30
    2  A    between atoms: C_10  and  N_16
                            x       y       z     vdW  Elec       q    Type
                         _______ _______ _______ _____ _____    ______ ____

>  <TORSDO>
F 2

$$$$
=
 OpenBabel11122411013D

 31 36  0  0  1  0  0  0  0  0999 V2000
  181.8200  179.0120  142.4890 C   0  0  0  0  0  0  0  0  0  0  0  0
  180.9880  177.9140  138.9500 C   0  0  2  0  0  3  0  0  0  0  0  0
  180.6250  179.2070  138.1570 C   0  0  1  0  0  3  0  0  0  0  0  0
  180.7890  181.6820  137.8450 C   0  0  1  0  0  3  0  0  0  0  0  0
  181.7640  178.1640  140.2170 C   0  0  0  0  0  0  0  0  0  0  0  0
  183.1970  178.7850  142.5420 C   0  0  0  0  0  3  0  0  0  0  0  0
  181.3970  180.4700  138.5500 C   0  0  0  0  0  2  0  0  0  0  0  0
  183.1200  177.2310  137.8210 C   0  0  2  0  0  3  0  0  0  0  0  0
  181.1770  179.5340  143.5610 F   0  0  0  0  0  0  0  0  0  0  0  0
  180.0750  177.7130  136.2330 C   0  0  0  0  0  2  0  0  0  0  0  0
  181.5140  182.8260  138.1770 O   0  0  0  0  0  1  0  0  0  0  0  0
  183.8950  177.2650  139.1450 C   0  0  0  0  0  2  0  0  0  0  0  0
  181.6610  176.8270  138.0890 C   0  0  2  0  0  3  0  0  0  0  0  0
  181.1050  178.7050  141.3290 C   0  0  0  0  0  3  0  0  0  0  0  0
  180.8010  181.4910  136.3270 C   0  0  0  0  0  2  0  0  0  0  0  0
  183.1570  177.9420  140.2690 C   0  0  0  0  0  0  0  0  0  0  0  0
  183.8610  178.2450  141.4390 C   0  0  0  0  0  3  0  0  0  0  0  0
  180.8570  176.5260  136.8060 C   0  0  0  0  0  2  0  0  0  0  0  0
  180.7190  179.0250  136.6380 C   0  0  1  0  0  3  0  0  0  0  0  0
  180.0680  180.2080  135.9360 C   0  0  0  0  0  2  0  0  0  0  0  0
  184.6170  175.5270  137.6960 O   0  0  0  0  0  0  0  0  0  0  0  0
  185.2090  176.5320  137.0020 C   0  0  2  0  0  3  0  0  0  0  0  0
  183.7850  176.3070  136.9070 N   0  0  2  0  0  0  0  0  0  0  0  0
  188.6780  176.4100  136.2690 C   0  0  1  0  0  3  0  0  0  0  0  0
  186.9810  174.8960  136.3350 C   0  0  0  0  0  2  0  0  0  0  0  0
  185.8110  177.8770  134.6040 O   0  0  0  0  0  1  0  0  0  0  0  0
  189.8220  177.0350  137.0390 C   0  0  0  0  0  1  0  0  0  0  0  0
  187.9590  175.5460  137.1170 O   0  0  0  0  0  0  0  0  0  0  0  0
  186.6700  176.9000  134.9810 N   0  0  0  0  0  0  0  0  0  0  0  0
  185.9570  175.9140  135.8130 C   0  0  2  0  0  3  0  0  0  0  0  0
  187.7600  177.5150  135.7390 C   0  0  0  0  0  2  0  0  0  0  0  0
  1  6  1  0  0  0  0
  1  9  1  0  0  0  0
  2  5  1  1  0  0  0
  3  7  1  1  0  0  0
  3  2  1  0  0  0  0
  4 11  1  6  0  0  0
  4  7  1  0  0  0  0
  5 16  2  0  0  0  0
  5 14  1  0  0  0  0
  8 13  1  0  0  0  0
  8 12  1  1  0  0  0
 10 19  1  0  0  0  0
 10 18  1  0  0  0  0
 12 16  1  0  0  0  0
 13 18  1  6  0  0  0
 13  2  1  0  0  0  0
 14  1  2  0  0  0  0
 15  4  1  0  0  0  0
 16 17  1  0  0  0  0
 17  6  2  0  0  0  0
 19 20  1  6  0  0  0
 19  3  1  0  0  0  0
 20 15  1  0  0  0  0
 22 21  1  1  0  0  0
 23 22  1  0  0  0  0
 23 21  1  1  0  0  0
 23  8  1  0  0  0  0
 24 27  1  1  0  0  0
 24 28  1  0  0  0  0
 25 28  1  0  0  0  0
 26 29  1  0  0  0  0
 29 31  1  0  0  0  0
 29 30  1  0  0  0  0
 30 25  1  1  0  0  0
 30 22  1  0  0  0  0
 31 24  1  0  0  0  0
M  END
>  <MODEL>
8

>  <REMARK>
 VINA RESULT:      -4.5      3.531      7.862
  Name = 
  2 active torsions:
  status: ('A' for Active; 'I' for Inactive)
    1  A    between atoms: C_5  and  C_30
    2  A    between atoms: C_10  and  N_16
                            x       y       z     vdW  Elec       q    Type
                         _______ _______ _______ _____ _____    ______ ____

>  <TORSDO>
F 2

$$$$
=
 OpenBabel11122411013D

 31 36  0  0  1  0  0  0  0  0999 V2000
  190.8340  177.1530  141.1810 C   0  0  0  0  0  0  0  0  0  0  0  0
  190.2000  175.3960  137.8740 C   0  0  2  0  0  3  0  0  0  0  0  0
  189.0950  176.2160  137.1400 C   0  0  1  0  0  3  0  0  0  0  0  0
  187.8760  178.3660  136.7610 C   0  0  1  0  0  3  0  0  0  0  0  0
  190.9020  176.1520  138.9730 C   0  0  0  0  0  0  0  0  0  0  0  0
  192.1120  177.6790  140.9840 C   0  0  0  0  0  3  0  0  0  0  0  0
  189.1300  177.7310  137.3630 C   0  0  0  0  0  2  0  0  0  0  0  0
  192.1770  175.7950  136.3840 C   0  0  2  0  0  3  0  0  0  0  0  0
  190.1780  177.3830  142.3430 F   0  0  0  0  0  0  0  0  0  0  0  0
  189.1440  174.4500  135.3750 C   0  0  0  0  0  2  0  0  0  0  0  0
  187.9250  179.7480  136.9340 O   0  0  0  0  0  1  0  0  0  0  0  0
  193.0010  176.3720  137.5430 C   0  0  0  0  0  2  0  0  0  0  0  0
  191.2100  174.7260  136.9230 C   0  0  2  0  0  3  0  0  0  0  0  0
  190.2290  176.3930  140.1770 C   0  0  0  0  0  3  0  0  0  0  0  0
  187.7640  178.0410  135.2700 C   0  0  0  0  0  2  0  0  0  0  0  0
  192.1920  176.6900  138.7710 C   0  0  0  0  0  0  0  0  0  0  0  0
  192.7910  177.4420  139.7870 C   0  0  0  0  0  3  0  0  0  0  0  0
  190.5100  173.9120  135.8150 C   0  0  0  0  0  2  0  0  0  0  0  0
  189.0470  175.9420  135.6320 C   0  0  1  0  0  3  0  0  0  0  0  0
  187.7730  176.5300  135.0420 C   0  0  0  0  0  2  0  0  0  0  0  0
  193.6320  174.1080  135.9420 O   0  0  0  0  0  0  0  0  0  0  0  0
  194.4130  175.2180  135.9530 C   0  0  2  0  0  3  0  0  0  0  0  0
  193.0870  175.2530  135.3800 N   0  0  2  0  0  0  0  0  0  0  0  0
  197.6520  173.7770  136.1170 C   0  0  1  0  0  3  0  0  0  0  0  0
  195.8520  173.5680  134.7410 C   0  0  0  0  0  2  0  0  0  0  0  0
  196.4200  177.1070  135.3780 O   0  0  0  0  0  1  0  0  0  0  0  0
  198.3680  173.2160  137.3270 C   0  0  0  0  0  1  0  0  0  0  0  0
  196.4290  173.1000  135.9400 O   0  0  0  0  0  0  0  0  0  0  0  0
  196.7260  175.8090  135.1420 N   0  0  0  0  0  0  0  0  0  0  0  0
  195.4890  175.0540  134.8700 C   0  0  2  0  0  3  0  0  0  0  0  0
  197.4020  175.2740  136.3240 C   0  0  0  0  0  2  0  0  0  0  0  0
  1  9  1  0  0  0  0
  2  5  1  1  0  0  0
  3  7  1  6  0  0  0
  3  2  1  0  0  0  0
  4 11  1  6  0  0  0
  4  7  1  0  0  0  0
  5 14  1  0  0  0  0
  6  1  1  0  0  0  0
  8 13  1  0  0  0  0
  8 12  1  1  0  0  0
 10 19  1  0  0  0  0
 10 18  1  0  0  0  0
 12 16  1  0  0  0  0
 13 18  1  6  0  0  0
 13  2  1  0  0  0  0
 14  1  2  0  0  0  0
 15  4  1  0  0  0  0
 16  5  2  0  0  0  0
 16 17  1  0  0  0  0
 17  6  2  0  0  0  0
 19 20  1  1  0  0  0
 19  3  1  0  0  0  0
 20 15  1  0  0  0  0
 22 21  1  1  0  0  0
 23 21  1  1  0  0  0
 23 22  1  0  0  0  0
 23  8  1  0  0  0  0
 24 31  1  0  0  0  0
 24 27  1  1  0  0  0
 25 28  1  0  0  0  0
 28 24  1  0  0  0  0
 29 26  1  0  0  0  0
 29 31  1  0  0  0  0
 30 25  1  1  0  0  0
 30 29  1  0  0  0  0
 30 22  1  0  0  0  0
M  END
>  <MODEL>
9

>  <REMARK>
 VINA RESULT:      -4.4      4.780      8.970
  Name = 
  2 active torsions:
  status: ('A' for Active; 'I' for Inactive)
    1  A    between atoms: C_5  and  C_30
    2  A    between atoms: C_10  and  N_16
                            x       y       z     vdW  Elec       q    Type
                         _______ _______ _______ _____ _____    ______ ____

>  <TORSDO>
F 2

$$$$
