=
 OpenBabel11122412003D

 28 32  0  0  1  0  0  0  0  0999 V2000
  181.5730  178.5900  139.3790 N   0  0  2  0  0  0  0  0  0  0  0  0
  183.7830  176.0710  138.3990 O   0  0  0  0  0  0  0  0  0  0  0  0
  186.0680  177.5900  143.8280 O   0  0  0  0  0  0  0  0  0  0  0  0
  181.5430  181.3250  138.4000 C   0  0  0  0  0  2  0  0  0  0  0  0
  186.8300  178.2300  141.6990 N   0  0  0  0  0  0  0  0  0  0  0  0
  181.4360  177.5600  140.4260 C   0  0  0  0  0  2  0  0  0  0  0  0
  183.6310  177.6390  136.5030 O   0  0  0  0  0  0  0  0  0  0  0  0
  184.4880  177.1610  137.6410 S   0  0  0  0  0  0  0  0  0  0  0  0
  187.0920  177.7230  137.0760 C   0  0  2  0  0  3  0  0  0  0  0  0
  184.9170  178.5130  138.7020 C   0  0  2  0  0  3  0  0  0  0  0  0
  181.8660  179.1380  143.9480 C   0  0  0  0  0  1  0  0  0  0  0  0
  184.8800  179.3810  140.9450 C   0  0  2  0  0  3  0  0  0  0  0  0
  187.3580  178.2800  138.4210 N   0  0  0  0  0  2  0  0  0  0  0  0
  186.0660  176.5740  137.0390 C   0  0  0  0  0  2  0  0  0  0  0  0
  182.2560  178.8130  142.5200 C   0  0  1  0  0  3  0  0  0  0  0  0
  182.7080  179.4920  139.6460 C   0  0  2  0  0  3  0  0  0  0  0  0
  185.8640  178.1670  142.7270 C   0  0  0  0  0  0  0  0  0  0  0  0
  188.3930  177.2610  136.4550 C   0  0  0  0  0  1  0  0  0  0  0  0
  183.4640  177.9930  142.5090 N   0  0  0  0  0  2  0  0  0  0  0  0
  182.8460  180.5520  138.5450 C   0  0  0  0  0  2  0  0  0  0  0  0
  180.3250  179.3560  139.3010 C   0  0  0  0  0  2  0  0  0  0  0  0
  180.3900  180.3610  138.1570 C   0  0  0  0  0  2  0  0  0  0  0  0
  181.0970  178.0930  141.8320 C   0  0  0  0  0  2  0  0  0  0  0  0
  186.3360  179.0120  140.5810 C   0  0  2  0  0  3  0  0  0  0  0  0
  184.6160  178.8880  142.3950 C   0  0  2  0  0  3  0  0  0  0  0  0
  186.2240  178.1390  139.3430 C   0  0  1  0  0  3  0  0  0  0  0  0
  188.1990  177.7560  141.8210 C   0  0  0  0  0  1  0  0  0  0  0  0
  184.0060  178.7060  139.8910 C   0  0  1  0  0  3  0  0  0  0  0  0
  1 21  1  1  0  0  0
  1 16  1  0  0  0  0
  1  6  1  0  0  0  0
  4 20  1  0  0  0  0
  5 27  1  0  0  0  0
  5 17  1  0  0  0  0
  6 23  1  0  0  0  0
  7  8  2  0  0  0  0
  8  2  2  0  0  0  0
  9 18  1  1  0  0  0
  9 13  1  0  0  0  0
 10  8  1  6  0  0  0
 10 26  1  0  0  0  0
 10 28  1  0  0  0  0
 12 25  1  0  0  0  0
 13 26  1  0  0  0  0
 14  9  1  0  0  0  0
 14  8  1  0  0  0  0
 15 11  1  0  0  0  0
 16 28  1  0  0  0  0
 17  3  2  0  0  0  0
 19 15  1  0  0  0  0
 20 16  1  0  0  0  0
 22  4  1  0  0  0  0
 22 21  1  0  0  0  0
 23 15  1  0  0  0  0
 24 12  1  0  0  0  0
 24  5  1  0  0  0  0
 25 19  1  0  0  0  0
 25 17  1  0  0  0  0
 26 24  1  0  0  0  0
 28 12  1  0  0  0  0
M  END
>  <MODEL>
1

>  <REMARK>
 VINA RESULT:      -5.8      0.000      0.000
  Name = 
  0 active torsions:
  status: ('A' for Active; 'I' for Inactive)
                            x       y       z     vdW  Elec       q    Type
                         _______ _______ _______ _____ _____    ______ ____

>  <TORSDO>
F 0

$$$$
=
 OpenBabel11122412003D

 28 32  0  0  1  0  0  0  0  0999 V2000
  180.7290  176.8130  137.4780 N   0  0  2  0  0  0  0  0  0  0  0  0
  183.8250  175.2480  137.8680 O   0  0  0  0  0  0  0  0  0  0  0  0
  183.4960  178.4920  143.0030 O   0  0  0  0  0  0  0  0  0  0  0  0
  180.1590  179.0890  135.7630 C   0  0  0  0  0  2  0  0  0  0  0  0
  184.6920  178.9910  141.0420 N   0  0  0  0  0  0  0  0  0  0  0  0
  180.5810  176.0190  138.7120 C   0  0  0  0  0  2  0  0  0  0  0  0
  183.8370  176.2600  135.6210 O   0  0  0  0  0  0  0  0  0  0  0  0
  184.3570  176.3730  137.0250 S   0  0  0  0  0  0  0  0  0  0  0  0
  186.6690  177.8110  136.9920 C   0  0  2  0  0  3  0  0  0  0  0  0
  183.9380  177.9500  137.7140 C   0  0  2  0  0  3  0  0  0  0  0  0
  179.2470  178.2400  141.6040 C   0  0  0  0  0  1  0  0  0  0  0  0
  182.8590  179.1180  139.5200 C   0  0  2  0  0  3  0  0  0  0  0  0
  186.2640  178.6590  138.1360 N   0  0  0  0  0  2  0  0  0  0  0  0
  186.1450  176.3630  137.0390 C   0  0  0  0  0  2  0  0  0  0  0  0
  180.1850  177.8470  140.4810 C   0  0  1  0  0  3  0  0  0  0  0  0
  181.3500  178.1240  137.7440 C   0  0  2  0  0  3  0  0  0  0  0  0
  183.5070  178.7340  141.7660 C   0  0  0  0  0  0  0  0  0  0  0  0
  188.1790  177.8010  136.8810 C   0  0  0  0  0  1  0  0  0  0  0  0
  181.5190  177.5860  141.0140 N   0  0  0  0  0  2  0  0  0  0  0  0
  181.5090  178.9360  136.4520 C   0  0  0  0  0  2  0  0  0  0  0  0
  179.4080  176.9940  136.8680 C   0  0  0  0  0  2  0  0  0  0  0  0
  179.5340  177.7200  135.5340 C   0  0  0  0  0  2  0  0  0  0  0  0
  179.6290  176.6160  139.7670 C   0  0  0  0  0  2  0  0  0  0  0  0
  184.3880  179.2980  139.6570 C   0  0  2  0  0  3  0  0  0  0  0  0
  182.2880  178.8290  140.9350 C   0  0  2  0  0  3  0  0  0  0  0  0
  184.9930  178.2470  138.7440 C   0  0  1  0  0  3  0  0  0  0  0  0
  186.0110  179.1290  141.6370 C   0  0  0  0  0  1  0  0  0  0  0  0
  182.6650  177.9750  138.5260 C   0  0  1  0  0  3  0  0  0  0  0  0
  1 21  1  1  0  0  0
  1 16  1  0  0  0  0
  1  6  1  0  0  0  0
  4 20  1  0  0  0  0
  5 27  1  0  0  0  0
  5 17  1  0  0  0  0
  6 23  1  0  0  0  0
  7  8  2  0  0  0  0
  8 14  1  0  0  0  0
  8  2  2  0  0  0  0
  9 18  1  1  0  0  0
  9 14  1  0  0  0  0
  9 13  1  0  0  0  0
 10  8  1  1  0  0  0
 10 28  1  0  0  0  0
 10 26  1  0  0  0  0
 12 24  1  0  0  0  0
 12 25  1  0  0  0  0
 13 26  1  0  0  0  0
 15 19  1  0  0  0  0
 15 11  1  0  0  0  0
 16 28  1  0  0  0  0
 17  3  2  0  0  0  0
 20 16  1  0  0  0  0
 22  4  1  0  0  0  0
 22 21  1  0  0  0  0
 23 15  1  0  0  0  0
 24  5  1  0  0  0  0
 25 19  1  0  0  0  0
 25 17  1  0  0  0  0
 26 24  1  0  0  0  0
 28 12  1  0  0  0  0
M  END
>  <MODEL>
2

>  <REMARK>
 VINA RESULT:      -5.8      1.926      2.454
  Name = 
  0 active torsions:
  status: ('A' for Active; 'I' for Inactive)
                            x       y       z     vdW  Elec       q    Type
                         _______ _______ _______ _____ _____    ______ ____

>  <TORSDO>
F 0

$$$$
=
 OpenBabel11122412003D

 28 32  0  0  1  0  0  0  0  0999 V2000
  181.8740  176.0510  137.5920 N   0  0  2  0  0  0  0  0  0  0  0  0
  184.6830  174.0130  137.9680 O   0  0  0  0  0  0  0  0  0  0  0  0
  186.1320  178.6870  141.5830 O   0  0  0  0  0  0  0  0  0  0  0  0
  181.2730  177.7410  135.3060 C   0  0  0  0  0  2  0  0  0  0  0  0
  186.8790  178.2530  139.3960 N   0  0  0  0  0  0  0  0  0  0  0  0
  181.9060  175.7410  139.0330 C   0  0  0  0  0  2  0  0  0  0  0  0
  184.3090  174.2380  135.5430 O   0  0  0  0  0  0  0  0  0  0  0  0
  185.1660  174.6610  136.7010 S   0  0  0  0  0  0  0  0  0  0  0  0
  187.5990  175.4380  135.7550 C   0  0  2  0  0  3  0  0  0  0  0  0
  185.1830  176.4260  136.8440 C   0  0  2  0  0  3  0  0  0  0  0  0
  181.6860  179.0030  141.1290 C   0  0  0  0  0  1  0  0  0  0  0  0
  184.7740  178.3190  138.2730 C   0  0  2  0  0  3  0  0  0  0  0  0
  187.6240  176.6710  136.5740 N   0  0  0  0  0  2  0  0  0  0  0  0
  186.8790  174.2410  136.4060 C   0  0  0  0  0  2  0  0  0  0  0  0
  182.2480  178.0710  140.0740 C   0  0  1  0  0  3  0  0  0  0  0  0
  182.7410  177.1970  137.2610 C   0  0  2  0  0  3  0  0  0  0  0  0
  185.8800  178.5190  140.3590 C   0  0  0  0  0  0  0  0  0  0  0  0
  189.0150  175.0430  135.3940 C   0  0  0  0  0  1  0  0  0  0  0  0
  183.6130  177.6870  140.4250 N   0  0  0  0  0  2  0  0  0  0  0  0
  182.7080  177.5030  135.7570 C   0  0  0  0  0  2  0  0  0  0  0  0
  180.4910  176.3330  137.1980 C   0  0  0  0  0  2  0  0  0  0  0  0
  180.4020  176.5540  135.6920 C   0  0  0  0  0  2  0  0  0  0  0  0
  181.3470  176.8420  139.9550 C   0  0  0  0  0  2  0  0  0  0  0  0
  186.3000  178.1720  138.0690 C   0  0  2  0  0  3  0  0  0  0  0  0
  184.5270  178.6290  139.7750 C   0  0  2  0  0  3  0  0  0  0  0  0
  186.4900  176.7780  137.5000 C   0  0  1  0  0  3  0  0  0  0  0  0
  188.3070  178.2600  139.6640 C   0  0  0  0  0  1  0  0  0  0  0  0
  184.1660  176.9990  137.8020 C   0  0  1  0  0  3  0  0  0  0  0  0
  1 21  1  1  0  0  0
  1  6  1  0  0  0  0
  4 22  1  0  0  0  0
  4 20  1  0  0  0  0
  5 27  1  0  0  0  0
  5 17  1  0  0  0  0
  6 23  1  0  0  0  0
  7  8  2  0  0  0  0
  8  2  2  0  0  0  0
  9 18  1  1  0  0  0
  9 14  1  0  0  0  0
  9 13  1  0  0  0  0
 10  8  1  1  0  0  0
 10 26  1  0  0  0  0
 10 28  1  0  0  0  0
 12 25  1  0  0  0  0
 13 26  1  0  0  0  0
 14  8  1  0  0  0  0
 15 19  1  0  0  0  0
 15 11  1  0  0  0  0
 16  1  1  0  0  0  0
 16 28  1  0  0  0  0
 17  3  2  0  0  0  0
 20 16  1  0  0  0  0
 22 21  1  0  0  0  0
 23 15  1  0  0  0  0
 24 12  1  0  0  0  0
 24  5  1  0  0  0  0
 25 17  1  0  0  0  0
 25 19  1  0  0  0  0
 26 24  1  0  0  0  0
 28 12  1  0  0  0  0
M  END
>  <MODEL>
3

>  <REMARK>
 VINA RESULT:      -5.3      2.407      2.934
  Name = 
  0 active torsions:
  status: ('A' for Active; 'I' for Inactive)
                            x       y       z     vdW  Elec       q    Type
                         _______ _______ _______ _____ _____    ______ ____

>  <TORSDO>
F 0

$$$$
=
 OpenBabel11122412003D

 28 32  0  0  1  0  0  0  0  0999 V2000
  182.7650  175.4530  137.3360 N   0  0  2  0  0  0  0  0  0  0  0  0
  185.3080  173.2550  138.2810 O   0  0  0  0  0  0  0  0  0  0  0  0
  188.0330  178.6290  139.1140 O   0  0  0  0  0  0  0  0  0  0  0  0
  181.9440  176.0620  134.6160 C   0  0  0  0  0  2  0  0  0  0  0  0
  188.2690  177.1430  137.3070 N   0  0  0  0  0  0  0  0  0  0  0  0
  183.0430  175.8030  138.7420 C   0  0  0  0  0  2  0  0  0  0  0  0
  184.4910  172.4720  136.0920 O   0  0  0  0  0  0  0  0  0  0  0  0
  185.6080  173.1720  136.8110 S   0  0  0  0  0  0  0  0  0  0  0  0
  187.8840  172.9420  135.3330 C   0  0  2  0  0  3  0  0  0  0  0  0
  185.8800  174.7780  136.1150 C   0  0  2  0  0  3  0  0  0  0  0  0
  183.6640  179.6200  139.0940 C   0  0  0  0  0  1  0  0  0  0  0  0
  186.0090  177.1430  136.5400 C   0  0  2  0  0  3  0  0  0  0  0  0
  188.2290  174.3750  135.4750 N   0  0  0  0  0  2  0  0  0  0  0  0
  187.1600  172.3240  136.5440 C   0  0  0  0  0  2  0  0  0  0  0  0
  183.8810  178.2280  138.5340 C   0  0  1  0  0  3  0  0  0  0  0  0
  183.6890  176.1350  136.4110 C   0  0  2  0  0  3  0  0  0  0  0  0
  187.5240  178.0000  138.1470 C   0  0  0  0  0  0  0  0  0  0  0  0
  189.1370  172.1480  135.0310 C   0  0  0  0  0  1  0  0  0  0  0  0
  185.2270  177.7650  138.8590 N   0  0  0  0  0  2  0  0  0  0  0  0
  183.3970  175.7550  134.9540 C   0  0  0  0  0  2  0  0  0  0  0  0
  181.3790  175.8120  137.0230 C   0  0  0  0  0  2  0  0  0  0  0  0
  181.0220  175.3680  135.6090 C   0  0  0  0  0  2  0  0  0  0  0  0
  182.8240  177.2840  139.1060 C   0  0  0  0  0  2  0  0  0  0  0  0
  187.4320  176.6130  136.2480 C   0  0  2  0  0  3  0  0  0  0  0  0
  186.1070  178.1200  137.7430 C   0  0  2  0  0  3  0  0  0  0  0  0
  187.3250  175.1040  136.3730 C   0  0  1  0  0  3  0  0  0  0  0  0
  189.7110  176.9740  137.3700 C   0  0  0  0  0  1  0  0  0  0  0  0
  185.1560  175.9060  136.8100 C   0  0  1  0  0  3  0  0  0  0  0  0
  1 21  1  6  0  0  0
  1  6  1  0  0  0  0
  4 20  1  0  0  0  0
  4 22  1  0  0  0  0
  5 27  1  0  0  0  0
  5 17  1  0  0  0  0
  6 23  1  0  0  0  0
  7  8  2  0  0  0  0
  8  2  2  0  0  0  0
  9 18  1  1  0  0  0
  9 13  1  0  0  0  0
  9 14  1  0  0  0  0
 10 26  1  0  0  0  0
 10 28  1  0  0  0  0
 10  8  1  1  0  0  0
 12 28  1  0  0  0  0
 12 25  1  0  0  0  0
 13 26  1  0  0  0  0
 14  8  1  0  0  0  0
 15 19  1  0  0  0  0
 15 11  1  0  0  0  0
 15 23  1  0  0  0  0
 16 28  1  0  0  0  0
 16  1  1  0  0  0  0
 17  3  2  0  0  0  0
 20 16  1  0  0  0  0
 22 21  1  0  0  0  0
 24 26  1  0  0  0  0
 24 12  1  0  0  0  0
 24  5  1  0  0  0  0
 25 17  1  0  0  0  0
 25 19  1  0  0  0  0
M  END
>  <MODEL>
4

>  <REMARK>
 VINA RESULT:      -5.2      3.297      4.765
  Name = 
  0 active torsions:
  status: ('A' for Active; 'I' for Inactive)
                            x       y       z     vdW  Elec       q    Type
                         _______ _______ _______ _____ _____    ______ ____

>  <TORSDO>
F 0

$$$$
=
 OpenBabel11122412003D

 28 32  0  0  1  0  0  0  0  0999 V2000
  181.8700  177.7350  137.9900 N   0  0  2  0  0  0  0  0  0  0  0  0
  180.5850  180.4180  139.8170 O   0  0  0  0  0  0  0  0  0  0  0  0
  186.2250  180.0610  142.0670 O   0  0  0  0  0  0  0  0  0  0  0  0
  181.2960  174.9220  138.4360 C   0  0  0  0  0  2  0  0  0  0  0  0
  184.2280  179.2630  143.0160 N   0  0  0  0  0  0  0  0  0  0  0  0
  182.7540  178.8640  137.6460 C   0  0  0  0  0  2  0  0  0  0  0  0
  178.9330  178.5980  140.0000 O   0  0  0  0  0  0  0  0  0  0  0  0
  180.0080  179.3620  140.7190 S   0  0  0  0  0  0  0  0  0  0  0  0
  179.5870  179.1580  143.4010 C   0  0  2  0  0  3  0  0  0  0  0  0
  181.2620  178.2590  141.3070 C   0  0  2  0  0  3  0  0  0  0  0  0
  186.4760  177.8820  138.1600 C   0  0  0  0  0  1  0  0  0  0  0  0
  183.6070  177.7170  141.3070 C   0  0  2  0  0  3  0  0  0  0  0  0
  181.0050  178.8440  143.6910 N   0  0  0  0  0  2  0  0  0  0  0  0
  179.3630  180.1090  142.2100 C   0  0  0  0  0  2  0  0  0  0  0  0
  185.0250  178.0650  138.5590 C   0  0  1  0  0  3  0  0  0  0  0  0
  182.2900  177.0750  139.2400 C   0  0  2  0  0  3  0  0  0  0  0  0
  185.2150  179.3100  142.0060 C   0  0  0  0  0  0  0  0  0  0  0  0
  178.9350  179.7340  144.6400 C   0  0  0  0  0  1  0  0  0  0  0  0
  184.9210  179.0610  139.6210 N   0  0  0  0  0  2  0  0  0  0  0  0
  181.3570  175.9090  139.5930 C   0  0  0  0  0  2  0  0  0  0  0  0
  181.8770  176.7730  136.8840 C   0  0  0  0  0  2  0  0  0  0  0  0
  180.8910  175.6430  137.1570 C   0  0  0  0  0  2  0  0  0  0  0  0
  184.2140  178.4840  137.3330 C   0  0  0  0  0  2  0  0  0  0  0  0
  183.2240  178.2640  142.7020 C   0  0  2  0  0  3  0  0  0  0  0  0
  184.9630  178.3570  140.9040 C   0  0  2  0  0  3  0  0  0  0  0  0
  181.8710  178.9260  142.5090 C   0  0  1  0  0  3  0  0  0  0  0  0
  184.3110  179.9650  144.2850 C   0  0  0  0  0  1  0  0  0  0  0  0
  182.4460  178.0880  140.3860 C   0  0  1  0  0  3  0  0  0  0  0  0
  1 21  1  6  0  0  0
  1 16  1  0  0  0  0
  2  8  2  0  0  0  0
  4 20  1  0  0  0  0
  5 27  1  0  0  0  0
  6  1  1  0  0  0  0
  7  8  2  0  0  0  0
  8 14  1  0  0  0  0
  9 13  1  0  0  0  0
  9 18  1  1  0  0  0
 10  8  1  6  0  0  0
 10 26  1  0  0  0  0
 11 15  1  0  0  0  0
 12 24  1  0  0  0  0
 14  9  1  0  0  0  0
 15 19  1  0  0  0  0
 16 20  1  0  0  0  0
 16 28  1  0  0  0  0
 17  3  2  0  0  0  0
 17  5  1  0  0  0  0
 19 25  1  0  0  0  0
 21 22  1  0  0  0  0
 22  4  1  0  0  0  0
 23  6  1  0  0  0  0
 23 15  1  0  0  0  0
 24  5  1  0  0  0  0
 25 12  1  0  0  0  0
 25 17  1  0  0  0  0
 26 24  1  0  0  0  0
 26 13  1  0  0  0  0
 28 12  1  0  0  0  0
 28 10  1  0  0  0  0
M  END
>  <MODEL>
5

>  <REMARK>
 VINA RESULT:      -5.0      2.758      5.615
  Name = 
  0 active torsions:
  status: ('A' for Active; 'I' for Inactive)
                            x       y       z     vdW  Elec       q    Type
                         _______ _______ _______ _____ _____    ______ ____

>  <TORSDO>
F 0

$$$$
=
 OpenBabel11122412003D

 28 32  0  0  1  0  0  0  0  0999 V2000
  181.5040  175.0680  137.6180 N   0  0  2  0  0  0  0  0  0  0  0  0
  184.5370  173.3820  138.0000 O   0  0  0  0  0  0  0  0  0  0  0  0
  185.9740  178.8840  140.1580 O   0  0  0  0  0  0  0  0  0  0  0  0
  180.4150  176.1040  135.1310 C   0  0  0  0  0  2  0  0  0  0  0  0
  186.4510  177.9830  138.0400 N   0  0  0  0  0  0  0  0  0  0  0  0
  181.7680  175.1220  139.0680 C   0  0  0  0  0  2  0  0  0  0  0  0
  183.8070  172.9820  135.6800 O   0  0  0  0  0  0  0  0  0  0  0  0
  184.7680  173.7330  136.5560 S   0  0  0  0  0  0  0  0  0  0  0  0
  186.9500  174.4210  135.0800 C   0  0  2  0  0  3  0  0  0  0  0  0
  184.6180  175.4760  136.2840 C   0  0  2  0  0  3  0  0  0  0  0  0
  181.4990  178.7730  140.3620 C   0  0  0  0  0  1  0  0  0  0  0  0
  184.2150  177.6270  137.2850 C   0  0  2  0  0  3  0  0  0  0  0  0
  186.9580  175.8160  135.5770 N   0  0  0  0  0  2  0  0  0  0  0  0
  186.4570  173.3720  136.0960 C   0  0  0  0  0  2  0  0  0  0  0  0
  182.0050  177.6530  139.4750 C   0  0  1  0  0  3  0  0  0  0  0  0
  182.1900  176.1550  136.8970 C   0  0  2  0  0  3  0  0  0  0  0  0
  185.5730  178.4060  139.0630 C   0  0  0  0  0  0  0  0  0  0  0  0
  188.3350  174.0490  134.5970 C   0  0  0  0  0  1  0  0  0  0  0  0
  183.4370  177.4610  139.6810 N   0  0  0  0  0  2  0  0  0  0  0  0
  181.9160  176.0820  135.3890 C   0  0  0  0  0  2  0  0  0  0  0  0
  180.0570  175.1490  137.3960 C   0  0  0  0  0  2  0  0  0  0  0  0
  179.7360  174.9890  135.9150 C   0  0  0  0  0  2  0  0  0  0  0  0
  181.2300  176.3730  139.7880 C   0  0  0  0  0  2  0  0  0  0  0  0
  185.7040  177.5410  136.8770 C   0  0  2  0  0  3  0  0  0  0  0  0
  184.1470  178.2770  138.6940 C   0  0  2  0  0  3  0  0  0  0  0  0
  185.9590  176.0660  136.6220 C   0  0  1  0  0  3  0  0  0  0  0  0
  187.8940  178.1540  138.0670 C   0  0  0  0  0  1  0  0  0  0  0  0
  183.6900  176.1940  137.2340 C   0  0  1  0  0  3  0  0  0  0  0  0
  1 21  1  1  0  0  0
  1  6  1  0  0  0  0
  4 20  1  0  0  0  0
  4 22  1  0  0  0  0
  5 27  1  0  0  0  0
  5 17  1  0  0  0  0
  6 23  1  0  0  0  0
  7  8  2  0  0  0  0
  8  2  2  0  0  0  0
  9 18  1  1  0  0  0
  9 13  1  0  0  0  0
  9 14  1  0  0  0  0
 10  8  1  1  0  0  0
 10 26  1  0  0  0  0
 10 28  1  0  0  0  0
 12 25  1  0  0  0  0
 13 26  1  0  0  0  0
 14  8  1  0  0  0  0
 15 19  1  0  0  0  0
 15 23  1  0  0  0  0
 15 11  1  0  0  0  0
 16 28  1  0  0  0  0
 16  1  1  0  0  0  0
 17  3  2  0  0  0  0
 20 16  1  0  0  0  0
 22 21  1  0  0  0  0
 24 12  1  0  0  0  0
 24  5  1  0  0  0  0
 25 17  1  0  0  0  0
 25 19  1  0  0  0  0
 26 24  1  0  0  0  0
 28 12  1  0  0  0  0
M  END
>  <MODEL>
6

>  <REMARK>
 VINA RESULT:      -4.7      3.061      4.007
  Name = 
  0 active torsions:
  status: ('A' for Active; 'I' for Inactive)
                            x       y       z     vdW  Elec       q    Type
                         _______ _______ _______ _____ _____    ______ ____

>  <TORSDO>
F 0

$$$$
=
 OpenBabel11122412003D

 28 32  0  0  1  0  0  0  0  0999 V2000
  181.4890  175.6210  136.9080 N   0  0  2  0  0  0  0  0  0  0  0  0
  184.1940  176.5980  134.9290 O   0  0  0  0  0  0  0  0  0  0  0  0
  184.9410  170.5620  135.0400 O   0  0  0  0  0  0  0  0  0  0  0  0
  181.3030  175.8560  139.7980 C   0  0  0  0  0  2  0  0  0  0  0  0
  186.0730  172.1910  136.3010 N   0  0  0  0  0  0  0  0  0  0  0  0
  181.2610  174.9380  135.6210 C   0  0  0  0  0  2  0  0  0  0  0  0
  184.2640  178.0120  136.9460 O   0  0  0  0  0  0  0  0  0  0  0  0
  184.8950  176.8490  136.2340 S   0  0  0  0  0  0  0  0  0  0  0  0
  187.4550  176.5630  137.1180 C   0  0  2  0  0  3  0  0  0  0  0  0
  184.8770  175.4100  137.2660 C   0  0  2  0  0  3  0  0  0  0  0  0
  180.6490  171.1460  136.1850 C   0  0  0  0  0  1  0  0  0  0  0  0
  184.2060  173.1080  137.4710 C   0  0  2  0  0  3  0  0  0  0  0  0
  187.3250  175.1000  137.2980 N   0  0  0  0  0  2  0  0  0  0  0  0
  186.6350  177.1510  135.9530 C   0  0  0  0  0  2  0  0  0  0  0  0
  181.3980  172.4580  136.2990 C   0  0  1  0  0  3  0  0  0  0  0  0
  182.3960  174.8530  137.7810 C   0  0  2  0  0  3  0  0  0  0  0  0
  184.9160  171.4970  135.8850 C   0  0  0  0  0  0  0  0  0  0  0  0
  188.9150  176.9230  136.9440 C   0  0  0  0  0  1  0  0  0  0  0  0
  182.6780  172.3640  135.6040 N   0  0  0  0  0  2  0  0  0  0  0  0
  182.6340  175.5780  139.1120 C   0  0  0  0  0  2  0  0  0  0  0  0
  180.1990  175.8230  137.5730 C   0  0  0  0  0  2  0  0  0  0  0  0
  180.3820  176.6220  138.8580 C   0  0  0  0  0  2  0  0  0  0  0  0
  180.5390  173.5800  135.7160 C   0  0  0  0  0  2  0  0  0  0  0  0
  185.7450  173.1650  137.3240 C   0  0  2  0  0  3  0  0  0  0  0  0
  183.6890  171.9480  136.5770 C   0  0  2  0  0  3  0  0  0  0  0  0
  186.0420  174.5680  136.8240 C   0  0  1  0  0  3  0  0  0  0  0  0
  187.4300  171.8420  135.9120 C   0  0  0  0  0  1  0  0  0  0  0  0
  183.7010  174.4870  137.0540 C   0  0  1  0  0  3  0  0  0  0  0  0
  1  6  1  6  0  0  0
  1 21  1  0  0  0  0
  1 16  1  0  0  0  0
  2  8  2  0  0  0  0
  3 17  2  0  0  0  0
  5 24  1  0  0  0  0
  6 23  1  0  0  0  0
  8  7  2  0  0  0  0
  9 18  1  6  0  0  0
  9 13  1  0  0  0  0
 10  8  1  6  0  0  0
 11 15  1  0  0  0  0
 14  8  1  0  0  0  0
 14  9  1  0  0  0  0
 16 20  1  0  0  0  0
 17  5  1  0  0  0  0
 17 25  1  0  0  0  0
 19 15  1  0  0  0  0
 19 25  1  0  0  0  0
 20  4  1  0  0  0  0
 21 22  1  0  0  0  0
 22  4  1  0  0  0  0
 23 15  1  0  0  0  0
 24 12  1  0  0  0  0
 25 12  1  0  0  0  0
 26 10  1  0  0  0  0
 26 13  1  0  0  0  0
 26 24  1  0  0  0  0
 27  5  1  0  0  0  0
 28 10  1  0  0  0  0
 28 12  1  0  0  0  0
 28 16  1  0  0  0  0
M  END
>  <MODEL>
7

>  <REMARK>
 VINA RESULT:      -4.7      4.273      6.338
  Name = 
  0 active torsions:
  status: ('A' for Active; 'I' for Inactive)
                            x       y       z     vdW  Elec       q    Type
                         _______ _______ _______ _____ _____    ______ ____

>  <TORSDO>
F 0

$$$$
=
 OpenBabel11122412003D

 28 32  0  0  1  0  0  0  0  0999 V2000
  182.3730  178.4870  138.4520 N   0  0  2  0  0  0  0  0  0  0  0  0
  181.4990  175.4060  139.8430 O   0  0  0  0  0  0  0  0  0  0  0  0
  186.4420  173.8860  136.6400 O   0  0  0  0  0  0  0  0  0  0  0  0
  181.0680  179.7890  136.2060 C   0  0  0  0  0  2  0  0  0  0  0  0
  184.1840  173.5680  136.0690 N   0  0  0  0  0  0  0  0  0  0  0  0
  183.5490  178.1060  139.2580 C   0  0  0  0  0  2  0  0  0  0  0  0
  179.4470  176.3150  138.8250 O   0  0  0  0  0  0  0  0  0  0  0  0
  180.5440  175.2990  138.6870 S   0  0  0  0  0  0  0  0  0  0  0  0
  179.6570  173.2540  137.1220 C   0  0  2  0  0  3  0  0  0  0  0  0
  181.3810  175.4970  137.1390 C   0  0  2  0  0  3  0  0  0  0  0  0
  186.7860  178.3270  137.1240 C   0  0  0  0  0  1  0  0  0  0  0  0
  183.4910  175.8520  136.0390 C   0  0  2  0  0  3  0  0  0  0  0  0
  180.8900  173.2280  136.3020 N   0  0  0  0  0  2  0  0  0  0  0  0
  179.8670  173.6460  138.5980 C   0  0  0  0  0  2  0  0  0  0  0  0
  185.3780  177.8780  137.4600 C   0  0  1  0  0  3  0  0  0  0  0  0
  182.4110  177.8780  137.1100 C   0  0  2  0  0  3  0  0  0  0  0  0
  185.3030  174.3670  136.3940 C   0  0  0  0  0  0  0  0  0  0  0  0
  178.9720  171.9070  137.0480 C   0  0  0  0  0  1  0  0  0  0  0  0
  185.3480  176.4300  137.6490 N   0  0  0  0  0  2  0  0  0  0  0  0
  181.1780  178.2720  136.2850 C   0  0  0  0  0  2  0  0  0  0  0  0
  182.3250  179.9480  138.3430 C   0  0  0  0  0  2  0  0  0  0  0  0
  181.0640  180.3840  137.6070 C   0  0  0  0  0  2  0  0  0  0  0  0
  184.9040  178.6040  138.7190 C   0  0  0  0  0  2  0  0  0  0  0  0
  183.0320  174.3990  135.7740 C   0  0  2  0  0  3  0  0  0  0  0  0
  185.0090  175.8150  136.3640 C   0  0  2  0  0  3  0  0  0  0  0  0
  181.9300  174.1430  136.7870 C   0  0  1  0  0  3  0  0  0  0  0  0
  184.2280  172.1310  135.8590 C   0  0  0  0  0  1  0  0  0  0  0  0
  182.6210  176.3570  137.1880 C   0  0  1  0  0  3  0  0  0  0  0  0
  1 21  1  6  0  0  0
  1  6  1  0  0  0  0
  4 20  1  0  0  0  0
  4 22  1  0  0  0  0
  5 17  1  0  0  0  0
  8  7  2  0  0  0  0
  8  2  2  0  0  0  0
  9 18  1  1  0  0  0
  9 14  1  0  0  0  0
 10 28  1  0  0  0  0
 10  8  1  1  0  0  0
 11 15  1  0  0  0  0
 12 25  1  0  0  0  0
 12 28  1  0  0  0  0
 13 26  1  0  0  0  0
 13  9  1  0  0  0  0
 14  8  1  0  0  0  0
 15 19  1  0  0  0  0
 15 23  1  0  0  0  0
 16 28  1  0  0  0  0
 16  1  1  0  0  0  0
 17  3  2  0  0  0  0
 20 16  1  0  0  0  0
 22 21  1  0  0  0  0
 23  6  1  0  0  0  0
 24 12  1  0  0  0  0
 24  5  1  0  0  0  0
 24 26  1  0  0  0  0
 25 17  1  0  0  0  0
 25 19  1  0  0  0  0
 26 10  1  0  0  0  0
 27  5  1  0  0  0  0
M  END
>  <MODEL>
8

>  <REMARK>
 VINA RESULT:      -4.6      3.706      6.138
  Name = 
  0 active torsions:
  status: ('A' for Active; 'I' for Inactive)
                            x       y       z     vdW  Elec       q    Type
                         _______ _______ _______ _____ _____    ______ ____

>  <TORSDO>
F 0

$$$$
=
 OpenBabel11122412003D

 28 32  0  0  1  0  0  0  0  0999 V2000
  190.3920  177.0700  143.1630 N   0  0  2  0  0  0  0  0  0  0  0  0
  187.2070  175.8560  143.9200 O   0  0  0  0  0  0  0  0  0  0  0  0
  186.4620  177.5780  138.1330 O   0  0  0  0  0  0  0  0  0  0  0  0
  191.4980  179.6250  143.9940 C   0  0  0  0  0  2  0  0  0  0  0  0
  185.8140  178.7170  140.0840 N   0  0  0  0  0  0  0  0  0  0  0  0
  190.1860  175.9680  142.2040 C   0  0  0  0  0  2  0  0  0  0  0  0
  187.8050  177.4140  145.7330 O   0  0  0  0  0  0  0  0  0  0  0  0
  186.9650  177.2200  144.5040 S   0  0  0  0  0  0  0  0  0  0  0  0
  184.8210  178.8940  144.6320 C   0  0  2  0  0  3  0  0  0  0  0  0
  187.2960  178.4970  143.3220 C   0  0  2  0  0  3  0  0  0  0  0  0
  190.9020  177.1710  138.5820 C   0  0  0  0  0  1  0  0  0  0  0  0
  187.9680  179.0080  141.0690 C   0  0  2  0  0  3  0  0  0  0  0  0
  184.9830  179.3560  143.2350 N   0  0  0  0  0  2  0  0  0  0  0  0
  185.2300  177.4300  144.8840 C   0  0  0  0  0  2  0  0  0  0  0  0
  190.2450  177.2060  139.9470 C   0  0  1  0  0  3  0  0  0  0  0  0
  189.8040  178.3320  142.6790 C   0  0  2  0  0  3  0  0  0  0  0  0
  186.7690  178.1340  139.2220 C   0  0  0  0  0  0  0  0  0  0  0  0
  183.3860  179.1010  145.0680 C   0  0  0  0  0  1  0  0  0  0  0  0
  188.8080  176.9830  139.8150 N   0  0  0  0  0  2  0  0  0  0  0  0
  190.0140  179.4670  143.6900 C   0  0  0  0  0  2  0  0  0  0  0  0
  191.8300  177.2370  143.3930 C   0  0  0  0  0  2  0  0  0  0  0  0
  192.0780  178.2970  144.4600 C   0  0  0  0  0  2  0  0  0  0  0  0
  190.8850  176.1450  140.8420 C   0  0  0  0  0  2  0  0  0  0  0  0
  186.4650  179.3350  141.2230 C   0  0  2  0  0  3  0  0  0  0  0  0
  188.1570  178.2900  139.7040 C   0  0  2  0  0  3  0  0  0  0  0  0
  186.0410  178.6440  142.5070 C   0  0  1  0  0  3  0  0  0  0  0  0
  184.4000  178.8580  139.7770 C   0  0  0  0  0  1  0  0  0  0  0  0
  188.3300  178.1490  142.2780 C   0  0  1  0  0  3  0  0  0  0  0  0
  1  6  1  6  0  0  0
  1 21  1  0  0  0  0
  2  8  2  0  0  0  0
  3 17  2  0  0  0  0
  4 22  1  0  0  0  0
  5 24  1  0  0  0  0
  8 14  1  0  0  0  0
  8  7  2  0  0  0  0
  9 14  1  0  0  0  0
  9 18  1  6  0  0  0
 10  8  1  1  0  0  0
 11 15  1  0  0  0  0
 12 24  1  0  0  0  0
 12 28  1  0  0  0  0
 13  9  1  0  0  0  0
 15 23  1  0  0  0  0
 16  1  1  0  0  0  0
 16 20  1  0  0  0  0
 17 25  1  0  0  0  0
 17  5  1  0  0  0  0
 19 15  1  0  0  0  0
 20  4  1  0  0  0  0
 21 22  1  0  0  0  0
 23  6  1  0  0  0  0
 24 26  1  0  0  0  0
 25 19  1  0  0  0  0
 25 12  1  0  0  0  0
 26 13  1  0  0  0  0
 26 10  1  0  0  0  0
 27  5  1  0  0  0  0
 28 16  1  0  0  0  0
 28 10  1  0  0  0  0
M  END
>  <MODEL>
9

>  <REMARK>
 VINA RESULT:      -4.5      2.947      7.856
  Name = 
  0 active torsions:
  status: ('A' for Active; 'I' for Inactive)
                            x       y       z     vdW  Elec       q    Type
                         _______ _______ _______ _____ _____    ______ ____

>  <TORSDO>
F 0

$$$$
