=
 OpenBabel11122410253D

 30 35  0  0  1  0  0  0  0  0999 V2000
  189.0200  177.4140  143.4980 C   0  0  1  0  0  3  0  0  0  0  0  0
  191.1140  176.8230  144.8430 C   0  0  0  0  0  0  0  0  0  0  0  0
  186.9270  177.9280  146.9970 N   0  0  0  0  0  0  0  0  0  0  0  0
  187.6510  178.1320  143.6360 C   0  0  1  0  0  3  0  0  0  0  0  0
  189.8320  178.1320  142.5990 O   0  0  0  0  0  0  0  0  0  0  0  0
  187.2960  178.5360  140.0210 O   0  0  0  0  0  1  0  0  0  0  0  0
  184.5230  178.0920  142.7830 C   0  0  1  0  0  3  0  0  0  0  0  0
  187.8620  178.6910  141.2900 C   0  0  2  0  0  3  0  0  0  0  0  0
  184.3430  177.9670  144.2990 C   0  0  2  0  0  3  0  0  0  0  0  0
  185.6730  178.3000  146.4590 C   0  0  0  0  0  0  0  0  0  0  0  0
  189.2530  178.0400  141.3150 C   0  0  2  0  0  3  0  0  0  0  0  0
  186.9740  178.1210  142.3190 N   0  0  2  0  0  0  0  0  0  0  0  0
  191.7550  176.5810  146.0620 C   0  0  0  0  0  3  0  0  0  0  0  0
  183.3160  179.0200  144.6600 C   0  0  0  0  0  2  0  0  0  0  0  0
  183.2420  178.7210  142.2550 C   0  0  0  0  0  2  0  0  0  0  0  0
  191.8520  176.7180  143.6690 O   0  0  0  0  0  1  0  0  0  0  0  0
  187.5860  177.4470  145.9950 C   0  0  0  0  0  0  0  0  0  0  0  0
  191.0420  176.6440  147.2600 C   0  0  0  0  0  3  0  0  0  0  0  0
  189.7430  177.1620  144.8160 C   0  0  0  0  0  0  0  0  0  0  0  0
  186.8200  177.4160  144.7080 C   0  0  1  0  0  3  0  0  0  0  0  0
  184.7300  178.7380  147.1690 O   0  0  0  0  0  0  0  0  0  0  0  0
  185.5920  178.1280  145.0460 N   0  0  0  0  0  0  0  0  0  0  0  0
  182.3980  179.0940  143.4610 C   0  0  0  0  0  2  0  0  0  0  0  0
  185.8650  180.3090  142.9510 C   0  0  0  0  0  1  0  0  0  0  0  0
  189.6780  176.9310  147.2450 C   0  0  0  0  0  3  0  0  0  0  0  0
  189.0230  177.1650  146.0310 C   0  0  0  0  0  0  0  0  0  0  0  0
  185.7340  178.9160  142.3200 C   0  0  2  0  0  3  0  0  0  0  0  0
  189.2100  176.7110  140.8700 O   0  0  0  0  0  0  0  0  0  0  0  0
  190.0020  176.7330  138.6300 C   0  0  0  0  0  1  0  0  0  0  0  0
  190.3570  176.5560  140.0910 C   0  0  0  0  0  2  0  0  0  0  0  0
  1  5  1  6  0  0  0
  1  4  1  0  0  0  0
  1 19  1  0  0  0  0
  2 13  1  0  0  0  0
  4 20  1  0  0  0  0
  6  8  1  0  0  0  0
  7  9  1  0  0  0  0
  8 11  1  0  0  0  0
  8 12  1  0  0  0  0
  9 14  1  0  0  0  0
  9 22  1  0  0  0  0
 10  3  1  0  0  0  0
 10 21  2  0  0  0  0
 11  5  1  0  0  0  0
 12 27  1  0  0  0  0
 12  4  1  0  0  0  0
 13 18  2  0  0  0  0
 15  7  1  0  0  0  0
 15 23  1  0  0  0  0
 16  2  1  0  0  0  0
 17 26  1  0  0  0  0
 17  3  2  0  0  0  0
 19  2  2  0  0  0  0
 19 26  1  0  0  0  0
 20 22  1  0  0  0  0
 20 17  1  0  0  0  0
 22 10  1  0  0  0  0
 23 14  1  0  0  0  0
 25 18  1  0  0  0  0
 26 25  2  0  0  0  0
 27  7  1  0  0  0  0
 27 24  1  0  0  0  0
 28 11  1  0  0  0  0
 29 30  1  0  0  0  0
 30 28  1  0  0  0  0
M  END
>  <MODEL>
1

>  <REMARK>
 VINA RESULT:     -10.0      0.000      0.000
  Name = 
  2 active torsions:
  status: ('A' for Active; 'I' for Inactive)
    1  A    between atoms: C_11  and  O_28
    2  A    between atoms: O_28  and  C_30
                            x       y       z     vdW  Elec       q    Type
                         _______ _______ _______ _____ _____    ______ ____

>  <TORSDO>
F 2

$$$$
=
 OpenBabel11122410253D

 30 35  0  0  1  0  0  0  0  0999 V2000
  187.1620  178.3760  140.5830 C   0  0  1  0  0  3  0  0  0  0  0  0
  184.8080  178.7770  139.6660 C   0  0  0  0  0  0  0  0  0  0  0  0
  185.6020  177.8740  144.3510 N   0  0  0  0  0  0  0  0  0  0  0  0
  187.9040  177.7450  141.7920 C   0  0  1  0  0  3  0  0  0  0  0  0
  187.4610  177.6390  139.4200 O   0  0  0  0  0  0  0  0  0  0  0  0
  191.0560  177.4990  139.9600 O   0  0  0  0  0  1  0  0  0  0  0  0
  190.4240  178.0240  143.8130 C   0  0  1  0  0  3  0  0  0  0  0  0
  189.7110  177.2600  140.2570 C   0  0  2  0  0  3  0  0  0  0  0  0
  189.2970  178.1060  144.8480 C   0  0  2  0  0  3  0  0  0  0  0  0
  186.7960  177.6060  145.0580 C   0  0  0  0  0  0  0  0  0  0  0  0
  188.8300  177.8160  139.1280 C   0  0  2  0  0  3  0  0  0  0  0  0
  189.3620  177.8500  141.5620 N   0  0  2  0  0  0  0  0  0  0  0  0
  183.4310  178.9320  139.8600 C   0  0  0  0  0  3  0  0  0  0  0  0
  189.6800  177.1100  145.9240 C   0  0  0  0  0  2  0  0  0  0  0  0
  191.6440  177.5010  144.5560 C   0  0  0  0  0  2  0  0  0  0  0  0
  185.3150  178.8760  138.3760 O   0  0  0  0  0  1  0  0  0  0  0  0
  185.9910  178.3470  143.2130 C   0  0  0  0  0  0  0  0  0  0  0  0
  182.8870  178.8720  141.1430 C   0  0  0  0  0  3  0  0  0  0  0  0
  185.6570  178.5310  140.7670 C   0  0  0  0  0  0  0  0  0  0  0  0
  187.4770  178.4750  143.0710 C   0  0  1  0  0  3  0  0  0  0  0  0
  186.8060  177.2060  146.2520 O   0  0  0  0  0  0  0  0  0  0  0  0
  187.9730  177.8350  144.2850 N   0  0  0  0  0  0  0  0  0  0  0  0
  191.1920  177.1410  145.9600 C   0  0  0  0  0  2  0  0  0  0  0  0
  189.6520  175.7180  142.9000 C   0  0  0  0  0  1  0  0  0  0  0  0
  183.7190  178.6770  142.2450 C   0  0  0  0  0  3  0  0  0  0  0  0
  185.1000  178.5310  142.0650 C   0  0  0  0  0  0  0  0  0  0  0  0
  190.1440  177.1390  142.5890 C   0  0  2  0  0  3  0  0  0  0  0  0
  189.1230  179.1610  138.8580 O   0  0  0  0  0  0  0  0  0  0  0  0
  189.4210  178.0150  136.7980 C   0  0  0  0  0  1  0  0  0  0  0  0
  188.9720  179.2910  137.4770 C   0  0  0  0  0  2  0  0  0  0  0  0
  1  5  1  6  0  0  0
  1 19  1  0  0  0  0
  1  4  1  0  0  0  0
  2 13  2  0  0  0  0
  2 19  1  0  0  0  0
  3 10  1  0  0  0  0
  4 20  1  0  0  0  0
  6  8  1  0  0  0  0
  7 15  1  0  0  0  0
  7  9  1  0  0  0  0
  8 12  1  0  0  0  0
  9 14  1  0  0  0  0
 10 21  2  0  0  0  0
 11  5  1  0  0  0  0
 11  8  1  0  0  0  0
 12  4  1  0  0  0  0
 12 27  1  0  0  0  0
 13 18  1  0  0  0  0
 14 23  1  0  0  0  0
 15 23  1  0  0  0  0
 16  2  1  0  0  0  0
 17  3  2  0  0  0  0
 18 25  2  0  0  0  0
 19 26  2  0  0  0  0
 20 17  1  0  0  0  0
 20 22  1  0  0  0  0
 22  9  1  0  0  0  0
 22 10  1  0  0  0  0
 26 25  1  0  0  0  0
 26 17  1  0  0  0  0
 27 24  1  0  0  0  0
 27  7  1  0  0  0  0
 28 11  1  0  0  0  0
 29 30  1  0  0  0  0
 30 28  1  0  0  0  0
M  END
>  <MODEL>
2

>  <REMARK>
 VINA RESULT:      -9.5      1.754      5.679
  Name = 
  2 active torsions:
  status: ('A' for Active; 'I' for Inactive)
    1  A    between atoms: C_11  and  O_28
    2  A    between atoms: O_28  and  C_30
                            x       y       z     vdW  Elec       q    Type
                         _______ _______ _______ _____ _____    ______ ____

>  <TORSDO>
F 2

$$$$
=
 OpenBabel11122410253D

 30 35  0  0  1  0  0  0  0  0999 V2000
  186.9820  177.9450  145.0520 C   0  0  1  0  0  3  0  0  0  0  0  0
  184.5420  178.5500  145.5270 C   0  0  0  0  0  0  0  0  0  0  0  0
  186.3760  178.6760  141.0540 N   0  0  0  0  0  0  0  0  0  0  0  0
  188.0960  178.1390  143.9890 C   0  0  1  0  0  3  0  0  0  0  0  0
  187.3510  178.6100  146.2370 O   0  0  0  0  0  0  0  0  0  0  0  0
  190.7520  177.3250  146.3640 O   0  0  0  0  0  1  0  0  0  0  0  0
  190.6010  176.7500  142.4700 C   0  0  1  0  0  3  0  0  0  0  0  0
  189.6740  178.0310  145.8220 C   0  0  2  0  0  3  0  0  0  0  0  0
  189.7170  177.0140  141.2470 C   0  0  2  0  0  3  0  0  0  0  0  0
  187.6780  178.4070  140.5730 C   0  0  0  0  0  0  0  0  0  0  0  0
  188.4750  177.9510  146.7790 C   0  0  2  0  0  3  0  0  0  0  0  0
  189.3400  177.5080  144.4840 N   0  0  2  0  0  0  0  0  0  0  0  0
  183.2660  178.9140  145.0870 C   0  0  0  0  0  3  0  0  0  0  0  0
  190.6270  177.6920  140.2430 C   0  0  0  0  0  2  0  0  0  0  0  0
  192.0320  176.7030  141.9550 C   0  0  0  0  0  2  0  0  0  0  0  0
  184.7540  178.3770  146.8900 O   0  0  0  0  0  1  0  0  0  0  0  0
  186.3600  178.1900  142.2510 C   0  0  0  0  0  0  0  0  0  0  0  0
  183.0050  179.0660  143.7250 C   0  0  0  0  0  3  0  0  0  0  0  0
  185.5870  178.3580  144.5970 C   0  0  0  0  0  0  0  0  0  0  0  0
  187.6330  177.5190  142.6650 C   0  0  1  0  0  3  0  0  0  0  0  0
  188.0380  178.6690  139.3950 O   0  0  0  0  0  0  0  0  0  0  0  0
  188.5300  177.8160  141.5520 N   0  0  0  0  0  0  0  0  0  0  0  0
  191.9910  177.0850  140.4860 C   0  0  0  0  0  2  0  0  0  0  0  0
  190.6520  179.2450  143.1880 C   0  0  0  0  0  1  0  0  0  0  0  0
  184.0140  178.8340  142.7920 C   0  0  0  0  0  3  0  0  0  0  0  0
  185.2930  178.4590  143.2190 C   0  0  0  0  0  0  0  0  0  0  0  0
  190.4930  177.7770  143.6070 C   0  0  2  0  0  3  0  0  0  0  0  0
  188.1730  176.6250  147.1200 O   0  0  0  0  0  0  0  0  0  0  0  0
  188.2670  178.0230  149.0380 C   0  0  0  0  0  1  0  0  0  0  0  0
  187.9140  176.6570  148.4900 C   0  0  0  0  0  2  0  0  0  0  0  0
  1 19  1  6  0  0  0
  1  5  1  0  0  0  0
  2 16  1  0  0  0  0
  3 17  2  0  0  0  0
  4 12  1  0  0  0  0
  4  1  1  0  0  0  0
  5 11  1  0  0  0  0
  7 27  1  0  0  0  0
  8  6  1  0  0  0  0
  8 11  1  0  0  0  0
  9 22  1  0  0  0  0
  9  7  1  0  0  0  0
 10  3  1  0  0  0  0
 10 22  1  0  0  0  0
 11 28  1  0  0  0  0
 12  8  1  0  0  0  0
 13  2  1  0  0  0  0
 14 23  1  0  0  0  0
 14  9  1  0  0  0  0
 15  7  1  0  0  0  0
 17 20  1  0  0  0  0
 17 26  1  0  0  0  0
 18 13  2  0  0  0  0
 19  2  2  0  0  0  0
 20  4  1  0  0  0  0
 21 10  2  0  0  0  0
 22 20  1  0  0  0  0
 23 15  1  0  0  0  0
 24 27  1  0  0  0  0
 25 26  2  0  0  0  0
 25 18  1  0  0  0  0
 26 19  1  0  0  0  0
 27 12  1  0  0  0  0
 28 30  1  0  0  0  0
 30 29  1  0  0  0  0
M  END
>  <MODEL>
3

>  <REMARK>
 VINA RESULT:      -9.2      1.858      6.637
  Name = 
  2 active torsions:
  status: ('A' for Active; 'I' for Inactive)
    1  A    between atoms: C_11  and  O_28
    2  A    between atoms: O_28  and  C_30
                            x       y       z     vdW  Elec       q    Type
                         _______ _______ _______ _____ _____    ______ ____

>  <TORSDO>
F 2

$$$$
=
 OpenBabel11122410253D

 30 35  0  0  1  0  0  0  0  0999 V2000
  188.0930  177.6380  145.0650 C   0  0  1  0  0  3  0  0  0  0  0  0
  186.0620  178.2340  146.5010 C   0  0  0  0  0  0  0  0  0  0  0  0
  185.9620  178.5710  141.6770 N   0  0  0  0  0  0  0  0  0  0  0  0
  188.6960  177.8780  143.6540 C   0  0  1  0  0  3  0  0  0  0  0  0
  188.9210  178.2410  146.0320 O   0  0  0  0  0  0  0  0  0  0  0  0
  192.0560  176.9300  144.7330 O   0  0  0  0  0  1  0  0  0  0  0  0
  190.3500  176.5500  141.2030 C   0  0  1  0  0  3  0  0  0  0  0  0
  190.8700  177.6690  144.6980 C   0  0  2  0  0  3  0  0  0  0  0  0
  189.0590  176.8800  140.4480 C   0  0  2  0  0  3  0  0  0  0  0  0
  186.9570  178.3170  140.7050 C   0  0  0  0  0  0  0  0  0  0  0  0
  190.1510  177.5490  146.0500 C   0  0  2  0  0  3  0  0  0  0  0  0
  190.0170  177.2150  143.5840 N   0  0  2  0  0  0  0  0  0  0  0  0
  184.7250  178.6280  146.6230 C   0  0  0  0  0  3  0  0  0  0  0  0
  189.5100  177.6010  139.1940 C   0  0  0  0  0  2  0  0  0  0  0  0
  191.4550  176.5190  140.1580 C   0  0  0  0  0  2  0  0  0  0  0  0
  186.7940  177.9930  147.6570 O   0  0  0  0  0  1  0  0  0  0  0  0
  186.4120  178.0260  142.7600 C   0  0  0  0  0  0  0  0  0  0  0  0
  183.9470  178.8480  145.4870 C   0  0  0  0  0  3  0  0  0  0  0  0
  186.6430  178.0830  145.2230 C   0  0  0  0  0  0  0  0  0  0  0  0
  187.7270  177.3270  142.6010 C   0  0  1  0  0  3  0  0  0  0  0  0
  186.8240  178.6350  139.4940 O   0  0  0  0  0  0  0  0  0  0  0  0
  188.1130  177.6730  141.2360 N   0  0  0  0  0  0  0  0  0  0  0  0
  190.8420  176.9740  138.8450 C   0  0  0  0  0  2  0  0  0  0  0  0
  190.7470  179.0060  141.9480 C   0  0  0  0  0  1  0  0  0  0  0  0
  184.4940  178.6570  144.2190 C   0  0  0  0  0  3  0  0  0  0  0  0
  185.8270  178.2530  144.0830 C   0  0  0  0  0  0  0  0  0  0  0  0
  190.7310  177.5190  142.3320 C   0  0  2  0  0  3  0  0  0  0  0  0
  189.9750  176.2090  146.4260 O   0  0  0  0  0  0  0  0  0  0  0  0
  191.9400  175.6560  147.6430 C   0  0  0  0  0  1  0  0  0  0  0  0
  190.5020  176.1270  147.7150 C   0  0  0  0  0  2  0  0  0  0  0  0
  1 19  1  6  0  0  0
  1  5  1  0  0  0  0
  2 13  1  0  0  0  0
  2 16  1  0  0  0  0
  3 17  2  0  0  0  0
  4  1  1  0  0  0  0
  5 11  1  0  0  0  0
  7 27  1  0  0  0  0
  8  6  1  0  0  0  0
  8 11  1  0  0  0  0
  9  7  1  0  0  0  0
  9 22  1  0  0  0  0
 10 22  1  0  0  0  0
 10  3  1  0  0  0  0
 11 28  1  0  0  0  0
 12  4  1  0  0  0  0
 12  8  1  0  0  0  0
 14  9  1  0  0  0  0
 15  7  1  0  0  0  0
 17 26  1  0  0  0  0
 18 13  2  0  0  0  0
 19  2  2  0  0  0  0
 20 17  1  0  0  0  0
 20  4  1  0  0  0  0
 21 10  2  0  0  0  0
 22 20  1  0  0  0  0
 23 14  1  0  0  0  0
 23 15  1  0  0  0  0
 24 27  1  0  0  0  0
 25 18  1  0  0  0  0
 26 25  2  0  0  0  0
 26 19  1  0  0  0  0
 27 12  1  0  0  0  0
 28 30  1  0  0  0  0
 29 30  1  0  0  0  0
M  END
>  <MODEL>
4

>  <REMARK>
 VINA RESULT:      -7.5      1.862      6.025
  Name = 
  2 active torsions:
  status: ('A' for Active; 'I' for Inactive)
    1  A    between atoms: C_11  and  O_28
    2  A    between atoms: O_28  and  C_30
                            x       y       z     vdW  Elec       q    Type
                         _______ _______ _______ _____ _____    ______ ____

>  <TORSDO>
F 2

$$$$
=
 OpenBabel11122410253D

 30 35  0  0  1  0  0  0  0  0999 V2000
  186.7070  178.0430  140.2700 C   0  0  1  0  0  3  0  0  0  0  0  0
  188.4750  177.7530  138.4440 C   0  0  0  0  0  0  0  0  0  0  0  0
  189.6480  177.8720  143.1340 N   0  0  0  0  0  0  0  0  0  0  0  0
  186.5520  178.4760  141.7520 C   0  0  1  0  0  3  0  0  0  0  0  0
  186.0440  178.9710  139.4430 O   0  0  0  0  0  0  0  0  0  0  0  0
  182.9690  179.0930  141.3840 O   0  0  0  0  0  1  0  0  0  0  0  0
  185.0040  177.9140  144.5450 C   0  0  1  0  0  3  0  0  0  0  0  0
  184.3380  179.2500  141.1520 C   0  0  2  0  0  3  0  0  0  0  0  0
  186.4330  177.6360  145.0220 C   0  0  2  0  0  3  0  0  0  0  0  0
  188.8510  178.0410  144.2890 C   0  0  0  0  0  0  0  0  0  0  0  0
  184.6590  178.8740  139.6980 C   0  0  2  0  0  3  0  0  0  0  0  0
  185.1160  178.4420  142.1090 N   0  0  2  0  0  0  0  0  0  0  0  0
  189.8000  177.5390  138.0480 C   0  0  0  0  0  3  0  0  0  0  0  0
  186.5860  178.4440  146.2940 C   0  0  0  0  0  2  0  0  0  0  0  0
  184.2190  178.3290  145.7800 C   0  0  0  0  0  2  0  0  0  0  0  0
  187.4990  177.8830  137.4630 O   0  0  0  0  0  1  0  0  0  0  0  0
  188.8080  177.6050  142.1900 C   0  0  0  0  0  0  0  0  0  0  0  0
  190.8040  177.3710  139.0030 C   0  0  0  0  0  3  0  0  0  0  0  0
  188.1460  177.8280  139.8150 C   0  0  0  0  0  0  0  0  0  0  0  0
  187.3790  177.5330  142.6340 C   0  0  1  0  0  3  0  0  0  0  0  0
  189.3410  178.2350  145.4330 O   0  0  0  0  0  0  0  0  0  0  0  0
  187.4520  177.9700  144.0240 N   0  0  0  0  0  0  0  0  0  0  0  0
  185.2110  178.4390  146.9240 C   0  0  0  0  0  2  0  0  0  0  0  0
  185.5530  180.3240  143.7480 C   0  0  0  0  0  1  0  0  0  0  0  0
  190.4860  177.3960  140.3600 C   0  0  0  0  0  3  0  0  0  0  0  0
  189.1630  177.5980  140.7690 C   0  0  0  0  0  0  0  0  0  0  0  0
  184.8600  178.9860  143.4540 C   0  0  2  0  0  3  0  0  0  0  0  0
  184.1700  177.6000  139.3730 O   0  0  0  0  0  0  0  0  0  0  0  0
  182.5570  178.5240  137.8940 C   0  0  0  0  0  1  0  0  0  0  0  0
  183.8100  177.6860  138.0280 C   0  0  0  0  0  2  0  0  0  0  0  0
  1  5  1  6  0  0  0
  1  4  1  0  0  0  0
  2 19  1  0  0  0  0
  3 10  1  0  0  0  0
  4 12  1  0  0  0  0
  4 20  1  0  0  0  0
  5 11  1  0  0  0  0
  7  9  1  0  0  0  0
  7 15  1  0  0  0  0
  8  6  1  0  0  0  0
  8 12  1  0  0  0  0
  9 14  1  0  0  0  0
 10 21  2  0  0  0  0
 11  8  1  0  0  0  0
 12 27  1  0  0  0  0
 13  2  2  0  0  0  0
 13 18  1  0  0  0  0
 14 23  1  0  0  0  0
 15 23  1  0  0  0  0
 16  2  1  0  0  0  0
 17 20  1  0  0  0  0
 17  3  2  0  0  0  0
 18 25  2  0  0  0  0
 19  1  1  0  0  0  0
 19 26  2  0  0  0  0
 20 22  1  0  0  0  0
 22 10  1  0  0  0  0
 22  9  1  0  0  0  0
 25 26  1  0  0  0  0
 26 17  1  0  0  0  0
 27 24  1  0  0  0  0
 27  7  1  0  0  0  0
 28 11  1  0  0  0  0
 29 30  1  0  0  0  0
 30 28  1  0  0  0  0
M  END
>  <MODEL>
5

>  <REMARK>
 VINA RESULT:      -7.5      2.284      4.963
  Name = 
  2 active torsions:
  status: ('A' for Active; 'I' for Inactive)
    1  A    between atoms: C_11  and  O_28
    2  A    between atoms: O_28  and  C_30
                            x       y       z     vdW  Elec       q    Type
                         _______ _______ _______ _____ _____    ______ ____

>  <TORSDO>
F 2

$$$$
=
 OpenBabel11122410253D

 30 35  0  0  1  0  0  0  0  0999 V2000
  188.0540  177.6140  142.8650 C   0  0  1  0  0  3  0  0  0  0  0  0
  187.0890  178.0570  145.1920 C   0  0  0  0  0  0  0  0  0  0  0  0
  184.7320  179.3360  141.1670 N   0  0  0  0  0  0  0  0  0  0  0  0
  187.9320  178.0830  141.3900 C   0  0  1  0  0  3  0  0  0  0  0  0
  189.3280  177.9580  143.3570 O   0  0  0  0  0  0  0  0  0  0  0  0
  191.1990  176.7120  140.4960 O   0  0  0  0  0  1  0  0  0  0  0  0
  187.9680  177.1480  138.2860 C   0  0  1  0  0  3  0  0  0  0  0  0
  190.2760  177.5230  141.1620 C   0  0  2  0  0  3  0  0  0  0  0  0
  186.5430  177.7080  138.3340 C   0  0  2  0  0  3  0  0  0  0  0  0
  185.0820  179.2100  139.8030 C   0  0  0  0  0  0  0  0  0  0  0  0
  190.2880  177.1920  142.6620 C   0  0  2  0  0  3  0  0  0  0  0  0
  188.9330  177.3570  140.5770 N   0  0  2  0  0  0  0  0  0  0  0  0
  186.0570  178.5110  146.0210 C   0  0  0  0  0  3  0  0  0  0  0  0
  186.4420  178.6280  137.1340 C   0  0  0  0  0  2  0  0  0  0  0  0
  188.4120  177.2460  136.8340 C   0  0  0  0  0  2  0  0  0  0  0  0
  188.2390  177.5440  145.7800 O   0  0  0  0  0  1  0  0  0  0  0  0
  185.5550  178.5610  141.7930 C   0  0  0  0  0  0  0  0  0  0  0  0
  184.8730  179.0030  145.4710 C   0  0  0  0  0  3  0  0  0  0  0  0
  186.9500  178.1190  143.7880 C   0  0  0  0  0  0  0  0  0  0  0  0
  186.5020  177.8170  140.9020 C   0  0  1  0  0  3  0  0  0  0  0  0
  184.4330  179.7660  138.8790 O   0  0  0  0  0  0  0  0  0  0  0  0
  186.2330  178.3950  139.5890 N   0  0  0  0  0  0  0  0  0  0  0  0
  187.3230  177.9900  136.0830 C   0  0  0  0  0  2  0  0  0  0  0  0
  189.0550  179.3780  139.0550 C   0  0  0  0  0  1  0  0  0  0  0  0
  184.7040  179.0260  144.0870 C   0  0  0  0  0  3  0  0  0  0  0  0
  185.7240  178.5640  143.2470 C   0  0  0  0  0  0  0  0  0  0  0  0
  188.9930  177.8500  139.1900 C   0  0  2  0  0  3  0  0  0  0  0  0
  190.1070  175.8200  142.8900 O   0  0  0  0  0  0  0  0  0  0  0  0
  191.4870  176.3760  144.7430 C   0  0  0  0  0  1  0  0  0  0  0  0
  191.2440  175.4210  143.5940 C   0  0  0  0  0  2  0  0  0  0  0  0
  1  5  1  1  0  0  0
  1 19  1  0  0  0  0
  2 16  1  0  0  0  0
  2 13  1  0  0  0  0
  3 17  2  0  0  0  0
  4  1  1  0  0  0  0
  6  8  1  0  0  0  0
  7  9  1  0  0  0  0
  7 27  1  0  0  0  0
  8 11  1  0  0  0  0
  9 22  1  0  0  0  0
 10  3  1  0  0  0  0
 11 28  1  0  0  0  0
 11  5  1  0  0  0  0
 12  8  1  0  0  0  0
 12  4  1  0  0  0  0
 14  9  1  0  0  0  0
 15  7  1  0  0  0  0
 17 26  1  0  0  0  0
 18 13  2  0  0  0  0
 19  2  2  0  0  0  0
 20  4  1  0  0  0  0
 20 17  1  0  0  0  0
 21 10  2  0  0  0  0
 22 10  1  0  0  0  0
 22 20  1  0  0  0  0
 23 15  1  0  0  0  0
 23 14  1  0  0  0  0
 24 27  1  0  0  0  0
 25 18  1  0  0  0  0
 26 19  1  0  0  0  0
 26 25  2  0  0  0  0
 27 12  1  0  0  0  0
 28 30  1  0  0  0  0
 30 29  1  0  0  0  0
M  END
>  <MODEL>
6

>  <REMARK>
 VINA RESULT:      -7.4      2.310      5.300
  Name = 
  2 active torsions:
  status: ('A' for Active; 'I' for Inactive)
    1  A    between atoms: C_11  and  O_28
    2  A    between atoms: O_28  and  C_30
                            x       y       z     vdW  Elec       q    Type
                         _______ _______ _______ _____ _____    ______ ____

>  <TORSDO>
F 2

$$$$
=
 OpenBabel11122410253D

 30 35  0  0  1  0  0  0  0  0999 V2000
  186.4350  178.1150  142.6830 C   0  0  1  0  0  3  0  0  0  0  0  0
  187.0230  178.2690  145.1680 C   0  0  0  0  0  0  0  0  0  0  0  0
  182.5160  178.9780  143.5640 N   0  0  0  0  0  0  0  0  0  0  0  0
  185.3550  178.5590  141.6600 C   0  0  1  0  0  3  0  0  0  0  0  0
  187.6520  178.7590  142.3820 O   0  0  0  0  0  0  0  0  0  0  0  0
  187.5900  178.0610  138.8120 O   0  0  0  0  0  1  0  0  0  0  0  0
  183.6720  177.7090  139.0230 C   0  0  1  0  0  3  0  0  0  0  0  0
  187.1290  178.6060  140.0140 C   0  0  2  0  0  3  0  0  0  0  0  0
  182.4970  177.8950  139.9880 C   0  0  2  0  0  3  0  0  0  0  0  0
  181.9800  178.9620  142.2560 C   0  0  0  0  0  0  0  0  0  0  0  0
  188.1140  178.2670  141.1420 C   0  0  2  0  0  3  0  0  0  0  0  0
  185.7700  178.1180  140.3100 N   0  0  2  0  0  0  0  0  0  0  0  0
  186.6460  178.4390  146.5040 C   0  0  0  0  0  3  0  0  0  0  0  0
  181.5150  178.7770  139.2450 C   0  0  0  0  0  2  0  0  0  0  0  0
  183.1130  177.9360  137.6270 C   0  0  0  0  0  2  0  0  0  0  0  0
  188.3640  178.0510  144.8760 O   0  0  0  0  0  1  0  0  0  0  0  0
  183.6770  178.4240  143.4510 C   0  0  0  0  0  0  0  0  0  0  0  0
  185.3060  178.6280  146.8420 C   0  0  0  0  0  3  0  0  0  0  0  0
  186.0510  178.3140  144.1440 C   0  0  0  0  0  0  0  0  0  0  0  0
  184.0070  177.9530  142.0670 C   0  0  1  0  0  3  0  0  0  0  0  0
  180.8120  179.3530  141.9930 O   0  0  0  0  0  0  0  0  0  0  0  0
  182.8910  178.4640  141.2780 N   0  0  0  0  0  0  0  0  0  0  0  0
  181.6750  178.3950  137.7900 C   0  0  0  0  0  2  0  0  0  0  0  0
  184.5550  180.1280  139.3590 C   0  0  0  0  0  1  0  0  0  0  0  0
  184.3290  178.6280  145.8470 C   0  0  0  0  0  3  0  0  0  0  0  0
  184.6920  178.4480  144.5070 C   0  0  0  0  0  0  0  0  0  0  0  0
  184.8790  178.6310  139.2540 C   0  0  2  0  0  3  0  0  0  0  0  0
  188.3730  176.8900  141.2060 O   0  0  0  0  0  0  0  0  0  0  0  0
  190.0280  176.0030  142.6620 C   0  0  0  0  0  1  0  0  0  0  0  0
  189.7510  176.7930  141.4010 C   0  0  0  0  0  2  0  0  0  0  0  0
  1  5  1  6  0  0  0
  1 19  1  0  0  0  0
  2 13  1  0  0  0  0
  4 20  1  0  0  0  0
  4  1  1  0  0  0  0
  6  8  1  0  0  0  0
  7 27  1  0  0  0  0
  7  9  1  0  0  0  0
  8 12  1  0  0  0  0
  8 11  1  0  0  0  0
  9 22  1  0  0  0  0
 10  3  1  0  0  0  0
 11 28  1  0  0  0  0
 11  5  1  0  0  0  0
 12  4  1  0  0  0  0
 13 18  2  0  0  0  0
 14  9  1  0  0  0  0
 15 23  1  0  0  0  0
 15  7  1  0  0  0  0
 16  2  1  0  0  0  0
 17  3  2  0  0  0  0
 17 26  1  0  0  0  0
 19 26  1  0  0  0  0
 19  2  2  0  0  0  0
 20 17  1  0  0  0  0
 21 10  2  0  0  0  0
 22 20  1  0  0  0  0
 22 10  1  0  0  0  0
 23 14  1  0  0  0  0
 25 18  1  0  0  0  0
 26 25  2  0  0  0  0
 27 24  1  0  0  0  0
 27 12  1  0  0  0  0
 28 30  1  0  0  0  0
 30 29  1  0  0  0  0
M  END
>  <MODEL>
7

>  <REMARK>
 VINA RESULT:      -7.3      2.647      4.248
  Name = 
  2 active torsions:
  status: ('A' for Active; 'I' for Inactive)
    1  A    between atoms: C_11  and  O_28
    2  A    between atoms: O_28  and  C_30
                            x       y       z     vdW  Elec       q    Type
                         _______ _______ _______ _____ _____    ______ ____

>  <TORSDO>
F 2

$$$$
=
 OpenBabel11122410253D

 30 35  0  0  1  0  0  0  0  0999 V2000
  189.1810  177.7100  139.9710 C   0  0  1  0  0  3  0  0  0  0  0  0
  188.7100  177.9300  137.4660 C   0  0  0  0  0  0  0  0  0  0  0  0
  185.2080  178.3870  140.7710 N   0  0  0  0  0  0  0  0  0  0  0  0
  188.4690  177.4250  141.3200 C   0  0  1  0  0  3  0  0  0  0  0  0
  190.0710  176.6570  139.6840 O   0  0  0  0  0  0  0  0  0  0  0  0
  191.5950  176.5250  142.9860 O   0  0  0  0  0  1  0  0  0  0  0  0
  188.3390  178.1680  144.4740 C   0  0  1  0  0  3  0  0  0  0  0  0
  190.5540  176.4400  142.0560 C   0  0  2  0  0  3  0  0  0  0  0  0
  186.9200  178.5930  144.0850 C   0  0  2  0  0  3  0  0  0  0  0  0
  185.2390  178.2840  142.1800 C   0  0  0  0  0  0  0  0  0  0  0  0
  191.1060  176.6830  140.6440 C   0  0  2  0  0  3  0  0  0  0  0  0
  189.4850  177.3960  142.3970 N   0  0  2  0  0  0  0  0  0  0  0  0
  187.8360  178.1940  136.4060 C   0  0  0  0  0  3  0  0  0  0  0  0
  186.0180  177.9360  145.1110 C   0  0  0  0  0  2  0  0  0  0  0  0
  188.2890  177.8300  145.9560 C   0  0  0  0  0  2  0  0  0  0  0  0
  190.0360  177.6300  137.1790 O   0  0  0  0  0  1  0  0  0  0  0  0
  186.4470  178.4940  140.4210 C   0  0  0  0  0  0  0  0  0  0  0  0
  186.5060  178.5310  136.6540 C   0  0  0  0  0  3  0  0  0  0  0  0
  188.2440  177.9770  138.7990 C   0  0  0  0  0  0  0  0  0  0  0  0
  187.4140  178.5120  141.5640 C   0  0  1  0  0  3  0  0  0  0  0  0
  184.1960  178.2460  142.8840 O   0  0  0  0  0  0  0  0  0  0  0  0
  186.5600  178.2290  142.7130 N   0  0  0  0  0  0  0  0  0  0  0  0
  186.8340  177.9110  146.3840 C   0  0  0  0  0  2  0  0  0  0  0  0
  188.0260  175.7320  143.6290 C   0  0  0  0  0  1  0  0  0  0  0  0
  186.0440  178.6270  137.9660 C   0  0  0  0  0  3  0  0  0  0  0  0
  186.9100  178.3760  139.0360 C   0  0  0  0  0  0  0  0  0  0  0  0
  188.9180  176.9800  143.6910 C   0  0  2  0  0  3  0  0  0  0  0  0
  191.8360  177.8790  140.5720 O   0  0  0  0  0  0  0  0  0  0  0  0
  193.0930  176.7510  138.9000 C   0  0  0  0  0  1  0  0  0  0  0  0
  193.1290  177.4890  140.2220 C   0  0  0  0  0  2  0  0  0  0  0  0
  1 19  1  6  0  0  0
  1  4  1  0  0  0  0
  2 19  1  0  0  0  0
  3 10  1  0  0  0  0
  4 20  1  0  0  0  0
  4 12  1  0  0  0  0
  5  1  1  0  0  0  0
  5 11  1  0  0  0  0
  7 15  1  0  0  0  0
  8 12  1  0  0  0  0
  8  6  1  0  0  0  0
  9  7  1  0  0  0  0
  9 14  1  0  0  0  0
 10 22  1  0  0  0  0
 10 21  2  0  0  0  0
 11  8  1  0  0  0  0
 12 27  1  0  0  0  0
 13 18  1  0  0  0  0
 13  2  2  0  0  0  0
 14 23  1  0  0  0  0
 15 23  1  0  0  0  0
 16  2  1  0  0  0  0
 17  3  2  0  0  0  0
 17 20  1  0  0  0  0
 18 25  2  0  0  0  0
 19 26  2  0  0  0  0
 20 22  1  0  0  0  0
 22  9  1  0  0  0  0
 24 27  1  0  0  0  0
 25 26  1  0  0  0  0
 26 17  1  0  0  0  0
 27  7  1  0  0  0  0
 28 11  1  0  0  0  0
 29 30  1  0  0  0  0
 30 28  1  0  0  0  0
M  END
>  <MODEL>
8

>  <REMARK>
 VINA RESULT:      -7.2      2.275      5.598
  Name = 
  2 active torsions:
  status: ('A' for Active; 'I' for Inactive)
    1  A    between atoms: C_11  and  O_28
    2  A    between atoms: O_28  and  C_30
                            x       y       z     vdW  Elec       q    Type
                         _______ _______ _______ _____ _____    ______ ____

>  <TORSDO>
F 2

$$$$
=
 OpenBabel11122410253D

 30 35  0  0  1  0  0  0  0  0999 V2000
  187.9120  178.1690  141.7890 C   0  0  1  0  0  3  0  0  0  0  0  0
  188.9920  177.7770  144.0740 C   0  0  0  0  0  0  0  0  0  0  0  0
  191.3330  176.8280  139.9500 N   0  0  0  0  0  0  0  0  0  0  0  0
  188.0320  177.7470  140.3000 C   0  0  1  0  0  3  0  0  0  0  0  0
  186.6950  177.6880  142.3100 O   0  0  0  0  0  0  0  0  0  0  0  0
  184.6160  178.7990  139.5390 O   0  0  0  0  0  1  0  0  0  0  0  0
  187.8010  178.7380  137.2220 C   0  0  1  0  0  3  0  0  0  0  0  0
  185.6380  178.0710  140.1560 C   0  0  2  0  0  3  0  0  0  0  0  0
  189.2760  178.3250  137.2130 C   0  0  2  0  0  3  0  0  0  0  0  0
  190.9280  176.9480  138.6000 C   0  0  0  0  0  0  0  0  0  0  0  0
  185.6410  178.3680  141.6630 C   0  0  2  0  0  3  0  0  0  0  0  0
  186.9370  178.3850  139.5350 N   0  0  2  0  0  0  0  0  0  0  0  0
  190.0900  177.4120  144.8600 C   0  0  0  0  0  3  0  0  0  0  0  0
  189.4300  177.4450  135.9880 C   0  0  0  0  0  2  0  0  0  0  0  0
  187.3220  178.6270  135.7820 C   0  0  0  0  0  2  0  0  0  0  0  0
  187.8160  178.1580  144.7080 O   0  0  0  0  0  1  0  0  0  0  0  0
  190.4570  177.5030  140.6180 C   0  0  0  0  0  0  0  0  0  0  0  0
  191.2990  177.0540  144.2620 C   0  0  0  0  0  3  0  0  0  0  0  0
  189.0900  177.7600  142.6650 C   0  0  0  0  0  0  0  0  0  0  0  0
  189.4110  178.1660  139.7750 C   0  0  1  0  0  3  0  0  0  0  0  0
  191.5990  176.4790  137.6430 O   0  0  0  0  0  0  0  0  0  0  0  0
  189.6950  177.6460  138.4410 N   0  0  0  0  0  0  0  0  0  0  0  0
  188.4560  178.0120  134.9800 C   0  0  0  0  0  2  0  0  0  0  0  0
  186.9690  176.3940  137.9690 C   0  0  0  0  0  1  0  0  0  0  0  0
  191.4250  177.0780  142.8740 C   0  0  0  0  0  3  0  0  0  0  0  0
  190.3370  177.4520  142.0770 C   0  0  0  0  0  0  0  0  0  0  0  0
  186.8820  177.9180  138.1390 C   0  0  2  0  0  3  0  0  0  0  0  0
  185.6910  179.7460  141.9190 O   0  0  0  0  0  0  0  0  0  0  0  0
  183.8470  179.0430  143.2440 C   0  0  0  0  0  1  0  0  0  0  0  0
  185.0940  179.9000  143.1700 C   0  0  0  0  0  2  0  0  0  0  0  0
  1  5  1  1  0  0  0
  1 19  1  0  0  0  0
  2 16  1  0  0  0  0
  2 13  1  0  0  0  0
  3 17  2  0  0  0  0
  4  1  1  0  0  0  0
  6  8  1  0  0  0  0
  7 27  1  0  0  0  0
  8 11  1  0  0  0  0
  9  7  1  0  0  0  0
  9 22  1  0  0  0  0
 10  3  1  0  0  0  0
 11 28  1  0  0  0  0
 11  5  1  0  0  0  0
 12  8  1  0  0  0  0
 12  4  1  0  0  0  0
 14  9  1  0  0  0  0
 15  7  1  0  0  0  0
 17 26  1  0  0  0  0
 18 13  2  0  0  0  0
 19  2  2  0  0  0  0
 20  4  1  0  0  0  0
 20 17  1  0  0  0  0
 21 10  2  0  0  0  0
 22 10  1  0  0  0  0
 22 20  1  0  0  0  0
 23 15  1  0  0  0  0
 23 14  1  0  0  0  0
 24 27  1  0  0  0  0
 25 18  1  0  0  0  0
 26 19  1  0  0  0  0
 26 25  2  0  0  0  0
 27 12  1  0  0  0  0
 28 30  1  0  0  0  0
 30 29  1  0  0  0  0
M  END
>  <MODEL>
9

>  <REMARK>
 VINA RESULT:      -7.2      2.702      6.264
  Name = 
  2 active torsions:
  status: ('A' for Active; 'I' for Inactive)
    1  A    between atoms: C_11  and  O_28
    2  A    between atoms: O_28  and  C_30
                            x       y       z     vdW  Elec       q    Type
                         _______ _______ _______ _____ _____    ______ ____

>  <TORSDO>
F 2

$$$$
