=
 OpenBabel11122411383D

 37 42  0  0  1  0  0  0  0  0999 V2000
  187.2760  177.9860  143.1930 C   0  0  0  0  0  0  0  0  0  0  0  0
  183.2670  178.7430  142.4440 C   0  0  0  0  0  0  0  0  0  0  0  0
  181.7120  176.9390  140.0580 C   0  0  0  0  0  2  0  0  0  0  0  0
  185.0020  178.6770  144.1170 C   0  0  0  0  0  0  0  0  0  0  0  0
  183.2530  178.6800  141.0580 C   0  0  0  0  0  0  0  0  0  0  0  0
  184.0360  175.4440  137.6110 C   0  0  0  0  0  0  0  0  0  0  0  0
  184.5710  178.7180  142.8120 C   0  0  0  0  0  0  0  0  0  0  0  0
  182.0300  178.4270  140.2130 C   0  0  2  0  0  3  0  0  0  0  0  0
  184.0170  178.7100  145.1230 C   0  0  0  0  0  3  0  0  0  0  0  0
  184.7440  175.7870  136.4150 N   0  0  0  0  0  2  0  0  0  0  0  0
  185.3360  178.5990  141.7040 C   0  0  0  0  0  0  0  0  0  0  0  0
  187.1180  176.4760  143.2520 C   0  0  0  0  0  1  0  0  0  0  0  0
  180.8130  178.7720  143.0100 C   0  0  0  0  0  2  0  0  0  0  0  0
  182.6420  178.7480  144.7630 C   0  0  0  0  0  3  0  0  0  0  0  0
  186.8310  178.4890  141.7900 C   0  0  0  0  0  2  0  0  0  0  0  0
  183.6280  176.4720  138.5240 N   0  0  0  0  0  0  0  0  0  0  0  0
  182.9630  176.0960  139.7750 C   0  0  0  0  0  2  0  0  0  0  0  0
  182.2540  178.7590  143.4030 C   0  0  0  0  0  0  0  0  0  0  0  0
  184.5430  178.5550  140.6080 N   0  0  0  0  0  0  0  0  0  0  0  0
  186.4860  178.6290  144.3730 C   0  0  0  0  0  2  0  0  0  0  0  0
  180.7660  179.2580  140.5090 C   0  0  1  0  0  3  0  0  0  0  0  0
  188.7430  178.3090  143.3710 C   0  0  0  0  0  1  0  0  0  0  0  0
  184.0000  177.8620  138.2480 C   0  0  0  0  0  2  0  0  0  0  0  0
  183.7650  174.2370  137.8560 O   0  0  0  0  0  0  0  0  0  0  0  0
  185.0440  178.3890  139.2360 C   0  0  0  0  0  2  0  0  0  0  0  0
  180.5850  179.8170  141.9270 C   0  0  0  0  0  2  0  0  0  0  0  0
  181.2280  180.2130  138.2460 C   0  0  0  0  0  3  0  0  0  0  0  0
  180.6080  180.3440  139.4940 C   0  0  0  0  0  0  0  0  0  0  0  0
  179.8580  181.4950  139.7790 C   0  0  0  0  0  3  0  0  0  0  0  0
  178.9360  183.7220  139.1290 C   0  0  0  0  0  1  0  0  0  0  0  0
  180.3500  182.3690  137.5760 C   0  0  0  0  0  3  0  0  0  0  0  0
  179.7300  182.5040  138.8220 C   0  0  0  0  0  0  0  0  0  0  0  0
  181.0990  181.2230  137.2890 C   0  0  0  0  0  3  0  0  0  0  0  0
  186.3350  175.3590  134.6030 C   0  0  0  0  0  1  0  0  0  0  0  0
  185.2170  174.7900  135.4630 C   0  0  2  0  0  3  0  0  0  0  0  0
  183.7280  172.8270  134.8760 C   0  0  0  0  0  1  0  0  0  0  0  0
  184.0640  174.2850  134.5980 C   0  0  0  0  0  2  0  0  0  0  0  0
  1 12  1  0  0  0  0
  1 22  1  0  0  0  0
  1 20  1  0  0  0  0
  2  7  1  0  0  0  0
  2 18  1  0  0  0  0
  4 20  1  0  0  0  0
  4  9  2  0  0  0  0
  5  2  2  0  0  0  0
  6 24  2  0  0  0  0
  6 16  1  0  0  0  0
  7  4  1  0  0  0  0
  8  3  1  1  0  0  0
  8 21  1  0  0  0  0
  8  5  1  0  0  0  0
 10  6  1  0  0  0  0
 11 15  1  0  0  0  0
 11  7  2  0  0  0  0
 13 18  1  0  0  0  0
 14  9  1  0  0  0  0
 15  1  1  0  0  0  0
 16 17  1  0  0  0  0
 17  3  1  0  0  0  0
 18 14  2  0  0  0  0
 19  5  1  0  0  0  0
 19 11  1  0  0  0  0
 21 28  1  6  0  0  0
 21 26  1  0  0  0  0
 23 16  1  0  0  0  0
 23 25  1  0  0  0  0
 25 19  1  0  0  0  0
 26 13  1  0  0  0  0
 27 28  1  0  0  0  0
 28 29  2  0  0  0  0
 31 32  2  0  0  0  0
 32 30  1  0  0  0  0
 32 29  1  0  0  0  0
 33 31  1  0  0  0  0
 33 27  2  0  0  0  0
 35 34  1  6  0  0  0
 35 10  1  0  0  0  0
 37 36  1  0  0  0  0
 37 35  1  0  0  0  0
M  END
>  <MODEL>
1

>  <REMARK>
 VINA RESULT:      -7.7      0.000      0.000
  Name = 
  3 active torsions:
  status: ('A' for Active; 'I' for Inactive)
    1  A    between atoms: C_4  and  N_12
    2  A    between atoms: C_4  and  C_37
    3  A    between atoms: C_23  and  C_30
                            x       y       z     vdW  Elec       q    Type
                         _______ _______ _______ _____ _____    ______ ____

>  <TORSDO>
F 3

$$$$
=
 OpenBabel11122411383D

 37 42  0  0  1  0  0  0  0  0999 V2000
  186.7230  178.1130  143.4610 C   0  0  0  0  0  0  0  0  0  0  0  0
  182.8730  178.8110  142.0830 C   0  0  0  0  0  0  0  0  0  0  0  0
  181.6860  176.8760  139.5910 C   0  0  0  0  0  2  0  0  0  0  0  0
  184.3380  178.8420  143.9980 C   0  0  0  0  0  0  0  0  0  0  0  0
  183.0660  178.6740  140.7160 C   0  0  0  0  0  0  0  0  0  0  0  0
  184.3430  175.2630  137.6020 C   0  0  0  0  0  0  0  0  0  0  0  0
  184.1070  178.8110  142.6420 C   0  0  0  0  0  0  0  0  0  0  0  0
  181.9820  178.3710  139.7130 C   0  0  2  0  0  3  0  0  0  0  0  0
  183.2150  178.9250  144.8420 C   0  0  0  0  0  3  0  0  0  0  0  0
  185.2240  175.5450  136.5090 N   0  0  0  0  0  2  0  0  0  0  0  0
  185.0290  178.6370  141.6690 C   0  0  0  0  0  0  0  0  0  0  0  0
  186.5530  176.6080  143.5770 C   0  0  0  0  0  1  0  0  0  0  0  0
  180.3620  178.8600  142.2750 C   0  0  0  0  0  2  0  0  0  0  0  0
  181.9090  178.9380  144.2800 C   0  0  0  0  0  3  0  0  0  0  0  0
  186.4940  178.5390  141.9830 C   0  0  0  0  0  2  0  0  0  0  0  0
  183.8070  176.3360  138.3880 N   0  0  0  0  0  0  0  0  0  0  0  0
  182.9610  176.0240  139.5440 C   0  0  0  0  0  2  0  0  0  0  0  0
  181.7280  178.8740  142.8780 C   0  0  0  0  0  0  0  0  0  0  0  0
  184.4080  178.5320  140.4700 N   0  0  0  0  0  0  0  0  0  0  0  0
  185.7680  178.8150  144.4740 C   0  0  0  0  0  2  0  0  0  0  0  0
  180.6910  179.2120  139.7710 C   0  0  1  0  0  3  0  0  0  0  0  0
  188.1480  178.4520  143.8390 C   0  0  0  0  0  1  0  0  0  0  0  0
  184.2210  177.7110  138.0970 C   0  0  0  0  0  2  0  0  0  0  0  0
  184.0340  174.0690  137.8680 O   0  0  0  0  0  0  0  0  0  0  0  0
  185.1080  178.2940  139.2000 C   0  0  0  0  0  2  0  0  0  0  0  0
  180.3030  179.8440  141.1150 C   0  0  0  0  0  2  0  0  0  0  0  0
  180.6490  181.5970  139.0300 C   0  0  0  0  0  3  0  0  0  0  0  0
  180.6900  180.2400  138.6880 C   0  0  0  0  0  0  0  0  0  0  0  0
  180.7190  179.8660  137.3360 C   0  0  0  0  0  3  0  0  0  0  0  0
  180.7370  180.4400  134.9070 C   0  0  0  0  0  1  0  0  0  0  0  0
  180.6670  182.1960  136.6820 C   0  0  0  0  0  3  0  0  0  0  0  0
  180.7080  180.8420  136.3360 C   0  0  0  0  0  0  0  0  0  0  0  0
  180.6370  182.5730  138.0290 C   0  0  0  0  0  3  0  0  0  0  0  0
  187.1470  174.9790  135.1030 C   0  0  0  0  0  1  0  0  0  0  0  0
  185.8300  174.5010  135.6930 C   0  0  2  0  0  3  0  0  0  0  0  0
  184.5170  172.5750  134.6990 C   0  0  0  0  0  1  0  0  0  0  0  0
  184.8680  174.0520  134.5940 C   0  0  0  0  0  2  0  0  0  0  0  0
  1 12  1  0  0  0  0
  1 22  1  0  0  0  0
  1 20  1  0  0  0  0
  2  7  1  0  0  0  0
  2 18  1  0  0  0  0
  4 20  1  0  0  0  0
  4  9  2  0  0  0  0
  5  2  2  0  0  0  0
  6 24  2  0  0  0  0
  6 16  1  0  0  0  0
  7  4  1  0  0  0  0
  8  3  1  1  0  0  0
  8 21  1  0  0  0  0
  8  5  1  0  0  0  0
 10  6  1  0  0  0  0
 11 15  1  0  0  0  0
 11  7  2  0  0  0  0
 13 18  1  0  0  0  0
 14  9  1  0  0  0  0
 15  1  1  0  0  0  0
 16 17  1  0  0  0  0
 17  3  1  0  0  0  0
 18 14  2  0  0  0  0
 19  5  1  0  0  0  0
 19 11  1  0  0  0  0
 21 28  1  6  0  0  0
 21 26  1  0  0  0  0
 23 16  1  0  0  0  0
 23 25  1  0  0  0  0
 25 19  1  0  0  0  0
 26 13  1  0  0  0  0
 28 27  1  0  0  0  0
 29 28  2  0  0  0  0
 30 32  1  0  0  0  0
 31 33  1  0  0  0  0
 32 31  2  0  0  0  0
 32 29  1  0  0  0  0
 33 27  2  0  0  0  0
 35 34  1  6  0  0  0
 35 10  1  0  0  0  0
 37 36  1  0  0  0  0
 37 35  1  0  0  0  0
M  END
>  <MODEL>
2

>  <REMARK>
 VINA RESULT:      -7.5      0.792      1.376
  Name = 
  3 active torsions:
  status: ('A' for Active; 'I' for Inactive)
    1  A    between atoms: C_4  and  N_12
    2  A    between atoms: C_4  and  C_37
    3  A    between atoms: C_23  and  C_30
                            x       y       z     vdW  Elec       q    Type
                         _______ _______ _______ _____ _____    ______ ____

>  <TORSDO>
F 3

$$$$
=
 OpenBabel11122411383D

 37 42  0  0  1  0  0  0  0  0999 V2000
  180.6440  182.8120  137.4710 C   0  0  0  0  0  0  0  0  0  0  0  0
  180.8000  178.6900  137.0400 C   0  0  0  0  0  0  0  0  0  0  0  0
  181.1120  176.7970  139.8120 C   0  0  0  0  0  2  0  0  0  0  0  0
  179.8870  180.7490  136.1780 C   0  0  0  0  0  0  0  0  0  0  0  0
  181.7930  178.3770  137.9570 C   0  0  0  0  0  0  0  0  0  0  0  0
  182.5140  178.6380  142.6870 C   0  0  0  0  0  0  0  0  0  0  0  0
  180.7950  180.0400  136.9310 C   0  0  0  0  0  0  0  0  0  0  0  0
  181.9980  177.0230  138.5860 C   0  0  2  0  0  3  0  0  0  0  0  0
  178.9400  180.0090  135.4440 C   0  0  0  0  0  3  0  0  0  0  0  0
  183.7780  179.0380  143.2260 N   0  0  0  0  0  2  0  0  0  0  0  0
  181.7160  180.5510  137.7780 C   0  0  0  0  0  0  0  0  0  0  0  0
  179.6190  182.7910  138.5930 C   0  0  0  0  0  1  0  0  0  0  0  0
  179.8560  176.4250  136.4690 C   0  0  0  0  0  2  0  0  0  0  0  0
  178.9320  178.5900  135.5330 C   0  0  0  0  0  3  0  0  0  0  0  0
  181.9110  182.0330  137.9260 C   0  0  0  0  0  2  0  0  0  0  0  0
  182.3860  178.3610  141.2860 N   0  0  0  0  0  0  0  0  0  0  0  0
  181.0690  178.0170  140.7410 C   0  0  0  0  0  2  0  0  0  0  0  0
  179.8700  177.9130  136.3460 C   0  0  0  0  0  0  0  0  0  0  0  0
  182.3350  179.5430  138.4360 N   0  0  0  0  0  0  0  0  0  0  0  0
  179.9920  182.2520  136.1710 C   0  0  0  0  0  2  0  0  0  0  0  0
  182.0210  175.7930  137.6570 C   0  0  1  0  0  3  0  0  0  0  0  0
  181.0360  184.2530  137.2240 C   0  0  0  0  0  1  0  0  0  0  0  0
  183.5450  178.5530  140.4100 C   0  0  0  0  0  2  0  0  0  0  0  0
  181.5140  178.5240  143.4480 O   0  0  0  0  0  0  0  0  0  0  0  0
  183.3650  179.7430  139.4650 C   0  0  0  0  0  2  0  0  0  0  0  0
  181.2710  175.8840  136.3210 C   0  0  0  0  0  2  0  0  0  0  0  0
  183.7330  173.9740  137.5880 C   0  0  0  0  0  3  0  0  0  0  0  0
  183.4250  175.3310  137.4390 C   0  0  0  0  0  0  0  0  0  0  0  0
  184.4390  176.2400  137.1000 C   0  0  0  0  0  3  0  0  0  0  0  0
  186.8190  176.7580  136.5510 C   0  0  0  0  0  1  0  0  0  0  0  0
  186.0520  174.4350  137.0590 C   0  0  0  0  0  3  0  0  0  0  0  0
  185.7490  175.7910  136.9100 C   0  0  0  0  0  0  0  0  0  0  0  0
  185.0440  173.5270  137.3980 C   0  0  0  0  0  3  0  0  0  0  0  0
  184.9480  180.5210  144.7840 C   0  0  0  0  0  1  0  0  0  0  0  0
  183.9690  179.3680  144.6330 C   0  0  2  0  0  3  0  0  0  0  0  0
  185.3700  178.5100  146.5610 C   0  0  0  0  0  1  0  0  0  0  0  0
  184.4420  178.1420  145.4120 C   0  0  0  0  0  2  0  0  0  0  0  0
  1 15  1  0  0  0  0
  1 12  1  0  0  0  0
  2  5  2  0  0  0  0
  3 17  1  0  0  0  0
  4  7  1  0  0  0  0
  5 19  1  0  0  0  0
  5  8  1  0  0  0  0
  6 10  1  0  0  0  0
  6 24  2  0  0  0  0
  7  2  1  0  0  0  0
  7 11  2  0  0  0  0
  8  3  1  1  0  0  0
  9 14  1  0  0  0  0
  9  4  2  0  0  0  0
 10 35  1  0  0  0  0
 11 15  1  0  0  0  0
 11 19  1  0  0  0  0
 14 18  2  0  0  0  0
 16  6  1  0  0  0  0
 17 16  1  0  0  0  0
 18 13  1  0  0  0  0
 18  2  1  0  0  0  0
 19 25  1  0  0  0  0
 20  4  1  0  0  0  0
 20  1  1  0  0  0  0
 21 28  1  6  0  0  0
 21  8  1  0  0  0  0
 22  1  1  0  0  0  0
 23 16  1  0  0  0  0
 25 23  1  0  0  0  0
 26 13  1  0  0  0  0
 26 21  1  0  0  0  0
 28 27  1  0  0  0  0
 29 28  2  0  0  0  0
 30 32  1  0  0  0  0
 31 33  1  0  0  0  0
 32 31  2  0  0  0  0
 32 29  1  0  0  0  0
 33 27  2  0  0  0  0
 35 34  1  6  0  0  0
 35 37  1  0  0  0  0
 37 36  1  0  0  0  0
M  END
>  <MODEL>
3

>  <REMARK>
 VINA RESULT:      -5.9      2.537      8.044
  Name = 
  3 active torsions:
  status: ('A' for Active; 'I' for Inactive)
    1  A    between atoms: C_4  and  N_12
    2  A    between atoms: C_4  and  C_37
    3  A    between atoms: C_23  and  C_30
                            x       y       z     vdW  Elec       q    Type
                         _______ _______ _______ _____ _____    ______ ____

>  <TORSDO>
F 3

$$$$
=
 OpenBabel11122411383D

 37 42  0  0  1  0  0  0  0  0999 V2000
  184.9770  178.7910  143.8870 C   0  0  0  0  0  0  0  0  0  0  0  0
  181.7680  178.8100  141.2600 C   0  0  0  0  0  0  0  0  0  0  0  0
  182.0240  177.0430  138.4010 C   0  0  0  0  0  2  0  0  0  0  0  0
  182.4480  178.8870  143.5720 C   0  0  0  0  0  0  0  0  0  0  0  0
  182.4340  178.9190  140.0480 C   0  0  0  0  0  0  0  0  0  0  0  0
  185.5140  176.3660  137.4100 C   0  0  0  0  0  0  0  0  0  0  0  0
  182.6990  179.0030  142.2240 C   0  0  0  0  0  0  0  0  0  0  0  0
  181.8650  178.5320  138.7070 C   0  0  2  0  0  3  0  0  0  0  0  0
  181.1270  178.5950  143.9590 C   0  0  0  0  0  3  0  0  0  0  0  0
  186.6040  176.9920  136.7250 N   0  0  0  0  0  2  0  0  0  0  0  0
  183.9050  179.1800  141.6390 C   0  0  0  0  0  0  0  0  0  0  0  0
  185.1740  177.2850  143.8470 C   0  0  0  0  0  1  0  0  0  0  0  0
  179.4150  178.2720  140.5380 C   0  0  0  0  0  2  0  0  0  0  0  0
  180.1280  178.3990  142.9660 C   0  0  0  0  0  3  0  0  0  0  0  0
  185.1540  179.3650  142.4530 C   0  0  0  0  0  2  0  0  0  0  0  0
  184.4880  177.1670  138.0120 N   0  0  0  0  0  0  0  0  0  0  0  0
  183.4160  176.5110  138.7660 C   0  0  0  0  0  2  0  0  0  0  0  0
  180.4480  178.5010  141.5920 C   0  0  0  0  0  0  0  0  0  0  0  0
  183.7700  179.1150  140.2940 N   0  0  0  0  0  0  0  0  0  0  0  0
  183.5920  179.1080  144.5270 C   0  0  0  0  0  2  0  0  0  0  0  0
  180.4580  179.0480  138.3450 C   0  0  1  0  0  3  0  0  0  0  0  0
  186.0560  179.3790  144.7700 C   0  0  0  0  0  1  0  0  0  0  0  0
  184.6050  178.6270  137.9690 C   0  0  0  0  0  2  0  0  0  0  0  0
  185.4550  175.1070  137.4780 O   0  0  0  0  0  0  0  0  0  0  0  0
  184.8900  179.2260  139.3480 C   0  0  0  0  0  2  0  0  0  0  0  0
  179.4930  179.3770  139.4940 C   0  0  0  0  0  2  0  0  0  0  0  0
  180.4950  179.9560  136.0180 C   0  0  0  0  0  3  0  0  0  0  0  0
  180.5520  180.1970  137.3960 C   0  0  0  0  0  0  0  0  0  0  0  0
  180.7090  181.5110  137.8650 C   0  0  0  0  0  3  0  0  0  0  0  0
  180.9730  183.9600  137.4630 C   0  0  0  0  0  1  0  0  0  0  0  0
  180.7470  182.3270  135.5860 C   0  0  0  0  0  3  0  0  0  0  0  0
  180.8060  182.5720  136.9610 C   0  0  0  0  0  0  0  0  0  0  0  0
  180.5920  181.0190  135.1150 C   0  0  0  0  0  3  0  0  0  0  0  0
  187.1550  175.1580  135.1980 C   0  0  0  0  0  1  0  0  0  0  0  0
  187.6960  176.2380  136.1220 C   0  0  2  0  0  3  0  0  0  0  0  0
  189.1380  176.6880  138.1560 C   0  0  0  0  0  1  0  0  0  0  0  0
  188.5920  175.6350  137.2020 C   0  0  0  0  0  2  0  0  0  0  0  0
  1 20  1  0  0  0  0
  1 22  1  0  0  0  0
  2 18  1  0  0  0  0
  2  7  1  0  0  0  0
  3 17  1  0  0  0  0
  4  9  2  0  0  0  0
  4 20  1  0  0  0  0
  5 19  1  0  0  0  0
  5  2  2  0  0  0  0
  6 24  2  0  0  0  0
  6 16  1  0  0  0  0
  7  4  1  0  0  0  0
  8  3  1  1  0  0  0
  8  5  1  0  0  0  0
 10  6  1  0  0  0  0
 11  7  2  0  0  0  0
 11 15  1  0  0  0  0
 12  1  1  0  0  0  0
 13 18  1  0  0  0  0
 14  9  1  0  0  0  0
 15  1  1  0  0  0  0
 16 17  1  0  0  0  0
 18 14  2  0  0  0  0
 19 11  1  0  0  0  0
 21 28  1  1  0  0  0
 21  8  1  0  0  0  0
 21 26  1  0  0  0  0
 23 16  1  0  0  0  0
 23 25  1  0  0  0  0
 25 19  1  0  0  0  0
 26 13  1  0  0  0  0
 27 28  1  0  0  0  0
 28 29  2  0  0  0  0
 31 32  2  0  0  0  0
 32 30  1  0  0  0  0
 32 29  1  0  0  0  0
 33 31  1  0  0  0  0
 33 27  2  0  0  0  0
 35 34  1  1  0  0  0
 35 10  1  0  0  0  0
 35 37  1  0  0  0  0
 37 36  1  0  0  0  0
M  END
>  <MODEL>
4

>  <REMARK>
 VINA RESULT:      -5.8      1.700      2.603
  Name = 
  3 active torsions:
  status: ('A' for Active; 'I' for Inactive)
    1  A    between atoms: C_4  and  N_12
    2  A    between atoms: C_4  and  C_37
    3  A    between atoms: C_23  and  C_30
                            x       y       z     vdW  Elec       q    Type
                         _______ _______ _______ _____ _____    ______ ____

>  <TORSDO>
F 3

$$$$
=
 OpenBabel11122411383D

 37 42  0  0  1  0  0  0  0  0999 V2000
  183.3940  173.8120  136.6600 C   0  0  0  0  0  0  0  0  0  0  0  0
  181.9370  177.6750  137.0500 C   0  0  0  0  0  0  0  0  0  0  0  0
  183.8680  179.9710  138.5890 C   0  0  0  0  0  2  0  0  0  0  0  0
  181.9840  175.6950  135.6760 C   0  0  0  0  0  0  0  0  0  0  0  0
  182.3410  177.9680  138.3450 C   0  0  0  0  0  0  0  0  0  0  0  0
  186.4260  178.4840  140.7950 C   0  0  0  0  0  0  0  0  0  0  0  0
  182.1720  176.3540  136.8690 C   0  0  0  0  0  0  0  0  0  0  0  0
  182.5050  179.3560  138.9100 C   0  0  2  0  0  3  0  0  0  0  0  0
  181.4710  176.4430  134.5990 C   0  0  0  0  0  3  0  0  0  0  0  0
  186.5690  177.9670  142.1220 N   0  0  0  0  0  2  0  0  0  0  0  0
  182.7400  175.8520  137.9880 C   0  0  0  0  0  0  0  0  0  0  0  0
  184.7620  174.2350  136.1510 C   0  0  0  0  0  1  0  0  0  0  0  0
  181.1960  179.9250  136.1920 C   0  0  0  0  0  2  0  0  0  0  0  0
  181.2060  177.8300  134.7670 C   0  0  0  0  0  3  0  0  0  0  0  0
  183.1690  174.4160  138.0760 C   0  0  0  0  0  2  0  0  0  0  0  0
  185.1370  178.5080  140.1670 N   0  0  0  0  0  0  0  0  0  0  0  0
  185.0220  178.9790  138.7840 C   0  0  0  0  0  2  0  0  0  0  0  0
  181.4460  178.4640  136.0090 C   0  0  0  0  0  0  0  0  0  0  0  0
  182.8710  176.8350  138.9100 N   0  0  0  0  0  0  0  0  0  0  0  0
  182.3100  174.2250  135.6190 C   0  0  0  0  0  2  0  0  0  0  0  0
  181.3550  180.3610  138.6980 C   0  0  1  0  0  3  0  0  0  0  0  0
  183.3870  172.3040  136.7810 C   0  0  0  0  0  1  0  0  0  0  0  0
  183.9870  177.9420  140.8770 C   0  0  0  0  0  2  0  0  0  0  0  0
  187.4370  178.9240  140.1800 O   0  0  0  0  0  0  0  0  0  0  0  0
  183.4880  176.6480  140.2300 C   0  0  0  0  0  2  0  0  0  0  0  0
  180.4330  180.1570  137.4880 C   0  0  0  0  0  2  0  0  0  0  0  0
  179.6820  181.5920  140.0860 C   0  0  0  0  0  3  0  0  0  0  0  0
  180.5530  180.5050  139.9500 C   0  0  0  0  0  0  0  0  0  0  0  0
  180.6690  179.5730  140.9940 C   0  0  0  0  0  3  0  0  0  0  0  0
  180.0450  178.7420  143.2630 C   0  0  0  0  0  1  0  0  0  0  0  0
  179.0480  180.8170  142.2930 C   0  0  0  0  0  3  0  0  0  0  0  0
  179.9180  179.7300  142.1610 C   0  0  0  0  0  0  0  0  0  0  0  0
  178.9310  181.7480  141.2550 C   0  0  0  0  0  3  0  0  0  0  0  0
  188.6050  176.6300  142.3760 C   0  0  0  0  0  1  0  0  0  0  0  0
  187.8540  177.8820  142.8040 C   0  0  2  0  0  3  0  0  0  0  0  0
  186.2260  177.6190  144.7260 C   0  0  0  0  0  1  0  0  0  0  0  0
  187.6620  177.9140  144.3180 C   0  0  0  0  0  2  0  0  0  0  0  0
  1 22  1  0  0  0  0
  1 15  1  0  0  0  0
  2  5  2  0  0  0  0
  3 17  1  0  0  0  0
  4  7  1  0  0  0  0
  5 19  1  0  0  0  0
  5  8  1  0  0  0  0
  6 10  1  0  0  0  0
  7  2  1  0  0  0  0
  7 11  2  0  0  0  0
  8  3  1  6  0  0  0
  9 14  1  0  0  0  0
  9  4  2  0  0  0  0
 10 35  1  0  0  0  0
 11 15  1  0  0  0  0
 11 19  1  0  0  0  0
 12  1  1  0  0  0  0
 13 26  1  0  0  0  0
 14 18  2  0  0  0  0
 16  6  1  0  0  0  0
 16 23  1  0  0  0  0
 17 16  1  0  0  0  0
 18 13  1  0  0  0  0
 18  2  1  0  0  0  0
 19 25  1  0  0  0  0
 20  4  1  0  0  0  0
 20  1  1  0  0  0  0
 21  8  1  0  0  0  0
 21 28  1  1  0  0  0
 24  6  2  0  0  0  0
 25 23  1  0  0  0  0
 26 21  1  0  0  0  0
 27 33  1  0  0  0  0
 28 27  2  0  0  0  0
 28 29  1  0  0  0  0
 29 32  2  0  0  0  0
 32 31  1  0  0  0  0
 32 30  1  0  0  0  0
 33 31  2  0  0  0  0
 35 34  1  1  0  0  0
 35 37  1  0  0  0  0
 37 36  1  0  0  0  0
M  END
>  <MODEL>
5

>  <REMARK>
 VINA RESULT:      -5.8      2.039      6.651
  Name = 
  3 active torsions:
  status: ('A' for Active; 'I' for Inactive)
    1  A    between atoms: C_4  and  N_12
    2  A    between atoms: C_4  and  C_37
    3  A    between atoms: C_23  and  C_30
                            x       y       z     vdW  Elec       q    Type
                         _______ _______ _______ _____ _____    ______ ____

>  <TORSDO>
F 3

$$$$
=
 OpenBabel11122411383D

 37 42  0  0  1  0  0  0  0  0999 V2000
  188.1570  177.9340  138.5440 C   0  0  0  0  0  0  0  0  0  0  0  0
  184.8180  178.4170  140.9560 C   0  0  0  0  0  0  0  0  0  0  0  0
  182.1260  176.4720  140.3790 C   0  0  0  0  0  2  0  0  0  0  0  0
  187.2260  178.4950  140.8500 C   0  0  0  0  0  0  0  0  0  0  0  0
  183.8080  178.3260  140.0100 C   0  0  0  0  0  0  0  0  0  0  0  0
  182.0350  175.0820  136.9610 C   0  0  0  0  0  0  0  0  0  0  0  0
  185.9810  178.4830  140.2650 C   0  0  0  0  0  0  0  0  0  0  0  0
  182.3710  177.9790  140.3050 C   0  0  2  0  0  3  0  0  0  0  0  0
  187.2770  178.4840  142.2580 C   0  0  0  0  0  3  0  0  0  0  0  0
  181.6350  175.4470  135.6360 N   0  0  0  0  0  2  0  0  0  0  0  0
  185.7110  178.3920  138.9430 C   0  0  0  0  0  0  0  0  0  0  0  0
  188.1800  176.4180  138.6480 C   0  0  0  0  0  1  0  0  0  0  0  0
  183.5420  178.3000  143.1250 C   0  0  0  0  0  2  0  0  0  0  0  0
  186.0700  178.4270  143.0060 C   0  0  0  0  0  3  0  0  0  0  0  0
  186.8060  178.3810  137.9160 C   0  0  0  0  0  2  0  0  0  0  0  0
  182.3580  176.0990  137.9200 N   0  0  0  0  0  0  0  0  0  0  0  0
  182.8290  175.7050  139.2500 C   0  0  0  0  0  2  0  0  0  0  0  0
  184.8170  178.3870  142.3510 C   0  0  0  0  0  0  0  0  0  0  0  0
  184.3740  178.2770  138.7610 N   0  0  0  0  0  0  0  0  0  0  0  0
  188.4330  178.5480  139.9500 C   0  0  0  0  0  2  0  0  0  0  0  0
  181.6690  178.7330  141.4520 C   0  0  1  0  0  3  0  0  0  0  0  0
  189.2750  178.3540  137.6140 C   0  0  0  0  0  1  0  0  0  0  0  0
  182.3320  177.5040  137.5060 C   0  0  0  0  0  2  0  0  0  0  0  0
  182.0970  173.8650  137.2860 O   0  0  0  0  0  0  0  0  0  0  0  0
  183.7340  178.1160  137.4480 C   0  0  0  0  0  2  0  0  0  0  0  0
  182.5400  179.3070  142.5780 C   0  0  0  0  0  2  0  0  0  0  0  0
  179.8030  180.3700  141.7400 C   0  0  0  0  0  3  0  0  0  0  0  0
  180.7620  179.7860  140.9040 C   0  0  0  0  0  0  0  0  0  0  0  0
  180.8510  180.1890  139.5620 C   0  0  0  0  0  3  0  0  0  0  0  0
  180.0850  181.5900  137.6440 C   0  0  0  0  0  1  0  0  0  0  0  0
  179.0320  181.7500  139.9040 C   0  0  0  0  0  3  0  0  0  0  0  0
  179.9880  181.1690  139.0650 C   0  0  0  0  0  0  0  0  0  0  0  0
  178.9400  181.3500  141.2410 C   0  0  0  0  0  3  0  0  0  0  0  0
  179.9310  173.8970  134.8050 C   0  0  0  0  0  1  0  0  0  0  0  0
  181.3280  174.4640  134.6040 C   0  0  2  0  0  3  0  0  0  0  0  0
  181.7460  171.9660  134.6010 C   0  0  0  0  0  1  0  0  0  0  0  0
  182.3740  173.3520  134.5940 C   0  0  0  0  0  2  0  0  0  0  0  0
  1 12  1  0  0  0  0
  1 20  1  0  0  0  0
  2 18  1  0  0  0  0
  4  9  2  0  0  0  0
  5  8  1  0  0  0  0
  5  2  2  0  0  0  0
  6 24  2  0  0  0  0
  6 16  1  0  0  0  0
  7  4  1  0  0  0  0
  7  2  1  0  0  0  0
  8  3  1  1  0  0  0
  8 21  1  0  0  0  0
  9 14  1  0  0  0  0
 10  6  1  0  0  0  0
 11  7  2  0  0  0  0
 15  1  1  0  0  0  0
 15 11  1  0  0  0  0
 16 17  1  0  0  0  0
 17  3  1  0  0  0  0
 18 14  2  0  0  0  0
 18 13  1  0  0  0  0
 19 11  1  0  0  0  0
 19  5  1  0  0  0  0
 20  4  1  0  0  0  0
 21 28  1  6  0  0  0
 21 26  1  0  0  0  0
 22  1  1  0  0  0  0
 23 16  1  0  0  0  0
 25 23  1  0  0  0  0
 25 19  1  0  0  0  0
 26 13  1  0  0  0  0
 28 27  2  0  0  0  0
 29 28  1  0  0  0  0
 30 32  1  0  0  0  0
 31 33  2  0  0  0  0
 32 29  2  0  0  0  0
 32 31  1  0  0  0  0
 33 27  1  0  0  0  0
 35 34  1  1  0  0  0
 35 10  1  0  0  0  0
 37 36  1  0  0  0  0
 37 35  1  0  0  0  0
M  END
>  <MODEL>
6

>  <REMARK>
 VINA RESULT:      -5.5      1.899      3.158
  Name = 
  3 active torsions:
  status: ('A' for Active; 'I' for Inactive)
    1  A    between atoms: C_4  and  N_12
    2  A    between atoms: C_4  and  C_37
    3  A    between atoms: C_23  and  C_30
                            x       y       z     vdW  Elec       q    Type
                         _______ _______ _______ _____ _____    ______ ____

>  <TORSDO>
F 3

$$$$
=
 OpenBabel11122411383D

 37 42  0  0  1  0  0  0  0  0999 V2000
  182.5350  174.2650  135.8930 C   0  0  0  0  0  0  0  0  0  0  0  0
  183.8350  177.3450  138.3480 C   0  0  0  0  0  0  0  0  0  0  0  0
  186.7860  178.8180  137.6480 C   0  0  0  0  0  2  0  0  0  0  0  0
  181.9220  176.2520  137.3700 C   0  0  0  0  0  0  0  0  0  0  0  0
  185.1830  177.0320  138.4520 C   0  0  0  0  0  0  0  0  0  0  0  0
  189.0180  176.7120  135.5980 C   0  0  0  0  0  0  0  0  0  0  0  0
  183.2480  176.2900  137.7350 C   0  0  0  0  0  0  0  0  0  0  0  0
  186.2720  178.0020  138.8350 C   0  0  2  0  0  3  0  0  0  0  0  0
  181.1290  177.3670  137.7020 C   0  0  0  0  0  3  0  0  0  0  0  0
  189.9670  175.6500  135.7420 N   0  0  0  0  0  2  0  0  0  0  0  0
  184.1960  175.3760  137.4290 C   0  0  0  0  0  0  0  0  0  0  0  0
  182.8180  175.0010  134.5940 C   0  0  0  0  0  1  0  0  0  0  0  0
  183.7360  179.6560  139.3450 C   0  0  0  0  0  2  0  0  0  0  0  0
  181.7200  178.4820  138.3560 C   0  0  0  0  0  3  0  0  0  0  0  0
  183.8610  174.1120  136.6910 C   0  0  0  0  0  2  0  0  0  0  0  0
  188.0040  176.9090  136.5920 N   0  0  0  0  0  0  0  0  0  0  0  0
  187.0020  177.9600  136.3940 C   0  0  0  0  0  2  0  0  0  0  0  0
  183.0960  178.4800  138.6820 C   0  0  0  0  0  0  0  0  0  0  0  0
  185.4040  175.8210  137.8470 N   0  0  0  0  0  0  0  0  0  0  0  0
  181.4130  175.0160  136.6730 C   0  0  0  0  0  2  0  0  0  0  0  0
  186.0490  178.8800  140.0830 C   0  0  1  0  0  3  0  0  0  0  0  0
  182.0280  172.8820  135.5460 C   0  0  0  0  0  1  0  0  0  0  0  0
  187.9150  175.9750  137.7170 C   0  0  0  0  0  2  0  0  0  0  0  0
  189.0810  177.4790  134.5980 O   0  0  0  0  0  0  0  0  0  0  0  0
  186.6650  175.0940  137.6400 C   0  0  0  0  0  2  0  0  0  0  0  0
  184.6040  179.1830  140.5030 C   0  0  0  0  0  2  0  0  0  0  0  0
  188.1540  177.9400  141.0450 C   0  0  0  0  0  3  0  0  0  0  0  0
  186.8300  178.3470  141.2400 C   0  0  0  0  0  0  0  0  0  0  0  0
  186.2500  178.2390  142.5140 C   0  0  0  0  0  3  0  0  0  0  0  0
  186.3740  177.6150  144.9270 C   0  0  0  0  0  1  0  0  0  0  0  0
  188.3160  177.3240  143.3830 C   0  0  0  0  0  3  0  0  0  0  0  0
  186.9930  177.7280  143.5820 C   0  0  0  0  0  0  0  0  0  0  0  0
  188.8960  177.4290  142.1150 C   0  0  0  0  0  3  0  0  0  0  0  0
  191.2250  173.8750  134.6170 C   0  0  0  0  0  1  0  0  0  0  0  0
  191.0000  175.3730  134.7520 C   0  0  2  0  0  3  0  0  0  0  0  0
  192.7080  175.8480  136.5620 C   0  0  0  0  0  1  0  0  0  0  0  0
  192.2990  176.0910  135.1160 C   0  0  0  0  0  2  0  0  0  0  0  0
  1 20  1  0  0  0  0
  1 15  1  0  0  0  0
  2  5  2  0  0  0  0
  2 18  1  0  0  0  0
  4  9  2  0  0  0  0
  4  7  1  0  0  0  0
  5  8  1  0  0  0  0
  6 10  1  0  0  0  0
  6 16  1  0  0  0  0
  7  2  1  0  0  0  0
  8  3  1  6  0  0  0
  8 21  1  0  0  0  0
  9 14  1  0  0  0  0
 11  7  2  0  0  0  0
 11 19  1  0  0  0  0
 12  1  1  0  0  0  0
 13 26  1  0  0  0  0
 14 18  2  0  0  0  0
 15 11  1  0  0  0  0
 16 23  1  0  0  0  0
 17 16  1  0  0  0  0
 17  3  1  0  0  0  0
 18 13  1  0  0  0  0
 19  5  1  0  0  0  0
 20  4  1  0  0  0  0
 21 26  1  0  0  0  0
 21 28  1  1  0  0  0
 22  1  1  0  0  0  0
 24  6  2  0  0  0  0
 25 23  1  0  0  0  0
 25 19  1  0  0  0  0
 27 28  2  0  0  0  0
 27 33  1  0  0  0  0
 28 29  1  0  0  0  0
 29 32  2  0  0  0  0
 31 32  1  0  0  0  0
 32 30  1  0  0  0  0
 33 31  2  0  0  0  0
 35 34  1  1  0  0  0
 35 37  1  0  0  0  0
 35 10  1  0  0  0  0
 37 36  1  0  0  0  0
M  END
>  <MODEL>
7

>  <REMARK>
 VINA RESULT:      -5.4      2.961      7.228
  Name = 
  3 active torsions:
  status: ('A' for Active; 'I' for Inactive)
    1  A    between atoms: C_4  and  N_12
    2  A    between atoms: C_4  and  C_37
    3  A    between atoms: C_23  and  C_30
                            x       y       z     vdW  Elec       q    Type
                         _______ _______ _______ _____ _____    ______ ____

>  <TORSDO>
F 3

$$$$
=
 OpenBabel11122411383D

 37 42  0  0  1  0  0  0  0  0999 V2000
  183.1920  170.9670  135.8980 C   0  0  0  0  0  0  0  0  0  0  0  0
  180.9230  174.4170  136.2860 C   0  0  0  0  0  0  0  0  0  0  0  0
  182.4410  177.3940  135.8370 C   0  0  0  0  0  2  0  0  0  0  0  0
  180.9280  172.1050  135.6050 C   0  0  0  0  0  0  0  0  0  0  0  0
  181.8110  175.2270  136.9810 C   0  0  0  0  0  0  0  0  0  0  0  0
  186.1000  177.2520  136.2970 C   0  0  0  0  0  0  0  0  0  0  0  0
  181.4690  173.1780  136.2750 C   0  0  0  0  0  0  0  0  0  0  0  0
  181.7550  176.7320  137.0320 C   0  0  2  0  0  3  0  0  0  0  0  0
  179.7090  172.3120  134.9310 C   0  0  0  0  0  3  0  0  0  0  0  0
  187.0800  177.2900  137.3400 N   0  0  0  0  0  2  0  0  0  0  0  0
  182.6670  173.2200  136.8980 C   0  0  0  0  0  0  0  0  0  0  0  0
  183.8490  171.3850  134.5940 C   0  0  0  0  0  1  0  0  0  0  0  0
  179.1220  176.0440  135.6110 C   0  0  0  0  0  2  0  0  0  0  0  0
  179.1110  173.6020  134.9370 C   0  0  0  0  0  3  0  0  0  0  0  0
  183.5440  172.0050  137.0010 C   0  0  0  0  0  2  0  0  0  0  0  0
  184.7580  176.8380  136.5860 N   0  0  0  0  0  0  0  0  0  0  0  0
  183.7860  176.7410  135.4930 C   0  0  0  0  0  2  0  0  0  0  0  0
  179.7260  174.6780  135.6190 C   0  0  0  0  0  0  0  0  0  0  0  0
  182.9100  174.4810  137.3280 N   0  0  0  0  0  0  0  0  0  0  0  0
  181.6610  170.7890  135.6650 C   0  0  0  0  0  2  0  0  0  0  0  0
  180.4000  177.3920  137.3570 C   0  0  1  0  0  3  0  0  0  0  0  0
  183.7690  169.6280  136.3040 C   0  0  0  0  0  1  0  0  0  0  0  0
  184.4230  176.3970  137.9430 C   0  0  0  0  0  2  0  0  0  0  0  0
  186.4180  177.5890  135.1230 O   0  0  0  0  0  0  0  0  0  0  0  0
  184.1430  174.8940  138.0120 C   0  0  0  0  0  2  0  0  0  0  0  0
  179.1200  176.6120  137.0230 C   0  0  0  0  0  2  0  0  0  0  0  0
  179.1460  178.1390  139.3850 C   0  0  0  0  0  3  0  0  0  0  0  0
  180.3750  177.8570  138.7770 C   0  0  0  0  0  0  0  0  0  0  0  0
  181.5640  178.0250  139.5030 C   0  0  0  0  0  3  0  0  0  0  0  0
  182.7830  178.6480  141.5900 C   0  0  0  0  0  1  0  0  0  0  0  0
  180.2910  178.7510  141.4300 C   0  0  0  0  0  3  0  0  0  0  0  0
  181.5210  178.4710  140.8270 C   0  0  0  0  0  0  0  0  0  0  0  0
  179.1050  178.5850  140.7090 C   0  0  0  0  0  3  0  0  0  0  0  0
  189.3530  176.4330  137.0290 C   0  0  0  0  0  1  0  0  0  0  0  0
  188.4680  177.6670  137.1060 C   0  0  2  0  0  3  0  0  0  0  0  0
  189.6000  177.8890  139.3620 C   0  0  0  0  0  1  0  0  0  0  0  0
  188.9550  178.6220  138.1940 C   0  0  0  0  0  2  0  0  0  0  0  0
  1 22  1  0  0  0  0
  1 15  1  0  0  0  0
  2  5  2  0  0  0  0
  4 20  1  0  0  0  0
  4  7  1  0  0  0  0
  5  8  1  0  0  0  0
  5 19  1  0  0  0  0
  6 16  1  0  0  0  0
  6 10  1  0  0  0  0
  7  2  1  0  0  0  0
  7 11  2  0  0  0  0
  8  3  1  6  0  0  0
  8 21  1  0  0  0  0
  9 14  1  0  0  0  0
  9  4  2  0  0  0  0
 11 15  1  0  0  0  0
 11 19  1  0  0  0  0
 12  1  1  0  0  0  0
 13 18  1  0  0  0  0
 13 26  1  0  0  0  0
 14 18  2  0  0  0  0
 16 23  1  0  0  0  0
 17  3  1  0  0  0  0
 17 16  1  0  0  0  0
 18  2  1  0  0  0  0
 19 25  1  0  0  0  0
 20  1  1  0  0  0  0
 21 28  1  1  0  0  0
 23 25  1  0  0  0  0
 24  6  2  0  0  0  0
 26 21  1  0  0  0  0
 27 33  1  0  0  0  0
 28 27  2  0  0  0  0
 28 29  1  0  0  0  0
 29 32  2  0  0  0  0
 32 31  1  0  0  0  0
 32 30  1  0  0  0  0
 33 31  2  0  0  0  0
 35 34  1  1  0  0  0
 35 10  1  0  0  0  0
 35 37  1  0  0  0  0
 37 36  1  0  0  0  0
M  END
>  <MODEL>
8

>  <REMARK>
 VINA RESULT:      -5.4      3.069      7.268
  Name = 
  3 active torsions:
  status: ('A' for Active; 'I' for Inactive)
    1  A    between atoms: C_4  and  N_12
    2  A    between atoms: C_4  and  C_37
    3  A    between atoms: C_23  and  C_30
                            x       y       z     vdW  Elec       q    Type
                         _______ _______ _______ _____ _____    ______ ____

>  <TORSDO>
F 3

$$$$
=
 OpenBabel11122411383D

 37 42  0  0  1  0  0  0  0  0999 V2000
  181.2680  174.0260  135.9670 C   0  0  0  0  0  0  0  0  0  0  0  0
  182.6150  177.3640  138.0280 C   0  0  0  0  0  0  0  0  0  0  0  0
  185.6720  178.5800  137.2910 C   0  0  0  0  0  2  0  0  0  0  0  0
  180.6940  176.2320  137.1100 C   0  0  0  0  0  0  0  0  0  0  0  0
  183.9370  177.0070  138.2510 C   0  0  0  0  0  0  0  0  0  0  0  0
  187.8820  176.0980  135.6870 C   0  0  0  0  0  0  0  0  0  0  0  0
  182.0010  176.2600  137.5390 C   0  0  0  0  0  0  0  0  0  0  0  0
  185.0570  177.9700  138.5510 C   0  0  2  0  0  3  0  0  0  0  0  0
  179.9480  177.4200  137.2370 C   0  0  0  0  0  3  0  0  0  0  0  0
  188.7640  175.0230  136.0330 N   0  0  0  0  0  2  0  0  0  0  0  0
  182.9120  175.2680  137.4190 C   0  0  0  0  0  0  0  0  0  0  0  0
  181.6530  174.5520  134.5940 C   0  0  0  0  0  1  0  0  0  0  0  0
  182.5940  179.7970  138.6810 C   0  0  0  0  0  2  0  0  0  0  0  0
  180.5670  178.5890  137.7580 C   0  0  0  0  0  3  0  0  0  0  0  0
  182.5440  173.9280  136.8500 C   0  0  0  0  0  2  0  0  0  0  0  0
  186.8340  176.4840  136.5860 N   0  0  0  0  0  0  0  0  0  0  0  0
  185.9010  177.5410  136.1850 C   0  0  0  0  0  2  0  0  0  0  0  0
  181.9240  178.5690  138.1570 C   0  0  0  0  0  0  0  0  0  0  0  0
  184.1210  175.7120  137.8370 N   0  0  0  0  0  0  0  0  0  0  0  0
  180.1530  174.9340  136.5680 C   0  0  0  0  0  2  0  0  0  0  0  0
  184.8230  179.0280  139.6480 C   0  0  1  0  0  3  0  0  0  0  0  0
  180.7040  172.6330  135.7920 C   0  0  0  0  0  1  0  0  0  0  0  0
  186.6390  175.7270  137.8250 C   0  0  0  0  0  2  0  0  0  0  0  0
  188.0350  176.7080  134.5940 O   0  0  0  0  0  0  0  0  0  0  0  0
  185.3490  174.9040  137.8050 C   0  0  0  0  0  2  0  0  0  0  0  0
  183.3780  179.4560  139.9400 C   0  0  0  0  0  2  0  0  0  0  0  0
  184.7580  178.3460  142.0510 C   0  0  0  0  0  3  0  0  0  0  0  0
  185.5170  178.6310  140.9100 C   0  0  0  0  0  0  0  0  0  0  0  0
  186.9170  178.5530  140.9710 C   0  0  0  0  0  3  0  0  0  0  0  0
  189.0310  178.1090  142.2220 C   0  0  0  0  0  1  0  0  0  0  0  0
  186.7860  177.9050  143.3000 C   0  0  0  0  0  3  0  0  0  0  0  0
  187.5490  178.1900  142.1630 C   0  0  0  0  0  0  0  0  0  0  0  0
  185.3910  177.9830  143.2440 C   0  0  0  0  0  3  0  0  0  0  0  0
  189.6800  173.0710  134.8740 C   0  0  0  0  0  1  0  0  0  0  0  0
  189.8270  174.5590  135.1510 C   0  0  2  0  0  3  0  0  0  0  0  0
  191.1460  175.0190  137.2650 C   0  0  0  0  0  1  0  0  0  0  0  0
  191.1970  174.8710  135.7510 C   0  0  0  0  0  2  0  0  0  0  0  0
  1 20  1  0  0  0  0
  1 15  1  0  0  0  0
  2 18  1  0  0  0  0
  2  5  2  0  0  0  0
  4  9  2  0  0  0  0
  4  7  1  0  0  0  0
  5  8  1  0  0  0  0
  6 10  1  0  0  0  0
  6 16  1  0  0  0  0
  7  2  1  0  0  0  0
  8  3  1  6  0  0  0
  8 21  1  0  0  0  0
  9 14  1  0  0  0  0
 11  7  2  0  0  0  0
 11 19  1  0  0  0  0
 12  1  1  0  0  0  0
 13 26  1  0  0  0  0
 14 18  2  0  0  0  0
 15 11  1  0  0  0  0
 16 23  1  0  0  0  0
 17 16  1  0  0  0  0
 17  3  1  0  0  0  0
 18 13  1  0  0  0  0
 19  5  1  0  0  0  0
 20  4  1  0  0  0  0
 21 26  1  0  0  0  0
 21 28  1  1  0  0  0
 22  1  1  0  0  0  0
 24  6  2  0  0  0  0
 25 23  1  0  0  0  0
 25 19  1  0  0  0  0
 27 33  1  0  0  0  0
 28 29  1  0  0  0  0
 28 27  2  0  0  0  0
 29 32  2  0  0  0  0
 32 30  1  0  0  0  0
 32 31  1  0  0  0  0
 33 31  2  0  0  0  0
 35 34  1  1  0  0  0
 35 37  1  0  0  0  0
 35 10  1  0  0  0  0
 37 36  1  0  0  0  0
M  END
>  <MODEL>
9

>  <REMARK>
 VINA RESULT:      -5.3      2.658      6.970
  Name = 
  3 active torsions:
  status: ('A' for Active; 'I' for Inactive)
    1  A    between atoms: C_4  and  N_12
    2  A    between atoms: C_4  and  C_37
    3  A    between atoms: C_23  and  C_30
                            x       y       z     vdW  Elec       q    Type
                         _______ _______ _______ _____ _____    ______ ____

>  <TORSDO>
F 3

$$$$
