=
 OpenBabel11122410323D

 30 35  0  0  1  0  0  0  0  0999 V2000
  187.8420  176.8130  144.0550 C   0  0  0  0  0  0  0  0  0  0  0  0
  186.2780  177.4420  145.9670 C   0  0  0  0  0  0  0  0  0  0  0  0
  185.5820  179.3540  141.5380 N   0  0  0  0  0  2  0  0  0  0  0  0
  188.2170  176.9960  142.5450 C   0  0  0  0  0  0  0  0  0  0  0  0
  189.0730  176.8840  144.9620 C   0  0  0  0  0  2  0  0  0  0  0  0
  191.1910  179.0530  142.9860 O   0  0  0  0  0  0  0  0  0  0  0  0
  189.3400  176.7690  139.8620 C   0  0  1  0  0  3  0  0  0  0  0  0
  190.2690  178.2560  143.3130 C   0  0  0  0  0  0  0  0  0  0  0  0
  188.2890  177.7350  139.5790 N   0  0  0  0  0  0  0  0  0  0  0  0
  186.1960  179.1630  140.2210 C   0  0  2  0  0  3  0  0  0  0  0  0
  189.8170  178.1920  144.7410 C   0  0  2  0  0  3  0  0  0  0  0  0
  189.5940  177.4680  142.3110 N   0  0  0  0  0  0  0  0  0  0  0  0
  185.2090  178.1670  146.5000 C   0  0  0  0  0  3  0  0  0  0  0  0
  188.3850  178.1730  138.2370 C   0  0  0  0  0  3  0  0  0  0  0  0
  190.1240  176.6720  138.5480 C   0  0  0  0  0  2  0  0  0  0  0  0
  186.9260  176.5610  146.7690 F   0  0  0  0  0  0  0  0  0  0  0  0
  186.2060  178.6080  142.3900 C   0  0  0  0  0  0  0  0  0  0  0  0
  184.4920  179.0590  145.7030 C   0  0  0  0  0  3  0  0  0  0  0  0
  186.6620  177.6180  144.6200 C   0  0  0  0  0  0  0  0  0  0  0  0
  187.2530  177.8500  141.7860 C   0  0  0  0  0  0  0  0  0  0  0  0
  185.1740  178.5770  139.2640 C   0  0  0  0  0  1  0  0  0  0  0  0
  187.2770  178.1610  140.5020 C   0  0  2  0  0  3  0  0  0  0  0  0
  189.4020  177.5990  137.6220 C   0  0  0  0  0  3  0  0  0  0  0  0
  191.4340  177.4030  140.8580 O   0  0  0  0  0  0  0  0  0  0  0  0
  184.8310  179.2150  144.3600 C   0  0  0  0  0  3  0  0  0  0  0  0
  185.8990  178.4960  143.8120 C   0  0  0  0  0  0  0  0  0  0  0  0
  190.1940  177.2360  141.0180 C   0  0  0  0  0  0  0  0  0  0  0  0
  191.0030  178.2720  145.6960 C   0  0  0  0  0  2  0  0  0  0  0  0
  191.9220  176.8620  147.3910 O   0  0  0  0  0  1  0  0  0  0  0  0
  191.5060  176.8850  146.0600 C   0  0  0  0  0  2  0  0  0  0  0  0
  1 19  1  0  0  0  0
  1  5  1  0  0  0  0
  2 13  1  0  0  0  0
  2 16  1  0  0  0  0
  3 17  1  0  0  0  0
  4  1  2  0  0  0  0
  6  8  2  0  0  0  0
  7 15  1  6  0  0  0
  7 27  1  0  0  0  0
  8 11  1  0  0  0  0
  9  7  1  0  0  0  0
  9 22  1  0  0  0  0
 10 21  1  6  0  0  0
 10 22  1  0  0  0  0
 10  3  1  0  0  0  0
 11  5  1  0  0  0  0
 11 28  1  1  0  0  0
 12  4  1  0  0  0  0
 12  8  1  0  0  0  0
 14  9  1  0  0  0  0
 17 26  1  0  0  0  0
 18 13  2  0  0  0  0
 19  2  2  0  0  0  0
 20 17  2  0  0  0  0
 20  4  1  0  0  0  0
 22 20  1  1  0  0  0
 23 14  2  0  0  0  0
 23 15  1  0  0  0  0
 24 27  2  0  0  0  0
 25 18  1  0  0  0  0
 26 25  2  0  0  0  0
 26 19  1  0  0  0  0
 27 12  1  0  0  0  0
 28 30  1  0  0  0  0
 30 29  1  0  0  0  0
M  END
>  <MODEL>
1

>  <REMARK>
 VINA RESULT:      -9.4      0.000      0.000
  Name = 
  2 active torsions:
  status: ('A' for Active; 'I' for Inactive)
    1  A    between atoms: C_11  and  C_28
    2  A    between atoms: C_28  and  C_30
                            x       y       z     vdW  Elec       q    Type
                         _______ _______ _______ _____ _____    ______ ____

>  <TORSDO>
F 2

$$$$
=
 OpenBabel11122410323D

 30 35  0  0  1  0  0  0  0  0999 V2000
  188.5980  176.2880  143.1480 C   0  0  0  0  0  0  0  0  0  0  0  0
  190.8230  175.8190  144.3010 C   0  0  0  0  0  0  0  0  0  0  0  0
  187.4760  178.5760  146.5260 N   0  0  0  0  0  2  0  0  0  0  0  0
  187.2040  176.9990  143.2160 C   0  0  0  0  0  0  0  0  0  0  0  0
  189.2760  176.4890  141.7920 C   0  0  0  0  0  2  0  0  0  0  0  0
  187.8660  179.6850  140.8460 O   0  0  0  0  0  0  0  0  0  0  0  0
  184.4680  177.9080  142.7690 C   0  0  1  0  0  3  0  0  0  0  0  0
  188.0370  178.5770  141.4260 C   0  0  0  0  0  0  0  0  0  0  0  0
  184.6950  178.5270  144.0660 N   0  0  0  0  0  0  0  0  0  0  0  0
  186.0970  178.9700  146.2280 C   0  0  2  0  0  3  0  0  0  0  0  0
  189.4070  177.9720  141.4810 C   0  0  2  0  0  3  0  0  0  0  0  0
  186.9400  177.9320  142.1050 N   0  0  0  0  0  0  0  0  0  0  0  0
  191.7280  175.9840  145.3530 C   0  0  0  0  0  3  0  0  0  0  0  0
  183.5860  179.3330  144.4170 C   0  0  0  0  0  3  0  0  0  0  0  0
  183.0970  178.4420  142.3340 C   0  0  0  0  0  2  0  0  0  0  0  0
  191.1670  175.0030  143.2740 F   0  0  0  0  0  0  0  0  0  0  0  0
  187.9160  177.8600  145.5440 C   0  0  0  0  0  0  0  0  0  0  0  0
  191.4020  176.7860  146.4450 C   0  0  0  0  0  3  0  0  0  0  0  0
  189.5760  176.4810  144.3170 C   0  0  0  0  0  0  0  0  0  0  0  0
  186.9380  177.6780  144.5210 C   0  0  0  0  0  0  0  0  0  0  0  0
  185.1630  178.3840  147.2720 C   0  0  0  0  0  1  0  0  0  0  0  0
  185.8510  178.3300  144.8940 C   0  0  2  0  0  3  0  0  0  0  0  0
  182.6660  179.3110  143.4720 C   0  0  0  0  0  3  0  0  0  0  0  0
  185.2910  178.8690  140.7240 O   0  0  0  0  0  0  0  0  0  0  0  0
  190.1590  177.4150  146.4990 C   0  0  0  0  0  3  0  0  0  0  0  0
  189.2430  177.2590  145.4520 C   0  0  0  0  0  0  0  0  0  0  0  0
  185.5700  178.2780  141.8030 C   0  0  0  0  0  0  0  0  0  0  0  0
  190.1400  178.1540  140.1560 C   0  0  0  0  0  2  0  0  0  0  0  0
  192.4210  177.5090  140.4520 O   0  0  0  0  0  1  0  0  0  0  0  0
  191.1910  177.0740  139.9610 C   0  0  0  0  0  2  0  0  0  0  0  0
  1  4  2  0  0  0  0
  1 19  1  0  0  0  0
  2 19  2  0  0  0  0
  2 13  1  0  0  0  0
  4 20  1  0  0  0  0
  5  1  1  0  0  0  0
  6  8  2  0  0  0  0
  7 15  1  6  0  0  0
  7  9  1  0  0  0  0
  8 11  1  0  0  0  0
  8 12  1  0  0  0  0
  9 14  1  0  0  0  0
  9 22  1  0  0  0  0
 10  3  1  0  0  0  0
 10 21  1  1  0  0  0
 11 28  1  6  0  0  0
 11  5  1  0  0  0  0
 12  4  1  0  0  0  0
 13 18  2  0  0  0  0
 15 23  1  0  0  0  0
 16  2  1  0  0  0  0
 17  3  1  0  0  0  0
 18 25  1  0  0  0  0
 19 26  1  0  0  0  0
 20 17  2  0  0  0  0
 22 20  1  6  0  0  0
 22 10  1  0  0  0  0
 23 14  2  0  0  0  0
 24 27  2  0  0  0  0
 26 17  1  0  0  0  0
 26 25  2  0  0  0  0
 27 12  1  0  0  0  0
 27  7  1  0  0  0  0
 30 28  1  0  0  0  0
 30 29  1  0  0  0  0
M  END
>  <MODEL>
2

>  <REMARK>
 VINA RESULT:      -8.9      2.382      5.507
  Name = 
  2 active torsions:
  status: ('A' for Active; 'I' for Inactive)
    1  A    between atoms: C_11  and  C_28
    2  A    between atoms: C_28  and  C_30
                            x       y       z     vdW  Elec       q    Type
                         _______ _______ _______ _____ _____    ______ ____

>  <TORSDO>
F 2

$$$$
=
 OpenBabel11122410323D

 30 35  0  0  1  0  0  0  0  0999 V2000
  187.9370  176.8860  144.3260 C   0  0  0  0  0  0  0  0  0  0  0  0
  188.7680  176.9360  146.7350 C   0  0  0  0  0  0  0  0  0  0  0  0
  184.7540  179.4120  145.5060 N   0  0  0  0  0  2  0  0  0  0  0  0
  186.8640  177.3710  143.2920 C   0  0  0  0  0  0  0  0  0  0  0  0
  189.3580  177.0030  143.7720 C   0  0  0  0  0  2  0  0  0  0  0  0
  188.9210  179.7760  141.4880 O   0  0  0  0  0  0  0  0  0  0  0  0
  185.1680  177.7680  140.9520 C   0  0  1  0  0  3  0  0  0  0  0  0
  188.6680  178.8000  142.2460 C   0  0  0  0  0  0  0  0  0  0  0  0
  184.4290  178.5880  141.9000 N   0  0  0  0  0  0  0  0  0  0  0  0
  183.9500  179.5390  144.2880 C   0  0  2  0  0  3  0  0  0  0  0  0
  189.6370  178.4310  143.3290 C   0  0  2  0  0  3  0  0  0  0  0  0
  187.4180  178.0890  142.1300 N   0  0  0  0  0  0  0  0  0  0  0  0
  188.6990  177.3840  148.0570 C   0  0  0  0  0  3  0  0  0  0  0  0
  183.3660  179.2490  141.2400 C   0  0  0  0  0  3  0  0  0  0  0  0
  184.4620  178.0150  139.6130 C   0  0  0  0  0  2  0  0  0  0  0  0
  189.7410  176.0510  146.4030 F   0  0  0  0  0  0  0  0  0  0  0  0
  185.7630  178.6450  145.2500 C   0  0  0  0  0  0  0  0  0  0  0  0
  187.6950  178.2680  148.4500 C   0  0  0  0  0  3  0  0  0  0  0  0
  187.8390  177.3890  145.7740 C   0  0  0  0  0  0  0  0  0  0  0  0
  185.7610  178.1730  143.9040 C   0  0  0  0  0  0  0  0  0  0  0  0
  182.5670  178.9620  144.5290 C   0  0  0  0  0  1  0  0  0  0  0  0
  184.7020  178.6900  143.3050 C   0  0  2  0  0  3  0  0  0  0  0  0
  183.3480  178.9530  139.9550 C   0  0  0  0  0  3  0  0  0  0  0  0
  187.1520  178.5560  139.8460 O   0  0  0  0  0  0  0  0  0  0  0  0
  186.7440  178.6950  147.5250 C   0  0  0  0  0  3  0  0  0  0  0  0
  186.8010  178.2540  146.1980 C   0  0  0  0  0  0  0  0  0  0  0  0
  186.6250  178.1700  140.9260 C   0  0  0  0  0  0  0  0  0  0  0  0
  191.0760  178.5430  142.8380 C   0  0  0  0  0  2  0  0  0  0  0  0
  191.6860  177.4880  140.7830 O   0  0  0  0  0  1  0  0  0  0  0  0
  191.5190  177.2620  142.1490 C   0  0  0  0  0  2  0  0  0  0  0  0
  1 19  1  0  0  0  0
  2 13  1  0  0  0  0
  4 20  1  0  0  0  0
  4  1  2  0  0  0  0
  5  1  1  0  0  0  0
  6  8  2  0  0  0  0
  7 15  1  6  0  0  0
  7  9  1  0  0  0  0
  8 11  1  0  0  0  0
  9 22  1  0  0  0  0
 10 21  1  1  0  0  0
 10  3  1  0  0  0  0
 11 28  1  6  0  0  0
 11  5  1  0  0  0  0
 12  8  1  0  0  0  0
 12  4  1  0  0  0  0
 13 18  2  0  0  0  0
 14  9  1  0  0  0  0
 15 23  1  0  0  0  0
 16  2  1  0  0  0  0
 17  3  1  0  0  0  0
 17 26  1  0  0  0  0
 19 26  1  0  0  0  0
 19  2  2  0  0  0  0
 20 17  2  0  0  0  0
 22 20  1  6  0  0  0
 22 10  1  0  0  0  0
 23 14  2  0  0  0  0
 24 27  2  0  0  0  0
 25 18  1  0  0  0  0
 26 25  2  0  0  0  0
 27  7  1  0  0  0  0
 27 12  1  0  0  0  0
 29 30  1  0  0  0  0
 30 28  1  0  0  0  0
M  END
>  <MODEL>
3

>  <REMARK>
 VINA RESULT:      -8.0      2.375      3.896
  Name = 
  2 active torsions:
  status: ('A' for Active; 'I' for Inactive)
    1  A    between atoms: C_11  and  C_28
    2  A    between atoms: C_28  and  C_30
                            x       y       z     vdW  Elec       q    Type
                         _______ _______ _______ _____ _____    ______ ____

>  <TORSDO>
F 2

$$$$
=
 OpenBabel11122410323D

 30 35  0  0  1  0  0  0  0  0999 V2000
  190.7780  177.8430  140.5720 C   0  0  0  0  0  0  0  0  0  0  0  0
  192.7470  176.8550  139.2900 C   0  0  0  0  0  0  0  0  0  0  0  0
  188.2540  176.5710  137.4230 N   0  0  0  0  0  2  0  0  0  0  0  0
  189.2330  178.1020  140.6180 C   0  0  0  0  0  0  0  0  0  0  0  0
  191.3090  177.3190  141.9070 C   0  0  0  0  0  2  0  0  0  0  0  0
  188.3590  175.6280  143.1450 O   0  0  0  0  0  0  0  0  0  0  0  0
  186.5370  179.0200  141.2530 C   0  0  1  0  0  3  0  0  0  0  0  0
  189.1070  176.3960  142.4790 C   0  0  0  0  0  0  0  0  0  0  0  0
  186.2500  178.3470  139.9950 N   0  0  0  0  0  0  0  0  0  0  0  0
  186.9390  177.0870  137.8100 C   0  0  2  0  0  3  0  0  0  0  0  0
  190.5590  176.0620  142.3190 C   0  0  2  0  0  3  0  0  0  0  0  0
  188.5570  177.5470  141.8050 N   0  0  0  0  0  0  0  0  0  0  0  0
  193.2910  176.1500  138.2130 C   0  0  0  0  0  3  0  0  0  0  0  0
  184.8550  178.3520  139.7530 C   0  0  0  0  0  3  0  0  0  0  0  0
  185.1570  179.4230  141.7860 C   0  0  0  0  0  2  0  0  0  0  0  0
  193.5880  177.3370  140.2380 F   0  0  0  0  0  0  0  0  0  0  0  0
  189.1090  176.9140  138.3290 C   0  0  0  0  0  0  0  0  0  0  0  0
  192.4670  175.6660  137.1970 C   0  0  0  0  0  3  0  0  0  0  0  0
  191.3540  177.0680  139.3770 C   0  0  0  0  0  0  0  0  0  0  0  0
  188.5150  177.6750  139.3790 C   0  0  0  0  0  0  0  0  0  0  0  0
  186.4560  178.0820  136.7700 C   0  0  0  0  0  1  0  0  0  0  0  0
  187.2270  177.7900  139.1040 C   0  0  2  0  0  3  0  0  0  0  0  0
  184.2060  178.9480  140.7350 C   0  0  0  0  0  3  0  0  0  0  0  0
  186.7890  177.8220  143.3230 O   0  0  0  0  0  0  0  0  0  0  0  0
  191.0950  175.9020  137.2450 C   0  0  0  0  0  3  0  0  0  0  0  0
  190.5360  176.6070  138.3180 C   0  0  0  0  0  0  0  0  0  0  0  0
  187.2790  178.0960  142.1920 C   0  0  0  0  0  0  0  0  0  0  0  0
  191.1440  175.5200  143.6190 C   0  0  0  0  0  2  0  0  0  0  0  0
  191.9310  176.1230  145.7920 O   0  0  0  0  0  1  0  0  0  0  0  0
  191.4110  176.6430  144.6080 C   0  0  0  0  0  2  0  0  0  0  0  0
  1  4  1  0  0  0  0
  1  5  1  0  0  0  0
  2 19  1  0  0  0  0
  2 16  1  0  0  0  0
  3 10  1  0  0  0  0
  3 17  1  0  0  0  0
  4 12  1  0  0  0  0
  5 11  1  0  0  0  0
  7 15  1  1  0  0  0
  7 27  1  0  0  0  0
  8  6  2  0  0  0  0
  9  7  1  0  0  0  0
 10 21  1  6  0  0  0
 10 22  1  0  0  0  0
 11  8  1  0  0  0  0
 11 28  1  1  0  0  0
 12 27  1  0  0  0  0
 12  8  1  0  0  0  0
 13  2  2  0  0  0  0
 14  9  1  0  0  0  0
 14 23  2  0  0  0  0
 17 20  1  0  0  0  0
 18 25  2  0  0  0  0
 18 13  1  0  0  0  0
 19  1  2  0  0  0  0
 20  4  2  0  0  0  0
 22 20  1  1  0  0  0
 22  9  1  0  0  0  0
 23 15  1  0  0  0  0
 25 26  1  0  0  0  0
 26 17  2  0  0  0  0
 26 19  1  0  0  0  0
 27 24  2  0  0  0  0
 28 30  1  0  0  0  0
 30 29  1  0  0  0  0
M  END
>  <MODEL>
4

>  <REMARK>
 VINA RESULT:      -7.8      2.856      5.787
  Name = 
  2 active torsions:
  status: ('A' for Active; 'I' for Inactive)
    1  A    between atoms: C_11  and  C_28
    2  A    between atoms: C_28  and  C_30
                            x       y       z     vdW  Elec       q    Type
                         _______ _______ _______ _____ _____    ______ ____

>  <TORSDO>
F 2

$$$$
=
 OpenBabel11122410323D

 30 35  0  0  1  0  0  0  0  0999 V2000
  185.3070  179.3780  142.0860 C   0  0  0  0  0  0  0  0  0  0  0  0
  184.5400  179.2040  144.5110 C   0  0  0  0  0  0  0  0  0  0  0  0
  188.4620  176.7200  143.0260 N   0  0  0  0  0  2  0  0  0  0  0  0
  186.3400  178.9320  140.9960 C   0  0  0  0  0  0  0  0  0  0  0  0
  183.8690  179.3240  141.5660 C   0  0  0  0  0  2  0  0  0  0  0  0
  184.1800  176.6820  139.1130 O   0  0  0  0  0  0  0  0  0  0  0  0
  187.9620  178.6380  138.5890 C   0  0  1  0  0  3  0  0  0  0  0  0
  184.4760  177.6070  139.9190 C   0  0  0  0  0  0  0  0  0  0  0  0
  188.7080  177.7480  139.4660 N   0  0  0  0  0  0  0  0  0  0  0  0
  189.2300  176.6480  141.7800 C   0  0  2  0  0  3  0  0  0  0  0  0
  183.5450  177.9310  141.0490 C   0  0  2  0  0  3  0  0  0  0  0  0
  185.7390  178.2960  139.8090 N   0  0  0  0  0  0  0  0  0  0  0  0
  184.6360  178.6770  145.8010 C   0  0  0  0  0  3  0  0  0  0  0  0
  189.7370  177.1040  138.7390 C   0  0  0  0  0  3  0  0  0  0  0  0
  188.6260  178.4560  137.2190 C   0  0  0  0  0  2  0  0  0  0  0  0
  183.5800  180.1280  144.2590 F   0  0  0  0  0  0  0  0  0  0  0  0
  187.4640  177.5210  142.8430 C   0  0  0  0  0  0  0  0  0  0  0  0
  185.6290  177.7500  146.1140 C   0  0  0  0  0  3  0  0  0  0  0  0
  185.4330  178.7880  143.4980 C   0  0  0  0  0  0  0  0  0  0  0  0
  187.4410  178.0720  141.5280 C   0  0  0  0  0  0  0  0  0  0  0  0
  190.6320  177.1790  142.0140 C   0  0  0  0  0  1  0  0  0  0  0  0
  188.4710  177.5690  140.8700 C   0  0  2  0  0  3  0  0  0  0  0  0
  189.7270  177.4750  137.4730 C   0  0  0  0  0  3  0  0  0  0  0  0
  185.9310  177.9590  137.4960 O   0  0  0  0  0  0  0  0  0  0  0  0
  186.5450  177.3590  145.1390 C   0  0  0  0  0  3  0  0  0  0  0  0
  186.4620  177.8780  143.8420 C   0  0  0  0  0  0  0  0  0  0  0  0
  186.4970  178.2690  138.5800 C   0  0  0  0  0  0  0  0  0  0  0  0
  182.0910  177.8800  140.5930 C   0  0  0  0  0  2  0  0  0  0  0  0
  180.3440  178.2580  142.1780 O   0  0  0  0  0  1  0  0  0  0  0  0
  181.2490  178.9040  141.3370 C   0  0  0  0  0  2  0  0  0  0  0  0
  1 19  1  0  0  0  0
  2 13  1  0  0  0  0
  4 20  1  0  0  0  0
  4  1  2  0  0  0  0
  5  1  1  0  0  0  0
  6  8  2  0  0  0  0
  7 15  1  6  0  0  0
  7  9  1  0  0  0  0
  8 11  1  0  0  0  0
  9 22  1  0  0  0  0
 10 21  1  1  0  0  0
 10  3  1  0  0  0  0
 11 28  1  6  0  0  0
 11  5  1  0  0  0  0
 12  8  1  0  0  0  0
 12  4  1  0  0  0  0
 13 18  2  0  0  0  0
 14  9  1  0  0  0  0
 15 23  1  0  0  0  0
 16  2  1  0  0  0  0
 17  3  1  0  0  0  0
 17 26  1  0  0  0  0
 19 26  1  0  0  0  0
 19  2  2  0  0  0  0
 20 17  2  0  0  0  0
 22 20  1  6  0  0  0
 22 10  1  0  0  0  0
 23 14  2  0  0  0  0
 24 27  2  0  0  0  0
 25 18  1  0  0  0  0
 26 25  2  0  0  0  0
 27  7  1  0  0  0  0
 27 12  1  0  0  0  0
 28 30  1  0  0  0  0
 30 29  1  0  0  0  0
M  END
>  <MODEL>
5

>  <REMARK>
 VINA RESULT:      -7.7      3.323      5.404
  Name = 
  2 active torsions:
  status: ('A' for Active; 'I' for Inactive)
    1  A    between atoms: C_11  and  C_28
    2  A    between atoms: C_28  and  C_30
                            x       y       z     vdW  Elec       q    Type
                         _______ _______ _______ _____ _____    ______ ____

>  <TORSDO>
F 2

$$$$
=
 OpenBabel11122410323D

 30 35  0  0  1  0  0  0  0  0999 V2000
  188.6650  178.5560  140.8490 C   0  0  0  0  0  0  0  0  0  0  0  0
  189.8220  177.9620  138.6570 C   0  0  0  0  0  0  0  0  0  0  0  0
  184.9550  177.9190  138.9160 N   0  0  0  0  0  2  0  0  0  0  0  0
  187.3110  178.7360  141.6180 C   0  0  0  0  0  0  0  0  0  0  0  0
  189.6880  177.7690  141.6700 C   0  0  0  0  0  2  0  0  0  0  0  0
  187.4630  175.7250  143.6630 O   0  0  0  0  0  0  0  0  0  0  0  0
  185.2160  179.3780  143.5440 C   0  0  1  0  0  3  0  0  0  0  0  0
  187.8960  176.6530  142.9250 C   0  0  0  0  0  0  0  0  0  0  0  0
  184.3730  178.9920  142.4230 N   0  0  0  0  0  0  0  0  0  0  0  0
  183.9710  178.2820  139.9390 C   0  0  2  0  0  3  0  0  0  0  0  0
  189.1130  176.4220  142.0810 C   0  0  2  0  0  3  0  0  0  0  0  0
  187.1810  177.9020  142.8260 N   0  0  0  0  0  0  0  0  0  0  0  0
  189.8030  177.5380  137.3260 C   0  0  0  0  0  3  0  0  0  0  0  0
  183.0140  178.9940  142.8180 C   0  0  0  0  0  3  0  0  0  0  0  0
  184.2290  179.5950  144.6970 C   0  0  0  0  0  2  0  0  0  0  0  0
  191.0180  178.2530  139.2260 F   0  0  0  0  0  0  0  0  0  0  0  0
  186.1380  178.0850  139.4110 C   0  0  0  0  0  0  0  0  0  0  0  0
  188.5930  177.2610  136.6900 C   0  0  0  0  0  3  0  0  0  0  0  0
  188.6200  178.0930  139.3860 C   0  0  0  0  0  0  0  0  0  0  0  0
  186.1030  178.5680  140.7530 C   0  0  0  0  0  0  0  0  0  0  0  0
  183.1480  179.4630  139.4570 C   0  0  0  0  0  1  0  0  0  0  0  0
  184.8330  178.6890  141.0980 C   0  0  2  0  0  3  0  0  0  0  0  0
  182.8900  179.3290  144.0880 C   0  0  0  0  0  3  0  0  0  0  0  0
  186.2630  177.7590  144.9810 O   0  0  0  0  0  0  0  0  0  0  0  0
  187.3930  177.4230  137.3800 C   0  0  0  0  0  3  0  0  0  0  0  0
  187.3970  177.8470  138.7140 C   0  0  0  0  0  0  0  0  0  0  0  0
  186.2320  178.2980  143.8400 C   0  0  0  0  0  0  0  0  0  0  0  0
  190.1670  175.6280  142.8440 C   0  0  0  0  0  2  0  0  0  0  0  0
  190.8600  176.7540  144.8340 O   0  0  0  0  0  1  0  0  0  0  0  0
  191.1850  176.5520  143.4920 C   0  0  0  0  0  2  0  0  0  0  0  0
  1  4  1  0  0  0  0
  1  5  1  0  0  0  0
  2 16  1  0  0  0  0
  2 19  1  0  0  0  0
  3 17  1  0  0  0  0
  3 10  1  0  0  0  0
  4 12  1  0  0  0  0
  5 11  1  0  0  0  0
  7 27  1  0  0  0  0
  7 15  1  1  0  0  0
  8  6  2  0  0  0  0
  9 14  1  0  0  0  0
  9  7  1  0  0  0  0
 10 21  1  6  0  0  0
 10 22  1  0  0  0  0
 11 28  1  1  0  0  0
 11  8  1  0  0  0  0
 12  8  1  0  0  0  0
 12 27  1  0  0  0  0
 13  2  2  0  0  0  0
 14 23  2  0  0  0  0
 17 20  1  0  0  0  0
 18 13  1  0  0  0  0
 18 25  2  0  0  0  0
 19  1  2  0  0  0  0
 20  4  2  0  0  0  0
 22 20  1  1  0  0  0
 22  9  1  0  0  0  0
 23 15  1  0  0  0  0
 25 26  1  0  0  0  0
 26 19  1  0  0  0  0
 26 17  2  0  0  0  0
 27 24  2  0  0  0  0
 28 30  1  0  0  0  0
 30 29  1  0  0  0  0
M  END
>  <MODEL>
6

>  <REMARK>
 VINA RESULT:      -7.4      2.607      5.682
  Name = 
  2 active torsions:
  status: ('A' for Active; 'I' for Inactive)
    1  A    between atoms: C_11  and  C_28
    2  A    between atoms: C_28  and  C_30
                            x       y       z     vdW  Elec       q    Type
                         _______ _______ _______ _____ _____    ______ ____

>  <TORSDO>
F 2

$$$$
=
 OpenBabel11122410323D

 30 35  0  0  1  0  0  0  0  0999 V2000
  188.4690  176.4850  143.2220 C   0  0  0  0  0  0  0  0  0  0  0  0
  186.6850  177.1950  144.8980 C   0  0  0  0  0  0  0  0  0  0  0  0
  186.6100  178.9980  140.3700 N   0  0  0  0  0  2  0  0  0  0  0  0
  189.0400  176.6200  141.7690 C   0  0  0  0  0  0  0  0  0  0  0  0
  189.5740  176.5580  144.2780 C   0  0  0  0  0  2  0  0  0  0  0  0
  191.9760  178.6330  142.5410 O   0  0  0  0  0  0  0  0  0  0  0  0
  190.4950  176.2980  139.2610 C   0  0  1  0  0  3  0  0  0  0  0  0
  191.0030  177.8620  142.7660 C   0  0  0  0  0  0  0  0  0  0  0  0
  189.5120  177.2760  138.8200 N   0  0  0  0  0  0  0  0  0  0  0  0
  187.3840  178.7590  139.1500 C   0  0  2  0  0  3  0  0  0  0  0  0
  190.3690  177.8450  144.1240 C   0  0  2  0  0  3  0  0  0  0  0  0
  190.4460  177.0600  141.7040 N   0  0  0  0  0  0  0  0  0  0  0  0
  185.5720  177.9540  145.2700 C   0  0  0  0  0  3  0  0  0  0  0  0
  189.7900  177.6750  137.4910 C   0  0  0  0  0  3  0  0  0  0  0  0
  191.4410  176.1510  138.0620 C   0  0  0  0  0  2  0  0  0  0  0  0
  187.2040  176.3240  145.7990 F   0  0  0  0  0  0  0  0  0  0  0  0
  187.1020  178.2640  141.3140 C   0  0  0  0  0  0  0  0  0  0  0  0
  184.9840  178.8360  144.3650 C   0  0  0  0  0  3  0  0  0  0  0  0
  187.2440  177.3270  143.6080 C   0  0  0  0  0  0  0  0  0  0  0  0
  188.2010  177.4700  140.8710 C   0  0  0  0  0  0  0  0  0  0  0  0
  186.4820  178.1660  138.0830 C   0  0  0  0  0  1  0  0  0  0  0  0
  188.3980  177.7460  139.5930 C   0  0  2  0  0  3  0  0  0  0  0  0
  190.8650  177.0660  137.0280 C   0  0  0  0  0  3  0  0  0  0  0  0
  192.4570  176.9200  140.5040 O   0  0  0  0  0  0  0  0  0  0  0  0
  185.4970  178.9500  143.0740 C   0  0  0  0  0  3  0  0  0  0  0  0
  186.6110  178.1960  142.6870 C   0  0  0  0  0  0  0  0  0  0  0  0
  191.2020  176.7810  140.5060 C   0  0  0  0  0  0  0  0  0  0  0  0
  191.4230  177.9300  145.2220 C   0  0  0  0  0  2  0  0  0  0  0  0
  189.8510  177.7810  147.0160 O   0  0  0  0  0  1  0  0  0  0  0  0
  190.9790  177.1740  146.4650 C   0  0  0  0  0  2  0  0  0  0  0  0
  1 19  1  0  0  0  0
  1  5  1  0  0  0  0
  2 13  1  0  0  0  0
  2 16  1  0  0  0  0
  3 17  1  0  0  0  0
  4  1  2  0  0  0  0
  6  8  2  0  0  0  0
  7 15  1  6  0  0  0
  7 27  1  0  0  0  0
  8 11  1  0  0  0  0
  9  7  1  0  0  0  0
  9 22  1  0  0  0  0
 10 21  1  6  0  0  0
 10 22  1  0  0  0  0
 10  3  1  0  0  0  0
 11  5  1  0  0  0  0
 11 28  1  1  0  0  0
 12  4  1  0  0  0  0
 12  8  1  0  0  0  0
 14  9  1  0  0  0  0
 17 26  1  0  0  0  0
 18 13  2  0  0  0  0
 19  2  2  0  0  0  0
 20 17  2  0  0  0  0
 20  4  1  0  0  0  0
 22 20  1  1  0  0  0
 23 14  2  0  0  0  0
 23 15  1  0  0  0  0
 24 27  2  0  0  0  0
 25 18  1  0  0  0  0
 26 25  2  0  0  0  0
 26 19  1  0  0  0  0
 27 12  1  0  0  0  0
 28 30  1  0  0  0  0
 30 29  1  0  0  0  0
M  END
>  <MODEL>
7

>  <REMARK>
 VINA RESULT:      -7.3      1.172      1.356
  Name = 
  2 active torsions:
  status: ('A' for Active; 'I' for Inactive)
    1  A    between atoms: C_11  and  C_28
    2  A    between atoms: C_28  and  C_30
                            x       y       z     vdW  Elec       q    Type
                         _______ _______ _______ _____ _____    ______ ____

>  <TORSDO>
F 2

$$$$
=
 OpenBabel11122410323D

 30 35  0  0  1  0  0  0  0  0999 V2000
  189.3110  176.3640  140.4490 C   0  0  0  0  0  0  0  0  0  0  0  0
  191.2750  176.3590  138.8240 C   0  0  0  0  0  0  0  0  0  0  0  0
  191.8660  178.1100  143.3340 N   0  0  0  0  0  2  0  0  0  0  0  0
  188.7870  176.7220  141.8820 C   0  0  0  0  0  0  0  0  0  0  0  0
  188.3330  176.8020  139.3570 C   0  0  0  0  0  2  0  0  0  0  0  0
  186.7790  179.6290  140.9970 O   0  0  0  0  0  0  0  0  0  0  0  0
  187.2470  176.9890  144.3450 C   0  0  1  0  0  3  0  0  0  0  0  0
  187.4210  178.5590  140.8110 C   0  0  0  0  0  0  0  0  0  0  0  0
  188.5020  177.5620  144.8070 N   0  0  0  0  0  0  0  0  0  0  0  0
  191.0260  178.1870  144.5320 C   0  0  2  0  0  3  0  0  0  0  0  0
  188.0430  178.2900  139.4730 C   0  0  2  0  0  3  0  0  0  0  0  0
  187.6290  177.6330  141.8970 N   0  0  0  0  0  0  0  0  0  0  0  0
  192.5940  176.6670  138.4800 C   0  0  0  0  0  3  0  0  0  0  0  0
  188.3490  178.0610  146.1230 C   0  0  0  0  0  3  0  0  0  0  0  0
  186.2800  177.2110  145.5140 C   0  0  0  0  0  2  0  0  0  0  0  0
  190.5040  175.7120  137.9150 F   0  0  0  0  0  0  0  0  0  0  0  0
  191.1710  177.5800  142.3820 C   0  0  0  0  0  0  0  0  0  0  0  0
  193.4330  177.3010  139.3960 C   0  0  0  0  0  3  0  0  0  0  0  0
  190.7650  176.7080  140.0940 C   0  0  0  0  0  0  0  0  0  0  0  0
  189.8500  177.2370  142.7980 C   0  0  0  0  0  0  0  0  0  0  0  0
  191.6300  177.3350  145.6330 C   0  0  0  0  0  1  0  0  0  0  0  0
  189.7300  177.5900  144.0660 C   0  0  2  0  0  3  0  0  0  0  0  0
  187.1160  177.8830  146.5570 C   0  0  0  0  0  3  0  0  0  0  0  0
  185.6680  178.2410  143.0340 O   0  0  0  0  0  0  0  0  0  0  0  0
  192.9600  177.6160  140.6680 C   0  0  0  0  0  3  0  0  0  0  0  0
  191.6410  177.3140  141.0270 C   0  0  0  0  0  0  0  0  0  0  0  0
  186.7910  177.6660  143.0730 C   0  0  0  0  0  0  0  0  0  0  0  0
  187.1180  178.7210  138.3410 C   0  0  0  0  0  2  0  0  0  0  0  0
  189.0520  179.6060  137.2550 O   0  0  0  0  0  1  0  0  0  0  0  0
  187.8840  178.8760  137.0380 C   0  0  0  0  0  2  0  0  0  0  0  0
  1  4  1  0  0  0  0
  2 19  1  0  0  0  0
  3 10  1  0  0  0  0
  4 12  1  0  0  0  0
  4 20  2  0  0  0  0
  5 11  1  0  0  0  0
  5  1  1  0  0  0  0
  7  9  1  0  0  0  0
  7 15  1  1  0  0  0
  8  6  2  0  0  0  0
  8 12  1  0  0  0  0
  9 14  1  0  0  0  0
 10 21  1  1  0  0  0
 11 28  1  6  0  0  0
 11  8  1  0  0  0  0
 12 27  1  0  0  0  0
 13  2  2  0  0  0  0
 13 18  1  0  0  0  0
 14 23  2  0  0  0  0
 15 23  1  0  0  0  0
 16  2  1  0  0  0  0
 17 20  1  0  0  0  0
 17  3  1  0  0  0  0
 18 25  2  0  0  0  0
 19  1  2  0  0  0  0
 19 26  1  0  0  0  0
 22 20  1  6  0  0  0
 22 10  1  0  0  0  0
 22  9  1  0  0  0  0
 24 27  2  0  0  0  0
 25 26  1  0  0  0  0
 26 17  2  0  0  0  0
 27  7  1  0  0  0  0
 30 29  1  0  0  0  0
 30 28  1  0  0  0  0
M  END
>  <MODEL>
8

>  <REMARK>
 VINA RESULT:      -7.2      2.962      7.129
  Name = 
  2 active torsions:
  status: ('A' for Active; 'I' for Inactive)
    1  A    between atoms: C_11  and  C_28
    2  A    between atoms: C_28  and  C_30
                            x       y       z     vdW  Elec       q    Type
                         _______ _______ _______ _____ _____    ______ ____

>  <TORSDO>
F 2

$$$$
=
 OpenBabel11122410323D

 30 35  0  0  1  0  0  0  0  0999 V2000
  183.8030  179.2690  141.2860 C   0  0  0  0  0  0  0  0  0  0  0  0
  183.1450  179.2740  143.7490 C   0  0  0  0  0  0  0  0  0  0  0  0
  187.5850  177.7550  142.4310 N   0  0  0  0  0  2  0  0  0  0  0  0
  184.9060  178.9560  140.2180 C   0  0  0  0  0  0  0  0  0  0  0  0
  182.4310  178.7430  140.8610 C   0  0  0  0  0  2  0  0  0  0  0  0
  183.4350  175.9360  138.8090 O   0  0  0  0  0  0  0  0  0  0  0  0
  186.5160  178.7430  137.7950 C   0  0  1  0  0  3  0  0  0  0  0  0
  183.4720  177.0210  139.4530 C   0  0  0  0  0  0  0  0  0  0  0  0
  187.4910  178.2400  138.7510 N   0  0  0  0  0  0  0  0  0  0  0  0
  188.3270  177.7010  141.1690 C   0  0  2  0  0  3  0  0  0  0  0  0
  182.5010  177.2520  140.5730 C   0  0  2  0  0  3  0  0  0  0  0  0
  184.4910  178.0030  139.1740 N   0  0  0  0  0  0  0  0  0  0  0  0
  183.4000  179.0020  145.0960 C   0  0  0  0  0  3  0  0  0  0  0  0
  188.6500  177.7960  138.0700 C   0  0  0  0  0  3  0  0  0  0  0  0
  187.1880  178.5370  136.4310 C   0  0  0  0  0  2  0  0  0  0  0  0
  181.9620  179.8490  143.4180 F   0  0  0  0  0  0  0  0  0  0  0  0
  186.4010  178.2150  142.1880 C   0  0  0  0  0  0  0  0  0  0  0  0
  184.6160  178.4430  145.4860 C   0  0  0  0  0  3  0  0  0  0  0  0
  184.1050  178.9650  142.7610 C   0  0  0  0  0  0  0  0  0  0  0  0
  186.2090  178.5250  140.8090 C   0  0  0  0  0  0  0  0  0  0  0  0
  189.5280  178.6260  141.2440 C   0  0  0  0  0  1  0  0  0  0  0  0
  187.3300  178.2260  140.1770 C   0  0  2  0  0  3  0  0  0  0  0  0
  188.5210  177.9470  136.7660 C   0  0  0  0  0  3  0  0  0  0  0  0
  184.7410  177.3730  136.9280 O   0  0  0  0  0  0  0  0  0  0  0  0
  185.5920  178.1690  144.5300 C   0  0  0  0  0  3  0  0  0  0  0  0
  185.3510  178.4360  143.1770 C   0  0  0  0  0  0  0  0  0  0  0  0
  185.2110  177.9920  137.9220 C   0  0  0  0  0  0  0  0  0  0  0  0
  181.1140  176.7340  140.2110 C   0  0  0  0  0  2  0  0  0  0  0  0
  179.2600  176.6740  141.7170 O   0  0  0  0  0  1  0  0  0  0  0  0
  180.0320  177.5260  140.9270 C   0  0  0  0  0  2  0  0  0  0  0  0
  1 19  1  0  0  0  0
  2 13  1  0  0  0  0
  4 20  1  0  0  0  0
  4  1  2  0  0  0  0
  5  1  1  0  0  0  0
  6  8  2  0  0  0  0
  7 15  1  6  0  0  0
  7 27  1  0  0  0  0
  7  9  1  0  0  0  0
  8 11  1  0  0  0  0
  9 22  1  0  0  0  0
 10 21  1  1  0  0  0
 10  3  1  0  0  0  0
 11 28  1  6  0  0  0
 11  5  1  0  0  0  0
 12  8  1  0  0  0  0
 12  4  1  0  0  0  0
 13 18  2  0  0  0  0
 14  9  1  0  0  0  0
 15 23  1  0  0  0  0
 16  2  1  0  0  0  0
 17  3  1  0  0  0  0
 17 26  1  0  0  0  0
 19 26  1  0  0  0  0
 19  2  2  0  0  0  0
 20 17  2  0  0  0  0
 22 20  1  6  0  0  0
 22 10  1  0  0  0  0
 23 14  2  0  0  0  0
 24 27  2  0  0  0  0
 25 18  1  0  0  0  0
 26 25  2  0  0  0  0
 27 12  1  0  0  0  0
 28 30  1  0  0  0  0
 30 29  1  0  0  0  0
M  END
>  <MODEL>
9

>  <REMARK>
 VINA RESULT:      -7.2      3.931      6.086
  Name = 
  2 active torsions:
  status: ('A' for Active; 'I' for Inactive)
    1  A    between atoms: C_11  and  C_28
    2  A    between atoms: C_28  and  C_30
                            x       y       z     vdW  Elec       q    Type
                         _______ _______ _______ _____ _____    ______ ____

>  <TORSDO>
F 2

$$$$
