=
 OpenBabel11122410553D

 31 35  0  0  1  0  0  0  0  0999 V2000
  185.3670  178.7880  139.3740 C   0  0  0  0  0  0  0  0  0  0  0  0
  188.7710  177.8890  140.5100 N   0  0  0  0  0  0  0  0  0  0  0  0
  188.6730  177.5520  141.9170 C   0  0  0  0  0  0  0  0  0  0  0  0
  187.4210  177.4570  144.0030 C   0  0  0  0  0  0  0  0  0  0  0  0
  187.6060  178.0360  139.6710 C   0  0  0  0  0  0  0  0  0  0  0  0
  185.3630  178.3390  138.0530 C   0  0  0  0  0  3  0  0  0  0  0  0
  187.4970  177.7880  142.6480 C   0  0  0  0  0  3  0  0  0  0  0  0
  190.0070  176.8120  138.7170 C   0  0  0  0  0  0  0  0  0  0  0  0
  184.2640  179.3830  139.8890 F   0  0  0  0  0  0  0  0  0  0  0  0
  191.0210  176.6520  141.8190 C   0  0  0  0  0  2  0  0  0  0  0  0
  186.1690  177.7170  144.7600 C   0  0  0  0  0  1  0  0  0  0  0  0
  188.8580  176.9090  137.7470 C   0  0  0  0  0  2  0  0  0  0  0  0
  190.0660  177.8420  139.8110 C   0  0  2  0  0  3  0  0  0  0  0  0
  190.9450  175.9140  138.6080 N   0  0  0  0  0  0  0  0  0  0  0  0
  186.4760  178.6310  140.1450 N   0  0  0  0  0  0  0  0  0  0  0  0
  188.5170  176.8780  144.6430 C   0  0  0  0  0  3  0  0  0  0  0  0
  187.6400  177.5740  138.3360 C   0  0  0  0  0  0  0  0  0  0  0  0
  186.5070  177.7300  137.5370 C   0  0  0  0  0  3  0  0  0  0  0  0
  191.2690  177.7140  140.7600 C   0  0  0  0  0  2  0  0  0  0  0  0
  189.7770  176.9760  142.5780 C   0  0  0  0  0  0  0  0  0  0  0  0
  189.6920  176.6320  143.9300 C   0  0  0  0  0  3  0  0  0  0  0  0
  190.3730  173.8230  137.6910 O   0  0  0  0  0  0  0  0  0  0  0  0
  191.0620  174.8760  137.6200 C   0  0  0  0  0  0  0  0  0  0  0  0
  193.9840  172.8850  136.6360 C   0  0  0  0  0  0  0  0  0  0  0  0
  191.9750  173.8380  135.5190 C   0  0  0  0  0  2  0  0  0  0  0  0
  193.5330  176.3690  137.8290 O   0  0  0  0  0  1  0  0  0  0  0  0
  194.8630  171.9550  136.6600 N   0  0  0  0  0  2  0  0  0  0  0  0
  192.6130  172.5810  136.1120 C   0  0  0  0  0  2  0  0  0  0  0  0
  193.4810  175.3010  136.9320 C   0  0  2  0  0  3  0  0  0  0  0  0
  192.0330  175.0270  136.4870 C   0  0  2  0  0  3  0  0  0  0  0  0
  194.1520  174.0690  137.5410 C   0  0  0  0  0  2  0  0  0  0  0  0
  1  9  1  0  0  0  0
  1 15  1  0  0  0  0
  2  3  1  0  0  0  0
  3 20  2  0  0  0  0
  3  7  1  0  0  0  0
  4 16  1  0  0  0  0
  4 11  1  0  0  0  0
  5 15  2  0  0  0  0
  5  2  1  0  0  0  0
  6  1  2  0  0  0  0
  7  4  2  0  0  0  0
  8 13  1  0  0  0  0
 10 20  1  0  0  0  0
 12 17  1  0  0  0  0
 12  8  1  0  0  0  0
 13  2  1  0  0  0  0
 13 19  1  1  0  0  0
 14  8  2  0  0  0  0
 17  5  1  0  0  0  0
 18  6  1  0  0  0  0
 18 17  2  0  0  0  0
 19 10  1  0  0  0  0
 20 21  1  0  0  0  0
 21 16  2  0  0  0  0
 23 22  2  0  0  0  0
 23 14  1  0  0  0  0
 24 27  2  0  0  0  0
 24 31  1  0  0  0  0
 25 28  1  0  0  0  0
 25 30  1  0  0  0  0
 28 24  1  0  0  0  0
 29 31  1  0  0  0  0
 29 26  1  1  0  0  0
 30 29  1  0  0  0  0
 30 23  1  1  0  0  0
M  END
>  <MODEL>
1

>  <REMARK>
 VINA RESULT:      -9.1      0.000      0.000
  Name = 
  2 active torsions:
  status: ('A' for Active; 'I' for Inactive)
    1  A    between atoms: C_5  and  N_16
    2  A    between atoms: C_5  and  C_30
                            x       y       z     vdW  Elec       q    Type
                         _______ _______ _______ _____ _____    ______ ____

>  <TORSDO>
F 2

$$$$
=
 OpenBabel11122410553D

 31 35  0  0  1  0  0  0  0  0999 V2000
  187.9000  178.1930  136.9290 C   0  0  0  0  0  0  0  0  0  0  0  0
  185.9580  178.5930  140.0530 N   0  0  0  0  0  0  0  0  0  0  0  0
  184.6670  177.9700  139.8320 C   0  0  0  0  0  0  0  0  0  0  0  0
  183.0220  176.9410  138.3620 C   0  0  0  0  0  0  0  0  0  0  0  0
  187.0680  178.4040  139.1500 C   0  0  0  0  0  0  0  0  0  0  0  0
  189.2060  178.0600  137.4020 C   0  0  0  0  0  3  0  0  0  0  0  0
  184.2690  177.5390  138.5560 C   0  0  0  0  0  3  0  0  0  0  0  0
  187.4310  178.5180  141.9830 C   0  0  0  0  0  0  0  0  0  0  0  0
  187.6560  178.1530  135.5980 F   0  0  0  0  0  0  0  0  0  0  0  0
  184.1970  178.1760  142.2950 C   0  0  0  0  0  2  0  0  0  0  0  0
  182.6170  176.4940  137.0040 C   0  0  0  0  0  1  0  0  0  0  0  0
  188.6670  178.3180  141.1440 C   0  0  0  0  0  2  0  0  0  0  0  0
  186.2760  179.2340  141.3400 C   0  0  2  0  0  3  0  0  0  0  0  0
  187.3570  178.1370  143.2270 N   0  0  0  0  0  0  0  0  0  0  0  0
  186.8720  178.3620  137.8020 N   0  0  0  0  0  0  0  0  0  0  0  0
  182.1590  176.7580  139.4440 C   0  0  0  0  0  3  0  0  0  0  0  0
  188.3780  178.2780  139.6650 C   0  0  0  0  0  0  0  0  0  0  0  0
  189.4400  178.1030  138.7770 C   0  0  0  0  0  3  0  0  0  0  0  0
  185.0500  179.4330  142.2440 C   0  0  0  0  0  2  0  0  0  0  0  0
  183.7820  177.7890  140.9150 C   0  0  0  0  0  0  0  0  0  0  0  0
  182.5410  177.1760  140.7190 C   0  0  0  0  0  3  0  0  0  0  0  0
  188.4910  176.2130  143.9710 O   0  0  0  0  0  0  0  0  0  0  0  0
  188.3630  177.4660  144.0050 C   0  0  0  0  0  0  0  0  0  0  0  0
  191.2510  176.4720  146.0400 C   0  0  0  0  0  0  0  0  0  0  0  0
  190.7210  178.2540  144.3860 C   0  0  0  0  0  2  0  0  0  0  0  0
  187.8950  177.8380  146.8380 O   0  0  0  0  0  1  0  0  0  0  0  0
  192.1460  175.7210  146.5640 N   0  0  0  0  0  2  0  0  0  0  0  0
  191.4070  176.9060  144.6140 C   0  0  0  0  0  2  0  0  0  0  0  0
  189.2140  177.8540  146.3790 C   0  0  2  0  0  3  0  0  0  0  0  0
  189.2740  178.2600  144.8950 C   0  0  2  0  0  3  0  0  0  0  0  0
  189.8800  176.5040  146.6470 C   0  0  0  0  0  2  0  0  0  0  0  0
  1  6  2  0  0  0  0
  1 15  1  0  0  0  0
  2 13  1  0  0  0  0
  3  2  1  0  0  0  0
  3 20  1  0  0  0  0
  4  7  1  0  0  0  0
  4 16  2  0  0  0  0
  5 17  1  0  0  0  0
  5  2  1  0  0  0  0
  6 18  1  0  0  0  0
  7  3  2  0  0  0  0
  8 14  2  0  0  0  0
  9  1  1  0  0  0  0
 11  4  1  0  0  0  0
 12  8  1  0  0  0  0
 13  8  1  0  0  0  0
 13 19  1  1  0  0  0
 14 23  1  0  0  0  0
 15  5  2  0  0  0  0
 16 21  1  0  0  0  0
 17 12  1  0  0  0  0
 18 17  2  0  0  0  0
 19 10  1  0  0  0  0
 20 10  1  0  0  0  0
 21 20  2  0  0  0  0
 22 23  2  0  0  0  0
 24 27  2  0  0  0  0
 24 31  1  0  0  0  0
 25 28  1  0  0  0  0
 25 30  1  0  0  0  0
 28 24  1  0  0  0  0
 29 31  1  0  0  0  0
 29 26  1  6  0  0  0
 30 23  1  6  0  0  0
 30 29  1  0  0  0  0
M  END
>  <MODEL>
2

>  <REMARK>
 VINA RESULT:      -9.0      4.199      7.101
  Name = 
  2 active torsions:
  status: ('A' for Active; 'I' for Inactive)
    1  A    between atoms: C_5  and  N_16
    2  A    between atoms: C_5  and  C_30
                            x       y       z     vdW  Elec       q    Type
                         _______ _______ _______ _____ _____    ______ ____

>  <TORSDO>
F 2

$$$$
=
 OpenBabel11122410553D

 31 35  0  0  1  0  0  0  0  0999 V2000
  185.1460  178.3880  144.3210 C   0  0  0  0  0  0  0  0  0  0  0  0
  188.8250  178.3420  143.9280 N   0  0  0  0  0  0  0  0  0  0  0  0
  189.3680  177.6950  145.1070 C   0  0  0  0  0  0  0  0  0  0  0  0
  189.1040  176.7730  147.3450 C   0  0  0  0  0  0  0  0  0  0  0  0
  187.4170  178.3060  143.6120 C   0  0  0  0  0  0  0  0  0  0  0  0
  184.7020  178.2560  143.0040 C   0  0  0  0  0  3  0  0  0  0  0  0
  188.5630  177.3980  146.2190 C   0  0  0  0  0  3  0  0  0  0  0  0
  189.4250  178.1080  141.5870 C   0  0  0  0  0  0  0  0  0  0  0  0
  184.2480  178.4920  145.3300 F   0  0  0  0  0  0  0  0  0  0  0  0
  191.6070  177.5950  143.9630 C   0  0  0  0  0  2  0  0  0  0  0  0
  188.2360  176.4690  148.5130 C   0  0  0  0  0  1  0  0  0  0  0  0
  187.9890  178.0580  141.1320 C   0  0  0  0  0  2  0  0  0  0  0  0
  189.7120  178.8440  142.8660 C   0  0  2  0  0  3  0  0  0  0  0  0
  190.3990  177.5830  140.8980 N   0  0  0  0  0  0  0  0  0  0  0  0
  186.4780  178.4110  144.5930 N   0  0  0  0  0  0  0  0  0  0  0  0
  190.4570  176.4310  147.3720 C   0  0  0  0  0  3  0  0  0  0  0  0
  187.0040  178.1770  142.2660 C   0  0  0  0  0  0  0  0  0  0  0  0
  185.6390  178.1510  141.9770 C   0  0  0  0  0  3  0  0  0  0  0  0
  191.1930  178.8850  143.2740 C   0  0  0  0  0  2  0  0  0  0  0  0
  190.7350  177.3530  145.1510 C   0  0  0  0  0  0  0  0  0  0  0  0
  191.2700  176.7150  146.2730 C   0  0  0  0  0  3  0  0  0  0  0  0
  190.0890  175.6310  139.6200 O   0  0  0  0  0  0  0  0  0  0  0  0
  190.3150  176.8710  139.6520 C   0  0  0  0  0  0  0  0  0  0  0  0
  188.9360  176.3020  136.2990 C   0  0  0  0  0  0  0  0  0  0  0  0
  189.2140  178.2310  137.8460 C   0  0  0  0  0  2  0  0  0  0  0  0
  192.3580  176.1650  137.7270 O   0  0  0  0  0  1  0  0  0  0  0  0
  188.2520  175.7630  135.3600 N   0  0  0  0  0  2  0  0  0  0  0  0
  188.2450  177.1840  137.2930 C   0  0  0  0  0  2  0  0  0  0  0  0
  191.1840  176.7560  137.2560 C   0  0  2  0  0  3  0  0  0  0  0  0
  190.5150  177.6000  138.3560 C   0  0  2  0  0  3  0  0  0  0  0  0
  190.2500  175.6890  136.6850 C   0  0  0  0  0  2  0  0  0  0  0  0
  1 15  1  0  0  0  0
  1  9  1  0  0  0  0
  2  3  1  0  0  0  0
  3 20  2  0  0  0  0
  3  7  1  0  0  0  0
  4 16  1  0  0  0  0
  4 11  1  0  0  0  0
  5  2  1  0  0  0  0
  5 15  2  0  0  0  0
  6  1  2  0  0  0  0
  7  4  2  0  0  0  0
  8 13  1  0  0  0  0
 10 20  1  0  0  0  0
 12  8  1  0  0  0  0
 12 17  1  0  0  0  0
 13 19  1  1  0  0  0
 13  2  1  0  0  0  0
 14  8  2  0  0  0  0
 17  5  1  0  0  0  0
 18 17  2  0  0  0  0
 18  6  1  0  0  0  0
 19 10  1  0  0  0  0
 20 21  1  0  0  0  0
 21 16  2  0  0  0  0
 22 23  2  0  0  0  0
 23 14  1  0  0  0  0
 24 31  1  0  0  0  0
 24 28  1  0  0  0  0
 25 30  1  0  0  0  0
 27 24  2  0  0  0  0
 28 25  1  0  0  0  0
 29 26  1  1  0  0  0
 29 30  1  0  0  0  0
 30 23  1  1  0  0  0
 31 29  1  0  0  0  0
M  END
>  <MODEL>
3

>  <REMARK>
 VINA RESULT:      -8.7      2.825      4.148
  Name = 
  2 active torsions:
  status: ('A' for Active; 'I' for Inactive)
    1  A    between atoms: C_5  and  N_16
    2  A    between atoms: C_5  and  C_30
                            x       y       z     vdW  Elec       q    Type
                         _______ _______ _______ _____ _____    ______ ____

>  <TORSDO>
F 2

$$$$
=
 OpenBabel11122410553D

 31 35  0  0  1  0  0  0  0  0999 V2000
  190.9580  176.7290  142.4540 C   0  0  0  0  0  0  0  0  0  0  0  0
  189.8110  177.7640  139.0920 N   0  0  0  0  0  0  0  0  0  0  0  0
  190.5580  176.9780  138.1290 C   0  0  0  0  0  0  0  0  0  0  0  0
  192.3530  175.4280  137.5780 C   0  0  0  0  0  0  0  0  0  0  0  0
  189.8040  177.4500  140.5010 C   0  0  0  0  0  0  0  0  0  0  0  0
  189.7990  176.8610  143.2200 C   0  0  0  0  0  3  0  0  0  0  0  0
  191.6460  176.1790  138.5190 C   0  0  0  0  0  3  0  0  0  0  0  0
  187.4590  178.3650  139.1460 C   0  0  0  0  0  0  0  0  0  0  0  0
  192.1070  176.3050  143.0330 F   0  0  0  0  0  0  0  0  0  0  0  0
  189.0060  177.7960  136.3260 C   0  0  0  0  0  2  0  0  0  0  0  0
  193.5030  174.5910  138.0090 C   0  0  0  0  0  1  0  0  0  0  0  0
  187.3250  178.0700  140.6180 C   0  0  0  0  0  2  0  0  0  0  0  0
  188.8210  178.7590  138.6480 C   0  0  2  0  0  3  0  0  0  0  0  0
  186.4440  178.3310  138.3280 N   0  0  0  0  0  0  0  0  0  0  0  0
  190.9360  177.0240  141.1270 N   0  0  0  0  0  0  0  0  0  0  0  0
  191.9780  175.4600  136.2340 C   0  0  0  0  0  3  0  0  0  0  0  0
  188.6130  177.6010  141.2470 C   0  0  0  0  0  0  0  0  0  0  0  0
  188.6250  177.3000  142.6090 C   0  0  0  0  0  3  0  0  0  0  0  0
  188.8990  179.0720  137.1460 C   0  0  0  0  0  2  0  0  0  0  0  0
  190.1950  177.0090  136.7670 C   0  0  0  0  0  0  0  0  0  0  0  0
  190.8960  176.2450  135.8300 C   0  0  0  0  0  3  0  0  0  0  0  0
  184.4140  177.2190  137.8970 O   0  0  0  0  0  0  0  0  0  0  0  0
  185.0780  178.0010  138.6300 C   0  0  0  0  0  0  0  0  0  0  0  0
  181.5350  178.3720  139.5130 C   0  0  0  0  0  0  0  0  0  0  0  0
  183.6110  177.5680  140.6260 C   0  0  0  0  0  2  0  0  0  0  0  0
  184.2610  180.7750  138.7650 O   0  0  0  0  0  1  0  0  0  0  0  0
  180.2610  178.2860  139.4180 N   0  0  0  0  0  2  0  0  0  0  0  0
  182.3210  177.1600  139.9110 C   0  0  0  0  0  2  0  0  0  0  0  0
  183.5420  179.8380  139.5090 C   0  0  2  0  0  3  0  0  0  0  0  0
  184.4090  178.6070  139.8290 C   0  0  2  0  0  3  0  0  0  0  0  0
  182.2460  179.4720  138.7830 C   0  0  0  0  0  2  0  0  0  0  0  0
  1  9  1  0  0  0  0
  1  6  1  0  0  0  0
  2  5  1  0  0  0  0
  3  7  1  0  0  0  0
  3  2  1  0  0  0  0
  4 11  1  0  0  0  0
  4  7  2  0  0  0  0
  5 15  1  0  0  0  0
  5 17  2  0  0  0  0
  8 12  1  0  0  0  0
 10 20  1  0  0  0  0
 10 19  1  0  0  0  0
 12 17  1  0  0  0  0
 13 19  1  6  0  0  0
 13  2  1  0  0  0  0
 13  8  1  0  0  0  0
 14 23  1  0  0  0  0
 14  8  2  0  0  0  0
 15  1  2  0  0  0  0
 16  4  1  0  0  0  0
 17 18  1  0  0  0  0
 18  6  2  0  0  0  0
 20  3  2  0  0  0  0
 21 16  2  0  0  0  0
 21 20  1  0  0  0  0
 22 23  2  0  0  0  0
 24 28  1  0  0  0  0
 27 24  2  0  0  0  0
 28 25  1  0  0  0  0
 29 26  1  6  0  0  0
 29 30  1  0  0  0  0
 30 23  1  6  0  0  0
 30 25  1  0  0  0  0
 31 29  1  0  0  0  0
 31 24  1  0  0  0  0
M  END
>  <MODEL>
4

>  <REMARK>
 VINA RESULT:      -8.0      3.327      8.151
  Name = 
  2 active torsions:
  status: ('A' for Active; 'I' for Inactive)
    1  A    between atoms: C_5  and  N_16
    2  A    between atoms: C_5  and  C_30
                            x       y       z     vdW  Elec       q    Type
                         _______ _______ _______ _____ _____    ______ ____

>  <TORSDO>
F 2

$$$$
=
 OpenBabel11122410553D

 31 35  0  0  1  0  0  0  0  0999 V2000
  184.8560  179.3190  144.8640 C   0  0  0  0  0  0  0  0  0  0  0  0
  185.0530  179.0640  141.1780 N   0  0  0  0  0  0  0  0  0  0  0  0
  186.3980  178.6300  140.8540 C   0  0  0  0  0  0  0  0  0  0  0  0
  188.6970  178.1550  141.5010 C   0  0  0  0  0  0  0  0  0  0  0  0
  184.5340  179.0220  142.5240 C   0  0  0  0  0  0  0  0  0  0  0  0
  183.5330  178.9590  145.1190 C   0  0  0  0  0  3  0  0  0  0  0  0
  187.4070  178.5770  141.8300 C   0  0  0  0  0  3  0  0  0  0  0  0
  182.9130  178.3730  140.2600 C   0  0  0  0  0  0  0  0  0  0  0  0
  185.6790  179.6430  145.8900 F   0  0  0  0  0  0  0  0  0  0  0  0
  185.6520  178.2350  138.4840 C   0  0  0  0  0  2  0  0  0  0  0  0
  189.7520  178.1080  142.5470 C   0  0  0  0  0  1  0  0  0  0  0  0
  182.2580  178.2920  141.6150 C   0  0  0  0  0  2  0  0  0  0  0  0
  184.0680  179.3250  140.1150 C   0  0  2  0  0  3  0  0  0  0  0  0
  182.4890  177.6930  139.2320 N   0  0  0  0  0  0  0  0  0  0  0  0
  185.3230  179.3440  143.5870 N   0  0  0  0  0  0  0  0  0  0  0  0
  188.9950  177.7740  140.1910 C   0  0  0  0  0  3  0  0  0  0  0  0
  183.1860  178.6580  142.7450 C   0  0  0  0  0  0  0  0  0  0  0  0
  182.6990  178.6290  144.0510 C   0  0  0  0  0  3  0  0  0  0  0  0
  184.6870  179.3880  138.7100 C   0  0  0  0  0  2  0  0  0  0  0  0
  186.7140  178.2520  139.5330 C   0  0  0  0  0  0  0  0  0  0  0  0
  188.0020  177.8170  139.2100 C   0  0  0  0  0  3  0  0  0  0  0  0
  181.4660  175.6350  139.7390 O   0  0  0  0  0  0  0  0  0  0  0  0
  181.3940  176.7630  139.1810 C   0  0  0  0  0  0  0  0  0  0  0  0
  180.1210  179.9830  137.9630 C   0  0  0  0  0  0  0  0  0  0  0  0
  180.4450  177.6920  137.0460 C   0  0  0  0  0  2  0  0  0  0  0  0
  178.9310  177.5390  140.4880 O   0  0  0  0  0  1  0  0  0  0  0  0
  180.0720  181.2400  137.7280 N   0  0  0  0  0  2  0  0  0  0  0  0
  181.0020  179.1150  137.1160 C   0  0  0  0  0  2  0  0  0  0  0  0
  179.1900  178.0480  139.2150 C   0  0  2  0  0  3  0  0  0  0  0  0
  180.1420  177.1210  138.4360 C   0  0  2  0  0  3  0  0  0  0  0  0
  179.7180  179.4790  139.3170 C   0  0  0  0  0  2  0  0  0  0  0  0
  1  6  1  0  0  0  0
  1  9  1  0  0  0  0
  2  5  1  0  0  0  0
  3  2  1  0  0  0  0
  3  7  1  0  0  0  0
  4  7  2  0  0  0  0
  4 11  1  0  0  0  0
  5 17  2  0  0  0  0
  5 15  1  0  0  0  0
  8 12  1  0  0  0  0
 10 19  1  0  0  0  0
 10 20  1  0  0  0  0
 12 17  1  0  0  0  0
 13 19  1  6  0  0  0
 13  8  1  0  0  0  0
 13  2  1  0  0  0  0
 14  8  2  0  0  0  0
 15  1  2  0  0  0  0
 16  4  1  0  0  0  0
 17 18  1  0  0  0  0
 18  6  2  0  0  0  0
 20  3  2  0  0  0  0
 21 20  1  0  0  0  0
 21 16  2  0  0  0  0
 23 14  1  0  0  0  0
 23 22  2  0  0  0  0
 24 31  1  0  0  0  0
 25 28  1  0  0  0  0
 25 30  1  0  0  0  0
 27 24  2  0  0  0  0
 28 24  1  0  0  0  0
 29 31  1  0  0  0  0
 29 26  1  1  0  0  0
 30 23  1  1  0  0  0
 30 29  1  0  0  0  0
M  END
>  <MODEL>
5

>  <REMARK>
 VINA RESULT:      -8.0      5.261      9.136
  Name = 
  2 active torsions:
  status: ('A' for Active; 'I' for Inactive)
    1  A    between atoms: C_5  and  N_16
    2  A    between atoms: C_5  and  C_30
                            x       y       z     vdW  Elec       q    Type
                         _______ _______ _______ _____ _____    ______ ____

>  <TORSDO>
F 2

$$$$
=
 OpenBabel11122410553D

 31 35  0  0  1  0  0  0  0  0999 V2000
  184.9190  179.2390  144.8040 C   0  0  0  0  0  0  0  0  0  0  0  0
  184.8530  179.0720  141.1080 N   0  0  0  0  0  0  0  0  0  0  0  0
  186.1590  178.6060  140.6820 C   0  0  0  0  0  0  0  0  0  0  0  0
  188.4810  178.0460  141.1560 C   0  0  0  0  0  0  0  0  0  0  0  0
  184.4270  179.0120  142.4860 C   0  0  0  0  0  0  0  0  0  0  0  0
  183.6050  178.9130  145.1420 C   0  0  0  0  0  3  0  0  0  0  0  0
  187.2300  178.4980  141.5840 C   0  0  0  0  0  3  0  0  0  0  0  0
  182.6350  178.4690  140.3260 C   0  0  0  0  0  0  0  0  0  0  0  0
  185.8200  179.5130  145.7770 F   0  0  0  0  0  0  0  0  0  0  0  0
  185.2390  178.2940  138.3610 C   0  0  0  0  0  2  0  0  0  0  0  0
  189.6030  177.9410  142.1240 C   0  0  0  0  0  1  0  0  0  0  0  0
  182.0720  178.3740  141.7200 C   0  0  0  0  0  2  0  0  0  0  0  0
  183.8070  179.3890  140.1230 C   0  0  2  0  0  3  0  0  0  0  0  0
  182.1200  177.8290  139.3140 N   0  0  0  0  0  0  0  0  0  0  0  0
  185.2970  179.2830  143.4980 N   0  0  0  0  0  0  0  0  0  0  0  0
  188.6750  177.6890  139.8200 C   0  0  0  0  0  3  0  0  0  0  0  0
  183.0870  178.6830  142.7910 C   0  0  0  0  0  0  0  0  0  0  0  0
  182.6890  178.6350  144.1270 C   0  0  0  0  0  3  0  0  0  0  0  0
  184.3290  179.4690  138.6790 C   0  0  0  0  0  2  0  0  0  0  0  0
  186.3710  178.2520  139.3340 C   0  0  0  0  0  0  0  0  0  0  0  0
  187.6190  177.7870  138.9120 C   0  0  0  0  0  3  0  0  0  0  0  0
  179.8120  177.3650  139.2520 O   0  0  0  0  0  0  0  0  0  0  0  0
  180.9950  176.9330  139.3180 C   0  0  0  0  0  0  0  0  0  0  0  0
  179.6450  174.1270  137.3740 C   0  0  0  0  0  0  0  0  0  0  0  0
  181.8810  174.8830  138.1620 C   0  0  0  0  0  2  0  0  0  0  0  0
  179.3350  175.1830  140.9180 O   0  0  0  0  0  1  0  0  0  0  0  0
  178.9720  173.5010  136.4840 N   0  0  0  0  0  2  0  0  0  0  0  0
  180.9150  174.8190  136.9790 C   0  0  0  0  0  2  0  0  0  0  0  0
  179.9530  174.6520  139.7840 C   0  0  2  0  0  3  0  0  0  0  0  0
  181.2160  175.4530  139.4220 C   0  0  2  0  0  3  0  0  0  0  0  0
  178.9540  174.5740  138.6290 C   0  0  0  0  0  2  0  0  0  0  0  0
  1  6  1  0  0  0  0
  1  9  1  0  0  0  0
  2  5  1  0  0  0  0
  3  2  1  0  0  0  0
  3  7  1  0  0  0  0
  4  7  2  0  0  0  0
  4 11  1  0  0  0  0
  5 17  2  0  0  0  0
  5 15  1  0  0  0  0
  8 12  1  0  0  0  0
 10 19  1  0  0  0  0
 10 20  1  0  0  0  0
 12 17  1  0  0  0  0
 13 19  1  6  0  0  0
 13  8  1  0  0  0  0
 13  2  1  0  0  0  0
 14 23  1  0  0  0  0
 14  8  2  0  0  0  0
 15  1  2  0  0  0  0
 16  4  1  0  0  0  0
 17 18  1  0  0  0  0
 18  6  2  0  0  0  0
 20  3  2  0  0  0  0
 21 20  1  0  0  0  0
 21 16  2  0  0  0  0
 22 23  2  0  0  0  0
 24 31  1  0  0  0  0
 25 30  1  0  0  0  0
 27 24  2  0  0  0  0
 28 24  1  0  0  0  0
 28 25  1  0  0  0  0
 29 26  1  1  0  0  0
 30 23  1  6  0  0  0
 30 29  1  0  0  0  0
 31 29  1  0  0  0  0
M  END
>  <MODEL>
6

>  <REMARK>
 VINA RESULT:      -7.9      5.522      8.893
  Name = 
  2 active torsions:
  status: ('A' for Active; 'I' for Inactive)
    1  A    between atoms: C_5  and  N_16
    2  A    between atoms: C_5  and  C_30
                            x       y       z     vdW  Elec       q    Type
                         _______ _______ _______ _____ _____    ______ ____

>  <TORSDO>
F 2

$$$$
=
 OpenBabel11122410553D

 31 35  0  0  1  0  0  0  0  0999 V2000
  193.0940  175.2140  136.6200 C   0  0  0  0  0  0  0  0  0  0  0  0
  189.7090  176.4960  137.3910 N   0  0  0  0  0  0  0  0  0  0  0  0
  188.7610  175.5420  136.8480 C   0  0  0  0  0  0  0  0  0  0  0  0
  188.2460  173.5850  135.4940 C   0  0  0  0  0  0  0  0  0  0  0  0
  191.1170  176.1990  137.5090 C   0  0  0  0  0  0  0  0  0  0  0  0
  193.8340  175.6390  137.7230 C   0  0  0  0  0  3  0  0  0  0  0  0
  189.1730  174.4950  136.0080 C   0  0  0  0  0  3  0  0  0  0  0  0
  189.7130  177.6750  139.5140 C   0  0  0  0  0  0  0  0  0  0  0  0
  193.6970  174.5140  135.6300 F   0  0  0  0  0  0  0  0  0  0  0  0
  186.9260  176.7220  138.1000 C   0  0  0  0  0  2  0  0  0  0  0  0
  188.7010  172.4850  134.6050 C   0  0  0  0  0  1  0  0  0  0  0  0
  191.1800  177.4280  139.7500 C   0  0  0  0  0  2  0  0  0  0  0  0
  189.2460  177.7080  138.0850 C   0  0  2  0  0  3  0  0  0  0  0  0
  188.8720  177.8970  140.4850 N   0  0  0  0  0  0  0  0  0  0  0  0
  191.7670  175.5010  136.5370 N   0  0  0  0  0  0  0  0  0  0  0  0
  186.8940  173.7070  135.8190 C   0  0  0  0  0  3  0  0  0  0  0  0
  191.8360  176.6500  138.6390 C   0  0  0  0  0  0  0  0  0  0  0  0
  193.1980  176.3600  138.7340 C   0  0  0  0  0  3  0  0  0  0  0  0
  187.7460  177.9860  137.8970 C   0  0  0  0  0  2  0  0  0  0  0  0
  187.3910  175.6600  137.1600 C   0  0  0  0  0  0  0  0  0  0  0  0
  186.4690  174.7400  136.6560 C   0  0  0  0  0  3  0  0  0  0  0  0
  189.3530  179.0130  142.5020 O   0  0  0  0  0  0  0  0  0  0  0  0
  189.1430  177.9270  141.8970 C   0  0  0  0  0  0  0  0  0  0  0  0
  189.0250  177.2630  145.5050 C   0  0  0  0  0  0  0  0  0  0  0  0
  187.9050  176.3940  143.4590 C   0  0  0  0  0  2  0  0  0  0  0  0
  191.6060  176.7710  142.8850 O   0  0  0  0  0  1  0  0  0  0  0  0
  188.9460  177.4890  146.7630 N   0  0  0  0  0  2  0  0  0  0  0  0
  187.7790  177.3150  144.6740 C   0  0  0  0  0  2  0  0  0  0  0  0
  190.4300  176.5210  143.5930 C   0  0  2  0  0  3  0  0  0  0  0  0
  189.1990  176.6450  142.6760 C   0  0  2  0  0  3  0  0  0  0  0  0
  190.3460  177.4360  144.8160 C   0  0  0  0  0  2  0  0  0  0  0  0
  1  6  1  0  0  0  0
  2  5  1  0  0  0  0
  2 13  1  0  0  0  0
  3 20  1  0  0  0  0
  3  2  1  0  0  0  0
  4 16  2  0  0  0  0
  4  7  1  0  0  0  0
  5 17  2  0  0  0  0
  6 18  2  0  0  0  0
  7  3  2  0  0  0  0
  8 12  1  0  0  0  0
  8 14  2  0  0  0  0
  9  1  1  0  0  0  0
 11  4  1  0  0  0  0
 13 19  1  1  0  0  0
 13  8  1  0  0  0  0
 14 23  1  0  0  0  0
 15  1  2  0  0  0  0
 15  5  1  0  0  0  0
 16 21  1  0  0  0  0
 17 18  1  0  0  0  0
 17 12  1  0  0  0  0
 19 10  1  0  0  0  0
 20 10  1  0  0  0  0
 21 20  2  0  0  0  0
 23 22  2  0  0  0  0
 24 27  2  0  0  0  0
 25 28  1  0  0  0  0
 28 24  1  0  0  0  0
 29 26  1  6  0  0  0
 29 31  1  0  0  0  0
 30 23  1  1  0  0  0
 30 25  1  0  0  0  0
 30 29  1  0  0  0  0
 31 24  1  0  0  0  0
M  END
>  <MODEL>
7

>  <REMARK>
 VINA RESULT:      -7.9      3.329      7.652
  Name = 
  2 active torsions:
  status: ('A' for Active; 'I' for Inactive)
    1  A    between atoms: C_5  and  N_16
    2  A    between atoms: C_5  and  C_30
                            x       y       z     vdW  Elec       q    Type
                         _______ _______ _______ _____ _____    ______ ____

>  <TORSDO>
F 2

$$$$
=
 OpenBabel11122410553D

 31 35  0  0  1  0  0  0  0  0999 V2000
  184.9290  179.3580  142.3210 C   0  0  0  0  0  0  0  0  0  0  0  0
  188.1360  178.2410  140.8530 N   0  0  0  0  0  0  0  0  0  0  0  0
  188.9010  177.6280  141.9220 C   0  0  0  0  0  0  0  0  0  0  0  0
  189.2370  177.1160  144.2790 C   0  0  0  0  0  0  0  0  0  0  0  0
  186.7350  178.5570  140.9930 C   0  0  0  0  0  0  0  0  0  0  0  0
  184.0380  179.1850  141.2620 C   0  0  0  0  0  3  0  0  0  0  0  0
  188.4880  177.7140  143.2620 C   0  0  0  0  0  3  0  0  0  0  0  0
  187.8180  177.5470  138.5480 C   0  0  0  0  0  0  0  0  0  0  0  0
  184.4850  179.8380  143.5070 F   0  0  0  0  0  0  0  0  0  0  0  0
  190.5220  176.7620  140.2040 C   0  0  0  0  0  2  0  0  0  0  0  0
  188.7860  177.2200  145.6910 C   0  0  0  0  0  1  0  0  0  0  0  0
  186.3400  177.8390  138.5710 C   0  0  0  0  0  2  0  0  0  0  0  0
  188.6860  178.3340  139.4900 C   0  0  2  0  0  3  0  0  0  0  0  0
  188.3520  176.6870  137.7260 N   0  0  0  0  0  0  0  0  0  0  0  0
  186.2430  179.0460  142.1650 N   0  0  0  0  0  0  0  0  0  0  0  0
  190.4050  176.4170  143.9680 C   0  0  0  0  0  3  0  0  0  0  0  0
  185.8620  178.3740  139.8970 C   0  0  0  0  0  0  0  0  0  0  0  0
  184.5120  178.6910  140.0470 C   0  0  0  0  0  3  0  0  0  0  0  0
  190.1870  178.0150  139.4120 C   0  0  0  0  0  2  0  0  0  0  0  0
  190.0880  176.9280  141.6230 C   0  0  0  0  0  0  0  0  0  0  0  0
  190.8260  176.3190  142.6410 C   0  0  0  0  0  3  0  0  0  0  0  0
  186.4540  175.6140  136.8380 O   0  0  0  0  0  0  0  0  0  0  0  0
  187.6850  175.8700  136.7490 C   0  0  0  0  0  0  0  0  0  0  0  0
  191.0950  174.5260  136.5550 C   0  0  0  0  0  0  0  0  0  0  0  0
  188.8180  173.8150  135.8460 C   0  0  0  0  0  2  0  0  0  0  0  0
  189.3910  177.4410  135.0170 O   0  0  0  0  0  1  0  0  0  0  0  0
  192.2660  174.1710  136.9310 N   0  0  0  0  0  2  0  0  0  0  0  0
  189.9250  173.6530  136.8900 C   0  0  0  0  0  2  0  0  0  0  0  0
  189.7120  176.0970  135.2160 C   0  0  2  0  0  3  0  0  0  0  0  0
  188.4620  175.2870  135.6050 C   0  0  2  0  0  3  0  0  0  0  0  0
  190.8380  175.9700  136.2420 C   0  0  0  0  0  2  0  0  0  0  0  0
  1  9  1  0  0  0  0
  2  5  1  0  0  0  0
  2  3  1  0  0  0  0
  3  7  1  0  0  0  0
  4 11  1  0  0  0  0
  5 15  2  0  0  0  0
  6  1  2  0  0  0  0
  7  4  2  0  0  0  0
  8 12  1  0  0  0  0
  8 13  1  0  0  0  0
 10 20  1  0  0  0  0
 12 17  1  0  0  0  0
 13 19  1  1  0  0  0
 13  2  1  0  0  0  0
 14  8  2  0  0  0  0
 15  1  1  0  0  0  0
 16  4  1  0  0  0  0
 17 18  2  0  0  0  0
 17  5  1  0  0  0  0
 18  6  1  0  0  0  0
 19 10  1  0  0  0  0
 20  3  2  0  0  0  0
 20 21  1  0  0  0  0
 21 16  2  0  0  0  0
 23 22  2  0  0  0  0
 23 14  1  0  0  0  0
 24 28  1  0  0  0  0
 24 27  2  0  0  0  0
 25 28  1  0  0  0  0
 29 26  1  1  0  0  0
 29 30  1  0  0  0  0
 29 31  1  0  0  0  0
 30 25  1  0  0  0  0
 30 23  1  1  0  0  0
 31 24  1  0  0  0  0
M  END
>  <MODEL>
8

>  <REMARK>
 VINA RESULT:      -7.9      2.169      2.892
  Name = 
  2 active torsions:
  status: ('A' for Active; 'I' for Inactive)
    1  A    between atoms: C_5  and  N_16
    2  A    between atoms: C_5  and  C_30
                            x       y       z     vdW  Elec       q    Type
                         _______ _______ _______ _____ _____    ______ ____

>  <TORSDO>
F 2

$$$$
=
 OpenBabel11122410553D

 31 35  0  0  1  0  0  0  0  0999 V2000
  190.8460  175.7870  137.9450 C   0  0  0  0  0  0  0  0  0  0  0  0
  187.3150  176.8750  137.7610 N   0  0  0  0  0  0  0  0  0  0  0  0
  186.5590  175.7700  137.2030 C   0  0  0  0  0  0  0  0  0  0  0  0
  186.4550  173.5880  136.1270 C   0  0  0  0  0  0  0  0  0  0  0  0
  188.6750  176.7230  138.2190 C   0  0  0  0  0  0  0  0  0  0  0  0
  191.3030  176.4420  139.0890 C   0  0  0  0  0  3  0  0  0  0  0  0
  187.1990  174.6430  136.6600 C   0  0  0  0  0  3  0  0  0  0  0  0
  186.7900  178.3680  139.6030 C   0  0  0  0  0  0  0  0  0  0  0  0
  191.6880  174.9950  137.2370 F   0  0  0  0  0  0  0  0  0  0  0  0
  184.4360  176.9680  137.8230 C   0  0  0  0  0  2  0  0  0  0  0  0
  187.1500  172.4060  135.5550 C   0  0  0  0  0  1  0  0  0  0  0  0
  188.1800  178.2890  140.1800 C   0  0  0  0  0  2  0  0  0  0  0  0
  186.6490  178.1360  138.1250 C   0  0  2  0  0  3  0  0  0  0  0  0
  185.7460  178.6650  140.3250 N   0  0  0  0  0  0  0  0  0  0  0  0
  189.5580  175.9410  137.5380 N   0  0  0  0  0  0  0  0  0  0  0  0
  185.0600  173.6420  136.1370 C   0  0  0  0  0  3  0  0  0  0  0  0
  189.1040  177.4060  139.3800 C   0  0  0  0  0  0  0  0  0  0  0  0
  190.4240  177.2540  139.8060 C   0  0  0  0  0  3  0  0  0  0  0  0
  185.2150  178.2500  137.5830 C   0  0  0  0  0  2  0  0  0  0  0  0
  185.1500  175.8160  137.1970 C   0  0  0  0  0  0  0  0  0  0  0  0
  184.4090  174.7520  136.6770 C   0  0  0  0  0  3  0  0  0  0  0  0
  186.0560  180.0540  142.2000 O   0  0  0  0  0  0  0  0  0  0  0  0
  185.6980  178.9390  141.7350 C   0  0  0  0  0  0  0  0  0  0  0  0
  185.3000  178.9460  145.3840 C   0  0  0  0  0  0  0  0  0  0  0  0
  183.9400  178.2810  143.4090 C   0  0  0  0  0  2  0  0  0  0  0  0
  187.4870  177.0760  143.0420 O   0  0  0  0  0  1  0  0  0  0  0  0
  185.3100  179.3780  146.5890 N   0  0  0  0  0  2  0  0  0  0  0  0
  184.1840  179.3540  144.4710 C   0  0  0  0  0  2  0  0  0  0  0  0
  186.3040  177.4230  143.6960 C   0  0  2  0  0  3  0  0  0  0  0  0
  185.2320  177.8770  142.6880 C   0  0  2  0  0  3  0  0  0  0  0  0
  186.5850  178.4750  144.7690 C   0  0  0  0  0  2  0  0  0  0  0  0
  1  6  1  0  0  0  0
  2 13  1  0  0  0  0
  2  5  1  0  0  0  0
  3  2  1  0  0  0  0
  4 16  2  0  0  0  0
  4  7  1  0  0  0  0
  5 17  2  0  0  0  0
  6 18  2  0  0  0  0
  7  3  2  0  0  0  0
  8 12  1  0  0  0  0
  8 14  2  0  0  0  0
  9  1  1  0  0  0  0
 11  4  1  0  0  0  0
 13 19  1  1  0  0  0
 13  8  1  0  0  0  0
 14 23  1  0  0  0  0
 15  1  2  0  0  0  0
 15  5  1  0  0  0  0
 16 21  1  0  0  0  0
 17 18  1  0  0  0  0
 17 12  1  0  0  0  0
 19 10  1  0  0  0  0
 20  3  1  0  0  0  0
 20 10  1  0  0  0  0
 21 20  2  0  0  0  0
 23 22  2  0  0  0  0
 24 27  2  0  0  0  0
 25 28  1  0  0  0  0
 28 24  1  0  0  0  0
 29 26  1  6  0  0  0
 29 31  1  0  0  0  0
 30 23  1  1  0  0  0
 30 25  1  0  0  0  0
 30 29  1  0  0  0  0
 31 24  1  0  0  0  0
M  END
>  <MODEL>
9

>  <REMARK>
 VINA RESULT:      -7.9      3.593      8.422
  Name = 
  2 active torsions:
  status: ('A' for Active; 'I' for Inactive)
    1  A    between atoms: C_5  and  N_16
    2  A    between atoms: C_5  and  C_30
                            x       y       z     vdW  Elec       q    Type
                         _______ _______ _______ _____ _____    ______ ____

>  <TORSDO>
F 2

$$$$
