=
 OpenBabel11122412143D

 34 40  0  0  1  0  0  0  0  0999 V2000
  188.9960  177.4360  143.0680 C   0  0  0  0  0  0  0  0  0  0  0  0
  187.3700  177.5100  145.0020 C   0  0  0  0  0  3  0  0  0  0  0  0
  188.1300  176.4160  136.8350 N   0  0  0  0  0  2  0  0  0  0  0  0
  190.2770  177.4280  141.0050 C   0  0  0  0  0  0  0  0  0  0  0  0
  189.2490  178.4070  138.9390 C   0  0  0  0  0  0  0  0  0  0  0  0
  188.2540  178.8560  136.6740 C   0  0  0  0  0  2  0  0  0  0  0  0
  188.2430  177.5370  135.9100 C   0  0  0  0  0  2  0  0  0  0  0  0
  190.5080  176.1030  137.4230 C   0  0  0  0  0  2  0  0  0  0  0  0
  186.6890  178.2070  142.9420 C   0  0  0  0  0  0  0  0  0  0  0  0
  183.7790  177.8890  142.1790 C   0  0  0  0  0  2  0  0  0  0  0  0
  188.1540  178.6380  139.6050 N   0  0  0  0  0  0  0  0  0  0  0  0
  190.2390  176.1220  138.9230 C   0  0  0  0  0  2  0  0  0  0  0  0
  186.7800  178.4850  141.6120 N   0  0  0  0  0  0  0  0  0  0  0  0
  186.0240  177.8980  145.0530 C   0  0  0  0  0  3  0  0  0  0  0  0
  190.3500  177.5340  139.5050 C   0  0  2  0  0  3  0  0  0  0  0  0
  189.3010  175.5620  136.6590 C   0  0  0  0  0  2  0  0  0  0  0  0
  184.2340  178.7510  143.3600 C   0  0  2  0  0  3  0  0  0  0  0  0
  189.0760  177.6950  141.6800 C   0  0  0  0  0  0  0  0  0  0  0  0
  189.3770  178.8790  137.5970 N   0  0  0  0  0  2  0  0  0  0  0  0
  187.9720  178.2410  140.9730 C   0  0  0  0  0  0  0  0  0  0  0  0
  191.2900  176.7080  143.0380 C   0  0  0  0  0  3  0  0  0  0  0  0
  184.4330  178.2410  140.8310 C   0  0  0  0  0  2  0  0  0  0  0  0
  191.3440  176.9430  141.6980 N   0  0  0  0  0  0  0  0  0  0  0  0
  185.6750  179.1360  140.9070 C   0  0  0  0  0  2  0  0  0  0  0  0
  185.6100  178.3190  143.7850 C   0  0  0  0  0  0  0  0  0  0  0  0
  190.1110  176.9430  143.7500 C   0  0  0  0  0  3  0  0  0  0  0  0
  187.7850  177.6900  143.6980 C   0  0  0  0  0  0  0  0  0  0  0  0
  183.2290  178.6400  144.4980 C   0  0  0  0  0  2  0  0  0  0  0  0
  182.1490  179.5940  144.3020 N   0  0  0  0  0  2  0  0  0  0  0  0
  178.9310  178.4460  143.5630 O   0  0  0  0  0  0  0  0  0  0  0  0
  180.4060  180.0780  142.7050 C   0  0  0  0  0  2  0  0  0  0  0  0
  181.2220  179.0010  143.3530 C   0  0  2  0  0  3  0  0  0  0  0  0
  178.9950  179.7850  143.1540 C   0  0  0  0  0  2  0  0  0  0  0  0
  180.1990  178.1640  144.0890 C   0  0  0  0  0  2  0  0  0  0  0  0
  1 27  2  0  0  0  0
  1 26  1  0  0  0  0
  2 14  2  0  0  0  0
  4 18  1  0  0  0  0
  4 23  2  0  0  0  0
  5 15  1  0  0  0  0
  5 11  2  0  0  0  0
  6 19  1  0  0  0  0
  7  6  1  0  0  0  0
  7  3  1  0  0  0  0
  8 12  1  0  0  0  0
  9 27  1  0  0  0  0
  9 25  2  0  0  0  0
 10 17  1  0  0  0  0
 11 20  1  0  0  0  0
 13  9  1  0  0  0  0
 15 12  1  6  0  0  0
 15  4  1  0  0  0  0
 16  3  1  0  0  0  0
 16  8  1  0  0  0  0
 17 25  1  0  0  0  0
 17 28  1  1  0  0  0
 18  1  1  0  0  0  0
 19  5  1  0  0  0  0
 20 13  1  0  0  0  0
 20 18  2  0  0  0  0
 21 26  2  0  0  0  0
 22 24  1  0  0  0  0
 22 10  1  0  0  0  0
 23 21  1  0  0  0  0
 24 13  1  0  0  0  0
 25 14  1  0  0  0  0
 27  2  1  0  0  0  0
 29 28  1  0  0  0  0
 30 34  1  0  0  0  0
 31 33  1  0  0  0  0
 31 32  1  0  0  0  0
 32 34  1  0  0  0  0
 32 29  1  1  0  0  0
 33 30  1  0  0  0  0
M  END
>  <MODEL>
1

>  <REMARK>
 VINA RESULT:     -10.0      0.000      0.000
  Name = 
  3 active torsions:
  status: ('A' for Active; 'I' for Inactive)
    1  A    between atoms: C_17  and  C_28
    2  A    between atoms: C_28  and  N_29
    3  A    between atoms: N_29  and  C_32
                            x       y       z     vdW  Elec       q    Type
                         _______ _______ _______ _____ _____    ______ ____

>  <TORSDO>
F 3

$$$$
=
 OpenBabel11122412143D

 34 40  0  0  1  0  0  0  0  0999 V2000
  187.5540  177.9440  143.2950 C   0  0  0  0  0  0  0  0  0  0  0  0
  185.4280  178.1090  144.6530 C   0  0  0  0  0  3  0  0  0  0  0  0
  188.6100  176.1330  137.2740 N   0  0  0  0  0  2  0  0  0  0  0  0
  189.3840  177.8010  141.7070 C   0  0  0  0  0  0  0  0  0  0  0  0
  188.9690  178.4430  139.3200 C   0  0  0  0  0  0  0  0  0  0  0  0
  188.6660  178.5390  136.8250 C   0  0  0  0  0  2  0  0  0  0  0  0
  188.9400  177.1440  136.2770 C   0  0  0  0  0  2  0  0  0  0  0  0
  190.7200  176.0900  138.5560 C   0  0  0  0  0  2  0  0  0  0  0  0
  185.3540  178.5010  142.4100 C   0  0  0  0  0  0  0  0  0  0  0  0
  182.8150  177.8570  140.8960 C   0  0  0  0  0  2  0  0  0  0  0  0
  187.7160  178.6580  139.6060 N   0  0  0  0  0  0  0  0  0  0  0  0
  190.0210  176.2620  139.8990 C   0  0  0  0  0  2  0  0  0  0  0  0
  185.8200  178.6280  141.1370 N   0  0  0  0  0  0  0  0  0  0  0  0
  184.1110  178.3870  144.2630 C   0  0  0  0  0  3  0  0  0  0  0  0
  189.8920  177.7360  140.2910 C   0  0  2  0  0  3  0  0  0  0  0  0
  189.8180  175.3640  137.5600 C   0  0  0  0  0  2  0  0  0  0  0  0
  182.8630  178.8850  142.0290 C   0  0  2  0  0  3  0  0  0  0  0  0
  188.0280  178.0440  141.9660 C   0  0  0  0  0  0  0  0  0  0  0  0
  189.4650  178.7630  138.0190 N   0  0  0  0  0  2  0  0  0  0  0  0
  187.1570  178.4110  140.9050 C   0  0  0  0  0  0  0  0  0  0  0  0
  189.7840  177.4110  144.0230 C   0  0  0  0  0  3  0  0  0  0  0  0
  183.8210  178.1010  139.7570 C   0  0  0  0  0  2  0  0  0  0  0  0
  190.2210  177.4910  142.7360 N   0  0  0  0  0  0  0  0  0  0  0  0
  184.9430  179.0980  140.0630 C   0  0  0  0  0  2  0  0  0  0  0  0
  184.0710  178.6210  142.8850 C   0  0  0  0  0  0  0  0  0  0  0  0
  188.4390  177.6290  144.3290 C   0  0  0  0  0  3  0  0  0  0  0  0
  186.2010  178.1690  143.5110 C   0  0  0  0  0  0  0  0  0  0  0  0
  181.5730  178.8260  142.8360 C   0  0  0  0  0  2  0  0  0  0  0  0
  180.5490  178.1160  142.0850 N   0  0  0  0  0  2  0  0  0  0  0  0
  179.4520  181.4160  141.7290 O   0  0  0  0  0  0  0  0  0  0  0  0
  179.4410  179.4560  140.4120 C   0  0  0  0  0  2  0  0  0  0  0  0
  179.4620  179.0530  141.8550 C   0  0  2  0  0  3  0  0  0  0  0  0
  179.7380  180.9370  140.4440 C   0  0  0  0  0  2  0  0  0  0  0  0
  179.7350  180.3470  142.5900 C   0  0  0  0  0  2  0  0  0  0  0  0
  1 27  2  0  0  0  0
  1 26  1  0  0  0  0
  3 16  1  0  0  0  0
  4 18  1  0  0  0  0
  4 23  2  0  0  0  0
  5 11  2  0  0  0  0
  5 15  1  0  0  0  0
  6 19  1  0  0  0  0
  7  6  1  0  0  0  0
  7  3  1  0  0  0  0
  8 12  1  0  0  0  0
  9 25  2  0  0  0  0
  9 27  1  0  0  0  0
 10 17  1  0  0  0  0
 11 20  1  0  0  0  0
 13  9  1  0  0  0  0
 14  2  2  0  0  0  0
 15 12  1  6  0  0  0
 15  4  1  0  0  0  0
 16  8  1  0  0  0  0
 17 28  1  1  0  0  0
 17 25  1  0  0  0  0
 18  1  1  0  0  0  0
 19  5  1  0  0  0  0
 20 13  1  0  0  0  0
 20 18  2  0  0  0  0
 21 26  2  0  0  0  0
 22 24  1  0  0  0  0
 22 10  1  0  0  0  0
 23 21  1  0  0  0  0
 24 13  1  0  0  0  0
 25 14  1  0  0  0  0
 27  2  1  0  0  0  0
 29 28  1  0  0  0  0
 30 34  1  0  0  0  0
 31 33  1  0  0  0  0
 31 32  1  0  0  0  0
 32 29  1  6  0  0  0
 32 34  1  0  0  0  0
 33 30  1  0  0  0  0
M  END
>  <MODEL>
2

>  <REMARK>
 VINA RESULT:     -10.0      1.354      1.762
  Name = 
  3 active torsions:
  status: ('A' for Active; 'I' for Inactive)
    1  A    between atoms: C_17  and  C_28
    2  A    between atoms: C_28  and  N_29
    3  A    between atoms: N_29  and  C_32
                            x       y       z     vdW  Elec       q    Type
                         _______ _______ _______ _____ _____    ______ ____

>  <TORSDO>
F 3

$$$$
=
 OpenBabel11122412143D

 34 40  0  0  1  0  0  0  0  0999 V2000
  188.9590  177.5980  137.9050 C   0  0  0  0  0  0  0  0  0  0  0  0
  191.1760  177.1300  139.0270 C   0  0  0  0  0  3  0  0  0  0  0  0
  182.9530  176.5940  139.7930 N   0  0  0  0  0  2  0  0  0  0  0  0
  186.6920  178.0340  137.1530 C   0  0  0  0  0  0  0  0  0  0  0  0
  184.9760  178.7480  138.8340 C   0  0  0  0  0  0  0  0  0  0  0  0
  183.0070  178.9700  140.3830 C   0  0  0  0  0  2  0  0  0  0  0  0
  182.1370  177.7330  140.1960 C   0  0  0  0  0  2  0  0  0  0  0  0
  183.0250  176.9630  137.3520 C   0  0  0  0  0  2  0  0  0  0  0  0
  189.3690  177.6730  140.3050 C   0  0  0  0  0  0  0  0  0  0  0  0
  189.1710  176.5550  143.1090 C   0  0  0  0  0  2  0  0  0  0  0  0
  185.8640  178.6280  139.7780 N   0  0  0  0  0  0  0  0  0  0  0  0
  184.5430  176.8490  137.2820 C   0  0  0  0  0  2  0  0  0  0  0  0
  188.0800  178.0120  140.5860 N   0  0  0  0  0  0  0  0  0  0  0  0
  191.5290  177.1090  140.3830 C   0  0  0  0  0  3  0  0  0  0  0  0
  185.2250  178.2110  137.4400 C   0  0  2  0  0  3  0  0  0  0  0  0
  182.4670  176.1220  138.5000 C   0  0  0  0  0  2  0  0  0  0  0  0
  190.3160  177.4680  142.6620 C   0  0  2  0  0  3  0  0  0  0  0  0
  187.6140  177.9180  138.2030 C   0  0  0  0  0  0  0  0  0  0  0  0
  183.6870  179.2840  139.1360 N   0  0  0  0  0  2  0  0  0  0  0  0
  187.1970  178.1460  139.5420 C   0  0  0  0  0  0  0  0  0  0  0  0
  188.4050  177.5670  135.5630 C   0  0  0  0  0  3  0  0  0  0  0  0
  187.7600  177.1280  142.8870 C   0  0  0  0  0  2  0  0  0  0  0  0
  187.1100  177.8550  135.8690 N   0  0  0  0  0  0  0  0  0  0  0  0
  187.6750  178.3400  141.9530 C   0  0  0  0  0  2  0  0  0  0  0  0
  190.4160  177.4380  141.1620 C   0  0  0  0  0  0  0  0  0  0  0  0
  189.3560  177.4250  136.5770 C   0  0  0  0  0  3  0  0  0  0  0  0
  189.8380  177.4680  138.9720 C   0  0  0  0  0  0  0  0  0  0  0  0
  191.6150  177.0310  143.3250 C   0  0  0  0  0  2  0  0  0  0  0  0
  191.3360  176.0770  144.3860 N   0  0  0  0  0  2  0  0  0  0  0  0
  190.5450  176.7770  147.7180 O   0  0  0  0  0  0  0  0  0  0  0  0
  192.3140  175.7220  146.5630 C   0  0  0  0  0  2  0  0  0  0  0  0
  191.6800  176.7210  145.6420 C   0  0  2  0  0  3  0  0  0  0  0  0
  191.3460  175.6270  147.7190 C   0  0  0  0  0  2  0  0  0  0  0  0
  190.4200  177.1360  146.3700 C   0  0  0  0  0  2  0  0  0  0  0  0
  1 18  1  0  0  0  0
  1 27  2  0  0  0  0
  2 14  2  0  0  0  0
  3  7  1  0  0  0  0
  4 15  1  0  0  0  0
  4 18  1  0  0  0  0
  5 19  1  0  0  0  0
  5 11  2  0  0  0  0
  7  6  1  0  0  0  0
  8 16  1  0  0  0  0
  9 13  1  0  0  0  0
  9 25  2  0  0  0  0
 12  8  1  0  0  0  0
 13 24  1  0  0  0  0
 14 25  1  0  0  0  0
 15 12  1  1  0  0  0
 15  5  1  0  0  0  0
 16  3  1  0  0  0  0
 17 10  1  0  0  0  0
 17 28  1  1  0  0  0
 18 20  2  0  0  0  0
 19  6  1  0  0  0  0
 20 11  1  0  0  0  0
 20 13  1  0  0  0  0
 21 23  1  0  0  0  0
 21 26  2  0  0  0  0
 22 10  1  0  0  0  0
 23  4  2  0  0  0  0
 24 22  1  0  0  0  0
 25 17  1  0  0  0  0
 26  1  1  0  0  0  0
 27  2  1  0  0  0  0
 27  9  1  0  0  0  0
 28 29  1  0  0  0  0
 30 33  1  0  0  0  0
 31 33  1  0  0  0  0
 32 29  1  6  0  0  0
 32 34  1  0  0  0  0
 32 31  1  0  0  0  0
 34 30  1  0  0  0  0
M  END
>  <MODEL>
3

>  <REMARK>
 VINA RESULT:      -9.3      3.252      7.277
  Name = 
  3 active torsions:
  status: ('A' for Active; 'I' for Inactive)
    1  A    between atoms: C_17  and  C_28
    2  A    between atoms: C_28  and  N_29
    3  A    between atoms: N_29  and  C_32
                            x       y       z     vdW  Elec       q    Type
                         _______ _______ _______ _____ _____    ______ ____

>  <TORSDO>
F 3

$$$$
=
 OpenBabel11122412143D

 34 40  0  0  1  0  0  0  0  0999 V2000
  189.3240  177.6240  139.3230 C   0  0  0  0  0  0  0  0  0  0  0  0
  191.0040  177.3900  141.1980 C   0  0  0  0  0  3  0  0  0  0  0  0
  183.0430  176.5570  139.0970 N   0  0  0  0  0  2  0  0  0  0  0  0
  187.4670  177.8660  137.7780 C   0  0  0  0  0  0  0  0  0  0  0  0
  185.2650  178.6820  138.6520 C   0  0  0  0  0  0  0  0  0  0  0  0
  182.8740  178.9830  139.3750 C   0  0  0  0  0  2  0  0  0  0  0  0
  182.1320  177.6930  139.0480 C   0  0  0  0  0  2  0  0  0  0  0  0
  183.9710  176.6510  136.8100 C   0  0  0  0  0  2  0  0  0  0  0  0
  188.8600  177.9870  141.6860 C   0  0  0  0  0  0  0  0  0  0  0  0
  187.6910  177.1830  144.3580 C   0  0  0  0  0  2  0  0  0  0  0  0
  185.7630  178.7110  139.8550 N   0  0  0  0  0  0  0  0  0  0  0  0
  185.4160  176.6020  137.2900 C   0  0  0  0  0  2  0  0  0  0  0  0
  187.5540  178.2950  141.4550 N   0  0  0  0  0  0  0  0  0  0  0  0
  190.8560  177.5390  142.5830 C   0  0  0  0  0  3  0  0  0  0  0  0
  185.9920  178.0030  137.5100 C   0  0  2  0  0  3  0  0  0  0  0  0
  183.0470  175.9200  137.7830 C   0  0  0  0  0  2  0  0  0  0  0  0
  188.9150  178.0930  144.2320 C   0  0  2  0  0  3  0  0  0  0  0  0
  187.9590  177.9120  139.0910 C   0  0  0  0  0  0  0  0  0  0  0  0
  183.9490  179.1870  138.4160 N   0  0  0  0  0  2  0  0  0  0  0  0
  187.0950  178.2690  140.1600 C   0  0  0  0  0  0  0  0  0  0  0  0
  189.6330  177.3040  136.9580 C   0  0  0  0  0  3  0  0  0  0  0  0
  186.4460  177.6610  143.5880 C   0  0  0  0  0  2  0  0  0  0  0  0
  188.3120  177.5630  136.7530 N   0  0  0  0  0  0  0  0  0  0  0  0
  186.6900  178.7550  142.5430 C   0  0  0  0  0  2  0  0  0  0  0  0
  189.5380  177.9000  142.8780 C   0  0  0  0  0  0  0  0  0  0  0  0
  190.1650  177.3220  138.2490 C   0  0  0  0  0  3  0  0  0  0  0  0
  189.7710  177.6560  140.6370 C   0  0  0  0  0  0  0  0  0  0  0  0
  189.8980  177.7960  145.3560 C   0  0  0  0  0  2  0  0  0  0  0  0
  189.6170  176.4900  145.9300 N   0  0  0  0  0  2  0  0  0  0  0  0
  189.3650  178.5830  148.7180 O   0  0  0  0  0  0  0  0  0  0  0  0
  188.1980  176.7140  147.8690 C   0  0  0  0  0  2  0  0  0  0  0  0
  189.6110  176.6500  147.3740 C   0  0  2  0  0  3  0  0  0  0  0  0
  188.0760  178.1050  148.4450 C   0  0  0  0  0  2  0  0  0  0  0  0
  190.1860  178.0010  147.7430 C   0  0  0  0  0  2  0  0  0  0  0  0
  1 27  2  0  0  0  0
  2 14  2  0  0  0  0
  4 18  1  0  0  0  0
  5 11  2  0  0  0  0
  7  3  1  0  0  0  0
  7  6  1  0  0  0  0
  8 12  1  0  0  0  0
  8 16  1  0  0  0  0
  9 25  2  0  0  0  0
 11 20  1  0  0  0  0
 13  9  1  0  0  0  0
 13 24  1  0  0  0  0
 14 25  1  0  0  0  0
 15 12  1  1  0  0  0
 15  4  1  0  0  0  0
 15  5  1  0  0  0  0
 16  3  1  0  0  0  0
 17 10  1  0  0  0  0
 17 28  1  1  0  0  0
 18  1  1  0  0  0  0
 18 20  2  0  0  0  0
 19  5  1  0  0  0  0
 19  6  1  0  0  0  0
 20 13  1  0  0  0  0
 21 26  2  0  0  0  0
 22 10  1  0  0  0  0
 23 21  1  0  0  0  0
 23  4  2  0  0  0  0
 24 22  1  0  0  0  0
 25 17  1  0  0  0  0
 26  1  1  0  0  0  0
 27  2  1  0  0  0  0
 27  9  1  0  0  0  0
 28 29  1  0  0  0  0
 31 33  1  0  0  0  0
 32 29  1  6  0  0  0
 32 34  1  0  0  0  0
 32 31  1  0  0  0  0
 33 30  1  0  0  0  0
 34 30  1  0  0  0  0
M  END
>  <MODEL>
4

>  <REMARK>
 VINA RESULT:      -9.2      3.222      6.103
  Name = 
  3 active torsions:
  status: ('A' for Active; 'I' for Inactive)
    1  A    between atoms: C_17  and  C_28
    2  A    between atoms: C_28  and  N_29
    3  A    between atoms: N_29  and  C_32
                            x       y       z     vdW  Elec       q    Type
                         _______ _______ _______ _____ _____    ______ ____

>  <TORSDO>
F 3

$$$$
=
 OpenBabel11122412143D

 34 40  0  0  1  0  0  0  0  0999 V2000
  188.0090  177.9340  142.3990 C   0  0  0  0  0  0  0  0  0  0  0  0
  186.0220  178.2380  143.9320 C   0  0  0  0  0  3  0  0  0  0  0  0
  188.4700  175.6990  136.4460 N   0  0  0  0  0  2  0  0  0  0  0  0
  189.6810  177.6430  140.6630 C   0  0  0  0  0  0  0  0  0  0  0  0
  189.0540  178.1330  138.2860 C   0  0  0  0  0  0  0  0  0  0  0  0
  188.5220  178.0670  135.8280 C   0  0  0  0  0  2  0  0  0  0  0  0
  188.7220  176.6320  135.3550 C   0  0  0  0  0  2  0  0  0  0  0  0
  190.6900  175.6950  137.5290 C   0  0  0  0  0  2  0  0  0  0  0  0
  185.7450  178.4790  141.6830 C   0  0  0  0  0  0  0  0  0  0  0  0
  183.0660  177.7910  140.4580 C   0  0  0  0  0  2  0  0  0  0  0  0
  187.8380  178.3940  138.6700 N   0  0  0  0  0  0  0  0  0  0  0  0
  190.1220  175.9720  138.9150 C   0  0  0  0  0  2  0  0  0  0  0  0
  186.0920  178.5090  140.3670 N   0  0  0  0  0  0  0  0  0  0  0  0
  184.6790  178.5180  143.6470 C   0  0  0  0  0  3  0  0  0  0  0  0
  190.0530  177.4720  139.2140 C   0  0  2  0  0  3  0  0  0  0  0  0
  189.6870  174.9240  136.6720 C   0  0  0  0  0  2  0  0  0  0  0  0
  183.2360  178.8910  141.5080 C   0  0  2  0  0  3  0  0  0  0  0  0
  188.3580  177.9340  141.0280 C   0  0  0  0  0  0  0  0  0  0  0  0
  189.4320  178.3530  136.9260 N   0  0  0  0  0  2  0  0  0  0  0  0
  187.3980  178.2470  140.0290 C   0  0  0  0  0  0  0  0  0  0  0  0
  190.2890  177.4010  142.9540 C   0  0  0  0  0  3  0  0  0  0  0  0
  183.9650  177.9350  139.2170 C   0  0  0  0  0  2  0  0  0  0  0  0
  190.6050  177.3850  141.6300 N   0  0  0  0  0  0  0  0  0  0  0  0
  185.1270  178.9260  139.3490 C   0  0  0  0  0  2  0  0  0  0  0  0
  184.5140  178.6590  142.2650 C   0  0  0  0  0  0  0  0  0  0  0  0
  188.9810  177.6690  143.3660 C   0  0  0  0  0  3  0  0  0  0  0  0
  186.6860  178.2020  142.7220 C   0  0  0  0  0  0  0  0  0  0  0  0
  182.0260  178.9160  142.4320 C   0  0  0  0  0  2  0  0  0  0  0  0
  180.9070  179.5670  141.7690 N   0  0  0  0  0  2  0  0  0  0  0  0
  179.2330  178.3930  144.6040 O   0  0  0  0  0  0  0  0  0  0  0  0
  178.9630  180.1660  143.0680 C   0  0  0  0  0  2  0  0  0  0  0  0
  179.6920  179.0520  142.3780 C   0  0  2  0  0  3  0  0  0  0  0  0
  178.9910  179.7710  144.5250 C   0  0  0  0  0  2  0  0  0  0  0  0
  180.0440  178.0990  143.5000 C   0  0  0  0  0  2  0  0  0  0  0  0
  1 27  2  0  0  0  0
  1 26  1  0  0  0  0
  3 16  1  0  0  0  0
  4 18  1  0  0  0  0
  4 23  2  0  0  0  0
  5 11  2  0  0  0  0
  5 15  1  0  0  0  0
  6 19  1  0  0  0  0
  7  6  1  0  0  0  0
  7  3  1  0  0  0  0
  8 12  1  0  0  0  0
  9 25  2  0  0  0  0
  9 27  1  0  0  0  0
 10 17  1  0  0  0  0
 11 20  1  0  0  0  0
 13  9  1  0  0  0  0
 14  2  2  0  0  0  0
 15 12  1  6  0  0  0
 15  4  1  0  0  0  0
 16  8  1  0  0  0  0
 17 25  1  0  0  0  0
 17 28  1  1  0  0  0
 18  1  1  0  0  0  0
 19  5  1  0  0  0  0
 20 13  1  0  0  0  0
 20 18  2  0  0  0  0
 21 26  2  0  0  0  0
 22 24  1  0  0  0  0
 22 10  1  0  0  0  0
 23 21  1  0  0  0  0
 24 13  1  0  0  0  0
 25 14  1  0  0  0  0
 27  2  1  0  0  0  0
 29 28  1  0  0  0  0
 31 33  1  0  0  0  0
 32 29  1  1  0  0  0
 32 31  1  0  0  0  0
 32 34  1  0  0  0  0
 33 30  1  0  0  0  0
 34 30  1  0  0  0  0
M  END
>  <MODEL>
5

>  <REMARK>
 VINA RESULT:      -9.2      1.089      1.435
  Name = 
  3 active torsions:
  status: ('A' for Active; 'I' for Inactive)
    1  A    between atoms: C_17  and  C_28
    2  A    between atoms: C_28  and  N_29
    3  A    between atoms: N_29  and  C_32
                            x       y       z     vdW  Elec       q    Type
                         _______ _______ _______ _____ _____    ______ ____

>  <TORSDO>
F 3

$$$$
=
 OpenBabel11122412143D

 34 40  0  0  1  0  0  0  0  0999 V2000
  181.5050  179.0080  143.3620 C   0  0  0  0  0  0  0  0  0  0  0  0
  183.4660  178.6840  144.9240 C   0  0  0  0  0  3  0  0  0  0  0  0
  181.1630  181.1660  137.3730 N   0  0  0  0  0  2  0  0  0  0  0  0
  179.8610  179.3080  141.6010 C   0  0  0  0  0  0  0  0  0  0  0  0
  180.5050  178.7710  139.2390 C   0  0  0  0  0  0  0  0  0  0  0  0
  181.0690  178.7900  136.7880 C   0  0  0  0  0  2  0  0  0  0  0  0
  180.9050  180.2220  136.2920 C   0  0  0  0  0  2  0  0  0  0  0  0
  178.9310  181.2310  138.4270 C   0  0  0  0  0  2  0  0  0  0  0  0
  183.7650  178.4040  142.6820 C   0  0  0  0  0  0  0  0  0  0  0  0
  186.4720  179.0190  141.4800 C   0  0  0  0  0  2  0  0  0  0  0  0
  181.7110  178.4900  139.6420 N   0  0  0  0  0  0  0  0  0  0  0  0
  179.4760  180.9630  139.8240 C   0  0  0  0  0  2  0  0  0  0  0  0
  183.4330  178.3620  141.3630 N   0  0  0  0  0  0  0  0  0  0  0  0
  184.8060  178.3720  144.6590 C   0  0  0  0  0  3  0  0  0  0  0  0
  179.5100  179.4660  140.1450 C   0  0  2  0  0  3  0  0  0  0  0  0
  179.9600  181.9690  137.5720 C   0  0  0  0  0  2  0  0  0  0  0  0
  186.2670  177.9370  142.5440 C   0  0  2  0  0  3  0  0  0  0  0  0
  181.1720  178.9950  141.9870 C   0  0  0  0  0  0  0  0  0  0  0  0
  180.1390  178.5390  137.8780 N   0  0  0  0  0  2  0  0  0  0  0  0
  182.1370  178.6470  141.0040 C   0  0  0  0  0  0  0  0  0  0  0  0
  179.2300  179.5960  143.8810 C   0  0  0  0  0  3  0  0  0  0  0  0
  185.5860  178.8760  140.2300 C   0  0  0  0  0  2  0  0  0  0  0  0
  178.9310  179.6000  142.5530 N   0  0  0  0  0  0  0  0  0  0  0  0
  184.4020  177.9120  140.3620 C   0  0  0  0  0  2  0  0  0  0  0  0
  184.9850  178.2070  143.2820 C   0  0  0  0  0  0  0  0  0  0  0  0
  180.5260  179.3060  144.3130 C   0  0  0  0  0  3  0  0  0  0  0  0
  182.8180  178.7160  143.7050 C   0  0  0  0  0  0  0  0  0  0  0  0
  187.4640  177.9010  143.4830 C   0  0  0  0  0  2  0  0  0  0  0  0
  188.1830  176.6470  143.3240 N   0  0  0  0  0  2  0  0  0  0  0  0
  191.6120  177.2250  143.6870 O   0  0  0  0  0  0  0  0  0  0  0  0
  189.6190  178.1390  144.5640 C   0  0  0  0  0  2  0  0  0  0  0  0
  189.3540  176.7140  144.1820 C   0  0  2  0  0  3  0  0  0  0  0  0
  190.9610  178.4400  143.9400 C   0  0  0  0  0  2  0  0  0  0  0  0
  190.5870  176.3130  143.4000 C   0  0  0  0  0  2  0  0  0  0  0  0
  1 27  2  0  0  0  0
  1 26  1  0  0  0  0
  3 16  1  0  0  0  0
  4 18  1  0  0  0  0
  4 23  2  0  0  0  0
  5 11  2  0  0  0  0
  5 15  1  0  0  0  0
  6 19  1  0  0  0  0
  7  6  1  0  0  0  0
  7  3  1  0  0  0  0
  8 12  1  0  0  0  0
  9 25  2  0  0  0  0
  9 27  1  0  0  0  0
 10 17  1  0  0  0  0
 11 20  1  0  0  0  0
 13  9  1  0  0  0  0
 14  2  2  0  0  0  0
 15 12  1  6  0  0  0
 15  4  1  0  0  0  0
 16  8  1  0  0  0  0
 17 25  1  0  0  0  0
 17 28  1  1  0  0  0
 18  1  1  0  0  0  0
 19  5  1  0  0  0  0
 20 13  1  0  0  0  0
 20 18  2  0  0  0  0
 21 26  2  0  0  0  0
 22 24  1  0  0  0  0
 22 10  1  0  0  0  0
 23 21  1  0  0  0  0
 24 13  1  0  0  0  0
 25 14  1  0  0  0  0
 27  2  1  0  0  0  0
 29 28  1  0  0  0  0
 30 33  1  0  0  0  0
 32 29  1  6  0  0  0
 32 31  1  0  0  0  0
 33 31  1  0  0  0  0
 34 30  1  0  0  0  0
 34 32  1  0  0  0  0
M  END
>  <MODEL>
6

>  <REMARK>
 VINA RESULT:      -8.8      3.828      8.328
  Name = 
  3 active torsions:
  status: ('A' for Active; 'I' for Inactive)
    1  A    between atoms: C_17  and  C_28
    2  A    between atoms: C_28  and  N_29
    3  A    between atoms: N_29  and  C_32
                            x       y       z     vdW  Elec       q    Type
                         _______ _______ _______ _____ _____    ______ ____

>  <TORSDO>
F 3

$$$$
=
 OpenBabel11122412143D

 34 40  0  0  1  0  0  0  0  0999 V2000
  184.2820  178.6490  144.5850 C   0  0  0  0  0  0  0  0  0  0  0  0
  181.8240  178.7520  144.0000 C   0  0  0  0  0  3  0  0  0  0  0  0
  189.2310  175.9130  141.6430 N   0  0  0  0  0  2  0  0  0  0  0  0
  186.6940  178.4820  144.8030 C   0  0  0  0  0  0  0  0  0  0  0  0
  188.1060  178.5940  142.7350 C   0  0  0  0  0  0  0  0  0  0  0  0
  189.6600  178.1720  140.8020 C   0  0  0  0  0  2  0  0  0  0  0  0
  190.1990  176.7550  140.9510 C   0  0  0  0  0  2  0  0  0  0  0  0
  189.8140  176.4250  143.9870 C   0  0  0  0  0  2  0  0  0  0  0  0
  183.3690  178.6980  142.3260 C   0  0  0  0  0  0  0  0  0  0  0  0
  182.6270  177.4120  139.6910 C   0  0  0  0  0  2  0  0  0  0  0  0
  187.0260  178.6710  142.0120 N   0  0  0  0  0  0  0  0  0  0  0  0
  188.3760  176.7410  144.3770 C   0  0  0  0  0  2  0  0  0  0  0  0
  184.6030  178.6500  141.7510 N   0  0  0  0  0  0  0  0  0  0  0  0
  181.1780  178.7530  142.7560 C   0  0  0  0  0  3  0  0  0  0  0  0
  188.0510  178.2270  144.2040 C   0  0  2  0  0  3  0  0  0  0  0  0
  189.8600  175.3980  142.8560 C   0  0  0  0  0  2  0  0  0  0  0  0
  181.8900  178.6300  140.2520 C   0  0  2  0  0  3  0  0  0  0  0  0
  185.5590  178.5660  143.9830 C   0  0  0  0  0  0  0  0  0  0  0  0
  189.3860  178.7330  142.1160 N   0  0  0  0  0  2  0  0  0  0  0  0
  185.7050  178.5930  142.5700 C   0  0  0  0  0  0  0  0  0  0  0  0
  185.3270  178.5990  146.7510 C   0  0  0  0  0  3  0  0  0  0  0  0
  184.1500  177.5820  139.5520 C   0  0  0  0  0  2  0  0  0  0  0  0
  186.5480  178.4980  146.1570 N   0  0  0  0  0  0  0  0  0  0  0  0
  184.7560  178.7750  140.3010 C   0  0  0  0  0  2  0  0  0  0  0  0
  182.1300  178.7150  141.7340 C   0  0  0  0  0  0  0  0  0  0  0  0
  184.1670  178.6690  145.9760 C   0  0  0  0  0  3  0  0  0  0  0  0
  183.1800  178.7080  143.7420 C   0  0  0  0  0  0  0  0  0  0  0  0
  180.4070  178.5350  139.9230 C   0  0  0  0  0  2  0  0  0  0  0  0
  180.0960  179.3750  138.7780 N   0  0  0  0  0  2  0  0  0  0  0  0
  180.7910  182.6200  137.6780 O   0  0  0  0  0  0  0  0  0  0  0  0
  179.7160  181.6350  139.5350 C   0  0  0  0  0  2  0  0  0  0  0  0
  180.7280  180.6630  139.0080 C   0  0  2  0  0  3  0  0  0  0  0  0
  179.6300  182.6900  138.4580 C   0  0  0  0  0  2  0  0  0  0  0  0
  181.1590  181.2670  137.6890 C   0  0  0  0  0  2  0  0  0  0  0  0
  1 26  1  0  0  0  0
  3 16  1  0  0  0  0
  4 23  2  0  0  0  0
  5 15  1  0  0  0  0
  6  7  1  0  0  0  0
  6 19  1  0  0  0  0
  7  3  1  0  0  0  0
  8 12  1  0  0  0  0
  9 27  1  0  0  0  0
 10 17  1  0  0  0  0
 11 20  1  0  0  0  0
 11  5  2  0  0  0  0
 13  9  1  0  0  0  0
 13 20  1  0  0  0  0
 14  2  2  0  0  0  0
 15 12  1  6  0  0  0
 15  4  1  0  0  0  0
 16  8  1  0  0  0  0
 17 28  1  1  0  0  0
 17 25  1  0  0  0  0
 18  1  1  0  0  0  0
 18  4  1  0  0  0  0
 19  5  1  0  0  0  0
 20 18  2  0  0  0  0
 22 10  1  0  0  0  0
 22 24  1  0  0  0  0
 23 21  1  0  0  0  0
 24 13  1  0  0  0  0
 25  9  2  0  0  0  0
 25 14  1  0  0  0  0
 26 21  2  0  0  0  0
 27  2  1  0  0  0  0
 27  1  2  0  0  0  0
 29 28  1  0  0  0  0
 30 34  1  0  0  0  0
 30 33  1  0  0  0  0
 32 29  1  6  0  0  0
 32 31  1  0  0  0  0
 33 31  1  0  0  0  0
 34 32  1  0  0  0  0
M  END
>  <MODEL>
7

>  <REMARK>
 VINA RESULT:      -8.1      2.761      5.041
  Name = 
  3 active torsions:
  status: ('A' for Active; 'I' for Inactive)
    1  A    between atoms: C_17  and  C_28
    2  A    between atoms: C_28  and  N_29
    3  A    between atoms: N_29  and  C_32
                            x       y       z     vdW  Elec       q    Type
                         _______ _______ _______ _____ _____    ______ ____

>  <TORSDO>
F 3

$$$$
=
 OpenBabel11122412143D

 34 40  0  0  1  0  0  0  0  0999 V2000
  187.0100  177.5860  137.5940 C   0  0  0  0  0  0  0  0  0  0  0  0
  189.3160  177.5630  138.6310 C   0  0  0  0  0  3  0  0  0  0  0  0
  181.2360  176.4910  140.0650 N   0  0  0  0  0  2  0  0  0  0  0  0
  184.6760  177.6530  136.9280 C   0  0  0  0  0  0  0  0  0  0  0  0
  182.9840  178.5570  138.5400 C   0  0  0  0  0  0  0  0  0  0  0  0
  181.0820  178.9330  140.1430 C   0  0  0  0  0  2  0  0  0  0  0  0
  180.3320  177.6140  140.2790 C   0  0  0  0  0  2  0  0  0  0  0  0
  181.1490  176.3330  137.6020 C   0  0  0  0  0  2  0  0  0  0  0  0
  187.5300  178.2070  139.8910 C   0  0  0  0  0  0  0  0  0  0  0  0
  187.5860  177.7020  142.8730 C   0  0  0  0  0  2  0  0  0  0  0  0
  183.9260  178.7190  139.4240 N   0  0  0  0  0  0  0  0  0  0  0  0
  182.6650  176.3400  137.4510 C   0  0  0  0  0  2  0  0  0  0  0  0
  186.2300  178.4860  140.1840 N   0  0  0  0  0  0  0  0  0  0  0  0
  189.7370  177.8640  139.9330 C   0  0  0  0  0  3  0  0  0  0  0  0
  183.2150  177.7580  137.2740 C   0  0  2  0  0  3  0  0  0  0  0  0
  180.7360  175.7130  138.9360 C   0  0  0  0  0  2  0  0  0  0  0  0
  188.6100  178.5940  142.1670 C   0  0  2  0  0  3  0  0  0  0  0  0
  185.6570  177.8440  137.9130 C   0  0  0  0  0  0  0  0  0  0  0  0
  181.6640  179.0310  138.8140 N   0  0  0  0  0  2  0  0  0  0  0  0
  185.2860  178.3160  139.2000 C   0  0  0  0  0  0  0  0  0  0  0  0
  186.3460  177.0070  135.3550 C   0  0  0  0  0  3  0  0  0  0  0  0
  186.1150  178.0890  142.6360 C   0  0  0  0  0  2  0  0  0  0  0  0
  185.0450  177.2390  135.6830 N   0  0  0  0  0  0  0  0  0  0  0  0
  185.8630  179.0620  141.4790 C   0  0  0  0  0  2  0  0  0  0  0  0
  188.6370  178.2530  140.7030 C   0  0  0  0  0  0  0  0  0  0  0  0
  187.3550  177.1680  136.3060 C   0  0  0  0  0  3  0  0  0  0  0  0
  187.9500  177.7640  138.6000 C   0  0  0  0  0  0  0  0  0  0  0  0
  189.9770  178.4240  142.8140 C   0  0  0  0  0  2  0  0  0  0  0  0
  189.8810  177.5220  143.9500 N   0  0  0  0  0  2  0  0  0  0  0  0
  192.0550  175.8120  146.0880 O   0  0  0  0  0  0  0  0  0  0  0  0
  191.7450  176.0020  143.7550 C   0  0  0  0  0  2  0  0  0  0  0  0
  191.2370  177.2560  144.4000 C   0  0  2  0  0  3  0  0  0  0  0  0
  191.9540  175.0550  144.9130 C   0  0  0  0  0  2  0  0  0  0  0  0
  191.2330  176.9270  145.8780 C   0  0  0  0  0  2  0  0  0  0  0  0
  1 18  1  0  0  0  0
  1 27  2  0  0  0  0
  2 14  2  0  0  0  0
  3  7  1  0  0  0  0
  4 15  1  0  0  0  0
  4 18  1  0  0  0  0
  5 19  1  0  0  0  0
  5 11  2  0  0  0  0
  6  7  1  0  0  0  0
  8 16  1  0  0  0  0
  9 13  1  0  0  0  0
  9 25  2  0  0  0  0
 12  8  1  0  0  0  0
 13 24  1  0  0  0  0
 14 25  1  0  0  0  0
 15 12  1  1  0  0  0
 15  5  1  0  0  0  0
 16  3  1  0  0  0  0
 17 28  1  1  0  0  0
 17 10  1  0  0  0  0
 18 20  2  0  0  0  0
 19  6  1  0  0  0  0
 20 11  1  0  0  0  0
 20 13  1  0  0  0  0
 21 23  1  0  0  0  0
 21 26  2  0  0  0  0
 22 10  1  0  0  0  0
 23  4  2  0  0  0  0
 24 22  1  0  0  0  0
 25 17  1  0  0  0  0
 26  1  1  0  0  0  0
 27  2  1  0  0  0  0
 27  9  1  0  0  0  0
 28 29  1  0  0  0  0
 31 32  1  0  0  0  0
 31 33  1  0  0  0  0
 32 29  1  6  0  0  0
 32 34  1  0  0  0  0
 33 30  1  0  0  0  0
 34 30  1  0  0  0  0
M  END
>  <MODEL>
8

>  <REMARK>
 VINA RESULT:      -8.0      3.636      7.663
  Name = 
  3 active torsions:
  status: ('A' for Active; 'I' for Inactive)
    1  A    between atoms: C_17  and  C_28
    2  A    between atoms: C_28  and  N_29
    3  A    between atoms: N_29  and  C_32
                            x       y       z     vdW  Elec       q    Type
                         _______ _______ _______ _____ _____    ______ ____

>  <TORSDO>
F 3

$$$$
=
 OpenBabel11122412143D

 34 40  0  0  1  0  0  0  0  0999 V2000
  188.1980  177.4810  138.4050 C   0  0  0  0  0  0  0  0  0  0  0  0
  187.1990  178.6230  140.4270 C   0  0  0  0  0  3  0  0  0  0  0  0
  194.2350  176.2000  136.8080 N   0  0  0  0  0  2  0  0  0  0  0  0
  189.4400  176.3270  136.6670 C   0  0  0  0  0  0  0  0  0  0  0  0
  191.4350  174.9540  137.3150 C   0  0  0  0  0  0  0  0  0  0  0  0
  193.7210  173.9610  137.6550 C   0  0  0  0  0  2  0  0  0  0  0  0
  194.7130  174.8250  136.8860 C   0  0  0  0  0  2  0  0  0  0  0  0
  192.7780  176.0350  134.8210 C   0  0  0  0  0  2  0  0  0  0  0  0
  189.1090  177.4030  140.6630 C   0  0  0  0  0  0  0  0  0  0  0  0
  191.1010  178.2030  142.7940 C   0  0  0  0  0  2  0  0  0  0  0  0
  191.2720  175.3180  138.5540 N   0  0  0  0  0  0  0  0  0  0  0  0
  191.5870  176.6760  135.5210 C   0  0  0  0  0  2  0  0  0  0  0  0
  190.1560  176.6170  140.2890 N   0  0  0  0  0  0  0  0  0  0  0  0
  187.6380  178.6800  141.7570 C   0  0  0  0  0  3  0  0  0  0  0  0
  190.6860  175.6310  136.1860 C   0  0  2  0  0  3  0  0  0  0  0  0
  194.0950  176.5530  135.3980 C   0  0  0  0  0  2  0  0  0  0  0  0
  189.6680  177.7770  143.1210 C   0  0  2  0  0  3  0  0  0  0  0  0
  189.3050  176.6920  138.0150 C   0  0  0  0  0  0  0  0  0  0  0  0
  192.4300  173.9840  136.9850 N   0  0  0  0  0  2  0  0  0  0  0  0
  190.2600  176.2490  138.9690 C   0  0  0  0  0  0  0  0  0  0  0  0
  187.4160  177.4630  136.1290 C   0  0  0  0  0  3  0  0  0  0  0  0
  191.9050  177.1880  141.9620 C   0  0  0  0  0  2  0  0  0  0  0  0
  188.4990  176.7220  135.7660 N   0  0  0  0  0  0  0  0  0  0  0  0
  191.0840  176.0830  141.2880 C   0  0  0  0  0  2  0  0  0  0  0  0
  188.8130  177.9350  141.8940 C   0  0  0  0  0  0  0  0  0  0  0  0
  187.2470  177.8640  137.4570 C   0  0  0  0  0  3  0  0  0  0  0  0
  188.1090  177.8420  139.7420 C   0  0  0  0  0  0  0  0  0  0  0  0
  189.1380  178.5980  144.2890 C   0  0  0  0  0  2  0  0  0  0  0  0
  189.7700  178.1680  145.5260 N   0  0  0  0  0  2  0  0  0  0  0  0
  187.7310  177.5960  148.3070 O   0  0  0  0  0  0  0  0  0  0  0  0
  187.4240  177.8240  145.9770 C   0  0  0  0  0  2  0  0  0  0  0  0
  188.8150  177.3210  146.2220 C   0  0  2  0  0  3  0  0  0  0  0  0
  186.9430  178.2430  147.3460 C   0  0  0  0  0  2  0  0  0  0  0  0
  188.9950  177.4650  147.7170 C   0  0  0  0  0  2  0  0  0  0  0  0
  1 27  2  0  0  0  0
  2 14  2  0  0  0  0
  3  7  1  0  0  0  0
  4 18  1  0  0  0  0
  5 11  2  0  0  0  0
  7  6  1  0  0  0  0
  8 16  1  0  0  0  0
  8 12  1  0  0  0  0
  9 25  2  0  0  0  0
 10 17  1  0  0  0  0
 11 20  1  0  0  0  0
 13  9  1  0  0  0  0
 13 24  1  0  0  0  0
 14 25  1  0  0  0  0
 15 12  1  1  0  0  0
 15  4  1  0  0  0  0
 15  5  1  0  0  0  0
 16  3  1  0  0  0  0
 17 28  1  1  0  0  0
 18  1  1  0  0  0  0
 18 20  2  0  0  0  0
 19  5  1  0  0  0  0
 19  6  1  0  0  0  0
 20 13  1  0  0  0  0
 21 26  2  0  0  0  0
 22 10  1  0  0  0  0
 23 21  1  0  0  0  0
 23  4  2  0  0  0  0
 24 22  1  0  0  0  0
 25 17  1  0  0  0  0
 26  1  1  0  0  0  0
 27  2  1  0  0  0  0
 27  9  1  0  0  0  0
 28 29  1  0  0  0  0
 31 32  1  0  0  0  0
 31 33  1  0  0  0  0
 32 29  1  6  0  0  0
 32 34  1  0  0  0  0
 33 30  1  0  0  0  0
 34 30  1  0  0  0  0
M  END
>  <MODEL>
9

>  <REMARK>
 VINA RESULT:      -7.8      3.929      6.160
  Name = 
  3 active torsions:
  status: ('A' for Active; 'I' for Inactive)
    1  A    between atoms: C_17  and  C_28
    2  A    between atoms: C_28  and  N_29
    3  A    between atoms: N_29  and  C_32
                            x       y       z     vdW  Elec       q    Type
                         _______ _______ _______ _____ _____    ______ ____

>  <TORSDO>
F 3

$$$$
