=
 OpenBabel11122410273D

 30 35  0  0  1  0  0  0  0  0999 V2000
  185.9760  178.3330  141.8840 C   0  0  0  0  0  0  0  0  0  0  0  0
  183.5470  178.9290  142.1630 C   0  0  0  0  0  0  0  0  0  0  0  0
  186.3510  177.6850  146.0240 N   0  0  0  0  0  2  0  0  0  0  0  0
  187.2170  177.9580  142.4830 C   0  0  0  0  0  0  0  0  0  0  0  0
  185.9290  178.4870  140.4930 C   0  0  0  0  0  3  0  0  0  0  0  0
  189.4010  177.7860  139.4810 O   0  0  0  0  0  1  0  0  0  0  0  0
  190.1240  178.4690  143.3850 C   0  0  1  0  0  3  0  0  0  0  0  0
  188.2740  177.9560  140.2830 C   0  0  0  0  0  0  0  0  0  0  0  0
  189.5210  178.2270  144.7150 N   0  0  2  0  0  0  0  0  0  0  0  0
  187.7090  177.2640  146.0640 C   0  0  0  0  0  0  0  0  0  0  0  0
  187.0560  178.2940  139.6880 C   0  0  0  0  0  0  0  0  0  0  0  0
  188.3710  177.7950  141.6750 C   0  0  0  0  0  0  0  0  0  0  0  0
  182.4520  179.1090  143.0120 C   0  0  0  0  0  3  0  0  0  0  0  0
  190.6050  177.6760  145.5210 C   0  0  0  0  0  2  0  0  0  0  0  0
  191.6340  178.5000  143.5400 C   0  0  0  0  0  2  0  0  0  0  0  0
  183.3480  179.1410  140.8040 O   0  0  0  0  0  1  0  0  0  0  0  0
  186.1310  177.9710  144.6530 C   0  0  0  0  0  0  0  0  0  0  0  0
  182.5730  178.9160  144.3860 C   0  0  0  0  0  3  0  0  0  0  0  0
  184.8110  178.5430  142.6920 C   0  0  0  0  0  0  0  0  0  0  0  0
  187.2530  177.7780  143.8770 C   0  0  0  0  0  0  0  0  0  0  0  0
  188.2570  176.8730  147.1280 O   0  0  0  0  0  0  0  0  0  0  0  0
  188.3920  177.2830  144.7230 C   0  0  1  0  0  3  0  0  0  0  0  0
  191.8910  178.2690  145.0040 C   0  0  0  0  0  2  0  0  0  0  0  0
  189.9530  176.0220  142.5400 C   0  0  0  0  0  1  0  0  0  0  0  0
  183.7980  178.5390  144.9280 C   0  0  0  0  0  3  0  0  0  0  0  0
  184.9110  178.3550  144.1010 C   0  0  0  0  0  0  0  0  0  0  0  0
  189.7290  177.5020  142.2510 C   0  0  2  0  0  3  0  0  0  0  0  0
  186.9860  178.4520  138.2640 N   0  0  0  0  0  0  0  0  0  0  0  0
  186.3170  177.8600  136.1200 O   0  0  0  0  0  1  0  0  0  0  0  0
  186.3390  177.6420  137.4900 C   0  0  0  0  0  3  0  0  0  0  0  0
  1  4  1  0  0  0  0
  1 19  1  0  0  0  0
  2 19  2  0  0  0  0
  2 13  1  0  0  0  0
  3 10  1  0  0  0  0
  4 20  1  0  0  0  0
  5  1  2  0  0  0  0
  6  8  1  0  0  0  0
  7 15  1  1  0  0  0
  7  9  1  0  0  0  0
  8 12  1  0  0  0  0
  9 22  1  0  0  0  0
  9 14  1  1  0  0  0
 10 21  2  0  0  0  0
 11  8  2  0  0  0  0
 11  5  1  0  0  0  0
 12 27  1  0  0  0  0
 12  4  2  0  0  0  0
 13 18  2  0  0  0  0
 15 23  1  0  0  0  0
 16  2  1  0  0  0  0
 17  3  1  0  0  0  0
 18 25  1  0  0  0  0
 19 26  1  0  0  0  0
 20 17  2  0  0  0  0
 22 20  1  6  0  0  0
 22 10  1  0  0  0  0
 23 14  1  0  0  0  0
 26 17  1  0  0  0  0
 26 25  2  0  0  0  0
 27 24  1  1  0  0  0
 27  7  1  0  0  0  0
 28 11  1  0  0  0  0
 29 30  1  0  0  0  0
 30 28  2  0  0  0  0
M  END
>  <MODEL>
1

>  <REMARK>
 VINA RESULT:     -10.6      0.000      0.000
  Name = 
  1 active torsions:
  status: ('A' for Active; 'I' for Inactive)
    1  A    between atoms: C_11  and  N_28
                            x       y       z     vdW  Elec       q    Type
                         _______ _______ _______ _____ _____    ______ ____

>  <TORSDO>
F 1

$$$$
=
 OpenBabel11122410273D

 30 35  0  0  1  0  0  0  0  0999 V2000
  186.2420  178.3450  142.6580 C   0  0  0  0  0  0  0  0  0  0  0  0
  187.0800  178.1430  145.0220 C   0  0  0  0  0  0  0  0  0  0  0  0
  182.3020  178.8680  144.0390 N   0  0  0  0  0  2  0  0  0  0  0  0
  185.1410  178.5070  141.7630 C   0  0  0  0  0  0  0  0  0  0  0  0
  187.5260  178.2190  142.1140 C   0  0  0  0  0  3  0  0  0  0  0  0
  186.8920  178.3660  138.4890 O   0  0  0  0  0  1  0  0  0  0  0  0
  183.1250  177.5230  139.6420 C   0  0  1  0  0  3  0  0  0  0  0  0
  186.6670  178.3690  139.8630 C   0  0  0  0  0  0  0  0  0  0  0  0
  182.1670  177.8410  140.7250 N   0  0  2  0  0  0  0  0  0  0  0  0
  181.6500  179.0640  142.7910 C   0  0  0  0  0  0  0  0  0  0  0  0
  187.7520  178.2390  140.7340 C   0  0  0  0  0  0  0  0  0  0  0  0
  185.3600  178.4930  140.3620 C   0  0  0  0  0  0  0  0  0  0  0  0
  186.8000  178.1300  146.3910 C   0  0  0  0  0  3  0  0  0  0  0  0
  180.9320  178.2000  140.0360 C   0  0  0  0  0  2  0  0  0  0  0  0
  182.3410  177.2470  138.3710 C   0  0  0  0  0  2  0  0  0  0  0  0
  188.4060  177.9850  144.6360 O   0  0  0  0  0  1  0  0  0  0  0  0
  183.6540  178.6400  143.6770 C   0  0  0  0  0  0  0  0  0  0  0  0
  185.4970  178.2830  146.8550 C   0  0  0  0  0  3  0  0  0  0  0  0
  186.0310  178.3140  144.0750 C   0  0  0  0  0  0  0  0  0  0  0  0
  183.8560  178.6600  142.3140 C   0  0  0  0  0  0  0  0  0  0  0  0
  180.4260  179.3480  142.7120 O   0  0  0  0  0  0  0  0  0  0  0  0
  182.5660  178.9540  141.6010 C   0  0  1  0  0  3  0  0  0  0  0  0
  180.8940  177.4150  138.7490 C   0  0  0  0  0  2  0  0  0  0  0  0
  183.7580  179.9770  139.0870 C   0  0  0  0  0  1  0  0  0  0  0  0
  184.4530  178.4500  145.9500 C   0  0  0  0  0  3  0  0  0  0  0  0
  184.7050  178.4640  144.5740 C   0  0  0  0  0  0  0  0  0  0  0  0
  184.2360  178.5570  139.3650 C   0  0  2  0  0  3  0  0  0  0  0  0
  189.0760  178.1130  140.1970 N   0  0  0  0  0  0  0  0  0  0  0  0
  191.2420  177.2750  140.1360 O   0  0  0  0  0  1  0  0  0  0  0  0
  189.9810  177.3440  140.7120 C   0  0  0  0  0  3  0  0  0  0  0  0
  1 19  1  0  0  0  0
  2 13  1  0  0  0  0
  4 20  1  0  0  0  0
  4  1  2  0  0  0  0
  5  1  1  0  0  0  0
  6  8  1  0  0  0  0
  7 15  1  6  0  0  0
  7  9  1  0  0  0  0
  8 12  2  0  0  0  0
  8 11  1  0  0  0  0
  9 14  1  6  0  0  0
  9 22  1  0  0  0  0
 10  3  1  0  0  0  0
 11  5  2  0  0  0  0
 12  4  1  0  0  0  0
 13 18  2  0  0  0  0
 15 23  1  0  0  0  0
 16  2  1  0  0  0  0
 17  3  1  0  0  0  0
 17 26  1  0  0  0  0
 19 26  1  0  0  0  0
 19  2  2  0  0  0  0
 20 17  2  0  0  0  0
 21 10  2  0  0  0  0
 22 20  1  1  0  0  0
 22 10  1  0  0  0  0
 23 14  1  0  0  0  0
 25 18  1  0  0  0  0
 26 25  2  0  0  0  0
 27 24  1  1  0  0  0
 27  7  1  0  0  0  0
 27 12  1  0  0  0  0
 28 30  2  0  0  0  0
 28 11  1  0  0  0  0
 29 30  1  0  0  0  0
M  END
>  <MODEL>
2

>  <REMARK>
 VINA RESULT:     -10.0      2.451      6.024
  Name = 
  1 active torsions:
  status: ('A' for Active; 'I' for Inactive)
    1  A    between atoms: C_11  and  N_28
                            x       y       z     vdW  Elec       q    Type
                         _______ _______ _______ _____ _____    ______ ____

>  <TORSDO>
F 1

$$$$
=
 OpenBabel11122410273D

 30 35  0  0  1  0  0  0  0  0999 V2000
  189.3590  177.2110  143.6400 C   0  0  0  0  0  0  0  0  0  0  0  0
  191.2590  176.2240  144.9610 C   0  0  0  0  0  0  0  0  0  0  0  0
  187.3180  178.1780  147.1900 N   0  0  0  0  0  2  0  0  0  0  0  0
  188.0740  177.8330  143.6300 C   0  0  0  0  0  0  0  0  0  0  0  0
  189.9870  176.9630  142.4130 C   0  0  0  0  0  3  0  0  0  0  0  0
  187.5140  178.1880  139.9730 O   0  0  0  0  0  1  0  0  0  0  0  0
  185.0280  177.8910  143.1290 C   0  0  1  0  0  3  0  0  0  0  0  0
  188.1180  177.8780  141.1890 C   0  0  0  0  0  0  0  0  0  0  0  0
  185.0140  178.1100  144.5930 N   0  0  2  0  0  0  0  0  0  0  0  0
  186.1860  178.8290  146.6280 C   0  0  0  0  0  0  0  0  0  0  0  0
  189.3890  177.2960  141.1940 C   0  0  0  0  0  0  0  0  0  0  0  0
  187.4470  178.1420  142.3950 C   0  0  0  0  0  0  0  0  0  0  0  0
  191.8130  175.9110  146.2050 C   0  0  0  0  0  3  0  0  0  0  0  0
  183.8070  178.8910  144.8420 C   0  0  0  0  0  2  0  0  0  0  0  0
  183.6280  178.1320  142.5930 C   0  0  0  0  0  2  0  0  0  0  0  0
  191.9960  175.8940  143.8290 O   0  0  0  0  0  1  0  0  0  0  0  0
  188.0660  177.7710  146.0560 C   0  0  0  0  0  0  0  0  0  0  0  0
  191.1350  176.2100  147.3840 C   0  0  0  0  0  3  0  0  0  0  0  0
  189.9860  176.8550  144.8780 C   0  0  0  0  0  0  0  0  0  0  0  0
  187.4590  178.1050  144.8640 C   0  0  0  0  0  0  0  0  0  0  0  0
  185.3050  179.3760  147.3430 O   0  0  0  0  0  0  0  0  0  0  0  0
  186.1750  178.8430  145.1230 C   0  0  1  0  0  3  0  0  0  0  0  0
  182.7970  178.4980  143.7930 C   0  0  0  0  0  2  0  0  0  0  0  0
  186.0010  180.2130  142.5000 C   0  0  0  0  0  1  0  0  0  0  0  0
  189.8890  176.8270  147.3310 C   0  0  0  0  0  3  0  0  0  0  0  0
  189.3100  177.1480  146.0980 C   0  0  0  0  0  0  0  0  0  0  0  0
  186.0540  178.7010  142.3110 C   0  0  2  0  0  3  0  0  0  0  0  0
  190.0500  177.0380  139.9470 N   0  0  0  0  0  0  0  0  0  0  0  0
  191.9020  176.8410  138.5590 O   0  0  0  0  0  1  0  0  0  0  0  0
  191.3340  177.1040  139.7980 C   0  0  0  0  0  3  0  0  0  0  0  0
  1 19  1  0  0  0  0
  2 13  1  0  0  0  0
  4  1  1  0  0  0  0
  4 20  1  0  0  0  0
  5  1  2  0  0  0  0
  6  8  1  0  0  0  0
  7 15  1  6  0  0  0
  7  9  1  0  0  0  0
  8 11  2  0  0  0  0
  8 12  1  0  0  0  0
  9 14  1  6  0  0  0
  9 22  1  0  0  0  0
 10  3  1  0  0  0  0
 10 21  2  0  0  0  0
 11  5  1  0  0  0  0
 12  4  2  0  0  0  0
 13 18  2  0  0  0  0
 15 23  1  0  0  0  0
 16  2  1  0  0  0  0
 17 26  1  0  0  0  0
 17  3  1  0  0  0  0
 19  2  2  0  0  0  0
 19 26  1  0  0  0  0
 20 17  2  0  0  0  0
 22 20  1  6  0  0  0
 22 10  1  0  0  0  0
 23 14  1  0  0  0  0
 25 18  1  0  0  0  0
 26 25  2  0  0  0  0
 27 12  1  0  0  0  0
 27 24  1  1  0  0  0
 27  7  1  0  0  0  0
 28 11  1  0  0  0  0
 29 30  1  0  0  0  0
 30 28  2  0  0  0  0
M  END
>  <MODEL>
3

>  <REMARK>
 VINA RESULT:     -10.0      2.094      5.596
  Name = 
  1 active torsions:
  status: ('A' for Active; 'I' for Inactive)
    1  A    between atoms: C_11  and  N_28
                            x       y       z     vdW  Elec       q    Type
                         _______ _______ _______ _____ _____    ______ ____

>  <TORSDO>
F 1

$$$$
=
 OpenBabel11122410273D

 30 35  0  0  1  0  0  0  0  0999 V2000
  187.2580  178.0980  142.1900 C   0  0  0  0  0  0  0  0  0  0  0  0
  188.5040  177.7110  144.3420 C   0  0  0  0  0  0  0  0  0  0  0  0
  183.6500  178.5840  144.2980 N   0  0  0  0  0  2  0  0  0  0  0  0
  186.0190  178.3440  141.5250 C   0  0  0  0  0  0  0  0  0  0  0  0
  188.4190  177.9920  141.4140 C   0  0  0  0  0  3  0  0  0  0  0  0
  187.1450  178.4150  137.9840 O   0  0  0  0  0  1  0  0  0  0  0  0
  183.6260  177.5510  139.7430 C   0  0  1  0  0  3  0  0  0  0  0  0
  187.1730  178.3210  139.3730 C   0  0  0  0  0  0  0  0  0  0  0  0
  182.8880  177.8050  141.0020 N   0  0  2  0  0  0  0  0  0  0  0  0
  182.7900  178.8820  143.2060 C   0  0  0  0  0  0  0  0  0  0  0  0
  188.3930  178.1090  140.0210 C   0  0  0  0  0  0  0  0  0  0  0  0
  185.9810  178.4300  140.1090 C   0  0  0  0  0  0  0  0  0  0  0  0
  188.4750  177.6020  145.7350 C   0  0  0  0  0  3  0  0  0  0  0  0
  181.5600  178.2340  140.5760 C   0  0  0  0  0  2  0  0  0  0  0  0
  182.6180  177.3830  138.6200 C   0  0  0  0  0  2  0  0  0  0  0  0
  189.7330  177.5590  143.7110 O   0  0  0  0  0  1  0  0  0  0  0  0
  184.9070  178.3600  143.6810 C   0  0  0  0  0  0  0  0  0  0  0  0
  187.2820  177.7420  146.4380 C   0  0  0  0  0  3  0  0  0  0  0  0
  187.3060  177.9670  143.6160 C   0  0  0  0  0  0  0  0  0  0  0  0
  184.8610  178.4770  142.3090 C   0  0  0  0  0  0  0  0  0  0  0  0
  181.5800  179.1910  143.3720 O   0  0  0  0  0  0  0  0  0  0  0  0
  183.4720  178.8440  141.8660 C   0  0  1  0  0  3  0  0  0  0  0  0
  181.2680  177.5460  139.2660 C   0  0  0  0  0  2  0  0  0  0  0  0
  184.2200  180.0290  139.2530 C   0  0  0  0  0  1  0  0  0  0  0  0
  186.0970  177.9920  145.7520 C   0  0  0  0  0  3  0  0  0  0  0  0
  186.0970  178.1020  144.3580 C   0  0  0  0  0  0  0  0  0  0  0  0
  184.6980  178.5840  139.3410 C   0  0  2  0  0  3  0  0  0  0  0  0
  189.5940  178.0010  139.2440 N   0  0  0  0  0  0  0  0  0  0  0  0
  191.4080  176.8680  138.3360 O   0  0  0  0  0  1  0  0  0  0  0  0
  190.2520  176.8950  139.1040 C   0  0  0  0  0  3  0  0  0  0  0  0
  1 19  1  0  0  0  0
  2 13  1  0  0  0  0
  4  1  1  0  0  0  0
  4 20  1  0  0  0  0
  5  1  2  0  0  0  0
  6  8  1  0  0  0  0
  7 15  1  6  0  0  0
  7  9  1  0  0  0  0
  8 11  2  0  0  0  0
  8 12  1  0  0  0  0
  9 14  1  6  0  0  0
  9 22  1  0  0  0  0
 10 21  2  0  0  0  0
 10  3  1  0  0  0  0
 11  5  1  0  0  0  0
 12  4  2  0  0  0  0
 13 18  2  0  0  0  0
 15 23  1  0  0  0  0
 16  2  1  0  0  0  0
 17  3  1  0  0  0  0
 17 26  1  0  0  0  0
 19  2  2  0  0  0  0
 19 26  1  0  0  0  0
 20 17  2  0  0  0  0
 22 20  1  1  0  0  0
 22 10  1  0  0  0  0
 23 14  1  0  0  0  0
 25 18  1  0  0  0  0
 26 25  2  0  0  0  0
 27 24  1  1  0  0  0
 27  7  1  0  0  0  0
 27 12  1  0  0  0  0
 28 11  1  0  0  0  0
 29 30  1  0  0  0  0
 30 28  2  0  0  0  0
M  END
>  <MODEL>
4

>  <REMARK>
 VINA RESULT:      -9.7      2.187      5.734
  Name = 
  1 active torsions:
  status: ('A' for Active; 'I' for Inactive)
    1  A    between atoms: C_11  and  N_28
                            x       y       z     vdW  Elec       q    Type
                         _______ _______ _______ _____ _____    ______ ____

>  <TORSDO>
F 1

$$$$
=
 OpenBabel11122410273D

 30 35  0  0  1  0  0  0  0  0999 V2000
  187.3420  177.9160  143.1300 C   0  0  0  0  0  0  0  0  0  0  0  0
  185.9880  178.1670  145.2370 C   0  0  0  0  0  0  0  0  0  0  0  0
  184.1360  179.3780  140.8300 N   0  0  0  0  0  2  0  0  0  0  0  0
  187.4180  178.0280  141.7090 C   0  0  0  0  0  0  0  0  0  0  0  0
  188.4700  177.4600  143.8220 C   0  0  0  0  0  3  0  0  0  0  0  0
  190.8810  176.8190  141.1120 O   0  0  0  0  0  1  0  0  0  0  0  0
  187.5540  176.8900  138.8430 C   0  0  1  0  0  3  0  0  0  0  0  0
  189.7110  177.1920  141.7690 C   0  0  0  0  0  0  0  0  0  0  0  0
  186.2640  177.6100  138.7320 N   0  0  2  0  0  0  0  0  0  0  0  0
  184.7540  179.3650  139.5490 C   0  0  0  0  0  0  0  0  0  0  0  0
  189.6510  177.1080  143.1630 C   0  0  0  0  0  0  0  0  0  0  0  0
  188.6020  177.6400  141.0310 C   0  0  0  0  0  0  0  0  0  0  0  0
  184.7860  178.5320  145.8470 C   0  0  0  0  0  3  0  0  0  0  0  0
  186.1640  177.9810  137.3250 C   0  0  0  0  0  2  0  0  0  0  0  0
  187.9740  176.4410  137.4540 C   0  0  0  0  0  2  0  0  0  0  0  0
  187.0130  177.7100  146.0590 O   0  0  0  0  0  1  0  0  0  0  0  0
  185.1370  178.8570  141.6880 C   0  0  0  0  0  0  0  0  0  0  0  0
  183.7130  178.9980  145.0910 C   0  0  0  0  0  3  0  0  0  0  0  0
  186.1370  178.2650  143.8240 C   0  0  0  0  0  0  0  0  0  0  0  0
  186.2920  178.5130  141.0200 C   0  0  0  0  0  0  0  0  0  0  0  0
  184.1760  179.8120  138.5230 O   0  0  0  0  0  0  0  0  0  0  0  0
  186.1580  178.8250  139.5560 C   0  0  1  0  0  3  0  0  0  0  0  0
  186.8870  176.9230  136.5320 C   0  0  0  0  0  2  0  0  0  0  0  0
  189.0550  179.0030  138.9500 C   0  0  0  0  0  1  0  0  0  0  0  0
  183.8330  179.1030  143.7080 C   0  0  0  0  0  3  0  0  0  0  0  0
  185.0250  178.7410  143.0720 C   0  0  0  0  0  0  0  0  0  0  0  0
  188.7140  177.6360  139.5320 C   0  0  2  0  0  3  0  0  0  0  0  0
  190.7990  176.6460  143.8910 N   0  0  0  0  0  0  0  0  0  0  0  0
  192.0560  176.2830  145.8100 O   0  0  0  0  0  1  0  0  0  0  0  0
  190.9140  176.7520  145.1750 C   0  0  0  0  0  3  0  0  0  0  0  0
  1  5  1  0  0  0  0
  1 19  1  0  0  0  0
  2 13  1  0  0  0  0
  2 16  1  0  0  0  0
  3 17  1  0  0  0  0
  4  1  2  0  0  0  0
  6  8  1  0  0  0  0
  7 15  1  6  0  0  0
  7 27  1  0  0  0  0
  8 11  1  0  0  0  0
  9 14  1  6  0  0  0
  9  7  1  0  0  0  0
  9 22  1  0  0  0  0
 10  3  1  0  0  0  0
 11  5  2  0  0  0  0
 11 28  1  0  0  0  0
 12  4  1  0  0  0  0
 12  8  2  0  0  0  0
 17 26  1  0  0  0  0
 18 13  2  0  0  0  0
 19  2  2  0  0  0  0
 20 17  2  0  0  0  0
 20  4  1  0  0  0  0
 21 10  2  0  0  0  0
 22 10  1  1  0  0  0
 22 20  1  0  0  0  0
 23 14  1  0  0  0  0
 23 15  1  0  0  0  0
 25 18  1  0  0  0  0
 26 25  2  0  0  0  0
 26 19  1  0  0  0  0
 27 24  1  6  0  0  0
 27 12  1  0  0  0  0
 28 30  2  0  0  0  0
 30 29  1  0  0  0  0
M  END
>  <MODEL>
5

>  <REMARK>
 VINA RESULT:      -9.0      1.777      5.734
  Name = 
  1 active torsions:
  status: ('A' for Active; 'I' for Inactive)
    1  A    between atoms: C_11  and  N_28
                            x       y       z     vdW  Elec       q    Type
                         _______ _______ _______ _____ _____    ______ ____

>  <TORSDO>
F 1

$$$$
=
 OpenBabel11122410273D

 30 35  0  0  1  0  0  0  0  0999 V2000
  187.7900  177.7780  143.9550 C   0  0  0  0  0  0  0  0  0  0  0  0
  186.3220  177.9340  145.9930 C   0  0  0  0  0  0  0  0  0  0  0  0
  184.6220  179.0620  141.5030 N   0  0  0  0  0  2  0  0  0  0  0  0
  187.9300  177.9030  142.5400 C   0  0  0  0  0  0  0  0  0  0  0  0
  188.9080  177.3850  144.7010 C   0  0  0  0  0  3  0  0  0  0  0  0
  191.4840  176.9050  142.1120 O   0  0  0  0  0  1  0  0  0  0  0  0
  188.2750  176.7940  139.6800 C   0  0  1  0  0  3  0  0  0  0  0  0
  190.2630  177.2040  142.7110 C   0  0  0  0  0  0  0  0  0  0  0  0
  186.9520  177.4370  139.5080 N   0  0  2  0  0  0  0  0  0  0  0  0
  185.3020  179.0950  140.2550 C   0  0  0  0  0  0  0  0  0  0  0  0
  190.1400  177.1070  144.1000 C   0  0  0  0  0  0  0  0  0  0  0  0
  189.1670  177.5900  141.9210 C   0  0  0  0  0  0  0  0  0  0  0  0
  185.0710  178.2230  146.5430 C   0  0  0  0  0  3  0  0  0  0  0  0
  186.9000  177.8110  138.0980 C   0  0  0  0  0  2  0  0  0  0  0  0
  188.7900  176.3800  138.3120 C   0  0  0  0  0  2  0  0  0  0  0  0
  187.3300  177.5330  146.8630 O   0  0  0  0  0  1  0  0  0  0  0  0
  185.6080  178.5960  142.4090 C   0  0  0  0  0  0  0  0  0  0  0  0
  184.0110  178.6300  145.7360 C   0  0  0  0  0  3  0  0  0  0  0  0
  186.5350  178.0500  144.5890 C   0  0  0  0  0  0  0  0  0  0  0  0
  186.8130  178.3250  141.7980 C   0  0  0  0  0  0  0  0  0  0  0  0
  184.7500  179.5130  139.2030 O   0  0  0  0  0  0  0  0  0  0  0  0
  186.7340  178.6380  140.3290 C   0  0  1  0  0  3  0  0  0  0  0  0
  187.7240  176.8030  137.3380 C   0  0  0  0  0  2  0  0  0  0  0  0
  189.6420  178.9910  139.8700 C   0  0  0  0  0  1  0  0  0  0  0  0
  184.1930  178.7510  144.3620 C   0  0  0  0  0  3  0  0  0  0  0  0
  185.4350  178.4640  143.7840 C   0  0  0  0  0  0  0  0  0  0  0  0
  189.3530  177.6020  140.4290 C   0  0  2  0  0  3  0  0  0  0  0  0
  191.2750  176.7090  144.8820 N   0  0  0  0  0  0  0  0  0  0  0  0
  192.4290  176.3440  146.8650 O   0  0  0  0  0  1  0  0  0  0  0  0
  191.2930  176.7440  146.1760 C   0  0  0  0  0  3  0  0  0  0  0  0
  1 19  1  0  0  0  0
  1  5  1  0  0  0  0
  2 13  1  0  0  0  0
  2 16  1  0  0  0  0
  3 17  1  0  0  0  0
  4  1  2  0  0  0  0
  6  8  1  0  0  0  0
  7 15  1  6  0  0  0
  7 27  1  0  0  0  0
  8 11  1  0  0  0  0
  9 14  1  6  0  0  0
  9  7  1  0  0  0  0
  9 22  1  0  0  0  0
 10  3  1  0  0  0  0
 11  5  2  0  0  0  0
 11 28  1  0  0  0  0
 12  4  1  0  0  0  0
 12  8  2  0  0  0  0
 17 26  1  0  0  0  0
 18 13  2  0  0  0  0
 19  2  2  0  0  0  0
 20 17  2  0  0  0  0
 20  4  1  0  0  0  0
 21 10  2  0  0  0  0
 22 10  1  1  0  0  0
 22 20  1  0  0  0  0
 23 14  1  0  0  0  0
 23 15  1  0  0  0  0
 25 18  1  0  0  0  0
 26 25  2  0  0  0  0
 26 19  1  0  0  0  0
 27 24  1  6  0  0  0
 27 12  1  0  0  0  0
 28 30  2  0  0  0  0
 30 29  1  0  0  0  0
M  END
>  <MODEL>
6

>  <REMARK>
 VINA RESULT:      -8.6      1.845      5.677
  Name = 
  1 active torsions:
  status: ('A' for Active; 'I' for Inactive)
    1  A    between atoms: C_11  and  N_28
                            x       y       z     vdW  Elec       q    Type
                         _______ _______ _______ _____ _____    ______ ____

>  <TORSDO>
F 1

$$$$
=
 OpenBabel11122410273D

 30 35  0  0  1  0  0  0  0  0999 V2000
  186.1980  178.1500  144.4200 C   0  0  0  0  0  0  0  0  0  0  0  0
  183.7200  178.4820  144.6990 C   0  0  0  0  0  0  0  0  0  0  0  0
  185.8740  178.7920  140.2740 N   0  0  0  0  0  2  0  0  0  0  0  0
  187.3290  178.0780  143.5510 C   0  0  0  0  0  0  0  0  0  0  0  0
  186.4020  177.9650  145.7920 C   0  0  0  0  0  3  0  0  0  0  0  0
  190.0240  177.3250  145.9960 O   0  0  0  0  0  1  0  0  0  0  0  0
  189.5870  176.5920  142.0600 C   0  0  1  0  0  3  0  0  0  0  0  0
  188.7670  177.6070  145.4670 C   0  0  0  0  0  0  0  0  0  0  0  0
  188.8380  177.0910  140.8840 N   0  0  2  0  0  0  0  0  0  0  0  0
  187.2490  178.6970  139.9240 C   0  0  0  0  0  0  0  0  0  0  0  0
  187.6690  177.7050  146.3250 C   0  0  0  0  0  0  0  0  0  0  0  0
  188.6110  177.7800  144.0810 C   0  0  0  0  0  0  0  0  0  0  0  0
  182.4770  178.7440  144.1170 C   0  0  0  0  0  3  0  0  0  0  0  0
  189.8460  177.2480  139.8400 C   0  0  0  0  0  2  0  0  0  0  0  0
  190.9120  176.0260  141.5820 C   0  0  0  0  0  2  0  0  0  0  0  0
  183.7570  178.2990  146.0770 O   0  0  0  0  0  1  0  0  0  0  0  0
  185.8680  178.5480  141.6710 C   0  0  0  0  0  0  0  0  0  0  0  0
  182.3580  178.9380  142.7430 C   0  0  0  0  0  3  0  0  0  0  0  0
  184.8910  178.4080  143.8930 C   0  0  0  0  0  0  0  0  0  0  0  0
  187.1240  178.2910  142.1770 C   0  0  0  0  0  0  0  0  0  0  0  0
  187.6560  178.9090  138.7510 O   0  0  0  0  0  0  0  0  0  0  0  0
  188.1530  178.3770  141.0830 C   0  0  1  0  0  3  0  0  0  0  0  0
  190.9110  176.2110  140.0880 C   0  0  0  0  0  2  0  0  0  0  0  0
  190.4970  178.8990  142.8220 C   0  0  0  0  0  1  0  0  0  0  0  0
  183.4870  178.8700  141.9330 C   0  0  0  0  0  3  0  0  0  0  0  0
  184.7440  178.6060  142.4900 C   0  0  0  0  0  0  0  0  0  0  0  0
  189.8230  177.5890  143.2130 C   0  0  2  0  0  3  0  0  0  0  0  0
  187.8580  177.5230  147.7350 N   0  0  0  0  0  0  0  0  0  0  0  0
  188.1940  178.2500  149.9160 O   0  0  0  0  0  1  0  0  0  0  0  0
  188.0160  178.5050  148.5630 C   0  0  0  0  0  3  0  0  0  0  0  0
  1  5  1  0  0  0  0
  2 16  1  0  0  0  0
  3 17  1  0  0  0  0
  4 12  1  0  0  0  0
  4  1  2  0  0  0  0
  5 11  2  0  0  0  0
  7 15  1  6  0  0  0
  7 27  1  0  0  0  0
  8  6  1  0  0  0  0
  8 11  1  0  0  0  0
  9 14  1  6  0  0  0
  9 22  1  0  0  0  0
  9  7  1  0  0  0  0
 10  3  1  0  0  0  0
 11 28  1  0  0  0  0
 12  8  2  0  0  0  0
 13  2  1  0  0  0  0
 14 23  1  0  0  0  0
 17 20  2  0  0  0  0
 17 26  1  0  0  0  0
 18 13  2  0  0  0  0
 19  1  1  0  0  0  0
 19  2  2  0  0  0  0
 20  4  1  0  0  0  0
 21 10  2  0  0  0  0
 22 10  1  6  0  0  0
 22 20  1  0  0  0  0
 23 15  1  0  0  0  0
 25 26  2  0  0  0  0
 25 18  1  0  0  0  0
 26 19  1  0  0  0  0
 27 24  1  6  0  0  0
 27 12  1  0  0  0  0
 28 30  2  0  0  0  0
 30 29  1  0  0  0  0
M  END
>  <MODEL>
7

>  <REMARK>
 VINA RESULT:      -8.6      1.759      5.484
  Name = 
  1 active torsions:
  status: ('A' for Active; 'I' for Inactive)
    1  A    between atoms: C_11  and  N_28
                            x       y       z     vdW  Elec       q    Type
                         _______ _______ _______ _____ _____    ______ ____

>  <TORSDO>
F 1

$$$$
=
 OpenBabel11122410273D

 30 35  0  0  1  0  0  0  0  0999 V2000
  188.4290  177.4950  143.4700 C   0  0  0  0  0  0  0  0  0  0  0  0
  186.4510  177.8960  144.9730 C   0  0  0  0  0  0  0  0  0  0  0  0
  186.1870  178.6720  140.1100 N   0  0  0  0  0  2  0  0  0  0  0  0
  188.9770  177.4840  142.1520 C   0  0  0  0  0  0  0  0  0  0  0  0
  189.2580  177.1280  144.5380 C   0  0  0  0  0  3  0  0  0  0  0  0
  192.4320  176.3100  142.8560 O   0  0  0  0  0  1  0  0  0  0  0  0
  190.0560  176.1030  139.6110 C   0  0  1  0  0  3  0  0  0  0  0  0
  191.1120  176.7110  143.0490 C   0  0  0  0  0  0  0  0  0  0  0  0
  188.8820  176.7790  139.0120 N   0  0  2  0  0  0  0  0  0  0  0  0
  187.1980  178.5630  139.1160 C   0  0  0  0  0  0  0  0  0  0  0  0
  190.5900  176.7480  144.3450 C   0  0  0  0  0  0  0  0  0  0  0  0
  190.3170  177.0660  141.9460 C   0  0  0  0  0  0  0  0  0  0  0  0
  185.1160  178.2840  145.1110 C   0  0  0  0  0  3  0  0  0  0  0  0
  189.2610  177.0230  137.6240 C   0  0  0  0  0  2  0  0  0  0  0  0
  190.9130  175.5450  138.4890 C   0  0  0  0  0  2  0  0  0  0  0  0
  187.1390  177.5380  146.1280 O   0  0  0  0  0  1  0  0  0  0  0  0
  186.8400  178.2530  141.2970 C   0  0  0  0  0  0  0  0  0  0  0  0
  184.3620  178.6560  144.0020 C   0  0  0  0  0  3  0  0  0  0  0  0
  187.0650  177.8740  143.6890 C   0  0  0  0  0  0  0  0  0  0  0  0
  188.1500  177.8790  141.0870 C   0  0  0  0  0  0  0  0  0  0  0  0
  186.9990  178.9040  137.9200 O   0  0  0  0  0  0  0  0  0  0  0  0
  188.5150  178.0590  139.6390 C   0  0  1  0  0  3  0  0  0  0  0  0
  190.2010  175.9180  137.2170 C   0  0  0  0  0  2  0  0  0  0  0  0
  191.4490  178.2520  140.0220 C   0  0  0  0  0  1  0  0  0  0  0  0
  184.9380  178.6430  142.7350 C   0  0  0  0  0  3  0  0  0  0  0  0
  186.2720  178.2550  142.5680 C   0  0  0  0  0  0  0  0  0  0  0  0
  190.9240  176.9330  140.5770 C   0  0  2  0  0  3  0  0  0  0  0  0
  191.4250  176.3790  145.4520 N   0  0  0  0  0  0  0  0  0  0  0  0
  192.0510  176.3610  147.6890 O   0  0  0  0  0  1  0  0  0  0  0  0
  191.1970  176.7570  146.6690 C   0  0  0  0  0  3  0  0  0  0  0  0
  1 19  1  0  0  0  0
  1  5  1  0  0  0  0
  2 13  1  0  0  0  0
  2 16  1  0  0  0  0
  3 17  1  0  0  0  0
  4  1  2  0  0  0  0
  6  8  1  0  0  0  0
  7 15  1  6  0  0  0
  7 27  1  0  0  0  0
  8 11  1  0  0  0  0
  9 14  1  6  0  0  0
  9  7  1  0  0  0  0
  9 22  1  0  0  0  0
 10  3  1  0  0  0  0
 11  5  2  0  0  0  0
 11 28  1  0  0  0  0
 12  4  1  0  0  0  0
 12  8  2  0  0  0  0
 17 26  1  0  0  0  0
 18 13  2  0  0  0  0
 19  2  2  0  0  0  0
 20 17  2  0  0  0  0
 20  4  1  0  0  0  0
 21 10  2  0  0  0  0
 22 10  1  6  0  0  0
 22 20  1  0  0  0  0
 23 14  1  0  0  0  0
 23 15  1  0  0  0  0
 25 18  1  0  0  0  0
 26 25  2  0  0  0  0
 26 19  1  0  0  0  0
 27 24  1  6  0  0  0
 27 12  1  0  0  0  0
 28 30  2  0  0  0  0
 30 29  1  0  0  0  0
M  END
>  <MODEL>
8

>  <REMARK>
 VINA RESULT:      -8.2      2.171      5.877
  Name = 
  1 active torsions:
  status: ('A' for Active; 'I' for Inactive)
    1  A    between atoms: C_11  and  N_28
                            x       y       z     vdW  Elec       q    Type
                         _______ _______ _______ _____ _____    ______ ____

>  <TORSDO>
F 1

$$$$
=
 OpenBabel11122410273D

 30 35  0  0  1  0  0  0  0  0999 V2000
  188.4920  177.7220  141.0960 C   0  0  0  0  0  0  0  0  0  0  0  0
  188.6540  177.6290  143.6060 C   0  0  0  0  0  0  0  0  0  0  0  0
  184.4350  178.8110  141.3410 N   0  0  0  0  0  2  0  0  0  0  0  0
  187.6920  177.9320  139.9320 C   0  0  0  0  0  0  0  0  0  0  0  0
  189.8450  177.4030  140.9250 C   0  0  0  0  0  3  0  0  0  0  0  0
  190.1980  177.3110  137.2590 O   0  0  0  0  0  1  0  0  0  0  0  0
  186.1840  177.0080  137.4020 C   0  0  1  0  0  3  0  0  0  0  0  0
  189.6270  177.4580  138.5210 C   0  0  0  0  0  0  0  0  0  0  0  0
  185.0280  177.5260  138.1700 N   0  0  2  0  0  0  0  0  0  0  0  0
  184.1620  178.9740  139.9550 C   0  0  0  0  0  0  0  0  0  0  0  0
  190.4210  177.2790  139.6570 C   0  0  0  0  0  0  0  0  0  0  0  0
  188.2640  177.7740  138.6440 C   0  0  0  0  0  0  0  0  0  0  0  0
  188.0290  177.7650  144.8480 C   0  0  0  0  0  3  0  0  0  0  0  0
  184.0740  177.9650  137.1570 C   0  0  0  0  0  2  0  0  0  0  0  0
  185.7270  176.7170  135.9840 C   0  0  0  0  0  2  0  0  0  0  0  0
  190.0010  177.2860  143.5980 O   0  0  0  0  0  1  0  0  0  0  0  0
  185.7920  178.3990  141.3670 C   0  0  0  0  0  0  0  0  0  0  0  0
  186.6820  178.1060  144.9370 C   0  0  0  0  0  3  0  0  0  0  0  0
  187.9180  177.8370  142.4040 C   0  0  0  0  0  0  0  0  0  0  0  0
  186.3420  178.2790  140.1100 C   0  0  0  0  0  0  0  0  0  0  0  0
  183.0490  179.3880  139.5370 O   0  0  0  0  0  0  0  0  0  0  0  0
  185.3310  178.6570  139.0620 C   0  0  1  0  0  3  0  0  0  0  0  0
  184.2680  177.0820  135.9510 C   0  0  0  0  0  2  0  0  0  0  0  0
  187.2610  179.3170  136.9100 C   0  0  0  0  0  1  0  0  0  0  0  0
  185.9410  178.3140  143.7780 C   0  0  0  0  0  3  0  0  0  0  0  0
  186.5410  178.1810  142.5210 C   0  0  0  0  0  0  0  0  0  0  0  0
  187.4560  177.8800  137.3800 C   0  0  2  0  0  3  0  0  0  0  0  0
  191.8110  176.9560  139.5020 N   0  0  0  0  0  0  0  0  0  0  0  0
  194.0670  177.0960  140.0360 O   0  0  0  0  0  1  0  0  0  0  0  0
  192.7430  177.4560  140.2470 C   0  0  0  0  0  3  0  0  0  0  0  0
  1 19  1  0  0  0  0
  2 13  1  0  0  0  0
  3 17  1  0  0  0  0
  4 20  1  0  0  0  0
  4  1  2  0  0  0  0
  5  1  1  0  0  0  0
  6  8  1  0  0  0  0
  7 15  1  6  0  0  0
  7  9  1  0  0  0  0
  8 12  2  0  0  0  0
  8 11  1  0  0  0  0
  9 14  1  6  0  0  0
  9 22  1  0  0  0  0
 10  3  1  0  0  0  0
 11  5  2  0  0  0  0
 12  4  1  0  0  0  0
 13 18  2  0  0  0  0
 16  2  1  0  0  0  0
 17 26  1  0  0  0  0
 19 26  1  0  0  0  0
 19  2  2  0  0  0  0
 20 17  2  0  0  0  0
 21 10  2  0  0  0  0
 22 10  1  1  0  0  0
 22 20  1  0  0  0  0
 23 15  1  0  0  0  0
 23 14  1  0  0  0  0
 25 18  1  0  0  0  0
 26 25  2  0  0  0  0
 27 24  1  1  0  0  0
 27  7  1  0  0  0  0
 27 12  1  0  0  0  0
 28 11  1  0  0  0  0
 28 30  2  0  0  0  0
 29 30  1  0  0  0  0
M  END
>  <MODEL>
9

>  <REMARK>
 VINA RESULT:      -8.1      2.522      6.222
  Name = 
  1 active torsions:
  status: ('A' for Active; 'I' for Inactive)
    1  A    between atoms: C_11  and  N_28
                            x       y       z     vdW  Elec       q    Type
                         _______ _______ _______ _____ _____    ______ ____

>  <TORSDO>
F 1

$$$$
