=
 OpenBabel11122412153D

 34 41  0  0  1  0  0  0  0  0999 V2000
  183.2250  178.6730  143.7010 C   0  0  0  0  0  0  0  0  0  0  0  0
  184.5040  178.6080  145.9300 C   0  0  0  0  0  3  0  0  0  0  0  0
  182.5510  177.1760  137.4450 N   0  0  2  0  0  0  0  0  0  0  0  0
  182.1240  178.7140  141.5150 C   0  0  0  0  0  0  0  0  0  0  0  0
  183.4570  177.9750  139.5130 C   0  0  1  0  0  3  0  0  0  0  0  0
  184.6720  177.4800  137.2460 C   0  0  0  0  0  2  0  0  0  0  0  0
  183.5780  176.7160  136.5210 C   0  0  0  0  0  2  0  0  0  0  0  0
  180.6990  178.7350  137.9040 C   0  0  0  0  0  2  0  0  0  0  0  0
  185.6280  178.4740  143.8480 C   0  0  0  0  0  0  0  0  0  0  0  0
  187.9100  176.7260  143.4850 C   0  0  0  0  0  2  0  0  0  0  0  0
  184.6860  178.6010  140.1580 C   0  0  0  0  0  2  0  0  0  0  0  0
  180.8880  178.2040  139.3430 C   0  0  0  0  0  2  0  0  0  0  0  0
  185.7580  178.4610  142.4440 C   0  0  0  0  0  0  0  0  0  0  0  0
  186.0100  178.5920  146.1990 C   0  0  0  0  0  3  0  0  0  0  0  0
  182.1920  178.7210  140.0000 C   0  0  1  0  0  3  0  0  0  0  0  0
  181.5130  177.9840  136.8260 C   0  0  0  0  0  2  0  0  0  0  0  0
  187.4260  177.1070  144.8240 N   0  0  0  0  0  0  0  0  0  0  0  0
  183.3120  178.6490  142.2860 C   0  0  0  0  0  0  0  0  0  0  0  0
  183.5200  178.0980  138.0050 C   0  0  1  0  0  3  0  0  0  0  0  0
  184.5840  178.5450  141.6610 C   0  0  0  0  0  0  0  0  0  0  0  0
  180.8180  178.8990  143.5610 C   0  0  0  0  0  3  0  0  0  0  0  0
  188.2870  177.9250  142.6130 C   0  0  0  0  0  2  0  0  0  0  0  0
  180.8910  178.8630  142.1680 C   0  0  0  0  0  3  0  0  0  0  0  0
  187.1050  178.3750  141.7520 C   0  0  0  0  0  2  0  0  0  0  0  0
  186.7300  178.4080  144.8520 C   0  0  1  0  0  3  0  0  0  0  0  0
  181.9790  178.7990  144.3250 C   0  0  0  0  0  3  0  0  0  0  0  0
  184.4000  178.5850  144.4520 C   0  0  0  0  0  0  0  0  0  0  0  0
  188.6020  177.2130  145.6780 C   0  0  0  0  0  2  0  0  0  0  0  0
  189.8230  176.6980  144.9350 C   0  0  0  0  0  2  0  0  0  0  0  0
  191.7920  176.7360  147.9580 N   0  0  0  0  0  2  0  0  0  0  0  0
  192.0380  175.8780  145.7320 C   0  0  0  0  0  2  0  0  0  0  0  0
  191.0900  177.0530  145.6930 C   0  0  2  0  0  3  0  0  0  0  0  0
  192.2660  175.5880  147.2000 C   0  0  0  0  0  2  0  0  0  0  0  0
  190.7520  177.3360  147.1390 C   0  0  0  0  0  2  0  0  0  0  0  0
  1 26  1  0  0  0  0
  1 27  1  0  0  0  0
  2 14  2  0  0  0  0
  3  7  1  6  0  0  0
  3 19  1  0  0  0  0
  4 23  2  0  0  0  0
  4 18  1  0  0  0  0
  5 15  1  0  0  0  0
  5 11  1  1  0  0  0
  7  6  1  0  0  0  0
  8 12  1  0  0  0  0
  9 27  2  0  0  0  0
  9 25  1  0  0  0  0
 10 17  1  0  0  0  0
 11 20  1  0  0  0  0
 13  9  1  0  0  0  0
 15 12  1  6  0  0  0
 15  4  1  0  0  0  0
 16  3  1  0  0  0  0
 16  8  1  0  0  0  0
 17 25  1  0  0  0  0
 17 28  1  0  0  0  0
 18  1  2  0  0  0  0
 19  6  1  6  0  0  0
 19  5  1  0  0  0  0
 20 18  1  0  0  0  0
 20 13  2  0  0  0  0
 21 26  2  0  0  0  0
 22 10  1  0  0  0  0
 23 21  1  0  0  0  0
 24 13  1  0  0  0  0
 24 22  1  0  0  0  0
 25 14  1  1  0  0  0
 27  2  1  0  0  0  0
 29 28  1  0  0  0  0
 31 33  1  0  0  0  0
 32 29  1  6  0  0  0
 32 31  1  0  0  0  0
 32 34  1  0  0  0  0
 33 30  1  0  0  0  0
 34 30  1  0  0  0  0
M  END
>  <MODEL>
1

>  <REMARK>
 VINA RESULT:     -10.9      0.000      0.000
  Name = 
  3 active torsions:
  status: ('A' for Active; 'I' for Inactive)
    1  A    between atoms: N_17  and  C_28
    2  A    between atoms: C_28  and  C_29
    3  A    between atoms: C_29  and  C_32
                            x       y       z     vdW  Elec       q    Type
                         _______ _______ _______ _____ _____    ______ ____

>  <TORSDO>
F 3

$$$$
=
 OpenBabel11122412153D

 34 41  0  0  1  0  0  0  0  0999 V2000
  188.8780  177.5190  143.4590 C   0  0  0  0  0  0  0  0  0  0  0  0
  191.2650  176.8450  142.7870 C   0  0  0  0  0  3  0  0  0  0  0  0
  182.5700  178.2340  142.2200 N   0  0  2  0  0  0  0  0  0  0  0  0
  186.5750  178.1790  143.9690 C   0  0  0  0  0  0  0  0  0  0  0  0
  184.9550  178.3690  142.0550 C   0  0  1  0  0  3  0  0  0  0  0  0
  183.1310  178.8630  140.2400 C   0  0  0  0  0  2  0  0  0  0  0  0
  181.9120  178.2650  140.9210 C   0  0  0  0  0  2  0  0  0  0  0  0
  182.8810  179.2780  144.4310 C   0  0  0  0  0  2  0  0  0  0  0  0
  189.6880  177.5960  141.1850 C   0  0  0  0  0  0  0  0  0  0  0  0
  189.5390  176.3990  138.5500 C   0  0  0  0  0  2  0  0  0  0  0  0
  186.1010  178.8840  141.1950 C   0  0  0  0  0  2  0  0  0  0  0  0
  184.0810  178.3060  144.4860 C   0  0  0  0  0  2  0  0  0  0  0  0
  188.4550  178.0930  140.7140 C   0  0  0  0  0  0  0  0  0  0  0  0
  191.9650  176.9320  141.4290 C   0  0  0  0  0  3  0  0  0  0  0  0
  185.2290  178.7250  143.5350 C   0  0  1  0  0  3  0  0  0  0  0  0
  181.9320  179.0650  143.2280 C   0  0  0  0  0  2  0  0  0  0  0  0
  190.7140  176.2210  139.4220 N   0  0  0  0  0  0  0  0  0  0  0  0
  187.6170  178.0040  143.0240 C   0  0  0  0  0  0  0  0  0  0  0  0
  183.6480  179.0190  141.6520 C   0  0  1  0  0  3  0  0  0  0  0  0
  187.4120  178.2920  141.6480 C   0  0  0  0  0  0  0  0  0  0  0  0
  188.0800  177.4640  145.7450 C   0  0  0  0  0  3  0  0  0  0  0  0
  189.2240  177.8660  138.2510 C   0  0  0  0  0  2  0  0  0  0  0  0
  186.8320  177.9290  145.3260 C   0  0  0  0  0  3  0  0  0  0  0  0
  188.2170  178.4310  139.2550 C   0  0  0  0  0  2  0  0  0  0  0  0
  190.9140  177.3270  140.3780 C   0  0  1  0  0  3  0  0  0  0  0  0
  189.0960  177.2550  144.8150 C   0  0  0  0  0  3  0  0  0  0  0  0
  189.8900  177.3270  142.5170 C   0  0  0  0  0  0  0  0  0  0  0  0
  191.8780  176.1730  138.5470 C   0  0  0  0  0  2  0  0  0  0  0  0
  191.6440  175.1630  137.4370 C   0  0  0  0  0  2  0  0  0  0  0  0
  195.1630  175.7380  136.8810 N   0  0  0  0  0  2  0  0  0  0  0  0
  193.7890  173.9010  137.5840 C   0  0  0  0  0  2  0  0  0  0  0  0
  192.9530  174.8340  136.7390 C   0  0  2  0  0  3  0  0  0  0  0  0
  195.0940  174.6310  137.8230 C   0  0  0  0  0  2  0  0  0  0  0  0
  193.7810  176.0900  136.5980 C   0  0  0  0  0  2  0  0  0  0  0  0
  1 26  2  0  0  0  0
  3  7  1  6  0  0  0
  3 16  1  0  0  0  0
  4 23  1  0  0  0  0
  5 11  1  6  0  0  0
  5 15  1  0  0  0  0
  6  7  1  0  0  0  0
  8 12  1  0  0  0  0
  9 27  2  0  0  0  0
 10 17  1  0  0  0  0
 11 20  1  0  0  0  0
 13  9  1  0  0  0  0
 13 20  2  0  0  0  0
 14  2  2  0  0  0  0
 15  4  1  0  0  0  0
 15 12  1  1  0  0  0
 16  8  1  0  0  0  0
 17 25  1  0  0  0  0
 18  1  1  0  0  0  0
 18  4  2  0  0  0  0
 19  6  1  6  0  0  0
 19  5  1  0  0  0  0
 19  3  1  0  0  0  0
 20 18  1  0  0  0  0
 22 10  1  0  0  0  0
 22 24  1  0  0  0  0
 23 21  2  0  0  0  0
 24 13  1  0  0  0  0
 25  9  1  0  0  0  0
 25 14  1  1  0  0  0
 26 21  1  0  0  0  0
 27  2  1  0  0  0  0
 27  1  1  0  0  0  0
 28 17  1  0  0  0  0
 29 28  1  0  0  0  0
 30 33  1  0  0  0  0
 31 33  1  0  0  0  0
 32 29  1  1  0  0  0
 32 31  1  0  0  0  0
 34 32  1  0  0  0  0
 34 30  1  0  0  0  0
M  END
>  <MODEL>
2

>  <REMARK>
 VINA RESULT:     -10.8      4.370      6.522
  Name = 
  3 active torsions:
  status: ('A' for Active; 'I' for Inactive)
    1  A    between atoms: N_17  and  C_28
    2  A    between atoms: C_28  and  C_29
    3  A    between atoms: C_29  and  C_32
                            x       y       z     vdW  Elec       q    Type
                         _______ _______ _______ _____ _____    ______ ____

>  <TORSDO>
F 3

$$$$
=
 OpenBabel11122412153D

 34 41  0  0  1  0  0  0  0  0999 V2000
  182.6400  178.7620  142.6680 C   0  0  0  0  0  0  0  0  0  0  0  0
  183.4460  178.9370  145.1020 C   0  0  0  0  0  3  0  0  0  0  0  0
  183.3160  176.7910  136.5440 N   0  0  2  0  0  0  0  0  0  0  0  0
  182.0000  178.5770  140.3120 C   0  0  0  0  0  0  0  0  0  0  0  0
  183.7440  177.7910  138.6780 C   0  0  1  0  0  3  0  0  0  0  0  0
  185.4150  177.2210  136.7420 C   0  0  0  0  0  2  0  0  0  0  0  0
  184.5290  176.3370  135.8800 C   0  0  0  0  0  2  0  0  0  0  0  0
  181.3310  178.2530  136.5020 C   0  0  0  0  0  2  0  0  0  0  0  0
  184.9710  178.7330  143.3000 C   0  0  0  0  0  0  0  0  0  0  0  0
  187.3660  177.1190  143.5360 C   0  0  0  0  0  2  0  0  0  0  0  0
  184.7850  178.5400  139.4990 C   0  0  0  0  0  2  0  0  0  0  0  0
  181.2540  177.8370  137.9880 C   0  0  0  0  0  2  0  0  0  0  0  0
  185.3820  178.6310  141.9550 C   0  0  0  0  0  0  0  0  0  0  0  0
  184.8660  179.0390  145.6630 C   0  0  0  0  0  3  0  0  0  0  0  0
  182.3710  178.4830  138.8450 C   0  0  1  0  0  3  0  0  0  0  0  0
  182.3830  177.4840  135.6690 C   0  0  0  0  0  2  0  0  0  0  0  0
  186.6030  177.5600  144.7190 N   0  0  0  0  0  0  0  0  0  0  0  0
  183.0110  178.6450  141.3040 C   0  0  0  0  0  0  0  0  0  0  0  0
  184.1030  177.8120  137.2070 C   0  0  1  0  0  3  0  0  0  0  0  0
  184.3860  178.5830  140.9520 C   0  0  0  0  0  0  0  0  0  0  0  0
  180.3020  178.8170  142.0390 C   0  0  0  0  0  3  0  0  0  0  0  0
  187.8490  178.2770  142.6610 C   0  0  0  0  0  2  0  0  0  0  0  0
  180.6560  178.6900  140.6950 C   0  0  0  0  0  3  0  0  0  0  0  0
  186.8420  178.5870  141.5500 C   0  0  0  0  0  2  0  0  0  0  0  0
  185.8500  178.8100  144.5030 C   0  0  1  0  0  3  0  0  0  0  0  0
  181.2890  178.8480  143.0220 C   0  0  0  0  0  3  0  0  0  0  0  0
  183.6420  178.8040  143.6400 C   0  0  0  0  0  0  0  0  0  0  0  0
  187.5770  177.8020  145.7750 C   0  0  0  0  0  2  0  0  0  0  0  0
  188.6790  176.7590  145.7070 C   0  0  0  0  0  2  0  0  0  0  0  0
  191.6740  176.7530  147.7190 N   0  0  0  0  0  2  0  0  0  0  0  0
  191.1500  176.7100  145.3780 C   0  0  0  0  0  2  0  0  0  0  0  0
  190.0080  177.3690  146.1170 C   0  0  2  0  0  3  0  0  0  0  0  0
  192.0550  176.1460  146.4520 C   0  0  0  0  0  2  0  0  0  0  0  0
  190.2660  177.0850  147.5780 C   0  0  0  0  0  2  0  0  0  0  0  0
  1 26  1  0  0  0  0
  1 27  1  0  0  0  0
  2 14  2  0  0  0  0
  3 16  1  6  0  0  0
  3 19  1  0  0  0  0
  4 23  2  0  0  0  0
  4 18  1  0  0  0  0
  5 15  1  0  0  0  0
  5 11  1  1  0  0  0
  7  3  1  0  0  0  0
  7  6  1  0  0  0  0
  8 12  1  0  0  0  0
  9 27  2  0  0  0  0
  9 25  1  0  0  0  0
 10 17  1  0  0  0  0
 11 20  1  0  0  0  0
 13  9  1  0  0  0  0
 15 12  1  6  0  0  0
 15  4  1  0  0  0  0
 16  8  1  0  0  0  0
 17 28  1  0  0  0  0
 18  1  2  0  0  0  0
 19  6  1  1  0  0  0
 19  5  1  0  0  0  0
 20 18  1  0  0  0  0
 20 13  2  0  0  0  0
 21 26  2  0  0  0  0
 22 10  1  0  0  0  0
 23 21  1  0  0  0  0
 24 13  1  0  0  0  0
 24 22  1  0  0  0  0
 25 17  1  0  0  0  0
 25 14  1  1  0  0  0
 27  2  1  0  0  0  0
 29 28  1  0  0  0  0
 31 32  1  0  0  0  0
 31 33  1  0  0  0  0
 32 29  1  6  0  0  0
 32 34  1  0  0  0  0
 33 30  1  0  0  0  0
 34 30  1  0  0  0  0
M  END
>  <MODEL>
3

>  <REMARK>
 VINA RESULT:     -10.5      0.872      1.126
  Name = 
  3 active torsions:
  status: ('A' for Active; 'I' for Inactive)
    1  A    between atoms: N_17  and  C_28
    2  A    between atoms: C_28  and  C_29
    3  A    between atoms: C_29  and  C_32
                            x       y       z     vdW  Elec       q    Type
                         _______ _______ _______ _____ _____    ______ ____

>  <TORSDO>
F 3

$$$$
=
 OpenBabel11122412153D

 34 41  0  0  1  0  0  0  0  0999 V2000
  188.9160  177.5150  143.4280 C   0  0  0  0  0  0  0  0  0  0  0  0
  191.3040  176.8680  142.7310 C   0  0  0  0  0  3  0  0  0  0  0  0
  182.5960  178.2020  142.2370 N   0  0  2  0  0  0  0  0  0  0  0  0
  186.6130  178.1510  143.9610 C   0  0  0  0  0  0  0  0  0  0  0  0
  184.9790  178.3560  142.0590 C   0  0  1  0  0  3  0  0  0  0  0  0
  183.1410  178.8620  140.2630 C   0  0  0  0  0  2  0  0  0  0  0  0
  181.9300  178.2460  140.9430 C   0  0  0  0  0  2  0  0  0  0  0  0
  182.9140  179.2160  144.4610 C   0  0  0  0  0  2  0  0  0  0  0  0
  189.7120  177.6300  141.1510 C   0  0  0  0  0  0  0  0  0  0  0  0
  189.5550  176.4700  138.5000 C   0  0  0  0  0  2  0  0  0  0  0  0
  186.1160  178.8920  141.2010 C   0  0  0  0  0  2  0  0  0  0  0  0
  184.1210  178.2530  144.4950 C   0  0  0  0  0  2  0  0  0  0  0  0
  188.4730  178.1240  140.6940 C   0  0  0  0  0  0  0  0  0  0  0  0
  191.9960  176.9790  141.3710 C   0  0  0  0  0  3  0  0  0  0  0  0
  185.2600  178.6930  143.5430 C   0  0  1  0  0  3  0  0  0  0  0  0
  181.9590  179.0130  143.2610 C   0  0  0  0  0  2  0  0  0  0  0  0
  190.7370  176.2870  139.3620 N   0  0  0  0  0  0  0  0  0  0  0  0
  187.6500  177.9960  143.0080 C   0  0  0  0  0  0  0  0  0  0  0  0
  183.6650  179.0020  141.6740 C   0  0  1  0  0  3  0  0  0  0  0  0
  187.4340  178.3030  141.6370 C   0  0  0  0  0  0  0  0  0  0  0  0
  188.1330  177.4220  145.7180 C   0  0  0  0  0  3  0  0  0  0  0  0
  189.2280  177.9380  138.2230 C   0  0  0  0  0  2  0  0  0  0  0  0
  186.8800  177.8830  145.3120 C   0  0  0  0  0  3  0  0  0  0  0  0
  188.2230  178.4820  139.2420 C   0  0  0  0  0  2  0  0  0  0  0  0
  190.9350  177.3810  140.3320 C   0  0  1  0  0  3  0  0  0  0  0  0
  189.1450  177.2330  144.7790 C   0  0  0  0  0  3  0  0  0  0  0  0
  189.9250  177.3440  142.4770 C   0  0  0  0  0  0  0  0  0  0  0  0
  191.8960  176.2610  138.4790 C   0  0  0  0  0  2  0  0  0  0  0  0
  192.1190  174.8480  137.9680 C   0  0  0  0  0  2  0  0  0  0  0  0
  190.5650  174.6890  134.7160 N   0  0  0  0  0  2  0  0  0  0  0  0
  191.9730  176.2300  135.8980 C   0  0  0  0  0  2  0  0  0  0  0  0
  192.2040  174.8430  136.4510 C   0  0  2  0  0  3  0  0  0  0  0  0
  190.7800  176.1050  134.9750 C   0  0  0  0  0  2  0  0  0  0  0  0
  191.0850  174.0000  135.8850 C   0  0  0  0  0  2  0  0  0  0  0  0
  1 26  2  0  0  0  0
  3  7  1  6  0  0  0
  3 16  1  0  0  0  0
  4 23  1  0  0  0  0
  5 11  1  6  0  0  0
  5 15  1  0  0  0  0
  6  7  1  0  0  0  0
  8 12  1  0  0  0  0
  9 27  2  0  0  0  0
 10 17  1  0  0  0  0
 11 20  1  0  0  0  0
 13  9  1  0  0  0  0
 13 20  2  0  0  0  0
 14  2  2  0  0  0  0
 15  4  1  0  0  0  0
 15 12  1  1  0  0  0
 16  8  1  0  0  0  0
 17 25  1  0  0  0  0
 18  1  1  0  0  0  0
 18  4  2  0  0  0  0
 19  6  1  6  0  0  0
 19  5  1  0  0  0  0
 19  3  1  0  0  0  0
 20 18  1  0  0  0  0
 22 10  1  0  0  0  0
 22 24  1  0  0  0  0
 23 21  2  0  0  0  0
 24 13  1  0  0  0  0
 25  9  1  0  0  0  0
 25 14  1  1  0  0  0
 26 21  1  0  0  0  0
 27  2  1  0  0  0  0
 27  1  1  0  0  0  0
 28 17  1  0  0  0  0
 29 28  1  0  0  0  0
 30 33  1  0  0  0  0
 30 34  1  0  0  0  0
 31 32  1  0  0  0  0
 32 29  1  1  0  0  0
 33 31  1  0  0  0  0
 34 32  1  0  0  0  0
M  END
>  <MODEL>
4

>  <REMARK>
 VINA RESULT:     -10.3      3.996      6.851
  Name = 
  3 active torsions:
  status: ('A' for Active; 'I' for Inactive)
    1  A    between atoms: N_17  and  C_28
    2  A    between atoms: C_28  and  C_29
    3  A    between atoms: C_29  and  C_32
                            x       y       z     vdW  Elec       q    Type
                         _______ _______ _______ _____ _____    ______ ____

>  <TORSDO>
F 3

$$$$
=
 OpenBabel11122412153D

 34 41  0  0  1  0  0  0  0  0999 V2000
  184.3260  178.5010  144.1950 C   0  0  0  0  0  0  0  0  0  0  0  0
  182.0730  179.0700  143.0960 C   0  0  0  0  0  3  0  0  0  0  0  0
  190.7860  178.1910  144.1750 N   0  0  2  0  0  0  0  0  0  0  0  0
  186.5250  177.9490  145.1190 C   0  0  0  0  0  0  0  0  0  0  0  0
  188.4890  177.9320  143.5490 C   0  0  1  0  0  3  0  0  0  0  0  0
  190.6530  177.6180  142.1060 C   0  0  0  0  0  2  0  0  0  0  0  0
  191.6810  178.2530  143.0280 C   0  0  0  0  0  2  0  0  0  0  0  0
  190.1240  177.0380  146.2510 C   0  0  0  0  0  2  0  0  0  0  0  0
  183.9710  178.4770  141.8070 C   0  0  0  0  0  0  0  0  0  0  0  0
  184.5450  179.7920  139.2890 C   0  0  0  0  0  2  0  0  0  0  0  0
  187.5630  177.3910  142.4690 C   0  0  0  0  0  2  0  0  0  0  0  0
  188.8770  177.9390  146.1040 C   0  0  0  0  0  2  0  0  0  0  0  0
  185.2990  178.0700  141.5670 C   0  0  0  0  0  0  0  0  0  0  0  0
  181.6510  179.0030  141.6270 C   0  0  0  0  0  3  0  0  0  0  0  0
  187.9600  177.4980  144.9360 C   0  0  1  0  0  3  0  0  0  0  0  0
  191.2710  177.3550  145.2610 C   0  0  0  0  0  2  0  0  0  0  0  0
  183.2150  179.8670  139.9230 N   0  0  0  0  0  0  0  0  0  0  0  0
  185.6740  178.1070  143.9970 C   0  0  0  0  0  0  0  0  0  0  0  0
  189.8880  177.3730  143.3860 C   0  0  1  0  0  3  0  0  0  0  0  0
  186.1550  177.8890  142.6780 C   0  0  0  0  0  0  0  0  0  0  0  0
  184.6680  178.5030  146.5930 C   0  0  0  0  0  3  0  0  0  0  0  0
  185.0020  178.3590  139.0100 C   0  0  0  0  0  2  0  0  0  0  0  0
  185.9990  178.1270  146.4080 C   0  0  0  0  0  3  0  0  0  0  0  0
  185.8320  177.8080  140.1720 C   0  0  0  0  0  2  0  0  0  0  0  0
  182.9060  178.7120  140.7870 C   0  0  1  0  0  3  0  0  0  0  0  0
  183.8360  178.6950  145.4920 C   0  0  0  0  0  3  0  0  0  0  0  0
  183.5010  178.6770  143.0820 C   0  0  0  0  0  0  0  0  0  0  0  0
  182.2390  179.8880  138.8410 C   0  0  0  0  0  2  0  0  0  0  0  0
  181.9300  181.3240  138.4550 C   0  0  0  0  0  2  0  0  0  0  0  0
  180.2970  182.4080  135.4260 N   0  0  0  0  0  2  0  0  0  0  0  0
  180.8050  180.3110  136.4740 C   0  0  0  0  0  2  0  0  0  0  0  0
  180.7170  181.3760  137.5430 C   0  0  2  0  0  3  0  0  0  0  0  0
  180.7570  181.0540  135.1560 C   0  0  0  0  0  2  0  0  0  0  0  0
  180.7030  182.6880  136.7930 C   0  0  0  0  0  2  0  0  0  0  0  0
  1 26  2  0  0  0  0
  3  7  1  6  0  0  0
  3 16  1  0  0  0  0
  4 23  1  0  0  0  0
  5 11  1  6  0  0  0
  5 15  1  0  0  0  0
  6  7  1  0  0  0  0
  9 27  2  0  0  0  0
 10 17  1  0  0  0  0
 11 20  1  0  0  0  0
 12  8  1  0  0  0  0
 13  9  1  0  0  0  0
 13 20  2  0  0  0  0
 14  2  2  0  0  0  0
 15  4  1  0  0  0  0
 15 12  1  1  0  0  0
 16  8  1  0  0  0  0
 17 25  1  0  0  0  0
 18  1  1  0  0  0  0
 18  4  2  0  0  0  0
 19  6  1  6  0  0  0
 19  5  1  0  0  0  0
 19  3  1  0  0  0  0
 20 18  1  0  0  0  0
 22 10  1  0  0  0  0
 22 24  1  0  0  0  0
 23 21  2  0  0  0  0
 24 13  1  0  0  0  0
 25 14  1  1  0  0  0
 25  9  1  0  0  0  0
 26 21  1  0  0  0  0
 27  2  1  0  0  0  0
 27  1  1  0  0  0  0
 28 17  1  0  0  0  0
 29 28  1  0  0  0  0
 30 34  1  0  0  0  0
 31 32  1  0  0  0  0
 32 29  1  1  0  0  0
 33 30  1  0  0  0  0
 33 31  1  0  0  0  0
 34 32  1  0  0  0  0
M  END
>  <MODEL>
5

>  <REMARK>
 VINA RESULT:     -10.3      2.110      8.994
  Name = 
  3 active torsions:
  status: ('A' for Active; 'I' for Inactive)
    1  A    between atoms: N_17  and  C_28
    2  A    between atoms: C_28  and  C_29
    3  A    between atoms: C_29  and  C_32
                            x       y       z     vdW  Elec       q    Type
                         _______ _______ _______ _____ _____    ______ ____

>  <TORSDO>
F 3

$$$$
=
 OpenBabel11122412153D

 34 41  0  0  1  0  0  0  0  0999 V2000
  185.4410  178.6250  142.2620 C   0  0  0  0  0  0  0  0  0  0  0  0
  184.9450  179.0170  139.7710 C   0  0  0  0  0  3  0  0  0  0  0  0
  189.5010  177.9570  147.2530 N   0  0  2  0  0  0  0  0  0  0  0  0
  186.0350  178.2070  144.6000 C   0  0  0  0  0  0  0  0  0  0  0  0
  188.4370  177.6740  145.1260 C   0  0  1  0  0  3  0  0  0  0  0  0
  190.8020  176.8770  145.9210 C   0  0  0  0  0  2  0  0  0  0  0  0
  190.9280  177.6700  147.2120 C   0  0  0  0  0  2  0  0  0  0  0  0
  187.2860  177.4170  148.1890 C   0  0  0  0  0  2  0  0  0  0  0  0
  186.9630  178.0050  140.4920 C   0  0  0  0  0  0  0  0  0  0  0  0
  189.4850  178.5920  139.1910 C   0  0  0  0  0  2  0  0  0  0  0  0
  188.5130  176.9260  143.8020 C   0  0  0  0  0  2  0  0  0  0  0  0
  186.8090  178.3180  147.0280 C   0  0  0  0  0  2  0  0  0  0  0  0
  187.8910  177.4760  141.4130 C   0  0  0  0  0  0  0  0  0  0  0  0
  185.7390  178.5970  138.5320 C   0  0  0  0  0  3  0  0  0  0  0  0
  186.9790  177.6430  145.6440 C   0  0  1  0  0  3  0  0  0  0  0  0
  188.8160  177.4030  148.4100 C   0  0  0  0  0  2  0  0  0  0  0  0
  188.1900  178.9030  138.5580 N   0  0  0  0  0  0  0  0  0  0  0  0
  186.3540  178.1180  143.2220 C   0  0  0  0  0  0  0  0  0  0  0  0
  189.3160  177.0140  146.1670 C   0  0  1  0  0  3  0  0  0  0  0  0
  187.5780  177.5400  142.7910 C   0  0  0  0  0  0  0  0  0  0  0  0
  183.8980  179.2260  144.0300 C   0  0  0  0  0  3  0  0  0  0  0  0
  189.6460  177.1120  139.5440 C   0  0  0  0  0  2  0  0  0  0  0  0
  184.7950  178.7400  144.9830 C   0  0  0  0  0  3  0  0  0  0  0  0
  189.1940  176.8340  140.9780 C   0  0  0  0  0  2  0  0  0  0  0  0
  187.0890  178.0290  139.0050 C   0  0  1  0  0  3  0  0  0  0  0  0
  184.2220  179.1740  142.6760 C   0  0  0  0  0  3  0  0  0  0  0  0
  185.7750  178.5540  140.9070 C   0  0  0  0  0  0  0  0  0  0  0  0
  188.3670  178.6990  137.1260 C   0  0  0  0  0  2  0  0  0  0  0  0
  188.5940  177.2240  136.8420 C   0  0  0  0  0  2  0  0  0  0  0  0
  185.7380  175.8870  135.0870 N   0  0  0  0  0  2  0  0  0  0  0  0
  186.9930  177.9320  135.0670 C   0  0  0  0  0  2  0  0  0  0  0  0
  187.8900  176.8200  135.5580 C   0  0  2  0  0  3  0  0  0  0  0  0
  185.6030  177.3340  135.0040 C   0  0  0  0  0  2  0  0  0  0  0  0
  186.9660  175.6570  135.8320 C   0  0  0  0  0  2  0  0  0  0  0  0
  1 26  2  0  0  0  0
  1 18  1  0  0  0  0
  2 27  1  0  0  0  0
  3  7  1  1  0  0  0
  3 16  1  0  0  0  0
  4 23  1  0  0  0  0
  4 15  1  0  0  0  0
  5 11  1  6  0  0  0
  5 15  1  0  0  0  0
  5 19  1  0  0  0  0
  6  7  1  0  0  0  0
  8 16  1  0  0  0  0
  9 27  2  0  0  0  0
  9 13  1  0  0  0  0
 10 22  1  0  0  0  0
 12  8  1  0  0  0  0
 13 20  2  0  0  0  0
 14  2  2  0  0  0  0
 15 12  1  1  0  0  0
 17 25  1  0  0  0  0
 17 10  1  0  0  0  0
 18  4  2  0  0  0  0
 19  6  1  6  0  0  0
 19  3  1  0  0  0  0
 20 18  1  0  0  0  0
 20 11  1  0  0  0  0
 21 23  2  0  0  0  0
 22 24  1  0  0  0  0
 24 13  1  0  0  0  0
 25 14  1  6  0  0  0
 25  9  1  0  0  0  0
 26 21  1  0  0  0  0
 27  1  1  0  0  0  0
 28 17  1  0  0  0  0
 29 28  1  0  0  0  0
 30 34  1  0  0  0  0
 31 32  1  0  0  0  0
 32 34  1  0  0  0  0
 32 29  1  1  0  0  0
 33 31  1  0  0  0  0
 33 30  1  0  0  0  0
M  END
>  <MODEL>
6

>  <REMARK>
 VINA RESULT:      -9.8      2.423      8.394
  Name = 
  3 active torsions:
  status: ('A' for Active; 'I' for Inactive)
    1  A    between atoms: N_17  and  C_28
    2  A    between atoms: C_28  and  C_29
    3  A    between atoms: C_29  and  C_32
                            x       y       z     vdW  Elec       q    Type
                         _______ _______ _______ _____ _____    ______ ____

>  <TORSDO>
F 3

$$$$
=
 OpenBabel11122412153D

 34 41  0  0  1  0  0  0  0  0999 V2000
  189.6390  176.9180  137.3510 C   0  0  0  0  0  0  0  0  0  0  0  0
  187.6470  177.9050  138.6410 C   0  0  0  0  0  3  0  0  0  0  0  0
  195.1200  173.4980  137.0290 N   0  0  2  0  0  0  0  0  0  0  0  0
  191.6050  175.9750  136.2380 C   0  0  0  0  0  0  0  0  0  0  0  0
  193.4730  175.1080  137.6840 C   0  0  1  0  0  3  0  0  0  0  0  0
  195.6460  174.3500  138.9340 C   0  0  0  0  0  2  0  0  0  0  0  0
  195.9980  173.1130  138.1240 C   0  0  0  0  0  2  0  0  0  0  0  0
  194.8870  174.4940  134.7870 C   0  0  0  0  0  2  0  0  0  0  0  0
  189.7320  177.5000  139.6930 C   0  0  0  0  0  0  0  0  0  0  0  0
  189.8730  176.4910  142.4060 C   0  0  0  0  0  2  0  0  0  0  0  0
  193.1760  176.2360  138.6630 C   0  0  0  0  0  2  0  0  0  0  0  0
  193.3910  174.4970  135.1740 C   0  0  0  0  0  2  0  0  0  0  0  0
  191.0840  177.1100  139.7840 C   0  0  0  0  0  0  0  0  0  0  0  0
  187.5660  178.4210  140.0790 C   0  0  0  0  0  3  0  0  0  0  0  0
  193.0610  175.5510  136.2600 C   0  0  1  0  0  3  0  0  0  0  0  0
  195.8080  173.7350  135.7710 C   0  0  0  0  0  2  0  0  0  0  0  0
  188.6410  177.0900  141.8600 N   0  0  0  0  0  0  0  0  0  0  0  0
  190.9940  176.5000  137.4030 C   0  0  0  0  0  0  0  0  0  0  0  0
  194.9530  174.7900  137.6640 C   0  0  1  0  0  3  0  0  0  0  0  0
  191.7140  176.6020  138.6240 C   0  0  0  0  0  0  0  0  0  0  0  0
  189.5470  176.3600  134.9960 C   0  0  0  0  0  3  0  0  0  0  0  0
  191.0780  177.4310  142.3540 C   0  0  0  0  0  2  0  0  0  0  0  0
  190.8760  175.9360  135.0400 C   0  0  0  0  0  3  0  0  0  0  0  0
  191.8810  177.2290  141.0680 C   0  0  0  0  0  2  0  0  0  0  0  0
  188.8870  178.0700  140.7840 C   0  0  1  0  0  3  0  0  0  0  0  0
  188.9300  176.8440  136.1470 C   0  0  0  0  0  3  0  0  0  0  0  0
  189.0380  177.4130  138.5110 C   0  0  0  0  0  0  0  0  0  0  0  0
  187.9950  177.7920  142.9620 C   0  0  0  0  0  2  0  0  0  0  0  0
  188.0610  176.9430  144.2190 C   0  0  0  0  0  2  0  0  0  0  0  0
  187.4730  177.8170  147.6700 N   0  0  0  0  0  2  0  0  0  0  0  0
  189.3620  177.1910  146.3310 C   0  0  0  0  0  2  0  0  0  0  0  0
  188.3200  177.8170  145.4330 C   0  0  2  0  0  3  0  0  0  0  0  0
  188.6860  177.0140  147.6740 C   0  0  0  0  0  2  0  0  0  0  0  0
  187.0690  177.8980  146.2760 C   0  0  0  0  0  2  0  0  0  0  0  0
  1 18  2  0  0  0  0
  1 27  1  0  0  0  0
  2 14  2  0  0  0  0
  3 16  1  6  0  0  0
  3 19  1  0  0  0  0
  3  7  1  0  0  0  0
  4 15  1  0  0  0  0
  4 18  1  0  0  0  0
  5 11  1  1  0  0  0
  7  6  1  0  0  0  0
  8 12  1  0  0  0  0
  8 16  1  0  0  0  0
  9 13  1  0  0  0  0
  9 25  1  0  0  0  0
 13 24  1  0  0  0  0
 15 12  1  6  0  0  0
 15  5  1  0  0  0  0
 17 10  1  0  0  0  0
 17 28  1  0  0  0  0
 18 20  1  0  0  0  0
 19  5  1  0  0  0  0
 19  6  1  1  0  0  0
 20 11  1  0  0  0  0
 20 13  2  0  0  0  0
 21 23  1  0  0  0  0
 21 26  2  0  0  0  0
 22 10  1  0  0  0  0
 23  4  2  0  0  0  0
 24 22  1  0  0  0  0
 25 14  1  6  0  0  0
 25 17  1  0  0  0  0
 26  1  1  0  0  0  0
 27  2  1  0  0  0  0
 27  9  2  0  0  0  0
 28 29  1  0  0  0  0
 30 33  1  0  0  0  0
 31 33  1  0  0  0  0
 32 29  1  6  0  0  0
 32 34  1  0  0  0  0
 32 31  1  0  0  0  0
 34 30  1  0  0  0  0
M  END
>  <MODEL>
7

>  <REMARK>
 VINA RESULT:      -9.7      5.934      9.022
  Name = 
  3 active torsions:
  status: ('A' for Active; 'I' for Inactive)
    1  A    between atoms: N_17  and  C_28
    2  A    between atoms: C_28  and  C_29
    3  A    between atoms: C_29  and  C_32
                            x       y       z     vdW  Elec       q    Type
                         _______ _______ _______ _____ _____    ______ ____

>  <TORSDO>
F 3

$$$$
=
 OpenBabel11122412153D

 34 41  0  0  1  0  0  0  0  0999 V2000
  186.2840  178.3480  142.7830 C   0  0  0  0  0  0  0  0  0  0  0  0
  188.7300  177.9760  142.0880 C   0  0  0  0  0  3  0  0  0  0  0  0
  179.9150  178.0080  141.7090 N   0  0  2  0  0  0  0  0  0  0  0  0
  183.9210  178.7040  143.3150 C   0  0  0  0  0  0  0  0  0  0  0  0
  182.2490  178.4780  141.4490 C   0  0  1  0  0  3  0  0  0  0  0  0
  180.3320  178.5300  139.6640 C   0  0  0  0  0  2  0  0  0  0  0  0
  179.2320  177.8230  140.4370 C   0  0  0  0  0  2  0  0  0  0  0  0
  180.1150  179.2830  143.8090 C   0  0  0  0  0  2  0  0  0  0  0  0
  187.0240  178.3380  140.4840 C   0  0  0  0  0  0  0  0  0  0  0  0
  186.9990  176.8980  137.9690 C   0  0  0  0  0  2  0  0  0  0  0  0
  183.2860  179.0770  140.5090 C   0  0  0  0  0  2  0  0  0  0  0  0
  181.4480  178.5080  143.9060 C   0  0  0  0  0  2  0  0  0  0  0  0
  185.7210  178.6020  140.0150 C   0  0  0  0  0  0  0  0  0  0  0  0
  189.3800  178.0420  140.7040 C   0  0  0  0  0  3  0  0  0  0  0  0
  182.4990  179.0040  142.8820 C   0  0  1  0  0  3  0  0  0  0  0  0
  179.1820  178.8230  142.6640 C   0  0  0  0  0  2  0  0  0  0  0  0
  188.2070  176.9750  138.8110 N   0  0  0  0  0  0  0  0  0  0  0  0
  184.9560  178.6000  142.3520 C   0  0  0  0  0  0  0  0  0  0  0  0
  180.8500  178.8890  141.0380 C   0  0  1  0  0  3  0  0  0  0  0  0
  184.6800  178.7290  140.9640 C   0  0  0  0  0  0  0  0  0  0  0  0
  185.5540  178.3840  145.0920 C   0  0  0  0  0  3  0  0  0  0  0  0
  186.4610  178.2690  137.5550 C   0  0  0  0  0  2  0  0  0  0  0  0
  184.2420  178.6190  144.6780 C   0  0  0  0  0  3  0  0  0  0  0  0
  185.4030  178.7680  138.5420 C   0  0  0  0  0  2  0  0  0  0  0  0
  188.2590  178.1810  139.6600 C   0  0  1  0  0  3  0  0  0  0  0  0
  186.5700  178.2440  144.1480 C   0  0  0  0  0  3  0  0  0  0  0  0
  187.2940  178.2230  141.8250 C   0  0  0  0  0  0  0  0  0  0  0  0
  189.3450  177.0210  137.9030 C   0  0  0  0  0  2  0  0  0  0  0  0
  189.7530  175.6090  137.5200 C   0  0  0  0  0  2  0  0  0  0  0  0
  193.2930  174.9810  137.2130 N   0  0  0  0  0  2  0  0  0  0  0  0
  191.8960  176.5210  138.4090 C   0  0  0  0  0  2  0  0  0  0  0  0
  191.1020  175.2670  138.1290 C   0  0  2  0  0  3  0  0  0  0  0  0
  193.1790  176.3740  137.6190 C   0  0  0  0  0  2  0  0  0  0  0  0
  191.9270  174.4910  137.1290 C   0  0  0  0  0  2  0  0  0  0  0  0
  1 26  2  0  0  0  0
  3  7  1  6  0  0  0
  3 16  1  0  0  0  0
  4 23  1  0  0  0  0
  5 11  1  6  0  0  0
  5 15  1  0  0  0  0
  6  7  1  0  0  0  0
  8 12  1  0  0  0  0
  9 27  2  0  0  0  0
 10 17  1  0  0  0  0
 11 20  1  0  0  0  0
 13  9  1  0  0  0  0
 13 20  2  0  0  0  0
 14  2  2  0  0  0  0
 15  4  1  0  0  0  0
 15 12  1  1  0  0  0
 16  8  1  0  0  0  0
 17 25  1  0  0  0  0
 18  1  1  0  0  0  0
 18  4  2  0  0  0  0
 19  6  1  6  0  0  0
 19  5  1  0  0  0  0
 19  3  1  0  0  0  0
 20 18  1  0  0  0  0
 22 10  1  0  0  0  0
 22 24  1  0  0  0  0
 23 21  2  0  0  0  0
 24 13  1  0  0  0  0
 25  9  1  0  0  0  0
 25 14  1  1  0  0  0
 26 21  1  0  0  0  0
 27  2  1  0  0  0  0
 27  1  1  0  0  0  0
 28 17  1  0  0  0  0
 29 28  1  0  0  0  0
 30 33  1  0  0  0  0
 32 29  1  6  0  0  0
 32 31  1  0  0  0  0
 33 31  1  0  0  0  0
 34 30  1  0  0  0  0
 34 32  1  0  0  0  0
M  END
>  <MODEL>
8

>  <REMARK>
 VINA RESULT:      -9.5      3.541      5.703
  Name = 
  3 active torsions:
  status: ('A' for Active; 'I' for Inactive)
    1  A    between atoms: N_17  and  C_28
    2  A    between atoms: C_28  and  C_29
    3  A    between atoms: C_29  and  C_32
                            x       y       z     vdW  Elec       q    Type
                         _______ _______ _______ _____ _____    ______ ____

>  <TORSDO>
F 3

$$$$
=
 OpenBabel11122412153D

 34 41  0  0  1  0  0  0  0  0999 V2000
  184.4970  178.4470  144.4180 C   0  0  0  0  0  0  0  0  0  0  0  0
  182.2090  179.0190  143.3950 C   0  0  0  0  0  3  0  0  0  0  0  0
  190.9530  178.1400  144.1860 N   0  0  2  0  0  0  0  0  0  0  0  0
  186.7250  177.8920  145.2680 C   0  0  0  0  0  0  0  0  0  0  0  0
  188.6370  177.8820  143.6340 C   0  0  1  0  0  3  0  0  0  0  0  0
  190.7530  177.5740  142.1200 C   0  0  0  0  0  2  0  0  0  0  0  0
  191.8100  178.2060  143.0100 C   0  0  0  0  0  2  0  0  0  0  0  0
  190.3600  176.9780  146.2770 C   0  0  0  0  0  2  0  0  0  0  0  0
  184.0640  178.4310  142.0420 C   0  0  0  0  0  0  0  0  0  0  0  0
  184.5550  179.7560  139.5120 C   0  0  0  0  0  2  0  0  0  0  0  0
  187.6760  177.3440  142.5820 C   0  0  0  0  0  2  0  0  0  0  0  0
  189.1080  177.8780  146.1750 C   0  0  0  0  0  2  0  0  0  0  0  0
  185.3840  178.0260  141.7580 C   0  0  0  0  0  0  0  0  0  0  0  0
  181.7400  178.9570  141.9410 C   0  0  0  0  0  3  0  0  0  0  0  0
  188.1540  177.4420  145.0360 C   0  0  1  0  0  3  0  0  0  0  0  0
  191.4730  177.2990  145.2530 C   0  0  0  0  0  2  0  0  0  0  0  0
  183.2470  179.8290  140.1890 N   0  0  0  0  0  0  0  0  0  0  0  0
  185.8380  178.0540  144.1740 C   0  0  0  0  0  0  0  0  0  0  0  0
  190.0300  177.3240  143.4230 C   0  0  1  0  0  3  0  0  0  0  0  0
  186.2760  177.8410  142.8390 C   0  0  0  0  0  0  0  0  0  0  0  0
  184.9170  178.4390  146.8040 C   0  0  0  0  0  3  0  0  0  0  0  0
  185.0030  178.3250  139.2130 C   0  0  0  0  0  2  0  0  0  0  0  0
  186.2410  178.0640  146.5730 C   0  0  0  0  0  3  0  0  0  0  0  0
  185.8710  177.7700  140.3450 C   0  0  0  0  0  2  0  0  0  0  0  0
  182.9670  178.6700  141.0580 C   0  0  1  0  0  3  0  0  0  0  0  0
  184.0500  178.6350  145.7300 C   0  0  0  0  0  3  0  0  0  0  0  0
  183.6360  178.6270  143.3330 C   0  0  0  0  0  0  0  0  0  0  0  0
  182.2360  179.8530  139.1400 C   0  0  0  0  0  2  0  0  0  0  0  0
  182.2710  178.5480  138.3630 C   0  0  0  0  0  2  0  0  0  0  0  0
  179.3010  176.7480  139.3410 N   0  0  0  0  0  2  0  0  0  0  0  0
  179.8420  178.9950  138.6990 C   0  0  0  0  0  2  0  0  0  0  0  0
  180.8600  178.0610  138.0880 C   0  0  2  0  0  3  0  0  0  0  0  0
  179.0300  178.1430  139.6510 C   0  0  0  0  0  2  0  0  0  0  0  0
  180.6400  176.7330  138.7740 C   0  0  0  0  0  2  0  0  0  0  0  0
  1 26  2  0  0  0  0
  3  7  1  6  0  0  0
  3 16  1  0  0  0  0
  4 23  1  0  0  0  0
  5 11  1  6  0  0  0
  5 15  1  0  0  0  0
  6  7  1  0  0  0  0
  9 27  2  0  0  0  0
 10 17  1  0  0  0  0
 11 20  1  0  0  0  0
 12  8  1  0  0  0  0
 13  9  1  0  0  0  0
 13 20  2  0  0  0  0
 14  2  2  0  0  0  0
 15  4  1  0  0  0  0
 15 12  1  1  0  0  0
 16  8  1  0  0  0  0
 17 25  1  0  0  0  0
 18  1  1  0  0  0  0
 18  4  2  0  0  0  0
 19  6  1  6  0  0  0
 19  5  1  0  0  0  0
 19  3  1  0  0  0  0
 20 18  1  0  0  0  0
 22 10  1  0  0  0  0
 22 24  1  0  0  0  0
 23 21  2  0  0  0  0
 24 13  1  0  0  0  0
 25 14  1  1  0  0  0
 25  9  1  0  0  0  0
 26 21  1  0  0  0  0
 27  2  1  0  0  0  0
 27  1  1  0  0  0  0
 28 17  1  0  0  0  0
 29 28  1  0  0  0  0
 30 33  1  0  0  0  0
 31 33  1  0  0  0  0
 32 29  1  1  0  0  0
 32 31  1  0  0  0  0
 32 34  1  0  0  0  0
 34 30  1  0  0  0  0
M  END
>  <MODEL>
9

>  <REMARK>
 VINA RESULT:      -9.5      1.670      8.529
  Name = 
  3 active torsions:
  status: ('A' for Active; 'I' for Inactive)
    1  A    between atoms: N_17  and  C_28
    2  A    between atoms: C_28  and  C_29
    3  A    between atoms: C_29  and  C_32
                            x       y       z     vdW  Elec       q    Type
                         _______ _______ _______ _____ _____    ______ ____

>  <TORSDO>
F 3

$$$$
