=
 OpenBabel11122410343D

 30 35  0  0  1  0  0  0  0  0999 V2000
  187.0900  177.6590  142.9970 C   0  0  0  0  0  0  0  0  0  0  0  0
  184.6790  178.2630  142.9730 C   0  0  0  0  0  0  0  0  0  0  0  0
  187.3080  178.2450  147.1410 N   0  0  0  0  0  2  0  0  0  0  0  0
  188.2780  177.4040  143.7260 C   0  0  0  0  0  0  0  0  0  0  0  0
  187.1240  177.5290  141.5720 N   0  0  0  0  0  2  0  0  0  0  0  0
  190.4470  176.4380  140.9530 O   0  0  0  0  0  0  0  0  0  0  0  0
  191.0640  176.3400  144.9020 C   0  0  1  0  0  3  0  0  0  0  0  0
  189.4650  176.9110  141.5880 C   0  0  0  0  0  0  0  0  0  0  0  0
  190.1670  176.3610  146.1070 C   0  0  1  0  0  3  0  0  0  0  0  0
  188.7030  177.9560  147.4490 C   0  0  2  0  0  3  0  0  0  0  0  0
  188.3750  177.5920  140.8260 C   0  0  2  0  0  3  0  0  0  0  0  0
  189.4180  176.8360  143.0300 N   0  0  0  0  0  0  0  0  0  0  0  0
  183.5320  178.6480  143.6750 C   0  0  0  0  0  3  0  0  0  0  0  0
  191.1250  176.2500  147.2770 C   0  0  0  0  0  2  0  0  0  0  0  0
  192.2170  175.4210  145.2590 C   0  0  0  0  0  2  0  0  0  0  0  0
  184.5810  178.1070  141.6300 F   0  0  0  0  0  0  0  0  0  0  0  0
  187.1160  178.0350  145.7570 C   0  0  0  0  0  0  0  0  0  0  0  0
  183.5710  178.8230  145.0580 C   0  0  0  0  0  3  0  0  0  0  0  0
  185.8950  178.0430  143.6630 C   0  0  0  0  0  0  0  0  0  0  0  0
  188.2640  177.6470  145.1180 C   0  0  0  0  0  0  0  0  0  0  0  0
  189.3380  179.1610  148.1140 C   0  0  0  0  0  1  0  0  0  0  0  0
  189.3980  177.6760  146.0990 C   0  0  2  0  0  3  0  0  0  0  0  0
  192.3040  175.4340  146.7760 C   0  0  0  0  0  2  0  0  0  0  0  0
  190.4300  174.7390  143.2420 O   0  0  0  0  0  0  0  0  0  0  0  0
  184.7600  178.6150  145.7550 C   0  0  0  0  0  3  0  0  0  0  0  0
  185.9180  178.2260  145.0720 C   0  0  0  0  0  0  0  0  0  0  0  0
  190.3060  175.9140  143.6880 C   0  0  0  0  0  0  0  0  0  0  0  0
  188.7600  179.0450  140.5760 C   0  0  0  0  0  2  0  0  0  0  0  0
  188.3630  178.1940  138.4350 C   0  0  0  0  0  1  0  0  0  0  0  0
  189.0290  179.2600  139.1630 N   0  0  0  0  0  2  0  0  0  0  0  0
  1 19  2  0  0  0  0
  1  4  1  0  0  0  0
  2 19  1  0  0  0  0
  2 13  2  0  0  0  0
  3 10  1  0  0  0  0
  4 20  2  0  0  0  0
  5  1  1  0  0  0  0
  6  8  2  0  0  0  0
  7 15  1  1  0  0  0
  7  9  1  0  0  0  0
  8 12  1  0  0  0  0
  9 14  1  1  0  0  0
 10 21  1  6  0  0  0
 11 28  1  1  0  0  0
 11  5  1  0  0  0  0
 11  8  1  0  0  0  0
 12 27  1  0  0  0  0
 12  4  1  0  0  0  0
 13 18  1  0  0  0  0
 15 23  1  0  0  0  0
 16  2  1  0  0  0  0
 17  3  1  0  0  0  0
 18 25  2  0  0  0  0
 19 26  1  0  0  0  0
 20 17  1  0  0  0  0
 22 20  1  6  0  0  0
 22  9  1  0  0  0  0
 22 10  1  0  0  0  0
 23 14  1  0  0  0  0
 24 27  2  0  0  0  0
 26 25  1  0  0  0  0
 26 17  2  0  0  0  0
 27  7  1  0  0  0  0
 29 30  1  0  0  0  0
 30 28  1  0  0  0  0
M  END
>  <MODEL>
1

>  <REMARK>
 VINA RESULT:      -9.1      0.000      0.000
  Name = 
  2 active torsions:
  status: ('A' for Active; 'I' for Inactive)
    1  A    between atoms: C_11  and  C_28
    2  A    between atoms: C_28  and  N_30
                            x       y       z     vdW  Elec       q    Type
                         _______ _______ _______ _____ _____    ______ ____

>  <TORSDO>
F 2

$$$$
=
 OpenBabel11122410343D

 30 35  0  0  1  0  0  0  0  0999 V2000
  186.0520  178.4070  140.0110 C   0  0  0  0  0  0  0  0  0  0  0  0
  187.0280  178.7280  137.7470 C   0  0  0  0  0  0  0  0  0  0  0  0
  189.7530  177.1870  141.5540 N   0  0  0  0  0  2  0  0  0  0  0  0
  186.2260  178.1060  141.3840 C   0  0  0  0  0  0  0  0  0  0  0  0
  184.7360  178.7210  139.5440 N   0  0  0  0  0  2  0  0  0  0  0  0
  182.7920  178.6120  142.5130 O   0  0  0  0  0  0  0  0  0  0  0  0
  186.1380  177.9050  144.5830 C   0  0  1  0  0  3  0  0  0  0  0  0
  183.7810  178.4390  141.7510 C   0  0  0  0  0  0  0  0  0  0  0  0
  187.6050  178.0360  144.2850 C   0  0  1  0  0  3  0  0  0  0  0  0
  189.4570  176.9030  142.9520 C   0  0  2  0  0  3  0  0  0  0  0  0
  183.5440  178.3180  140.2800 C   0  0  2  0  0  3  0  0  0  0  0  0
  185.1140  178.3170  142.2940 N   0  0  0  0  0  0  0  0  0  0  0  0
  188.1450  178.6880  136.9070 C   0  0  0  0  0  3  0  0  0  0  0  0
  188.2780  177.6210  145.5790 C   0  0  0  0  0  2  0  0  0  0  0  0
  185.9760  178.2810  146.0430 C   0  0  0  0  0  2  0  0  0  0  0  0
  185.8410  179.1030  137.2110 F   0  0  0  0  0  0  0  0  0  0  0  0
  188.5650  177.6510  140.9440 C   0  0  0  0  0  0  0  0  0  0  0  0
  189.3930  178.3110  137.4010 C   0  0  0  0  0  3  0  0  0  0  0  0
  187.1560  178.3900  139.1160 C   0  0  0  0  0  0  0  0  0  0  0  0
  187.5060  177.6850  141.8110 C   0  0  0  0  0  0  0  0  0  0  0  0
  189.8250  175.4670  143.2690 C   0  0  0  0  0  1  0  0  0  0  0  0
  187.9360  177.1050  143.1260 C   0  0  2  0  0  3  0  0  0  0  0  0
  187.3250  178.0180  146.6930 C   0  0  0  0  0  2  0  0  0  0  0  0
  184.8560  179.8500  144.0390 O   0  0  0  0  0  0  0  0  0  0  0  0
  189.5380  177.9710  138.7440 C   0  0  0  0  0  3  0  0  0  0  0  0
  188.4340  178.0090  139.6040 C   0  0  0  0  0  0  0  0  0  0  0  0
  185.3340  178.7480  143.6490 C   0  0  0  0  0  0  0  0  0  0  0  0
  183.1840  176.8770  139.9400 C   0  0  0  0  0  2  0  0  0  0  0  0
  183.1280  175.2210  138.2900 C   0  0  0  0  0  1  0  0  0  0  0  0
  183.3510  176.6390  138.5150 N   0  0  0  0  0  2  0  0  0  0  0  0
  1  4  1  0  0  0  0
  2 19  1  0  0  0  0
  3 10  1  0  0  0  0
  4 20  2  0  0  0  0
  4 12  1  0  0  0  0
  5  1  1  0  0  0  0
  5 11  1  0  0  0  0
  7 15  1  1  0  0  0
  8 12  1  0  0  0  0
  8  6  2  0  0  0  0
  9  7  1  0  0  0  0
  9 14  1  1  0  0  0
 10 22  1  0  0  0  0
 10 21  1  6  0  0  0
 11 28  1  1  0  0  0
 11  8  1  0  0  0  0
 12 27  1  0  0  0  0
 13 18  1  0  0  0  0
 13  2  2  0  0  0  0
 14 23  1  0  0  0  0
 15 23  1  0  0  0  0
 16  2  1  0  0  0  0
 17  3  1  0  0  0  0
 17 20  1  0  0  0  0
 18 25  2  0  0  0  0
 19 26  1  0  0  0  0
 19  1  2  0  0  0  0
 22 20  1  6  0  0  0
 22  9  1  0  0  0  0
 25 26  1  0  0  0  0
 26 17  2  0  0  0  0
 27 24  2  0  0  0  0
 27  7  1  0  0  0  0
 29 30  1  0  0  0  0
 30 28  1  0  0  0  0
M  END
>  <MODEL>
2

>  <REMARK>
 VINA RESULT:      -8.3      3.016      5.785
  Name = 
  2 active torsions:
  status: ('A' for Active; 'I' for Inactive)
    1  A    between atoms: C_11  and  C_28
    2  A    between atoms: C_28  and  N_30
                            x       y       z     vdW  Elec       q    Type
                         _______ _______ _______ _____ _____    ______ ____

>  <TORSDO>
F 2

$$$$
=
 OpenBabel11122410343D

 30 35  0  0  1  0  0  0  0  0999 V2000
  188.2230  177.8790  140.5590 C   0  0  0  0  0  0  0  0  0  0  0  0
  185.9990  178.9840  140.6700 C   0  0  0  0  0  0  0  0  0  0  0  0
  187.5430  176.6640  136.6060 N   0  0  0  0  0  2  0  0  0  0  0  0
  189.2090  177.1940  139.8080 C   0  0  0  0  0  0  0  0  0  0  0  0
  188.4950  178.1730  141.9320 N   0  0  0  0  0  2  0  0  0  0  0  0
  191.7980  176.9450  142.3690 O   0  0  0  0  0  0  0  0  0  0  0  0
  191.8800  176.0150  138.4820 C   0  0  1  0  0  3  0  0  0  0  0  0
  190.6750  177.1260  141.8250 C   0  0  0  0  0  0  0  0  0  0  0  0
  191.0420  176.3930  137.2940 C   0  0  1  0  0  3  0  0  0  0  0  0
  188.7570  175.9340  136.2650 C   0  0  2  0  0  3  0  0  0  0  0  0
  189.4960  177.4350  142.6910 C   0  0  2  0  0  3  0  0  0  0  0  0
  190.5210  176.9910  140.3960 N   0  0  0  0  0  0  0  0  0  0  0  0
  184.7970  179.3270  140.0420 C   0  0  0  0  0  3  0  0  0  0  0  0
  191.7110  175.6790  136.1340 C   0  0  0  0  0  2  0  0  0  0  0  0
  193.3030  175.9060  137.9690 C   0  0  0  0  0  2  0  0  0  0  0  0
  186.1760  179.3700  141.9570 F   0  0  0  0  0  0  0  0  0  0  0  0
  187.6880  177.1580  137.9220 C   0  0  0  0  0  0  0  0  0  0  0  0
  184.5580  178.9580  138.7180 C   0  0  0  0  0  3  0  0  0  0  0  0
  186.9890  178.2600  139.9640 C   0  0  0  0  0  0  0  0  0  0  0  0
  188.8840  176.8060  138.4880 C   0  0  0  0  0  0  0  0  0  0  0  0
  188.4020  174.5210  135.8490 C   0  0  0  0  0  1  0  0  0  0  0  0
  189.6220  175.9040  137.5430 C   0  0  2  0  0  3  0  0  0  0  0  0
  193.1880  175.6080  136.4830 C   0  0  0  0  0  2  0  0  0  0  0  0
  192.6000  177.8780  139.7980 O   0  0  0  0  0  0  0  0  0  0  0  0
  185.5180  178.2410  138.0080 C   0  0  0  0  0  3  0  0  0  0  0  0
  186.7290  177.8920  138.6170 C   0  0  0  0  0  0  0  0  0  0  0  0
  191.7090  177.0090  139.5830 C   0  0  0  0  0  0  0  0  0  0  0  0
  188.8980  176.1370  143.2180 C   0  0  0  0  0  2  0  0  0  0  0  0
  188.0750  177.1280  145.1700 C   0  0  0  0  0  1  0  0  0  0  0  0
  187.6830  176.4100  143.9690 N   0  0  0  0  0  2  0  0  0  0  0  0
  1  5  1  0  0  0  0
  2 16  1  0  0  0  0
  3 17  1  0  0  0  0
  4 12  1  0  0  0  0
  4  1  2  0  0  0  0
  5 11  1  0  0  0  0
  7 15  1  6  0  0  0
  7 27  1  0  0  0  0
  8  6  2  0  0  0  0
  8 11  1  0  0  0  0
  9 14  1  6  0  0  0
  9 22  1  0  0  0  0
  9  7  1  0  0  0  0
 10 21  1  1  0  0  0
 10  3  1  0  0  0  0
 10 22  1  0  0  0  0
 11 28  1  6  0  0  0
 12  8  1  0  0  0  0
 13  2  1  0  0  0  0
 14 23  1  0  0  0  0
 17 20  2  0  0  0  0
 17 26  1  0  0  0  0
 18 13  2  0  0  0  0
 19  1  1  0  0  0  0
 19  2  2  0  0  0  0
 20  4  1  0  0  0  0
 22 20  1  1  0  0  0
 23 15  1  0  0  0  0
 25 26  2  0  0  0  0
 25 18  1  0  0  0  0
 26 19  1  0  0  0  0
 27 24  2  0  0  0  0
 27 12  1  0  0  0  0
 28 30  1  0  0  0  0
 30 29  1  0  0  0  0
M  END
>  <MODEL>
3

>  <REMARK>
 VINA RESULT:      -7.5      2.973      6.779
  Name = 
  2 active torsions:
  status: ('A' for Active; 'I' for Inactive)
    1  A    between atoms: C_11  and  C_28
    2  A    between atoms: C_28  and  N_30
                            x       y       z     vdW  Elec       q    Type
                         _______ _______ _______ _____ _____    ______ ____

>  <TORSDO>
F 2

$$$$
=
 OpenBabel11122410343D

 30 35  0  0  1  0  0  0  0  0999 V2000
  185.3430  178.1370  139.1290 C   0  0  0  0  0  0  0  0  0  0  0  0
  186.9260  178.4210  137.2330 C   0  0  0  0  0  0  0  0  0  0  0  0
  188.4840  178.2190  141.9040 N   0  0  0  0  0  2  0  0  0  0  0  0
  185.1090  178.0800  140.5250 C   0  0  0  0  0  0  0  0  0  0  0  0
  184.2260  178.0060  138.2450 N   0  0  0  0  0  2  0  0  0  0  0  0
  181.4740  177.7450  140.4730 O   0  0  0  0  0  0  0  0  0  0  0  0
  183.9980  178.2830  143.5260 C   0  0  1  0  0  3  0  0  0  0  0  0
  182.6740  177.7590  140.0860 C   0  0  0  0  0  0  0  0  0  0  0  0
  185.4110  178.7810  143.6460 C   0  0  1  0  0  3  0  0  0  0  0  0
  187.8070  178.0480  143.1830 C   0  0  2  0  0  3  0  0  0  0  0  0
  182.9790  177.3850  138.6710 C   0  0  2  0  0  3  0  0  0  0  0  0
  183.7380  178.0880  141.0050 N   0  0  0  0  0  0  0  0  0  0  0  0
  188.2390  178.5860  136.7810 C   0  0  0  0  0  3  0  0  0  0  0  0
  185.6850  178.7450  145.1370 C   0  0  0  0  0  2  0  0  0  0  0  0
  183.2750  178.7870  144.7610 C   0  0  0  0  0  2  0  0  0  0  0  0
  185.9360  178.3730  136.3080 F   0  0  0  0  0  0  0  0  0  0  0  0
  187.4980  178.2470  140.8910 C   0  0  0  0  0  0  0  0  0  0  0  0
  189.2990  178.6430  137.6860 C   0  0  0  0  0  3  0  0  0  0  0  0
  186.6580  178.3150  138.6190 C   0  0  0  0  0  0  0  0  0  0  0  0
  186.2300  178.0950  141.3850 C   0  0  0  0  0  0  0  0  0  0  0  0
  188.3580  176.8280  143.8930 C   0  0  0  0  0  1  0  0  0  0  0  0
  186.3120  177.8370  142.8610 C   0  0  2  0  0  3  0  0  0  0  0  0
  184.3490  179.0000  145.8140 C   0  0  0  0  0  2  0  0  0  0  0  0
  182.5730  179.7020  142.2300 O   0  0  0  0  0  0  0  0  0  0  0  0
  189.0560  178.5360  139.0540 C   0  0  0  0  0  3  0  0  0  0  0  0
  187.7490  178.3750  139.5260 C   0  0  0  0  0  0  0  0  0  0  0  0
  183.3880  178.7370  142.2410 C   0  0  0  0  0  0  0  0  0  0  0  0
  183.0860  175.8690  138.5580 C   0  0  0  0  0  2  0  0  0  0  0  0
  184.1390  174.0760  137.4890 C   0  0  0  0  0  1  0  0  0  0  0  0
  183.8940  175.5050  137.4050 N   0  0  0  0  0  2  0  0  0  0  0  0
  1  4  1  0  0  0  0
  2 19  1  0  0  0  0
  3 10  1  0  0  0  0
  4 12  1  0  0  0  0
  4 20  2  0  0  0  0
  5 11  1  0  0  0  0
  5  1  1  0  0  0  0
  7  9  1  0  0  0  0
  7 15  1  1  0  0  0
  8  6  2  0  0  0  0
  8 12  1  0  0  0  0
  9 14  1  1  0  0  0
 10 21  1  6  0  0  0
 11 28  1  1  0  0  0
 11  8  1  0  0  0  0
 12 27  1  0  0  0  0
 13  2  2  0  0  0  0
 13 18  1  0  0  0  0
 14 23  1  0  0  0  0
 15 23  1  0  0  0  0
 16  2  1  0  0  0  0
 17 20  1  0  0  0  0
 17  3  1  0  0  0  0
 18 25  2  0  0  0  0
 19  1  2  0  0  0  0
 19 26  1  0  0  0  0
 22 20  1  6  0  0  0
 22 10  1  0  0  0  0
 22  9  1  0  0  0  0
 24 27  2  0  0  0  0
 25 26  1  0  0  0  0
 26 17  2  0  0  0  0
 27  7  1  0  0  0  0
 30 29  1  0  0  0  0
 30 28  1  0  0  0  0
M  END
>  <MODEL>
4

>  <REMARK>
 VINA RESULT:      -7.3      3.612      6.620
  Name = 
  2 active torsions:
  status: ('A' for Active; 'I' for Inactive)
    1  A    between atoms: C_11  and  C_28
    2  A    between atoms: C_28  and  N_30
                            x       y       z     vdW  Elec       q    Type
                         _______ _______ _______ _____ _____    ______ ____

>  <TORSDO>
F 2

$$$$
=
 OpenBabel11122410343D

 30 35  0  0  1  0  0  0  0  0999 V2000
  186.5680  178.3260  142.0630 C   0  0  0  0  0  0  0  0  0  0  0  0
  185.1250  178.9230  143.9970 C   0  0  0  0  0  0  0  0  0  0  0  0
  183.2430  178.0660  139.5240 N   0  0  0  0  0  2  0  0  0  0  0  0
  186.7040  178.0580  140.6780 C   0  0  0  0  0  0  0  0  0  0  0  0
  187.7420  178.3020  142.8800 N   0  0  0  0  0  2  0  0  0  0  0  0
  190.3290  177.6530  140.5360 O   0  0  0  0  0  0  0  0  0  0  0  0
  187.6050  177.7890  137.6140 C   0  0  1  0  0  3  0  0  0  0  0  0
  189.1590  177.7510  140.9970 C   0  0  0  0  0  0  0  0  0  0  0  0
  186.1940  178.2950  137.5150 C   0  0  1  0  0  3  0  0  0  0  0  0
  183.8270  177.6930  138.2420 C   0  0  2  0  0  3  0  0  0  0  0  0
  188.9490  177.5970  142.4690 C   0  0  2  0  0  3  0  0  0  0  0  0
  188.0380  177.9630  140.1120 N   0  0  0  0  0  0  0  0  0  0  0  0
  183.8480  179.1820  144.5060 C   0  0  0  0  0  3  0  0  0  0  0  0
  185.8170  178.0450  136.0680 C   0  0  0  0  0  2  0  0  0  0  0  0
  188.2470  178.0890  136.2720 C   0  0  0  0  0  2  0  0  0  0  0  0
  186.1760  178.9900  144.8510 F   0  0  0  0  0  0  0  0  0  0  0  0
  184.2970  178.2220  140.4530 C   0  0  0  0  0  0  0  0  0  0  0  0
  182.7290  179.1280  143.6760 C   0  0  0  0  0  3  0  0  0  0  0  0
  185.2940  178.6060  142.6280 C   0  0  0  0  0  0  0  0  0  0  0  0
  185.5260  177.9700  139.9030 C   0  0  0  0  0  0  0  0  0  0  0  0
  183.2130  176.3940  137.7610 C   0  0  0  0  0  1  0  0  0  0  0  0
  185.3390  177.4980  138.4910 C   0  0  2  0  0  3  0  0  0  0  0  0
  187.1050  178.1680  135.2730 C   0  0  0  0  0  2  0  0  0  0  0  0
  189.1340  179.3520  138.5840 O   0  0  0  0  0  0  0  0  0  0  0  0
  182.8740  178.8140  142.3270 C   0  0  0  0  0  3  0  0  0  0  0  0
  184.1430  178.5560  141.7970 C   0  0  0  0  0  0  0  0  0  0  0  0
  188.3090  178.4150  138.7730 C   0  0  0  0  0  0  0  0  0  0  0  0
  188.8310  176.1170  142.8130 C   0  0  0  0  0  2  0  0  0  0  0  0
  190.9550  176.2850  143.7760 C   0  0  0  0  0  1  0  0  0  0  0  0
  190.1490  175.5030  142.8550 N   0  0  0  0  0  2  0  0  0  0  0  0
  1 19  1  0  0  0  0
  1  5  1  0  0  0  0
  2 13  1  0  0  0  0
  2 16  1  0  0  0  0
  3 17  1  0  0  0  0
  4  1  2  0  0  0  0
  6  8  2  0  0  0  0
  7 15  1  6  0  0  0
  7 27  1  0  0  0  0
  8 11  1  0  0  0  0
  9 14  1  6  0  0  0
  9  7  1  0  0  0  0
  9 22  1  0  0  0  0
 10 21  1  1  0  0  0
 10 22  1  0  0  0  0
 10  3  1  0  0  0  0
 11 28  1  6  0  0  0
 11  5  1  0  0  0  0
 12  4  1  0  0  0  0
 12  8  1  0  0  0  0
 17 26  1  0  0  0  0
 18 13  2  0  0  0  0
 19  2  2  0  0  0  0
 20 17  2  0  0  0  0
 20  4  1  0  0  0  0
 22 20  1  1  0  0  0
 23 14  1  0  0  0  0
 23 15  1  0  0  0  0
 24 27  2  0  0  0  0
 25 18  1  0  0  0  0
 26 25  2  0  0  0  0
 26 19  1  0  0  0  0
 27 12  1  0  0  0  0
 28 30  1  0  0  0  0
 30 29  1  0  0  0  0
M  END
>  <MODEL>
5

>  <REMARK>
 VINA RESULT:      -7.2      2.505      6.617
  Name = 
  2 active torsions:
  status: ('A' for Active; 'I' for Inactive)
    1  A    between atoms: C_11  and  C_28
    2  A    between atoms: C_28  and  N_30
                            x       y       z     vdW  Elec       q    Type
                         _______ _______ _______ _____ _____    ______ ____

>  <TORSDO>
F 2

$$$$
=
 OpenBabel11122410343D

 30 35  0  0  1  0  0  0  0  0999 V2000
  186.0410  177.9800  142.2720 C   0  0  0  0  0  0  0  0  0  0  0  0
  183.7210  178.2950  141.4360 C   0  0  0  0  0  0  0  0  0  0  0  0
  184.8910  179.0030  146.1710 N   0  0  0  0  0  2  0  0  0  0  0  0
  186.9530  177.9390  143.3560 C   0  0  0  0  0  0  0  0  0  0  0  0
  186.5330  177.7120  140.9560 N   0  0  0  0  0  2  0  0  0  0  0  0
  189.9560  176.9550  141.5270 O   0  0  0  0  0  0  0  0  0  0  0  0
  189.3000  177.3290  145.4530 C   0  0  1  0  0  3  0  0  0  0  0  0
  188.7900  177.3730  141.7650 C   0  0  0  0  0  0  0  0  0  0  0  0
  188.0680  177.3670  146.3130 C   0  0  1  0  0  3  0  0  0  0  0  0
  186.1350  178.9100  146.9230 C   0  0  2  0  0  3  0  0  0  0  0  0
  187.9460  177.8440  140.6240 C   0  0  2  0  0  3  0  0  0  0  0  0
  188.2960  177.4390  143.1200 N   0  0  0  0  0  0  0  0  0  0  0  0
  182.3850  178.6140  141.6980 C   0  0  0  0  0  3  0  0  0  0  0  0
  188.6130  177.4860  147.7240 C   0  0  0  0  0  2  0  0  0  0  0  0
  190.3490  176.5900  146.2630 C   0  0  0  0  0  2  0  0  0  0  0  0
  184.0650  177.9940  140.1600 F   0  0  0  0  0  0  0  0  0  0  0  0
  185.1630  178.6330  144.8340 C   0  0  0  0  0  0  0  0  0  0  0  0
  181.9710  178.9310  142.9920 C   0  0  0  0  0  3  0  0  0  0  0  0
  184.6700  178.2880  142.4860 C   0  0  0  0  0  0  0  0  0  0  0  0
  186.4810  178.3180  144.6320 C   0  0  0  0  0  0  0  0  0  0  0  0
  186.4310  180.2410  147.5860 C   0  0  0  0  0  1  0  0  0  0  0  0
  187.2410  178.5770  145.8990 C   0  0  2  0  0  3  0  0  0  0  0  0
  189.9500  176.7660  147.7180 C   0  0  0  0  0  2  0  0  0  0  0  0
  189.3500  175.5060  143.9050 O   0  0  0  0  0  0  0  0  0  0  0  0
  182.8910  178.9340  144.0380 C   0  0  0  0  0  3  0  0  0  0  0  0
  184.2320  178.6140  143.7980 C   0  0  0  0  0  0  0  0  0  0  0  0
  189.0000  176.6970  144.1330 C   0  0  0  0  0  0  0  0  0  0  0  0
  188.2750  179.2980  140.3140 C   0  0  0  0  0  2  0  0  0  0  0  0
  188.6140  178.3120  138.2210 C   0  0  0  0  0  1  0  0  0  0  0  0
  189.0550  179.3890  139.0900 N   0  0  0  0  0  2  0  0  0  0  0  0
  1 19  2  0  0  0  0
  1  4  1  0  0  0  0
  2 13  2  0  0  0  0
  2 19  1  0  0  0  0
  3 10  1  0  0  0  0
  4 20  2  0  0  0  0
  5  1  1  0  0  0  0
  6  8  2  0  0  0  0
  7 15  1  1  0  0  0
  7  9  1  0  0  0  0
  8 12  1  0  0  0  0
  9 14  1  1  0  0  0
 10 21  1  6  0  0  0
 11 28  1  1  0  0  0
 11  5  1  0  0  0  0
 11  8  1  0  0  0  0
 12  4  1  0  0  0  0
 12 27  1  0  0  0  0
 13 18  1  0  0  0  0
 15 23  1  0  0  0  0
 16  2  1  0  0  0  0
 17  3  1  0  0  0  0
 18 25  2  0  0  0  0
 19 26  1  0  0  0  0
 20 17  1  0  0  0  0
 22 20  1  6  0  0  0
 22  9  1  0  0  0  0
 22 10  1  0  0  0  0
 23 14  1  0  0  0  0
 24 27  2  0  0  0  0
 26 25  1  0  0  0  0
 26 17  2  0  0  0  0
 27  7  1  0  0  0  0
 29 30  1  0  0  0  0
 30 28  1  0  0  0  0
M  END
>  <MODEL>
6

>  <REMARK>
 VINA RESULT:      -7.2      1.297      1.972
  Name = 
  2 active torsions:
  status: ('A' for Active; 'I' for Inactive)
    1  A    between atoms: C_11  and  C_28
    2  A    between atoms: C_28  and  N_30
                            x       y       z     vdW  Elec       q    Type
                         _______ _______ _______ _____ _____    ______ ____

>  <TORSDO>
F 2

$$$$
=
 OpenBabel11122410343D

 30 35  0  0  1  0  0  0  0  0999 V2000
  188.4590  177.7260  139.6020 C   0  0  0  0  0  0  0  0  0  0  0  0
  190.9330  177.5530  139.4310 C   0  0  0  0  0  0  0  0  0  0  0  0
  188.6450  177.7870  143.7890 N   0  0  0  0  0  2  0  0  0  0  0  0
  187.2990  177.8860  140.3990 C   0  0  0  0  0  0  0  0  0  0  0  0
  188.3020  177.6170  138.1840 N   0  0  0  0  0  2  0  0  0  0  0  0
  184.8000  178.0020  137.7410 O   0  0  0  0  0  0  0  0  0  0  0  0
  184.4520  178.6260  141.6740 C   0  0  1  0  0  3  0  0  0  0  0  0
  185.8940  177.8150  138.3390 C   0  0  0  0  0  0  0  0  0  0  0  0
  185.4200  178.9560  142.7760 C   0  0  1  0  0  3  0  0  0  0  0  0
  187.2460  177.8750  144.1860 C   0  0  2  0  0  3  0  0  0  0  0  0
  187.0360  177.2190  137.5810 C   0  0  2  0  0  3  0  0  0  0  0  0
  186.0270  178.1280  139.7420 N   0  0  0  0  0  0  0  0  0  0  0  0
  192.1780  177.4910  140.0650 C   0  0  0  0  0  3  0  0  0  0  0  0
  184.5420  179.0870  144.0050 C   0  0  0  0  0  2  0  0  0  0  0  0
  183.1760  179.3780  142.0050 C   0  0  0  0  0  2  0  0  0  0  0  0
  190.9070  177.5060  138.0760 F   0  0  0  0  0  0  0  0  0  0  0  0
  188.6970  177.8020  142.3760 C   0  0  0  0  0  0  0  0  0  0  0  0
  192.2690  177.5370  141.4560 C   0  0  0  0  0  3  0  0  0  0  0  0
  189.7490  177.6680  140.1970 C   0  0  0  0  0  0  0  0  0  0  0  0
  187.4550  177.8760  141.8040 C   0  0  0  0  0  0  0  0  0  0  0  0
  186.8950  176.7020  145.0790 C   0  0  0  0  0  1  0  0  0  0  0  0
  186.4170  177.8100  142.8850 C   0  0  2  0  0  3  0  0  0  0  0  0
  183.2000  179.5950  143.5090 C   0  0  0  0  0  2  0  0  0  0  0  0
  184.6600  180.0250  139.7450 O   0  0  0  0  0  0  0  0  0  0  0  0
  191.1140  177.6450  142.2280 C   0  0  0  0  0  3  0  0  0  0  0  0
  189.8590  177.7130  141.6120 C   0  0  0  0  0  0  0  0  0  0  0  0
  185.0310  178.9760  140.3430 C   0  0  0  0  0  0  0  0  0  0  0  0
  186.9120  175.7000  137.5850 C   0  0  0  0  0  2  0  0  0  0  0  0
  188.0480  174.9530  135.6820 C   0  0  0  0  0  1  0  0  0  0  0  0
  188.1500  175.0920  137.1250 N   0  0  0  0  0  2  0  0  0  0  0  0
  1 19  2  0  0  0  0
  1  4  1  0  0  0  0
  2 13  2  0  0  0  0
  2 19  1  0  0  0  0
  3 10  1  0  0  0  0
  4 20  2  0  0  0  0
  5  1  1  0  0  0  0
  6  8  2  0  0  0  0
  7 15  1  1  0  0  0
  7  9  1  0  0  0  0
  8 12  1  0  0  0  0
  9 22  1  0  0  0  0
  9 14  1  1  0  0  0
 10 21  1  1  0  0  0
 11 28  1  1  0  0  0
 11  5  1  0  0  0  0
 11  8  1  0  0  0  0
 12 27  1  0  0  0  0
 12  4  1  0  0  0  0
 13 18  1  0  0  0  0
 15 23  1  0  0  0  0
 16  2  1  0  0  0  0
 17  3  1  0  0  0  0
 18 25  2  0  0  0  0
 19 26  1  0  0  0  0
 20 17  1  0  0  0  0
 22 20  1  6  0  0  0
 22 10  1  0  0  0  0
 23 14  1  0  0  0  0
 24 27  2  0  0  0  0
 26 25  1  0  0  0  0
 26 17  2  0  0  0  0
 27  7  1  0  0  0  0
 29 30  1  0  0  0  0
 30 28  1  0  0  0  0
M  END
>  <MODEL>
7

>  <REMARK>
 VINA RESULT:      -7.0      3.418      6.313
  Name = 
  2 active torsions:
  status: ('A' for Active; 'I' for Inactive)
    1  A    between atoms: C_11  and  C_28
    2  A    between atoms: C_28  and  N_30
                            x       y       z     vdW  Elec       q    Type
                         _______ _______ _______ _____ _____    ______ ____

>  <TORSDO>
F 2

$$$$
=
 OpenBabel11122410343D

 30 35  0  0  1  0  0  0  0  0999 V2000
  185.5150  178.6520  141.2120 C   0  0  0  0  0  0  0  0  0  0  0  0
  184.3110  179.3850  143.2600 C   0  0  0  0  0  0  0  0  0  0  0  0
  181.9570  177.2640  139.4860 N   0  0  0  0  0  2  0  0  0  0  0  0
  185.4790  178.1200  139.8990 C   0  0  0  0  0  0  0  0  0  0  0  0
  186.7830  179.0140  141.7660 N   0  0  0  0  0  2  0  0  0  0  0  0
  189.0350  178.3460  139.1030 O   0  0  0  0  0  0  0  0  0  0  0  0
  185.9080  177.3620  136.8140 C   0  0  1  0  0  3  0  0  0  0  0  0
  187.9610  178.3310  139.7650 C   0  0  0  0  0  0  0  0  0  0  0  0
  184.4240  177.5760  136.9150 C   0  0  1  0  0  3  0  0  0  0  0  0
  182.3920  176.7340  138.2000 C   0  0  2  0  0  3  0  0  0  0  0  0
  188.0310  178.4630  141.2520 C   0  0  2  0  0  3  0  0  0  0  0  0
  186.6920  178.1440  139.1020 N   0  0  0  0  0  0  0  0  0  0  0  0
  183.1090  179.5170  143.9620 C   0  0  0  0  0  3  0  0  0  0  0  0
  183.8790  176.9570  135.6410 C   0  0  0  0  0  2  0  0  0  0  0  0
  186.2440  177.4750  135.3390 C   0  0  0  0  0  2  0  0  0  0  0  0
  185.4480  179.8210  143.8570 F   0  0  0  0  0  0  0  0  0  0  0  0
  183.0900  177.8010  140.1390 C   0  0  0  0  0  0  0  0  0  0  0  0
  181.9070  179.0870  143.3990 C   0  0  0  0  0  3  0  0  0  0  0  0
  184.3200  178.8160  141.9640 C   0  0  0  0  0  0  0  0  0  0  0  0
  184.2380  177.6590  139.4070 C   0  0  0  0  0  0  0  0  0  0  0  0
  182.0010  175.2730  138.0930 C   0  0  0  0  0  1  0  0  0  0  0  0
  183.9290  176.8690  138.1690 C   0  0  2  0  0  3  0  0  0  0  0  0
  184.9650  177.1320  134.5940 C   0  0  0  0  0  2  0  0  0  0  0  0
  187.2020  179.3430  137.1610 O   0  0  0  0  0  0  0  0  0  0  0  0
  181.8960  178.5210  142.1260 C   0  0  0  0  0  3  0  0  0  0  0  0
  183.0880  178.3840  141.4050 C   0  0  0  0  0  0  0  0  0  0  0  0
  186.6390  178.3380  137.6760 C   0  0  0  0  0  0  0  0  0  0  0  0
  188.2910  177.0960  141.8720 C   0  0  0  0  0  2  0  0  0  0  0  0
  188.9470  177.0800  144.1170 C   0  0  0  0  0  1  0  0  0  0  0  0
  187.7910  177.0580  143.2370 N   0  0  0  0  0  2  0  0  0  0  0  0
  1  5  1  0  0  0  0
  1 19  1  0  0  0  0
  2 16  1  0  0  0  0
  2 13  1  0  0  0  0
  3 17  1  0  0  0  0
  4  1  2  0  0  0  0
  6  8  2  0  0  0  0
  7 15  1  6  0  0  0
  7  9  1  0  0  0  0
  7 27  1  0  0  0  0
  8 11  1  0  0  0  0
  9 14  1  6  0  0  0
  9 22  1  0  0  0  0
 10 21  1  1  0  0  0
 10  3  1  0  0  0  0
 11  5  1  0  0  0  0
 11 28  1  1  0  0  0
 12  8  1  0  0  0  0
 12  4  1  0  0  0  0
 17 26  1  0  0  0  0
 18 13  2  0  0  0  0
 19  2  2  0  0  0  0
 20  4  1  0  0  0  0
 20 17  2  0  0  0  0
 22 10  1  0  0  0  0
 22 20  1  1  0  0  0
 23 15  1  0  0  0  0
 23 14  1  0  0  0  0
 24 27  2  0  0  0  0
 25 18  1  0  0  0  0
 26 19  1  0  0  0  0
 26 25  2  0  0  0  0
 27 12  1  0  0  0  0
 28 30  1  0  0  0  0
 30 29  1  0  0  0  0
M  END
>  <MODEL>
8

>  <REMARK>
 VINA RESULT:      -7.0      3.404      7.405
  Name = 
  2 active torsions:
  status: ('A' for Active; 'I' for Inactive)
    1  A    between atoms: C_11  and  C_28
    2  A    between atoms: C_28  and  N_30
                            x       y       z     vdW  Elec       q    Type
                         _______ _______ _______ _____ _____    ______ ____

>  <TORSDO>
F 2

$$$$
=
 OpenBabel11122410343D

 30 35  0  0  1  0  0  0  0  0999 V2000
  184.6830  178.6790  139.0260 C   0  0  0  0  0  0  0  0  0  0  0  0
  182.3530  179.3890  138.5310 C   0  0  0  0  0  0  0  0  0  0  0  0
  184.7560  176.1900  135.6540 N   0  0  0  0  0  2  0  0  0  0  0  0
  185.8460  177.9610  138.6520 C   0  0  0  0  0  0  0  0  0  0  0  0
  184.7090  179.4300  140.2430 N   0  0  0  0  0  2  0  0  0  0  0  0
  188.0300  178.9510  141.4040 O   0  0  0  0  0  0  0  0  0  0  0  0
  188.8060  176.8720  138.0790 C   0  0  1  0  0  3  0  0  0  0  0  0
  186.9880  178.7680  140.7180 C   0  0  0  0  0  0  0  0  0  0  0  0
  188.1190  176.7170  136.7520 C   0  0  1  0  0  3  0  0  0  0  0  0
  186.0850  175.5960  135.7030 C   0  0  2  0  0  3  0  0  0  0  0  0
  185.6640  179.1390  141.3040 C   0  0  2  0  0  3  0  0  0  0  0  0
  187.0690  178.1680  139.4070 N   0  0  0  0  0  0  0  0  0  0  0  0
  181.2280  179.3190  137.7040 C   0  0  0  0  0  3  0  0  0  0  0  0
  189.0340  175.7930  135.9730 C   0  0  0  0  0  2  0  0  0  0  0  0
  190.2940  176.8380  137.7820 C   0  0  0  0  0  2  0  0  0  0  0  0
  182.2880  180.1840  139.6280 F   0  0  0  0  0  0  0  0  0  0  0  0
  184.6410  177.0890  136.7390 C   0  0  0  0  0  0  0  0  0  0  0  0
  181.2360  178.5190  136.5610 C   0  0  0  0  0  3  0  0  0  0  0  0
  183.5170  178.6500  138.2140 C   0  0  0  0  0  0  0  0  0  0  0  0
  185.7720  177.1310  137.5100 C   0  0  0  0  0  0  0  0  0  0  0  0
  185.9670  174.0860  135.7470 C   0  0  0  0  0  1  0  0  0  0  0  0
  186.7450  176.1090  137.0020 C   0  0  2  0  0  3  0  0  0  0  0  0
  190.4390  176.0730  136.4770 C   0  0  0  0  0  2  0  0  0  0  0  0
  189.0940  179.1450  138.7670 O   0  0  0  0  0  0  0  0  0  0  0  0
  182.3710  177.7800  136.2340 C   0  0  0  0  0  3  0  0  0  0  0  0
  183.5080  177.8400  137.0470 C   0  0  0  0  0  0  0  0  0  0  0  0
  188.3560  178.1200  138.7630 C   0  0  0  0  0  0  0  0  0  0  0  0
  185.1520  177.9940  142.1680 C   0  0  0  0  0  2  0  0  0  0  0  0
  186.0560  177.9860  144.3250 C   0  0  0  0  0  1  0  0  0  0  0  0
  184.9310  178.4500  143.5320 N   0  0  0  0  0  2  0  0  0  0  0  0
  1  5  1  0  0  0  0
  2 16  1  0  0  0  0
  3 10  1  0  0  0  0
  3 17  1  0  0  0  0
  4  1  1  0  0  0  0
  4 12  1  0  0  0  0
  5 11  1  0  0  0  0
  7 15  1  6  0  0  0
  7 27  1  0  0  0  0
  8 11  1  0  0  0  0
  8  6  2  0  0  0  0
  9 14  1  6  0  0  0
  9 22  1  0  0  0  0
  9  7  1  0  0  0  0
 10 21  1  1  0  0  0
 10 22  1  0  0  0  0
 11 28  1  6  0  0  0
 12  8  1  0  0  0  0
 13  2  2  0  0  0  0
 14 23  1  0  0  0  0
 17 26  2  0  0  0  0
 17 20  1  0  0  0  0
 18 13  1  0  0  0  0
 19  2  1  0  0  0  0
 19  1  2  0  0  0  0
 20  4  2  0  0  0  0
 22 20  1  6  0  0  0
 23 15  1  0  0  0  0
 25 18  2  0  0  0  0
 25 26  1  0  0  0  0
 26 19  1  0  0  0  0
 27 24  2  0  0  0  0
 27 12  1  0  0  0  0
 28 30  1  0  0  0  0
 30 29  1  0  0  0  0
M  END
>  <MODEL>
9

>  <REMARK>
 VINA RESULT:      -6.8      3.954      7.798
  Name = 
  2 active torsions:
  status: ('A' for Active; 'I' for Inactive)
    1  A    between atoms: C_11  and  C_28
    2  A    between atoms: C_28  and  N_30
                            x       y       z     vdW  Elec       q    Type
                         _______ _______ _______ _____ _____    ______ ____

>  <TORSDO>
F 2

$$$$
