=
 OpenBabel11122412013D

 28 32  0  0  1  0  0  0  0  0999 V2000
  189.5300  178.2840  138.2020 C   0  0  2  0  0  3  0  0  0  0  0  0
  192.4290  175.7080  135.1780 O   0  0  0  0  0  1  0  0  0  0  0  0
  186.2440  173.5980  137.1720 C   0  0  0  0  0  2  0  0  0  0  0  0
  189.3730  176.7540  140.7360 C   0  0  0  0  0  2  0  0  0  0  0  0
  188.4260  173.2210  136.2080 N   0  0  0  0  0  0  0  0  0  0  0  0
  188.7590  178.8660  137.0160 C   0  0  0  0  0  2  0  0  0  0  0  0
  193.1760  176.7530  137.1700 C   0  0  0  0  0  1  0  0  0  0  0  0
  192.6280  175.4840  136.5430 C   0  0  1  0  0  0  0  0  0  0  0  0
  193.1110  172.9590  136.8080 C   0  0  2  0  0  3  0  0  0  0  0  0
  191.2930  175.1020  137.2220 C   0  0  2  0  0  3  0  0  0  0  0  0
  186.3840  178.2530  134.5940 C   0  0  0  0  0  1  0  0  0  0  0  0
  189.1690  175.4770  136.0250 C   0  0  1  0  0  3  0  0  0  0  0  0
  191.7720  172.8440  136.0940 C   0  0  0  0  0  2  0  0  0  0  0  0
  193.6820  174.3800  136.7170 C   0  0  0  0  0  2  0  0  0  0  0  0
  187.2800  177.5240  135.5730 C   0  0  2  0  0  3  0  0  0  0  0  0
  189.5730  176.7450  138.2520 C   0  0  2  0  0  3  0  0  0  0  0  0
  187.3490  174.0550  136.5930 C   0  0  0  0  0  0  0  0  0  0  0  0
  194.0970  171.9760  136.2150 C   0  0  0  0  0  1  0  0  0  0  0  0
  186.8190  176.2010  135.7400 O   0  0  0  0  0  0  0  0  0  0  0  0
  190.2320  176.2990  139.5610 C   0  0  0  0  0  2  0  0  0  0  0  0
  189.0570  178.9000  139.4970 C   0  0  0  0  0  3  0  0  0  0  0  0
  189.0330  178.2180  140.6530 C   0  0  0  0  0  3  0  0  0  0  0  0
  187.3500  178.3020  136.8830 C   0  0  0  0  0  2  0  0  0  0  0  0
  189.5800  174.0130  135.8270 C   0  0  1  0  0  3  0  0  0  0  0  0
  187.7150  175.4870  136.5660 C   0  0  2  0  0  3  0  0  0  0  0  0
  190.7380  173.7420  136.7710 C   0  0  2  0  0  3  0  0  0  0  0  0
  188.3530  171.7750  136.0620 C   0  0  0  0  0  1  0  0  0  0  0  0
  190.1940  176.1350  136.9690 C   0  0  1  0  0  3  0  0  0  0  0  0
  1  6  1  6  0  0  0
  1 16  1  0  0  0  0
  1 21  1  0  0  0  0
  2  8  1  0  0  0  0
  5 17  1  0  0  0  0
  8 14  1  0  0  0  0
  8  7  1  1  0  0  0
  8 10  1  0  0  0  0
  9 18  1  6  0  0  0
 11 15  1  0  0  0  0
 12 25  1  0  0  0  0
 12 28  1  0  0  0  0
 13 26  1  0  0  0  0
 13  9  1  0  0  0  0
 14  9  1  0  0  0  0
 15 19  1  0  0  0  0
 15 23  1  0  0  0  0
 16 20  1  0  0  0  0
 17  3  2  0  0  0  0
 19 25  1  0  0  0  0
 20  4  1  0  0  0  0
 21 22  2  0  0  0  0
 22  4  1  0  0  0  0
 23  6  1  0  0  0  0
 24 12  1  0  0  0  0
 24  5  1  0  0  0  0
 24 26  1  0  0  0  0
 25 17  1  0  0  0  0
 26 10  1  0  0  0  0
 27  5  1  0  0  0  0
 28 10  1  0  0  0  0
 28 16  1  0  0  0  0
M  END
>  <MODEL>
1

>  <REMARK>
 VINA RESULT:      -5.4      0.000      0.000
  Name = 
  0 active torsions:
  status: ('A' for Active; 'I' for Inactive)
                            x       y       z     vdW  Elec       q    Type
                         _______ _______ _______ _____ _____    ______ ____

>  <TORSDO>
F 0

$$$$
=
 OpenBabel11122412013D

 28 32  0  0  1  0  0  0  0  0999 V2000
  179.4460  176.9610  138.7590 C   0  0  2  0  0  3  0  0  0  0  0  0
  181.0750  180.1130  142.1640 O   0  0  0  0  0  1  0  0  0  0  0  0
  185.0610  177.4180  137.3130 C   0  0  0  0  0  2  0  0  0  0  0  0
  180.7140  174.3460  139.3460 C   0  0  0  0  0  2  0  0  0  0  0  0
  184.7210  178.5690  139.4090 N   0  0  0  0  0  0  0  0  0  0  0  0
  179.2770  178.0950  137.7470 C   0  0  0  0  0  2  0  0  0  0  0  0
  179.6700  178.2610  142.6270 C   0  0  0  0  0  1  0  0  0  0  0  0
  181.0990  178.7640  142.5280 C   0  0  1  0  0  0  0  0  0  0  0  0
  183.2580  178.4140  143.9050 C   0  0  2  0  0  3  0  0  0  0  0  0
  181.8700  177.9390  141.4730 C   0  0  2  0  0  3  0  0  0  0  0  0
  180.8910  180.2400  135.5840 C   0  0  0  0  0  1  0  0  0  0  0  0
  182.3720  178.9420  139.2750 C   0  0  1  0  0  3  0  0  0  0  0  0
  183.8980  178.9880  142.6490 C   0  0  0  0  0  2  0  0  0  0  0  0
  181.7400  178.6350  143.9180 C   0  0  0  0  0  2  0  0  0  0  0  0
  181.1710  179.3150  136.7500 C   0  0  2  0  0  3  0  0  0  0  0  0
  180.8610  176.8350  139.3560 C   0  0  2  0  0  3  0  0  0  0  0  0
  184.2930  178.1240  138.1350 C   0  0  0  0  0  0  0  0  0  0  0  0
  183.8750  179.0480  145.1340 C   0  0  0  0  0  1  0  0  0  0  0  0
  182.5520  179.0340  136.8080 O   0  0  0  0  0  0  0  0  0  0  0  0
  180.9330  175.5750  140.2240 C   0  0  0  0  0  2  0  0  0  0  0  0
  178.9310  175.6600  138.1910 C   0  0  0  0  0  3  0  0  0  0  0  0
  179.4770  174.4740  138.4960 C   0  0  0  0  0  3  0  0  0  0  0  0
  180.3110  178.0610  136.6290 C   0  0  0  0  0  2  0  0  0  0  0  0
  183.6070  179.1010  140.1700 C   0  0  1  0  0  3  0  0  0  0  0  0
  182.8310  178.2630  137.9590 C   0  0  2  0  0  3  0  0  0  0  0  0
  183.3710  178.2610  141.4130 C   0  0  2  0  0  3  0  0  0  0  0  0
  186.1060  178.6300  139.8510 C   0  0  0  0  0  1  0  0  0  0  0  0
  181.3170  178.1380  140.0610 C   0  0  1  0  0  3  0  0  0  0  0  0
  1  6  1  6  0  0  0
  1 16  1  0  0  0  0
  2  8  1  0  0  0  0
  3 17  2  0  0  0  0
  4 20  1  0  0  0  0
  5 27  1  0  0  0  0
  5 24  1  0  0  0  0
  8  7  1  1  0  0  0
  8 14  1  0  0  0  0
  9 14  1  0  0  0  0
  9 18  1  1  0  0  0
 10  8  1  0  0  0  0
 11 15  1  0  0  0  0
 12 28  1  0  0  0  0
 12 24  1  0  0  0  0
 13  9  1  0  0  0  0
 15 19  1  0  0  0  0
 16 28  1  0  0  0  0
 16 20  1  0  0  0  0
 17  5  1  0  0  0  0
 19 25  1  0  0  0  0
 21 22  2  0  0  0  0
 21  1  1  0  0  0  0
 22  4  1  0  0  0  0
 23 15  1  0  0  0  0
 23  6  1  0  0  0  0
 24 26  1  0  0  0  0
 25 17  1  0  0  0  0
 25 12  1  0  0  0  0
 26 10  1  0  0  0  0
 26 13  1  0  0  0  0
 28 10  1  0  0  0  0
M  END
>  <MODEL>
2

>  <REMARK>
 VINA RESULT:      -5.3      6.565     10.050
  Name = 
  0 active torsions:
  status: ('A' for Active; 'I' for Inactive)
                            x       y       z     vdW  Elec       q    Type
                         _______ _______ _______ _____ _____    ______ ____

>  <TORSDO>
F 0

$$$$
=
 OpenBabel11122412013D

 28 32  0  0  1  0  0  0  0  0999 V2000
  182.3360  177.2950  137.4860 C   0  0  2  0  0  3  0  0  0  0  0  0
  184.8450  173.0940  137.9680 O   0  0  0  0  0  1  0  0  0  0  0  0
  187.7190  179.0030  136.0960 C   0  0  0  0  0  2  0  0  0  0  0  0
  182.3250  177.9510  134.5950 C   0  0  0  0  0  2  0  0  0  0  0  0
  187.7190  176.5980  136.3150 N   0  0  0  0  0  0  0  0  0  0  0  0
  182.7490  177.7390  138.8900 C   0  0  0  0  0  2  0  0  0  0  0  0
  182.7550  173.2770  136.8660 C   0  0  0  0  0  1  0  0  0  0  0  0
  184.2650  173.3120  136.7160 C   0  0  1  0  0  0  0  0  0  0  0  0
  185.9470  172.4250  134.9650 C   0  0  2  0  0  3  0  0  0  0  0  0
  184.7030  174.6830  136.1550 C   0  0  2  0  0  3  0  0  0  0  0  0
  185.2980  179.0030  140.8370 C   0  0  0  0  0  1  0  0  0  0  0  0
  185.7680  176.3260  137.6560 C   0  0  1  0  0  3  0  0  0  0  0  0
  186.8750  173.3990  135.6750 C   0  0  0  0  0  2  0  0  0  0  0  0
  184.6700  172.1660  135.7750 C   0  0  0  0  0  2  0  0  0  0  0  0
  185.0600  178.3460  139.4940 C   0  0  2  0  0  3  0  0  0  0  0  0
  183.5080  176.9500  136.5470 C   0  0  2  0  0  3  0  0  0  0  0  0
  187.2540  177.8910  136.6550 C   0  0  0  0  0  0  0  0  0  0  0  0
  186.6660  171.1150  134.7190 C   0  0  0  0  0  1  0  0  0  0  0  0
  186.1820  178.5490  138.6640 O   0  0  0  0  0  0  0  0  0  0  0  0
  182.9660  176.6790  135.1410 C   0  0  0  0  0  2  0  0  0  0  0  0
  181.3700  178.2850  136.8800 C   0  0  0  0  0  3  0  0  0  0  0  0
  181.3350  178.5440  135.5640 C   0  0  0  0  0  3  0  0  0  0  0  0
  183.7640  178.8750  138.8860 C   0  0  0  0  0  2  0  0  0  0  0  0
  186.8730  175.5760  136.9020 C   0  0  1  0  0  3  0  0  0  0  0  0
  186.0090  177.8450  137.4510 C   0  0  2  0  0  3  0  0  0  0  0  0
  186.1980  174.7630  135.8120 C   0  0  2  0  0  3  0  0  0  0  0  0
  188.9560  176.3150  135.6040 C   0  0  0  0  0  1  0  0  0  0  0  0
  184.4100  175.8290  137.1250 C   0  0  1  0  0  3  0  0  0  0  0  0
  1 21  1  6  0  0  0
  1  6  1  0  0  0  0
  3 17  2  0  0  0  0
  4 20  1  0  0  0  0
  4 22  1  0  0  0  0
  5 17  1  0  0  0  0
  5 24  1  0  0  0  0
  8  7  1  1  0  0  0
  8  2  1  0  0  0  0
  9 18  1  1  0  0  0
  9 13  1  0  0  0  0
  9 14  1  0  0  0  0
 10  8  1  0  0  0  0
 10 28  1  0  0  0  0
 13 26  1  0  0  0  0
 14  8  1  0  0  0  0
 15 11  1  0  0  0  0
 16 28  1  0  0  0  0
 16  1  1  0  0  0  0
 17 25  1  0  0  0  0
 19 15  1  0  0  0  0
 20 16  1  0  0  0  0
 22 21  2  0  0  0  0
 23  6  1  0  0  0  0
 23 15  1  0  0  0  0
 24 12  1  0  0  0  0
 25 12  1  0  0  0  0
 25 19  1  0  0  0  0
 26 10  1  0  0  0  0
 26 24  1  0  0  0  0
 27  5  1  0  0  0  0
 28 12  1  0  0  0  0
M  END
>  <MODEL>
3

>  <REMARK>
 VINA RESULT:      -5.2      3.656      6.678
  Name = 
  0 active torsions:
  status: ('A' for Active; 'I' for Inactive)
                            x       y       z     vdW  Elec       q    Type
                         _______ _______ _______ _____ _____    ______ ____

>  <TORSDO>
F 0

$$$$
=
 OpenBabel11122412013D

 28 32  0  0  1  0  0  0  0  0999 V2000
  187.3700  177.2590  137.4930 C   0  0  2  0  0  3  0  0  0  0  0  0
  187.2850  172.3630  137.9510 O   0  0  0  0  0  1  0  0  0  0  0  0
  192.4590  175.7890  135.0920 C   0  0  0  0  0  2  0  0  0  0  0  0
  187.1690  177.8450  134.5940 C   0  0  0  0  0  2  0  0  0  0  0  0
  191.2160  173.7660  135.5320 N   0  0  0  0  0  0  0  0  0  0  0  0
  188.2110  177.3930  138.7640 C   0  0  0  0  0  2  0  0  0  0  0  0
  185.4540  173.6620  137.1910 C   0  0  0  0  0  1  0  0  0  0  0  0
  186.6880  172.8730  136.7950 C   0  0  1  0  0  0  0  0  0  0  0  0
  187.2730  171.2330  134.8840 C   0  0  2  0  0  3  0  0  0  0  0  0
  187.6770  173.7940  136.0450 C   0  0  2  0  0  3  0  0  0  0  0  0
  191.3520  177.0550  140.1430 C   0  0  0  0  0  1  0  0  0  0  0  0
  189.7140  174.5820  137.1930 C   0  0  1  0  0  3  0  0  0  0  0  0
  188.6920  171.5420  135.3400 C   0  0  0  0  0  2  0  0  0  0  0  0
  186.2340  171.7010  135.9120 C   0  0  0  0  0  2  0  0  0  0  0  0
  190.5530  176.6450  138.9240 C   0  0  2  0  0  3  0  0  0  0  0  0
  187.9760  176.3420  136.4130 C   0  0  2  0  0  3  0  0  0  0  0  0
  191.5870  175.1010  135.8210 C   0  0  0  0  0  0  0  0  0  0  0  0
  187.1200  169.7460  134.6480 C   0  0  0  0  0  1  0  0  0  0  0  0
  191.4310  176.2160  137.9070 O   0  0  0  0  0  0  0  0  0  0  0  0
  187.1210  176.4230  135.1440 C   0  0  0  0  0  2  0  0  0  0  0  0
  186.9880  178.6200  136.9620 C   0  0  0  0  0  3  0  0  0  0  0  0
  186.8520  178.8700  135.6510 C   0  0  0  0  0  3  0  0  0  0  0  0
  189.6530  177.7980  138.4890 C   0  0  0  0  0  2  0  0  0  0  0  0
  190.0830  173.3600  136.3420 C   0  0  1  0  0  3  0  0  0  0  0  0
  190.6850  175.7300  136.8100 C   0  0  2  0  0  3  0  0  0  0  0  0
  188.8880  173.0540  135.4570 C   0  0  2  0  0  3  0  0  0  0  0  0
  191.9510  172.8650  134.6590 C   0  0  0  0  0  1  0  0  0  0  0  0
  188.2290  174.9060  136.9380 C   0  0  1  0  0  3  0  0  0  0  0  0
  1 21  1  6  0  0  0
  1  6  1  0  0  0  0
  3 17  2  0  0  0  0
  4 20  1  0  0  0  0
  4 22  1  0  0  0  0
  5 17  1  0  0  0  0
  5 24  1  0  0  0  0
  8  7  1  1  0  0  0
  8  2  1  0  0  0  0
  9 18  1  1  0  0  0
  9 13  1  0  0  0  0
  9 14  1  0  0  0  0
 10  8  1  0  0  0  0
 10 28  1  0  0  0  0
 13 26  1  0  0  0  0
 14  8  1  0  0  0  0
 15 11  1  0  0  0  0
 16 28  1  0  0  0  0
 16  1  1  0  0  0  0
 17 25  1  0  0  0  0
 19 15  1  0  0  0  0
 20 16  1  0  0  0  0
 22 21  2  0  0  0  0
 23  6  1  0  0  0  0
 23 15  1  0  0  0  0
 24 12  1  0  0  0  0
 25 12  1  0  0  0  0
 25 19  1  0  0  0  0
 26 10  1  0  0  0  0
 26 24  1  0  0  0  0
 27  5  1  0  0  0  0
 28 12  1  0  0  0  0
M  END
>  <MODEL>
4

>  <REMARK>
 VINA RESULT:      -5.1      1.824      5.020
  Name = 
  0 active torsions:
  status: ('A' for Active; 'I' for Inactive)
                            x       y       z     vdW  Elec       q    Type
                         _______ _______ _______ _____ _____    ______ ____

>  <TORSDO>
F 0

$$$$
=
 OpenBabel11122412013D

 28 32  0  0  1  0  0  0  0  0999 V2000
  180.4580  178.8070  142.3760 C   0  0  2  0  0  3  0  0  0  0  0  0
  181.0240  174.3660  140.3410 O   0  0  0  0  0  1  0  0  0  0  0  0
  184.9140  179.7560  138.7620 C   0  0  0  0  0  2  0  0  0  0  0  0
  179.4760  180.6040  140.2330 C   0  0  0  0  0  2  0  0  0  0  0  0
  184.0490  177.5430  138.3330 N   0  0  0  0  0  0  0  0  0  0  0  0
  181.5700  178.5190  143.3860 C   0  0  0  0  0  2  0  0  0  0  0  0
  178.9310  175.4350  140.6430 C   0  0  0  0  0  1  0  0  0  0  0  0
  180.1060  175.2080  139.7090 C   0  0  1  0  0  0  0  0  0  0  0  0
  180.3690  174.8070  137.1690 C   0  0  2  0  0  3  0  0  0  0  0  0
  180.7690  176.5610  139.3670 C   0  0  2  0  0  3  0  0  0  0  0  0
  184.9740  178.2740  143.8740 C   0  0  0  0  0  1  0  0  0  0  0  0
  182.9300  177.1520  140.4010 C   0  0  1  0  0  3  0  0  0  0  0  0
  181.8150  175.1700  137.4770 C   0  0  0  0  0  2  0  0  0  0  0  0
  179.5760  174.5090  138.4480 C   0  0  0  0  0  2  0  0  0  0  0  0
  183.9450  178.3110  142.7640 C   0  0  2  0  0  3  0  0  0  0  0  0
  180.8710  178.6490  140.9000 C   0  0  2  0  0  3  0  0  0  0  0  0
  184.3320  178.6390  139.1830 C   0  0  0  0  0  0  0  0  0  0  0  0
  180.3250  173.6030  136.2520 C   0  0  0  0  0  1  0  0  0  0  0  0
  184.5820  178.6010  141.5400 O   0  0  0  0  0  0  0  0  0  0  0  0
  179.7220  179.1170  140.0010 C   0  0  0  0  0  2  0  0  0  0  0  0
  179.8100  180.1400  142.6650 C   0  0  0  0  0  3  0  0  0  0  0  0
  179.3230  180.9300  141.6960 C   0  0  0  0  0  3  0  0  0  0  0  0
  182.8450  179.3070  143.1160 C   0  0  0  0  0  2  0  0  0  0  0  0
  183.2050  176.5740  139.0070 C   0  0  1  0  0  3  0  0  0  0  0  0
  183.6430  178.5270  140.4870 C   0  0  2  0  0  3  0  0  0  0  0  0
  181.8680  176.4590  138.2980 C   0  0  2  0  0  3  0  0  0  0  0  0
  184.6360  177.3300  137.0200 C   0  0  0  0  0  1  0  0  0  0  0  0
  181.4020  177.2260  140.5900 C   0  0  1  0  0  3  0  0  0  0  0  0
  1 21  1  6  0  0  0
  1  6  1  0  0  0  0
  3 17  2  0  0  0  0
  4 22  1  0  0  0  0
  5 24  1  0  0  0  0
  5 17  1  0  0  0  0
  8  2  1  0  0  0  0
  8  7  1  1  0  0  0
  9 18  1  6  0  0  0
  9 13  1  0  0  0  0
  9 14  1  0  0  0  0
 10  8  1  0  0  0  0
 10 28  1  0  0  0  0
 12 25  1  0  0  0  0
 12 28  1  0  0  0  0
 13 26  1  0  0  0  0
 14  8  1  0  0  0  0
 15 23  1  0  0  0  0
 15 11  1  0  0  0  0
 16  1  1  0  0  0  0
 17 25  1  0  0  0  0
 19 15  1  0  0  0  0
 20  4  1  0  0  0  0
 20 16  1  0  0  0  0
 22 21  2  0  0  0  0
 23  6  1  0  0  0  0
 24 12  1  0  0  0  0
 25 19  1  0  0  0  0
 26 24  1  0  0  0  0
 26 10  1  0  0  0  0
 27  5  1  0  0  0  0
 28 16  1  0  0  0  0
M  END
>  <MODEL>
5

>  <REMARK>
 VINA RESULT:      -5.0      6.744      9.998
  Name = 
  0 active torsions:
  status: ('A' for Active; 'I' for Inactive)
                            x       y       z     vdW  Elec       q    Type
                         _______ _______ _______ _____ _____    ______ ____

>  <TORSDO>
F 0

$$$$
=
 OpenBabel11122412013D

 28 32  0  0  1  0  0  0  0  0999 V2000
  179.8580  178.1410  140.3010 C   0  0  2  0  0  3  0  0  0  0  0  0
  183.0000  180.2950  143.4100 O   0  0  0  0  0  1  0  0  0  0  0  0
  184.8380  177.8120  137.3160 C   0  0  0  0  0  2  0  0  0  0  0  0
  180.6140  175.2770  140.1770 C   0  0  0  0  0  2  0  0  0  0  0  0
  185.3370  178.6190  139.5360 N   0  0  0  0  0  0  0  0  0  0  0  0
  179.6850  179.4470  139.5240 C   0  0  0  0  0  2  0  0  0  0  0  0
  181.3900  178.6780  144.0520 C   0  0  0  0  0  1  0  0  0  0  0  0
  182.8160  178.9210  143.5920 C   0  0  1  0  0  0  0  0  0  0  0  0
  185.1270  177.9470  144.2150 C   0  0  2  0  0  3  0  0  0  0  0  0
  183.0720  178.1680  142.2670 C   0  0  2  0  0  3  0  0  0  0  0  0
  181.1060  181.6070  137.2430 C   0  0  0  0  0  1  0  0  0  0  0  0
  183.1830  179.4330  140.1510 C   0  0  1  0  0  3  0  0  0  0  0  0
  185.5230  178.6060  142.9010 C   0  0  0  0  0  2  0  0  0  0  0  0
  183.7580  178.4360  144.7040 C   0  0  0  0  0  2  0  0  0  0  0  0
  181.4700  180.4560  138.1580 C   0  0  2  0  0  3  0  0  0  0  0  0
  181.3140  177.6560  140.4320 C   0  0  2  0  0  3  0  0  0  0  0  0
  184.4960  178.4910  138.4050 C   0  0  0  0  0  0  0  0  0  0  0  0
  186.1750  178.2310  145.2690 C   0  0  0  0  0  1  0  0  0  0  0  0
  182.7170  179.9220  137.7700 O   0  0  0  0  0  0  0  0  0  0  0  0
  181.3290  176.2710  141.0860 C   0  0  0  0  0  2  0  0  0  0  0  0
  178.9310  177.0770  139.7640 C   0  0  0  0  0  3  0  0  0  0  0  0
  179.2570  175.7750  139.7540 C   0  0  0  0  0  3  0  0  0  0  0  0
  180.3490  179.4220  138.1530 C   0  0  0  0  0  2  0  0  0  0  0  0
  184.6150  179.2040  140.6510 C   0  0  1  0  0  3  0  0  0  0  0  0
  183.1110  178.9230  138.6880 C   0  0  2  0  0  3  0  0  0  0  0  0
  184.5350  178.2160  141.8010 C   0  0  2  0  0  3  0  0  0  0  0  0
  186.7660  178.3480  139.5510 C   0  0  0  0  0  1  0  0  0  0  0  0
  182.2230  178.7100  141.1150 C   0  0  1  0  0  3  0  0  0  0  0  0
  1  6  1  6  0  0  0
  1 16  1  0  0  0  0
  2  8  1  0  0  0  0
  3 17  2  0  0  0  0
  4 20  1  0  0  0  0
  5 27  1  0  0  0  0
  5 24  1  0  0  0  0
  8  7  1  1  0  0  0
  8 14  1  0  0  0  0
  9 14  1  0  0  0  0
  9 18  1  1  0  0  0
 10  8  1  0  0  0  0
 11 15  1  0  0  0  0
 12 24  1  0  0  0  0
 12 28  1  0  0  0  0
 13  9  1  0  0  0  0
 16 20  1  0  0  0  0
 16 28  1  0  0  0  0
 17 25  1  0  0  0  0
 17  5  1  0  0  0  0
 19 15  1  0  0  0  0
 19 25  1  0  0  0  0
 21  1  1  0  0  0  0
 22 21  2  0  0  0  0
 22  4  1  0  0  0  0
 23 15  1  0  0  0  0
 23  6  1  0  0  0  0
 24 26  1  0  0  0  0
 25 12  1  0  0  0  0
 26 10  1  0  0  0  0
 26 13  1  0  0  0  0
 28 10  1  0  0  0  0
M  END
>  <MODEL>
6

>  <REMARK>
 VINA RESULT:      -5.0      6.422      9.589
  Name = 
  0 active torsions:
  status: ('A' for Active; 'I' for Inactive)
                            x       y       z     vdW  Elec       q    Type
                         _______ _______ _______ _____ _____    ______ ____

>  <TORSDO>
F 0

$$$$
=
 OpenBabel11122412013D

 28 32  0  0  1  0  0  0  0  0999 V2000
  180.2810  176.5110  136.1540 C   0  0  2  0  0  3  0  0  0  0  0  0
  185.0270  175.4740  136.9180 O   0  0  0  0  0  1  0  0  0  0  0  0
  181.1590  178.9140  141.3780 C   0  0  0  0  0  2  0  0  0  0  0  0
  180.1000  179.4500  135.8060 C   0  0  0  0  0  2  0  0  0  0  0  0
  183.2920  178.1900  140.5080 N   0  0  0  0  0  0  0  0  0  0  0  0
  179.8520  175.2990  136.9820 C   0  0  0  0  0  2  0  0  0  0  0  0
  184.1590  176.3120  134.8780 C   0  0  0  0  0  1  0  0  0  0  0  0
  184.7710  176.6590  136.2230 C   0  0  1  0  0  0  0  0  0  0  0  0
  186.5120  178.3820  137.0470 C   0  0  2  0  0  3  0  0  0  0  0  0
  183.7970  177.5500  137.0250 C   0  0  2  0  0  3  0  0  0  0  0  0
  179.4850  174.0100  140.1580 C   0  0  0  0  0  1  0  0  0  0  0  0
  182.5420  176.5820  138.9170 C   0  0  1  0  0  3  0  0  0  0  0  0
  185.9160  178.0210  138.3990 C   0  0  0  0  0  2  0  0  0  0  0  0
  186.1030  177.3780  135.9610 C   0  0  0  0  0  2  0  0  0  0  0  0
  180.1700  175.1410  139.4200 C   0  0  2  0  0  3  0  0  0  0  0  0
  181.2090  177.4980  136.8890 C   0  0  2  0  0  3  0  0  0  0  0  0
  181.8890  178.0760  140.6490 C   0  0  0  0  0  0  0  0  0  0  0  0
  188.0220  178.4350  137.1470 C   0  0  0  0  0  1  0  0  0  0  0  0
  180.5680  176.1330  140.3410 O   0  0  0  0  0  0  0  0  0  0  0  0
  181.4310  178.7340  136.0110 C   0  0  0  0  0  2  0  0  0  0  0  0
  179.0800  177.1850  135.5360 C   0  0  0  0  0  3  0  0  0  0  0  0
  179.0200  178.5110  135.3360 C   0  0  0  0  0  3  0  0  0  0  0  0
  179.2480  175.6750  138.3280 C   0  0  0  0  0  2  0  0  0  0  0  0
  183.7800  177.2960  139.4750 C   0  0  1  0  0  3  0  0  0  0  0  0
  181.3040  177.1350  139.6700 C   0  0  2  0  0  3  0  0  0  0  0  0
  184.3900  178.0910  138.3350 C   0  0  2  0  0  3  0  0  0  0  0  0
  184.1590  178.9780  141.3710 C   0  0  0  0  0  1  0  0  0  0  0  0
  182.5060  176.8160  137.3940 C   0  0  1  0  0  3  0  0  0  0  0  0
  1 21  1  1  0  0  0
  1 16  1  0  0  0  0
  1  6  1  0  0  0  0
  4 20  1  0  0  0  0
  5 17  1  0  0  0  0
  5 27  1  0  0  0  0
  6 23  1  0  0  0  0
  8  7  1  6  0  0  0
  8  2  1  0  0  0  0
  8 10  1  0  0  0  0
  9 18  1  1  0  0  0
  9 13  1  0  0  0  0
 10 28  1  0  0  0  0
 10 26  1  0  0  0  0
 12 24  1  0  0  0  0
 12 25  1  0  0  0  0
 14  8  1  0  0  0  0
 14  9  1  0  0  0  0
 15 11  1  0  0  0  0
 15 19  1  0  0  0  0
 16 28  1  0  0  0  0
 17  3  2  0  0  0  0
 20 16  1  0  0  0  0
 22 21  2  0  0  0  0
 22  4  1  0  0  0  0
 23 15  1  0  0  0  0
 24  5  1  0  0  0  0
 25 19  1  0  0  0  0
 25 17  1  0  0  0  0
 26 13  1  0  0  0  0
 26 24  1  0  0  0  0
 28 12  1  0  0  0  0
M  END
>  <MODEL>
7

>  <REMARK>
 VINA RESULT:      -4.8      5.594      8.790
  Name = 
  0 active torsions:
  status: ('A' for Active; 'I' for Inactive)
                            x       y       z     vdW  Elec       q    Type
                         _______ _______ _______ _____ _____    ______ ____

>  <TORSDO>
F 0

$$$$
=
 OpenBabel11122412013D

 28 32  0  0  1  0  0  0  0  0999 V2000
  182.2100  178.7330  137.9800 C   0  0  2  0  0  3  0  0  0  0  0  0
  185.1090  175.6990  135.4150 O   0  0  0  0  0  1  0  0  0  0  0  0
  179.1110  173.8130  138.0870 C   0  0  0  0  0  2  0  0  0  0  0  0
  182.2220  177.7540  140.7780 C   0  0  0  0  0  2  0  0  0  0  0  0
  181.2690  173.3280  137.1190 N   0  0  0  0  0  0  0  0  0  0  0  0
  181.3680  179.0270  136.7370 C   0  0  0  0  0  2  0  0  0  0  0  0
  185.8820  177.1610  137.1130 C   0  0  0  0  0  1  0  0  0  0  0  0
  185.3700  175.7700  136.7860 C   0  0  1  0  0  0  0  0  0  0  0  0
  185.9810  173.3740  137.5400 C   0  0  2  0  0  3  0  0  0  0  0  0
  184.0820  175.4860  137.5910 C   0  0  2  0  0  3  0  0  0  0  0  0
  178.9340  177.8360  134.6060 C   0  0  0  0  0  1  0  0  0  0  0  0
  181.8980  175.5250  136.4430 C   0  0  1  0  0  3  0  0  0  0  0  0
  184.6230  173.0630  136.9280 C   0  0  0  0  0  2  0  0  0  0  0  0
  186.4800  174.7670  137.1320 C   0  0  0  0  0  2  0  0  0  0  0  0
  179.9000  177.3600  135.6710 C   0  0  2  0  0  3  0  0  0  0  0  0
  182.3270  177.2390  138.3410 C   0  0  2  0  0  3  0  0  0  0  0  0
  180.1700  174.1820  137.3760 C   0  0  0  0  0  0  0  0  0  0  0  0
  186.9890  172.3280  137.1150 C   0  0  0  0  0  1  0  0  0  0  0  0
  179.5080  176.0840  136.1270 O   0  0  0  0  0  0  0  0  0  0  0  0
  183.0550  177.0990  139.6820 C   0  0  0  0  0  2  0  0  0  0  0  0
  181.7590  179.5850  139.1420 C   0  0  0  0  0  3  0  0  0  0  0  0
  181.8100  179.1560  140.4120 C   0  0  0  0  0  3  0  0  0  0  0  0
  179.9830  178.3950  136.7880 C   0  0  0  0  0  2  0  0  0  0  0  0
  182.3690  174.0680  136.5310 C   0  0  1  0  0  3  0  0  0  0  0  0
  180.4670  175.5910  137.0390 C   0  0  2  0  0  3  0  0  0  0  0  0
  183.5740  174.0420  137.4550 C   0  0  2  0  0  3  0  0  0  0  0  0
  181.2580  171.8820  137.2770 C   0  0  0  0  0  1  0  0  0  0  0  0
  182.9260  176.4020  137.1830 C   0  0  1  0  0  3  0  0  0  0  0  0
  1  6  1  6  0  0  0
  1 16  1  0  0  0  0
  1 21  1  0  0  0  0
  2  8  1  0  0  0  0
  5 27  1  0  0  0  0
  5 17  1  0  0  0  0
  6 23  1  0  0  0  0
  8  7  1  1  0  0  0
  8 14  1  0  0  0  0
  8 10  1  0  0  0  0
  9 18  1  6  0  0  0
 11 15  1  0  0  0  0
 12 24  1  0  0  0  0
 12 25  1  0  0  0  0
 12 28  1  0  0  0  0
 13 26  1  0  0  0  0
 13  9  1  0  0  0  0
 14  9  1  0  0  0  0
 15 19  1  0  0  0  0
 15 23  1  0  0  0  0
 16 20  1  0  0  0  0
 17  3  2  0  0  0  0
 19 25  1  0  0  0  0
 20  4  1  0  0  0  0
 21 22  2  0  0  0  0
 22  4  1  0  0  0  0
 24  5  1  0  0  0  0
 24 26  1  0  0  0  0
 25 17  1  0  0  0  0
 26 10  1  0  0  0  0
 28 10  1  0  0  0  0
 28 16  1  0  0  0  0
M  END
>  <MODEL>
8

>  <REMARK>
 VINA RESULT:      -4.8      5.128      7.272
  Name = 
  0 active torsions:
  status: ('A' for Active; 'I' for Inactive)
                            x       y       z     vdW  Elec       q    Type
                         _______ _______ _______ _____ _____    ______ ____

>  <TORSDO>
F 0

$$$$
=
 OpenBabel11122412013D

 28 32  0  0  1  0  0  0  0  0999 V2000
  184.7280  175.1480  135.6850 C   0  0  2  0  0  3  0  0  0  0  0  0
  181.8050  178.6970  137.4300 O   0  0  0  0  0  1  0  0  0  0  0  0
  188.1140  177.5240  139.7730 C   0  0  0  0  0  2  0  0  0  0  0  0
  185.0180  173.1450  137.8520 C   0  0  0  0  0  2  0  0  0  0  0  0
  185.9130  178.5000  139.9510 N   0  0  0  0  0  0  0  0  0  0  0  0
  185.4400  176.1440  134.7690 C   0  0  0  0  0  2  0  0  0  0  0  0
  181.0960  176.4750  137.0080 C   0  0  0  0  0  1  0  0  0  0  0  0
  181.6600  177.4440  138.0310 C   0  0  1  0  0  0  0  0  0  0  0  0
  181.2610  177.8800  140.5480 C   0  0  2  0  0  3  0  0  0  0  0  0
  183.0280  176.9320  138.5360 C   0  0  2  0  0  3  0  0  0  0  0  0
  187.7470  178.6990  134.5950 C   0  0  0  0  0  1  0  0  0  0  0  0
  185.0980  178.0290  137.7620 C   0  0  1  0  0  3  0  0  0  0  0  0
  182.5770  178.6320  140.4080 C   0  0  0  0  0  2  0  0  0  0  0  0
  180.6460  177.5580  139.1800 C   0  0  0  0  0  2  0  0  0  0  0  0
  186.9070  177.9400  135.6000 C   0  0  2  0  0  3  0  0  0  0  0  0
  184.7330  175.5280  137.1790 C   0  0  2  0  0  3  0  0  0  0  0  0
  186.9770  177.9240  139.2160 C   0  0  0  0  0  0  0  0  0  0  0  0
  180.2850  178.6990  141.3650 C   0  0  0  0  0  1  0  0  0  0  0  0
  187.4140  178.1590  136.8980 O   0  0  0  0  0  0  0  0  0  0  0  0
  184.1330  174.3790  137.9950 C   0  0  0  0  0  2  0  0  0  0  0  0
  185.2260  173.7450  135.4350 C   0  0  0  0  0  3  0  0  0  0  0  0
  185.3110  172.8260  136.4090 C   0  0  0  0  0  3  0  0  0  0  0  0
  186.8600  176.4640  135.2190 C   0  0  0  0  0  2  0  0  0  0  0  0
  184.7240  178.6160  139.1290 C   0  0  1  0  0  3  0  0  0  0  0  0
  186.5680  177.5420  137.8480 C   0  0  2  0  0  3  0  0  0  0  0  0
  183.6080  177.7570  139.6950 C   0  0  2  0  0  3  0  0  0  0  0  0
  186.0240  179.0440  141.2950 C   0  0  0  0  0  1  0  0  0  0  0  0
  184.0860  176.9140  137.4320 C   0  0  1  0  0  3  0  0  0  0  0  0
  1  6  1  6  0  0  0
  1 16  1  0  0  0  0
  2  8  1  0  0  0  0
  4 20  1  0  0  0  0
  5 27  1  0  0  0  0
  6 23  1  0  0  0  0
  8  7  1  6  0  0  0
  8 10  1  0  0  0  0
  8 14  1  0  0  0  0
  9 18  1  1  0  0  0
 10 26  1  0  0  0  0
 11 15  1  0  0  0  0
 12 25  1  0  0  0  0
 12 24  1  0  0  0  0
 13  9  1  0  0  0  0
 14  9  1  0  0  0  0
 15 19  1  0  0  0  0
 16 28  1  0  0  0  0
 16 20  1  0  0  0  0
 17  3  2  0  0  0  0
 17  5  1  0  0  0  0
 19 25  1  0  0  0  0
 21  1  1  0  0  0  0
 21 22  2  0  0  0  0
 22  4  1  0  0  0  0
 23 15  1  0  0  0  0
 24 26  1  0  0  0  0
 24  5  1  0  0  0  0
 25 17  1  0  0  0  0
 26 13  1  0  0  0  0
 28 12  1  0  0  0  0
 28 10  1  0  0  0  0
M  END
>  <MODEL>
9

>  <REMARK>
 VINA RESULT:      -4.6      4.266      8.294
  Name = 
  0 active torsions:
  status: ('A' for Active; 'I' for Inactive)
                            x       y       z     vdW  Elec       q    Type
                         _______ _______ _______ _____ _____    ______ ____

>  <TORSDO>
F 0

$$$$
