=
 OpenBabel11122411083D

 31 35  0  0  1  0  0  0  0  0999 V2000
  190.0850  176.2770  142.6070 C   0  0  0  0  0  0  0  0  0  0  0  0
  186.8790  178.0650  143.6810 C   0  0  0  0  0  0  0  0  0  0  0  0
  186.8810  178.1210  145.1020 C   0  0  0  0  0  0  0  0  0  0  0  0
  187.9640  177.8240  147.2660 C   0  0  0  0  0  0  0  0  0  0  0  0
  188.0330  177.5670  142.8620 C   0  0  0  0  0  0  0  0  0  0  0  0
  190.1300  176.6010  141.2500 C   0  0  0  0  0  3  0  0  0  0  0  0
  187.9970  177.7530  145.8710 C   0  0  0  0  0  3  0  0  0  0  0  0
  185.6650  178.4510  141.4820 C   0  0  1  0  0  3  0  0  0  0  0  0
  191.0770  175.4820  143.1640 O   0  0  0  0  0  1  0  0  0  0  0  0
  184.6300  178.9710  145.0700 N   0  0  0  0  0  0  0  0  0  0  0  0
  189.1570  177.4230  148.0560 C   0  0  0  0  0  1  0  0  0  0  0  0
  187.0320  178.7360  140.8640 C   0  0  0  0  0  2  0  0  0  0  0  0
  185.7300  178.5220  142.9910 C   0  0  0  0  0  0  0  0  0  0  0  0
  189.0420  176.7540  143.4050 C   0  0  0  0  0  3  0  0  0  0  0  0
  186.8130  178.2690  147.9150 C   0  0  0  0  0  3  0  0  0  0  0  0
  188.0770  177.8640  141.4820 C   0  0  0  0  0  0  0  0  0  0  0  0
  189.1290  177.3950  140.6900 C   0  0  0  0  0  3  0  0  0  0  0  0
  184.6100  178.9450  143.7160 C   0  0  0  0  0  3  0  0  0  0  0  0
  185.7220  178.5830  145.7750 C   0  0  0  0  0  0  0  0  0  0  0  0
  185.6950  178.6500  147.1710 C   0  0  0  0  0  3  0  0  0  0  0  0
  184.7310  179.3600  140.9700 O   0  0  0  0  0  0  0  0  0  0  0  0
  183.8160  179.7360  138.7930 C   0  0  0  0  0  1  0  0  0  0  0  0
  184.1570  178.7150  139.8700 C   0  0  2  0  0  3  0  0  0  0  0  0
  180.1090  177.1190  140.1840 C   0  0  1  0  0  3  0  0  0  0  0  0
  181.8260  178.7950  140.8750 C   0  0  0  0  0  2  0  0  0  0  0  0
  183.4010  176.1360  138.7440 O   0  0  0  0  0  1  0  0  0  0  0  0
  178.9370  176.2870  140.6600 C   0  0  0  0  0  1  0  0  0  0  0  0
  180.6450  177.9520  141.3420 C   0  0  0  0  0  2  0  0  0  0  0  0
  182.4030  177.0110  139.1750 C   0  0  2  0  0  3  0  0  0  0  0  0
  182.9340  177.8980  140.3110 C   0  0  1  0  0  3  0  0  0  0  0  0
  181.2020  176.1980  139.6530 C   0  0  0  0  0  2  0  0  0  0  0  0
  1  9  1  0  0  0  0
  1 14  1  0  0  0  0
  2  3  1  0  0  0  0
  3 19  2  0  0  0  0
  3  7  1  0  0  0  0
  4 15  1  0  0  0  0
  4 11  1  0  0  0  0
  5 14  2  0  0  0  0
  5  2  1  0  0  0  0
  6  1  2  0  0  0  0
  7  4  2  0  0  0  0
  8 21  1  6  0  0  0
  8 13  1  0  0  0  0
 10 19  1  0  0  0  0
 12 16  1  0  0  0  0
 12  8  1  0  0  0  0
 13  2  2  0  0  0  0
 13 18  1  0  0  0  0
 16  5  1  0  0  0  0
 17  6  1  0  0  0  0
 17 16  2  0  0  0  0
 18 10  2  0  0  0  0
 19 20  1  0  0  0  0
 20 15  2  0  0  0  0
 23 22  1  6  0  0  0
 23 21  1  0  0  0  0
 24 27  1  1  0  0  0
 24 28  1  0  0  0  0
 25 28  1  0  0  0  0
 29 26  1  1  0  0  0
 29 31  1  0  0  0  0
 29 30  1  0  0  0  0
 30 23  1  6  0  0  0
 30 25  1  0  0  0  0
 31 24  1  0  0  0  0
M  END
>  <MODEL>
1

>  <REMARK>
 VINA RESULT:     -10.2      0.000      0.000
  Name = 
  3 active torsions:
  status: ('A' for Active; 'I' for Inactive)
    1  A    between atoms: C_5  and  O_16
    2  A    between atoms: C_5  and  C_30
    3  A    between atoms: C_10  and  O_16
                            x       y       z     vdW  Elec       q    Type
                         _______ _______ _______ _____ _____    ______ ____

>  <TORSDO>
F 3

$$$$
=
 OpenBabel11122411083D

 31 35  0  0  1  0  0  0  0  0999 V2000
  190.8040  176.5320  143.4590 C   0  0  0  0  0  0  0  0  0  0  0  0
  187.2660  177.9820  143.3460 C   0  0  0  0  0  0  0  0  0  0  0  0
  186.8040  178.0770  144.6870 C   0  0  0  0  0  0  0  0  0  0  0  0
  187.1550  177.9630  147.0970 C   0  0  0  0  0  0  0  0  0  0  0  0
  188.6650  177.5910  142.9690 C   0  0  0  0  0  0  0  0  0  0  0  0
  191.2530  176.8200  142.1700 C   0  0  0  0  0  3  0  0  0  0  0  0
  187.6430  177.8570  145.7920 C   0  0  0  0  0  3  0  0  0  0  0  0
  186.7950  178.1690  140.8550 C   0  0  1  0  0  3  0  0  0  0  0  0
  191.6350  175.8680  144.3520 O   0  0  0  0  0  1  0  0  0  0  0  0
  184.6130  178.6700  143.8890 N   0  0  0  0  0  0  0  0  0  0  0  0
  188.0610  177.7190  148.2490 C   0  0  0  0  0  1  0  0  0  0  0  0
  188.2550  178.5860  140.6880 C   0  0  0  0  0  2  0  0  0  0  0  0
  186.3630  178.2880  142.3000 C   0  0  0  0  0  0  0  0  0  0  0  0
  189.5190  176.9120  143.8530 C   0  0  0  0  0  3  0  0  0  0  0  0
  185.8190  178.2950  147.3180 C   0  0  0  0  0  3  0  0  0  0  0  0
  189.1240  177.8530  141.6590 C   0  0  0  0  0  0  0  0  0  0  0  0
  190.4140  177.4820  141.2720 C   0  0  0  0  0  3  0  0  0  0  0  0
  185.0340  178.6040  142.6030 C   0  0  0  0  0  3  0  0  0  0  0  0
  185.4520  178.4260  144.9270 C   0  0  0  0  0  0  0  0  0  0  0  0
  184.9690  178.5290  146.2350 C   0  0  0  0  0  3  0  0  0  0  0  0
  185.9940  178.9540  140.0170 O   0  0  0  0  0  0  0  0  0  0  0  0
  186.2160  178.3090  137.7260 C   0  0  0  0  0  1  0  0  0  0  0  0
  185.5020  178.0720  139.0490 C   0  0  2  0  0  3  0  0  0  0  0  0
  181.2680  178.4850  140.0150 C   0  0  1  0  0  3  0  0  0  0  0  0
  183.2470  177.0280  139.5700 C   0  0  0  0  0  2  0  0  0  0  0  0
  184.0900  180.6110  138.8340 O   0  0  0  0  0  1  0  0  0  0  0  0
  179.7710  178.6200  139.8350 C   0  0  0  0  0  1  0  0  0  0  0  0
  181.7390  177.1760  139.3940 C   0  0  0  0  0  2  0  0  0  0  0  0
  183.4820  179.5460  139.5010 C   0  0  2  0  0  3  0  0  0  0  0  0
  183.9790  178.2120  138.9270 C   0  0  1  0  0  3  0  0  0  0  0  0
  181.9680  179.6620  139.3450 C   0  0  0  0  0  2  0  0  0  0  0  0
  1 14  1  0  0  0  0
  1  9  1  0  0  0  0
  2  3  1  0  0  0  0
  3 19  2  0  0  0  0
  3  7  1  0  0  0  0
  4 15  1  0  0  0  0
  4 11  1  0  0  0  0
  5  2  1  0  0  0  0
  5 14  2  0  0  0  0
  6  1  2  0  0  0  0
  7  4  2  0  0  0  0
  8 21  1  6  0  0  0
  8 13  1  0  0  0  0
 10 19  1  0  0  0  0
 12  8  1  0  0  0  0
 12 16  1  0  0  0  0
 13 18  1  0  0  0  0
 13  2  2  0  0  0  0
 16  5  1  0  0  0  0
 17 16  2  0  0  0  0
 17  6  1  0  0  0  0
 18 10  2  0  0  0  0
 19 20  1  0  0  0  0
 20 15  2  0  0  0  0
 23 22  1  6  0  0  0
 23 21  1  0  0  0  0
 24 27  1  6  0  0  0
 28 25  1  0  0  0  0
 28 24  1  0  0  0  0
 29 26  1  6  0  0  0
 30 23  1  1  0  0  0
 30 29  1  0  0  0  0
 30 25  1  0  0  0  0
 31 29  1  0  0  0  0
 31 24  1  0  0  0  0
M  END
>  <MODEL>
2

>  <REMARK>
 VINA RESULT:      -9.9      1.317      1.830
  Name = 
  3 active torsions:
  status: ('A' for Active; 'I' for Inactive)
    1  A    between atoms: C_5  and  O_16
    2  A    between atoms: C_5  and  C_30
    3  A    between atoms: C_10  and  O_16
                            x       y       z     vdW  Elec       q    Type
                         _______ _______ _______ _____ _____    ______ ____

>  <TORSDO>
F 3

$$$$
=
 OpenBabel11122411083D

 31 35  0  0  1  0  0  0  0  0999 V2000
  186.3660  178.4070  146.7300 C   0  0  0  0  0  0  0  0  0  0  0  0
  187.5740  178.0270  143.1210 C   0  0  0  0  0  0  0  0  0  0  0  0
  188.9280  177.5960  143.1710 C   0  0  0  0  0  0  0  0  0  0  0  0
  190.8840  176.7830  144.3760 C   0  0  0  0  0  0  0  0  0  0  0  0
  186.6930  178.1570  144.3280 C   0  0  0  0  0  0  0  0  0  0  0  0
  184.9850  178.4770  146.5450 C   0  0  0  0  0  3  0  0  0  0  0  0
  189.5520  177.2040  144.3660 C   0  0  0  0  0  3  0  0  0  0  0  0
  185.5870  178.8340  141.7560 C   0  0  1  0  0  3  0  0  0  0  0  0
  186.9000  178.4910  148.0090 O   0  0  0  0  0  1  0  0  0  0  0  0
  189.1060  177.8870  140.7890 N   0  0  0  0  0  0  0  0  0  0  0  0
  191.5230  176.3780  145.6550 C   0  0  0  0  0  1  0  0  0  0  0  0
  184.6950  178.1460  142.7880 C   0  0  0  0  0  2  0  0  0  0  0  0
  187.0120  178.3380  141.8590 C   0  0  0  0  0  0  0  0  0  0  0  0
  187.2130  178.2530  145.6300 C   0  0  0  0  0  3  0  0  0  0  0  0
  191.6130  176.7420  143.1880 C   0  0  0  0  0  3  0  0  0  0  0  0
  185.2940  178.2560  144.1540 C   0  0  0  0  0  0  0  0  0  0  0  0
  184.4510  178.3990  145.2580 C   0  0  0  0  0  3  0  0  0  0  0  0
  187.8120  178.2830  140.7130 C   0  0  0  0  0  3  0  0  0  0  0  0
  189.6770  177.5400  141.9690 C   0  0  0  0  0  0  0  0  0  0  0  0
  191.0100  177.1180  141.9860 C   0  0  0  0  0  3  0  0  0  0  0  0
  185.0620  178.6140  140.4770 O   0  0  0  0  0  0  0  0  0  0  0  0
  183.4300  176.9870  139.8420 C   0  0  0  0  0  1  0  0  0  0  0  0
  183.7380  178.2140  140.6880 C   0  0  2  0  0  3  0  0  0  0  0  0
  180.5250  180.6480  139.0210 C   0  0  1  0  0  3  0  0  0  0  0  0
  182.8970  179.8700  138.9560 C   0  0  0  0  0  2  0  0  0  0  0  0
  181.2270  178.6630  142.0940 O   0  0  0  0  0  1  0  0  0  0  0  0
  179.6080  181.8290  138.7800 C   0  0  0  0  0  1  0  0  0  0  0  0
  181.9630  181.0510  138.7180 C   0  0  0  0  0  2  0  0  0  0  0  0
  181.3270  179.0150  140.7470 C   0  0  2  0  0  3  0  0  0  0  0  0
  182.7790  179.3780  140.4040 C   0  0  1  0  0  3  0  0  0  0  0  0
  180.4030  180.1990  140.4730 C   0  0  0  0  0  2  0  0  0  0  0  0
  1  9  1  0  0  0  0
  2  3  1  0  0  0  0
  2  5  1  0  0  0  0
  3  7  1  0  0  0  0
  4 11  1  0  0  0  0
  5 14  1  0  0  0  0
  6  1  1  0  0  0  0
  7  4  2  0  0  0  0
  8 21  1  6  0  0  0
  8 13  1  0  0  0  0
  8 12  1  0  0  0  0
 10 19  1  0  0  0  0
 12 16  1  0  0  0  0
 13  2  2  0  0  0  0
 14  1  2  0  0  0  0
 15  4  1  0  0  0  0
 16  5  2  0  0  0  0
 16 17  1  0  0  0  0
 17  6  2  0  0  0  0
 18 10  2  0  0  0  0
 18 13  1  0  0  0  0
 19 20  1  0  0  0  0
 19  3  2  0  0  0  0
 20 15  2  0  0  0  0
 21 23  1  0  0  0  0
 23 22  1  6  0  0  0
 24 27  1  1  0  0  0
 24 31  1  0  0  0  0
 25 30  1  0  0  0  0
 28 25  1  0  0  0  0
 28 24  1  0  0  0  0
 29 26  1  1  0  0  0
 30 23  1  6  0  0  0
 30 29  1  0  0  0  0
 31 29  1  0  0  0  0
M  END
>  <MODEL>
3

>  <REMARK>
 VINA RESULT:      -9.7      2.402      4.410
  Name = 
  3 active torsions:
  status: ('A' for Active; 'I' for Inactive)
    1  A    between atoms: C_5  and  O_16
    2  A    between atoms: C_5  and  C_30
    3  A    between atoms: C_10  and  O_16
                            x       y       z     vdW  Elec       q    Type
                         _______ _______ _______ _____ _____    ______ ____

>  <TORSDO>
F 3

$$$$
=
 OpenBabel11122411083D

 31 35  0  0  1  0  0  0  0  0999 V2000
  190.0120  176.9480  144.8910 C   0  0  0  0  0  0  0  0  0  0  0  0
  187.1310  178.1400  142.6760 C   0  0  0  0  0  0  0  0  0  0  0  0
  186.0150  178.3780  143.5240 C   0  0  0  0  0  0  0  0  0  0  0  0
  184.9950  178.5980  145.7270 C   0  0  0  0  0  0  0  0  0  0  0  0
  188.5030  177.7950  143.1760 C   0  0  0  0  0  0  0  0  0  0  0  0
  191.0960  177.0950  144.0240 C   0  0  0  0  0  3  0  0  0  0  0  0
  186.1130  178.3560  144.9250 C   0  0  0  0  0  3  0  0  0  0  0  0
  188.0950  177.9740  140.3300 C   0  0  1  0  0  3  0  0  0  0  0  0
  190.2120  176.4590  146.1750 O   0  0  0  0  0  1  0  0  0  0  0  0
  184.6220  178.7210  141.5930 N   0  0  0  0  0  0  0  0  0  0  0  0
  185.1240  178.5640  147.2070 C   0  0  0  0  0  1  0  0  0  0  0  0
  189.4170  178.4590  140.9210 C   0  0  0  0  0  2  0  0  0  0  0  0
  186.9480  178.2500  141.2760 C   0  0  0  0  0  0  0  0  0  0  0  0
  188.7260  177.2920  144.4680 C   0  0  0  0  0  3  0  0  0  0  0  0
  183.7600  178.8700  145.1400 C   0  0  0  0  0  3  0  0  0  0  0  0
  189.6050  177.9150  142.3010 C   0  0  0  0  0  0  0  0  0  0  0  0
  190.8920  177.5800  142.7320 C   0  0  0  0  0  3  0  0  0  0  0  0
  185.6740  178.5170  140.7640 C   0  0  0  0  0  3  0  0  0  0  0  0
  184.7560  178.6670  142.9410 C   0  0  0  0  0  0  0  0  0  0  0  0
  183.6410  178.9060  143.7490 C   0  0  0  0  0  3  0  0  0  0  0  0
  187.8930  178.5910  139.0900 O   0  0  0  0  0  0  0  0  0  0  0  0
  189.0740  178.9720  137.0470 C   0  0  0  0  0  1  0  0  0  0  0  0
  188.8800  178.0620  138.2520 C   0  0  2  0  0  3  0  0  0  0  0  0
  188.4670  174.3510  135.9960 C   0  0  1  0  0  3  0  0  0  0  0  0
  187.5740  176.5910  136.6460 C   0  0  0  0  0  2  0  0  0  0  0  0
  190.5800  175.7450  138.7290 O   0  0  0  0  0  1  0  0  0  0  0  0
  188.0880  172.9260  135.6530 C   0  0  0  0  0  1  0  0  0  0  0  0
  187.2070  175.1530  136.2990 C   0  0  0  0  0  2  0  0  0  0  0  0
  189.7790  175.7790  137.5870 C   0  0  2  0  0  3  0  0  0  0  0  0
  188.5240  176.6240  137.8500 C   0  0  1  0  0  3  0  0  0  0  0  0
  189.3900  174.3520  137.2100 C   0  0  0  0  0  2  0  0  0  0  0  0
  1  9  1  0  0  0  0
  2  5  1  0  0  0  0
  2  3  1  0  0  0  0
  3  7  1  0  0  0  0
  4 11  1  0  0  0  0
  5 14  2  0  0  0  0
  6  1  2  0  0  0  0
  7  4  2  0  0  0  0
  8 21  1  6  0  0  0
  8 12  1  0  0  0  0
  8 13  1  0  0  0  0
 10 19  1  0  0  0  0
 12 16  1  0  0  0  0
 13  2  2  0  0  0  0
 14  1  1  0  0  0  0
 15  4  1  0  0  0  0
 16 17  2  0  0  0  0
 16  5  1  0  0  0  0
 17  6  1  0  0  0  0
 18 13  1  0  0  0  0
 18 10  2  0  0  0  0
 19  3  2  0  0  0  0
 19 20  1  0  0  0  0
 20 15  2  0  0  0  0
 23 22  1  6  0  0  0
 23 21  1  0  0  0  0
 24 27  1  1  0  0  0
 24 28  1  0  0  0  0
 24 31  1  0  0  0  0
 25 30  1  0  0  0  0
 28 25  1  0  0  0  0
 29 30  1  0  0  0  0
 29 26  1  1  0  0  0
 30 23  1  6  0  0  0
 31 29  1  0  0  0  0
M  END
>  <MODEL>
4

>  <REMARK>
 VINA RESULT:      -9.6      2.967      5.088
  Name = 
  3 active torsions:
  status: ('A' for Active; 'I' for Inactive)
    1  A    between atoms: C_5  and  O_16
    2  A    between atoms: C_5  and  C_30
    3  A    between atoms: C_10  and  O_16
                            x       y       z     vdW  Elec       q    Type
                         _______ _______ _______ _____ _____    ______ ____

>  <TORSDO>
F 3

$$$$
=
 OpenBabel11122411083D

 31 35  0  0  1  0  0  0  0  0999 V2000
  190.1780  176.7800  146.0210 C   0  0  0  0  0  0  0  0  0  0  0  0
  187.9570  177.8620  143.1020 C   0  0  0  0  0  0  0  0  0  0  0  0
  186.6770  178.1750  143.6360 C   0  0  0  0  0  0  0  0  0  0  0  0
  185.1630  178.5620  145.5070 C   0  0  0  0  0  0  0  0  0  0  0  0
  189.1550  177.5310  143.9410 C   0  0  0  0  0  0  0  0  0  0  0  0
  191.4430  176.8500  145.4360 C   0  0  0  0  0  3  0  0  0  0  0  0
  186.4330  178.2480  145.0180 C   0  0  0  0  0  3  0  0  0  0  0  0
  189.4530  177.5200  141.0760 C   0  0  1  0  0  3  0  0  0  0  0  0
  190.0460  176.3780  147.3440 O   0  0  0  0  0  1  0  0  0  0  0  0
  185.8030  178.4060  141.4070 N   0  0  0  0  0  0  0  0  0  0  0  0
  184.9290  178.6280  146.9730 C   0  0  0  0  0  1  0  0  0  0  0  0
  190.6080  178.0240  141.9390 C   0  0  0  0  0  2  0  0  0  0  0  0
  188.1210  177.8790  141.6950 C   0  0  0  0  0  0  0  0  0  0  0  0
  189.0440  177.1140  145.2780 C   0  0  0  0  0  3  0  0  0  0  0  0
  184.1150  178.8120  144.6210 C   0  0  0  0  0  3  0  0  0  0  0  0
  190.4400  177.5730  143.3540 C   0  0  0  0  0  0  0  0  0  0  0  0
  191.5730  177.2490  144.1050 C   0  0  0  0  0  3  0  0  0  0  0  0
  187.0170  178.1300  140.8730 C   0  0  0  0  0  3  0  0  0  0  0  0
  185.6060  178.4430  142.7480 C   0  0  0  0  0  0  0  0  0  0  0  0
  184.3370  178.7550  143.2440 C   0  0  0  0  0  3  0  0  0  0  0  0
  189.5760  178.0530  139.7870 O   0  0  0  0  0  0  0  0  0  0  0  0
  191.3050  176.8780  138.6280 C   0  0  0  0  0  1  0  0  0  0  0  0
  189.8200  176.9540  138.9570 C   0  0  2  0  0  3  0  0  0  0  0  0
  186.3760  177.2140  136.2920 C   0  0  1  0  0  3  0  0  0  0  0  0
  187.9980  175.8290  137.5930 C   0  0  0  0  0  2  0  0  0  0  0  0
  189.0550  179.4310  137.6280 O   0  0  0  0  0  1  0  0  0  0  0  0
  185.5610  177.2850  135.0180 C   0  0  0  0  0  1  0  0  0  0  0  0
  187.1720  175.9140  136.3140 C   0  0  0  0  0  2  0  0  0  0  0  0
  188.1670  178.3540  137.6280 C   0  0  2  0  0  3  0  0  0  0  0  0
  188.9440  177.0310  137.7000 C   0  0  1  0  0  3  0  0  0  0  0  0
  187.3230  178.4070  136.3570 C   0  0  0  0  0  2  0  0  0  0  0  0
  1  9  1  0  0  0  0
  2  3  1  0  0  0  0
  2  5  1  0  0  0  0
  3  7  1  0  0  0  0
  4 11  1  0  0  0  0
  5 14  1  0  0  0  0
  6  1  1  0  0  0  0
  7  4  2  0  0  0  0
  8 21  1  6  0  0  0
  8 13  1  0  0  0  0
  8 12  1  0  0  0  0
 10 19  1  0  0  0  0
 12 16  1  0  0  0  0
 13  2  2  0  0  0  0
 14  1  2  0  0  0  0
 15  4  1  0  0  0  0
 16  5  2  0  0  0  0
 16 17  1  0  0  0  0
 17  6  2  0  0  0  0
 18 10  2  0  0  0  0
 18 13  1  0  0  0  0
 19 20  1  0  0  0  0
 19  3  2  0  0  0  0
 20 15  2  0  0  0  0
 23 22  1  6  0  0  0
 23 21  1  0  0  0  0
 24 27  1  6  0  0  0
 24 28  1  0  0  0  0
 24 31  1  0  0  0  0
 25 30  1  0  0  0  0
 28 25  1  0  0  0  0
 29 26  1  6  0  0  0
 29 30  1  0  0  0  0
 30 23  1  1  0  0  0
 31 29  1  0  0  0  0
M  END
>  <MODEL>
5

>  <REMARK>
 VINA RESULT:      -9.5      3.226      5.083
  Name = 
  3 active torsions:
  status: ('A' for Active; 'I' for Inactive)
    1  A    between atoms: C_5  and  O_16
    2  A    between atoms: C_5  and  C_30
    3  A    between atoms: C_10  and  O_16
                            x       y       z     vdW  Elec       q    Type
                         _______ _______ _______ _____ _____    ______ ____

>  <TORSDO>
F 3

$$$$
=
 OpenBabel11122411083D

 31 35  0  0  1  0  0  0  0  0999 V2000
  190.2790  176.3780  142.7550 C   0  0  0  0  0  0  0  0  0  0  0  0
  186.8210  178.0070  142.6270 C   0  0  0  0  0  0  0  0  0  0  0  0
  186.3490  178.1060  143.9640 C   0  0  0  0  0  0  0  0  0  0  0  0
  186.6660  177.9390  146.3750 C   0  0  0  0  0  0  0  0  0  0  0  0
  188.2020  177.5520  142.2580 C   0  0  0  0  0  0  0  0  0  0  0  0
  190.7570  176.6620  141.4750 C   0  0  0  0  0  3  0  0  0  0  0  0
  187.1630  177.8280  145.0750 C   0  0  0  0  0  3  0  0  0  0  0  0
  186.3880  178.2550  140.1340 C   0  0  1  0  0  3  0  0  0  0  0  0
  191.0650  175.6590  143.6460 O   0  0  0  0  0  1  0  0  0  0  0  0
  184.2000  178.8220  143.1520 N   0  0  0  0  0  0  0  0  0  0  0  0
  187.5460  177.6330  147.5330 C   0  0  0  0  0  1  0  0  0  0  0  0
  187.8690  178.6000  139.9880 C   0  0  0  0  0  2  0  0  0  0  0  0
  185.9460  178.3750  141.5760 C   0  0  0  0  0  0  0  0  0  0  0  0
  189.0100  176.8170  143.1410 C   0  0  0  0  0  3  0  0  0  0  0  0
  185.3460  178.3360  146.5870 C   0  0  0  0  0  3  0  0  0  0  0  0
  188.6880  177.8090  140.9570 C   0  0  0  0  0  0  0  0  0  0  0  0
  189.9630  177.3780  140.5790 C   0  0  0  0  0  3  0  0  0  0  0  0
  184.6320  178.7540  141.8700 C   0  0  0  0  0  3  0  0  0  0  0  0
  185.0130  178.5200  144.1950 C   0  0  0  0  0  0  0  0  0  0  0  0
  184.5220  178.6280  145.4990 C   0  0  0  0  0  3  0  0  0  0  0  0
  185.6370  179.0920  139.3000 O   0  0  0  0  0  0  0  0  0  0  0  0
  184.2820  177.3160  138.4500 C   0  0  0  0  0  1  0  0  0  0  0  0
  185.3780  178.3310  138.1550 C   0  0  2  0  0  3  0  0  0  0  0  0
  188.3110  176.3100  135.6360 C   0  0  1  0  0  3  0  0  0  0  0  0
  186.4490  176.1950  137.2970 C   0  0  0  0  0  2  0  0  0  0  0  0
  187.5560  179.7530  136.8430 O   0  0  0  0  0  1  0  0  0  0  0  0
  189.6080  175.6680  135.1920 C   0  0  0  0  0  1  0  0  0  0  0  0
  187.7570  175.5580  136.8400 C   0  0  0  0  0  2  0  0  0  0  0  0
  187.2750  178.4380  136.4670 C   0  0  2  0  0  3  0  0  0  0  0  0
  186.6680  177.6700  137.6510 C   0  0  1  0  0  3  0  0  0  0  0  0
  188.5660  177.7680  136.0040 C   0  0  0  0  0  2  0  0  0  0  0  0
  1 14  1  0  0  0  0
  1  9  1  0  0  0  0
  2  3  1  0  0  0  0
  3 19  2  0  0  0  0
  3  7  1  0  0  0  0
  4 15  1  0  0  0  0
  4 11  1  0  0  0  0
  5  2  1  0  0  0  0
  5 14  2  0  0  0  0
  6  1  2  0  0  0  0
  7  4  2  0  0  0  0
  8 21  1  6  0  0  0
  8 13  1  0  0  0  0
 10 19  1  0  0  0  0
 12  8  1  0  0  0  0
 12 16  1  0  0  0  0
 13 18  1  0  0  0  0
 13  2  2  0  0  0  0
 16  5  1  0  0  0  0
 17 16  2  0  0  0  0
 17  6  1  0  0  0  0
 18 10  2  0  0  0  0
 19 20  1  0  0  0  0
 20 15  2  0  0  0  0
 23 22  1  1  0  0  0
 23 21  1  0  0  0  0
 24 27  1  1  0  0  0
 24 31  1  0  0  0  0
 24 28  1  0  0  0  0
 25 30  1  0  0  0  0
 28 25  1  0  0  0  0
 29 26  1  1  0  0  0
 29 30  1  0  0  0  0
 30 23  1  6  0  0  0
 31 29  1  0  0  0  0
M  END
>  <MODEL>
6

>  <REMARK>
 VINA RESULT:      -9.4      2.579      4.247
  Name = 
  3 active torsions:
  status: ('A' for Active; 'I' for Inactive)
    1  A    between atoms: C_5  and  O_16
    2  A    between atoms: C_5  and  C_30
    3  A    between atoms: C_10  and  O_16
                            x       y       z     vdW  Elec       q    Type
                         _______ _______ _______ _____ _____    ______ ____

>  <TORSDO>
F 3

$$$$
=
 OpenBabel11122411083D

 31 35  0  0  1  0  0  0  0  0999 V2000
  191.2990  176.4630  144.8790 C   0  0  0  0  0  0  0  0  0  0  0  0
  187.9750  177.7340  143.4790 C   0  0  0  0  0  0  0  0  0  0  0  0
  187.1230  178.0010  144.5850 C   0  0  0  0  0  0  0  0  0  0  0  0
  186.7140  178.2460  146.9760 C   0  0  0  0  0  0  0  0  0  0  0  0
  189.4200  177.3520  143.6080 C   0  0  0  0  0  0  0  0  0  0  0  0
  192.1240  176.5820  143.7600 C   0  0  0  0  0  3  0  0  0  0  0  0
  187.5790  177.9750  145.9130 C   0  0  0  0  0  3  0  0  0  0  0  0
  188.2940  177.5450  140.9640 C   0  0  1  0  0  3  0  0  0  0  0  0
  191.8120  175.9670  146.0710 O   0  0  0  0  0  1  0  0  0  0  0  0
  185.2870  178.3830  143.0780 N   0  0  0  0  0  0  0  0  0  0  0  0
  187.2210  178.2070  148.3720 C   0  0  0  0  0  1  0  0  0  0  0  0
  189.7360  177.9940  141.1890 C   0  0  0  0  0  2  0  0  0  0  0  0
  187.4390  177.8510  142.1730 C   0  0  0  0  0  0  0  0  0  0  0  0
  189.9570  176.8410  144.8010 C   0  0  0  0  0  3  0  0  0  0  0  0
  185.3770  178.5510  146.7270 C   0  0  0  0  0  3  0  0  0  0  0  0
  190.2610  177.4430  142.4770 C   0  0  0  0  0  0  0  0  0  0  0  0
  191.6060  177.0740  142.5620 C   0  0  0  0  0  3  0  0  0  0  0  0
  186.0830  178.1530  142.0060 C   0  0  0  0  0  3  0  0  0  0  0  0
  185.7640  178.3240  144.3460 C   0  0  0  0  0  0  0  0  0  0  0  0
  184.9030  178.5930  145.4140 C   0  0  0  0  0  3  0  0  0  0  0  0
  187.7930  178.1690  139.8150 O   0  0  0  0  0  0  0  0  0  0  0  0
  188.7310  178.9910  137.7750 C   0  0  0  0  0  1  0  0  0  0  0  0
  188.7140  177.8700  138.8050 C   0  0  2  0  0  3  0  0  0  0  0  0
  188.2660  174.5990  135.9540 C   0  0  1  0  0  3  0  0  0  0  0  0
  187.3270  176.6170  137.0870 C   0  0  0  0  0  2  0  0  0  0  0  0
  190.5790  175.6350  138.6840 O   0  0  0  0  0  1  0  0  0  0  0  0
  187.9310  173.2340  135.3910 C   0  0  0  0  0  1  0  0  0  0  0  0
  187.0030  175.2400  136.5170 C   0  0  0  0  0  2  0  0  0  0  0  0
  189.6600  175.8130  137.6490 C   0  0  2  0  0  3  0  0  0  0  0  0
  188.3960  176.5050  138.1810 C   0  0  1  0  0  3  0  0  0  0  0  0
  189.3110  174.4510  137.0540 C   0  0  0  0  0  2  0  0  0  0  0  0
  1  9  1  0  0  0  0
  2  5  1  0  0  0  0
  2  3  1  0  0  0  0
  3  7  1  0  0  0  0
  4 11  1  0  0  0  0
  5 14  2  0  0  0  0
  6  1  2  0  0  0  0
  7  4  2  0  0  0  0
  8 21  1  6  0  0  0
  8 12  1  0  0  0  0
  8 13  1  0  0  0  0
 10 19  1  0  0  0  0
 12 16  1  0  0  0  0
 13  2  2  0  0  0  0
 14  1  1  0  0  0  0
 15  4  1  0  0  0  0
 16 17  2  0  0  0  0
 16  5  1  0  0  0  0
 17  6  1  0  0  0  0
 18 13  1  0  0  0  0
 18 10  2  0  0  0  0
 19  3  2  0  0  0  0
 19 20  1  0  0  0  0
 20 15  2  0  0  0  0
 23 22  1  6  0  0  0
 23 21  1  0  0  0  0
 24 27  1  1  0  0  0
 24 28  1  0  0  0  0
 24 31  1  0  0  0  0
 25 30  1  0  0  0  0
 28 25  1  0  0  0  0
 29 30  1  0  0  0  0
 29 26  1  1  0  0  0
 30 23  1  6  0  0  0
 31 29  1  0  0  0  0
M  END
>  <MODEL>
7

>  <REMARK>
 VINA RESULT:      -9.3      3.181      4.769
  Name = 
  3 active torsions:
  status: ('A' for Active; 'I' for Inactive)
    1  A    between atoms: C_5  and  O_16
    2  A    between atoms: C_5  and  C_30
    3  A    between atoms: C_10  and  O_16
                            x       y       z     vdW  Elec       q    Type
                         _______ _______ _______ _____ _____    ______ ____

>  <TORSDO>
F 3

$$$$
=
 OpenBabel11122411083D

 31 35  0  0  1  0  0  0  0  0999 V2000
  184.5490  178.6160  139.6730 C   0  0  0  0  0  0  0  0  0  0  0  0
  188.2800  177.8230  139.3810 C   0  0  0  0  0  0  0  0  0  0  0  0
  188.5720  177.6640  137.9990 C   0  0  0  0  0  0  0  0  0  0  0  0
  187.9680  177.8060  135.6420 C   0  0  0  0  0  0  0  0  0  0  0  0
  186.9520  178.2810  139.9080 C   0  0  0  0  0  0  0  0  0  0  0  0
  184.4770  179.0860  140.9850 C   0  0  0  0  0  3  0  0  0  0  0  0
  187.6450  177.9710  136.9900 C   0  0  0  0  0  3  0  0  0  0  0  0
  189.0320  177.6720  141.8050 C   0  0  1  0  0  3  0  0  0  0  0  0
  183.4010  178.5490  138.8950 O   0  0  0  0  0  1  0  0  0  0  0  0
  190.7880  176.9090  138.5560 N   0  0  0  0  0  0  0  0  0  0  0  0
  186.9670  178.1330  134.5940 C   0  0  0  0  0  1  0  0  0  0  0  0
  188.0850  178.8350  142.0920 C   0  0  0  0  0  2  0  0  0  0  0  0
  189.3030  177.5510  140.3210 C   0  0  0  0  0  0  0  0  0  0  0  0
  185.7770  178.2130  139.1410 C   0  0  0  0  0  3  0  0  0  0  0  0
  189.2290  177.3330  135.2790 C   0  0  0  0  0  3  0  0  0  0  0  0
  186.8590  178.7340  141.2430 C   0  0  0  0  0  0  0  0  0  0  0  0
  185.6310  179.1460  141.7670 C   0  0  0  0  0  3  0  0  0  0  0  0
  190.5400  177.0700  139.8780 C   0  0  0  0  0  3  0  0  0  0  0  0
  189.8540  177.1950  137.6160 C   0  0  0  0  0  0  0  0  0  0  0  0
  190.1710  177.0300  136.2640 C   0  0  0  0  0  3  0  0  0  0  0  0
  190.2180  177.8570  142.5260 O   0  0  0  0  0  0  0  0  0  0  0  0
  189.3730  175.6790  143.0330 C   0  0  0  0  0  1  0  0  0  0  0  0
  190.2090  176.8600  143.5070 C   0  0  2  0  0  3  0  0  0  0  0  0
  188.5440  177.2090  147.5240 C   0  0  1  0  0  3  0  0  0  0  0  0
  188.2160  177.1720  145.0480 C   0  0  0  0  0  2  0  0  0  0  0  0
  191.8790  177.2340  145.8640 O   0  0  0  0  0  1  0  0  0  0  0  0
  188.0680  177.8280  148.8210 C   0  0  0  0  0  1  0  0  0  0  0  0
  187.7460  177.7880  146.3620 C   0  0  0  0  0  2  0  0  0  0  0  0
  190.5330  176.9020  146.0270 C   0  0  2  0  0  3  0  0  0  0  0  0
  189.7130  177.4310  144.8420 C   0  0  1  0  0  3  0  0  0  0  0  0
  190.0280  177.5050  147.3360 C   0  0  0  0  0  2  0  0  0  0  0  0
  1  6  1  0  0  0  0
  2  5  1  0  0  0  0
  2 13  1  0  0  0  0
  3  2  2  0  0  0  0
  4  7  2  0  0  0  0
  5 16  2  0  0  0  0
  6 17  2  0  0  0  0
  7  3  1  0  0  0  0
  8 12  1  0  0  0  0
  8 21  1  1  0  0  0
  9  1  1  0  0  0  0
 10 18  1  0  0  0  0
 11  4  1  0  0  0  0
 13  8  1  0  0  0  0
 14  1  2  0  0  0  0
 14  5  1  0  0  0  0
 15  4  1  0  0  0  0
 15 20  2  0  0  0  0
 16 17  1  0  0  0  0
 16 12  1  0  0  0  0
 18 13  2  0  0  0  0
 19  3  1  0  0  0  0
 19 10  2  0  0  0  0
 20 19  1  0  0  0  0
 21 23  1  0  0  0  0
 23 22  1  6  0  0  0
 24 27  1  1  0  0  0
 25 28  1  0  0  0  0
 28 24  1  0  0  0  0
 29 26  1  6  0  0  0
 29 31  1  0  0  0  0
 30 23  1  6  0  0  0
 30 25  1  0  0  0  0
 30 29  1  0  0  0  0
 31 24  1  0  0  0  0
M  END
>  <MODEL>
8

>  <REMARK>
 VINA RESULT:      -9.2      3.007      8.578
  Name = 
  3 active torsions:
  status: ('A' for Active; 'I' for Inactive)
    1  A    between atoms: C_5  and  O_16
    2  A    between atoms: C_5  and  C_30
    3  A    between atoms: C_10  and  O_16
                            x       y       z     vdW  Elec       q    Type
                         _______ _______ _______ _____ _____    ______ ____

>  <TORSDO>
F 3

$$$$
=
 OpenBabel11122411083D

 31 35  0  0  1  0  0  0  0  0999 V2000
  184.9580  179.0010  145.6300 C   0  0  0  0  0  0  0  0  0  0  0  0
  186.1360  178.4610  142.0320 C   0  0  0  0  0  0  0  0  0  0  0  0
  187.5120  178.1070  142.0850 C   0  0  0  0  0  0  0  0  0  0  0  0
  189.5260  177.4760  143.3060 C   0  0  0  0  0  0  0  0  0  0  0  0
  185.2660  178.6190  143.2430 C   0  0  0  0  0  0  0  0  0  0  0  0
  183.5730  178.9850  145.4640 C   0  0  0  0  0  3  0  0  0  0  0  0
  188.1730  177.8240  143.2920 C   0  0  0  0  0  3  0  0  0  0  0  0
  184.0900  179.0730  140.6530 C   0  0  1  0  0  3  0  0  0  0  0  0
  185.5040  179.1940  146.8930 O   0  0  0  0  0  1  0  0  0  0  0  0
  187.6420  178.2570  139.6870 N   0  0  0  0  0  0  0  0  0  0  0  0
  190.2030  177.1870  144.5960 C   0  0  0  0  0  1  0  0  0  0  0  0
  183.2510  178.4050  141.7400 C   0  0  0  0  0  2  0  0  0  0  0  0
  185.5420  178.6620  140.7620 C   0  0  0  0  0  0  0  0  0  0  0  0
  185.7970  178.8230  144.5280 C   0  0  0  0  0  3  0  0  0  0  0  0
  190.2400  177.4010  142.1100 C   0  0  0  0  0  3  0  0  0  0  0  0
  183.8620  178.6320  143.0860 C   0  0  0  0  0  0  0  0  0  0  0  0
  183.0260  178.7980  144.1940 C   0  0  0  0  0  3  0  0  0  0  0  0
  186.3280  178.5780  139.6090 C   0  0  0  0  0  3  0  0  0  0  0  0
  188.2470  178.0160  140.8770 C   0  0  0  0  0  0  0  0  0  0  0  0
  189.6010  177.6680  140.8980 C   0  0  0  0  0  3  0  0  0  0  0  0
  183.5610  178.7460  139.3990 O   0  0  0  0  0  0  0  0  0  0  0  0
  181.5420  177.7630  138.5810 C   0  0  0  0  0  1  0  0  0  0  0  0
  182.1750  178.7190  139.5820 C   0  0  2  0  0  3  0  0  0  0  0  0
  179.7390  182.1520  138.4340 C   0  0  1  0  0  3  0  0  0  0  0  0
  181.7490  180.7150  138.0700 C   0  0  0  0  0  2  0  0  0  0  0  0
  180.0340  179.7510  141.2670 O   0  0  0  0  0  1  0  0  0  0  0  0
  179.2110  183.5700  138.3760 C   0  0  0  0  0  1  0  0  0  0  0  0
  181.2050  182.1380  138.0160 C   0  0  0  0  0  2  0  0  0  0  0  0
  180.1340  180.1900  139.9460 C   0  0  2  0  0  3  0  0  0  0  0  0
  181.5970  180.1380  139.4830 C   0  0  1  0  0  3  0  0  0  0  0  0
  179.5970  181.6160  139.8540 C   0  0  0  0  0  2  0  0  0  0  0  0
  1  9  1  0  0  0  0
  2  3  1  0  0  0  0
  2  5  1  0  0  0  0
  3  7  1  0  0  0  0
  4 11  1  0  0  0  0
  5 14  1  0  0  0  0
  6  1  1  0  0  0  0
  7  4  2  0  0  0  0
  8 21  1  6  0  0  0
  8 13  1  0  0  0  0
  8 12  1  0  0  0  0
 10 19  1  0  0  0  0
 12 16  1  0  0  0  0
 13  2  2  0  0  0  0
 14  1  2  0  0  0  0
 15  4  1  0  0  0  0
 16  5  2  0  0  0  0
 16 17  1  0  0  0  0
 17  6  2  0  0  0  0
 18 10  2  0  0  0  0
 18 13  1  0  0  0  0
 19 20  1  0  0  0  0
 19  3  2  0  0  0  0
 20 15  2  0  0  0  0
 21 23  1  0  0  0  0
 23 22  1  6  0  0  0
 24 27  1  1  0  0  0
 24 31  1  0  0  0  0
 25 30  1  0  0  0  0
 28 25  1  0  0  0  0
 28 24  1  0  0  0  0
 29 26  1  1  0  0  0
 30 23  1  6  0  0  0
 30 29  1  0  0  0  0
 31 29  1  0  0  0  0
M  END
>  <MODEL>
9

>  <REMARK>
 VINA RESULT:      -9.1      2.712      4.957
  Name = 
  3 active torsions:
  status: ('A' for Active; 'I' for Inactive)
    1  A    between atoms: C_5  and  O_16
    2  A    between atoms: C_5  and  C_30
    3  A    between atoms: C_10  and  O_16
                            x       y       z     vdW  Elec       q    Type
                         _______ _______ _______ _____ _____    ______ ____

>  <TORSDO>
F 3

$$$$
