=
 OpenBabel11122410443D

 32 37  0  0  1  0  0  0  0  0999 V2000
  181.4650  179.0090  140.4530 C   0  0  0  0  0  2  0  0  0  0  0  0
  186.2770  178.2630  142.8810 C   0  0  0  0  0  0  0  0  0  0  0  0
  190.0400  177.3930  139.7290 C   0  0  0  0  0  2  0  0  0  0  0  0
  190.9990  177.4960  140.9020 C   0  0  0  0  0  2  0  0  0  0  0  0
  186.8500  178.2850  145.3730 C   0  0  0  0  0  0  0  0  0  0  0  0
  187.6910  177.8490  146.3220 C   0  0  0  0  0  0  0  0  0  0  0  0
  184.0590  178.5100  141.9620 N   0  0  2  0  0  0  0  0  0  0  0  0
  186.0200  178.6260  140.4790 C   0  0  0  0  0  2  0  0  0  0  0  0
  189.4960  176.8880  147.1880 N   0  0  0  0  0  0  0  0  0  0  0  0
  183.7820  178.4320  139.4950 C   0  0  0  0  0  2  0  0  0  0  0  0
  188.8280  178.2750  140.0080 C   0  0  0  0  0  2  0  0  0  0  0  0
  186.8180  178.3130  141.5100 C   0  0  0  0  0  0  0  0  0  0  0  0
  188.1980  177.9660  141.3010 N   0  0  0  0  0  0  0  0  0  0  0  0
  188.5160  177.5140  143.6750 C   0  0  0  0  0  0  0  0  0  0  0  0
  188.7190  177.3150  148.2060 C   0  0  0  0  0  3  0  0  0  0  0  0
  181.8550  178.0010  141.3440 O   0  0  0  0  0  0  0  0  0  0  0  0
  184.5760  178.9980  140.6680 C   0  0  1  0  0  3  0  0  0  0  0  0
  187.5710  177.9280  147.7030 C   0  0  0  0  0  3  0  0  0  0  0  0
  182.6460  178.6540  142.2960 C   0  0  0  0  0  2  0  0  0  0  0  0
  182.4600  179.1760  139.2930 C   0  0  1  0  0  3  0  0  0  0  0  0
  190.3540  176.8860  142.1360 C   0  0  0  0  0  2  0  0  0  0  0  0
  188.9980  177.4900  142.4130 C   0  0  0  0  0  0  0  0  0  0  0  0
  189.3450  177.0380  144.8100 C   0  0  0  0  0  3  0  0  0  0  0  0
  184.9530  178.3160  143.0630 C   0  0  0  0  0  2  0  0  0  0  0  0
  185.6360  179.0680  145.7710 C   0  0  0  0  0  1  0  0  0  0  0  0
  190.7770  176.2150  147.3300 C   0  0  0  0  0  1  0  0  0  0  0  0
  187.1930  178.0470  143.9750 N   0  0  0  0  0  0  0  0  0  0  0  0
  188.8770  177.2200  146.0440 C   0  0  0  0  0  0  0  0  0  0  0  0
  181.8360  178.7510  138.0490 N   0  0  0  0  0  2  0  0  0  0  0  0
  181.2200  179.6810  137.1570 C   0  0  0  0  0  0  0  0  0  0  0  0
  181.1740  180.9070  137.4390 O   0  0  0  0  0  0  0  0  0  0  0  0
  180.6230  179.1980  135.8850 C   0  0  0  0  0  1  0  0  0  0  0  0
  1 16  1  0  0  0  0
  2 24  1  0  0  0  0
  2 27  1  0  0  0  0
  3 11  1  0  0  0  0
  3  4  1  0  0  0  0
  4 21  1  0  0  0  0
  5 25  1  0  0  0  0
  5  6  2  0  0  0  0
  6 18  1  0  0  0  0
  7 19  1  1  0  0  0
  7 24  1  0  0  0  0
  8 17  1  0  0  0  0
  8 12  1  0  0  0  0
  9 26  1  0  0  0  0
  9 15  1  0  0  0  0
 11 13  1  0  0  0  0
 12  2  2  0  0  0  0
 13 12  1  0  0  0  0
 13 22  1  0  0  0  0
 14 27  1  0  0  0  0
 14 23  1  0  0  0  0
 16 19  1  0  0  0  0
 17 10  1  6  0  0  0
 17  7  1  0  0  0  0
 18 15  2  0  0  0  0
 20 29  1  6  0  0  0
 20 10  1  0  0  0  0
 20  1  1  0  0  0  0
 21 22  1  0  0  0  0
 22 14  2  0  0  0  0
 23 28  2  0  0  0  0
 27  5  1  0  0  0  0
 28  6  1  0  0  0  0
 28  9  1  0  0  0  0
 30 31  2  0  0  0  0
 30 29  1  0  0  0  0
 32 30  1  0  0  0  0
M  END
>  <MODEL>
1

>  <REMARK>
 VINA RESULT:     -10.5      0.000      0.000
  Name = 
  1 active torsions:
  status: ('A' for Active; 'I' for Inactive)
    1  A    between atoms: C_20  and  N_29
                            x       y       z     vdW  Elec       q    Type
                         _______ _______ _______ _____ _____    ______ ____

>  <TORSDO>
F 1

$$$$
=
 OpenBabel11122410443D

 32 37  0  0  1  0  0  0  0  0999 V2000
  189.8180  176.5170  136.4260 C   0  0  0  0  0  2  0  0  0  0  0  0
  188.3680  177.6270  141.5510 C   0  0  0  0  0  0  0  0  0  0  0  0
  191.8560  176.5320  144.9410 C   0  0  0  0  0  2  0  0  0  0  0  0
  190.9990  177.2170  145.9910 C   0  0  0  0  0  2  0  0  0  0  0  0
  186.1760  178.6020  142.4350 C   0  0  0  0  0  0  0  0  0  0  0  0
  185.3440  178.6920  143.4840 C   0  0  0  0  0  0  0  0  0  0  0  0
  188.8220  177.0930  139.2420 N   0  0  2  0  0  0  0  0  0  0  0  0
  190.6570  177.1000  140.8810 C   0  0  0  0  0  2  0  0  0  0  0  0
  184.6420  178.4670  145.5780 N   0  0  0  0  0  0  0  0  0  0  0  0
  191.0380  176.1350  138.6580 C   0  0  0  0  0  2  0  0  0  0  0  0
  191.5950  177.1900  143.5910 C   0  0  0  0  0  2  0  0  0  0  0  0
  189.7760  177.3220  141.8670 C   0  0  0  0  0  0  0  0  0  0  0  0
  190.1650  177.2130  143.2480 N   0  0  0  0  0  0  0  0  0  0  0  0
  187.8880  177.6610  143.9950 C   0  0  0  0  0  0  0  0  0  0  0  0
  183.6530  179.0430  144.8640 C   0  0  0  0  0  3  0  0  0  0  0  0
  188.7750  175.9690  137.1840 O   0  0  0  0  0  0  0  0  0  0  0  0
  190.2810  177.2120  139.4300 C   0  0  1  0  0  3  0  0  0  0  0  0
  184.0540  179.2040  143.5380 C   0  0  0  0  0  3  0  0  0  0  0  0
  188.2500  177.0510  137.9000 C   0  0  0  0  0  2  0  0  0  0  0  0
  191.1600  176.4820  137.1730 C   0  0  1  0  0  3  0  0  0  0  0  0
  189.5320  176.9400  145.7040 C   0  0  0  0  0  2  0  0  0  0  0  0
  189.1600  177.3120  144.2890 C   0  0  0  0  0  0  0  0  0  0  0  0
  186.8690  177.7730  145.0680 C   0  0  0  0  0  3  0  0  0  0  0  0
  187.9310  177.4680  140.2970 C   0  0  0  0  0  2  0  0  0  0  0  0
  185.7750  179.2090  141.1260 C   0  0  0  0  0  1  0  0  0  0  0  0
  184.5870  178.1570  146.9970 C   0  0  0  0  0  1  0  0  0  0  0  0
  187.4820  177.9830  142.6340 N   0  0  0  0  0  0  0  0  0  0  0  0
  185.6720  178.2610  144.7430 C   0  0  0  0  0  0  0  0  0  0  0  0
  192.0610  175.5470  136.5180 N   0  0  0  0  0  2  0  0  0  0  0  0
  193.4740  175.7510  136.4910 C   0  0  0  0  0  0  0  0  0  0  0  0
  193.9850  176.7740  137.0180 O   0  0  0  0  0  0  0  0  0  0  0  0
  194.3530  174.7490  135.8330 C   0  0  0  0  0  1  0  0  0  0  0  0
  1 20  1  0  0  0  0
  1 16  1  0  0  0  0
  2 12  2  0  0  0  0
  2 27  1  0  0  0  0
  3  4  1  0  0  0  0
  5 27  1  0  0  0  0
  5  6  2  0  0  0  0
  6 18  1  0  0  0  0
  6 28  1  0  0  0  0
  7 19  1  6  0  0  0
  7 17  1  0  0  0  0
  7 24  1  0  0  0  0
  8 12  1  0  0  0  0
  9 26  1  0  0  0  0
 11  3  1  0  0  0  0
 12 13  1  0  0  0  0
 13 11  1  0  0  0  0
 13 22  1  0  0  0  0
 14 22  2  0  0  0  0
 14 23  1  0  0  0  0
 15  9  1  0  0  0  0
 16 19  1  0  0  0  0
 17 10  1  6  0  0  0
 17  8  1  0  0  0  0
 18 15  2  0  0  0  0
 20 29  1  6  0  0  0
 20 10  1  0  0  0  0
 21  4  1  0  0  0  0
 22 21  1  0  0  0  0
 24  2  1  0  0  0  0
 25  5  1  0  0  0  0
 27 14  1  0  0  0  0
 28 23  2  0  0  0  0
 28  9  1  0  0  0  0
 30 29  1  0  0  0  0
 30 31  2  0  0  0  0
 32 30  1  0  0  0  0
M  END
>  <MODEL>
2

>  <REMARK>
 VINA RESULT:     -10.5      3.680      6.787
  Name = 
  1 active torsions:
  status: ('A' for Active; 'I' for Inactive)
    1  A    between atoms: C_20  and  N_29
                            x       y       z     vdW  Elec       q    Type
                         _______ _______ _______ _____ _____    ______ ____

>  <TORSDO>
F 1

$$$$
=
 OpenBabel11122410443D

 32 37  0  0  1  0  0  0  0  0999 V2000
  189.2940  177.5040  145.7850 C   0  0  0  0  0  2  0  0  0  0  0  0
  190.1050  177.1460  140.4170 C   0  0  0  0  0  0  0  0  0  0  0  0
  185.9690  177.6910  137.6880 C   0  0  0  0  0  2  0  0  0  0  0  0
  186.8370  177.7110  136.4420 C   0  0  0  0  0  2  0  0  0  0  0  0
  192.2780  176.7280  139.1360 C   0  0  0  0  0  0  0  0  0  0  0  0
  192.8270  176.2580  138.0060 C   0  0  0  0  0  0  0  0  0  0  0  0
  189.8920  177.1740  142.8210 N   0  0  2  0  0  0  0  0  0  0  0  0
  188.0340  177.9690  141.4160 C   0  0  0  0  0  2  0  0  0  0  0  0
  192.9120  175.4800  135.9280 N   0  0  0  0  0  0  0  0  0  0  0  0
  187.6500  177.5860  143.8090 C   0  0  0  0  0  2  0  0  0  0  0  0
  186.7740  178.2520  138.8540 C   0  0  0  0  0  2  0  0  0  0  0  0
  188.7030  177.5920  140.3180 C   0  0  0  0  0  0  0  0  0  0  0  0
  188.0580  177.5580  139.0320 N   0  0  0  0  0  0  0  0  0  0  0  0
  190.0650  176.6660  137.9730 C   0  0  0  0  0  0  0  0  0  0  0  0
  194.1710  175.5250  136.4100 C   0  0  0  0  0  3  0  0  0  0  0  0
  189.7580  176.4150  145.0350 O   0  0  0  0  0  0  0  0  0  0  0  0
  188.6820  178.0190  142.7720 C   0  0  1  0  0  3  0  0  0  0  0  0
  194.1630  176.0110  137.7180 C   0  0  0  0  0  3  0  0  0  0  0  0
  190.6070  176.9790  144.0770 C   0  0  0  0  0  2  0  0  0  0  0  0
  188.0010  178.1000  145.2060 C   0  0  1  0  0  3  0  0  0  0  0  0
  187.9920  176.7380  136.6160 C   0  0  0  0  0  2  0  0  0  0  0  0
  188.7600  177.0070  137.8880 C   0  0  0  0  0  0  0  0  0  0  0  0
  190.7800  176.1150  136.7950 C   0  0  0  0  0  3  0  0  0  0  0  0
  190.6320  176.9130  141.6240 C   0  0  0  0  0  2  0  0  0  0  0  0
  193.1680  177.1690  140.2570 C   0  0  0  0  0  1  0  0  0  0  0  0
  192.5350  175.0410  134.5940 C   0  0  0  0  0  1  0  0  0  0  0  0
  190.8270  176.8680  139.1980 N   0  0  0  0  0  0  0  0  0  0  0  0
  192.0960  175.9340  136.8930 C   0  0  0  0  0  0  0  0  0  0  0  0
  186.8960  177.8490  146.1190 N   0  0  0  0  0  2  0  0  0  0  0  0
  185.6650  178.5680  146.0300 C   0  0  0  0  0  0  0  0  0  0  0  0
  185.5100  179.4710  145.1660 O   0  0  0  0  0  0  0  0  0  0  0  0
  184.5570  178.2530  146.9680 C   0  0  0  0  0  1  0  0  0  0  0  0
  2 24  1  0  0  0  0
  3 11  1  0  0  0  0
  4 21  1  0  0  0  0
  4  3  1  0  0  0  0
  5 27  1  0  0  0  0
  5 25  1  0  0  0  0
  6  5  2  0  0  0  0
  7 24  1  6  0  0  0
  7 19  1  0  0  0  0
  9 15  1  0  0  0  0
  9 28  1  0  0  0  0
 10 20  1  0  0  0  0
 11 13  1  0  0  0  0
 12  2  2  0  0  0  0
 12  8  1  0  0  0  0
 13 12  1  0  0  0  0
 14 27  1  0  0  0  0
 15 18  2  0  0  0  0
 16  1  1  0  0  0  0
 17  8  1  6  0  0  0
 17  7  1  0  0  0  0
 17 10  1  0  0  0  0
 18  6  1  0  0  0  0
 19 16  1  0  0  0  0
 20  1  1  0  0  0  0
 20 29  1  1  0  0  0
 21 22  1  0  0  0  0
 22 14  2  0  0  0  0
 22 13  1  0  0  0  0
 23 28  2  0  0  0  0
 23 14  1  0  0  0  0
 26  9  1  0  0  0  0
 27  2  1  0  0  0  0
 28  6  1  0  0  0  0
 30 29  1  0  0  0  0
 30 32  1  0  0  0  0
 31 30  2  0  0  0  0
M  END
>  <MODEL>
3

>  <REMARK>
 VINA RESULT:      -8.5      3.527      8.154
  Name = 
  1 active torsions:
  status: ('A' for Active; 'I' for Inactive)
    1  A    between atoms: C_20  and  N_29
                            x       y       z     vdW  Elec       q    Type
                         _______ _______ _______ _____ _____    ______ ____

>  <TORSDO>
F 1

$$$$
=
 OpenBabel11122410443D

 32 37  0  0  1  0  0  0  0  0999 V2000
  190.2720  176.6640  136.3490 C   0  0  0  0  0  2  0  0  0  0  0  0
  186.9310  177.9940  140.4330 C   0  0  0  0  0  0  0  0  0  0  0  0
  188.8800  177.3080  144.9700 C   0  0  0  0  0  2  0  0  0  0  0  0
  187.6650  178.0040  145.5580 C   0  0  0  0  0  2  0  0  0  0  0  0
  184.5390  178.8910  140.3360 C   0  0  0  0  0  0  0  0  0  0  0  0
  183.3650  178.9950  140.9780 C   0  0  0  0  0  0  0  0  0  0  0  0
  188.2530  177.3490  138.5190 N   0  0  2  0  0  0  0  0  0  0  0  0
  189.3170  177.5610  140.7290 C   0  0  0  0  0  2  0  0  0  0  0  0
  181.9200  178.8560  142.6580 N   0  0  0  0  0  0  0  0  0  0  0  0
  190.5510  176.4880  138.9010 C   0  0  0  0  0  2  0  0  0  0  0  0
  189.1380  177.8670  143.5760 C   0  0  0  0  0  2  0  0  0  0  0  0
  188.1180  177.7900  141.2840 C   0  0  0  0  0  0  0  0  0  0  0  0
  187.9500  177.7860  142.7130 N   0  0  0  0  0  0  0  0  0  0  0  0
  185.5480  178.1460  142.4990 C   0  0  0  0  0  0  0  0  0  0  0  0
  181.2630  179.3300  141.5780 C   0  0  0  0  0  3  0  0  0  0  0  0
  189.0350  176.1030  136.6940 O   0  0  0  0  0  0  0  0  0  0  0  0
  189.5240  177.5630  139.2400 C   0  0  1  0  0  3  0  0  0  0  0  0
  182.1390  179.4340  140.4970 C   0  0  0  0  0  3  0  0  0  0  0  0
  188.2420  177.1930  137.0690 C   0  0  0  0  0  2  0  0  0  0  0  0
  191.2240  176.7520  137.5520 C   0  0  1  0  0  3  0  0  0  0  0  0
  186.4300  177.6250  144.7560 C   0  0  0  0  0  2  0  0  0  0  0  0
  186.6190  177.8900  143.2810 C   0  0  0  0  0  0  0  0  0  0  0  0
  184.1920  178.2630  143.0910 C   0  0  0  0  0  3  0  0  0  0  0  0
  187.0140  177.7340  139.1240 C   0  0  0  0  0  2  0  0  0  0  0  0
  184.6530  179.3940  138.9300 C   0  0  0  0  0  1  0  0  0  0  0  0
  181.3330  178.6290  143.9690 C   0  0  0  0  0  1  0  0  0  0  0  0
  185.6860  178.3610  141.0650 N   0  0  0  0  0  0  0  0  0  0  0  0
  183.1980  178.6600  142.2970 C   0  0  0  0  0  0  0  0  0  0  0  0
  192.3360  175.8320  137.3640 N   0  0  0  0  0  2  0  0  0  0  0  0
  193.5340  175.9270  138.1360 C   0  0  0  0  0  0  0  0  0  0  0  0
  193.6750  176.8380  138.9940 O   0  0  0  0  0  0  0  0  0  0  0  0
  194.6280  174.9440  137.9250 C   0  0  0  0  0  1  0  0  0  0  0  0
  1 16  1  0  0  0  0
  1 20  1  0  0  0  0
  2 27  1  0  0  0  0
  2 12  2  0  0  0  0
  3  4  1  0  0  0  0
  5  6  2  0  0  0  0
  5 27  1  0  0  0  0
  6 28  1  0  0  0  0
  7 19  1  6  0  0  0
  7 24  1  0  0  0  0
  7 17  1  0  0  0  0
  8 12  1  0  0  0  0
  9 26  1  0  0  0  0
 11  3  1  0  0  0  0
 12 13  1  0  0  0  0
 13 22  1  0  0  0  0
 13 11  1  0  0  0  0
 14 23  1  0  0  0  0
 14 22  2  0  0  0  0
 15  9  1  0  0  0  0
 16 19  1  0  0  0  0
 17 10  1  1  0  0  0
 17  8  1  0  0  0  0
 18  6  1  0  0  0  0
 18 15  2  0  0  0  0
 20 29  1  6  0  0  0
 20 10  1  0  0  0  0
 21  4  1  0  0  0  0
 22 21  1  0  0  0  0
 24  2  1  0  0  0  0
 25  5  1  0  0  0  0
 27 14  1  0  0  0  0
 28  9  1  0  0  0  0
 28 23  2  0  0  0  0
 29 30  1  0  0  0  0
 30 31  2  0  0  0  0
 32 30  1  0  0  0  0
M  END
>  <MODEL>
4

>  <REMARK>
 VINA RESULT:      -8.4      3.438      7.630
  Name = 
  1 active torsions:
  status: ('A' for Active; 'I' for Inactive)
    1  A    between atoms: C_20  and  N_29
                            x       y       z     vdW  Elec       q    Type
                         _______ _______ _______ _____ _____    ______ ____

>  <TORSDO>
F 1

$$$$
=
 OpenBabel11122410443D

 32 37  0  0  1  0  0  0  0  0999 V2000
  192.7460  175.0370  135.2970 C   0  0  0  0  0  2  0  0  0  0  0  0
  189.5900  177.2790  139.1200 C   0  0  0  0  0  0  0  0  0  0  0  0
  191.6490  177.3910  143.6580 C   0  0  0  0  0  2  0  0  0  0  0  0
  190.4820  178.2420  144.1280 C   0  0  0  0  0  2  0  0  0  0  0  0
  187.2340  178.2470  138.9050 C   0  0  0  0  0  0  0  0  0  0  0  0
  186.0860  178.5260  139.5410 C   0  0  0  0  0  0  0  0  0  0  0  0
  190.8250  176.2190  137.3380 N   0  0  2  0  0  0  0  0  0  0  0  0
  191.9640  176.8030  139.4400 C   0  0  0  0  0  2  0  0  0  0  0  0
  184.6880  178.7790  141.2480 N   0  0  0  0  0  0  0  0  0  0  0  0
  193.0980  175.3440  137.8270 C   0  0  0  0  0  2  0  0  0  0  0  0
  191.8860  177.6600  142.1770 C   0  0  0  0  0  2  0  0  0  0  0  0
  190.7940  177.1890  139.9670 C   0  0  0  0  0  0  0  0  0  0  0  0
  190.6690  177.4680  141.3730 N   0  0  0  0  0  0  0  0  0  0  0  0
  188.2790  177.8890  141.1480 C   0  0  0  0  0  0  0  0  0  0  0  0
  184.0180  179.0660  140.1130 C   0  0  0  0  0  3  0  0  0  0  0  0
  191.4990  174.6100  135.7710 O   0  0  0  0  0  0  0  0  0  0  0  0
  192.1250  176.5090  137.9740 C   0  0  1  0  0  3  0  0  0  0  0  0
  184.8640  178.9200  139.0120 C   0  0  0  0  0  3  0  0  0  0  0  0
  190.7630  175.7870  135.9460 C   0  0  0  0  0  2  0  0  0  0  0  0
  193.7390  175.3120  136.4380 C   0  0  1  0  0  3  0  0  0  0  0  0
  189.2080  177.7720  143.4430 C   0  0  0  0  0  2  0  0  0  0  0  0
  189.3630  177.7390  141.9410 C   0  0  0  0  0  0  0  0  0  0  0  0
  186.9470  178.1790  141.7360 C   0  0  0  0  0  3  0  0  0  0  0  0
  189.6210  176.7680  137.8840 C   0  0  0  0  0  2  0  0  0  0  0  0
  187.3250  178.4650  137.4260 C   0  0  0  0  0  1  0  0  0  0  0  0
  184.1340  178.8350  142.5910 C   0  0  0  0  0  1  0  0  0  0  0  0
  188.3810  177.8170  139.6970 N   0  0  0  0  0  0  0  0  0  0  0  0
  185.9450  178.4600  140.9030 C   0  0  0  0  0  0  0  0  0  0  0  0
  194.8060  174.3240  136.4060 N   0  0  0  0  0  2  0  0  0  0  0  0
  196.1750  174.6960  136.2370 C   0  0  0  0  0  0  0  0  0  0  0  0
  196.4980  175.9030  136.0810 O   0  0  0  0  0  0  0  0  0  0  0  0
  197.2300  173.6490  136.2420 C   0  0  0  0  0  1  0  0  0  0  0  0
  1 16  1  0  0  0  0
  1 20  1  0  0  0  0
  2 27  1  0  0  0  0
  2 12  2  0  0  0  0
  3  4  1  0  0  0  0
  5  6  2  0  0  0  0
  5 27  1  0  0  0  0
  6 28  1  0  0  0  0
  7 19  1  6  0  0  0
  7 24  1  0  0  0  0
  7 17  1  0  0  0  0
  8 12  1  0  0  0  0
  9 26  1  0  0  0  0
 11  3  1  0  0  0  0
 12 13  1  0  0  0  0
 13 22  1  0  0  0  0
 13 11  1  0  0  0  0
 14 23  1  0  0  0  0
 14 22  2  0  0  0  0
 15  9  1  0  0  0  0
 16 19  1  0  0  0  0
 17 10  1  1  0  0  0
 17  8  1  0  0  0  0
 18  6  1  0  0  0  0
 18 15  2  0  0  0  0
 20 29  1  1  0  0  0
 20 10  1  0  0  0  0
 21  4  1  0  0  0  0
 22 21  1  0  0  0  0
 24  2  1  0  0  0  0
 25  5  1  0  0  0  0
 27 14  1  0  0  0  0
 28  9  1  0  0  0  0
 28 23  2  0  0  0  0
 30 32  1  0  0  0  0
 30 29  1  0  0  0  0
 31 30  2  0  0  0  0
M  END
>  <MODEL>
5

>  <REMARK>
 VINA RESULT:      -8.3      4.916      8.951
  Name = 
  1 active torsions:
  status: ('A' for Active; 'I' for Inactive)
    1  A    between atoms: C_20  and  N_29
                            x       y       z     vdW  Elec       q    Type
                         _______ _______ _______ _____ _____    ______ ____

>  <TORSDO>
F 1

$$$$
=
 OpenBabel11122410443D

 32 37  0  0  1  0  0  0  0  0999 V2000
  182.1460  179.2210  140.2870 C   0  0  0  0  0  2  0  0  0  0  0  0
  187.3260  177.7990  141.1580 C   0  0  0  0  0  0  0  0  0  0  0  0
  188.6570  177.7830  145.9620 C   0  0  0  0  0  2  0  0  0  0  0  0
  189.9790  177.1540  145.5560 C   0  0  0  0  0  2  0  0  0  0  0  0
  189.1330  177.1650  139.4640 C   0  0  0  0  0  0  0  0  0  0  0  0
  190.4500  177.1110  139.2140 C   0  0  0  0  0  0  0  0  0  0  0  0
  185.0880  178.5110  140.6010 N   0  0  2  0  0  0  0  0  0  0  0  0
  185.6520  177.9520  142.9310 C   0  0  0  0  0  2  0  0  0  0  0  0
  192.6290  177.2120  139.6300 N   0  0  0  0  0  0  0  0  0  0  0  0
  183.5320  179.0880  142.4500 C   0  0  0  0  0  2  0  0  0  0  0  0
  187.5860  177.3560  144.9650 C   0  0  0  0  0  2  0  0  0  0  0  0
  186.9360  177.7870  142.5800 C   0  0  0  0  0  0  0  0  0  0  0  0
  187.9660  177.6510  143.5750 N   0  0  0  0  0  0  0  0  0  0  0  0
  189.7020  177.5630  141.8660 C   0  0  0  0  0  0  0  0  0  0  0  0
  192.4650  176.9280  138.3210 C   0  0  0  0  0  3  0  0  0  0  0  0
  183.3190  179.8640  139.8670 O   0  0  0  0  0  0  0  0  0  0  0  0
  184.5550  178.0920  141.9130 C   0  0  1  0  0  3  0  0  0  0  0  0
  191.1050  176.8540  138.0170 C   0  0  0  0  0  3  0  0  0  0  0  0
  184.1820  178.8250  139.5010 C   0  0  0  0  0  2  0  0  0  0  0  0
  182.1630  178.9060  141.7910 C   0  0  1  0  0  3  0  0  0  0  0  0
  190.4310  177.7410  144.2280 C   0  0  0  0  0  2  0  0  0  0  0  0
  189.3580  177.6220  143.1720 C   0  0  0  0  0  0  0  0  0  0  0  0
  191.1290  177.5200  141.4620 C   0  0  0  0  0  3  0  0  0  0  0  0
  186.4350  178.1900  140.2400 C   0  0  0  0  0  2  0  0  0  0  0  0
  188.1650  176.8090  138.3780 C   0  0  0  0  0  1  0  0  0  0  0  0
  193.9070  177.3530  140.3090 C   0  0  0  0  0  1  0  0  0  0  0  0
  188.6940  177.4930  140.8170 N   0  0  0  0  0  0  0  0  0  0  0  0
  191.4070  177.3150  140.1750 C   0  0  0  0  0  0  0  0  0  0  0  0
  181.1720  179.7220  142.4730 N   0  0  0  0  0  2  0  0  0  0  0  0
  179.9530  179.1710  142.9730 C   0  0  0  0  0  0  0  0  0  0  0  0
  179.6860  177.9510  142.8110 O   0  0  0  0  0  0  0  0  0  0  0  0
  178.9870  180.0440  143.6890 C   0  0  0  0  0  1  0  0  0  0  0  0
  1 20  1  0  0  0  0
  2 12  2  0  0  0  0
  4  3  1  0  0  0  0
  5 27  1  0  0  0  0
  6  5  2  0  0  0  0
  6 28  1  0  0  0  0
  7 19  1  6  0  0  0
  7 17  1  0  0  0  0
  9 28  1  0  0  0  0
  9 26  1  0  0  0  0
 11  3  1  0  0  0  0
 12  8  1  0  0  0  0
 12 13  1  0  0  0  0
 13 11  1  0  0  0  0
 14 22  2  0  0  0  0
 15  9  1  0  0  0  0
 16  1  1  0  0  0  0
 17 10  1  1  0  0  0
 17  8  1  0  0  0  0
 18 15  2  0  0  0  0
 18  6  1  0  0  0  0
 19 16  1  0  0  0  0
 20 10  1  0  0  0  0
 20 29  1  1  0  0  0
 21  4  1  0  0  0  0
 22 13  1  0  0  0  0
 22 21  1  0  0  0  0
 23 14  1  0  0  0  0
 24  7  1  0  0  0  0
 24  2  1  0  0  0  0
 25  5  1  0  0  0  0
 27  2  1  0  0  0  0
 27 14  1  0  0  0  0
 28 23  2  0  0  0  0
 29 30  1  0  0  0  0
 30 32  1  0  0  0  0
 31 30  2  0  0  0  0
M  END
>  <MODEL>
6

>  <REMARK>
 VINA RESULT:      -8.3      1.980      5.333
  Name = 
  1 active torsions:
  status: ('A' for Active; 'I' for Inactive)
    1  A    between atoms: C_20  and  N_29
                            x       y       z     vdW  Elec       q    Type
                         _______ _______ _______ _____ _____    ______ ____

>  <TORSDO>
F 1

$$$$
=
 OpenBabel11122410443D

 32 37  0  0  1  0  0  0  0  0999 V2000
  192.0950  175.9520  143.8970 C   0  0  0  0  0  2  0  0  0  0  0  0
  187.1870  177.7960  142.4420 C   0  0  0  0  0  0  0  0  0  0  0  0
  184.1040  178.6300  146.2700 C   0  0  0  0  0  2  0  0  0  0  0  0
  183.1270  179.2670  145.2980 C   0  0  0  0  0  2  0  0  0  0  0  0
  186.2670  178.2680  140.1040 C   0  0  0  0  0  0  0  0  0  0  0  0
  185.1660  178.3610  139.3420 C   0  0  0  0  0  0  0  0  0  0  0  0
  189.3670  176.8750  142.9190 N   0  0  2  0  0  0  0  0  0  0  0  0
  188.0090  177.8190  144.7430 C   0  0  0  0  0  2  0  0  0  0  0  0
  183.0010  178.4550  138.8580 N   0  0  0  0  0  0  0  0  0  0  0  0
  190.0030  176.4990  145.2900 C   0  0  0  0  0  2  0  0  0  0  0  0
  185.5200  178.8350  145.7450 C   0  0  0  0  0  2  0  0  0  0  0  0
  186.9920  178.0040  143.8890 C   0  0  0  0  0  0  0  0  0  0  0  0
  185.6790  178.3520  144.3640 N   0  0  0  0  0  0  0  0  0  0  0  0
  184.7670  178.2800  142.1050 C   0  0  0  0  0  0  0  0  0  0  0  0
  183.6930  178.5240  137.7010 C   0  0  0  0  0  3  0  0  0  0  0  0
  191.1120  175.3230  143.1210 O   0  0  0  0  0  0  0  0  0  0  0  0
  189.3920  177.4590  144.2750 C   0  0  1  0  0  3  0  0  0  0  0  0
  185.0630  178.4690  137.9620 C   0  0  0  0  0  3  0  0  0  0  0  0
  190.5860  176.3430  142.3200 C   0  0  0  0  0  2  0  0  0  0  0  0
  191.5310  176.4960  145.2190 C   0  0  1  0  0  3  0  0  0  0  0  0
  183.1620  178.5100  143.9790 C   0  0  0  0  0  2  0  0  0  0  0  0
  184.5670  178.4020  143.4360 C   0  0  0  0  0  0  0  0  0  0  0  0
  183.6240  178.3440  141.1600 C   0  0  0  0  0  3  0  0  0  0  0  0
  188.3130  177.2160  142.0120 C   0  0  0  0  0  2  0  0  0  0  0  0
  187.6150  178.3940  139.4640 C   0  0  0  0  0  1  0  0  0  0  0  0
  181.5530  178.4960  138.9780 C   0  0  0  0  0  1  0  0  0  0  0  0
  186.1040  178.1270  141.5470 N   0  0  0  0  0  0  0  0  0  0  0  0
  183.8950  178.3640  139.8550 C   0  0  0  0  0  0  0  0  0  0  0  0
  192.0780  175.7360  146.3330 N   0  0  0  0  0  2  0  0  0  0  0  0
  192.1400  176.2720  147.6560 C   0  0  0  0  0  0  0  0  0  0  0  0
  191.7430  177.4440  147.8920 O   0  0  0  0  0  0  0  0  0  0  0  0
  192.6810  175.4430  148.7640 C   0  0  0  0  0  1  0  0  0  0  0  0
  1 20  1  0  0  0  0
  2 12  2  0  0  0  0
  4  3  1  0  0  0  0
  5 27  1  0  0  0  0
  6 28  1  0  0  0  0
  6  5  2  0  0  0  0
  7 24  1  6  0  0  0
  7 17  1  0  0  0  0
  9 26  1  0  0  0  0
  9 28  1  0  0  0  0
 11  3  1  0  0  0  0
 12 13  1  0  0  0  0
 12  8  1  0  0  0  0
 13 11  1  0  0  0  0
 14 22  2  0  0  0  0
 15 18  2  0  0  0  0
 15  9  1  0  0  0  0
 16  1  1  0  0  0  0
 17  8  1  1  0  0  0
 17 10  1  0  0  0  0
 18  6  1  0  0  0  0
 19  7  1  0  0  0  0
 19 16  1  0  0  0  0
 20 10  1  0  0  0  0
 20 29  1  1  0  0  0
 21  4  1  0  0  0  0
 22 21  1  0  0  0  0
 22 13  1  0  0  0  0
 23 14  1  0  0  0  0
 24  2  1  0  0  0  0
 25  5  1  0  0  0  0
 27 14  1  0  0  0  0
 27  2  1  0  0  0  0
 28 23  2  0  0  0  0
 29 30  1  0  0  0  0
 30 31  2  0  0  0  0
 30 32  1  0  0  0  0
M  END
>  <MODEL>
7

>  <REMARK>
 VINA RESULT:      -7.8      3.311      9.143
  Name = 
  1 active torsions:
  status: ('A' for Active; 'I' for Inactive)
    1  A    between atoms: C_20  and  N_29
                            x       y       z     vdW  Elec       q    Type
                         _______ _______ _______ _____ _____    ______ ____

>  <TORSDO>
F 1

$$$$
=
 OpenBabel11122410443D

 32 37  0  0  1  0  0  0  0  0999 V2000
  191.3610  176.8430  146.2220 C   0  0  0  0  0  2  0  0  0  0  0  0
  189.6730  177.3650  141.0750 C   0  0  0  0  0  0  0  0  0  0  0  0
  184.9300  178.8320  140.6220 C   0  0  0  0  0  2  0  0  0  0  0  0
  185.1560  178.9810  139.1280 C   0  0  0  0  0  2  0  0  0  0  0  0
  190.9580  176.9500  138.9040 C   0  0  0  0  0  0  0  0  0  0  0  0
  190.8670  176.6330  137.6040 C   0  0  0  0  0  0  0  0  0  0  0  0
  190.5380  176.9860  143.2970 N   0  0  2  0  0  0  0  0  0  0  0  0
  188.4270  178.2150  142.9960 C   0  0  0  0  0  2  0  0  0  0  0  0
  189.8980  176.2350  135.6460 N   0  0  0  0  0  0  0  0  0  0  0  0
  189.0630  177.4540  145.2400 C   0  0  0  0  0  2  0  0  0  0  0  0
  186.2480  179.0860  141.3440 C   0  0  0  0  0  2  0  0  0  0  0  0
  188.4710  177.9700  141.6790 C   0  0  0  0  0  0  0  0  0  0  0  0
  187.3360  178.2370  140.8360 N   0  0  0  0  0  0  0  0  0  0  0  0
  188.4880  177.3370  138.8850 C   0  0  0  0  0  0  0  0  0  0  0  0
  191.2280  176.0560  135.5000 C   0  0  0  0  0  3  0  0  0  0  0  0
  191.2500  175.8620  145.2270 O   0  0  0  0  0  0  0  0  0  0  0  0
  189.5980  177.9510  143.9010 C   0  0  1  0  0  3  0  0  0  0  0  0
  191.8770  176.2980  136.7110 C   0  0  0  0  0  3  0  0  0  0  0  0
  191.6820  176.4930  144.0550 C   0  0  0  0  0  2  0  0  0  0  0  0
  190.0730  177.6690  146.3690 C   0  0  1  0  0  3  0  0  0  0  0  0
  186.0800  177.8740  138.6450 C   0  0  0  0  0  2  0  0  0  0  0  0
  187.3600  177.8260  139.4450 C   0  0  0  0  0  0  0  0  0  0  0  0
  188.5070  176.9310  137.4570 C   0  0  0  0  0  3  0  0  0  0  0  0
  190.6230  176.8640  141.8730 C   0  0  0  0  0  2  0  0  0  0  0  0
  192.3100  177.0850  139.5340 C   0  0  0  0  0  1  0  0  0  0  0  0
  188.9060  176.0840  134.5940 C   0  0  0  0  0  1  0  0  0  0  0  0
  189.7300  177.2330  139.6390 N   0  0  0  0  0  0  0  0  0  0  0  0
  189.6800  176.5940  136.9210 C   0  0  0  0  0  0  0  0  0  0  0  0
  189.4510  177.3800  147.6520 N   0  0  0  0  0  2  0  0  0  0  0  0
  188.1540  177.8740  147.9910 C   0  0  0  0  0  0  0  0  0  0  0  0
  187.5160  178.6060  147.1890 O   0  0  0  0  0  0  0  0  0  0  0  0
  187.5520  177.5250  149.3040 C   0  0  0  0  0  1  0  0  0  0  0  0
  1 20  1  0  0  0  0
  2 12  2  0  0  0  0
  2 24  1  0  0  0  0
  3 11  1  0  0  0  0
  4  3  1  0  0  0  0
  5 25  1  0  0  0  0
  5 27  1  0  0  0  0
  6  5  2  0  0  0  0
  7 24  1  6  0  0  0
  7 17  1  0  0  0  0
  7 19  1  0  0  0  0
  9 28  1  0  0  0  0
 10 20  1  0  0  0  0
 12  8  1  0  0  0  0
 13 11  1  0  0  0  0
 13 12  1  0  0  0  0
 14 22  2  0  0  0  0
 14 27  1  0  0  0  0
 15  9  1  0  0  0  0
 15 18  2  0  0  0  0
 16  1  1  0  0  0  0
 17  8  1  6  0  0  0
 17 10  1  0  0  0  0
 18  6  1  0  0  0  0
 19 16  1  0  0  0  0
 20 29  1  1  0  0  0
 21  4  1  0  0  0  0
 21 22  1  0  0  0  0
 22 13  1  0  0  0  0
 23 14  1  0  0  0  0
 26  9  1  0  0  0  0
 27  2  1  0  0  0  0
 28 23  2  0  0  0  0
 28  6  1  0  0  0  0
 29 30  1  0  0  0  0
 30 32  1  0  0  0  0
 31 30  2  0  0  0  0
M  END
>  <MODEL>
8

>  <REMARK>
 VINA RESULT:      -7.6      3.505      8.844
  Name = 
  1 active torsions:
  status: ('A' for Active; 'I' for Inactive)
    1  A    between atoms: C_20  and  N_29
                            x       y       z     vdW  Elec       q    Type
                         _______ _______ _______ _____ _____    ______ ____

>  <TORSDO>
F 1

$$$$
