=
 OpenBabel11122411543D

 28 32  0  0  1  0  0  0  0  0999 V2000
  180.1090  178.0840  141.9830 C   0  0  0  0  0  0  0  0  0  0  0  0
  180.5070  180.8700  139.5550 O   0  0  0  0  0  0  0  0  0  0  0  0
  181.6400  174.3360  137.1030 O   0  0  0  0  0  0  0  0  0  0  0  0
  182.2620  178.9950  143.5280 C   0  0  0  0  0  3  0  0  0  0  0  0
  183.5030  175.7000  137.8570 C   0  0  2  0  0  3  0  0  0  0  0  0
  178.9520  177.5290  141.2170 C   0  0  0  0  0  2  0  0  0  0  0  0
  182.6720  181.6860  138.7180 O   0  0  0  0  0  0  0  0  0  0  0  0
  181.6920  180.5490  138.6890 S   0  0  0  0  0  0  0  0  0  0  0  0
  181.4420  179.0150  136.4400 C   0  0  0  0  0  0  0  0  0  0  0  0
  182.4930  179.0650  139.2480 C   0  0  2  0  0  3  0  0  0  0  0  0
  179.5430  173.9710  140.5820 O   0  0  0  0  0  0  0  0  0  0  0  0
  182.2140  176.7000  139.6870 C   0  0  2  0  0  3  0  0  0  0  0  0
  182.2670  178.1450  136.9450 N   0  0  0  0  0  0  0  0  0  0  0  0
  181.1800  180.2660  137.0720 N   0  0  0  0  0  2  0  0  0  0  0  0
  179.4600  175.2050  140.3440 C   0  0  0  0  0  0  0  0  0  0  0  0
  181.3560  178.3260  141.3710 C   0  0  0  0  0  0  0  0  0  0  0  0
  182.1090  175.2030  137.8900 C   0  0  0  0  0  0  0  0  0  0  0  0
  180.7030  178.6710  135.1980 C   0  0  0  0  0  1  0  0  0  0  0  0
  179.9030  175.7260  139.0160 C   0  0  0  0  0  2  0  0  0  0  0  0
  182.4310  178.7690  142.1620 C   0  0  0  0  0  3  0  0  0  0  0  0
  179.9510  178.3100  143.3550 C   0  0  0  0  0  3  0  0  0  0  0  0
  181.0210  178.7680  144.1240 C   0  0  0  0  0  3  0  0  0  0  0  0
  178.9320  176.0790  141.3440 N   0  0  0  0  0  2  0  0  0  0  0  0
  183.4310  176.9410  138.7750 C   0  0  2  0  0  3  0  0  0  0  0  0
  181.3580  175.7820  138.9430 N   0  0  0  0  0  0  0  0  0  0  0  0
  183.1560  178.3060  138.1120 C   0  0  2  0  0  3  0  0  0  0  0  0
  184.0330  175.9540  136.4510 C   0  0  0  0  0  1  0  0  0  0  0  0
  181.5540  178.0610  139.9010 C   0  0  1  0  0  3  0  0  0  0  0  0
  1 21  1  0  0  0  0
  3 17  2  0  0  0  0
  4 22  1  0  0  0  0
  5 27  1  6  0  0  0
  5 17  1  0  0  0  0
  5 24  1  0  0  0  0
  6 23  1  0  0  0  0
  6  1  1  0  0  0  0
  8  7  2  0  0  0  0
  8  2  2  0  0  0  0
  9 13  2  0  0  0  0
  9 14  1  0  0  0  0
 10  8  1  6  0  0  0
 10 28  1  0  0  0  0
 12 25  1  6  0  0  0
 12 28  1  0  0  0  0
 13 26  1  0  0  0  0
 14  8  1  0  0  0  0
 15 11  2  0  0  0  0
 15 23  1  0  0  0  0
 16  1  2  0  0  0  0
 16 20  1  0  0  0  0
 17 25  1  0  0  0  0
 18  9  1  0  0  0  0
 19 15  1  0  0  0  0
 20  4  2  0  0  0  0
 21 22  2  0  0  0  0
 24 12  1  0  0  0  0
 25 19  1  0  0  0  0
 26 24  1  0  0  0  0
 26 10  1  0  0  0  0
 28 16  1  0  0  0  0
M  END
>  <MODEL>
1

>  <REMARK>
 VINA RESULT:      -6.5      0.000      0.000
  Name = 
  0 active torsions:
  status: ('A' for Active; 'I' for Inactive)
                            x       y       z     vdW  Elec       q    Type
                         _______ _______ _______ _____ _____    ______ ____

>  <TORSDO>
F 0

$$$$
=
 OpenBabel11122411543D

 28 32  0  0  1  0  0  0  0  0999 V2000
  180.6390  180.6940  138.3250 C   0  0  0  0  0  0  0  0  0  0  0  0
  184.2630  180.4770  139.1160 O   0  0  0  0  0  0  0  0  0  0  0  0
  181.6160  175.4200  134.9440 O   0  0  0  0  0  0  0  0  0  0  0  0
  179.9300  180.2950  141.0070 C   0  0  0  0  0  3  0  0  0  0  0  0
  181.8190  175.0500  137.3350 C   0  0  2  0  0  3  0  0  0  0  0  0
  180.9270  180.9100  136.8740 C   0  0  0  0  0  2  0  0  0  0  0  0
  185.2520  178.8420  140.6680 O   0  0  0  0  0  0  0  0  0  0  0  0
  184.5930  179.0260  139.3310 S   0  0  0  0  0  0  0  0  0  0  0  0
  185.2500  177.3880  137.2440 C   0  0  0  0  0  0  0  0  0  0  0  0
  183.1230  178.0320  139.2560 C   0  0  2  0  0  3  0  0  0  0  0  0
  178.9700  178.5240  134.9030 O   0  0  0  0  0  0  0  0  0  0  0  0
  181.2390  177.3680  137.8860 C   0  0  2  0  0  3  0  0  0  0  0  0
  184.2280  176.6310  137.5190 N   0  0  0  0  0  0  0  0  0  0  0  0
  185.6400  178.4700  138.0870 N   0  0  0  0  0  2  0  0  0  0  0  0
  179.9780  179.0340  135.4610 C   0  0  0  0  0  0  0  0  0  0  0  0
  181.1510  179.5830  139.0260 C   0  0  0  0  0  0  0  0  0  0  0  0
  181.5760  175.8640  136.1230 C   0  0  0  0  0  0  0  0  0  0  0  0
  185.9980  177.1570  135.9820 C   0  0  0  0  0  1  0  0  0  0  0  0
  181.2720  178.2880  135.4590 C   0  0  0  0  0  2  0  0  0  0  0  0
  180.7750  179.3880  140.3660 C   0  0  0  0  0  3  0  0  0  0  0  0
  179.7880  181.5950  138.9750 C   0  0  0  0  0  3  0  0  0  0  0  0
  179.4380  181.4000  140.3120 C   0  0  0  0  0  3  0  0  0  0  0  0
  179.8660  180.3210  136.0710 N   0  0  0  0  0  2  0  0  0  0  0  0
  181.9760  176.1300  138.4300 C   0  0  2  0  0  3  0  0  0  0  0  0
  181.2450  177.2060  136.4360 N   0  0  0  0  0  0  0  0  0  0  0  0
  183.4010  176.6310  138.7410 C   0  0  2  0  0  3  0  0  0  0  0  0
  182.9860  174.0790  137.2010 C   0  0  0  0  0  1  0  0  0  0  0  0
  182.0450  178.5860  138.3350 C   0  0  1  0  0  3  0  0  0  0  0  0
  1 21  2  0  0  0  0
  1 16  1  0  0  0  0
  2  8  2  0  0  0  0
  3 17  2  0  0  0  0
  5 27  1  6  0  0  0
  5 24  1  0  0  0  0
  6  1  1  0  0  0  0
  8  7  2  0  0  0  0
  9 13  2  0  0  0  0
  9 14  1  0  0  0  0
 10  8  1  6  0  0  0
 11 15  2  0  0  0  0
 12 25  1  6  0  0  0
 12 28  1  0  0  0  0
 12 24  1  0  0  0  0
 13 26  1  0  0  0  0
 14  8  1  0  0  0  0
 15 23  1  0  0  0  0
 16 20  2  0  0  0  0
 17 25  1  0  0  0  0
 17  5  1  0  0  0  0
 18  9  1  0  0  0  0
 19 15  1  0  0  0  0
 19 25  1  0  0  0  0
 20  4  1  0  0  0  0
 21 22  1  0  0  0  0
 22  4  2  0  0  0  0
 23  6  1  0  0  0  0
 24 26  1  0  0  0  0
 26 10  1  0  0  0  0
 28 16  1  0  0  0  0
 28 10  1  0  0  0  0
M  END
>  <MODEL>
2

>  <REMARK>
 VINA RESULT:      -5.5      2.707      4.057
  Name = 
  0 active torsions:
  status: ('A' for Active; 'I' for Inactive)
                            x       y       z     vdW  Elec       q    Type
                         _______ _______ _______ _____ _____    ______ ____

>  <TORSDO>
F 0

$$$$
=
 OpenBabel11122411543D

 28 32  0  0  1  0  0  0  0  0999 V2000
  185.3710  175.7290  136.9530 C   0  0  0  0  0  0  0  0  0  0  0  0
  182.4810  175.2190  134.6730 O   0  0  0  0  0  0  0  0  0  0  0  0
  181.3400  179.2000  140.4040 O   0  0  0  0  0  0  0  0  0  0  0  0
  185.4720  173.0030  137.5930 C   0  0  0  0  0  3  0  0  0  0  0  0
  180.7980  176.8330  140.4310 C   0  0  2  0  0  3  0  0  0  0  0  0
  185.3870  177.1970  136.6690 C   0  0  0  0  0  2  0  0  0  0  0  0
  180.5650  173.7560  135.1640 O   0  0  0  0  0  0  0  0  0  0  0  0
  181.2580  175.0370  135.5270 S   0  0  0  0  0  0  0  0  0  0  0  0
  179.8050  177.1760  136.4130 C   0  0  0  0  0  0  0  0  0  0  0  0
  181.6960  175.0040  137.2480 C   0  0  2  0  0  3  0  0  0  0  0  0
  185.3760  179.0230  139.8430 O   0  0  0  0  0  0  0  0  0  0  0  0
  182.7380  176.2290  139.0590 C   0  0  2  0  0  3  0  0  0  0  0  0
  180.0450  176.8270  137.6440 N   0  0  0  0  0  0  0  0  0  0  0  0
  180.1830  176.3610  135.3070 N   0  0  0  0  0  2  0  0  0  0  0  0
  184.9310  178.5420  138.7680 C   0  0  0  0  0  0  0  0  0  0  0  0
  184.2080  175.0750  137.4090 C   0  0  0  0  0  0  0  0  0  0  0  0
  181.5940  178.0190  140.0420 C   0  0  0  0  0  0  0  0  0  0  0  0
  179.1710  178.4930  136.1500 C   0  0  0  0  0  1  0  0  0  0  0  0
  183.4720  178.6470  138.4660 C   0  0  0  0  0  2  0  0  0  0  0  0
  184.2780  173.7110  137.7400 C   0  0  0  0  0  3  0  0  0  0  0  0
  186.5650  175.0120  136.8140 C   0  0  0  0  0  3  0  0  0  0  0  0
  186.6140  173.6530  137.1280 C   0  0  0  0  0  3  0  0  0  0  0  0
  185.8340  177.9190  137.8510 N   0  0  0  0  0  2  0  0  0  0  0  0
  181.3330  175.7480  139.4690 C   0  0  2  0  0  3  0  0  0  0  0  0
  182.7140  177.6760  139.2450 N   0  0  0  0  0  0  0  0  0  0  0  0
  180.5870  175.5450  138.1350 C   0  0  2  0  0  3  0  0  0  0  0  0
  179.2920  177.0610  140.3890 C   0  0  0  0  0  1  0  0  0  0  0  0
  182.9220  175.8370  137.5940 C   0  0  1  0  0  3  0  0  0  0  0  0
  1 16  1  0  0  0  0
  2  8  2  0  0  0  0
  4 20  1  0  0  0  0
  5 27  1  6  0  0  0
  6  1  1  0  0  0  0
  6 23  1  0  0  0  0
  7  8  2  0  0  0  0
  9 13  2  0  0  0  0
 10  8  1  6  0  0  0
 10 28  1  0  0  0  0
 10 26  1  0  0  0  0
 12 25  1  6  0  0  0
 12 24  1  0  0  0  0
 13 26  1  0  0  0  0
 14  8  1  0  0  0  0
 14  9  1  0  0  0  0
 15 11  2  0  0  0  0
 16 28  1  0  0  0  0
 16 20  2  0  0  0  0
 17  3  2  0  0  0  0
 17  5  1  0  0  0  0
 18  9  1  0  0  0  0
 19 15  1  0  0  0  0
 19 25  1  0  0  0  0
 21  1  2  0  0  0  0
 21 22  1  0  0  0  0
 22  4  2  0  0  0  0
 23 15  1  0  0  0  0
 24  5  1  0  0  0  0
 25 17  1  0  0  0  0
 26 24  1  0  0  0  0
 28 12  1  0  0  0  0
M  END
>  <MODEL>
3

>  <REMARK>
 VINA RESULT:      -5.3      2.709      6.140
  Name = 
  0 active torsions:
  status: ('A' for Active; 'I' for Inactive)
                            x       y       z     vdW  Elec       q    Type
                         _______ _______ _______ _____ _____    ______ ____

>  <TORSDO>
F 0

$$$$
=
 OpenBabel11122411543D

 28 32  0  0  1  0  0  0  0  0999 V2000
  184.2480  175.9190  135.6440 C   0  0  0  0  0  0  0  0  0  0  0  0
  181.1330  177.9130  135.2800 O   0  0  0  0  0  0  0  0  0  0  0  0
  185.3050  179.5140  140.7590 O   0  0  0  0  0  0  0  0  0  0  0  0
  182.8020  173.5630  136.1020 C   0  0  0  0  0  3  0  0  0  0  0  0
  183.4300  177.9980  141.0520 C   0  0  2  0  0  3  0  0  0  0  0  0
  185.0960  177.1280  135.4110 C   0  0  0  0  0  2  0  0  0  0  0  0
  179.1480  177.6640  136.7140 O   0  0  0  0  0  0  0  0  0  0  0  0
  180.5740  178.1330  136.6580 S   0  0  0  0  0  0  0  0  0  0  0  0
  181.3860  180.2310  138.2090 C   0  0  0  0  0  0  0  0  0  0  0  0
  181.5310  177.2560  137.8700 C   0  0  2  0  0  3  0  0  0  0  0  0
  187.5610  177.3900  138.1070 O   0  0  0  0  0  0  0  0  0  0  0  0
  183.7310  176.9750  138.8430 C   0  0  2  0  0  3  0  0  0  0  0  0
  181.8130  179.3960  139.1120 N   0  0  0  0  0  0  0  0  0  0  0  0
  180.6520  179.8010  137.0660 N   0  0  0  0  0  2  0  0  0  0  0  0
  186.5270  177.6500  137.4370 C   0  0  0  0  0  0  0  0  0  0  0  0
  183.2590  175.8890  136.6490 C   0  0  0  0  0  0  0  0  0  0  0  0
  184.5550  178.6070  140.3060 C   0  0  0  0  0  0  0  0  0  0  0  0
  181.7260  181.6710  138.3430 C   0  0  0  0  0  1  0  0  0  0  0  0
  185.5330  178.6280  137.9710 C   0  0  0  0  0  2  0  0  0  0  0  0
  182.5530  174.6960  136.8770 C   0  0  0  0  0  3  0  0  0  0  0  0
  184.4940  174.7760  134.8750 C   0  0  0  0  0  3  0  0  0  0  0  0
  183.7710  173.6040  135.0990 C   0  0  0  0  0  3  0  0  0  0  0  0
  186.3320  177.0130  136.1720 N   0  0  0  0  0  2  0  0  0  0  0  0
  182.6810  177.2260  139.9420 C   0  0  2  0  0  3  0  0  0  0  0  0
  184.7300  178.0230  139.0270 N   0  0  0  0  0  0  0  0  0  0  0  0
  181.5280  177.9520  139.2200 C   0  0  2  0  0  3  0  0  0  0  0  0
  182.5920  179.0030  141.8320 C   0  0  0  0  0  1  0  0  0  0  0  0
  183.0010  177.1010  137.5070 C   0  0  1  0  0  3  0  0  0  0  0  0
  1 16  1  0  0  0  0
  2  8  2  0  0  0  0
  4 20  1  0  0  0  0
  5 27  1  6  0  0  0
  6  1  1  0  0  0  0
  6 23  1  0  0  0  0
  8  7  2  0  0  0  0
  8 14  1  0  0  0  0
  9 18  1  0  0  0  0
  9 13  2  0  0  0  0
 10  8  1  6  0  0  0
 10 26  1  0  0  0  0
 12 25  1  6  0  0  0
 12 24  1  0  0  0  0
 13 26  1  0  0  0  0
 14  9  1  0  0  0  0
 15 19  1  0  0  0  0
 15 11  2  0  0  0  0
 16 20  2  0  0  0  0
 16 28  1  0  0  0  0
 17  3  2  0  0  0  0
 17  5  1  0  0  0  0
 19 25  1  0  0  0  0
 21 22  1  0  0  0  0
 21  1  2  0  0  0  0
 22  4  2  0  0  0  0
 23 15  1  0  0  0  0
 24  5  1  0  0  0  0
 25 17  1  0  0  0  0
 26 24  1  0  0  0  0
 28 10  1  0  0  0  0
 28 12  1  0  0  0  0
M  END
>  <MODEL>
4

>  <REMARK>
 VINA RESULT:      -5.1      2.798      6.158
  Name = 
  0 active torsions:
  status: ('A' for Active; 'I' for Inactive)
                            x       y       z     vdW  Elec       q    Type
                         _______ _______ _______ _____ _____    ______ ____

>  <TORSDO>
F 0

$$$$
=
 OpenBabel11122411543D

 28 32  0  0  1  0  0  0  0  0999 V2000
  182.5840  176.2980  138.3580 C   0  0  0  0  0  0  0  0  0  0  0  0
  184.5910  173.2160  137.8220 O   0  0  0  0  0  0  0  0  0  0  0  0
  187.9740  179.3780  137.0690 O   0  0  0  0  0  0  0  0  0  0  0  0
  180.9550  175.7390  136.1480 C   0  0  0  0  0  3  0  0  0  0  0  0
  187.0590  178.2410  135.1280 C   0  0  2  0  0  3  0  0  0  0  0  0
  183.4050  176.6740  139.5490 C   0  0  0  0  0  2  0  0  0  0  0  0
  185.3320  172.4060  135.6200 O   0  0  0  0  0  0  0  0  0  0  0  0
  185.5110  173.4730  136.6620 S   0  0  0  0  0  0  0  0  0  0  0  0
  187.9530  174.6490  137.0110 C   0  0  0  0  0  0  0  0  0  0  0  0
  185.1830  175.0630  135.9410 C   0  0  2  0  0  3  0  0  0  0  0  0
  184.5550  180.1290  139.1610 O   0  0  0  0  0  0  0  0  0  0  0  0
  185.0850  177.4480  136.3480 C   0  0  2  0  0  3  0  0  0  0  0  0
  187.5920  175.6270  136.2320 N   0  0  0  0  0  0  0  0  0  0  0  0
  187.1440  173.4900  137.1980 N   0  0  0  0  0  2  0  0  0  0  0  0
  184.6110  178.8710  139.1770 C   0  0  0  0  0  0  0  0  0  0  0  0
  183.1730  176.0380  137.1030 C   0  0  0  0  0  0  0  0  0  0  0  0
  187.0780  178.6610  136.5480 C   0  0  0  0  0  0  0  0  0  0  0  0
  189.2210  174.7690  137.7750 C   0  0  0  0  0  1  0  0  0  0  0  0
  185.8560  178.1880  138.7140 C   0  0  0  0  0  2  0  0  0  0  0  0
  182.3420  175.7740  136.0010 C   0  0  0  0  0  3  0  0  0  0  0  0
  181.1920  176.2650  138.4940 C   0  0  0  0  0  3  0  0  0  0  0  0
  180.3800  175.9820  137.3950 C   0  0  0  0  0  3  0  0  0  0  0  0
  183.4890  178.1230  139.6490 N   0  0  0  0  0  2  0  0  0  0  0  0
  185.9710  177.1430  135.1250 C   0  0  2  0  0  3  0  0  0  0  0  0
  185.9420  178.2010  137.2590 N   0  0  0  0  0  0  0  0  0  0  0  0
  186.4260  175.6840  135.3280 C   0  0  2  0  0  3  0  0  0  0  0  0
  188.4210  177.8150  134.5940 C   0  0  0  0  0  1  0  0  0  0  0  0
  184.6680  176.0980  136.9300 C   0  0  1  0  0  3  0  0  0  0  0  0
  1 21  1  0  0  0  0
  1  6  1  0  0  0  0
  4 22  1  0  0  0  0
  5 27  1  1  0  0  0
  5 17  1  0  0  0  0
  6 23  1  0  0  0  0
  7  8  2  0  0  0  0
  8 14  1  0  0  0  0
  8  2  2  0  0  0  0
  9 14  1  0  0  0  0
  9 18  1  0  0  0  0
 10  8  1  1  0  0  0
 10 28  1  0  0  0  0
 11 15  2  0  0  0  0
 12 28  1  0  0  0  0
 12 25  1  1  0  0  0
 13  9  2  0  0  0  0
 15 23  1  0  0  0  0
 16  1  2  0  0  0  0
 17  3  2  0  0  0  0
 17 25  1  0  0  0  0
 19 15  1  0  0  0  0
 20  4  2  0  0  0  0
 20 16  1  0  0  0  0
 22 21  2  0  0  0  0
 24  5  1  0  0  0  0
 24 26  1  0  0  0  0
 24 12  1  0  0  0  0
 25 19  1  0  0  0  0
 26 10  1  0  0  0  0
 26 13  1  0  0  0  0
 28 16  1  0  0  0  0
M  END
>  <MODEL>
5

>  <REMARK>
 VINA RESULT:      -4.8      3.751      6.750
  Name = 
  0 active torsions:
  status: ('A' for Active; 'I' for Inactive)
                            x       y       z     vdW  Elec       q    Type
                         _______ _______ _______ _____ _____    ______ ____

>  <TORSDO>
F 0

$$$$
=
 OpenBabel11122411543D

 28 32  0  0  1  0  0  0  0  0999 V2000
  181.0240  178.3640  137.3690 C   0  0  0  0  0  0  0  0  0  0  0  0
  180.7300  174.7190  136.7050 O   0  0  0  0  0  0  0  0  0  0  0  0
  187.2460  177.2270  137.8190 O   0  0  0  0  0  0  0  0  0  0  0  0
  180.0960  179.0050  134.8030 C   0  0  0  0  0  3  0  0  0  0  0  0
  186.4080  176.9630  135.5550 C   0  0  2  0  0  3  0  0  0  0  0  0
  181.5280  178.1120  138.7530 C   0  0  0  0  0  2  0  0  0  0  0  0
  181.3820  173.6340  134.5950 O   0  0  0  0  0  0  0  0  0  0  0  0
  181.8860  174.3250  135.8300 S   0  0  0  0  0  0  0  0  0  0  0  0
  184.3090  173.6370  136.8900 C   0  0  0  0  0  0  0  0  0  0  0  0
  182.8330  175.7520  135.3610 C   0  0  2  0  0  3  0  0  0  0  0  0
  184.6240  180.0020  139.2550 O   0  0  0  0  0  0  0  0  0  0  0  0
  184.1300  177.6310  136.1700 C   0  0  2  0  0  3  0  0  0  0  0  0
  184.8680  174.6210  136.2460 N   0  0  0  0  0  0  0  0  0  0  0  0
  182.9450  173.2780  136.6890 N   0  0  0  0  0  2  0  0  0  0  0  0
  183.8800  179.0070  139.0500 C   0  0  0  0  0  0  0  0  0  0  0  0
  181.6430  177.7920  136.2380 C   0  0  0  0  0  0  0  0  0  0  0  0
  186.2880  177.2640  137.0000 C   0  0  0  0  0  0  0  0  0  0  0  0
  185.1010  172.9040  137.9110 C   0  0  0  0  0  1  0  0  0  0  0  0
  184.4970  177.6830  138.7400 C   0  0  0  0  0  2  0  0  0  0  0  0
  181.1760  178.1340  134.9570 C   0  0  0  0  0  3  0  0  0  0  0  0
  179.9460  179.2400  137.2040 C   0  0  0  0  0  3  0  0  0  0  0  0
  179.4790  179.5560  135.9270 C   0  0  0  0  0  3  0  0  0  0  0  0
  182.4620  179.1620  139.1330 N   0  0  0  0  0  2  0  0  0  0  0  0
  184.9290  176.8320  135.1240 C   0  0  2  0  0  3  0  0  0  0  0  0
  184.9720  177.6450  137.3620 N   0  0  0  0  0  0  0  0  0  0  0  0
  184.3000  175.4240  135.1460 C   0  0  2  0  0  3  0  0  0  0  0  0
  187.2890  175.7600  135.2470 C   0  0  0  0  0  1  0  0  0  0  0  0
  182.8240  176.8700  136.3950 C   0  0  1  0  0  3  0  0  0  0  0  0
  1  6  1  0  0  0  0
  4 20  2  0  0  0  0
  4 22  1  0  0  0  0
  5 27  1  1  0  0  0
  5 17  1  0  0  0  0
  6 23  1  0  0  0  0
  7  8  2  0  0  0  0
  8 14  1  0  0  0  0
  8  2  2  0  0  0  0
  9 18  1  0  0  0  0
 10  8  1  1  0  0  0
 10 28  1  0  0  0  0
 12 28  1  0  0  0  0
 12 25  1  1  0  0  0
 13  9  2  0  0  0  0
 14  9  1  0  0  0  0
 15 23  1  0  0  0  0
 15 11  2  0  0  0  0
 16 28  1  0  0  0  0
 16  1  2  0  0  0  0
 17 25  1  0  0  0  0
 17  3  2  0  0  0  0
 19 15  1  0  0  0  0
 20 16  1  0  0  0  0
 21  1  1  0  0  0  0
 22 21  2  0  0  0  0
 24 26  1  0  0  0  0
 24  5  1  0  0  0  0
 24 12  1  0  0  0  0
 25 19  1  0  0  0  0
 26 10  1  0  0  0  0
 26 13  1  0  0  0  0
M  END
>  <MODEL>
6

>  <REMARK>
 VINA RESULT:      -4.7      3.327      5.989
  Name = 
  0 active torsions:
  status: ('A' for Active; 'I' for Inactive)
                            x       y       z     vdW  Elec       q    Type
                         _______ _______ _______ _____ _____    ______ ____

>  <TORSDO>
F 0

$$$$
=
 OpenBabel11122411543D

 28 32  0  0  1  0  0  0  0  0999 V2000
  181.7930  176.3260  136.8630 C   0  0  0  0  0  0  0  0  0  0  0  0
  184.6330  178.2920  138.2360 O   0  0  0  0  0  0  0  0  0  0  0  0
  179.3070  176.8830  142.6690 O   0  0  0  0  0  0  0  0  0  0  0  0
  181.1250  178.3670  135.0620 C   0  0  0  0  0  3  0  0  0  0  0  0
  179.3770  178.9960  141.4740 C   0  0  2  0  0  3  0  0  0  0  0  0
  182.0790  175.1900  137.7910 C   0  0  0  0  0  2  0  0  0  0  0  0
  184.5490  180.7040  138.7170 O   0  0  0  0  0  0  0  0  0  0  0  0
  184.0570  179.3490  139.1360 S   0  0  0  0  0  0  0  0  0  0  0  0
  183.5170  178.8430  141.7670 C   0  0  0  0  0  0  0  0  0  0  0  0
  182.2810  179.3220  139.0780 C   0  0  2  0  0  3  0  0  0  0  0  0
  178.9940  174.2820  139.5440 O   0  0  0  0  0  0  0  0  0  0  0  0
  180.3000  177.9780  139.4430 C   0  0  2  0  0  3  0  0  0  0  0  0
  182.2610  179.1120  141.5600 N   0  0  0  0  0  0  0  0  0  0  0  0
  184.5110  179.0460  140.7660 N   0  0  0  0  0  2  0  0  0  0  0  0
  180.1360  174.7820  139.3660 C   0  0  0  0  0  0  0  0  0  0  0  0
  181.5900  177.6380  137.3370 C   0  0  0  0  0  0  0  0  0  0  0  0
  179.5970  177.5410  141.6330 C   0  0  0  0  0  0  0  0  0  0  0  0
  183.9200  178.2490  143.0680 C   0  0  0  0  0  1  0  0  0  0  0  0
  180.7420  175.6230  140.4410 C   0  0  0  0  0  2  0  0  0  0  0  0
  181.2410  178.6480  136.4240 C   0  0  0  0  0  3  0  0  0  0  0  0
  181.6700  176.0530  135.4960 C   0  0  0  0  0  3  0  0  0  0  0  0
  181.3420  177.0690  134.5980 C   0  0  0  0  0  3  0  0  0  0  0  0
  180.8340  174.5240  138.1470 N   0  0  0  0  0  2  0  0  0  0  0  0
  180.1950  179.3150  140.2010 C   0  0  2  0  0  3  0  0  0  0  0  0
  180.1350  176.9480  140.4640 N   0  0  0  0  0  0  0  0  0  0  0  0
  181.6560  179.7730  140.3870 C   0  0  2  0  0  3  0  0  0  0  0  0
  179.7410  179.8130  142.7080 C   0  0  0  0  0  1  0  0  0  0  0  0
  181.6890  177.9460  138.8080 C   0  0  1  0  0  3  0  0  0  0  0  0
  1 16  1  0  0  0  0
  1  6  1  0  0  0  0
  2  8  2  0  0  0  0
  4 20  1  0  0  0  0
  5 17  1  0  0  0  0
  5 27  1  1  0  0  0
  6 23  1  0  0  0  0
  7  8  2  0  0  0  0
  8 14  1  0  0  0  0
  9 18  1  0  0  0  0
 10  8  1  1  0  0  0
 10 26  1  0  0  0  0
 12 24  1  0  0  0  0
 12 25  1  1  0  0  0
 13  9  2  0  0  0  0
 14  9  1  0  0  0  0
 15 11  2  0  0  0  0
 15 19  1  0  0  0  0
 16 28  1  0  0  0  0
 17  3  2  0  0  0  0
 19 25  1  0  0  0  0
 20 16  2  0  0  0  0
 21  1  2  0  0  0  0
 22  4  2  0  0  0  0
 22 21  1  0  0  0  0
 23 15  1  0  0  0  0
 24 26  1  0  0  0  0
 24  5  1  0  0  0  0
 25 17  1  0  0  0  0
 26 13  1  0  0  0  0
 28 10  1  0  0  0  0
 28 12  1  0  0  0  0
M  END
>  <MODEL>
7

>  <REMARK>
 VINA RESULT:      -4.7      2.123      5.284
  Name = 
  0 active torsions:
  status: ('A' for Active; 'I' for Inactive)
                            x       y       z     vdW  Elec       q    Type
                         _______ _______ _______ _____ _____    ______ ____

>  <TORSDO>
F 0

$$$$
=
 OpenBabel11122411543D

 28 32  0  0  1  0  0  0  0  0999 V2000
  189.8240  174.3170  136.5580 C   0  0  0  0  0  0  0  0  0  0  0  0
  189.4710  177.4640  138.5040 O   0  0  0  0  0  0  0  0  0  0  0  0
  183.5440  174.7270  135.7900 O   0  0  0  0  0  0  0  0  0  0  0  0
  191.3670  175.5900  134.5950 C   0  0  0  0  0  3  0  0  0  0  0  0
  184.7480  176.4630  134.5940 C   0  0  2  0  0  3  0  0  0  0  0  0
  189.0080  173.5610  137.5570 C   0  0  0  0  0  2  0  0  0  0  0  0
  189.0460  179.6730  137.5080 O   0  0  0  0  0  0  0  0  0  0  0  0
  188.4600  178.3210  137.7960 S   0  0  0  0  0  0  0  0  0  0  0  0
  185.7820  178.0660  138.2820 C   0  0  0  0  0  0  0  0  0  0  0  0
  187.9500  177.5620  136.2740 C   0  0  2  0  0  3  0  0  0  0  0  0
  186.3450  171.7630  135.8000 O   0  0  0  0  0  0  0  0  0  0  0  0
  186.9430  175.6020  135.2690 C   0  0  2  0  0  3  0  0  0  0  0  0
  185.5860  177.7610  137.0330 N   0  0  0  0  0  0  0  0  0  0  0  0
  187.0520  178.4950  138.7680 N   0  0  0  0  0  2  0  0  0  0  0  0
  186.8880  172.6510  136.5090 C   0  0  0  0  0  0  0  0  0  0  0  0
  189.3410  175.4890  135.9400 C   0  0  0  0  0  0  0  0  0  0  0  0
  184.6330  175.2710  135.4630 C   0  0  0  0  0  0  0  0  0  0  0  0
  184.6640  177.9040  139.2470 C   0  0  0  0  0  1  0  0  0  0  0  0
  186.0820  173.8260  136.9550 C   0  0  0  0  0  2  0  0  0  0  0  0
  190.1190  176.1080  134.9460 C   0  0  0  0  0  3  0  0  0  0  0  0
  191.0740  173.8030  136.1950 C   0  0  0  0  0  3  0  0  0  0  0  0
  191.8450  174.4390  135.2210 C   0  0  0  0  0  3  0  0  0  0  0  0
  188.2600  172.5100  136.8820 N   0  0  0  0  0  2  0  0  0  0  0  0
  186.2220  176.8810  134.8030 C   0  0  2  0  0  3  0  0  0  0  0  0
  185.8990  174.7720  135.8610 N   0  0  0  0  0  0  0  0  0  0  0  0
  186.5210  177.9200  135.9020 C   0  0  2  0  0  3  0  0  0  0  0  0
  183.7130  177.5420  134.8870 C   0  0  0  0  0  1  0  0  0  0  0  0
  187.9850  176.0400  136.2960 C   0  0  1  0  0  3  0  0  0  0  0  0
  1  6  1  0  0  0  0
  4 20  2  0  0  0  0
  4 22  1  0  0  0  0
  5 24  1  0  0  0  0
  5 27  1  1  0  0  0
  5 17  1  0  0  0  0
  7  8  2  0  0  0  0
  8  2  2  0  0  0  0
  8 14  1  0  0  0  0
  9 14  1  0  0  0  0
  9 18  1  0  0  0  0
 10 28  1  0  0  0  0
 10  8  1  1  0  0  0
 11 15  2  0  0  0  0
 12 25  1  1  0  0  0
 12 28  1  0  0  0  0
 13  9  2  0  0  0  0
 15 23  1  0  0  0  0
 15 19  1  0  0  0  0
 16 28  1  0  0  0  0
 16  1  2  0  0  0  0
 17  3  2  0  0  0  0
 17 25  1  0  0  0  0
 20 16  1  0  0  0  0
 21  1  1  0  0  0  0
 22 21  2  0  0  0  0
 23  6  1  0  0  0  0
 24 12  1  0  0  0  0
 24 26  1  0  0  0  0
 25 19  1  0  0  0  0
 26 10  1  0  0  0  0
 26 13  1  0  0  0  0
M  END
>  <MODEL>
8

>  <REMARK>
 VINA RESULT:      -4.7      5.165      8.315
  Name = 
  0 active torsions:
  status: ('A' for Active; 'I' for Inactive)
                            x       y       z     vdW  Elec       q    Type
                         _______ _______ _______ _____ _____    ______ ____

>  <TORSDO>
F 0

$$$$
=
 OpenBabel11122411543D

 28 32  0  0  1  0  0  0  0  0999 V2000
  189.4860  178.1560  139.9290 C   0  0  0  0  0  0  0  0  0  0  0  0
  193.1270  178.0110  139.2000 O   0  0  0  0  0  0  0  0  0  0  0  0
  188.8360  174.7920  134.5940 O   0  0  0  0  0  0  0  0  0  0  0  0
  189.7970  176.6540  142.2740 C   0  0  0  0  0  3  0  0  0  0  0  0
  189.8870  173.5230  136.3780 C   0  0  2  0  0  3  0  0  0  0  0  0
  189.2300  178.9600  138.6940 C   0  0  0  0  0  2  0  0  0  0  0  0
  194.5220  176.0040  139.4820 O   0  0  0  0  0  0  0  0  0  0  0  0
  193.4280  176.6360  138.6720 S   0  0  0  0  0  0  0  0  0  0  0  0
  193.1710  176.0400  136.0170 C   0  0  0  0  0  0  0  0  0  0  0  0
  191.9790  175.6110  138.7340 C   0  0  2  0  0  3  0  0  0  0  0  0
  186.5480  177.3700  136.7740 O   0  0  0  0  0  0  0  0  0  0  0  0
  189.6880  175.3590  137.9920 C   0  0  2  0  0  3  0  0  0  0  0  0
  192.2810  175.1360  136.3080 N   0  0  0  0  0  0  0  0  0  0  0  0
  193.9070  176.7300  137.0230 N   0  0  0  0  0  2  0  0  0  0  0  0
  187.7180  177.7150  137.0860 C   0  0  0  0  0  0  0  0  0  0  0  0
  190.1560  176.9160  139.8810 C   0  0  0  0  0  0  0  0  0  0  0  0
  189.2610  174.7230  135.7790 C   0  0  0  0  0  0  0  0  0  0  0  0
  193.3850  176.4070  134.5940 C   0  0  0  0  0  1  0  0  0  0  0  0
  188.8740  177.1670  136.3160 C   0  0  0  0  0  2  0  0  0  0  0  0
  190.2910  176.1670  141.0630 C   0  0  0  0  0  3  0  0  0  0  0  0
  188.9890  178.6330  141.1470 C   0  0  0  0  0  3  0  0  0  0  0  0
  189.1480  177.8880  142.3160 C   0  0  0  0  0  3  0  0  0  0  0  0
  187.9150  178.6350  138.1620 N   0  0  0  0  0  2  0  0  0  0  0  0
  190.5000  174.0880  137.6800 C   0  0  2  0  0  3  0  0  0  0  0  0
  189.1480  175.7890  136.7060 N   0  0  0  0  0  0  0  0  0  0  0  0
  191.9660  174.5660  137.6320 C   0  0  2  0  0  3  0  0  0  0  0  0
  190.8630  172.8090  135.4510 C   0  0  0  0  0  1  0  0  0  0  0  0
  190.6710  176.3730  138.5740 C   0  0  1  0  0  3  0  0  0  0  0  0
  1 21  1  0  0  0  0
  3 17  2  0  0  0  0
  4 22  1  0  0  0  0
  5 27  1  6  0  0  0
  5 24  1  0  0  0  0
  6  1  1  0  0  0  0
  8  2  2  0  0  0  0
  8  7  2  0  0  0  0
  9 13  2  0  0  0  0
  9 14  1  0  0  0  0
 10  8  1  6  0  0  0
 11 15  2  0  0  0  0
 12 25  1  6  0  0  0
 12 28  1  0  0  0  0
 13 26  1  0  0  0  0
 14  8  1  0  0  0  0
 15 23  1  0  0  0  0
 16  1  2  0  0  0  0
 16 20  1  0  0  0  0
 17  5  1  0  0  0  0
 17 25  1  0  0  0  0
 18  9  1  0  0  0  0
 19 25  1  0  0  0  0
 19 15  1  0  0  0  0
 20  4  2  0  0  0  0
 21 22  2  0  0  0  0
 23  6  1  0  0  0  0
 24 12  1  0  0  0  0
 26 24  1  0  0  0  0
 26 10  1  0  0  0  0
 28 10  1  0  0  0  0
 28 16  1  0  0  0  0
M  END
>  <MODEL>
9

>  <REMARK>
 VINA RESULT:      -4.6      8.014      9.826
  Name = 
  0 active torsions:
  status: ('A' for Active; 'I' for Inactive)
                            x       y       z     vdW  Elec       q    Type
                         _______ _______ _______ _____ _____    ______ ____

>  <TORSDO>
F 0

$$$$
