=
 OpenBabel11122411523D

 28 32  0  0  1  0  0  0  0  0999 V2000
  190.1880  177.1510  140.4730 C   0  0  0  0  0  0  0  0  0  0  0  0
  187.2000  179.0060  137.2190 O   0  0  0  0  0  1  0  0  0  0  0  0
  191.4430  173.4610  135.4240 O   0  0  0  0  0  0  0  0  0  0  0  0
  187.9120  178.6480  141.1270 C   0  0  0  0  0  3  0  0  0  0  0  0
  189.3500  173.5530  136.4930 N   0  0  0  0  0  0  0  0  0  0  0  0
  191.4260  176.3540  140.2430 C   0  0  0  0  0  2  0  0  0  0  0  0
  188.4390  178.2030  135.3730 C   0  0  0  0  0  1  0  0  0  0  0  0
  187.4170  177.8590  136.4570 C   0  0  1  0  0  0  0  0  0  0  0  0
  186.2730  176.1890  135.2500 C   0  0  2  0  0  3  0  0  0  0  0  0
  187.9080  176.7320  137.3730 C   0  0  1  0  0  3  0  0  0  0  0  0
  193.6250  177.0550  137.4220 O   0  0  0  0  0  0  0  0  0  0  0  0
  189.7910  175.3490  137.9870 C   0  0  1  0  0  3  0  0  0  0  0  0
  186.6160  175.1780  136.1790 O   0  0  0  0  0  0  0  0  0  0  0  0
  186.1750  177.4700  135.8710 O   0  0  0  0  0  0  0  0  0  0  0  0
  192.8090  176.4400  138.1580 C   0  0  0  0  0  0  0  0  0  0  0  0
  189.1670  177.3200  139.4960 C   0  0  0  0  0  0  0  0  0  0  0  0
  190.6660  174.0070  136.2520 C   0  0  0  0  0  0  0  0  0  0  0  0
  184.9520  175.8440  134.5940 C   0  0  0  0  0  1  0  0  0  0  0  0
  192.3110  175.0940  137.7440 C   0  0  0  0  0  2  0  0  0  0  0  0
  188.0430  178.0890  139.8560 C   0  0  0  0  0  3  0  0  0  0  0  0
  190.0460  177.7170  141.7450 C   0  0  0  0  0  3  0  0  0  0  0  0
  188.9150  178.4610  142.0730 C   0  0  0  0  0  3  0  0  0  0  0  0
  192.3280  177.0610  139.3500 N   0  0  0  0  0  2  0  0  0  0  0  0
  188.6670  174.4830  137.3710 C   0  0  1  0  0  3  0  0  0  0  0  0
  190.9860  175.2350  137.0120 C   0  0  2  0  0  3  0  0  0  0  0  0
  187.9260  175.4970  136.5400 C   0  0  2  0  0  3  0  0  0  0  0  0
  188.6890  172.4980  135.7420 C   0  0  0  0  0  1  0  0  0  0  0  0
  189.2800  176.8040  138.0560 C   0  0  2  0  0  3  0  0  0  0  0  0
  1 21  1  0  0  0  0
  3 17  2  0  0  0  0
  4 22  1  0  0  0  0
  5 24  1  0  0  0  0
  6  1  1  0  0  0  0
  8  7  1  6  0  0  0
  8  2  1  0  0  0  0
  8 10  1  0  0  0  0
  9 18  1  1  0  0  0
  9 14  1  0  0  0  0
  9 13  1  0  0  0  0
 10 28  1  0  0  0  0
 11 15  2  0  0  0  0
 12 28  1  0  0  0  0
 13 26  1  0  0  0  0
 14  8  1  0  0  0  0
 15 23  1  0  0  0  0
 16 20  1  0  0  0  0
 16  1  2  0  0  0  0
 17  5  1  0  0  0  0
 17 25  1  0  0  0  0
 19 15  1  0  0  0  0
 20  4  2  0  0  0  0
 21 22  2  0  0  0  0
 23  6  1  0  0  0  0
 24 12  1  0  0  0  0
 25 19  1  0  0  0  0
 25 12  1  0  0  0  0
 26 24  1  0  0  0  0
 26 10  1  0  0  0  0
 27  5  1  0  0  0  0
 28 16  1  0  0  0  0
M  END
>  <MODEL>
1

>  <REMARK>
 VINA RESULT:      -5.9      0.000      0.000
  Name = 
  0 active torsions:
  status: ('A' for Active; 'I' for Inactive)
                            x       y       z     vdW  Elec       q    Type
                         _______ _______ _______ _____ _____    ______ ____

>  <TORSDO>
F 0

$$$$
=
 OpenBabel11122411523D

 28 32  0  0  1  0  0  0  0  0999 V2000
  179.9240  180.7470  139.3000 C   0  0  0  0  0  0  0  0  0  0  0  0
  184.6850  180.2510  139.0780 O   0  0  0  0  0  1  0  0  0  0  0  0
  180.5400  174.4700  140.2510 O   0  0  0  0  0  0  0  0  0  0  0  0
  181.6220  182.5830  138.0360 C   0  0  0  0  0  3  0  0  0  0  0  0
  181.1820  175.5650  138.2710 N   0  0  0  0  0  0  0  0  0  0  0  0
  178.9310  179.8460  139.9500 C   0  0  0  0  0  2  0  0  0  0  0  0
  184.7040  178.2360  140.3130 C   0  0  0  0  0  1  0  0  0  0  0  0
  184.4740  178.8800  138.9450 C   0  0  1  0  0  0  0  0  0  0  0  0
  185.1120  177.0210  137.6440 C   0  0  2  0  0  3  0  0  0  0  0  0
  183.0510  178.6370  138.4280 C   0  0  1  0  0  3  0  0  0  0  0  0
  179.7140  178.0970  143.0490 O   0  0  0  0  0  0  0  0  0  0  0  0
  180.8500  177.8090  138.9810 C   0  0  1  0  0  3  0  0  0  0  0  0
  183.8270  176.8910  137.0640 O   0  0  0  0  0  0  0  0  0  0  0  0
  185.4060  178.3750  137.9890 O   0  0  0  0  0  0  0  0  0  0  0  0
  179.4460  178.2800  141.8330 C   0  0  0  0  0  0  0  0  0  0  0  0
  181.2390  180.3390  138.9400 C   0  0  0  0  0  0  0  0  0  0  0  0
  180.7560  175.5370  139.6180 C   0  0  0  0  0  0  0  0  0  0  0  0
  186.1570  176.5100  136.6740 C   0  0  0  0  0  1  0  0  0  0  0  0
  179.3520  177.1060  140.9130 C   0  0  0  0  0  2  0  0  0  0  0  0
  182.0690  181.2920  138.3180 C   0  0  0  0  0  3  0  0  0  0  0  0
  179.4860  182.0440  139.0130 C   0  0  0  0  0  3  0  0  0  0  0  0
  180.3280  182.9590  138.3840 C   0  0  0  0  0  3  0  0  0  0  0  0
  179.2900  179.6090  141.3370 N   0  0  0  0  0  2  0  0  0  0  0  0
  181.4970  176.9270  137.8870 C   0  0  1  0  0  3  0  0  0  0  0  0
  180.6830  176.8900  140.2130 C   0  0  2  0  0  3  0  0  0  0  0  0
  182.9620  177.1820  138.1200 C   0  0  2  0  0  3  0  0  0  0  0  0
  181.5400  174.3900  137.4930 C   0  0  0  0  0  1  0  0  0  0  0  0
  181.8250  178.9650  139.2900 C   0  0  2  0  0  3  0  0  0  0  0  0
  1  6  1  0  0  0  0
  4 20  2  0  0  0  0
  4 22  1  0  0  0  0
  5 17  1  0  0  0  0
  6 23  1  0  0  0  0
  8  2  1  0  0  0  0
  8  7  1  1  0  0  0
  9 18  1  6  0  0  0
  9 14  1  0  0  0  0
 10  8  1  0  0  0  0
 10 28  1  0  0  0  0
 12 28  1  0  0  0  0
 12 25  1  0  0  0  0
 13  9  1  0  0  0  0
 13 26  1  0  0  0  0
 14  8  1  0  0  0  0
 15 11  2  0  0  0  0
 16 28  1  0  0  0  0
 16  1  2  0  0  0  0
 17 25  1  0  0  0  0
 17  3  2  0  0  0  0
 19 15  1  0  0  0  0
 20 16  1  0  0  0  0
 21  1  1  0  0  0  0
 22 21  2  0  0  0  0
 23 15  1  0  0  0  0
 24 26  1  0  0  0  0
 24  5  1  0  0  0  0
 24 12  1  0  0  0  0
 25 19  1  0  0  0  0
 26 10  1  0  0  0  0
 27  5  1  0  0  0  0
M  END
>  <MODEL>
2

>  <REMARK>
 VINA RESULT:      -5.8      6.857      9.201
  Name = 
  0 active torsions:
  status: ('A' for Active; 'I' for Inactive)
                            x       y       z     vdW  Elec       q    Type
                         _______ _______ _______ _____ _____    ______ ____

>  <TORSDO>
F 0

$$$$
=
 OpenBabel11122411523D

 28 32  0  0  1  0  0  0  0  0999 V2000
  186.2670  174.0110  136.2380 C   0  0  0  0  0  0  0  0  0  0  0  0
  190.7670  173.2630  134.7690 O   0  0  0  0  0  1  0  0  0  0  0  0
  189.0930  179.3880  138.1830 O   0  0  0  0  0  0  0  0  0  0  0  0
  187.3290  171.4730  135.7070 C   0  0  0  0  0  3  0  0  0  0  0  0
  189.6540  177.2490  138.9830 N   0  0  0  0  0  0  0  0  0  0  0  0
  185.5970  175.3080  136.5370 C   0  0  0  0  0  2  0  0  0  0  0  0
  191.3180  175.5610  134.7290 C   0  0  0  0  0  1  0  0  0  0  0  0
  191.1470  174.3160  135.5990 C   0  0  1  0  0  0  0  0  0  0  0  0
  192.7270  174.9020  137.2470 C   0  0  2  0  0  3  0  0  0  0  0  0
  190.0800  174.5130  136.6830 C   0  0  1  0  0  3  0  0  0  0  0  0
  186.3310  178.3050  134.5970 O   0  0  0  0  0  0  0  0  0  0  0  0
  188.3220  175.9540  137.5010 C   0  0  1  0  0  3  0  0  0  0  0  0
  191.7520  174.9450  138.2730 O   0  0  0  0  0  0  0  0  0  0  0  0
  192.3820  173.9680  136.2240 O   0  0  0  0  0  0  0  0  0  0  0  0
  186.2770  177.5180  135.5780 C   0  0  0  0  0  0  0  0  0  0  0  0
  187.6810  173.8470  136.1940 C   0  0  0  0  0  0  0  0  0  0  0  0
  189.0000  178.1350  138.0980 C   0  0  0  0  0  0  0  0  0  0  0  0
  194.0690  174.5260  137.8420 C   0  0  0  0  0  1  0  0  0  0  0  0
  186.8500  177.9370  136.8930 C   0  0  0  0  0  2  0  0  0  0  0  0
  188.1780  172.5600  135.9130 C   0  0  0  0  0  3  0  0  0  0  0  0
  185.4250  172.9140  136.0290 C   0  0  0  0  0  3  0  0  0  0  0  0
  185.9500  171.6500  135.7660 C   0  0  0  0  0  3  0  0  0  0  0  0
  185.7180  176.2160  135.4090 N   0  0  0  0  0  2  0  0  0  0  0  0
  189.4800  175.8840  138.5240 C   0  0  1  0  0  3  0  0  0  0  0  0
  188.2750  177.4230  137.0230 C   0  0  2  0  0  3  0  0  0  0  0  0
  190.6400  175.5050  137.6430 C   0  0  2  0  0  3  0  0  0  0  0  0
  190.6030  177.6540  140.0070 C   0  0  0  0  0  1  0  0  0  0  0  0
  188.6720  175.0100  136.3300 C   0  0  2  0  0  3  0  0  0  0  0  0
  1  6  1  0  0  0  0
  2  8  1  0  0  0  0
  4 22  2  0  0  0  0
  4 20  1  0  0  0  0
  5 27  1  0  0  0  0
  8  7  1  6  0  0  0
  8 14  1  0  0  0  0
  8 10  1  0  0  0  0
  9 18  1  1  0  0  0
  9 13  1  0  0  0  0
 10 26  1  0  0  0  0
 11 15  2  0  0  0  0
 12 24  1  0  0  0  0
 14  9  1  0  0  0  0
 15 19  1  0  0  0  0
 16  1  1  0  0  0  0
 16 28  1  0  0  0  0
 17  3  2  0  0  0  0
 17  5  1  0  0  0  0
 19 25  1  0  0  0  0
 20 16  2  0  0  0  0
 21  1  2  0  0  0  0
 22 21  1  0  0  0  0
 23 15  1  0  0  0  0
 23  6  1  0  0  0  0
 24  5  1  0  0  0  0
 25 12  1  0  0  0  0
 25 17  1  0  0  0  0
 26 13  1  0  0  0  0
 26 24  1  0  0  0  0
 28 10  1  0  0  0  0
 28 12  1  0  0  0  0
M  END
>  <MODEL>
3

>  <REMARK>
 VINA RESULT:      -5.7      1.951      6.357
  Name = 
  0 active torsions:
  status: ('A' for Active; 'I' for Inactive)
                            x       y       z     vdW  Elec       q    Type
                         _______ _______ _______ _____ _____    ______ ____

>  <TORSDO>
F 0

$$$$
=
 OpenBabel11122411523D

 28 32  0  0  1  0  0  0  0  0999 V2000
  179.8620  179.9830  138.5390 C   0  0  0  0  0  0  0  0  0  0  0  0
  184.5500  180.1330  139.5190 O   0  0  0  0  0  1  0  0  0  0  0  0
  181.4020  173.8110  138.0720 O   0  0  0  0  0  0  0  0  0  0  0  0
  181.4340  182.2880  138.2750 C   0  0  0  0  0  3  0  0  0  0  0  0
  182.2700  175.4890  136.6710 N   0  0  0  0  0  0  0  0  0  0  0  0
  178.9310  178.8250  138.6530 C   0  0  0  0  0  2  0  0  0  0  0  0
  184.6580  177.8680  140.1850 C   0  0  0  0  0  1  0  0  0  0  0  0
  184.6360  178.8410  139.0050 C   0  0  1  0  0  0  0  0  0  0  0  0
  185.8960  177.5140  137.5190 C   0  0  2  0  0  3  0  0  0  0  0  0
  183.4440  178.5890  138.0740 C   0  0  1  0  0  3  0  0  0  0  0  0
  179.2840  176.3750  141.3280 O   0  0  0  0  0  0  0  0  0  0  0  0
  181.3690  177.3850  137.7850 C   0  0  1  0  0  3  0  0  0  0  0  0
  184.8280  177.4040  136.5950 O   0  0  0  0  0  0  0  0  0  0  0  0
  185.8430  178.7390  138.2490 O   0  0  0  0  0  0  0  0  0  0  0  0
  179.2780  176.8620  140.1670 C   0  0  0  0  0  0  0  0  0  0  0  0
  181.2780  179.8510  138.4670 C   0  0  0  0  0  0  0  0  0  0  0  0
  181.5560  175.0320  137.8010 C   0  0  0  0  0  0  0  0  0  0  0  0
  187.2140  177.4250  136.7790 C   0  0  0  0  0  1  0  0  0  0  0  0
  179.6210  175.9940  139.0010 C   0  0  0  0  0  2  0  0  0  0  0  0
  182.0360  181.0320  138.3470 C   0  0  0  0  0  3  0  0  0  0  0  0
  179.2690  181.2480  138.4670 C   0  0  0  0  0  3  0  0  0  0  0  0
  180.0480  182.3960  138.3350 C   0  0  0  0  0  3  0  0  0  0  0  0
  178.9960  178.2490  139.9860 N   0  0  0  0  0  2  0  0  0  0  0  0
  182.4060  176.9310  136.7300 C   0  0  1  0  0  3  0  0  0  0  0  0
  181.0950  176.1430  138.6630 C   0  0  2  0  0  3  0  0  0  0  0  0
  183.7030  177.2800  137.4110 C   0  0  2  0  0  3  0  0  0  0  0  0
  183.0130  174.6330  135.7600 C   0  0  0  0  0  1  0  0  0  0  0  0
  182.0120  178.5130  138.6210 C   0  0  2  0  0  3  0  0  0  0  0  0
  1  6  1  0  0  0  0
  4 22  1  0  0  0  0
  4 20  2  0  0  0  0
  5 24  1  0  0  0  0
  5 17  1  0  0  0  0
  6 23  1  0  0  0  0
  8  2  1  0  0  0  0
  8  7  1  1  0  0  0
  9 18  1  6  0  0  0
  9 14  1  0  0  0  0
 10 28  1  0  0  0  0
 10  8  1  0  0  0  0
 12 28  1  0  0  0  0
 12 25  1  0  0  0  0
 13 26  1  0  0  0  0
 13  9  1  0  0  0  0
 14  8  1  0  0  0  0
 15 11  2  0  0  0  0
 16  1  2  0  0  0  0
 16 28  1  0  0  0  0
 17  3  2  0  0  0  0
 17 25  1  0  0  0  0
 19 15  1  0  0  0  0
 20 16  1  0  0  0  0
 21  1  1  0  0  0  0
 22 21  2  0  0  0  0
 23 15  1  0  0  0  0
 24 26  1  0  0  0  0
 24 12  1  0  0  0  0
 25 19  1  0  0  0  0
 26 10  1  0  0  0  0
 27  5  1  0  0  0  0
M  END
>  <MODEL>
4

>  <REMARK>
 VINA RESULT:      -5.4      6.117      8.809
  Name = 
  0 active torsions:
  status: ('A' for Active; 'I' for Inactive)
                            x       y       z     vdW  Elec       q    Type
                         _______ _______ _______ _____ _____    ______ ____

>  <TORSDO>
F 0

$$$$
=
 OpenBabel11122411523D

 28 32  0  0  1  0  0  0  0  0999 V2000
  181.5580  178.4770  135.4170 C   0  0  0  0  0  0  0  0  0  0  0  0
  181.5150  178.9080  140.1890 O   0  0  0  0  0  1  0  0  0  0  0  0
  186.5040  174.7820  137.0190 O   0  0  0  0  0  0  0  0  0  0  0  0
  180.3490  180.6090  136.7760 C   0  0  0  0  0  3  0  0  0  0  0  0
  186.4100  177.0960  137.4260 N   0  0  0  0  0  0  0  0  0  0  0  0
  182.1560  177.3880  134.5940 C   0  0  0  0  0  2  0  0  0  0  0  0
  182.6840  176.8870  140.5540 C   0  0  0  0  0  1  0  0  0  0  0  0
  182.7990  178.3670  140.1880 C   0  0  1  0  0  0  0  0  0  0  0  0
  184.9590  178.7100  141.0670 C   0  0  2  0  0  3  0  0  0  0  0  0
  183.4290  178.5700  138.8050 C   0  0  1  0  0  3  0  0  0  0  0  0
  182.1160  173.9250  135.7250 O   0  0  0  0  0  0  0  0  0  0  0  0
  184.1570  177.4820  136.7740 C   0  0  1  0  0  3  0  0  0  0  0  0
  185.5040  179.0340  139.8010 O   0  0  0  0  0  0  0  0  0  0  0  0
  183.5800  179.0650  141.1590 O   0  0  0  0  0  0  0  0  0  0  0  0
  182.5650  175.0540  135.3980 C   0  0  0  0  0  0  0  0  0  0  0  0
  181.9230  178.7330  136.7690 C   0  0  0  0  0  0  0  0  0  0  0  0
  185.8470  175.8570  137.0500 C   0  0  0  0  0  0  0  0  0  0  0  0
  185.7380  179.4290  142.1490 C   0  0  0  0  0  1  0  0  0  0  0  0
  184.0360  175.3080  135.4580 C   0  0  0  0  0  2  0  0  0  0  0  0
  181.2860  179.8050  137.4230 C   0  0  0  0  0  3  0  0  0  0  0  0
  180.6150  179.2890  134.7770 C   0  0  0  0  0  3  0  0  0  0  0  0
  180.0130  180.3510  135.4500 C   0  0  0  0  0  3  0  0  0  0  0  0
  181.6610  176.0920  135.0250 N   0  0  0  0  0  2  0  0  0  0  0  0
  185.3660  178.0980  137.5170 C   0  0  1  0  0  3  0  0  0  0  0  0
  184.3950  175.9540  136.7870 C   0  0  2  0  0  3  0  0  0  0  0  0
  184.8550  178.1560  138.9320 C   0  0  2  0  0  3  0  0  0  0  0  0
  187.7600  177.2700  137.9390 C   0  0  0  0  0  1  0  0  0  0  0  0
  182.8830  177.8430  137.5690 C   0  0  2  0  0  3  0  0  0  0  0  0
  1 16  1  0  0  0  0
  3 17  2  0  0  0  0
  4 20  1  0  0  0  0
  5 24  1  0  0  0  0
  5 27  1  0  0  0  0
  6 23  1  0  0  0  0
  6  1  1  0  0  0  0
  8  2  1  0  0  0  0
  8  7  1  1  0  0  0
  8 14  1  0  0  0  0
  9 14  1  0  0  0  0
  9 18  1  1  0  0  0
 10 26  1  0  0  0  0
 10  8  1  0  0  0  0
 12 25  1  0  0  0  0
 12 24  1  0  0  0  0
 12 28  1  0  0  0  0
 13  9  1  0  0  0  0
 15 19  1  0  0  0  0
 15 11  2  0  0  0  0
 16 20  2  0  0  0  0
 16 28  1  0  0  0  0
 17  5  1  0  0  0  0
 19 25  1  0  0  0  0
 21  1  2  0  0  0  0
 21 22  1  0  0  0  0
 22  4  2  0  0  0  0
 23 15  1  0  0  0  0
 24 26  1  0  0  0  0
 25 17  1  0  0  0  0
 26 13  1  0  0  0  0
 28 10  1  0  0  0  0
M  END
>  <MODEL>
5

>  <REMARK>
 VINA RESULT:      -5.3      4.472      7.951
  Name = 
  0 active torsions:
  status: ('A' for Active; 'I' for Inactive)
                            x       y       z     vdW  Elec       q    Type
                         _______ _______ _______ _____ _____    ______ ____

>  <TORSDO>
F 0

$$$$
=
 OpenBabel11122411523D

 28 32  0  0  1  0  0  0  0  0999 V2000
  182.5760  173.6300  136.8690 C   0  0  0  0  0  0  0  0  0  0  0  0
  186.6870  175.2820  135.0440 O   0  0  0  0  0  1  0  0  0  0  0  0
  181.8190  179.9140  137.6540 O   0  0  0  0  0  0  0  0  0  0  0  0
  184.8980  172.0820  136.6150 C   0  0  0  0  0  3  0  0  0  0  0  0
  183.5070  178.6560  138.7030 N   0  0  0  0  0  0  0  0  0  0  0  0
  181.2850  174.3530  137.0400 C   0  0  0  0  0  2  0  0  0  0  0  0
  185.8220  177.4350  134.5970 C   0  0  0  0  0  1  0  0  0  0  0  0
  186.3990  176.4990  135.6590 C   0  0  1  0  0  0  0  0  0  0  0  0
  187.3640  178.1680  137.0150 C   0  0  2  0  0  3  0  0  0  0  0  0
  185.4150  176.2610  136.8110 C   0  0  1  0  0  3  0  0  0  0  0  0
  180.1630  176.8160  134.6000 O   0  0  0  0  0  0  0  0  0  0  0  0
  183.1510  176.5860  137.5900 C   0  0  1  0  0  3  0  0  0  0  0  0
  186.5440  177.8460  138.1230 O   0  0  0  0  0  0  0  0  0  0  0  0
  187.6130  177.0300  136.1900 O   0  0  0  0  0  0  0  0  0  0  0  0
  180.5720  176.3360  135.6890 C   0  0  0  0  0  0  0  0  0  0  0  0
  183.8280  174.2840  136.6960 C   0  0  0  0  0  0  0  0  0  0  0  0
  182.4600  178.8360  137.7710 C   0  0  0  0  0  0  0  0  0  0  0  0
  188.6810  178.7310  137.5090 C   0  0  0  0  0  1  0  0  0  0  0  0
  180.8070  177.2430  136.8540 C   0  0  0  0  0  2  0  0  0  0  0  0
  184.9720  173.4740  136.5600 C   0  0  0  0  0  3  0  0  0  0  0  0
  182.5130  172.2330  136.9230 C   0  0  0  0  0  3  0  0  0  0  0  0
  183.6670  171.4610  136.7980 C   0  0  0  0  0  3  0  0  0  0  0  0
  180.8590  174.9420  135.7820 N   0  0  0  0  0  2  0  0  0  0  0  0
  184.1440  177.3730  138.4780 C   0  0  1  0  0  3  0  0  0  0  0  0
  182.2690  177.6530  136.9030 C   0  0  2  0  0  3  0  0  0  0  0  0
  185.3090  177.5540  137.5420 C   0  0  2  0  0  3  0  0  0  0  0  0
  184.0560  179.7070  139.5430 C   0  0  0  0  0  1  0  0  0  0  0  0
  183.9750  175.8030  136.5440 C   0  0  2  0  0  3  0  0  0  0  0  0
  1 21  1  0  0  0  0
  1  6  1  0  0  0  0
  2  8  1  0  0  0  0
  3 17  2  0  0  0  0
  4 22  1  0  0  0  0
  5 27  1  0  0  0  0
  8  7  1  6  0  0  0
  8 14  1  0  0  0  0
  8 10  1  0  0  0  0
  9 18  1  1  0  0  0
  9 13  1  0  0  0  0
 10 26  1  0  0  0  0
 11 15  2  0  0  0  0
 12 24  1  0  0  0  0
 14  9  1  0  0  0  0
 15 23  1  0  0  0  0
 15 19  1  0  0  0  0
 16  1  2  0  0  0  0
 17  5  1  0  0  0  0
 19 25  1  0  0  0  0
 20  4  2  0  0  0  0
 20 16  1  0  0  0  0
 22 21  2  0  0  0  0
 23  6  1  0  0  0  0
 24  5  1  0  0  0  0
 25 12  1  0  0  0  0
 25 17  1  0  0  0  0
 26 13  1  0  0  0  0
 26 24  1  0  0  0  0
 28 16  1  0  0  0  0
 28 10  1  0  0  0  0
 28 12  1  0  0  0  0
M  END
>  <MODEL>
6

>  <REMARK>
 VINA RESULT:      -5.1      4.161      8.198
  Name = 
  0 active torsions:
  status: ('A' for Active; 'I' for Inactive)
                            x       y       z     vdW  Elec       q    Type
                         _______ _______ _______ _____ _____    ______ ____

>  <TORSDO>
F 0

$$$$
=
 OpenBabel11122411523D

 28 32  0  0  1  0  0  0  0  0999 V2000
  180.6770  180.7000  136.7230 C   0  0  0  0  0  0  0  0  0  0  0  0
  180.4290  179.4680  141.3470 O   0  0  0  0  0  1  0  0  0  0  0  0
  185.0360  176.0500  136.9810 O   0  0  0  0  0  0  0  0  0  0  0  0
  179.6680  182.3780  138.7270 C   0  0  0  0  0  3  0  0  0  0  0  0
  185.2060  178.0740  138.1670 N   0  0  0  0  0  0  0  0  0  0  0  0
  181.1800  179.8910  135.5770 C   0  0  0  0  0  2  0  0  0  0  0  0
  181.3180  177.3070  140.9960 C   0  0  0  0  0  1  0  0  0  0  0  0
  181.6340  178.7930  141.1680 C   0  0  1  0  0  0  0  0  0  0  0  0
  183.7690  178.5200  142.1290 C   0  0  2  0  0  3  0  0  0  0  0  0
  182.3590  179.3720  139.9470 C   0  0  1  0  0  3  0  0  0  0  0  0
  180.6520  176.2880  135.4340 O   0  0  0  0  0  0  0  0  0  0  0  0
  183.0570  178.9600  137.6710 C   0  0  1  0  0  3  0  0  0  0  0  0
  184.4170  179.1820  141.0590 O   0  0  0  0  0  0  0  0  0  0  0  0
  182.4410  179.0030  142.3270 O   0  0  0  0  0  0  0  0  0  0  0  0
  181.2550  177.3900  135.5230 C   0  0  0  0  0  0  0  0  0  0  0  0
  180.9980  180.4250  138.0820 C   0  0  0  0  0  0  0  0  0  0  0  0
  184.5160  177.1270  137.3780 C   0  0  0  0  0  0  0  0  0  0  0  0
  184.5700  178.7110  143.4000 C   0  0  0  0  0  1  0  0  0  0  0  0
  182.7400  177.4080  135.6800 C   0  0  0  0  0  2  0  0  0  0  0  0
  180.4630  181.2820  139.0630 C   0  0  0  0  0  3  0  0  0  0  0  0
  179.8790  181.8020  136.3970 C   0  0  0  0  0  3  0  0  0  0  0  0
  179.3760  182.6390  137.3920 C   0  0  0  0  0  3  0  0  0  0  0  0
  180.5070  178.6050  135.5270 N   0  0  0  0  0  2  0  0  0  0  0  0
  184.2900  179.1150  138.5920 C   0  0  1  0  0  3  0  0  0  0  0  0
  183.1030  177.5040  137.1530 C   0  0  2  0  0  3  0  0  0  0  0  0
  183.7130  178.7510  139.9340 C   0  0  2  0  0  3  0  0  0  0  0  0
  186.5370  177.8780  138.7180 C   0  0  0  0  0  1  0  0  0  0  0  0
  181.7960  179.1940  138.5310 C   0  0  2  0  0  3  0  0  0  0  0  0
  1 16  1  0  0  0  0
  3 17  2  0  0  0  0
  4 20  1  0  0  0  0
  5 24  1  0  0  0  0
  5 27  1  0  0  0  0
  6  1  1  0  0  0  0
  8  7  1  6  0  0  0
  8  2  1  0  0  0  0
  8 14  1  0  0  0  0
  9 14  1  0  0  0  0
  9 18  1  1  0  0  0
 10  8  1  0  0  0  0
 11 15  2  0  0  0  0
 12 28  1  0  0  0  0
 12 24  1  0  0  0  0
 13  9  1  0  0  0  0
 15 23  1  0  0  0  0
 15 19  1  0  0  0  0
 16 28  1  0  0  0  0
 16 20  2  0  0  0  0
 17  5  1  0  0  0  0
 19 25  1  0  0  0  0
 21  1  2  0  0  0  0
 21 22  1  0  0  0  0
 22  4  2  0  0  0  0
 23  6  1  0  0  0  0
 24 26  1  0  0  0  0
 25 17  1  0  0  0  0
 25 12  1  0  0  0  0
 26 10  1  0  0  0  0
 26 13  1  0  0  0  0
 28 10  1  0  0  0  0
M  END
>  <MODEL>
7

>  <REMARK>
 VINA RESULT:      -5.0      6.093      9.040
  Name = 
  0 active torsions:
  status: ('A' for Active; 'I' for Inactive)
                            x       y       z     vdW  Elec       q    Type
                         _______ _______ _______ _____ _____    ______ ____

>  <TORSDO>
F 0

$$$$
=
 OpenBabel11122411523D

 28 32  0  0  1  0  0  0  0  0999 V2000
  180.3260  177.3370  136.0140 C   0  0  0  0  0  0  0  0  0  0  0  0
  184.2930  177.4250  138.7000 O   0  0  0  0  0  1  0  0  0  0  0  0
  179.3900  182.6640  139.3930 O   0  0  0  0  0  0  0  0  0  0  0  0
  181.8880  175.0740  136.5560 C   0  0  0  0  0  3  0  0  0  0  0  0
  179.5370  180.5180  140.3440 N   0  0  0  0  0  0  0  0  0  0  0  0
  179.4300  178.4710  135.6520 C   0  0  0  0  0  2  0  0  0  0  0  0
  184.1810  179.7530  139.0940 C   0  0  0  0  0  1  0  0  0  0  0  0
  183.6570  178.3740  139.4980 C   0  0  1  0  0  0  0  0  0  0  0  0
  183.1920  178.8960  141.7490 C   0  0  2  0  0  3  0  0  0  0  0  0
  182.1400  178.2570  139.3080 C   0  0  1  0  0  3  0  0  0  0  0  0
  180.7620  181.8050  135.0300 O   0  0  0  0  0  0  0  0  0  0  0  0
  180.1650  179.3080  138.3960 C   0  0  1  0  0  3  0  0  0  0  0  0
  181.8060  178.6490  141.5980 O   0  0  0  0  0  0  0  0  0  0  0  0
  183.9750  178.0970  140.8620 O   0  0  0  0  0  0  0  0  0  0  0  0
  180.1270  180.8740  135.5900 C   0  0  0  0  0  0  0  0  0  0  0  0
  181.2320  177.3680  137.1110 C   0  0  0  0  0  0  0  0  0  0  0  0
  179.6560  181.4380  139.2790 C   0  0  0  0  0  0  0  0  0  0  0  0
  183.6020  178.6100  143.1790 C   0  0  0  0  0  1  0  0  0  0  0  0
  179.3590  181.1530  136.8410 C   0  0  0  0  0  2  0  0  0  0  0  0
  182.0090  176.2170  137.3460 C   0  0  0  0  0  3  0  0  0  0  0  0
  180.2130  176.1850  135.2270 C   0  0  0  0  0  3  0  0  0  0  0  0
  180.9870  175.0580  135.4950 C   0  0  0  0  0  3  0  0  0  0  0  0
  180.1930  179.5530  135.0550 N   0  0  0  0  0  2  0  0  0  0  0  0
  180.0700  179.2320  139.9390 C   0  0  1  0  0  3  0  0  0  0  0  0
  180.2080  180.8160  138.0550 C   0  0  2  0  0  3  0  0  0  0  0  0
  181.5220  179.1510  140.3270 C   0  0  2  0  0  3  0  0  0  0  0  0
  179.2200  180.8780  141.7160 C   0  0  0  0  0  1  0  0  0  0  0  0
  181.4770  178.6140  137.9710 C   0  0  2  0  0  3  0  0  0  0  0  0
  1 16  1  0  0  0  0
  2  8  1  0  0  0  0
  4 20  1  0  0  0  0
  5 27  1  0  0  0  0
  6  1  1  0  0  0  0
  8  7  1  6  0  0  0
  8 14  1  0  0  0  0
  9 18  1  1  0  0  0
 10  8  1  0  0  0  0
 10 26  1  0  0  0  0
 11 15  2  0  0  0  0
 12 24  1  0  0  0  0
 13  9  1  0  0  0  0
 14  9  1  0  0  0  0
 15 19  1  0  0  0  0
 16 20  2  0  0  0  0
 16 28  1  0  0  0  0
 17  3  2  0  0  0  0
 17  5  1  0  0  0  0
 19 25  1  0  0  0  0
 21 22  1  0  0  0  0
 21  1  2  0  0  0  0
 22  4  2  0  0  0  0
 23 15  1  0  0  0  0
 23  6  1  0  0  0  0
 24 26  1  0  0  0  0
 24  5  1  0  0  0  0
 25 12  1  0  0  0  0
 25 17  1  0  0  0  0
 26 13  1  0  0  0  0
 28 12  1  0  0  0  0
 28 10  1  0  0  0  0
M  END
>  <MODEL>
8

>  <REMARK>
 VINA RESULT:      -4.8      7.101     10.548
  Name = 
  0 active torsions:
  status: ('A' for Active; 'I' for Inactive)
                            x       y       z     vdW  Elec       q    Type
                         _______ _______ _______ _____ _____    ______ ____

>  <TORSDO>
F 0

$$$$
=
 OpenBabel11122411523D

 28 32  0  0  1  0  0  0  0  0999 V2000
  186.9170  177.8780  139.1200 C   0  0  0  0  0  0  0  0  0  0  0  0
  182.5880  179.7620  139.9420 O   0  0  0  0  0  1  0  0  0  0  0  0
  183.4600  175.0080  134.5940 O   0  0  0  0  0  0  0  0  0  0  0  0
  186.1520  179.0110  141.5660 C   0  0  0  0  0  3  0  0  0  0  0  0
  183.0940  174.7260  136.8990 N   0  0  0  0  0  0  0  0  0  0  0  0
  187.4340  177.2640  137.8650 C   0  0  0  0  0  2  0  0  0  0  0  0
  181.8010  179.3420  137.7530 C   0  0  0  0  0  1  0  0  0  0  0  0
  182.0640  178.7510  139.1390 C   0  0  1  0  0  0  0  0  0  0  0  0
  180.3620  177.1220  139.0810 C   0  0  2  0  0  3  0  0  0  0  0  0
  183.0570  177.5840  139.0880 C   0  0  1  0  0  3  0  0  0  0  0  0
  186.4730  178.5550  134.5960 O   0  0  0  0  0  0  0  0  0  0  0  0
  184.6180  176.3620  137.7050 C   0  0  1  0  0  3  0  0  0  0  0  0
  181.2820  176.0500  139.1750 O   0  0  0  0  0  0  0  0  0  0  0  0
  180.8470  178.2970  139.7300 O   0  0  0  0  0  0  0  0  0  0  0  0
  186.5670  177.7650  135.5710 C   0  0  0  0  0  0  0  0  0  0  0  0
  185.5320  178.0470  139.4020 C   0  0  0  0  0  0  0  0  0  0  0  0
  183.6890  175.3540  135.7830 C   0  0  0  0  0  0  0  0  0  0  0  0
  179.0430  176.7100  139.7030 C   0  0  0  0  0  1  0  0  0  0  0  0
  185.8970  176.4320  135.5080 C   0  0  0  0  0  2  0  0  0  0  0  0
  185.1860  178.6310  140.6360 C   0  0  0  0  0  3  0  0  0  0  0  0
  187.8790  178.2640  140.0610 C   0  0  0  0  0  3  0  0  0  0  0  0
  187.5010  178.8260  141.2790 C   0  0  0  0  0  3  0  0  0  0  0  0
  187.2670  178.1740  136.7460 N   0  0  0  0  0  2  0  0  0  0  0  0
  183.4300  175.4550  138.1070 C   0  0  1  0  0  3  0  0  0  0  0  0
  184.5300  176.5080  136.1690 C   0  0  2  0  0  3  0  0  0  0  0  0
  182.3550  176.4710  138.3880 C   0  0  2  0  0  3  0  0  0  0  0  0
  182.0650  173.7020  136.8210 C   0  0  0  0  0  1  0  0  0  0  0  0
  184.4190  177.7290  138.3960 C   0  0  2  0  0  3  0  0  0  0  0  0
  1 16  2  0  0  0  0
  1 21  1  0  0  0  0
  3 17  2  0  0  0  0
  5 24  1  0  0  0  0
  6  1  1  0  0  0  0
  8  7  1  6  0  0  0
  8 14  1  0  0  0  0
  8  2  1  0  0  0  0
  9 13  1  0  0  0  0
  9 18  1  1  0  0  0
  9 14  1  0  0  0  0
 10  8  1  0  0  0  0
 11 15  2  0  0  0  0
 12 24  1  0  0  0  0
 12 28  1  0  0  0  0
 15 23  1  0  0  0  0
 16 20  1  0  0  0  0
 17 25  1  0  0  0  0
 17  5  1  0  0  0  0
 19 15  1  0  0  0  0
 19 25  1  0  0  0  0
 20  4  2  0  0  0  0
 21 22  2  0  0  0  0
 22  4  1  0  0  0  0
 23  6  1  0  0  0  0
 24 26  1  0  0  0  0
 25 12  1  0  0  0  0
 26 10  1  0  0  0  0
 26 13  1  0  0  0  0
 27  5  1  0  0  0  0
 28 10  1  0  0  0  0
 28 16  1  0  0  0  0
M  END
>  <MODEL>
9

>  <REMARK>
 VINA RESULT:      -4.8      4.207      5.876
  Name = 
  0 active torsions:
  status: ('A' for Active; 'I' for Inactive)
                            x       y       z     vdW  Elec       q    Type
                         _______ _______ _______ _____ _____    ______ ____

>  <TORSDO>
F 0

$$$$
