=
 OpenBabel11122410533D

 32 37  0  0  1  0  0  0  0  0999 V2000
  182.5630  179.0420  138.0810 C   0  0  0  0  0  2  0  0  0  0  0  0
  185.9700  178.3690  141.8960 C   0  0  2  0  0  3  0  0  0  0  0  0
  184.3500  178.9080  146.4390 C   0  0  0  0  0  3  0  0  0  0  0  0
  185.6070  178.5830  146.9540 C   0  0  0  0  0  3  0  0  0  0  0  0
  188.3900  177.4320  141.5040 C   0  0  2  0  0  3  0  0  0  0  0  0
  189.7540  177.1530  142.1660 C   0  0  1  0  0  3  0  0  0  0  0  0
  184.3740  178.3140  139.9950 N   0  0  1  0  0  0  0  0  0  0  0  0
  183.5750  178.5260  142.2900 N   0  0  0  0  0  2  0  0  0  0  0  0
  191.0080  176.7250  144.0580 C   0  0  2  0  0  3  0  0  0  0  0  0
  181.9140  178.4080  140.5000 C   0  0  0  0  0  2  0  0  0  0  0  0
  184.0770  178.7140  145.0820 C   0  0  0  0  0  3  0  0  0  0  0  0
  184.8050  177.9140  142.7790 C   0  0  2  0  0  3  0  0  0  0  0  0
  185.0710  178.2120  144.2300 C   0  0  0  0  0  0  0  0  0  0  0  0
  187.3550  177.2820  143.8000 C   0  0  2  0  0  3  0  0  0  0  0  0
  191.6900  177.8650  143.3050 C   0  0  0  0  0  2  0  0  0  0  0  0
  183.2640  180.2060  138.7930 C   0  0  0  0  0  2  0  0  0  0  0  0
  183.3060  177.9660  140.9630 C   0  0  1  0  0  3  0  0  0  0  0  0
  190.6890  178.3350  142.2780 C   0  0  0  0  0  2  0  0  0  0  0  0
  184.4220  179.7520  139.6980 C   0  0  0  0  0  2  0  0  0  0  0  0
  181.6680  178.1870  139.0030 C   0  0  1  0  0  3  0  0  0  0  0  0
  186.5960  178.0660  146.1130 C   0  0  0  0  0  3  0  0  0  0  0  0
  186.3390  177.8850  144.7440 C   0  0  0  0  0  0  0  0  0  0  0  0
  188.7650  177.2460  144.3760 C   0  0  0  0  0  2  0  0  0  0  0  0
  185.6920  177.8730  140.4730 C   0  0  0  0  0  2  0  0  0  0  0  0
  188.5660  178.2420  140.3790 O   0  0  0  0  0  1  0  0  0  0  0  0
  191.8300  175.4570  143.9250 C   0  0  0  0  0  1  0  0  0  0  0  0
  187.3860  178.0650  142.4780 C   0  0  2  0  0  3  0  0  0  0  0  0
  189.6780  176.5180  143.4880 N   0  0  1  0  0  0  0  0  0  0  0  0
  180.2030  178.4600  138.7020 C   0  0  0  0  0  2  0  0  0  0  0  0
  179.4260  177.1890  138.6730 C   0  0  0  0  0  0  0  0  0  0  0  0
  179.0930  176.6780  137.5720 O   0  0  0  0  0  0  0  0  0  0  0  0
  179.0900  176.5530  139.8610 O   0  0  0  0  0  1  0  0  0  0  0  0
  1 16  1  0  0  0  0
  1 20  1  0  0  0  0
  2 24  1  6  0  0  0
  2 27  1  0  0  0  0
  2 12  1  0  0  0  0
  3  4  1  0  0  0  0
  5 25  1  6  0  0  0
  5  6  1  0  0  0  0
  5 27  1  0  0  0  0
  6 18  1  1  0  0  0
  6 28  1  0  0  0  0
  7 19  1  1  0  0  0
  7 24  1  0  0  0  0
  7 17  1  0  0  0  0
  9 26  1  6  0  0  0
 11  3  2  0  0  0  0
 12  8  1  6  0  0  0
 12 13  1  0  0  0  0
 13 22  2  0  0  0  0
 13 11  1  0  0  0  0
 14 23  1  1  0  0  0
 14 22  1  0  0  0  0
 15  9  1  0  0  0  0
 16 19  1  0  0  0  0
 17 10  1  6  0  0  0
 17  8  1  0  0  0  0
 18 15  1  0  0  0  0
 20 29  1  1  0  0  0
 20 10  1  0  0  0  0
 21  4  2  0  0  0  0
 22 21  1  0  0  0  0
 27 14  1  0  0  0  0
 28  9  1  0  0  0  0
 28 23  1  0  0  0  0
 30 29  1  0  0  0  0
 30 32  1  0  0  0  0
 31 30  2  0  0  0  0
M  END
>  <MODEL>
1

>  <REMARK>
 VINA RESULT:      -8.4      0.000      0.000
  Name = 
  2 active torsions:
  status: ('A' for Active; 'I' for Inactive)
    1  A    between atoms: C_20  and  C_29
    2  A    between atoms: C_29  and  C_30
                            x       y       z     vdW  Elec       q    Type
                         _______ _______ _______ _____ _____    ______ ____

>  <TORSDO>
F 2

$$$$
=
 OpenBabel11122410533D

 32 37  0  0  1  0  0  0  0  0999 V2000
  192.8640  174.6850  135.0310 C   0  0  0  0  0  2  0  0  0  0  0  0
  189.2480  176.5710  138.1910 C   0  0  2  0  0  3  0  0  0  0  0  0
  190.5050  177.2850  142.8240 C   0  0  0  0  0  3  0  0  0  0  0  0
  189.2390  177.7980  143.1160 C   0  0  0  0  0  3  0  0  0  0  0  0
  186.9300  177.4620  137.3430 C   0  0  2  0  0  3  0  0  0  0  0  0
  185.5450  177.9780  137.7780 C   0  0  1  0  0  3  0  0  0  0  0  0
  190.9750  176.0090  136.4980 N   0  0  1  0  0  0  0  0  0  0  0  0
  191.5940  176.4290  138.8190 N   0  0  0  0  0  2  0  0  0  0  0  0
  184.1920  178.9850  139.3570 C   0  0  2  0  0  3  0  0  0  0  0  0
  193.3820  175.9560  137.2190 C   0  0  0  0  0  2  0  0  0  0  0  0
  190.8850  177.0700  141.4970 C   0  0  0  0  0  3  0  0  0  0  0  0
  190.3760  177.2080  139.0080 C   0  0  2  0  0  3  0  0  0  0  0  0
  189.9890  177.3500  140.4540 C   0  0  0  0  0  0  0  0  0  0  0  0
  187.8090  178.2170  139.5840 C   0  0  2  0  0  3  0  0  0  0  0  0
  183.4900  177.7080  138.9000 C   0  0  0  0  0  2  0  0  0  0  0  0
  192.0380  173.8060  135.9790 C   0  0  0  0  0  2  0  0  0  0  0  0
  191.9930  176.5730  137.4170 C   0  0  1  0  0  3  0  0  0  0  0  0
  184.5270  176.9200  138.1380 C   0  0  0  0  0  2  0  0  0  0  0  0
  190.8520  174.5500  136.6140 C   0  0  0  0  0  2  0  0  0  0  0  0
  193.7470  175.7280  135.7480 C   0  0  1  0  0  3  0  0  0  0  0  0
  188.3480  178.0960  142.0810 C   0  0  0  0  0  3  0  0  0  0  0  0
  188.7130  177.8660  140.7450 C   0  0  0  0  0  0  0  0  0  0  0  0
  186.3660  178.4780  140.0020 C   0  0  0  0  0  2  0  0  0  0  0  0
  189.6590  176.6260  136.7160 C   0  0  0  0  0  2  0  0  0  0  0  0
  186.7800  176.3720  136.4810 O   0  0  0  0  0  1  0  0  0  0  0  0
  183.4680  180.1960  138.8020 C   0  0  0  0  0  1  0  0  0  0  0  0
  187.8180  177.0910  138.5380 C   0  0  2  0  0  3  0  0  0  0  0  0
  185.5700  178.9610  138.8700 N   0  0  1  0  0  0  0  0  0  0  0  0
  195.2080  175.3160  135.6640 C   0  0  0  0  0  2  0  0  0  0  0  0
  196.0930  176.5150  135.6620 C   0  0  0  0  0  0  0  0  0  0  0  0
  197.3050  176.4040  135.9810 O   0  0  0  0  0  1  0  0  0  0  0  0
  195.5870  177.7510  135.2830 O   0  0  0  0  0  0  0  0  0  0  0  0
  1 20  1  0  0  0  0
  1 16  1  0  0  0  0
  2 24  1  6  0  0  0
  2 27  1  0  0  0  0
  2 12  1  0  0  0  0
  3  4  1  0  0  0  0
  5 25  1  6  0  0  0
  5  6  1  0  0  0  0
  5 27  1  0  0  0  0
  6 18  1  1  0  0  0
  6 28  1  0  0  0  0
  7 19  1  1  0  0  0
  7 24  1  0  0  0  0
  7 17  1  0  0  0  0
  9 26  1  6  0  0  0
 11  3  2  0  0  0  0
 12  8  1  1  0  0  0
 12 13  1  0  0  0  0
 13 22  2  0  0  0  0
 13 11  1  0  0  0  0
 14 23  1  1  0  0  0
 14 22  1  0  0  0  0
 15  9  1  0  0  0  0
 16 19  1  0  0  0  0
 17 10  1  1  0  0  0
 17  8  1  0  0  0  0
 18 15  1  0  0  0  0
 20 29  1  1  0  0  0
 20 10  1  0  0  0  0
 21  4  2  0  0  0  0
 22 21  1  0  0  0  0
 27 14  1  0  0  0  0
 28  9  1  0  0  0  0
 28 23  1  0  0  0  0
 30 29  1  0  0  0  0
 30 31  1  0  0  0  0
 32 30  2  0  0  0  0
M  END
>  <MODEL>
2

>  <REMARK>
 VINA RESULT:      -7.7      5.038      9.506
  Name = 
  2 active torsions:
  status: ('A' for Active; 'I' for Inactive)
    1  A    between atoms: C_20  and  C_29
    2  A    between atoms: C_29  and  C_30
                            x       y       z     vdW  Elec       q    Type
                         _______ _______ _______ _____ _____    ______ ____

>  <TORSDO>
F 2

$$$$
=
 OpenBabel11122410533D

 32 37  0  0  1  0  0  0  0  0999 V2000
  184.1190  179.1660  144.7230 C   0  0  0  0  0  2  0  0  0  0  0  0
  187.4160  178.2000  140.8750 C   0  0  2  0  0  3  0  0  0  0  0  0
  192.1080  177.7500  142.0330 C   0  0  0  0  0  3  0  0  0  0  0  0
  192.4370  177.4760  140.7030 C   0  0  0  0  0  3  0  0  0  0  0  0
  186.6380  177.6110  138.4380 C   0  0  2  0  0  3  0  0  0  0  0  0
  187.1090  177.3680  136.9910 C   0  0  1  0  0  3  0  0  0  0  0  0
  185.6910  178.3100  142.6570 N   0  0  1  0  0  0  0  0  0  0  0  0
  188.0480  178.0260  143.2170 N   0  0  0  0  0  2  0  0  0  0  0  0
  188.7660  176.7490  135.5060 C   0  0  2  0  0  3  0  0  0  0  0  0
  186.4260  178.0490  145.0460 C   0  0  0  0  0  2  0  0  0  0  0  0
  190.7690  177.7700  142.4320 C   0  0  0  0  0  3  0  0  0  0  0  0
  188.3010  177.4730  141.8920 C   0  0  2  0  0  3  0  0  0  0  0  0
  189.7510  177.5370  141.4970 C   0  0  0  0  0  0  0  0  0  0  0  0
  188.9500  176.9480  139.2000 C   0  0  2  0  0  3  0  0  0  0  0  0
  188.1810  178.0710  135.0130 C   0  0  0  0  0  2  0  0  0  0  0  0
  184.9700  180.2540  144.0550 C   0  0  0  0  0  2  0  0  0  0  0  0
  186.6700  177.6840  143.5780 C   0  0  1  0  0  3  0  0  0  0  0  0
  187.3550  178.6050  136.1580 C   0  0  0  0  0  2  0  0  0  0  0  0
  185.6640  179.7750  142.7700 C   0  0  0  0  0  2  0  0  0  0  0  0
  184.9430  178.0710  145.4330 C   0  0  1  0  0  3  0  0  0  0  0  0
  191.4280  177.2250  139.7690 C   0  0  0  0  0  3  0  0  0  0  0  0
  190.0790  177.2620  140.1570 C   0  0  0  0  0  0  0  0  0  0  0  0
  189.3790  176.9630  137.7370 C   0  0  0  0  0  2  0  0  0  0  0  0
  185.9570  177.9360  141.2610 C   0  0  0  0  0  2  0  0  0  0  0  0
  185.6730  178.6220  138.4580 O   0  0  0  0  0  1  0  0  0  0  0  0
  188.3260  175.6210  134.5940 C   0  0  0  0  0  1  0  0  0  0  0  0
  187.8000  177.9510  139.3820 C   0  0  2  0  0  3  0  0  0  0  0  0
  188.2920  176.5050  136.8660 N   0  0  1  0  0  0  0  0  0  0  0  0
  184.8320  178.2340  146.9400 C   0  0  0  0  0  2  0  0  0  0  0  0
  186.0360  178.9240  147.4850 C   0  0  0  0  0  0  0  0  0  0  0  0
  186.0560  180.1790  147.5750 O   0  0  0  0  0  0  0  0  0  0  0  0
  187.1270  178.1820  147.9160 O   0  0  0  0  0  1  0  0  0  0  0  0
  1 20  1  0  0  0  0
  2 24  1  6  0  0  0
  2 12  1  0  0  0  0
  3 11  1  0  0  0  0
  4  3  2  0  0  0  0
  5 25  1  6  0  0  0
  5 27  1  0  0  0  0
  6 18  1  1  0  0  0
  6  5  1  0  0  0  0
  7 24  1  6  0  0  0
  7 19  1  0  0  0  0
  7 17  1  0  0  0  0
  8 17  1  0  0  0  0
  9 26  1  6  0  0  0
  9 28  1  0  0  0  0
 10 20  1  0  0  0  0
 12 13  1  6  0  0  0
 12  8  1  0  0  0  0
 13 11  2  0  0  0  0
 14 23  1  6  0  0  0
 14 27  1  0  0  0  0
 14 22  1  0  0  0  0
 15  9  1  0  0  0  0
 15 18  1  0  0  0  0
 16  1  1  0  0  0  0
 17 10  1  1  0  0  0
 19 16  1  0  0  0  0
 20 29  1  1  0  0  0
 21 22  2  0  0  0  0
 21  4  1  0  0  0  0
 22 13  1  0  0  0  0
 27  2  1  0  0  0  0
 28  6  1  0  0  0  0
 28 23  1  0  0  0  0
 29 30  1  0  0  0  0
 30 31  2  0  0  0  0
 30 32  1  0  0  0  0
M  END
>  <MODEL>
3

>  <REMARK>
 VINA RESULT:      -7.4      3.498      7.056
  Name = 
  2 active torsions:
  status: ('A' for Active; 'I' for Inactive)
    1  A    between atoms: C_20  and  C_29
    2  A    between atoms: C_29  and  C_30
                            x       y       z     vdW  Elec       q    Type
                         _______ _______ _______ _____ _____    ______ ____

>  <TORSDO>
F 2

$$$$
=
 OpenBabel11122410533D

 32 37  0  0  1  0  0  0  0  0999 V2000
  190.1140  178.1130  144.9920 C   0  0  0  0  0  2  0  0  0  0  0  0
  189.6900  177.4450  139.8940 C   0  0  2  0  0  3  0  0  0  0  0  0
  193.6680  176.0260  137.5030 C   0  0  0  0  0  3  0  0  0  0  0  0
  192.9610  175.9820  136.2990 C   0  0  0  0  0  3  0  0  0  0  0  0
  187.3900  177.5010  138.6300 C   0  0  2  0  0  3  0  0  0  0  0  0
  186.7150  177.4880  137.2450 C   0  0  1  0  0  3  0  0  0  0  0  0
  189.6590  177.4600  142.3770 N   0  0  1  0  0  0  0  0  0  0  0  0
  191.6290  176.6950  141.1580 N   0  0  0  0  0  2  0  0  0  0  0  0
  186.7610  176.9310  135.0040 C   0  0  2  0  0  3  0  0  0  0  0  0
  191.6790  176.6000  143.6000 C   0  0  0  0  0  2  0  0  0  0  0  0
  192.9830  176.1770  138.7120 C   0  0  0  0  0  3  0  0  0  0  0  0
  190.7980  176.3930  139.9970 C   0  0  2  0  0  3  0  0  0  0  0  0
  191.5870  176.3050  138.7190 C   0  0  0  0  0  0  0  0  0  0  0  0
  189.3620  176.3350  137.5730 C   0  0  2  0  0  3  0  0  0  0  0  0
  186.3620  178.4020  135.1020 C   0  0  0  0  0  2  0  0  0  0  0  0
  190.5600  179.1650  143.9690 C   0  0  0  0  0  2  0  0  0  0  0  0
  190.7980  176.5100  142.3490 C   0  0  1  0  0  3  0  0  0  0  0  0
  186.6610  178.8140  136.5230 C   0  0  0  0  0  2  0  0  0  0  0  0
  190.0890  178.8560  142.5380 C   0  0  0  0  0  2  0  0  0  0  0  0
  190.8840  176.7780  144.8990 C   0  0  1  0  0  3  0  0  0  0  0  0
  191.5670  176.0920  136.3010 C   0  0  0  0  0  3  0  0  0  0  0  0
  190.8720  176.2630  137.5090 C   0  0  0  0  0  0  0  0  0  0  0  0
  188.7130  176.5820  136.2160 C   0  0  0  0  0  2  0  0  0  0  0  0
  188.8380  177.3420  141.1640 C   0  0  0  0  0  2  0  0  0  0  0  0
  186.9760  178.6260  139.3490 O   0  0  0  0  0  1  0  0  0  0  0  0
  185.5620  176.0990  134.5950 C   0  0  0  0  0  1  0  0  0  0  0  0
  188.9210  177.4500  138.5350 C   0  0  2  0  0  3  0  0  0  0  0  0
  187.2520  176.4910  136.3080 N   0  0  1  0  0  0  0  0  0  0  0  0
  191.8340  176.6440  146.0770 C   0  0  0  0  0  2  0  0  0  0  0  0
  191.0950  176.7680  147.3660 C   0  0  0  0  0  0  0  0  0  0  0  0
  191.6680  177.2490  148.3770 O   0  0  0  0  0  1  0  0  0  0  0  0
  189.7650  176.3770  147.4440 O   0  0  0  0  0  0  0  0  0  0  0  0
  2 12  1  0  0  0  0
  2 24  1  1  0  0  0
  3 11  1  0  0  0  0
  4 21  1  0  0  0  0
  4  3  2  0  0  0  0
  5 25  1  6  0  0  0
  6 18  1  6  0  0  0
  6  5  1  0  0  0  0
  7 24  1  6  0  0  0
  7 19  1  0  0  0  0
  8 17  1  0  0  0  0
  9 26  1  1  0  0  0
  9 15  1  0  0  0  0
  9 28  1  0  0  0  0
 10 20  1  0  0  0  0
 11 13  2  0  0  0  0
 12 13  1  6  0  0  0
 12  8  1  0  0  0  0
 14 23  1  6  0  0  0
 14 27  1  0  0  0  0
 15 18  1  0  0  0  0
 16  1  1  0  0  0  0
 17  7  1  0  0  0  0
 17 10  1  1  0  0  0
 19 16  1  0  0  0  0
 20  1  1  0  0  0  0
 20 29  1  1  0  0  0
 21 22  2  0  0  0  0
 22 14  1  0  0  0  0
 22 13  1  0  0  0  0
 23 28  1  0  0  0  0
 27  5  1  0  0  0  0
 27  2  1  0  0  0  0
 28  6  1  0  0  0  0
 29 30  1  0  0  0  0
 30 32  2  0  0  0  0
 30 31  1  0  0  0  0
M  END
>  <MODEL>
4

>  <REMARK>
 VINA RESULT:      -7.3      4.514      9.530
  Name = 
  2 active torsions:
  status: ('A' for Active; 'I' for Inactive)
    1  A    between atoms: C_20  and  C_29
    2  A    between atoms: C_29  and  C_30
                            x       y       z     vdW  Elec       q    Type
                         _______ _______ _______ _____ _____    ______ ____

>  <TORSDO>
F 2

$$$$
=
 OpenBabel11122410533D

 32 37  0  0  1  0  0  0  0  0999 V2000
  185.2660  178.6920  146.0480 C   0  0  0  0  0  2  0  0  0  0  0  0
  184.9140  178.5540  140.9030 C   0  0  2  0  0  3  0  0  0  0  0  0
  189.0560  178.8230  138.3880 C   0  0  0  0  0  3  0  0  0  0  0  0
  188.3620  178.6990  137.1810 C   0  0  0  0  0  3  0  0  0  0  0  0
  182.6810  178.0070  139.6360 C   0  0  2  0  0  3  0  0  0  0  0  0
  182.0020  177.9440  138.2540 C   0  0  1  0  0  3  0  0  0  0  0  0
  184.9620  178.2530  143.3670 N   0  0  1  0  0  0  0  0  0  0  0  0
  187.0320  178.3320  142.0790 N   0  0  0  0  0  2  0  0  0  0  0  0
  182.1530  177.7130  135.9610 C   0  0  2  0  0  3  0  0  0  0  0  0
  187.1910  177.9600  144.4900 C   0  0  0  0  0  2  0  0  0  0  0  0
  188.4000  178.5920  139.6000 C   0  0  0  0  0  3  0  0  0  0  0  0
  186.3080  177.9200  140.8820 C   0  0  2  0  0  3  0  0  0  0  0  0
  187.0390  178.2530  139.6100 C   0  0  0  0  0  0  0  0  0  0  0  0
  184.8900  177.6920  138.4570 C   0  0  2  0  0  3  0  0  0  0  0  0
  181.2990  178.9470  136.2410 C   0  0  0  0  0  2  0  0  0  0  0  0
  185.3090  179.9500  145.1710 C   0  0  0  0  0  2  0  0  0  0  0  0
  186.3470  177.7400  143.2300 C   0  0  1  0  0  3  0  0  0  0  0  0
  181.4940  179.2570  137.7050 C   0  0  0  0  0  2  0  0  0  0  0  0
  184.9180  179.6810  143.7080 C   0  0  0  0  0  2  0  0  0  0  0  0
  186.4250  177.7060  145.7930 C   0  0  1  0  0  3  0  0  0  0  0  0
  187.0100  178.3440  137.1850 C   0  0  0  0  0  3  0  0  0  0  0  0
  186.3380  178.1280  138.3980 C   0  0  0  0  0  0  0  0  0  0  0  0
  184.1510  177.8770  137.1370 C   0  0  0  0  0  2  0  0  0  0  0  0
  184.1850  178.0220  142.1420 C   0  0  0  0  0  2  0  0  0  0  0  0
  181.9470  178.8370  140.4870 O   0  0  0  0  0  1  0  0  0  0  0  0
  181.2780  176.5900  135.4390 C   0  0  0  0  0  1  0  0  0  0  0  0
  184.1410  178.4730  139.5490 C   0  0  2  0  0  3  0  0  0  0  0  0
  182.8040  177.3020  137.2030 N   0  0  1  0  0  0  0  0  0  0  0  0
  187.4060  177.7470  146.9540 C   0  0  0  0  0  2  0  0  0  0  0  0
  188.7840  177.4210  146.4900 C   0  0  0  0  0  0  0  0  0  0  0  0
  189.3570  176.3780  146.9000 O   0  0  0  0  0  1  0  0  0  0  0  0
  189.4280  178.2540  145.5850 O   0  0  0  0  0  0  0  0  0  0  0  0
  2 24  1  1  0  0  0
  3 11  1  0  0  0  0
  4 21  1  0  0  0  0
  4  3  2  0  0  0  0
  5 25  1  1  0  0  0
  6 18  1  6  0  0  0
  6  5  1  0  0  0  0
  7 24  1  6  0  0  0
  7 19  1  0  0  0  0
  8 17  1  0  0  0  0
  9 26  1  1  0  0  0
  9 15  1  0  0  0  0
  9 28  1  0  0  0  0
 10 20  1  0  0  0  0
 11 13  2  0  0  0  0
 12 13  1  6  0  0  0
 12  2  1  0  0  0  0
 12  8  1  0  0  0  0
 14 23  1  6  0  0  0
 14 27  1  0  0  0  0
 15 18  1  0  0  0  0
 16  1  1  0  0  0  0
 17  7  1  0  0  0  0
 17 10  1  1  0  0  0
 19 16  1  0  0  0  0
 20  1  1  0  0  0  0
 20 29  1  1  0  0  0
 21 22  2  0  0  0  0
 22 14  1  0  0  0  0
 22 13  1  0  0  0  0
 23 28  1  0  0  0  0
 27  5  1  0  0  0  0
 27  2  1  0  0  0  0
 28  6  1  0  0  0  0
 30 31  1  0  0  0  0
 30 29  1  0  0  0  0
 32 30  2  0  0  0  0
M  END
>  <MODEL>
5

>  <REMARK>
 VINA RESULT:      -6.7      2.670      8.389
  Name = 
  2 active torsions:
  status: ('A' for Active; 'I' for Inactive)
    1  A    between atoms: C_20  and  C_29
    2  A    between atoms: C_29  and  C_30
                            x       y       z     vdW  Elec       q    Type
                         _______ _______ _______ _____ _____    ______ ____

>  <TORSDO>
F 2

$$$$
=
 OpenBabel11122410533D

 32 37  0  0  1  0  0  0  0  0999 V2000
  191.4990  175.8900  136.9360 C   0  0  0  0  0  2  0  0  0  0  0  0
  187.1840  177.5440  139.2280 C   0  0  2  0  0  3  0  0  0  0  0  0
  187.1570  177.6680  144.0790 C   0  0  0  0  0  3  0  0  0  0  0  0
  185.8630  178.1950  144.0850 C   0  0  0  0  0  3  0  0  0  0  0  0
  185.1860  178.6200  137.9100 C   0  0  2  0  0  3  0  0  0  0  0  0
  183.7380  179.1380  138.0210 C   0  0  1  0  0  3  0  0  0  0  0  0
  189.2970  177.1120  137.9980 N   0  0  1  0  0  0  0  0  0  0  0  0
  189.2740  177.2360  140.4340 N   0  0  0  0  0  2  0  0  0  0  0  0
  182.0200  180.0100  139.2950 C   0  0  2  0  0  3  0  0  0  0  0  0
  191.4210  176.8790  139.3210 C   0  0  0  0  0  2  0  0  0  0  0  0
  187.8770  177.5930  142.8850 C   0  0  0  0  0  3  0  0  0  0  0  0
  188.0560  178.0370  140.3860 C   0  0  2  0  0  3  0  0  0  0  0  0
  187.2960  178.0270  141.6840 C   0  0  0  0  0  0  0  0  0  0  0  0
  185.4370  179.0760  140.3780 C   0  0  2  0  0  3  0  0  0  0  0  0
  181.4560  178.8240  138.5160 C   0  0  0  0  0  2  0  0  0  0  0  0
  190.4430  174.9420  137.5160 C   0  0  0  0  0  2  0  0  0  0  0  0
  190.0350  177.5250  139.2160 C   0  0  1  0  0  3  0  0  0  0  0  0
  182.6530  178.0880  137.9660 C   0  0  0  0  0  2  0  0  0  0  0  0
  189.1360  175.6550  137.9000 C   0  0  0  0  0  2  0  0  0  0  0  0
  192.1660  176.8070  137.9830 C   0  0  1  0  0  3  0  0  0  0  0  0
  185.2850  178.6460  142.8950 C   0  0  0  0  0  3  0  0  0  0  0  0
  185.9940  178.5570  141.6860 C   0  0  0  0  0  0  0  0  0  0  0  0
  183.9370  179.3450  140.4270 C   0  0  0  0  0  2  0  0  0  0  0  0
  187.9760  177.7530  137.9330 C   0  0  0  0  0  2  0  0  0  0  0  0
  185.2640  177.6440  136.9130 O   0  0  0  0  0  1  0  0  0  0  0  0
  181.4810  181.3060  138.7190 C   0  0  0  0  0  1  0  0  0  0  0  0
  185.7170  178.0780  139.2440 C   0  0  2  0  0  3  0  0  0  0  0  0
  183.4780  179.9870  139.1920 N   0  0  1  0  0  0  0  0  0  0  0  0
  193.5920  176.3490  138.2400 C   0  0  0  0  0  2  0  0  0  0  0  0
  194.3170  176.1390  136.9550 C   0  0  0  0  0  0  0  0  0  0  0  0
  194.4070  177.0760  136.1210 O   0  0  0  0  0  0  0  0  0  0  0  0
  194.9170  174.9150  136.6880 O   0  0  0  0  0  1  0  0  0  0  0  0
  1 16  1  0  0  0  0
  1 20  1  0  0  0  0
  2 24  1  6  0  0  0
  2 27  1  0  0  0  0
  2 12  1  0  0  0  0
  3  4  1  0  0  0  0
  5 25  1  6  0  0  0
  5  6  1  0  0  0  0
  5 27  1  0  0  0  0
  6 18  1  1  0  0  0
  6 28  1  0  0  0  0
  7 19  1  1  0  0  0
  7 17  1  0  0  0  0
  9 26  1  6  0  0  0
 11  3  2  0  0  0  0
 12  8  1  1  0  0  0
 12 13  1  0  0  0  0
 13 22  2  0  0  0  0
 13 11  1  0  0  0  0
 14 23  1  1  0  0  0
 14 22  1  0  0  0  0
 15  9  1  0  0  0  0
 16 19  1  0  0  0  0
 17 10  1  1  0  0  0
 17  8  1  0  0  0  0
 18 15  1  0  0  0  0
 20 29  1  1  0  0  0
 20 10  1  0  0  0  0
 21  4  2  0  0  0  0
 22 21  1  0  0  0  0
 24  7  1  0  0  0  0
 27 14  1  0  0  0  0
 28  9  1  0  0  0  0
 28 23  1  0  0  0  0
 30 29  1  0  0  0  0
 31 30  2  0  0  0  0
 32 30  1  0  0  0  0
M  END
>  <MODEL>
6

>  <REMARK>
 VINA RESULT:      -6.4      3.607      8.489
  Name = 
  2 active torsions:
  status: ('A' for Active; 'I' for Inactive)
    1  A    between atoms: C_20  and  C_29
    2  A    between atoms: C_29  and  C_30
                            x       y       z     vdW  Elec       q    Type
                         _______ _______ _______ _____ _____    ______ ____

>  <TORSDO>
F 2

$$$$
=
 OpenBabel11122410533D

 32 37  0  0  1  0  0  0  0  0999 V2000
  191.2180  177.1080  142.5170 C   0  0  0  0  0  2  0  0  0  0  0  0
  186.2290  178.0560  141.6070 C   0  0  2  0  0  3  0  0  0  0  0  0
  183.3110  178.4710  145.4620 C   0  0  0  0  0  3  0  0  0  0  0  0
  182.2160  178.7440  144.6380 C   0  0  0  0  0  3  0  0  0  0  0  0
  185.2970  178.6520  139.2270 C   0  0  2  0  0  3  0  0  0  0  0  0
  184.0180  178.8930  138.4010 C   0  0  1  0  0  3  0  0  0  0  0  0
  188.6920  177.9550  141.9060 N   0  0  1  0  0  0  0  0  0  0  0  0
  187.2120  178.2230  143.8260 N   0  0  0  0  0  2  0  0  0  0  0  0
  181.7930  179.5020  138.2930 C   0  0  2  0  0  3  0  0  0  0  0  0
  189.6240  178.2090  144.2250 C   0  0  0  0  0  2  0  0  0  0  0  0
  184.6030  178.4600  144.9300 C   0  0  0  0  0  3  0  0  0  0  0  0
  186.1780  178.7750  142.9580 C   0  0  2  0  0  3  0  0  0  0  0  0
  184.8030  178.7010  143.5640 C   0  0  0  0  0  0  0  0  0  0  0  0
  183.9770  179.2980  141.2780 C   0  0  2  0  0  3  0  0  0  0  0  0
  181.9440  178.1850  137.5350 C   0  0  0  0  0  2  0  0  0  0  0  0
  190.1420  176.0150  142.5270 C   0  0  0  0  0  2  0  0  0  0  0  0
  188.5080  178.5740  143.2410 C   0  0  1  0  0  3  0  0  0  0  0  0
  183.3090  177.6560  137.9020 C   0  0  0  0  0  2  0  0  0  0  0  0
  188.7910  176.4910  141.9680 C   0  0  0  0  0  2  0  0  0  0  0  0
  191.0200  178.1970  143.5930 C   0  0  1  0  0  3  0  0  0  0  0  0
  182.4110  179.0030  143.2780 C   0  0  0  0  0  3  0  0  0  0  0  0
  183.7040  178.9750  142.7310 C   0  0  0  0  0  0  0  0  0  0  0  0
  182.7230  179.2820  140.4110 C   0  0  0  0  0  2  0  0  0  0  0  0
  187.6050  178.3300  140.9900 C   0  0  0  0  0  2  0  0  0  0  0  0
  186.0640  177.6480  138.6300 O   0  0  0  0  0  1  0  0  0  0  0  0
  181.5560  180.6350  137.3130 C   0  0  0  0  0  1  0  0  0  0  0  0
  184.9900  178.3030  140.6900 C   0  0  2  0  0  3  0  0  0  0  0  0
  183.0170  179.7490  139.0530 N   0  0  1  0  0  0  0  0  0  0  0  0
  192.0550  178.0330  144.6930 C   0  0  0  0  0  2  0  0  0  0  0  0
  191.6810  176.9150  145.6050 C   0  0  0  0  0  0  0  0  0  0  0  0
  192.0550  175.7410  145.3510 O   0  0  0  0  0  0  0  0  0  0  0  0
  190.9400  177.1730  146.7510 O   0  0  0  0  0  1  0  0  0  0  0  0
  1 16  1  0  0  0  0
  1 20  1  0  0  0  0
  2 24  1  6  0  0  0
  2 12  1  0  0  0  0
  4  3  2  0  0  0  0
  5 25  1  6  0  0  0
  5 27  1  0  0  0  0
  6 18  1  1  0  0  0
  6 28  1  0  0  0  0
  6  5  1  0  0  0  0
  7 24  1  6  0  0  0
  7 19  1  0  0  0  0
  7 17  1  0  0  0  0
  9 26  1  6  0  0  0
  9 28  1  0  0  0  0
 11  3  1  0  0  0  0
 12 13  1  1  0  0  0
 12  8  1  0  0  0  0
 13 11  2  0  0  0  0
 14 23  1  6  0  0  0
 14 22  1  0  0  0  0
 15 18  1  0  0  0  0
 15  9  1  0  0  0  0
 17  8  1  0  0  0  0
 17 10  1  1  0  0  0
 19 16  1  0  0  0  0
 20 10  1  0  0  0  0
 20 29  1  1  0  0  0
 21  4  1  0  0  0  0
 22 21  2  0  0  0  0
 22 13  1  0  0  0  0
 27 14  1  0  0  0  0
 27  2  1  0  0  0  0
 28 23  1  0  0  0  0
 29 30  1  0  0  0  0
 30 32  1  0  0  0  0
 31 30  2  0  0  0  0
M  END
>  <MODEL>
7

>  <REMARK>
 VINA RESULT:      -6.3      2.483      8.033
  Name = 
  2 active torsions:
  status: ('A' for Active; 'I' for Inactive)
    1  A    between atoms: C_20  and  C_29
    2  A    between atoms: C_29  and  C_30
                            x       y       z     vdW  Elec       q    Type
                         _______ _______ _______ _____ _____    ______ ____

>  <TORSDO>
F 2

$$$$
=
 OpenBabel11122410533D

 32 37  0  0  1  0  0  0  0  0999 V2000
  193.3690  176.2130  136.7200 C   0  0  0  0  0  2  0  0  0  0  0  0
  188.3960  174.8900  136.3680 C   0  0  2  0  0  3  0  0  0  0  0  0
  187.4010  170.3040  135.1300 C   0  0  0  0  0  3  0  0  0  0  0  0
  186.0290  170.5430  135.2420 C   0  0  0  0  0  3  0  0  0  0  0  0
  186.4400  176.4560  137.1490 C   0  0  2  0  0  3  0  0  0  0  0  0
  184.9100  176.6390  137.1800 C   0  0  1  0  0  3  0  0  0  0  0  0
  190.7220  175.5630  136.9170 N   0  0  1  0  0  0  0  0  0  0  0  0
  190.1930  173.2500  136.3490 N   0  0  0  0  0  2  0  0  0  0  0  0
  182.7870  175.7310  137.1360 C   0  0  2  0  0  3  0  0  0  0  0  0
  192.5020  173.7900  136.9440 C   0  0  0  0  0  2  0  0  0  0  0  0
  188.3170  171.2490  135.5980 C   0  0  0  0  0  3  0  0  0  0  0  0
  188.8070  173.4650  136.7490 C   0  0  2  0  0  3  0  0  0  0  0  0
  187.8640  172.4500  136.1630 C   0  0  0  0  0  0  0  0  0  0  0  0
  186.0420  173.9730  136.9550 C   0  0  2  0  0  3  0  0  0  0  0  0
  182.8250  176.8540  136.1020 C   0  0  0  0  0  2  0  0  0  0  0  0
  192.6140  176.1420  135.3880 C   0  0  0  0  0  2  0  0  0  0  0  0
  191.0250  174.1340  137.1690 C   0  0  1  0  0  3  0  0  0  0  0  0
  184.2840  177.1950  135.9220 C   0  0  0  0  0  2  0  0  0  0  0  0
  191.0930  175.9910  135.5610 C   0  0  0  0  0  2  0  0  0  0  0  0
  193.4670  174.8620  137.4620 C   0  0  1  0  0  3  0  0  0  0  0  0
  185.5710  171.7300  135.8200 C   0  0  0  0  0  3  0  0  0  0  0  0
  186.4830  172.6950  136.2760 C   0  0  0  0  0  0  0  0  0  0  0  0
  184.5620  174.2790  136.7600 C   0  0  0  0  0  2  0  0  0  0  0  0
  189.2990  175.8540  137.1450 C   0  0  0  0  0  2  0  0  0  0  0  0
  187.0380  177.5690  136.5520 O   0  0  0  0  0  1  0  0  0  0  0  0
  181.9550  176.1590  138.3300 C   0  0  0  0  0  1  0  0  0  0  0  0
  186.8600  175.1650  136.4350 C   0  0  2  0  0  3  0  0  0  0  0  0
  184.1540  175.4380  137.5600 N   0  0  1  0  0  0  0  0  0  0  0  0
  194.8860  174.3260  137.3780 C   0  0  0  0  0  2  0  0  0  0  0  0
  195.3900  173.9570  138.7310 C   0  0  0  0  0  0  0  0  0  0  0  0
  195.3780  172.7550  139.1030 O   0  0  0  0  0  0  0  0  0  0  0  0
  195.8980  174.9370  139.5740 O   0  0  0  0  0  1  0  0  0  0  0  0
  1 20  1  0  0  0  0
  2 27  1  0  0  0  0
  2 12  1  0  0  0  0
  2 24  1  1  0  0  0
  3  4  2  0  0  0  0
  3 11  1  0  0  0  0
  4 21  1  0  0  0  0
  5 25  1  6  0  0  0
  5  6  1  0  0  0  0
  6 18  1  6  0  0  0
  6 28  1  0  0  0  0
  7 19  1  6  0  0  0
  7 24  1  0  0  0  0
  7 17  1  0  0  0  0
  8 12  1  0  0  0  0
  8 17  1  0  0  0  0
  9 28  1  0  0  0  0
  9 26  1  1  0  0  0
 10 20  1  0  0  0  0
 11 13  2  0  0  0  0
 12 13  1  6  0  0  0
 13 22  1  0  0  0  0
 14 23  1  6  0  0  0
 15  9  1  0  0  0  0
 16 19  1  0  0  0  0
 16  1  1  0  0  0  0
 17 10  1  6  0  0  0
 18 15  1  0  0  0  0
 20 29  1  6  0  0  0
 21 22  2  0  0  0  0
 22 14  1  0  0  0  0
 23 28  1  0  0  0  0
 27 14  1  0  0  0  0
 27  5  1  0  0  0  0
 29 30  1  0  0  0  0
 30 31  2  0  0  0  0
 30 32  1  0  0  0  0
M  END
>  <MODEL>
8

>  <REMARK>
 VINA RESULT:      -6.2      6.321     10.927
  Name = 
  2 active torsions:
  status: ('A' for Active; 'I' for Inactive)
    1  A    between atoms: C_20  and  C_29
    2  A    between atoms: C_29  and  C_30
                            x       y       z     vdW  Elec       q    Type
                         _______ _______ _______ _____ _____    ______ ____

>  <TORSDO>
F 2

$$$$
=
 OpenBabel11122410533D

 32 37  0  0  1  0  0  0  0  0999 V2000
  188.1600  177.6720  144.7130 C   0  0  0  0  0  2  0  0  0  0  0  0
  183.8410  178.5310  142.0270 C   0  0  2  0  0  3  0  0  0  0  0  0
  179.6450  178.3690  144.4610 C   0  0  0  0  0  3  0  0  0  0  0  0
  178.9320  178.6970  143.3060 C   0  0  0  0  0  3  0  0  0  0  0  0
  183.8450  179.3740  139.5420 C   0  0  2  0  0  3  0  0  0  0  0  0
  182.9660  179.6640  138.3100 C   0  0  1  0  0  3  0  0  0  0  0  0
  186.0010  178.4900  143.2510 N   0  0  1  0  0  0  0  0  0  0  0  0
  183.8820  178.4680  144.4590 N   0  0  0  0  0  2  0  0  0  0  0  0
  180.9090  180.1960  137.4030 C   0  0  2  0  0  3  0  0  0  0  0  0
  185.9490  178.4980  145.7630 C   0  0  0  0  0  2  0  0  0  0  0  0
  181.0380  178.4710  144.4760 C   0  0  0  0  0  3  0  0  0  0  0  0
  183.2180  179.0810  143.3140 C   0  0  2  0  0  3  0  0  0  0  0  0
  181.7270  178.8830  143.3260 C   0  0  0  0  0  0  0  0  0  0  0  0
  181.7930  179.7180  140.9680 C   0  0  2  0  0  3  0  0  0  0  0  0
  181.4460  178.9870  136.6410 C   0  0  0  0  0  2  0  0  0  0  0  0
  187.2550  176.5450  144.1990 C   0  0  0  0  0  2  0  0  0  0  0  0
  185.2700  178.9360  144.4610 C   0  0  1  0  0  3  0  0  0  0  0  0
  182.6050  178.4690  137.4570 C   0  0  0  0  0  2  0  0  0  0  0  0
  186.1870  177.0330  143.2060 C   0  0  0  0  0  2  0  0  0  0  0  0
  187.4770  178.6150  145.7260 C   0  0  1  0  0  3  0  0  0  0  0  0
  179.6100  179.1250  142.1620 C   0  0  0  0  0  3  0  0  0  0  0  0
  181.0120  179.2120  142.1610 C   0  0  0  0  0  0  0  0  0  0  0  0
  180.9720  179.7580  139.6840 C   0  0  0  0  0  2  0  0  0  0  0  0
  185.3210  178.9300  142.0250 C   0  0  0  0  0  2  0  0  0  0  0  0
  184.8620  178.4790  139.1970 O   0  0  0  0  0  1  0  0  0  0  0  0
  180.9740  181.4290  136.5210 C   0  0  0  0  0  1  0  0  0  0  0  0
  183.0310  178.8400  140.7290 C   0  0  2  0  0  3  0  0  0  0  0  0
  181.7250  180.3960  138.5990 N   0  0  1  0  0  0  0  0  0  0  0  0
  188.0220  178.3600  147.1220 C   0  0  0  0  0  2  0  0  0  0  0  0
  189.2040  177.4530  147.0670 C   0  0  0  0  0  0  0  0  0  0  0  0
  189.1930  176.3630  147.6950 O   0  0  0  0  0  1  0  0  0  0  0  0
  190.3100  177.8000  146.3020 O   0  0  0  0  0  0  0  0  0  0  0  0
  1 20  1  0  0  0  0
  2 24  1  6  0  0  0
  2 12  1  0  0  0  0
  3 11  1  0  0  0  0
  4  3  2  0  0  0  0
  5 25  1  6  0  0  0
  5 27  1  0  0  0  0
  6 18  1  1  0  0  0
  6 28  1  0  0  0  0
  6  5  1  0  0  0  0
  7 24  1  6  0  0  0
  7 17  1  0  0  0  0
  8 17  1  0  0  0  0
  9 26  1  6  0  0  0
  9 28  1  0  0  0  0
 12 13  1  6  0  0  0
 12  8  1  0  0  0  0
 13 11  2  0  0  0  0
 14 23  1  6  0  0  0
 14 22  1  0  0  0  0
 15  9  1  0  0  0  0
 15 18  1  0  0  0  0
 16  1  1  0  0  0  0
 17 10  1  1  0  0  0
 19  7  1  0  0  0  0
 19 16  1  0  0  0  0
 20 10  1  0  0  0  0
 20 29  1  1  0  0  0
 21  4  1  0  0  0  0
 22 21  2  0  0  0  0
 22 13  1  0  0  0  0
 27 14  1  0  0  0  0
 27  2  1  0  0  0  0
 28 23  1  0  0  0  0
 30 29  1  0  0  0  0
 30 31  1  0  0  0  0
 32 30  2  0  0  0  0
M  END
>  <MODEL>
9

>  <REMARK>
 VINA RESULT:      -6.2      2.811      8.263
  Name = 
  2 active torsions:
  status: ('A' for Active; 'I' for Inactive)
    1  A    between atoms: C_20  and  C_29
    2  A    between atoms: C_29  and  C_30
                            x       y       z     vdW  Elec       q    Type
                         _______ _______ _______ _____ _____    ______ ____

>  <TORSDO>
F 2

$$$$
