=
 OpenBabel11122411503D

 28 32  0  0  1  0  0  0  0  0999 V2000
  185.5920  179.2090  145.3150 C   0  0  0  0  0  0  0  0  0  0  0  0
  189.6380  177.0580  144.0360 O   0  0  0  0  0  0  0  0  0  0  0  0
  183.1040  177.0200  140.0810 O   0  0  0  0  0  0  0  0  0  0  0  0
  187.1080  177.4200  146.8580 C   0  0  0  0  0  3  0  0  0  0  0  0
  185.1550  178.1630  140.0030 N   0  0  0  0  0  0  0  0  0  0  0  0
  184.6450  180.1310  144.6170 C   0  0  0  0  0  2  0  0  0  0  0  0
  188.2200  175.4550  142.8080 O   0  0  0  0  0  0  0  0  0  0  0  0
  188.8680  176.8110  142.7690 S   0  0  0  0  0  0  0  0  0  0  0  0
  189.6790  177.8000  140.3060 C   0  0  0  0  0  0  0  0  0  0  0  0
  187.6480  178.0830  142.5350 C   0  0  1  0  0  3  0  0  0  0  0  0
  181.4470  178.4010  144.1860 O   0  0  0  0  0  0  0  0  0  0  0  0
  185.3480  178.6790  142.3180 C   0  0  1  0  0  3  0  0  0  0  0  0
  188.4870  178.7210  140.2850 C   0  0  0  0  0  2  0  0  0  0  0  0
  189.9380  176.9170  141.4090 N   0  0  0  0  0  2  0  0  0  0  0  0
  182.5040  178.9880  143.8400 C   0  0  0  0  0  0  0  0  0  0  0  0
  186.2790  178.1350  144.6750 C   0  0  0  0  0  0  0  0  0  0  0  0
  184.0130  177.6650  140.6680 C   0  0  0  0  0  0  0  0  0  0  0  0
  190.4900  177.8350  139.3450 O   0  0  0  0  0  0  0  0  0  0  0  0
  182.8920  178.9810  142.3960 C   0  0  0  0  0  2  0  0  0  0  0  0
  187.0110  177.2460  145.4780 C   0  0  0  0  0  3  0  0  0  0  0  0
  185.7010  179.3700  146.7030 C   0  0  0  0  0  3  0  0  0  0  0  0
  186.4590  178.4880  147.4700 C   0  0  0  0  0  3  0  0  0  0  0  0
  183.2810  179.6680  144.8300 N   0  0  0  0  0  2  0  0  0  0  0  0
  186.0220  178.8470  140.9400 C   0  0  1  0  0  3  0  0  0  0  0  0
  184.0000  177.9780  142.1150 C   0  0  2  0  0  3  0  0  0  0  0  0
  187.3360  178.1070  141.0640 C   0  0  2  0  0  3  0  0  0  0  0  0
  185.3550  178.1380  138.5640 C   0  0  0  0  0  1  0  0  0  0  0  0
  186.2920  177.8430  143.1810 C   0  0  2  0  0  3  0  0  0  0  0  0
  1 21  1  0  0  0  0
  3 17  2  0  0  0  0
  4 22  1  0  0  0  0
  5 17  1  0  0  0  0
  5 24  1  0  0  0  0
  6 23  1  0  0  0  0
  6  1  1  0  0  0  0
  8  7  2  0  0  0  0
  8  2  2  0  0  0  0
  9 14  1  0  0  0  0
 10  8  1  6  0  0  0
 10 28  1  0  0  0  0
 12 28  1  0  0  0  0
 13  9  1  0  0  0  0
 13 26  1  0  0  0  0
 14  8  1  0  0  0  0
 15 11  2  0  0  0  0
 15 23  1  0  0  0  0
 16  1  2  0  0  0  0
 16 20  1  0  0  0  0
 17 25  1  0  0  0  0
 18  9  2  0  0  0  0
 19 15  1  0  0  0  0
 20  4  2  0  0  0  0
 21 22  2  0  0  0  0
 24 26  1  0  0  0  0
 24 12  1  0  0  0  0
 25 12  1  0  0  0  0
 25 19  1  0  0  0  0
 26 10  1  0  0  0  0
 27  5  1  0  0  0  0
 28 16  1  0  0  0  0
M  END
>  <MODEL>
1

>  <REMARK>
 VINA RESULT:      -9.0      0.000      0.000
  Name = 
  0 active torsions:
  status: ('A' for Active; 'I' for Inactive)
                            x       y       z     vdW  Elec       q    Type
                         _______ _______ _______ _____ _____    ______ ____

>  <TORSDO>
F 0

$$$$
=
 OpenBabel11122411503D

 28 32  0  0  1  0  0  0  0  0999 V2000
  188.1160  177.1170  142.3700 C   0  0  0  0  0  0  0  0  0  0  0  0
  186.3040  177.9850  138.0580 O   0  0  0  0  0  0  0  0  0  0  0  0
  193.7190  178.0330  139.8900 O   0  0  0  0  0  0  0  0  0  0  0  0
  186.1130  178.9760  141.7300 C   0  0  0  0  0  3  0  0  0  0  0  0
  192.2140  176.5590  138.8490 N   0  0  0  0  0  0  0  0  0  0  0  0
  189.1990  176.2190  142.8760 C   0  0  0  0  0  2  0  0  0  0  0  0
  188.3050  179.3730  137.6630 O   0  0  0  0  0  0  0  0  0  0  0  0
  187.7560  177.9740  137.6700 S   0  0  0  0  0  0  0  0  0  0  0  0
  188.8070  176.1500  135.8610 C   0  0  0  0  0  0  0  0  0  0  0  0
  188.6810  176.9410  138.7830 C   0  0  1  0  0  3  0  0  0  0  0  0
  191.9260  178.2990  144.1590 O   0  0  0  0  0  0  0  0  0  0  0  0
  190.4220  176.7460  140.4030 C   0  0  1  0  0  3  0  0  0  0  0  0
  189.5940  175.5050  136.9730 C   0  0  0  0  0  2  0  0  0  0  0  0
  187.9300  177.2620  136.0980 N   0  0  0  0  0  2  0  0  0  0  0  0
  191.3640  177.4490  143.4220 C   0  0  0  0  0  0  0  0  0  0  0  0
  188.1630  177.7980  141.1170 C   0  0  0  0  0  0  0  0  0  0  0  0
  192.6070  177.4390  139.8810 C   0  0  0  0  0  0  0  0  0  0  0  0
  188.8950  175.6730  134.7000 O   0  0  0  0  0  0  0  0  0  0  0  0
  192.0920  176.9440  142.2180 C   0  0  0  0  0  2  0  0  0  0  0  0
  187.1580  178.7370  140.8370 C   0  0  0  0  0  3  0  0  0  0  0  0
  187.0590  177.3680  143.2560 C   0  0  0  0  0  3  0  0  0  0  0  0
  186.0600  178.2850  142.9360 C   0  0  0  0  0  3  0  0  0  0  0  0
  190.0630  176.9710  143.7760 N   0  0  0  0  0  2  0  0  0  0  0  0
  190.8850  176.0440  139.1090 C   0  0  1  0  0  3  0  0  0  0  0  0
  191.5830  177.5900  140.9380 C   0  0  2  0  0  3  0  0  0  0  0  0
  189.9250  176.5290  138.0450 C   0  0  2  0  0  3  0  0  0  0  0  0
  193.0750  176.1080  137.7690 C   0  0  0  0  0  1  0  0  0  0  0  0
  189.2180  177.6140  140.0360 C   0  0  2  0  0  3  0  0  0  0  0  0
  1  6  1  0  0  0  0
  1 21  1  0  0  0  0
  4 22  1  0  0  0  0
  5 24  1  0  0  0  0
  5 17  1  0  0  0  0
  6 23  1  0  0  0  0
  7  8  2  0  0  0  0
  8  2  2  0  0  0  0
  9 14  1  0  0  0  0
  9 13  1  0  0  0  0
 10  8  1  6  0  0  0
 10 28  1  0  0  0  0
 12 25  1  0  0  0  0
 13 26  1  0  0  0  0
 14  8  1  0  0  0  0
 15 23  1  0  0  0  0
 15 11  2  0  0  0  0
 16  1  2  0  0  0  0
 17  3  2  0  0  0  0
 17 25  1  0  0  0  0
 18  9  2  0  0  0  0
 19 15  1  0  0  0  0
 20 16  1  0  0  0  0
 20  4  2  0  0  0  0
 22 21  2  0  0  0  0
 24 12  1  0  0  0  0
 25 19  1  0  0  0  0
 26 10  1  0  0  0  0
 26 24  1  0  0  0  0
 27  5  1  0  0  0  0
 28 12  1  0  0  0  0
 28 16  1  0  0  0  0
M  END
>  <MODEL>
2

>  <REMARK>
 VINA RESULT:      -8.9      3.544      6.581
  Name = 
  0 active torsions:
  status: ('A' for Active; 'I' for Inactive)
                            x       y       z     vdW  Elec       q    Type
                         _______ _______ _______ _____ _____    ______ ____

>  <TORSDO>
F 0

$$$$
=
 OpenBabel11122411503D

 28 32  0  0  1  0  0  0  0  0999 V2000
  190.4180  176.5560  139.4790 C   0  0  0  0  0  0  0  0  0  0  0  0
  192.2420  177.3820  143.7940 O   0  0  0  0  0  0  0  0  0  0  0  0
  185.5390  179.9660  141.1980 O   0  0  0  0  0  0  0  0  0  0  0  0
  192.9650  177.5800  140.0610 C   0  0  0  0  0  3  0  0  0  0  0  0
  186.2910  178.2280  142.5890 N   0  0  0  0  0  0  0  0  0  0  0  0
  189.0890  176.0720  138.9920 C   0  0  0  0  0  2  0  0  0  0  0  0
  190.9410  179.4780  143.7750 O   0  0  0  0  0  0  0  0  0  0  0  0
  190.8900  177.9970  144.0240 S   0  0  0  0  0  0  0  0  0  0  0  0
  189.1250  177.0560  145.9480 C   0  0  0  0  0  0  0  0  0  0  0  0
  189.6790  177.2260  142.9750 C   0  0  1  0  0  3  0  0  0  0  0  0
  187.4690  178.7890  137.1480 O   0  0  0  0  0  0  0  0  0  0  0  0
  188.0740  177.4430  141.2230 C   0  0  1  0  0  3  0  0  0  0  0  0
  188.1950  176.5840  144.8610 C   0  0  0  0  0  2  0  0  0  0  0  0
  190.3820  177.6870  145.6520 N   0  0  0  0  0  2  0  0  0  0  0  0
  187.6160  177.9280  138.0520 C   0  0  0  0  0  0  0  0  0  0  0  0
  190.5920  177.4060  140.6110 C   0  0  0  0  0  0  0  0  0  0  0  0
  186.3230  179.0020  141.4080 C   0  0  0  0  0  0  0  0  0  0  0  0
  188.8070  176.8560  147.1490 O   0  0  0  0  0  0  0  0  0  0  0  0
  186.6970  177.9550  139.2310 C   0  0  0  0  0  2  0  0  0  0  0  0
  191.8750  177.9180  140.8620 C   0  0  0  0  0  3  0  0  0  0  0  0
  191.5240  176.2260  138.6840 C   0  0  0  0  0  3  0  0  0  0  0  0
  192.7910  176.7270  138.9760 C   0  0  0  0  0  3  0  0  0  0  0  0
  188.6340  176.9330  137.9090 N   0  0  0  0  0  2  0  0  0  0  0  0
  187.3160  177.2050  142.5460 C   0  0  1  0  0  3  0  0  0  0  0  0
  187.3660  178.5630  140.4540 C   0  0  2  0  0  3  0  0  0  0  0  0
  188.3440  177.4570  143.6270 C   0  0  2  0  0  3  0  0  0  0  0  0
  185.2770  178.3350  143.6240 C   0  0  0  0  0  1  0  0  0  0  0  0
  189.5060  177.8290  141.5900 C   0  0  2  0  0  3  0  0  0  0  0  0
  1 16  1  0  0  0  0
  2  8  2  0  0  0  0
  3 17  2  0  0  0  0
  4 20  1  0  0  0  0
  5 27  1  0  0  0  0
  6  1  1  0  0  0  0
  7  8  2  0  0  0  0
  8 14  1  0  0  0  0
  9 18  2  0  0  0  0
 10 26  1  0  0  0  0
 10  8  1  1  0  0  0
 11 15  2  0  0  0  0
 12 28  1  0  0  0  0
 12 24  1  0  0  0  0
 13  9  1  0  0  0  0
 14  9  1  0  0  0  0
 15 19  1  0  0  0  0
 16 20  2  0  0  0  0
 16 28  1  0  0  0  0
 17  5  1  0  0  0  0
 19 25  1  0  0  0  0
 21 22  1  0  0  0  0
 21  1  2  0  0  0  0
 22  4  2  0  0  0  0
 23 15  1  0  0  0  0
 23  6  1  0  0  0  0
 24  5  1  0  0  0  0
 24 26  1  0  0  0  0
 25 12  1  0  0  0  0
 25 17  1  0  0  0  0
 26 13  1  0  0  0  0
 28 10  1  0  0  0  0
M  END
>  <MODEL>
3

>  <REMARK>
 VINA RESULT:      -7.3      2.732      6.177
  Name = 
  0 active torsions:
  status: ('A' for Active; 'I' for Inactive)
                            x       y       z     vdW  Elec       q    Type
                         _______ _______ _______ _____ _____    ______ ____

>  <TORSDO>
F 0

$$$$
=
 OpenBabel11122411503D

 28 32  0  0  1  0  0  0  0  0999 V2000
  186.9370  178.7940  141.6100 C   0  0  0  0  0  0  0  0  0  0  0  0
  185.1980  178.4230  146.0220 O   0  0  0  0  0  0  0  0  0  0  0  0
  191.2160  174.6240  143.2480 O   0  0  0  0  0  0  0  0  0  0  0  0
  184.2790  178.2530  142.3310 C   0  0  0  0  0  3  0  0  0  0  0  0
  190.8460  176.5050  144.6060 N   0  0  0  0  0  0  0  0  0  0  0  0
  188.3060  179.0220  141.0520 C   0  0  0  0  0  2  0  0  0  0  0  0
  186.1080  176.1300  146.0250 O   0  0  0  0  0  0  0  0  0  0  0  0
  186.4300  177.5860  146.2180 S   0  0  0  0  0  0  0  0  0  0  0  0
  188.4200  178.2530  148.0350 C   0  0  0  0  0  0  0  0  0  0  0  0
  187.7080  178.1010  145.0940 C   0  0  1  0  0  3  0  0  0  0  0  0
  189.3370  176.0110  139.2410 O   0  0  0  0  0  0  0  0  0  0  0  0
  189.1670  177.5560  143.2870 C   0  0  1  0  0  3  0  0  0  0  0  0
  189.3680  178.5220  146.8950 C   0  0  0  0  0  2  0  0  0  0  0  0
  187.0600  177.8460  147.8130 N   0  0  0  0  0  2  0  0  0  0  0  0
  189.3850  176.9100  140.1200 C   0  0  0  0  0  0  0  0  0  0  0  0
  186.6690  178.0200  142.7780 C   0  0  0  0  0  0  0  0  0  0  0  0
  190.6240  175.7170  143.4550 C   0  0  0  0  0  0  0  0  0  0  0  0
  188.8240  178.4260  149.2130 O   0  0  0  0  0  0  0  0  0  0  0  0
  190.3390  176.7530  141.2600 C   0  0  0  0  0  2  0  0  0  0  0  0
  185.3290  177.7500  143.0980 C   0  0  0  0  0  3  0  0  0  0  0  0
  185.8700  179.2920  140.8490 C   0  0  0  0  0  3  0  0  0  0  0  0
  184.5500  179.0310  141.2100 C   0  0  0  0  0  3  0  0  0  0  0  0
  188.5520  178.0650  139.9830 N   0  0  0  0  0  2  0  0  0  0  0  0
  190.0160  177.6920  144.5690 C   0  0  1  0  0  3  0  0  0  0  0  0
  189.6310  176.3070  142.5300 C   0  0  2  0  0  3  0  0  0  0  0  0
  189.0110  177.6550  145.6990 C   0  0  2  0  0  3  0  0  0  0  0  0
  191.8720  176.2500  145.6020 C   0  0  0  0  0  1  0  0  0  0  0  0
  187.7080  177.4380  143.7250 C   0  0  2  0  0  3  0  0  0  0  0  0
  1 16  1  0  0  0  0
  2  8  2  0  0  0  0
  3 17  2  0  0  0  0
  4 20  1  0  0  0  0
  5 27  1  0  0  0  0
  6  1  1  0  0  0  0
  7  8  2  0  0  0  0
  8 14  1  0  0  0  0
  9 18  2  0  0  0  0
 10 26  1  0  0  0  0
 10  8  1  1  0  0  0
 11 15  2  0  0  0  0
 12 28  1  0  0  0  0
 12 24  1  0  0  0  0
 13  9  1  0  0  0  0
 14  9  1  0  0  0  0
 15 19  1  0  0  0  0
 16 20  2  0  0  0  0
 16 28  1  0  0  0  0
 17  5  1  0  0  0  0
 19 25  1  0  0  0  0
 21 22  1  0  0  0  0
 21  1  2  0  0  0  0
 22  4  2  0  0  0  0
 23 15  1  0  0  0  0
 23  6  1  0  0  0  0
 24  5  1  0  0  0  0
 24 26  1  0  0  0  0
 25 12  1  0  0  0  0
 25 17  1  0  0  0  0
 26 13  1  0  0  0  0
 28 10  1  0  0  0  0
M  END
>  <MODEL>
4

>  <REMARK>
 VINA RESULT:      -7.1      2.824      6.425
  Name = 
  0 active torsions:
  status: ('A' for Active; 'I' for Inactive)
                            x       y       z     vdW  Elec       q    Type
                         _______ _______ _______ _____ _____    ______ ____

>  <TORSDO>
F 0

$$$$
=
 OpenBabel11122411503D

 28 32  0  0  1  0  0  0  0  0999 V2000
  186.6360  177.7750  142.3190 C   0  0  0  0  0  0  0  0  0  0  0  0
  191.3320  177.6680  143.0750 O   0  0  0  0  0  0  0  0  0  0  0  0
  186.0550  180.1160  148.0250 O   0  0  0  0  0  0  0  0  0  0  0  0
  188.6300  178.8770  140.6800 C   0  0  0  0  0  3  0  0  0  0  0  0
  187.3290  178.1710  147.6920 N   0  0  0  0  0  0  0  0  0  0  0  0
  185.4520  177.2940  143.0950 C   0  0  0  0  0  2  0  0  0  0  0  0
  190.9720  179.5550  144.6230 O   0  0  0  0  0  0  0  0  0  0  0  0
  190.9120  178.0610  144.4630 S   0  0  0  0  0  0  0  0  0  0  0  0
  191.4350  176.4870  146.6880 C   0  0  0  0  0  0  0  0  0  0  0  0
  189.2730  177.4600  144.8020 C   0  0  1  0  0  3  0  0  0  0  0  0
  183.5010  180.2070  144.1550 O   0  0  0  0  0  0  0  0  0  0  0  0
  187.0010  177.9440  145.3460 C   0  0  1  0  0  3  0  0  0  0  0  0
  189.9610  176.2110  146.8370 C   0  0  0  0  0  2  0  0  0  0  0  0
  191.9520  177.2990  145.6220 N   0  0  0  0  0  2  0  0  0  0  0  0
  184.1940  179.1650  144.2850 C   0  0  0  0  0  0  0  0  0  0  0  0
  187.8110  178.3240  142.9130 C   0  0  0  0  0  0  0  0  0  0  0  0
  186.4870  179.2160  147.2550 C   0  0  0  0  0  0  0  0  0  0  0  0
  192.2360  175.9590  147.5010 O   0  0  0  0  0  0  0  0  0  0  0  0
  184.6970  178.7980  145.6440 C   0  0  0  0  0  2  0  0  0  0  0  0
  188.7790  178.8860  142.0660 C   0  0  0  0  0  3  0  0  0  0  0  0
  186.5020  177.7730  140.9240 C   0  0  0  0  0  3  0  0  0  0  0  0
  187.4950  178.3120  140.1080 C   0  0  0  0  0  3  0  0  0  0  0  0
  184.4480  178.3490  143.1370 N   0  0  0  0  0  2  0  0  0  0  0  0
  187.6670  177.3030  146.5810 C   0  0  1  0  0  3  0  0  0  0  0  0
  186.1690  179.1440  145.8110 C   0  0  2  0  0  3  0  0  0  0  0  0
  189.1520  177.3790  146.2990 C   0  0  2  0  0  3  0  0  0  0  0  0
  187.6760  177.9070  149.0770 C   0  0  0  0  0  1  0  0  0  0  0  0
  188.1240  178.3720  144.4010 C   0  0  2  0  0  3  0  0  0  0  0  0
  1 16  1  0  0  0  0
  1  6  1  0  0  0  0
  2  8  2  0  0  0  0
  4 20  1  0  0  0  0
  5 27  1  0  0  0  0
  6 23  1  0  0  0  0
  8  7  2  0  0  0  0
  8 14  1  0  0  0  0
  9 13  1  0  0  0  0
  9 18  2  0  0  0  0
 10  8  1  1  0  0  0
 10 26  1  0  0  0  0
 11 15  2  0  0  0  0
 12 25  1  0  0  0  0
 12 24  1  0  0  0  0
 14  9  1  0  0  0  0
 15 19  1  0  0  0  0
 16 28  1  0  0  0  0
 17  5  1  0  0  0  0
 17  3  2  0  0  0  0
 19 25  1  0  0  0  0
 20 16  2  0  0  0  0
 21  1  2  0  0  0  0
 22  4  2  0  0  0  0
 22 21  1  0  0  0  0
 23 15  1  0  0  0  0
 24  5  1  0  0  0  0
 25 17  1  0  0  0  0
 26 24  1  0  0  0  0
 26 13  1  0  0  0  0
 28 10  1  0  0  0  0
 28 12  1  0  0  0  0
M  END
>  <MODEL>
5

>  <REMARK>
 VINA RESULT:      -6.8      2.668      5.575
  Name = 
  0 active torsions:
  status: ('A' for Active; 'I' for Inactive)
                            x       y       z     vdW  Elec       q    Type
                         _______ _______ _______ _____ _____    ______ ____

>  <TORSDO>
F 0

$$$$
=
 OpenBabel11122411503D

 28 32  0  0  1  0  0  0  0  0999 V2000
  186.1830  177.5330  145.6570 C   0  0  0  0  0  0  0  0  0  0  0  0
  185.4270  178.7380  141.1180 O   0  0  0  0  0  0  0  0  0  0  0  0
  192.1620  178.8560  144.7180 O   0  0  0  0  0  0  0  0  0  0  0  0
  184.2980  179.3760  144.6970 C   0  0  0  0  0  3  0  0  0  0  0  0
  191.0370  177.4370  143.2210 N   0  0  0  0  0  0  0  0  0  0  0  0
  187.1580  176.6270  146.3390 C   0  0  0  0  0  2  0  0  0  0  0  0
  187.3860  180.2200  141.3440 O   0  0  0  0  0  0  0  0  0  0  0  0
  186.9280  178.8090  141.0990 S   0  0  0  0  0  0  0  0  0  0  0  0
  188.4840  177.1960  139.4630 C   0  0  0  0  0  0  0  0  0  0  0  0
  187.6100  177.7080  142.3170 C   0  0  1  0  0  3  0  0  0  0  0  0
  189.3750  178.6670  148.4210 O   0  0  0  0  0  0  0  0  0  0  0  0
  188.9140  177.4210  144.2950 C   0  0  1  0  0  3  0  0  0  0  0  0
  189.0120  176.4770  140.6770 C   0  0  0  0  0  2  0  0  0  0  0  0
  187.5170  178.2530  139.5660 N   0  0  0  0  0  2  0  0  0  0  0  0
  189.0550  177.8710  147.5000 C   0  0  0  0  0  0  0  0  0  0  0  0
  186.4960  178.3280  144.5150 C   0  0  0  0  0  0  0  0  0  0  0  0
  191.1200  178.2300  144.3870 C   0  0  0  0  0  0  0  0  0  0  0  0
  188.8770  176.8330  138.3240 O   0  0  0  0  0  0  0  0  0  0  0  0
  190.0810  177.5030  146.4760 C   0  0  0  0  0  2  0  0  0  0  0  0
  185.5390  179.2550  144.0740 C   0  0  0  0  0  3  0  0  0  0  0  0
  184.9310  177.6660  146.2720 C   0  0  0  0  0  3  0  0  0  0  0  0
  183.9900  178.5750  145.7920 C   0  0  0  0  0  3  0  0  0  0  0  0
  187.7360  177.3200  147.4830 N   0  0  0  0  0  2  0  0  0  0  0  0
  189.7150  176.8570  143.1030 C   0  0  1  0  0  3  0  0  0  0  0  0
  189.8630  178.2480  145.1680 C   0  0  2  0  0  3  0  0  0  0  0  0
  189.0160  177.4070  141.8780 C   0  0  2  0  0  3  0  0  0  0  0  0
  192.1570  177.1170  142.3530 C   0  0  0  0  0  1  0  0  0  0  0  0
  187.7900  178.2790  143.7160 C   0  0  2  0  0  3  0  0  0  0  0  0
  1 21  1  0  0  0  0
  1  6  1  0  0  0  0
  4 22  1  0  0  0  0
  5 17  1  0  0  0  0
  6 23  1  0  0  0  0
  8  2  2  0  0  0  0
  8  7  2  0  0  0  0
  9 14  1  0  0  0  0
  9 13  1  0  0  0  0
 10  8  1  6  0  0  0
 10 28  1  0  0  0  0
 12 25  1  0  0  0  0
 13 26  1  0  0  0  0
 14  8  1  0  0  0  0
 15 11  2  0  0  0  0
 16  1  2  0  0  0  0
 17  3  2  0  0  0  0
 17 25  1  0  0  0  0
 18  9  2  0  0  0  0
 19 15  1  0  0  0  0
 20 16  1  0  0  0  0
 20  4  2  0  0  0  0
 22 21  2  0  0  0  0
 23 15  1  0  0  0  0
 24  5  1  0  0  0  0
 24 12  1  0  0  0  0
 25 19  1  0  0  0  0
 26 10  1  0  0  0  0
 26 24  1  0  0  0  0
 27  5  1  0  0  0  0
 28 12  1  0  0  0  0
 28 16  1  0  0  0  0
M  END
>  <MODEL>
6

>  <REMARK>
 VINA RESULT:      -6.3      2.683      5.217
  Name = 
  0 active torsions:
  status: ('A' for Active; 'I' for Inactive)
                            x       y       z     vdW  Elec       q    Type
                         _______ _______ _______ _____ _____    ______ ____

>  <TORSDO>
F 0

$$$$
=
 OpenBabel11122411503D

 28 32  0  0  1  0  0  0  0  0999 V2000
  183.6060  177.9860  140.6220 C   0  0  0  0  0  0  0  0  0  0  0  0
  188.2150  177.7730  139.4640 O   0  0  0  0  0  0  0  0  0  0  0  0
  185.3880  180.0330  146.1910 O   0  0  0  0  0  0  0  0  0  0  0  0
  184.8330  179.1430  138.3790 C   0  0  0  0  0  3  0  0  0  0  0  0
  186.3640  178.0900  145.3000 N   0  0  0  0  0  0  0  0  0  0  0  0
  182.8060  177.4820  141.7800 C   0  0  0  0  0  2  0  0  0  0  0  0
  188.5550  179.5810  141.1080 O   0  0  0  0  0  0  0  0  0  0  0  0
  188.3870  178.0990  140.9210 S   0  0  0  0  0  0  0  0  0  0  0  0
  189.6880  176.4030  142.6920 C   0  0  0  0  0  0  0  0  0  0  0  0
  186.9930  177.5040  141.8520 C   0  0  1  0  0  3  0  0  0  0  0  0
  181.5260  180.3620  143.6450 O   0  0  0  0  0  0  0  0  0  0  0  0
  185.1340  177.9910  143.2650 C   0  0  1  0  0  3  0  0  0  0  0  0
  188.3820  176.1410  143.3970 C   0  0  0  0  0  2  0  0  0  0  0  0
  189.7720  177.2620  141.5440 N   0  0  0  0  0  2  0  0  0  0  0  0
  182.1780  179.3050  143.4470 C   0  0  0  0  0  0  0  0  0  0  0  0
  184.9370  178.4860  140.7290 C   0  0  0  0  0  0  0  0  0  0  0  0
  185.4530  179.1690  145.2760 C   0  0  0  0  0  0  0  0  0  0  0  0
  190.7260  175.8220  143.1010 O   0  0  0  0  0  0  0  0  0  0  0  0
  183.1620  178.8610  144.4820 C   0  0  0  0  0  2  0  0  0  0  0  0
  185.5140  179.0780  139.5940 C   0  0  0  0  0  3  0  0  0  0  0  0
  182.9350  178.0580  139.3940 C   0  0  0  0  0  3  0  0  0  0  0  0
  183.5460  178.6250  138.2770 C   0  0  0  0  0  3  0  0  0  0  0  0
  181.9350  178.5470  142.2590 N   0  0  0  0  0  2  0  0  0  0  0  0
  186.2090  177.2770  144.1110 C   0  0  1  0  0  3  0  0  0  0  0  0
  184.5920  179.1760  144.0720 C   0  0  2  0  0  3  0  0  0  0  0  0
  187.4660  177.3470  143.2710 C   0  0  2  0  0  3  0  0  0  0  0  0
  187.2170  177.7490  146.4250 C   0  0  0  0  0  1  0  0  0  0  0  0
  185.8110  178.4520  141.9740 C   0  0  2  0  0  3  0  0  0  0  0  0
  1 16  1  0  0  0  0
  1  6  1  0  0  0  0
  2  8  2  0  0  0  0
  4 20  1  0  0  0  0
  5 27  1  0  0  0  0
  6 23  1  0  0  0  0
  8  7  2  0  0  0  0
  8 14  1  0  0  0  0
  9 18  2  0  0  0  0
  9 13  1  0  0  0  0
 10  8  1  6  0  0  0
 10 28  1  0  0  0  0
 10 26  1  0  0  0  0
 12 25  1  0  0  0  0
 12 24  1  0  0  0  0
 14  9  1  0  0  0  0
 15 11  2  0  0  0  0
 15 19  1  0  0  0  0
 16 28  1  0  0  0  0
 17  5  1  0  0  0  0
 17  3  2  0  0  0  0
 20 16  2  0  0  0  0
 21  1  2  0  0  0  0
 22  4  2  0  0  0  0
 22 21  1  0  0  0  0
 23 15  1  0  0  0  0
 24  5  1  0  0  0  0
 25 19  1  0  0  0  0
 25 17  1  0  0  0  0
 26 13  1  0  0  0  0
 26 24  1  0  0  0  0
 28 12  1  0  0  0  0
M  END
>  <MODEL>
7

>  <REMARK>
 VINA RESULT:      -6.3      1.973      4.817
  Name = 
  0 active torsions:
  status: ('A' for Active; 'I' for Inactive)
                            x       y       z     vdW  Elec       q    Type
                         _______ _______ _______ _____ _____    ______ ____

>  <TORSDO>
F 0

$$$$
=
 OpenBabel11122411503D

 28 32  0  0  1  0  0  0  0  0999 V2000
  192.1810  176.5630  138.7550 C   0  0  0  0  0  0  0  0  0  0  0  0
  189.0490  175.0470  135.5130 O   0  0  0  0  0  0  0  0  0  0  0  0
  187.4020  177.2600  142.6350 O   0  0  0  0  0  0  0  0  0  0  0  0
  192.3020  174.1740  137.2880 C   0  0  0  0  0  3  0  0  0  0  0  0
  187.2920  178.1850  140.4780 N   0  0  0  0  0  0  0  0  0  0  0  0
  192.2470  177.7590  139.6500 C   0  0  0  0  0  2  0  0  0  0  0  0
  187.6690  174.3000  137.4170 O   0  0  0  0  0  0  0  0  0  0  0  0
  188.0620  175.4740  136.5630 S   0  0  0  0  0  0  0  0  0  0  0  0
  186.1760  177.4620  136.1270 C   0  0  0  0  0  0  0  0  0  0  0  0
  188.7530  176.7720  137.5620 C   0  0  1  0  0  3  0  0  0  0  0  0
  191.9710  176.6260  143.1220 O   0  0  0  0  0  0  0  0  0  0  0  0
  189.4490  177.5310  139.7150 C   0  0  1  0  0  3  0  0  0  0  0  0
  186.8860  178.3500  137.1160 C   0  0  0  0  0  2  0  0  0  0  0  0
  186.6590  176.1490  135.8020 N   0  0  0  0  0  2  0  0  0  0  0  0
  191.6500  177.2450  142.0750 C   0  0  0  0  0  0  0  0  0  0  0  0
  190.9740  175.8830  138.4190 C   0  0  0  0  0  0  0  0  0  0  0  0
  187.9470  177.4970  141.5240 C   0  0  0  0  0  0  0  0  0  0  0  0
  185.1520  177.9020  135.5440 O   0  0  0  0  0  0  0  0  0  0  0  0
  190.3080  177.9000  142.0060 C   0  0  0  0  0  2  0  0  0  0  0  0
  191.0700  174.6800  137.7030 C   0  0  0  0  0  3  0  0  0  0  0  0
  193.4110  176.0420  138.3310 C   0  0  0  0  0  3  0  0  0  0  0  0
  193.4720  174.8600  137.5950 C   0  0  0  0  0  3  0  0  0  0  0  0
  192.5900  177.3290  140.9990 N   0  0  0  0  0  2  0  0  0  0  0  0
  188.1640  178.2920  139.3260 C   0  0  1  0  0  3  0  0  0  0  0  0
  189.3260  177.0880  141.1760 C   0  0  2  0  0  3  0  0  0  0  0  0
  187.5900  177.5080  138.1670 C   0  0  2  0  0  3  0  0  0  0  0  0
  185.9960  178.8320  140.5930 C   0  0  0  0  0  1  0  0  0  0  0  0
  189.5630  176.3330  138.7720 C   0  0  2  0  0  3  0  0  0  0  0  0
  1  6  1  0  0  0  0
  2  8  2  0  0  0  0
  4 22  2  0  0  0  0
  4 20  1  0  0  0  0
  5 27  1  0  0  0  0
  5 17  1  0  0  0  0
  6 23  1  0  0  0  0
  8  7  2  0  0  0  0
  9 13  1  0  0  0  0
 10  8  1  1  0  0  0
 10 26  1  0  0  0  0
 10 28  1  0  0  0  0
 12 25  1  0  0  0  0
 13 26  1  0  0  0  0
 14  9  1  0  0  0  0
 14  8  1  0  0  0  0
 15 11  2  0  0  0  0
 16  1  1  0  0  0  0
 16 28  1  0  0  0  0
 17  3  2  0  0  0  0
 18  9  2  0  0  0  0
 19 15  1  0  0  0  0
 20 16  2  0  0  0  0
 21  1  2  0  0  0  0
 22 21  1  0  0  0  0
 23 15  1  0  0  0  0
 24 12  1  0  0  0  0
 24  5  1  0  0  0  0
 25 17  1  0  0  0  0
 25 19  1  0  0  0  0
 26 24  1  0  0  0  0
 28 12  1  0  0  0  0
M  END
>  <MODEL>
8

>  <REMARK>
 VINA RESULT:      -6.1      3.890      7.532
  Name = 
  0 active torsions:
  status: ('A' for Active; 'I' for Inactive)
                            x       y       z     vdW  Elec       q    Type
                         _______ _______ _______ _____ _____    ______ ____

>  <TORSDO>
F 0

$$$$
=
 OpenBabel11122411503D

 28 32  0  0  1  0  0  0  0  0999 V2000
  186.3910  177.5230  142.9840 C   0  0  0  0  0  0  0  0  0  0  0  0
  187.0700  178.4830  138.3750 O   0  0  0  0  0  0  0  0  0  0  0  0
  192.4300  178.6260  143.8140 O   0  0  0  0  0  0  0  0  0  0  0  0
  184.9570  179.3590  141.4190 C   0  0  0  0  0  3  0  0  0  0  0  0
  191.7400  177.1540  142.1170 N   0  0  0  0  0  0  0  0  0  0  0  0
  187.0790  176.6320  143.9680 C   0  0  0  0  0  2  0  0  0  0  0  0
  188.9360  179.9220  139.1050 O   0  0  0  0  0  0  0  0  0  0  0  0
  188.5100  178.5120  138.8020 S   0  0  0  0  0  0  0  0  0  0  0  0
  190.4110  176.7650  137.7840 C   0  0  0  0  0  0  0  0  0  0  0  0
  188.7510  177.4660  140.2190 C   0  0  1  0  0  3  0  0  0  0  0  0
  188.6650  178.7290  146.5190 O   0  0  0  0  0  0  0  0  0  0  0  0
  189.3950  177.2580  142.5070 C   0  0  1  0  0  3  0  0  0  0  0  0
  190.5220  176.1030  139.1330 C   0  0  0  0  0  2  0  0  0  0  0  0
  189.5030  177.8520  137.5440 N   0  0  0  0  0  2  0  0  0  0  0  0
  188.5980  177.8900  145.5840 C   0  0  0  0  0  0  0  0  0  0  0  0
  187.0630  178.2420  141.9510 C   0  0  0  0  0  0  0  0  0  0  0  0
  191.5070  178.0110  143.2160 C   0  0  0  0  0  0  0  0  0  0  0  0
  191.1080  176.3250  136.8330 O   0  0  0  0  0  0  0  0  0  0  0  0
  189.8650  177.4350  144.9310 C   0  0  0  0  0  2  0  0  0  0  0  0
  186.3210  179.1680  141.2010 C   0  0  0  0  0  3  0  0  0  0  0  0
  185.0200  177.7260  143.1900 C   0  0  0  0  0  3  0  0  0  0  0  0
  184.3040  178.6320  142.4090 C   0  0  0  0  0  3  0  0  0  0  0  0
  187.3210  177.3740  145.1980 N   0  0  0  0  0  2  0  0  0  0  0  0
  190.4890  176.6040  141.6370 C   0  0  1  0  0  3  0  0  0  0  0  0
  190.0770  178.1090  143.5840 C   0  0  2  0  0  3  0  0  0  0  0  0
  190.2100  177.1010  140.2350 C   0  0  2  0  0  3  0  0  0  0  0  0
  193.0520  176.7530  141.6400 C   0  0  0  0  0  1  0  0  0  0  0  0
  188.5320  178.1120  141.5790 C   0  0  2  0  0  3  0  0  0  0  0  0
  1 21  1  0  0  0  0
  1  6  1  0  0  0  0
  2  8  2  0  0  0  0
  4 22  1  0  0  0  0
  5 17  1  0  0  0  0
  6 23  1  0  0  0  0
  8  7  2  0  0  0  0
  9 13  1  0  0  0  0
 10  8  1  6  0  0  0
 10 26  1  0  0  0  0
 10 28  1  0  0  0  0
 12 25  1  0  0  0  0
 13 26  1  0  0  0  0
 14  9  1  0  0  0  0
 14  8  1  0  0  0  0
 15 11  2  0  0  0  0
 16  1  2  0  0  0  0
 17 25  1  0  0  0  0
 17  3  2  0  0  0  0
 18  9  2  0  0  0  0
 19 15  1  0  0  0  0
 20  4  2  0  0  0  0
 20 16  1  0  0  0  0
 22 21  2  0  0  0  0
 23 15  1  0  0  0  0
 24  5  1  0  0  0  0
 24 12  1  0  0  0  0
 25 19  1  0  0  0  0
 26 24  1  0  0  0  0
 27  5  1  0  0  0  0
 28 16  1  0  0  0  0
 28 12  1  0  0  0  0
M  END
>  <MODEL>
9

>  <REMARK>
 VINA RESULT:      -6.0      3.050      5.517
  Name = 
  0 active torsions:
  status: ('A' for Active; 'I' for Inactive)
                            x       y       z     vdW  Elec       q    Type
                         _______ _______ _______ _____ _____    ______ ____

>  <TORSDO>
F 0

$$$$
