=
 OpenBabel11122412013D

 28 32  0  0  1  0  0  0  0  0999 V2000
  181.3690  179.2700  140.3510 C   0  0  0  0  0  0  0  0  0  0  0  0
  180.9290  176.3530  138.2740 F   0  0  0  0  0  0  0  0  0  0  0  0
  186.9450  178.6270  138.3810 O   0  0  0  0  0  0  0  0  0  0  0  0
  179.6950  181.1620  139.0250 C   0  0  0  0  0  2  0  0  0  0  0  0
  185.3930  177.2340  137.1470 C   0  0  2  0  0  3  0  0  0  0  0  0
  182.0000  178.1210  141.0740 C   0  0  0  0  0  2  0  0  0  0  0  0
  179.4330  178.0660  137.6330 C   0  0  0  0  0  1  0  0  0  0  0  0
  180.6330  177.2270  137.2390 C   0  0  1  0  0  0  0  0  0  0  0  0
  181.3740  175.6760  135.3980 C   0  0  0  0  0  0  0  0  0  0  0  0
  181.8500  178.1280  136.9040 C   0  0  2  0  0  3  0  0  0  0  0  0
  185.4640  178.6140  142.6520 C   0  0  0  0  0  1  0  0  0  0  0  0
  183.5150  177.7850  138.6690 C   0  0  1  0  0  3  0  0  0  0  0  0
  182.6270  176.1180  135.4980 C   0  0  0  0  0  3  0  0  0  0  0  0
  180.2280  176.4260  136.0050 C   0  0  0  0  0  2  0  0  0  0  0  0
  184.4810  178.3420  141.5340 C   0  0  2  0  0  3  0  0  0  0  0  0
  181.6460  179.5900  139.0610 C   0  0  0  0  0  0  0  0  0  0  0  0
  185.7870  178.1520  138.2400 C   0  0  0  0  0  0  0  0  0  0  0  0
  181.1040  174.5360  134.5940 N   0  0  0  0  0  1  0  0  0  0  0  0
  184.8310  179.2250  140.3430 C   0  0  0  0  0  2  0  0  0  0  0  0
  181.1050  180.8830  138.5010 C   0  0  0  0  0  2  0  0  0  0  0  0
  180.4250  180.1090  141.1240 C   0  0  0  0  0  3  0  0  0  0  0  0
  179.6620  181.0220  140.5180 C   0  0  0  0  0  3  0  0  0  0  0  0
  183.0700  178.6280  142.0360 C   0  0  0  0  0  2  0  0  0  0  0  0
  183.9250  176.9200  137.4670 C   0  0  1  0  0  3  0  0  0  0  0  0
  184.7160  178.4640  139.1060 N   0  0  0  0  0  0  0  0  0  0  0  0
  183.0190  177.3230  136.3070 C   0  0  2  0  0  3  0  0  0  0  0  0
  186.2060  175.9560  137.2200 C   0  0  0  0  0  1  0  0  0  0  0  0
  182.5130  178.7810  138.1170 C   0  0  2  0  0  3  0  0  0  0  0  0
  1  6  1  0  0  0  0
  1 21  1  0  0  0  0
  4 22  1  0  0  0  0
  5 27  1  1  0  0  0
  5 24  1  0  0  0  0
  5 17  1  0  0  0  0
  6 23  1  0  0  0  0
  8  7  1  1  0  0  0
  8  2  1  0  0  0  0
  9 13  2  0  0  0  0
  9 14  1  0  0  0  0
 10  8  1  0  0  0  0
 10 28  1  0  0  0  0
 12 25  1  0  0  0  0
 13 26  1  0  0  0  0
 14  8  1  0  0  0  0
 15 23  1  0  0  0  0
 15 11  1  0  0  0  0
 16  1  2  0  0  0  0
 17  3  2  0  0  0  0
 17 25  1  0  0  0  0
 18  9  1  0  0  0  0
 19 15  1  0  0  0  0
 20  4  1  0  0  0  0
 20 16  1  0  0  0  0
 22 21  2  0  0  0  0
 24 12  1  0  0  0  0
 25 19  1  0  0  0  0
 26 10  1  0  0  0  0
 26 24  1  0  0  0  0
 28 12  1  0  0  0  0
 28 16  1  0  0  0  0
M  END
>  <MODEL>
1

>  <REMARK>
 VINA RESULT:      -6.2      0.000      0.000
  Name = 
  0 active torsions:
  status: ('A' for Active; 'I' for Inactive)
                            x       y       z     vdW  Elec       q    Type
                         _______ _______ _______ _____ _____    ______ ____

>  <TORSDO>
F 0

$$$$
=
 OpenBabel11122412013D

 28 32  0  0  1  0  0  0  0  0999 V2000
  180.3300  178.8040  139.7030 C   0  0  0  0  0  0  0  0  0  0  0  0
  183.2200  176.9110  138.6610 F   0  0  0  0  0  0  0  0  0  0  0  0
  183.9470  179.9480  144.2840 O   0  0  0  0  0  0  0  0  0  0  0  0
  180.1550  180.7490  137.6230 C   0  0  0  0  0  2  0  0  0  0  0  0
  185.1340  178.9100  142.4440 C   0  0  2  0  0  3  0  0  0  0  0  0
  180.3930  177.5890  140.5750 C   0  0  0  0  0  2  0  0  0  0  0  0
  182.5890  178.4560  136.9890 C   0  0  0  0  0  1  0  0  0  0  0  0
  183.6410  178.0570  138.0050 C   0  0  1  0  0  0  0  0  0  0  0  0
  186.0960  177.5070  138.1140 C   0  0  0  0  0  0  0  0  0  0  0  0
  183.9040  179.2100  139.0080 C   0  0  2  0  0  3  0  0  0  0  0  0
  179.8670  178.0030  144.3540 C   0  0  0  0  0  1  0  0  0  0  0  0
  183.0400  178.4890  141.1850 C   0  0  1  0  0  3  0  0  0  0  0  0
  186.1950  178.0800  139.3130 C   0  0  0  0  0  3  0  0  0  0  0  0
  184.9160  177.7500  137.2240 C   0  0  0  0  0  2  0  0  0  0  0  0
  180.6440  178.0300  143.0560 C   0  0  2  0  0  3  0  0  0  0  0  0
  181.3770  179.6480  139.5120 C   0  0  0  0  0  0  0  0  0  0  0  0
  183.9260  179.3760  143.1610 C   0  0  0  0  0  0  0  0  0  0  0  0
  187.1900  176.7460  137.6180 N   0  0  0  0  0  1  0  0  0  0  0  0
  181.3880  179.3550  142.9520 C   0  0  0  0  0  2  0  0  0  0  0  0
  181.1410  180.9440  138.7770 C   0  0  0  0  0  2  0  0  0  0  0  0
  179.0310  179.0970  139.0560 C   0  0  0  0  0  3  0  0  0  0  0  0
  178.9310  180.0300  138.1070 C   0  0  0  0  0  3  0  0  0  0  0  0
  179.6740  177.8500  141.8940 C   0  0  0  0  0  2  0  0  0  0  0  0
  184.5580  178.2500  141.1830 C   0  0  1  0  0  3  0  0  0  0  0  0
  182.7350  179.1360  142.4430 N   0  0  0  0  0  0  0  0  0  0  0  0
  185.1060  178.9170  139.9240 C   0  0  2  0  0  3  0  0  0  0  0  0
  185.8610  177.8650  143.2680 C   0  0  0  0  0  1  0  0  0  0  0  0
  182.7870  179.4350  140.0260 C   0  0  2  0  0  3  0  0  0  0  0  0
  1  6  1  0  0  0  0
  4 22  1  0  0  0  0
  4 20  1  0  0  0  0
  5 17  1  0  0  0  0
  5 27  1  1  0  0  0
  6 23  1  0  0  0  0
  8  7  1  6  0  0  0
  8  2  1  0  0  0  0
  8 10  1  0  0  0  0
  9 13  2  0  0  0  0
 10 26  1  0  0  0  0
 10 28  1  0  0  0  0
 12 25  1  0  0  0  0
 13 26  1  0  0  0  0
 14  8  1  0  0  0  0
 14  9  1  0  0  0  0
 15 11  1  0  0  0  0
 16  1  2  0  0  0  0
 16 28  1  0  0  0  0
 17  3  2  0  0  0  0
 18  9  1  0  0  0  0
 19 15  1  0  0  0  0
 20 16  1  0  0  0  0
 21  1  1  0  0  0  0
 22 21  2  0  0  0  0
 23 15  1  0  0  0  0
 24 12  1  0  0  0  0
 24  5  1  0  0  0  0
 25 19  1  0  0  0  0
 25 17  1  0  0  0  0
 26 24  1  0  0  0  0
 28 12  1  0  0  0  0
M  END
>  <MODEL>
2

>  <REMARK>
 VINA RESULT:      -5.9      2.520      4.184
  Name = 
  0 active torsions:
  status: ('A' for Active; 'I' for Inactive)
                            x       y       z     vdW  Elec       q    Type
                         _______ _______ _______ _____ _____    ______ ____

>  <TORSDO>
F 0

$$$$
=
 OpenBabel11122412013D

 28 32  0  0  1  0  0  0  0  0999 V2000
  186.1360  175.2970  135.9600 C   0  0  0  0  0  0  0  0  0  0  0  0
  182.9020  176.5570  134.9740 F   0  0  0  0  0  0  0  0  0  0  0  0
  185.3260  179.3530  140.2350 O   0  0  0  0  0  0  0  0  0  0  0  0
  185.5180  172.5790  136.5660 C   0  0  0  0  0  2  0  0  0  0  0  0
  183.2890  178.9490  138.9860 C   0  0  2  0  0  3  0  0  0  0  0  0
  186.3580  176.6570  135.3750 C   0  0  0  0  0  2  0  0  0  0  0  0
  182.8290  174.2140  135.2700 C   0  0  0  0  0  1  0  0  0  0  0  0
  182.3560  175.5650  135.7720 C   0  0  1  0  0  0  0  0  0  0  0  0
  180.2090  176.7940  136.2470 C   0  0  0  0  0  0  0  0  0  0  0  0
  182.7430  175.7660  137.2600 C   0  0  2  0  0  3  0  0  0  0  0  0
  188.6790  179.0990  137.2130 C   0  0  0  0  0  1  0  0  0  0  0  0
  184.4550  177.5190  137.3310 C   0  0  1  0  0  3  0  0  0  0  0  0
  180.7660  177.4120  137.2870 C   0  0  0  0  0  3  0  0  0  0  0  0
  180.8360  175.5830  135.6270 C   0  0  0  0  0  2  0  0  0  0  0  0
  187.3830  178.3700  136.9340 C   0  0  2  0  0  3  0  0  0  0  0  0
  185.2340  175.0390  136.9410 C   0  0  0  0  0  0  0  0  0  0  0  0
  184.7390  178.8180  139.2580 C   0  0  0  0  0  0  0  0  0  0  0  0
  178.9310  177.2180  135.7920 N   0  0  0  0  0  1  0  0  0  0  0  0
  186.8420  177.8040  138.2410 C   0  0  0  0  0  2  0  0  0  0  0  0
  185.2380  173.6780  137.5920 C   0  0  0  0  0  2  0  0  0  0  0  0
  186.9900  174.2010  135.4480 C   0  0  0  0  0  3  0  0  0  0  0  0
  186.7300  172.9280  135.7540 C   0  0  0  0  0  3  0  0  0  0  0  0
  187.6470  177.2620  135.9210 C   0  0  0  0  0  2  0  0  0  0  0  0
  183.1070  178.1700  137.6770 C   0  0  1  0  0  3  0  0  0  0  0  0
  185.4010  178.0030  138.3140 N   0  0  0  0  0  0  0  0  0  0  0  0
  182.1040  177.0330  137.8580 C   0  0  2  0  0  3  0  0  0  0  0  0
  182.9300  180.4050  138.7570 C   0  0  0  0  0  1  0  0  0  0  0  0
  184.2300  176.0280  137.5000 C   0  0  2  0  0  3  0  0  0  0  0  0
  1 16  2  0  0  0  0
  2  8  1  0  0  0  0
  4 20  1  0  0  0  0
  5 27  1  6  0  0  0
  5 17  1  0  0  0  0
  6 23  1  0  0  0  0
  6  1  1  0  0  0  0
  8  7  1  6  0  0  0
  8 10  1  0  0  0  0
  9 13  2  0  0  0  0
 10 28  1  0  0  0  0
 10 26  1  0  0  0  0
 12 28  1  0  0  0  0
 12 24  1  0  0  0  0
 12 25  1  0  0  0  0
 13 26  1  0  0  0  0
 14  8  1  0  0  0  0
 14  9  1  0  0  0  0
 15 11  1  0  0  0  0
 15 19  1  0  0  0  0
 16 28  1  0  0  0  0
 16 20  1  0  0  0  0
 17  3  2  0  0  0  0
 18  9  1  0  0  0  0
 19 25  1  0  0  0  0
 21 22  2  0  0  0  0
 21  1  1  0  0  0  0
 22  4  1  0  0  0  0
 23 15  1  0  0  0  0
 24 26  1  0  0  0  0
 24  5  1  0  0  0  0
 25 17  1  0  0  0  0
M  END
>  <MODEL>
3

>  <REMARK>
 VINA RESULT:      -5.6      2.195      5.614
  Name = 
  0 active torsions:
  status: ('A' for Active; 'I' for Inactive)
                            x       y       z     vdW  Elec       q    Type
                         _______ _______ _______ _____ _____    ______ ____

>  <TORSDO>
F 0

$$$$
=
 OpenBabel11122412013D

 28 32  0  0  1  0  0  0  0  0999 V2000
  187.7110  176.5220  136.5700 C   0  0  0  0  0  0  0  0  0  0  0  0
  189.0790  175.8810  139.8470 F   0  0  0  0  0  0  0  0  0  0  0  0
  183.9410  179.7510  139.8470 O   0  0  0  0  0  0  0  0  0  0  0  0
  189.8830  177.8780  135.3110 C   0  0  0  0  0  2  0  0  0  0  0  0
  185.8670  179.0430  141.1350 C   0  0  2  0  0  3  0  0  0  0  0  0
  186.7650  175.5910  137.2630 C   0  0  0  0  0  2  0  0  0  0  0  0
  190.7390  176.7490  138.4060 C   0  0  0  0  0  1  0  0  0  0  0  0
  189.8910  176.9850  139.6410 C   0  0  1  0  0  0  0  0  0  0  0  0
  190.1660  177.5380  142.0830 C   0  0  0  0  0  0  0  0  0  0  0  0
  189.0490  178.2790  139.4930 C   0  0  2  0  0  3  0  0  0  0  0  0
  183.0000  176.3100  137.0700 C   0  0  0  0  0  1  0  0  0  0  0  0
  186.7020  177.5990  139.3020 C   0  0  1  0  0  3  0  0  0  0  0  0
  189.0540  178.2730  142.0650 C   0  0  0  0  0  3  0  0  0  0  0  0
  190.8540  177.1280  140.8180 C   0  0  0  0  0  2  0  0  0  0  0  0
  184.4110  176.4650  137.5940 C   0  0  2  0  0  3  0  0  0  0  0  0
  188.1510  177.6870  137.1110 C   0  0  0  0  0  0  0  0  0  0  0  0
  184.9910  179.0610  139.9420 C   0  0  0  0  0  0  0  0  0  0  0  0
  190.7800  177.2420  143.3300 N   0  0  0  0  0  1  0  0  0  0  0  0
  184.7530  177.9470  137.6640 C   0  0  0  0  0  2  0  0  0  0  0  0
  188.9390  178.6380  136.2440 C   0  0  0  0  0  2  0  0  0  0  0  0
  188.1440  176.1420  135.2060 C   0  0  0  0  0  3  0  0  0  0  0  0
  189.1350  176.7930  134.5940 C   0  0  0  0  0  3  0  0  0  0  0  0
  185.3670  175.7220  136.6670 C   0  0  0  0  0  2  0  0  0  0  0  0
  186.9480  178.0210  140.7590 C   0  0  1  0  0  3  0  0  0  0  0  0
  185.4690  178.2390  138.8990 N   0  0  0  0  0  0  0  0  0  0  0  0
  188.3350  178.6580  140.8030 C   0  0  2  0  0  3  0  0  0  0  0  0
  185.0980  178.5360  142.3400 C   0  0  0  0  0  1  0  0  0  0  0  0
  187.8740  178.1650  138.5220 C   0  0  2  0  0  3  0  0  0  0  0  0
  1 16  2  0  0  0  0
  1  6  1  0  0  0  0
  3 17  2  0  0  0  0
  4 20  1  0  0  0  0
  5 27  1  1  0  0  0
  8  7  1  6  0  0  0
  8  2  1  0  0  0  0
  8 14  1  0  0  0  0
  9 18  1  0  0  0  0
 10  8  1  0  0  0  0
 10 26  1  0  0  0  0
 11 15  1  0  0  0  0
 12 24  1  0  0  0  0
 13  9  2  0  0  0  0
 14  9  1  0  0  0  0
 15 19  1  0  0  0  0
 16 28  1  0  0  0  0
 17  5  1  0  0  0  0
 19 25  1  0  0  0  0
 20 16  1  0  0  0  0
 21  1  1  0  0  0  0
 22 21  2  0  0  0  0
 22  4  1  0  0  0  0
 23  6  1  0  0  0  0
 23 15  1  0  0  0  0
 24 26  1  0  0  0  0
 24  5  1  0  0  0  0
 25 12  1  0  0  0  0
 25 17  1  0  0  0  0
 26 13  1  0  0  0  0
 28 12  1  0  0  0  0
 28 10  1  0  0  0  0
M  END
>  <MODEL>
4

>  <REMARK>
 VINA RESULT:      -5.4      3.604      7.976
  Name = 
  0 active torsions:
  status: ('A' for Active; 'I' for Inactive)
                            x       y       z     vdW  Elec       q    Type
                         _______ _______ _______ _____ _____    ______ ____

>  <TORSDO>
F 0

$$$$
=
 OpenBabel11122412013D

 28 32  0  0  1  0  0  0  0  0999 V2000
  181.4270  176.1940  137.0110 C   0  0  0  0  0  0  0  0  0  0  0  0
  184.9070  176.0830  137.9620 F   0  0  0  0  0  0  0  0  0  0  0  0
  181.1060  179.0460  142.2210 O   0  0  0  0  0  0  0  0  0  0  0  0
  181.5460  177.7670  134.6340 C   0  0  0  0  0  2  0  0  0  0  0  0
  183.3990  178.7800  141.4860 C   0  0  2  0  0  3  0  0  0  0  0  0
  181.5460  175.1880  138.1130 C   0  0  0  0  0  2  0  0  0  0  0  0
  184.6560  177.0760  135.8330 C   0  0  0  0  0  1  0  0  0  0  0  0
  185.0530  177.2810  137.2820 C   0  0  1  0  0  0  0  0  0  0  0  0
  187.0140  178.0890  138.6410 C   0  0  0  0  0  0  0  0  0  0  0  0
  184.2020  178.4020  137.9340 C   0  0  2  0  0  3  0  0  0  0  0  0
  178.9760  175.2620  140.9620 C   0  0  0  0  0  1  0  0  0  0  0  0
  182.7390  177.3330  139.5850 C   0  0  1  0  0  3  0  0  0  0  0  0
  186.1950  178.6280  139.5440 C   0  0  0  0  0  3  0  0  0  0  0  0
  186.5260  177.6840  137.2840 C   0  0  0  0  0  2  0  0  0  0  0  0
  180.2160  175.6920  140.2090 C   0  0  2  0  0  3  0  0  0  0  0  0
  181.9130  177.4600  137.0930 C   0  0  0  0  0  0  0  0  0  0  0  0
  181.9390  178.5480  141.4180 C   0  0  0  0  0  0  0  0  0  0  0  0
  188.4040  178.0100  138.9260 N   0  0  0  0  0  1  0  0  0  0  0  0
  180.2230  177.2100  140.0940 C   0  0  0  0  0  2  0  0  0  0  0  0
  181.5600  178.4450  136.0060 C   0  0  0  0  0  2  0  0  0  0  0  0
  180.7010  175.7690  135.7930 C   0  0  0  0  0  3  0  0  0  0  0  0
  180.7210  176.5150  134.6860 C   0  0  0  0  0  3  0  0  0  0  0  0
  180.2100  175.0350  138.8330 C   0  0  0  0  0  2  0  0  0  0  0  0
  183.9440  177.9190  140.3380 C   0  0  1  0  0  3  0  0  0  0  0  0
  181.5650  177.7240  140.3340 N   0  0  0  0  0  0  0  0  0  0  0  0
  184.7140  178.7760  139.3360 C   0  0  2  0  0  3  0  0  0  0  0  0
  183.9490  178.2650  142.8030 C   0  0  0  0  0  1  0  0  0  0  0  0
  182.7530  178.0110  138.2280 C   0  0  2  0  0  3  0  0  0  0  0  0
  1 16  2  0  0  0  0
  1  6  1  0  0  0  0
  4 22  1  0  0  0  0
  4 20  1  0  0  0  0
  5 27  1  1  0  0  0
  6 23  1  0  0  0  0
  8  7  1  6  0  0  0
  8 14  1  0  0  0  0
  8 10  1  0  0  0  0
  8  2  1  0  0  0  0
  9 18  1  0  0  0  0
  9 13  2  0  0  0  0
 10 28  1  0  0  0  0
 10 26  1  0  0  0  0
 12 25  1  0  0  0  0
 12 24  1  0  0  0  0
 14  9  1  0  0  0  0
 15 11  1  0  0  0  0
 16 28  1  0  0  0  0
 17  5  1  0  0  0  0
 17  3  2  0  0  0  0
 19 15  1  0  0  0  0
 19 25  1  0  0  0  0
 20 16  1  0  0  0  0
 21  1  1  0  0  0  0
 22 21  2  0  0  0  0
 23 15  1  0  0  0  0
 24  5  1  0  0  0  0
 25 17  1  0  0  0  0
 26 13  1  0  0  0  0
 26 24  1  0  0  0  0
 28 12  1  0  0  0  0
M  END
>  <MODEL>
5

>  <REMARK>
 VINA RESULT:      -5.4      2.681      5.341
  Name = 
  0 active torsions:
  status: ('A' for Active; 'I' for Inactive)
                            x       y       z     vdW  Elec       q    Type
                         _______ _______ _______ _____ _____    ______ ____

>  <TORSDO>
F 0

$$$$
=
 OpenBabel11122412013D

 28 32  0  0  1  0  0  0  0  0999 V2000
  186.0420  177.9640  143.7110 C   0  0  0  0  0  0  0  0  0  0  0  0
  183.8050  176.7970  141.1310 F   0  0  0  0  0  0  0  0  0  0  0  0
  189.4310  179.0150  138.9370 O   0  0  0  0  0  0  0  0  0  0  0  0
  184.5550  180.1440  144.7980 C   0  0  0  0  0  2  0  0  0  0  0  0
  187.1460  178.5000  138.3170 C   0  0  2  0  0  3  0  0  0  0  0  0
  186.5880  176.6610  143.2180 C   0  0  0  0  0  2  0  0  0  0  0  0
  182.7560  178.4440  142.4610 C   0  0  0  0  0  1  0  0  0  0  0  0
  183.2990  178.0870  141.0910 C   0  0  1  0  0  0  0  0  0  0  0  0
  182.5390  177.9710  138.6930 C   0  0  0  0  0  0  0  0  0  0  0  0
  184.3860  179.1010  140.6470 C   0  0  2  0  0  3  0  0  0  0  0  0
  190.3480  176.3890  142.5010 C   0  0  0  0  0  1  0  0  0  0  0  0
  186.5290  177.9120  140.6450 C   0  0  1  0  0  3  0  0  0  0  0  0
  183.7410  178.3620  138.2690 C   0  0  0  0  0  3  0  0  0  0  0  0
  182.1210  178.1350  140.1220 C   0  0  0  0  0  2  0  0  0  0  0  0
  188.9090  176.7530  142.2090 C   0  0  2  0  0  3  0  0  0  0  0  0
  185.7160  179.0000  142.8950 C   0  0  0  0  0  0  0  0  0  0  0  0
  188.2770  178.6280  139.2630 C   0  0  0  0  0  0  0  0  0  0  0  0
  181.5890  177.5030  137.7450 N   0  0  0  0  0  1  0  0  0  0  0  0
  188.8540  178.1890  141.7050 C   0  0  0  0  0  2  0  0  0  0  0  0
  185.3670  180.3310  143.5150 C   0  0  0  0  0  2  0  0  0  0  0  0
  185.8970  178.1180  145.1770 C   0  0  0  0  0  3  0  0  0  0  0  0
  185.2340  179.1530  145.6970 C   0  0  0  0  0  3  0  0  0  0  0  0
  188.0880  176.5840  143.4830 C   0  0  0  0  0  2  0  0  0  0  0  0
  186.0150  177.9500  139.1970 C   0  0  1  0  0  3  0  0  0  0  0  0
  187.9240  178.2930  140.5890 N   0  0  0  0  0  0  0  0  0  0  0  0
  184.8110  178.8890  139.1830 C   0  0  2  0  0  3  0  0  0  0  0  0
  187.4780  177.4870  137.2390 C   0  0  0  0  0  1  0  0  0  0  0  0
  185.7200  178.9640  141.3800 C   0  0  2  0  0  3  0  0  0  0  0  0
  1 21  1  0  0  0  0
  3 17  2  0  0  0  0
  4 22  1  0  0  0  0
  5 27  1  6  0  0  0
  5 24  1  0  0  0  0
  5 17  1  0  0  0  0
  6 23  1  0  0  0  0
  6  1  1  0  0  0  0
  8  2  1  0  0  0  0
  8  7  1  1  0  0  0
  9 14  1  0  0  0  0
 10  8  1  0  0  0  0
 10 28  1  0  0  0  0
 12 28  1  0  0  0  0
 13  9  2  0  0  0  0
 13 26  1  0  0  0  0
 14  8  1  0  0  0  0
 15 11  1  0  0  0  0
 15 23  1  0  0  0  0
 16 20  1  0  0  0  0
 16  1  2  0  0  0  0
 17 25  1  0  0  0  0
 18  9  1  0  0  0  0
 19 15  1  0  0  0  0
 20  4  1  0  0  0  0
 21 22  2  0  0  0  0
 24 12  1  0  0  0  0
 25 12  1  0  0  0  0
 25 19  1  0  0  0  0
 26 24  1  0  0  0  0
 26 10  1  0  0  0  0
 28 16  1  0  0  0  0
M  END
>  <MODEL>
6

>  <REMARK>
 VINA RESULT:      -5.3      2.662      4.897
  Name = 
  0 active torsions:
  status: ('A' for Active; 'I' for Inactive)
                            x       y       z     vdW  Elec       q    Type
                         _______ _______ _______ _____ _____    ______ ____

>  <TORSDO>
F 0

$$$$
=
 OpenBabel11122412013D

 28 32  0  0  1  0  0  0  0  0999 V2000
  181.7230  177.5440  138.7610 C   0  0  0  0  0  0  0  0  0  0  0  0
  182.9290  174.3650  137.5520 F   0  0  0  0  0  0  0  0  0  0  0  0
  187.4240  178.9580  137.8230 O   0  0  0  0  0  0  0  0  0  0  0  0
  179.8290  178.2300  136.7410 C   0  0  0  0  0  2  0  0  0  0  0  0
  186.8580  176.8190  136.8360 C   0  0  2  0  0  3  0  0  0  0  0  0
  182.5490  176.9460  139.8570 C   0  0  0  0  0  2  0  0  0  0  0  0
  181.0980  175.1090  136.2580 C   0  0  0  0  0  1  0  0  0  0  0  0
  182.5820  174.8010  136.2830 C   0  0  1  0  0  0  0  0  0  0  0  0
  184.2710  173.3790  135.0720 C   0  0  0  0  0  0  0  0  0  0  0  0
  183.4100  176.0480  135.8740 C   0  0  2  0  0  3  0  0  0  0  0  0
  185.0820  179.1760  141.6840 C   0  0  0  0  0  1  0  0  0  0  0  0
  184.6060  176.8110  137.8720 C   0  0  1  0  0  3  0  0  0  0  0  0
  185.2010  174.3230  135.2110 C   0  0  0  0  0  3  0  0  0  0  0  0
  182.8180  173.6730  135.2820 C   0  0  0  0  0  2  0  0  0  0  0  0
  184.5740  178.2910  140.5660 C   0  0  2  0  0  3  0  0  0  0  0  0
  182.1590  177.6840  137.4820 C   0  0  0  0  0  0  0  0  0  0  0  0
  186.6020  178.0160  137.6680 C   0  0  0  0  0  0  0  0  0  0  0  0
  184.6530  172.0960  134.5940 N   0  0  0  0  0  1  0  0  0  0  0  0
  184.8380  178.9780  139.2330 C   0  0  0  0  0  2  0  0  0  0  0  0
  181.3210  178.4810  136.5120 C   0  0  0  0  0  2  0  0  0  0  0  0
  180.3770  178.0370  139.1310 C   0  0  0  0  0  3  0  0  0  0  0  0
  179.4950  178.3940  138.1940 C   0  0  0  0  0  3  0  0  0  0  0  0
  183.0830  178.0430  140.7720 C   0  0  0  0  0  2  0  0  0  0  0  0
  185.5880  175.9800  137.0300 C   0  0  1  0  0  3  0  0  0  0  0  0
  185.3190  178.0100  138.2570 N   0  0  0  0  0  0  0  0  0  0  0  0
  184.9020  175.7160  135.6920 C   0  0  2  0  0  3  0  0  0  0  0  0
  188.0510  176.0530  137.3750 C   0  0  0  0  0  1  0  0  0  0  0  0
  183.4650  177.1500  136.9320 C   0  0  2  0  0  3  0  0  0  0  0  0
  1 21  1  0  0  0  0
  1  6  1  0  0  0  0
  4 22  1  0  0  0  0
  5 24  1  0  0  0  0
  5 27  1  1  0  0  0
  5 17  1  0  0  0  0
  6 23  1  0  0  0  0
  8  7  1  6  0  0  0
  8  2  1  0  0  0  0
  9 13  2  0  0  0  0
  9 14  1  0  0  0  0
 10  8  1  0  0  0  0
 10 28  1  0  0  0  0
 12 25  1  0  0  0  0
 13 26  1  0  0  0  0
 14  8  1  0  0  0  0
 15 23  1  0  0  0  0
 15 11  1  0  0  0  0
 16  1  2  0  0  0  0
 17  3  2  0  0  0  0
 17 25  1  0  0  0  0
 18  9  1  0  0  0  0
 19 15  1  0  0  0  0
 20  4  1  0  0  0  0
 20 16  1  0  0  0  0
 22 21  2  0  0  0  0
 24 12  1  0  0  0  0
 25 19  1  0  0  0  0
 26 10  1  0  0  0  0
 26 24  1  0  0  0  0
 28 16  1  0  0  0  0
 28 12  1  0  0  0  0
M  END
>  <MODEL>
7

>  <REMARK>
 VINA RESULT:      -5.3      1.854      2.600
  Name = 
  0 active torsions:
  status: ('A' for Active; 'I' for Inactive)
                            x       y       z     vdW  Elec       q    Type
                         _______ _______ _______ _____ _____    ______ ____

>  <TORSDO>
F 0

$$$$
=
 OpenBabel11122412013D

 28 32  0  0  1  0  0  0  0  0999 V2000
  182.7970  178.7960  140.3310 C   0  0  0  0  0  0  0  0  0  0  0  0
  184.1800  176.2700  138.1570 F   0  0  0  0  0  0  0  0  0  0  0  0
  188.5760  179.5360  141.5320 O   0  0  0  0  0  0  0  0  0  0  0  0
  181.5910  180.5620  138.4430 C   0  0  0  0  0  2  0  0  0  0  0  0
  188.2380  178.1310  139.5870 C   0  0  2  0  0  3  0  0  0  0  0  0
  183.2500  177.6690  141.2060 C   0  0  0  0  0  2  0  0  0  0  0  0
  182.8270  177.7730  136.9340 C   0  0  0  0  0  1  0  0  0  0  0  0
  184.2290  177.2490  137.1760 C   0  0  1  0  0  0  0  0  0  0  0  0
  186.1410  176.2150  135.9030 C   0  0  0  0  0  0  0  0  0  0  0  0
  185.1860  178.4000  137.5820 C   0  0  2  0  0  3  0  0  0  0  0  0
  185.2330  178.4860  144.3890 C   0  0  0  0  0  1  0  0  0  0  0  0
  185.7850  178.0500  139.9330 C   0  0  1  0  0  3  0  0  0  0  0  0
  187.0260  176.8500  136.6700 C   0  0  0  0  0  3  0  0  0  0  0  0
  184.7000  176.6240  135.8650 C   0  0  0  0  0  2  0  0  0  0  0  0
  185.0340  178.2470  142.9080 C   0  0  2  0  0  3  0  0  0  0  0  0
  183.5870  179.3880  139.3980 C   0  0  0  0  0  0  0  0  0  0  0  0
  187.7980  178.8920  140.7780 C   0  0  0  0  0  0  0  0  0  0  0  0
  186.5960  175.2080  135.0080 N   0  0  0  0  0  1  0  0  0  0  0  0
  185.6960  179.3780  142.1310 C   0  0  0  0  0  2  0  0  0  0  0  0
  183.0930  180.6420  138.7180 C   0  0  0  0  0  2  0  0  0  0  0  0
  181.4210  179.2980  140.5460 C   0  0  0  0  0  3  0  0  0  0  0  0
  180.8590  180.1520  139.6870 C   0  0  0  0  0  3  0  0  0  0  0  0
  183.5400  178.1780  142.6140 C   0  0  0  0  0  2  0  0  0  0  0  0
  186.9350  177.5040  139.0720 C   0  0  1  0  0  3  0  0  0  0  0  0
  186.4010  178.8450  140.9730 N   0  0  0  0  0  0  0  0  0  0  0  0
  186.6540  177.9400  137.6360 C   0  0  2  0  0  3  0  0  0  0  0  0
  189.1960  177.0280  139.9950 C   0  0  0  0  0  1  0  0  0  0  0  0
  184.9760  178.9320  139.0000 C   0  0  2  0  0  3  0  0  0  0  0  0
  1 21  1  0  0  0  0
  1  6  1  0  0  0  0
  4 20  1  0  0  0  0
  4 22  1  0  0  0  0
  5 27  1  1  0  0  0
  5 17  1  0  0  0  0
  6 23  1  0  0  0  0
  8  7  1  6  0  0  0
  8 10  1  0  0  0  0
  8  2  1  0  0  0  0
  9 13  2  0  0  0  0
 10 26  1  0  0  0  0
 10 28  1  0  0  0  0
 12 25  1  0  0  0  0
 13 26  1  0  0  0  0
 14  9  1  0  0  0  0
 14  8  1  0  0  0  0
 15 11  1  0  0  0  0
 16  1  2  0  0  0  0
 17 25  1  0  0  0  0
 17  3  2  0  0  0  0
 18  9  1  0  0  0  0
 19 15  1  0  0  0  0
 20 16  1  0  0  0  0
 22 21  2  0  0  0  0
 23 15  1  0  0  0  0
 24  5  1  0  0  0  0
 24 12  1  0  0  0  0
 25 19  1  0  0  0  0
 26 24  1  0  0  0  0
 28 16  1  0  0  0  0
 28 12  1  0  0  0  0
M  END
>  <MODEL>
8

>  <REMARK>
 VINA RESULT:      -5.2      2.136      3.154
  Name = 
  0 active torsions:
  status: ('A' for Active; 'I' for Inactive)
                            x       y       z     vdW  Elec       q    Type
                         _______ _______ _______ _____ _____    ______ ____

>  <TORSDO>
F 0

$$$$
=
 OpenBabel11122412013D

 28 32  0  0  1  0  0  0  0  0999 V2000
  181.7270  178.7590  141.8660 C   0  0  0  0  0  0  0  0  0  0  0  0
  180.8400  175.3940  140.9090 F   0  0  0  0  0  0  0  0  0  0  0  0
  185.4410  178.0410  137.2760 O   0  0  0  0  0  0  0  0  0  0  0  0
  179.2750  180.1400  141.3960 C   0  0  0  0  0  2  0  0  0  0  0  0
  183.7780  176.2800  137.3670 C   0  0  2  0  0  3  0  0  0  0  0  0
  182.8520  177.8720  142.2990 C   0  0  0  0  0  2  0  0  0  0  0  0
  178.9310  176.7860  140.9280 C   0  0  0  0  0  1  0  0  0  0  0  0
  179.8820  175.9620  140.0840 C   0  0  1  0  0  0  0  0  0  0  0  0
  179.8320  174.0600  138.4340 C   0  0  0  0  0  0  0  0  0  0  0  0
  180.5400  176.8350  138.9830 C   0  0  2  0  0  3  0  0  0  0  0  0
  186.4550  178.9820  141.5800 C   0  0  0  0  0  1  0  0  0  0  0  0
  182.9130  177.0570  139.5560 C   0  0  1  0  0  3  0  0  0  0  0  0
  180.8380  174.5990  137.7460 C   0  0  0  0  0  3  0  0  0  0  0  0
  179.0550  174.8540  139.4380 C   0  0  0  0  0  2  0  0  0  0  0  0
  185.1070  178.3730  141.2600 C   0  0  2  0  0  3  0  0  0  0  0  0
  181.2170  178.7680  140.6080 C   0  0  0  0  0  0  0  0  0  0  0  0
  184.4990  177.4650  137.8840 C   0  0  0  0  0  0  0  0  0  0  0  0
  179.4090  172.7390  138.1200 N   0  0  0  0  0  1  0  0  0  0  0  0
  184.6010  178.9550  139.9470 C   0  0  0  0  0  2  0  0  0  0  0  0
  180.2240  179.8410  140.2340 C   0  0  0  0  0  2  0  0  0  0  0  0
  181.1860  179.6940  142.8790 C   0  0  0  0  0  3  0  0  0  0  0  0
  180.0580  180.3730  142.6540 C   0  0  0  0  0  3  0  0  0  0  0  0
  184.1450  178.6740  142.4040 C   0  0  0  0  0  2  0  0  0  0  0  0
  182.7900  175.9520  138.4950 C   0  0  1  0  0  3  0  0  0  0  0  0
  184.0050  177.9060  139.1310 N   0  0  0  0  0  0  0  0  0  0  0  0
  181.3520  175.9920  137.9840 C   0  0  2  0  0  3  0  0  0  0  0  0
  184.7390  175.1200  137.1900 C   0  0  0  0  0  1  0  0  0  0  0  0
  181.5980  177.8130  139.4950 C   0  0  2  0  0  3  0  0  0  0  0  0
  1  6  1  0  0  0  0
  1 21  1  0  0  0  0
  3 17  2  0  0  0  0
  4 22  1  0  0  0  0
  5 27  1  1  0  0  0
  5 17  1  0  0  0  0
  5 24  1  0  0  0  0
  6 23  1  0  0  0  0
  8  2  1  0  0  0  0
  8  7  1  1  0  0  0
  9 14  1  0  0  0  0
 10 28  1  0  0  0  0
 10  8  1  0  0  0  0
 13 26  1  0  0  0  0
 13  9  2  0  0  0  0
 14  8  1  0  0  0  0
 15 11  1  0  0  0  0
 15 23  1  0  0  0  0
 16  1  2  0  0  0  0
 17 25  1  0  0  0  0
 18  9  1  0  0  0  0
 19 15  1  0  0  0  0
 20 16  1  0  0  0  0
 20  4  1  0  0  0  0
 22 21  2  0  0  0  0
 24 12  1  0  0  0  0
 25 12  1  0  0  0  0
 25 19  1  0  0  0  0
 26 24  1  0  0  0  0
 26 10  1  0  0  0  0
 28 12  1  0  0  0  0
 28 16  1  0  0  0  0
M  END
>  <MODEL>
9

>  <REMARK>
 VINA RESULT:      -5.2      2.037      2.391
  Name = 
  0 active torsions:
  status: ('A' for Active; 'I' for Inactive)
                            x       y       z     vdW  Elec       q    Type
                         _______ _______ _______ _____ _____    ______ ____

>  <TORSDO>
F 0

$$$$
