=
 OpenBabel11122411153D

 31 35  0  0  1  0  0  0  0  0999 V2000
  181.1830  178.6630  143.3590 C   0  0  0  0  0  0  0  0  0  0  0  0
  181.6750  177.9570  139.6580 C   0  0  2  0  0  3  0  0  0  0  0  0
  181.3230  179.1230  138.7540 C   0  0  0  0  0  0  0  0  0  0  0  0
  180.2580  181.2780  138.3930 C   0  0  0  0  0  0  0  0  0  0  0  0
  181.9410  178.3590  141.0790 C   0  0  0  0  0  0  0  0  0  0  0  0
  182.4570  179.1100  143.7240 C   0  0  0  0  0  3  0  0  0  0  0  0
  180.6140  180.2310  139.2450 C   0  0  0  0  0  3  0  0  0  0  0  0
  184.2760  177.7720  139.3890 C   0  0  1  0  0  3  0  0  0  0  0  0
  180.1740  178.5930  144.3100 O   0  0  0  0  0  1  0  0  0  0  0  0
  182.3300  177.9300  136.8440 N   0  0  0  0  0  2  0  0  0  0  0  0
  179.5210  182.4520  138.9280 C   0  0  0  0  0  1  0  0  0  0  0  0
  184.2870  178.9260  140.4090 C   0  0  0  0  0  2  0  0  0  0  0  0
  182.8700  177.1510  139.1120 C   0  0  2  0  0  3  0  0  0  0  0  0
  180.9240  178.2900  142.0370 C   0  0  0  0  0  3  0  0  0  0  0  0
  180.5930  181.2220  137.0380 C   0  0  0  0  0  3  0  0  0  0  0  0
  183.2230  178.7950  141.4490 C   0  0  0  0  0  0  0  0  0  0  0  0
  183.4750  179.1820  142.7680 C   0  0  0  0  0  3  0  0  0  0  0  0
  182.6160  176.7500  137.6540 C   0  0  0  0  0  2  0  0  0  0  0  0
  181.6270  179.0580  137.3780 C   0  0  0  0  0  0  0  0  0  0  0  0
  181.2750  180.1130  136.5320 C   0  0  0  0  0  3  0  0  0  0  0  0
  187.0820  177.5460  138.8060 O   0  0  0  0  0  0  0  0  0  0  0  0
  186.3420  178.0880  137.9420 C   0  0  0  0  0  0  0  0  0  0  0  0
  184.9340  178.2060  138.1640 N   0  0  0  0  0  2  0  0  0  0  0  0
  188.9540  176.9610  135.2620 C   0  0  1  0  0  3  0  0  0  0  0  0
  186.6080  177.7140  135.4930 C   0  0  0  0  0  2  0  0  0  0  0  0
  188.8770  179.7520  137.5320 O   0  0  0  0  0  0  0  0  0  0  0  0
  189.8910  175.7730  135.2620 C   0  0  0  0  0  1  0  0  0  0  0  0
  187.5170  176.4920  135.4400 C   0  0  0  0  0  2  0  0  0  0  0  0
  188.4360  178.7980  136.8390 C   0  0  0  0  0  0  0  0  0  0  0  0
  186.9500  178.6170  136.6830 C   0  0  2  0  0  3  0  0  0  0  0  0
  189.3320  177.8710  136.2940 O   0  0  0  0  0  0  0  0  0  0  0  0
  1  6  1  0  0  0  0
  1  9  1  0  0  0  0
  2  3  1  6  0  0  0
  2  5  1  0  0  0  0
  3  7  1  0  0  0  0
  4 11  1  0  0  0  0
  4  7  2  0  0  0  0
  5 16  2  0  0  0  0
  5 14  1  0  0  0  0
  8 23  1  6  0  0  0
  8 12  1  0  0  0  0
 10 19  1  0  0  0  0
 10 18  1  0  0  0  0
 12 16  1  0  0  0  0
 13 18  1  6  0  0  0
 13  8  1  0  0  0  0
 13  2  1  0  0  0  0
 14  1  2  0  0  0  0
 15  4  1  0  0  0  0
 16 17  1  0  0  0  0
 17  6  2  0  0  0  0
 19  3  2  0  0  0  0
 20 15  2  0  0  0  0
 20 19  1  0  0  0  0
 22 23  1  0  0  0  0
 22 21  2  0  0  0  0
 24 27  1  1  0  0  0
 24 28  1  0  0  0  0
 24 31  1  0  0  0  0
 25 30  1  0  0  0  0
 28 25  1  0  0  0  0
 29 26  2  0  0  0  0
 30 29  1  0  0  0  0
 30 22  1  1  0  0  0
 31 29  1  0  0  0  0
M  END
>  <MODEL>
1

>  <REMARK>
 VINA RESULT:      -6.6      0.000      0.000
  Name = 
  2 active torsions:
  status: ('A' for Active; 'I' for Inactive)
    1  A    between atoms: C_5  and  C_30
    2  A    between atoms: C_10  and  N_16
                            x       y       z     vdW  Elec       q    Type
                         _______ _______ _______ _____ _____    ______ ____

>  <TORSDO>
F 2

$$$$
=
 OpenBabel11122411153D

 31 35  0  0  1  0  0  0  0  0999 V2000
  192.0090  176.6650  138.5900 C   0  0  0  0  0  0  0  0  0  0  0  0
  188.6770  177.1660  136.8340 C   0  0  2  0  0  3  0  0  0  0  0  0
  187.8490  175.9010  136.7050 C   0  0  0  0  0  0  0  0  0  0  0  0
  187.6510  173.4810  136.7920 C   0  0  0  0  0  0  0  0  0  0  0  0
  189.7250  177.0900  137.9050 C   0  0  0  0  0  0  0  0  0  0  0  0
  191.6680  176.9570  139.9140 C   0  0  0  0  0  3  0  0  0  0  0  0
  188.4120  174.6410  136.9570 C   0  0  0  0  0  3  0  0  0  0  0  0
  187.2830  178.6090  138.5220 C   0  0  1  0  0  3  0  0  0  0  0  0
  193.3120  176.3080  138.2720 O   0  0  0  0  0  1  0  0  0  0  0  0
  185.9270  177.2510  135.9510 N   0  0  0  0  0  2  0  0  0  0  0  0
  188.2540  172.1530  137.0760 C   0  0  0  0  0  1  0  0  0  0  0  0
  187.9690  177.7210  139.5760 C   0  0  0  0  0  2  0  0  0  0  0  0
  187.7920  178.4090  137.0590 C   0  0  2  0  0  3  0  0  0  0  0  0
  191.0380  176.7290  137.5860 C   0  0  0  0  0  3  0  0  0  0  0  0
  186.3260  173.5680  136.3610 C   0  0  0  0  0  3  0  0  0  0  0  0
  189.3870  177.3960  139.2320 C   0  0  0  0  0  0  0  0  0  0  0  0
  190.3560  177.3170  140.2360 C   0  0  0  0  0  3  0  0  0  0  0  0
  186.7050  178.4860  135.9800 C   0  0  0  0  0  2  0  0  0  0  0  0
  186.5210  175.9800  136.2370 C   0  0  0  0  0  0  0  0  0  0  0  0
  185.7630  174.8160  136.0830 C   0  0  0  0  0  3  0  0  0  0  0  0
  185.6390  179.4990  140.7050 O   0  0  0  0  0  0  0  0  0  0  0  0
  185.0770  178.8950  139.7520 C   0  0  0  0  0  0  0  0  0  0  0  0
  185.8380  178.4510  138.6250 N   0  0  0  0  0  2  0  0  0  0  0  0
  182.3260  177.1650  137.5820 C   0  0  1  0  0  3  0  0  0  0  0  0
  183.3190  177.1320  139.8480 C   0  0  0  0  0  2  0  0  0  0  0  0
  182.7440  180.5630  138.6850 O   0  0  0  0  0  0  0  0  0  0  0  0
  182.4040  176.6150  136.1740 C   0  0  0  0  0  1  0  0  0  0  0  0
  183.3900  176.5160  138.4550 C   0  0  0  0  0  2  0  0  0  0  0  0
  182.8950  179.3140  138.6700 C   0  0  0  0  0  0  0  0  0  0  0  0
  183.6050  178.6370  139.8110 C   0  0  2  0  0  3  0  0  0  0  0  0
  182.4750  178.5830  137.5530 O   0  0  0  0  0  0  0  0  0  0  0  0
  1  6  1  0  0  0  0
  2  3  1  1  0  0  0
  2 13  1  0  0  0  0
  2  5  1  0  0  0  0
  3  7  1  0  0  0  0
  4  7  2  0  0  0  0
  4 11  1  0  0  0  0
  5 16  2  0  0  0  0
  6 17  2  0  0  0  0
  8 23  1  6  0  0  0
  8 12  1  0  0  0  0
  9  1  1  0  0  0  0
 10 18  1  0  0  0  0
 10 19  1  0  0  0  0
 13 18  1  6  0  0  0
 13  8  1  0  0  0  0
 14  5  1  0  0  0  0
 14  1  2  0  0  0  0
 15  4  1  0  0  0  0
 16 12  1  0  0  0  0
 16 17  1  0  0  0  0
 19  3  2  0  0  0  0
 20 19  1  0  0  0  0
 20 15  2  0  0  0  0
 22 21  2  0  0  0  0
 23 22  1  0  0  0  0
 24 27  1  6  0  0  0
 24 28  1  0  0  0  0
 28 25  1  0  0  0  0
 29 26  2  0  0  0  0
 29 30  1  0  0  0  0
 30 22  1  6  0  0  0
 30 25  1  0  0  0  0
 31 24  1  0  0  0  0
 31 29  1  0  0  0  0
M  END
>  <MODEL>
2

>  <REMARK>
 VINA RESULT:      -6.5      2.883      7.763
  Name = 
  2 active torsions:
  status: ('A' for Active; 'I' for Inactive)
    1  A    between atoms: C_5  and  C_30
    2  A    between atoms: C_10  and  N_16
                            x       y       z     vdW  Elec       q    Type
                         _______ _______ _______ _____ _____    ______ ____

>  <TORSDO>
F 2

$$$$
=
 OpenBabel11122411153D

 31 35  0  0  1  0  0  0  0  0999 V2000
  179.7280  178.7340  143.1630 C   0  0  0  0  0  0  0  0  0  0  0  0
  182.6730  179.4670  140.8760 C   0  0  2  0  0  3  0  0  0  0  0  0
  184.0100  179.0030  141.4220 C   0  0  0  0  0  0  0  0  0  0  0  0
  185.3930  178.2270  143.2640 C   0  0  0  0  0  0  0  0  0  0  0  0
  181.4970  178.7830  141.5090 C   0  0  0  0  0  0  0  0  0  0  0  0
  179.3040  177.4940  142.6740 C   0  0  0  0  0  3  0  0  0  0  0  0
  184.1470  178.6120  142.7630 C   0  0  0  0  0  3  0  0  0  0  0  0
  182.2930  177.8790  138.8260 C   0  0  1  0  0  3  0  0  0  0  0  0
  179.0610  179.3260  144.2260 O   0  0  0  0  0  1  0  0  0  0  0  0
  185.0500  179.4670  139.2340 N   0  0  0  0  0  2  0  0  0  0  0  0
  185.5220  177.8010  144.6820 C   0  0  0  0  0  1  0  0  0  0  0  0
  181.8220  176.8870  139.9060 C   0  0  0  0  0  2  0  0  0  0  0  0
  182.5990  179.3200  139.3430 C   0  0  2  0  0  3  0  0  0  0  0  0
  180.8250  179.3780  142.5820 C   0  0  0  0  0  3  0  0  0  0  0  0
  186.5160  178.2450  142.4350 C   0  0  0  0  0  3  0  0  0  0  0  0
  181.0630  177.5450  141.0110 C   0  0  0  0  0  0  0  0  0  0  0  0
  179.9740  176.8970  141.6020 C   0  0  0  0  0  3  0  0  0  0  0  0
  183.8060  180.0010  138.6870 C   0  0  0  0  0  2  0  0  0  0  0  0
  185.1550  179.0510  140.6010 C   0  0  0  0  0  0  0  0  0  0  0  0
  186.3970  178.6580  141.1060 C   0  0  0  0  0  3  0  0  0  0  0  0
  182.6460  177.8660  135.9730 O   0  0  0  0  0  0  0  0  0  0  0  0
  183.5290  177.3090  136.6790 C   0  0  0  0  0  0  0  0  0  0  0  0
  183.4220  177.3050  138.1050 N   0  0  0  0  0  2  0  0  0  0  0  0
  185.2910  173.8210  136.6870 C   0  0  1  0  0  3  0  0  0  0  0  0
  184.2190  175.4520  135.1670 C   0  0  0  0  0  2  0  0  0  0  0  0
  186.4540  177.1120  137.5550 O   0  0  0  0  0  0  0  0  0  0  0  0
  185.0760  172.6280  137.5930 C   0  0  0  0  0  1  0  0  0  0  0  0
  183.9790  174.2170  136.0270 C   0  0  0  0  0  2  0  0  0  0  0  0
  185.7280  176.2340  137.0220 C   0  0  0  0  0  0  0  0  0  0  0  0
  184.6890  176.6410  136.0120 C   0  0  2  0  0  3  0  0  0  0  0  0
  185.8390  174.9030  137.4380 O   0  0  0  0  0  0  0  0  0  0  0  0
  1  9  1  0  0  0  0
  2  3  1  1  0  0  0
  2  5  1  0  0  0  0
  3  7  1  0  0  0  0
  4 11  1  0  0  0  0
  5 14  1  0  0  0  0
  6  1  1  0  0  0  0
  7  4  2  0  0  0  0
  8 23  1  1  0  0  0
  8 13  1  0  0  0  0
  8 12  1  0  0  0  0
 10 19  1  0  0  0  0
 12 16  1  0  0  0  0
 13 18  1  6  0  0  0
 13  2  1  0  0  0  0
 14  1  2  0  0  0  0
 15  4  1  0  0  0  0
 16  5  2  0  0  0  0
 16 17  1  0  0  0  0
 17  6  2  0  0  0  0
 18 10  1  0  0  0  0
 19 20  1  0  0  0  0
 19  3  2  0  0  0  0
 20 15  2  0  0  0  0
 21 22  2  0  0  0  0
 22 23  1  0  0  0  0
 24 31  1  0  0  0  0
 24 27  1  1  0  0  0
 25 30  1  0  0  0  0
 25 28  1  0  0  0  0
 28 24  1  0  0  0  0
 29 31  1  0  0  0  0
 29 26  2  0  0  0  0
 30 22  1  1  0  0  0
 30 29  1  0  0  0  0
M  END
>  <MODEL>
3

>  <REMARK>
 VINA RESULT:      -6.2      2.444      4.498
  Name = 
  2 active torsions:
  status: ('A' for Active; 'I' for Inactive)
    1  A    between atoms: C_5  and  C_30
    2  A    between atoms: C_10  and  N_16
                            x       y       z     vdW  Elec       q    Type
                         _______ _______ _______ _____ _____    ______ ____

>  <TORSDO>
F 2

$$$$
=
 OpenBabel11122411153D

 31 35  0  0  1  0  0  0  0  0999 V2000
  191.3110  176.8710  138.1480 C   0  0  0  0  0  0  0  0  0  0  0  0
  187.9840  176.8100  136.3130 C   0  0  2  0  0  3  0  0  0  0  0  0
  187.2900  175.4620  136.3350 C   0  0  0  0  0  0  0  0  0  0  0  0
  187.3330  173.0630  136.7230 C   0  0  0  0  0  0  0  0  0  0  0  0
  189.0110  176.9740  137.3940 C   0  0  0  0  0  0  0  0  0  0  0  0
  190.9120  177.2890  139.4220 C   0  0  0  0  0  3  0  0  0  0  0  0
  187.9700  174.3060  136.7480 C   0  0  0  0  0  3  0  0  0  0  0  0
  186.4170  178.3010  137.7940 C   0  0  1  0  0  3  0  0  0  0  0  0
  192.6500  176.6120  137.8900 O   0  0  0  0  0  1  0  0  0  0  0  0
  185.2590  176.5050  135.4010 N   0  0  0  0  0  2  0  0  0  0  0  0
  188.0590  171.8480  137.1750 C   0  0  0  0  0  1  0  0  0  0  0  0
  187.1650  177.6240  138.9570 C   0  0  0  0  0  2  0  0  0  0  0  0
  186.9740  177.9750  136.3720 C   0  0  2  0  0  3  0  0  0  0  0  0
  190.3600  176.7120  137.1350 C   0  0  0  0  0  3  0  0  0  0  0  0
  186.0150  172.9610  136.2720 C   0  0  0  0  0  3  0  0  0  0  0  0
  188.6150  177.4050  138.6690 C   0  0  0  0  0  0  0  0  0  0  0  0
  189.5640  177.5500  139.6850 C   0  0  0  0  0  3  0  0  0  0  0  0
  185.9100  177.8070  135.2820 C   0  0  0  0  0  2  0  0  0  0  0  0
  185.9710  175.3460  135.8490 C   0  0  0  0  0  0  0  0  0  0  0  0
  185.3360  174.1010  135.8340 C   0  0  0  0  0  3  0  0  0  0  0  0
  184.4740  179.8790  139.2070 O   0  0  0  0  0  0  0  0  0  0  0  0
  184.0790  178.8240  138.6430 C   0  0  0  0  0  0  0  0  0  0  0  0
  184.9930  178.0110  137.9030 N   0  0  0  0  0  2  0  0  0  0  0  0
  180.5610  180.5270  138.6690 C   0  0  1  0  0  3  0  0  0  0  0  0
  181.8700  178.7890  137.4900 C   0  0  0  0  0  2  0  0  0  0  0  0
  182.3080  178.5630  141.1250 O   0  0  0  0  0  0  0  0  0  0  0  0
  180.1950  181.9940  138.7230 C   0  0  0  0  0  1  0  0  0  0  0  0
  181.4760  180.2620  137.4820 C   0  0  0  0  0  2  0  0  0  0  0  0
  182.0170  179.0230  139.9910 C   0  0  0  0  0  0  0  0  0  0  0  0
  182.6430  178.4220  138.7610 C   0  0  2  0  0  3  0  0  0  0  0  0
  181.1800  180.1410  139.8950 O   0  0  0  0  0  0  0  0  0  0  0  0
  1  6  1  0  0  0  0
  2  3  1  1  0  0  0
  2 13  1  0  0  0  0
  2  5  1  0  0  0  0
  3  7  1  0  0  0  0
  4  7  2  0  0  0  0
  4 11  1  0  0  0  0
  5 16  2  0  0  0  0
  6 17  2  0  0  0  0
  8 23  1  6  0  0  0
  8 12  1  0  0  0  0
  9  1  1  0  0  0  0
 10 19  1  0  0  0  0
 13 18  1  6  0  0  0
 13  8  1  0  0  0  0
 14  5  1  0  0  0  0
 14  1  2  0  0  0  0
 15  4  1  0  0  0  0
 16 12  1  0  0  0  0
 16 17  1  0  0  0  0
 18 10  1  0  0  0  0
 19  3  2  0  0  0  0
 20 19  1  0  0  0  0
 20 15  2  0  0  0  0
 22 21  2  0  0  0  0
 23 22  1  0  0  0  0
 24 27  1  1  0  0  0
 24 31  1  0  0  0  0
 25 30  1  0  0  0  0
 28 25  1  0  0  0  0
 28 24  1  0  0  0  0
 29 26  2  0  0  0  0
 30 22  1  6  0  0  0
 30 29  1  0  0  0  0
 31 29  1  0  0  0  0
M  END
>  <MODEL>
4

>  <REMARK>
 VINA RESULT:      -6.1      2.620      8.083
  Name = 
  2 active torsions:
  status: ('A' for Active; 'I' for Inactive)
    1  A    between atoms: C_5  and  C_30
    2  A    between atoms: C_10  and  N_16
                            x       y       z     vdW  Elec       q    Type
                         _______ _______ _______ _____ _____    ______ ____

>  <TORSDO>
F 2

$$$$
=
 OpenBabel11122411153D

 31 35  0  0  1  0  0  0  0  0999 V2000
  187.9990  177.5950  148.5870 C   0  0  0  0  0  0  0  0  0  0  0  0
  187.9940  176.7060  144.8920 C   0  0  2  0  0  3  0  0  0  0  0  0
  187.0900  177.5830  144.0460 C   0  0  0  0  0  0  0  0  0  0  0  0
  185.2900  179.2040  143.8500 C   0  0  0  0  0  0  0  0  0  0  0  0
  188.3670  177.3230  146.2090 C   0  0  0  0  0  0  0  0  0  0  0  0
  189.0800  178.4800  148.6540 C   0  0  0  0  0  3  0  0  0  0  0  0
  186.1460  178.4340  144.6410 C   0  0  0  0  0  3  0  0  0  0  0  0
  190.3930  177.3780  144.0770 C   0  0  1  0  0  3  0  0  0  0  0  0
  187.2790  177.2910  149.7340 O   0  0  0  0  0  1  0  0  0  0  0  0
  188.0690  176.6020  142.0060 N   0  0  0  0  0  2  0  0  0  0  0  0
  184.3040  180.1120  144.4920 C   0  0  0  0  0  1  0  0  0  0  0  0
  190.1920  178.5700  145.0300 C   0  0  0  0  0  2  0  0  0  0  0  0
  189.2690  176.2950  144.1300 C   0  0  2  0  0  3  0  0  0  0  0  0
  187.6410  177.0180  147.3650 C   0  0  0  0  0  3  0  0  0  0  0  0
  185.3590  179.1200  142.4580 C   0  0  0  0  0  3  0  0  0  0  0  0
  189.4590  178.2010  146.2790 C   0  0  0  0  0  0  0  0  0  0  0  0
  189.8060  178.7870  147.5000 C   0  0  0  0  0  3  0  0  0  0  0  0
  188.9000  175.6790  142.7750 C   0  0  0  0  0  2  0  0  0  0  0  0
  187.1310  177.4780  142.6410 C   0  0  0  0  0  0  0  0  0  0  0  0
  186.2780  178.2570  141.8550 C   0  0  0  0  0  3  0  0  0  0  0  0
  192.2620  176.3170  142.1680 O   0  0  0  0  0  0  0  0  0  0  0  0
  191.5760  177.3170  141.8280 C   0  0  0  0  0  0  0  0  0  0  0  0
  190.6110  177.8740  142.7240 N   0  0  0  0  0  2  0  0  0  0  0  0
  191.5130  176.2080  138.0810 C   0  0  1  0  0  3  0  0  0  0  0  0
  190.5050  177.8440  139.6400 C   0  0  0  0  0  2  0  0  0  0  0  0
  194.1260  177.5570  140.1530 O   0  0  0  0  0  0  0  0  0  0  0  0
  191.4060  174.8220  137.4820 C   0  0  0  0  0  1  0  0  0  0  0  0
  190.3370  176.4650  139.0120 C   0  0  0  0  0  2  0  0  0  0  0  0
  192.9550  177.2890  139.7770 C   0  0  0  0  0  0  0  0  0  0  0  0
  191.7850  177.9270  140.4780 C   0  0  2  0  0  3  0  0  0  0  0  0
  192.7550  176.3400  138.7690 O   0  0  0  0  0  0  0  0  0  0  0  0
  1  6  1  0  0  0  0
  1  9  1  0  0  0  0
  2  3  1  6  0  0  0
  2  5  1  0  0  0  0
  3  7  1  0  0  0  0
  4 11  1  0  0  0  0
  4  7  2  0  0  0  0
  5 16  2  0  0  0  0
  5 14  1  0  0  0  0
  8 23  1  6  0  0  0
  8 13  1  0  0  0  0
  8 12  1  0  0  0  0
 10 19  1  0  0  0  0
 10 18  1  0  0  0  0
 12 16  1  0  0  0  0
 13 18  1  6  0  0  0
 13  2  1  0  0  0  0
 14  1  2  0  0  0  0
 15  4  1  0  0  0  0
 16 17  1  0  0  0  0
 17  6  2  0  0  0  0
 19  3  2  0  0  0  0
 20 15  2  0  0  0  0
 20 19  1  0  0  0  0
 22 21  2  0  0  0  0
 22 23  1  0  0  0  0
 24 27  1  1  0  0  0
 24 31  1  0  0  0  0
 24 28  1  0  0  0  0
 25 30  1  0  0  0  0
 28 25  1  0  0  0  0
 29 26  2  0  0  0  0
 29 30  1  0  0  0  0
 30 22  1  1  0  0  0
 31 29  1  0  0  0  0
M  END
>  <MODEL>
5

>  <REMARK>
 VINA RESULT:      -5.9      5.659      7.261
  Name = 
  2 active torsions:
  status: ('A' for Active; 'I' for Inactive)
    1  A    between atoms: C_5  and  C_30
    2  A    between atoms: C_10  and  N_16
                            x       y       z     vdW  Elec       q    Type
                         _______ _______ _______ _____ _____    ______ ____

>  <TORSDO>
F 2

$$$$
=
 OpenBabel11122411153D

 31 35  0  0  1  0  0  0  0  0999 V2000
  180.5190  179.0330  143.0400 C   0  0  0  0  0  0  0  0  0  0  0  0
  180.6800  177.7670  139.4610 C   0  0  2  0  0  3  0  0  0  0  0  0
  180.7570  178.8660  138.4190 C   0  0  0  0  0  0  0  0  0  0  0  0
  180.5290  181.2000  137.7810 C   0  0  0  0  0  0  0  0  0  0  0  0
  181.0900  178.2120  140.8340 C   0  0  0  0  0  0  0  0  0  0  0  0
  181.8730  179.0360  143.3910 C   0  0  0  0  0  3  0  0  0  0  0  0
  180.4980  180.2030  138.7580 C   0  0  0  0  0  3  0  0  0  0  0  0
  183.0400  176.6360  139.2960 C   0  0  1  0  0  3  0  0  0  0  0  0
  179.5630  179.4390  143.9610 O   0  0  0  0  0  1  0  0  0  0  0  0
  181.2470  177.1760  136.6900 N   0  0  0  0  0  2  0  0  0  0  0  0
  180.2670  182.6140  138.1550 C   0  0  0  0  0  1  0  0  0  0  0  0
  183.4750  177.8220  140.1760 C   0  0  0  0  0  2  0  0  0  0  0  0
  181.5020  176.5280  139.0480 C   0  0  2  0  0  3  0  0  0  0  0  0
  180.1280  178.6230  141.7620 C   0  0  0  0  0  3  0  0  0  0  0  0
  180.8050  180.8690  136.4520 C   0  0  0  0  0  3  0  0  0  0  0  0
  182.4470  178.2030  141.1910 C   0  0  0  0  0  0  0  0  0  0  0  0
  182.8380  178.6270  142.4650 C   0  0  0  0  0  3  0  0  0  0  0  0
  181.1030  176.0750  137.6390 C   0  0  0  0  0  2  0  0  0  0  0  0
  181.0010  178.5350  137.0700 C   0  0  0  0  0  0  0  0  0  0  0  0
  181.0390  179.5380  136.0980 C   0  0  0  0  0  3  0  0  0  0  0  0
  184.1810  174.3560  137.9680 O   0  0  0  0  0  0  0  0  0  0  0  0
  184.3590  175.4900  137.4500 C   0  0  0  0  0  0  0  0  0  0  0  0
  183.7940  176.6590  138.0490 N   0  0  0  0  0  2  0  0  0  0  0  0
  187.4990  177.4460  136.1880 C   0  0  1  0  0  3  0  0  0  0  0  0
  186.6170  175.1490  136.4520 C   0  0  0  0  0  2  0  0  0  0  0  0
  184.0750  177.4120  135.0860 O   0  0  0  0  0  0  0  0  0  0  0  0
  188.2670  178.5730  136.8430 C   0  0  0  0  0  1  0  0  0  0  0  0
  187.4430  176.2430  137.1190 C   0  0  0  0  0  2  0  0  0  0  0  0
  185.1210  177.0080  135.6540 C   0  0  0  0  0  0  0  0  0  0  0  0
  185.1760  175.6070  136.2030 C   0  0  2  0  0  3  0  0  0  0  0  0
  186.1890  177.8930  135.8430 O   0  0  0  0  0  0  0  0  0  0  0  0
  1  6  1  0  0  0  0
  1  9  1  0  0  0  0
  2  3  1  6  0  0  0
  2  5  1  0  0  0  0
  3  7  1  0  0  0  0
  4 11  1  0  0  0  0
  4  7  2  0  0  0  0
  5 16  2  0  0  0  0
  5 14  1  0  0  0  0
  8 23  1  6  0  0  0
  8 12  1  0  0  0  0
 10 19  1  0  0  0  0
 10 18  1  0  0  0  0
 12 16  1  0  0  0  0
 13 18  1  6  0  0  0
 13  8  1  0  0  0  0
 13  2  1  0  0  0  0
 14  1  2  0  0  0  0
 15  4  1  0  0  0  0
 16 17  1  0  0  0  0
 17  6  2  0  0  0  0
 19  3  2  0  0  0  0
 20 15  2  0  0  0  0
 20 19  1  0  0  0  0
 22 21  2  0  0  0  0
 22 23  1  0  0  0  0
 24 27  1  1  0  0  0
 24 28  1  0  0  0  0
 25 28  1  0  0  0  0
 26 29  2  0  0  0  0
 29 31  1  0  0  0  0
 29 30  1  0  0  0  0
 30 25  1  0  0  0  0
 30 22  1  1  0  0  0
 31 24  1  0  0  0  0
M  END
>  <MODEL>
6

>  <REMARK>
 VINA RESULT:      -5.9      1.765      2.241
  Name = 
  2 active torsions:
  status: ('A' for Active; 'I' for Inactive)
    1  A    between atoms: C_5  and  C_30
    2  A    between atoms: C_10  and  N_16
                            x       y       z     vdW  Elec       q    Type
                         _______ _______ _______ _____ _____    ______ ____

>  <TORSDO>
F 2

$$$$
=
 OpenBabel11122411153D

 31 35  0  0  1  0  0  0  0  0999 V2000
  191.7140  176.7090  138.4180 C   0  0  0  0  0  0  0  0  0  0  0  0
  188.6440  177.0320  136.2010 C   0  0  2  0  0  3  0  0  0  0  0  0
  187.9580  175.7130  135.8980 C   0  0  0  0  0  0  0  0  0  0  0  0
  187.9630  173.2830  135.8560 C   0  0  0  0  0  0  0  0  0  0  0  0
  189.5270  176.9840  137.4140 C   0  0  0  0  0  0  0  0  0  0  0  0
  191.1570  176.9020  139.6860 C   0  0  0  0  0  3  0  0  0  0  0  0
  188.5870  174.4900  136.1800 C   0  0  0  0  0  3  0  0  0  0  0  0
  186.8970  178.2660  137.7160 C   0  0  1  0  0  3  0  0  0  0  0  0
  193.0760  176.4750  138.2860 O   0  0  0  0  0  1  0  0  0  0  0  0
  186.0570  176.9410  134.9180 N   0  0  0  0  0  2  0  0  0  0  0  0
  188.6320  171.9950  136.1730 C   0  0  0  0  0  1  0  0  0  0  0  0
  187.4960  177.3810  138.8250 C   0  0  0  0  0  2  0  0  0  0  0  0
  187.6300  178.1850  136.3400 C   0  0  2  0  0  3  0  0  0  0  0  0
  190.8990  176.7480  137.2820 C   0  0  0  0  0  3  0  0  0  0  0  0
  186.7130  173.2860  135.2340 C   0  0  0  0  0  3  0  0  0  0  0  0
  188.9710  177.1910  138.6860 C   0  0  0  0  0  0  0  0  0  0  0  0
  189.7850  177.1370  139.8210 C   0  0  0  0  0  3  0  0  0  0  0  0
  186.7110  178.2320  135.1140 C   0  0  0  0  0  2  0  0  0  0  0  0
  186.7120  175.7080  135.2380 C   0  0  0  0  0  0  0  0  0  0  0  0
  186.0900  174.4970  134.9250 C   0  0  0  0  0  3  0  0  0  0  0  0
  184.7850  179.5990  139.1400 O   0  0  0  0  0  0  0  0  0  0  0  0
  184.4680  178.6700  138.3500 C   0  0  0  0  0  0  0  0  0  0  0  0
  185.4720  177.9860  137.5940 N   0  0  0  0  0  2  0  0  0  0  0  0
  181.1930  178.8050  140.4770 C   0  0  1  0  0  3  0  0  0  0  0  0
  182.1230  179.5100  138.2960 C   0  0  0  0  0  2  0  0  0  0  0  0
  183.0630  176.0580  139.1010 O   0  0  0  0  0  0  0  0  0  0  0  0
  180.9960  179.1760  141.9310 C   0  0  0  0  0  1  0  0  0  0  0  0
  181.8910  179.9390  139.7400 C   0  0  0  0  0  2  0  0  0  0  0  0
  182.6590  177.2410  139.2400 C   0  0  0  0  0  0  0  0  0  0  0  0
  183.0310  178.2790  138.2150 C   0  0  2  0  0  3  0  0  0  0  0  0
  181.9400  177.5930  140.3880 O   0  0  0  0  0  0  0  0  0  0  0  0
  1  6  1  0  0  0  0
  2  3  1  1  0  0  0
  2 13  1  0  0  0  0
  2  5  1  0  0  0  0
  3  7  1  0  0  0  0
  4 11  1  0  0  0  0
  4  7  2  0  0  0  0
  5 16  2  0  0  0  0
  6 17  2  0  0  0  0
  8 23  1  6  0  0  0
  8 12  1  0  0  0  0
  9  1  1  0  0  0  0
 10 18  1  0  0  0  0
 10 19  1  0  0  0  0
 13 18  1  6  0  0  0
 13  8  1  0  0  0  0
 14  5  1  0  0  0  0
 14  1  2  0  0  0  0
 15  4  1  0  0  0  0
 16 12  1  0  0  0  0
 16 17  1  0  0  0  0
 19  3  2  0  0  0  0
 20 15  2  0  0  0  0
 20 19  1  0  0  0  0
 22 21  2  0  0  0  0
 23 22  1  0  0  0  0
 24 27  1  1  0  0  0
 25 28  1  0  0  0  0
 26 29  2  0  0  0  0
 28 24  1  0  0  0  0
 29 31  1  0  0  0  0
 30 25  1  0  0  0  0
 30 22  1  1  0  0  0
 30 29  1  0  0  0  0
 31 24  1  0  0  0  0
M  END
>  <MODEL>
7

>  <REMARK>
 VINA RESULT:      -5.8      2.604      8.259
  Name = 
  2 active torsions:
  status: ('A' for Active; 'I' for Inactive)
    1  A    between atoms: C_5  and  C_30
    2  A    between atoms: C_10  and  N_16
                            x       y       z     vdW  Elec       q    Type
                         _______ _______ _______ _____ _____    ______ ____

>  <TORSDO>
F 2

$$$$
=
 OpenBabel11122411153D

 31 35  0  0  1  0  0  0  0  0999 V2000
  191.0720  176.2890  136.1370 C   0  0  0  0  0  0  0  0  0  0  0  0
  187.3480  176.3710  135.3810 C   0  0  2  0  0  3  0  0  0  0  0  0
  186.6360  175.0570  135.6370 C   0  0  0  0  0  0  0  0  0  0  0  0
  186.6920  172.6600  136.0390 C   0  0  0  0  0  0  0  0  0  0  0  0
  188.6580  176.4940  136.1030 C   0  0  0  0  0  0  0  0  0  0  0  0
  191.0910  176.7320  137.4640 C   0  0  0  0  0  3  0  0  0  0  0  0
  187.3600  173.8730  135.8480 C   0  0  0  0  0  3  0  0  0  0  0  0
  186.3610  177.9410  137.2350 C   0  0  1  0  0  3  0  0  0  0  0  0
  192.2590  175.9680  135.4950 O   0  0  0  0  0  1  0  0  0  0  0  0
  184.4650  176.1870  135.3320 N   0  0  0  0  0  2  0  0  0  0  0  0
  187.4680  171.4160  136.2760 C   0  0  0  0  0  1  0  0  0  0  0  0
  187.3940  177.2370  138.1340 C   0  0  0  0  0  2  0  0  0  0  0  0
  186.4530  177.5810  135.7180 C   0  0  2  0  0  3  0  0  0  0  0  0
  189.8560  176.1690  135.4580 C   0  0  0  0  0  3  0  0  0  0  0  0
  185.2970  172.6170  136.0040 C   0  0  0  0  0  3  0  0  0  0  0  0
  188.6810  176.9500  137.4300 C   0  0  0  0  0  0  0  0  0  0  0  0
  189.8960  177.0560  138.1120 C   0  0  0  0  0  3  0  0  0  0  0  0
  185.1050  177.4570  135.0000 C   0  0  0  0  0  2  0  0  0  0  0  0
  185.2290  174.9990  135.5680 C   0  0  0  0  0  0  0  0  0  0  0  0
  184.5670  173.7850  135.7680 C   0  0  0  0  0  3  0  0  0  0  0  0
  184.9250  179.7090  138.9880 O   0  0  0  0  0  0  0  0  0  0  0  0
  184.3710  178.6260  138.6600 C   0  0  0  0  0  0  0  0  0  0  0  0
  185.0240  177.7170  137.7700 N   0  0  0  0  0  2  0  0  0  0  0  0
  181.5460  175.9870  138.0870 C   0  0  1  0  0  3  0  0  0  0  0  0
  183.0280  176.8950  139.8480 C   0  0  0  0  0  2  0  0  0  0  0  0
  181.5940  179.5720  137.7910 O   0  0  0  0  0  0  0  0  0  0  0  0
  181.3920  174.9540  136.9930 C   0  0  0  0  0  1  0  0  0  0  0  0
  182.8820  175.8060  138.7920 C   0  0  0  0  0  2  0  0  0  0  0  0
  181.9590  178.4270  138.1640 C   0  0  0  0  0  0  0  0  0  0  0  0
  183.0240  178.2920  139.2180 C   0  0  2  0  0  3  0  0  0  0  0  0
  181.4280  177.2960  137.5320 O   0  0  0  0  0  0  0  0  0  0  0  0
  1  6  1  0  0  0  0
  2  3  1  1  0  0  0
  2 13  1  0  0  0  0
  2  5  1  0  0  0  0
  3  7  1  0  0  0  0
  4 11  1  0  0  0  0
  5 16  2  0  0  0  0
  6 17  2  0  0  0  0
  7  4  2  0  0  0  0
  8 23  1  1  0  0  0
  8 12  1  0  0  0  0
  9  1  1  0  0  0  0
 10 19  1  0  0  0  0
 13 18  1  1  0  0  0
 13  8  1  0  0  0  0
 14  5  1  0  0  0  0
 14  1  2  0  0  0  0
 15  4  1  0  0  0  0
 16 17  1  0  0  0  0
 16 12  1  0  0  0  0
 18 10  1  0  0  0  0
 19  3  2  0  0  0  0
 19 20  1  0  0  0  0
 20 15  2  0  0  0  0
 22 21  2  0  0  0  0
 23 22  1  0  0  0  0
 24 27  1  6  0  0  0
 24 28  1  0  0  0  0
 26 29  2  0  0  0  0
 28 25  1  0  0  0  0
 29 30  1  0  0  0  0
 30 22  1  6  0  0  0
 30 25  1  0  0  0  0
 31 24  1  0  0  0  0
 31 29  1  0  0  0  0
M  END
>  <MODEL>
8

>  <REMARK>
 VINA RESULT:      -5.6      2.799      8.034
  Name = 
  2 active torsions:
  status: ('A' for Active; 'I' for Inactive)
    1  A    between atoms: C_5  and  C_30
    2  A    between atoms: C_10  and  N_16
                            x       y       z     vdW  Elec       q    Type
                         _______ _______ _______ _____ _____    ______ ____

>  <TORSDO>
F 2

$$$$
=
 OpenBabel11122411153D

 31 35  0  0  1  0  0  0  0  0999 V2000
  180.6320  179.1790  142.8980 C   0  0  0  0  0  0  0  0  0  0  0  0
  180.5990  177.8500  139.3380 C   0  0  2  0  0  3  0  0  0  0  0  0
  180.7060  178.9270  138.2750 C   0  0  0  0  0  0  0  0  0  0  0  0
  180.5930  181.2600  137.6040 C   0  0  0  0  0  0  0  0  0  0  0  0
  181.0800  178.2920  140.6890 C   0  0  0  0  0  0  0  0  0  0  0  0
  181.9950  179.1070  143.2040 C   0  0  0  0  0  3  0  0  0  0  0  0
  180.5360  180.2820  138.5990 C   0  0  0  0  0  3  0  0  0  0  0  0
  182.8820  176.5800  139.1150 C   0  0  1  0  0  3  0  0  0  0  0  0
  179.7330  179.6550  143.8420 O   0  0  0  0  0  1  0  0  0  0  0  0
  181.0380  177.1850  136.5600 N   0  0  0  0  0  2  0  0  0  0  0  0
  180.4260  182.6920  137.9620 C   0  0  0  0  0  1  0  0  0  0  0  0
  183.4150  177.7520  139.9600 C   0  0  0  0  0  2  0  0  0  0  0  0
  181.3330  176.5590  138.9200 C   0  0  2  0  0  3  0  0  0  0  0  0
  180.1750  178.7730  141.6400 C   0  0  0  0  0  3  0  0  0  0  0  0
  180.8050  180.8930  136.2730 C   0  0  0  0  0  3  0  0  0  0  0  0
  182.4460  178.2090  141.0020 C   0  0  0  0  0  0  0  0  0  0  0  0
  182.9030  178.6280  142.2540 C   0  0  0  0  0  3  0  0  0  0  0  0
  180.8620  176.1090  137.5320 C   0  0  0  0  0  2  0  0  0  0  0  0
  180.8840  178.5610  136.9240 C   0  0  0  0  0  0  0  0  0  0  0  0
  180.9490  179.5450  135.9340 C   0  0  0  0  0  3  0  0  0  0  0  0
  184.1640  174.2770  137.9690 O   0  0  0  0  0  0  0  0  0  0  0  0
  184.2340  175.3650  137.3390 C   0  0  0  0  0  0  0  0  0  0  0  0
  183.5950  176.5400  137.8450 N   0  0  0  0  0  2  0  0  0  0  0  0
  185.6850  172.8840  134.6900 C   0  0  1  0  0  3  0  0  0  0  0  0
  184.1790  174.8360  134.9040 C   0  0  0  0  0  2  0  0  0  0  0  0
  187.2540  175.2950  136.8500 O   0  0  0  0  0  0  0  0  0  0  0  0
  185.7890  171.3750  134.7300 C   0  0  0  0  0  1  0  0  0  0  0  0
  184.2390  173.3130  134.8940 C   0  0  0  0  0  2  0  0  0  0  0  0
  186.3340  174.7370  136.1980 C   0  0  0  0  0  0  0  0  0  0  0  0
  185.0020  175.4220  136.0560 C   0  0  2  0  0  3  0  0  0  0  0  0
  186.5370  173.4510  135.6840 O   0  0  0  0  0  0  0  0  0  0  0  0
  1  6  1  0  0  0  0
  1  9  1  0  0  0  0
  2  3  1  6  0  0  0
  2  5  1  0  0  0  0
  3  7  1  0  0  0  0
  4 11  1  0  0  0  0
  4  7  2  0  0  0  0
  5 16  2  0  0  0  0
  5 14  1  0  0  0  0
  8 23  1  6  0  0  0
  8 12  1  0  0  0  0
 10 19  1  0  0  0  0
 10 18  1  0  0  0  0
 12 16  1  0  0  0  0
 13 18  1  6  0  0  0
 13  8  1  0  0  0  0
 13  2  1  0  0  0  0
 14  1  2  0  0  0  0
 15  4  1  0  0  0  0
 16 17  1  0  0  0  0
 17  6  2  0  0  0  0
 19  3  2  0  0  0  0
 20 15  2  0  0  0  0
 20 19  1  0  0  0  0
 22 23  1  0  0  0  0
 22 21  2  0  0  0  0
 24 27  1  1  0  0  0
 24 28  1  0  0  0  0
 24 31  1  0  0  0  0
 25 30  1  0  0  0  0
 28 25  1  0  0  0  0
 29 26  2  0  0  0  0
 30 29  1  0  0  0  0
 30 22  1  1  0  0  0
 31 29  1  0  0  0  0
M  END
>  <MODEL>
9

>  <REMARK>
 VINA RESULT:      -5.3      2.421      2.848
  Name = 
  2 active torsions:
  status: ('A' for Active; 'I' for Inactive)
    1  A    between atoms: C_5  and  C_30
    2  A    between atoms: C_10  and  N_16
                            x       y       z     vdW  Elec       q    Type
                         _______ _______ _______ _____ _____    ______ ____

>  <TORSDO>
F 2

$$$$
