=
 OpenBabel11122412113D

 34 41  0  0  1  0  0  0  0  0999 V2000
  187.5900  178.2020  140.2650 C   0  0  0  0  0  0  0  0  0  0  0  0
  185.6060  178.6820  138.7960 C   0  0  0  0  0  2  0  0  0  0  0  0
  190.6030  177.9720  145.3510 C   0  0  2  0  0  3  0  0  0  0  0  0
  188.9870  176.8100  141.7050 C   0  0  0  0  0  0  0  0  0  0  0  0
  188.5430  176.7340  144.2300 C   0  0  1  0  0  3  0  0  0  0  0  0
  189.5810  178.9390  143.7670 O   0  0  0  0  0  0  0  0  0  0  0  0
  190.8880  179.0020  144.2820 C   0  0  0  0  0  2  0  0  0  0  0  0
  191.6180  176.2850  143.6860 C   0  0  0  0  0  2  0  0  0  0  0  0
  185.3850  179.2320  141.1630 C   0  0  2  0  0  3  0  0  0  0  0  0
  182.6180  178.2260  142.3840 C   0  0  0  0  0  2  0  0  0  0  0  0
  187.0820  176.9990  143.8820 C   0  0  0  0  0  2  0  0  0  0  0  0
  190.5150  175.3540  143.2330 C   0  0  0  0  0  2  0  0  0  0  0  0
  185.5000  178.1570  142.2650 C   0  0  1  0  0  3  0  0  0  0  0  0
  184.2360  179.2930  138.9870 C   0  0  0  0  0  2  0  0  0  0  0  0
  189.1870  176.0730  143.0070 C   0  0  2  0  0  3  0  0  0  0  0  0
  191.4030  176.6760  145.1430 C   0  0  0  0  0  2  0  0  0  0  0  0
  182.9800  178.2060  140.8870 C   0  0  1  0  0  3  0  0  0  0  0  0
  187.8370  177.6210  141.5270 C   0  0  0  0  0  0  0  0  0  0  0  0
  189.2060  178.0280  144.7690 C   0  0  2  0  0  3  0  0  0  0  0  0
  186.9520  177.9840  142.7050 C   0  0  2  0  0  3  0  0  0  0  0  0
  189.6140  177.1800  139.3920 C   0  0  0  0  0  3  0  0  0  0  0  0
  183.4030  179.1430  143.1010 O   0  0  0  0  0  0  0  0  0  0  0  0
  189.8510  176.5820  140.6280 C   0  0  0  0  0  3  0  0  0  0  0  0
  184.5890  178.4820  143.4690 C   0  0  0  0  0  2  0  0  0  0  0  0
  183.9950  179.3030  140.4860 C   0  0  1  0  0  3  0  0  0  0  0  0
  188.4930  177.9870  139.2150 C   0  0  0  0  0  3  0  0  0  0  0  0
  186.3990  179.0990  140.0190 C   0  0  1  0  0  3  0  0  0  0  0  0
  183.4450  176.9340  140.5360 O   0  0  0  0  0  0  0  0  0  0  0  0
  182.3390  176.2790  139.9880 C   0  0  0  0  0  2  0  0  0  0  0  0
  183.3430  175.0650  136.7000 C   0  0  0  0  0  2  0  0  0  0  0  0
  181.2200  175.6720  138.0310 C   0  0  0  0  0  2  0  0  0  0  0  0
  182.4290  176.2980  138.5390 N   0  0  0  0  0  0  0  0  0  0  0  0
  181.5610  174.9620  136.3920 S   0  0  0  0  0  0  0  0  0  0  0  0
  183.5200  175.4200  138.1560 C   0  0  0  0  0  2  0  0  0  0  0  0
  1 18  1  0  0  0  0
  2 14  1  0  0  0  0
  2 27  1  0  0  0  0
  3  7  1  6  0  0  0
  4 15  1  0  0  0  0
  5 11  1  6  0  0  0
  5 19  1  0  0  0  0
  6  7  1  0  0  0  0
  6 19  1  0  0  0  0
  8 16  1  0  0  0  0
  9 13  1  0  0  0  0
 10 22  1  0  0  0  0
 12  8  1  0  0  0  0
 13 20  1  0  0  0  0
 13 24  1  0  0  0  0
 14 25  1  0  0  0  0
 15 12  1  0  0  0  0
 15  5  1  0  0  0  0
 16  3  1  0  0  0  0
 17 10  1  0  0  0  0
 18  4  2  0  0  0  0
 18 20  1  0  0  0  0
 19  3  1  0  0  0  0
 20 11  1  0  0  0  0
 21 23  2  0  0  0  0
 22 24  1  0  0  0  0
 23  4  1  0  0  0  0
 25 17  1  0  0  0  0
 25  9  1  0  0  0  0
 26 21  1  0  0  0  0
 26  1  2  0  0  0  0
 27  1  1  0  0  0  0
 27  9  1  0  0  0  0
 28 17  1  0  0  0  0
 29 28  1  0  0  0  0
 30 34  1  0  0  0  0
 31 32  1  0  0  0  0
 32 29  1  0  0  0  0
 33 30  1  0  0  0  0
 33 31  1  0  0  0  0
 34 32  1  0  0  0  0
M  END
>  <MODEL>
1

>  <REMARK>
 VINA RESULT:      -7.9      0.000      0.000
  Name = 
  3 active torsions:
  status: ('A' for Active; 'I' for Inactive)
    1  A    between atoms: C_17  and  O_28
    2  A    between atoms: O_28  and  C_29
    3  A    between atoms: C_29  and  N_32
                            x       y       z     vdW  Elec       q    Type
                         _______ _______ _______ _____ _____    ______ ____

>  <TORSDO>
F 3

$$$$
=
 OpenBabel11122412113D

 34 41  0  0  1  0  0  0  0  0999 V2000
  186.3120  176.0860  135.1130 C   0  0  0  0  0  0  0  0  0  0  0  0
  188.4130  177.4320  134.7920 C   0  0  0  0  0  2  0  0  0  0  0  0
  183.1460  171.1930  136.1280 C   0  0  2  0  0  3  0  0  0  0  0  0
  184.4910  175.1130  136.4170 C   0  0  0  0  0  0  0  0  0  0  0  0
  184.7740  172.7940  137.4750 C   0  0  1  0  0  3  0  0  0  0  0  0
  184.4870  172.4220  135.0400 O   0  0  0  0  0  0  0  0  0  0  0  0
  183.2400  171.8330  134.7610 C   0  0  0  0  0  2  0  0  0  0  0  0
  181.7390  173.2610  136.7560 C   0  0  0  0  0  2  0  0  0  0  0  0
  188.6840  175.0370  135.1720 C   0  0  2  0  0  3  0  0  0  0  0  0
  190.9500  174.4040  137.3220 C   0  0  0  0  0  2  0  0  0  0  0  0
  186.2610  173.1250  137.5660 C   0  0  0  0  0  2  0  0  0  0  0  0
  182.5220  174.0690  137.7660 C   0  0  0  0  0  2  0  0  0  0  0  0
  188.1940  174.3560  136.4680 C   0  0  1  0  0  3  0  0  0  0  0  0
  189.8940  177.1340  134.7280 C   0  0  0  0  0  2  0  0  0  0  0  0
  184.0160  174.1250  137.4530 C   0  0  2  0  0  3  0  0  0  0  0  0
  181.9970  171.7740  136.9670 C   0  0  0  0  0  2  0  0  0  0  0  0
  190.6670  175.7940  136.7230 C   0  0  1  0  0  3  0  0  0  0  0  0
  185.8410  175.0810  135.9840 C   0  0  0  0  0  0  0  0  0  0  0  0
  184.5180  171.8110  136.3050 C   0  0  2  0  0  3  0  0  0  0  0  0
  186.7410  173.9080  136.3290 C   0  0  2  0  0  3  0  0  0  0  0  0
  184.1140  177.1210  135.1120 C   0  0  0  0  0  3  0  0  0  0  0  0
  190.4530  173.3710  136.5110 O   0  0  0  0  0  0  0  0  0  0  0  0
  183.6490  176.1460  135.9910 C   0  0  0  0  0  3  0  0  0  0  0  0
  189.1050  173.1730  136.8640 C   0  0  0  0  0  2  0  0  0  0  0  0
  190.0580  175.7380  135.3020 C   0  0  1  0  0  3  0  0  0  0  0  0
  185.4360  177.0880  134.6740 C   0  0  0  0  0  3  0  0  0  0  0  0
  187.7310  176.0920  134.5940 C   0  0  1  0  0  3  0  0  0  0  0  0
  189.8500  176.5220  137.5940 O   0  0  0  0  0  0  0  0  0  0  0  0
  190.4540  176.4000  138.8490 C   0  0  0  0  0  2  0  0  0  0  0  0
  187.9580  178.4010  140.5970 C   0  0  0  0  0  2  0  0  0  0  0  0
  190.0240  176.9380  141.0800 C   0  0  0  0  0  2  0  0  0  0  0  0
  189.9780  177.4580  139.7240 N   0  0  0  0  0  0  0  0  0  0  0  0
  188.7890  177.8070  142.0930 S   0  0  0  0  0  0  0  0  0  0  0  0
  188.5730  177.6700  139.4290 C   0  0  0  0  0  2  0  0  0  0  0  0
  1 18  1  0  0  0  0
  3  7  1  6  0  0  0
  3 19  1  0  0  0  0
  3 16  1  0  0  0  0
  4 15  1  0  0  0  0
  5 11  1  6  0  0  0
  6 19  1  0  0  0  0
  7  6  1  0  0  0  0
  8 16  1  0  0  0  0
  8 12  1  0  0  0  0
  9 25  1  0  0  0  0
  9 13  1  0  0  0  0
 13 24  1  0  0  0  0
 14  2  1  0  0  0  0
 14 25  1  0  0  0  0
 15  5  1  0  0  0  0
 15 12  1  0  0  0  0
 17 10  1  0  0  0  0
 17 28  1  0  0  0  0
 18 20  1  0  0  0  0
 18  4  2  0  0  0  0
 19  5  1  0  0  0  0
 20 13  1  0  0  0  0
 20 11  1  0  0  0  0
 21 23  2  0  0  0  0
 22 24  1  0  0  0  0
 22 10  1  0  0  0  0
 23  4  1  0  0  0  0
 25 17  1  0  0  0  0
 26 21  1  0  0  0  0
 26  1  2  0  0  0  0
 27  2  1  0  0  0  0
 27  1  1  0  0  0  0
 27  9  1  0  0  0  0
 28 29  1  0  0  0  0
 29 32  1  0  0  0  0
 30 33  1  0  0  0  0
 31 33  1  0  0  0  0
 32 31  1  0  0  0  0
 34 32  1  0  0  0  0
 34 30  1  0  0  0  0
M  END
>  <MODEL>
2

>  <REMARK>
 VINA RESULT:      -6.3      4.351      9.030
  Name = 
  3 active torsions:
  status: ('A' for Active; 'I' for Inactive)
    1  A    between atoms: C_17  and  O_28
    2  A    between atoms: O_28  and  C_29
    3  A    between atoms: C_29  and  N_32
                            x       y       z     vdW  Elec       q    Type
                         _______ _______ _______ _____ _____    ______ ____

>  <TORSDO>
F 3

$$$$
=
 OpenBabel11122412113D

 34 41  0  0  1  0  0  0  0  0999 V2000
  185.8180  178.4090  139.5210 C   0  0  0  0  0  0  0  0  0  0  0  0
  188.1250  177.6050  138.9250 C   0  0  0  0  0  2  0  0  0  0  0  0
  180.2680  180.1510  138.4430 C   0  0  2  0  0  3  0  0  0  0  0  0
  183.4730  178.1280  140.1430 C   0  0  0  0  0  0  0  0  0  0  0  0
  181.6840  177.9130  138.3180 C   0  0  1  0  0  3  0  0  0  0  0  0
  182.3800  180.2930  138.3390 O   0  0  0  0  0  0  0  0  0  0  0  0
  181.3590  181.1150  138.8500 C   0  0  0  0  0  2  0  0  0  0  0  0
  180.4310  179.2860  140.8660 C   0  0  0  0  0  2  0  0  0  0  0  0
  186.5890  178.0230  137.0760 C   0  0  2  0  0  3  0  0  0  0  0  0
  186.6070  175.6620  134.9340 C   0  0  0  0  0  2  0  0  0  0  0  0
  182.7740  177.2780  137.4610 C   0  0  0  0  0  2  0  0  0  0  0  0
  180.9710  177.8740  140.8230 C   0  0  0  0  0  2  0  0  0  0  0  0
  185.2590  177.2530  136.9290 C   0  0  1  0  0  3  0  0  0  0  0  0
  188.8810  177.3280  137.6450 C   0  0  0  0  0  2  0  0  0  0  0  0
  182.0740  177.6920  139.7830 C   0  0  2  0  0  3  0  0  0  0  0  0
  179.5440  179.5420  139.6530 C   0  0  0  0  0  2  0  0  0  0  0  0
  187.5930  175.7930  136.1080 C   0  0  1  0  0  3  0  0  0  0  0  0
  184.4860  178.1250  139.1510 C   0  0  0  0  0  0  0  0  0  0  0  0
  181.4310  179.3730  137.8630 C   0  0  2  0  0  3  0  0  0  0  0  0
  184.1370  177.9630  137.6830 C   0  0  2  0  0  3  0  0  0  0  0  0
  185.1180  178.6980  141.8300 C   0  0  0  0  0  3  0  0  0  0  0  0
  186.0090  176.8910  134.6100 O   0  0  0  0  0  0  0  0  0  0  0  0
  183.8060  178.3950  141.4760 C   0  0  0  0  0  3  0  0  0  0  0  0
  184.8870  177.0450  135.4440 C   0  0  0  0  0  2  0  0  0  0  0  0
  187.8290  177.2570  136.5530 C   0  0  1  0  0  3  0  0  0  0  0  0
  186.1150  178.7090  140.8580 C   0  0  0  0  0  3  0  0  0  0  0  0
  186.9370  178.4500  138.5080 C   0  0  1  0  0  3  0  0  0  0  0  0
  187.1540  175.0060  137.1780 O   0  0  0  0  0  0  0  0  0  0  0  0
  187.6290  173.7200  136.9030 C   0  0  0  0  0  2  0  0  0  0  0  0
  184.1970  172.5600  137.3230 C   0  0  0  0  0  2  0  0  0  0  0  0
  186.2910  172.0930  135.8940 C   0  0  0  0  0  2  0  0  0  0  0  0
  186.5790  172.7480  137.1590 N   0  0  0  0  0  0  0  0  0  0  0  0
  184.5770  171.4870  135.9150 S   0  0  0  0  0  0  0  0  0  0  0  0
  185.3770  173.4840  137.5060 C   0  0  0  0  0  2  0  0  0  0  0  0
  1 26  1  0  0  0  0
  3  7  1  1  0  0  0
  3 16  1  0  0  0  0
  4 23  2  0  0  0  0
  5 11  1  6  0  0  0
  5 15  1  0  0  0  0
  6  7  1  0  0  0  0
  9 27  1  0  0  0  0
 10 17  1  0  0  0  0
 11 20  1  0  0  0  0
 12  8  1  0  0  0  0
 13  9  1  0  0  0  0
 13 20  1  0  0  0  0
 14  2  1  0  0  0  0
 15  4  1  0  0  0  0
 15 12  1  0  0  0  0
 16  8  1  0  0  0  0
 17 25  1  0  0  0  0
 17 28  1  0  0  0  0
 18  1  2  0  0  0  0
 18  4  1  0  0  0  0
 19  5  1  0  0  0  0
 19  6  1  0  0  0  0
 19  3  1  0  0  0  0
 20 18  1  0  0  0  0
 22 10  1  0  0  0  0
 22 24  1  0  0  0  0
 23 21  1  0  0  0  0
 24 13  1  0  0  0  0
 25  9  1  0  0  0  0
 25 14  1  0  0  0  0
 26 21  2  0  0  0  0
 27  2  1  0  0  0  0
 27  1  1  0  0  0  0
 29 32  1  0  0  0  0
 29 28  1  0  0  0  0
 30 34  1  0  0  0  0
 31 33  1  0  0  0  0
 31 32  1  0  0  0  0
 32 34  1  0  0  0  0
 33 30  1  0  0  0  0
M  END
>  <MODEL>
3

>  <REMARK>
 VINA RESULT:      -6.2      3.797      7.393
  Name = 
  3 active torsions:
  status: ('A' for Active; 'I' for Inactive)
    1  A    between atoms: C_17  and  O_28
    2  A    between atoms: O_28  and  C_29
    3  A    between atoms: C_29  and  N_32
                            x       y       z     vdW  Elec       q    Type
                         _______ _______ _______ _____ _____    ______ ____

>  <TORSDO>
F 3

$$$$
=
 OpenBabel11122412113D

 34 41  0  0  1  0  0  0  0  0999 V2000
  188.1020  177.0520  138.2610 C   0  0  0  0  0  0  0  0  0  0  0  0
  186.9960  178.2650  140.1670 C   0  0  0  0  0  2  0  0  0  0  0  0
  192.6590  175.0780  135.0460 C   0  0  2  0  0  3  0  0  0  0  0  0
  189.0770  175.1080  137.1490 C   0  0  0  0  0  0  0  0  0  0  0  0
  191.5760  174.6010  137.4190 C   0  0  1  0  0  3  0  0  0  0  0  0
  191.4180  176.5630  135.9100 O   0  0  0  0  0  0  0  0  0  0  0  0
  191.7780  176.2200  134.5940 C   0  0  0  0  0  2  0  0  0  0  0  0
  190.5960  173.5980  134.5940 C   0  0  0  0  0  2  0  0  0  0  0  0
  189.4330  178.3360  140.0790 C   0  0  2  0  0  3  0  0  0  0  0  0
  190.7610  177.7430  142.9160 C   0  0  0  0  0  2  0  0  0  0  0  0
  191.4600  175.2550  138.7920 C   0  0  0  0  0  2  0  0  0  0  0  0
  190.1090  173.0560  135.9190 C   0  0  0  0  0  2  0  0  0  0  0  0
  190.2910  177.0540  140.1540 C   0  0  1  0  0  3  0  0  0  0  0  0
  187.4600  179.1140  141.3290 C   0  0  0  0  0  2  0  0  0  0  0  0
  190.1820  174.0870  137.0450 C   0  0  2  0  0  3  0  0  0  0  0  0
  192.1160  173.7100  134.6030 C   0  0  0  0  0  2  0  0  0  0  0  0
  189.2560  177.9590  142.6760 C   0  0  1  0  0  3  0  0  0  0  0  0
  189.1920  176.1760  138.0750 C   0  0  0  0  0  0  0  0  0  0  0  0
  192.2670  175.5680  136.4250 C   0  0  2  0  0  3  0  0  0  0  0  0
  190.5140  176.4710  138.7600 C   0  0  2  0  0  3  0  0  0  0  0  0
  186.8180  175.8090  136.6150 C   0  0  0  0  0  3  0  0  0  0  0  0
  191.5410  178.2870  141.8820 O   0  0  0  0  0  0  0  0  0  0  0  0
  187.8810  174.9260  136.4440 C   0  0  0  0  0  3  0  0  0  0  0  0
  191.6340  177.3130  140.8700 C   0  0  0  0  0  2  0  0  0  0  0  0
  188.9520  178.8600  141.4540 C   0  0  1  0  0  3  0  0  0  0  0  0
  186.9310  176.8670  137.5150 C   0  0  0  0  0  3  0  0  0  0  0  0
  188.1730  178.2240  139.2120 C   0  0  1  0  0  3  0  0  0  0  0  0
  188.6180  176.7200  142.5610 O   0  0  0  0  0  0  0  0  0  0  0  0
  188.2960  176.3520  143.8700 C   0  0  0  0  0  2  0  0  0  0  0  0
  185.8530  178.3970  145.6430 C   0  0  0  0  0  2  0  0  0  0  0  0
  188.1610  177.3050  145.9980 C   0  0  0  0  0  2  0  0  0  0  0  0
  187.8200  177.5140  144.6000 N   0  0  0  0  0  0  0  0  0  0  0  0
  186.9950  178.2320  147.0390 S   0  0  0  0  0  0  0  0  0  0  0  0
  186.3700  177.5040  144.5420 C   0  0  0  0  0  2  0  0  0  0  0  0
  1 27  1  0  0  0  0
  2 14  1  0  0  0  0
  3  7  1  6  0  0  0
  3 19  1  0  0  0  0
  4 18  2  0  0  0  0
  5 11  1  1  0  0  0
  6 19  1  0  0  0  0
  7  6  1  0  0  0  0
  8 16  1  0  0  0  0
  8 12  1  0  0  0  0
  9 13  1  0  0  0  0
  9 25  1  0  0  0  0
 12 15  1  0  0  0  0
 13 24  1  0  0  0  0
 14 25  1  0  0  0  0
 15  4  1  0  0  0  0
 15  5  1  0  0  0  0
 16  3  1  0  0  0  0
 17 10  1  0  0  0  0
 18  1  1  0  0  0  0
 18 20  1  0  0  0  0
 19  5  1  0  0  0  0
 20 11  1  0  0  0  0
 20 13  1  0  0  0  0
 21 26  1  0  0  0  0
 22 10  1  0  0  0  0
 23 21  2  0  0  0  0
 23  4  1  0  0  0  0
 24 22  1  0  0  0  0
 25 17  1  0  0  0  0
 26  1  2  0  0  0  0
 27  9  1  0  0  0  0
 27  2  1  0  0  0  0
 28 17  1  0  0  0  0
 28 29  1  0  0  0  0
 29 32  1  0  0  0  0
 30 33  1  0  0  0  0
 31 33  1  0  0  0  0
 32 31  1  0  0  0  0
 34 32  1  0  0  0  0
 34 30  1  0  0  0  0
M  END
>  <MODEL>
4

>  <REMARK>
 VINA RESULT:      -6.0      4.241      7.316
  Name = 
  3 active torsions:
  status: ('A' for Active; 'I' for Inactive)
    1  A    between atoms: C_17  and  O_28
    2  A    between atoms: O_28  and  C_29
    3  A    between atoms: C_29  and  N_32
                            x       y       z     vdW  Elec       q    Type
                         _______ _______ _______ _____ _____    ______ ____

>  <TORSDO>
F 3

$$$$
=
 OpenBabel11122412113D

 34 41  0  0  1  0  0  0  0  0999 V2000
  190.0000  177.7550  139.0130 C   0  0  0  0  0  0  0  0  0  0  0  0
  189.0050  177.9190  136.7080 C   0  0  0  0  0  2  0  0  0  0  0  0
  190.1680  178.5050  144.8780 C   0  0  2  0  0  3  0  0  0  0  0  0
  190.4350  176.6750  141.1590 C   0  0  0  0  0  0  0  0  0  0  0  0
  188.8260  177.0390  143.1230 C   0  0  1  0  0  3  0  0  0  0  0  0
  190.1020  179.1500  142.8610 O   0  0  0  0  0  0  0  0  0  0  0  0
  191.0010  179.3350  143.9280 C   0  0  0  0  0  2  0  0  0  0  0  0
  191.7460  176.5730  144.2230 C   0  0  0  0  0  2  0  0  0  0  0  0
  187.7090  178.8760  138.5400 C   0  0  2  0  0  3  0  0  0  0  0  0
  184.6360  178.0400  138.4120 C   0  0  0  0  0  2  0  0  0  0  0  0
  187.7350  177.2030  142.0700 C   0  0  0  0  0  2  0  0  0  0  0  0
  190.9380  175.5500  143.4550 C   0  0  0  0  0  2  0  0  0  0  0  0
  187.2070  178.0180  139.7210 C   0  0  1  0  0  3  0  0  0  0  0  0
  187.7570  178.5230  136.1050 C   0  0  0  0  0  2  0  0  0  0  0  0
  189.9340  176.1860  142.4960 C   0  0  2  0  0  3  0  0  0  0  0  0
  190.8820  177.2120  145.3040 C   0  0  0  0  0  2  0  0  0  0  0  0
  185.6720  177.7620  137.3070 C   0  0  1  0  0  3  0  0  0  0  0  0
  189.5700  177.4140  140.3120 C   0  0  0  0  0  0  0  0  0  0  0  0
  189.2320  178.4230  143.6910 C   0  0  2  0  0  3  0  0  0  0  0  0
  188.2530  177.9610  140.8330 C   0  0  2  0  0  3  0  0  0  0  0  0
  192.1210  176.6420  139.4170 C   0  0  0  0  0  3  0  0  0  0  0  0
  185.0370  179.0880  139.2560 O   0  0  0  0  0  0  0  0  0  0  0  0
  191.6940  176.2800  140.6920 C   0  0  0  0  0  3  0  0  0  0  0  0
  185.8530  178.5310  140.2580 C   0  0  0  0  0  2  0  0  0  0  0  0
  186.8250  178.7930  137.2730 C   0  0  1  0  0  3  0  0  0  0  0  0
  191.2800  177.3780  138.5860 C   0  0  0  0  0  3  0  0  0  0  0  0
  189.1370  178.5660  138.0730 C   0  0  1  0  0  3  0  0  0  0  0  0
  186.1630  176.4590  137.4440 O   0  0  0  0  0  0  0  0  0  0  0  0
  185.1650  175.6350  136.9160 C   0  0  0  0  0  2  0  0  0  0  0  0
  187.8800  173.6400  135.5220 C   0  0  0  0  0  2  0  0  0  0  0  0
  186.0950  173.5440  137.3790 C   0  0  0  0  0  2  0  0  0  0  0  0
  185.7720  174.4660  136.3040 N   0  0  0  0  0  0  0  0  0  0  0  0
  187.4820  172.4880  136.8620 S   0  0  0  0  0  0  0  0  0  0  0  0
  187.0450  174.8780  135.7400 C   0  0  0  0  0  2  0  0  0  0  0  0
  1 18  1  0  0  0  0
  2 27  1  0  0  0  0
  3  7  1  6  0  0  0
  3 16  1  0  0  0  0
  4 15  1  0  0  0  0
  5 11  1  6  0  0  0
  5 19  1  0  0  0  0
  6 19  1  0  0  0  0
  6  7  1  0  0  0  0
  8 16  1  0  0  0  0
  9 13  1  0  0  0  0
 10 22  1  0  0  0  0
 12  8  1  0  0  0  0
 13 24  1  0  0  0  0
 13 20  1  0  0  0  0
 14  2  1  0  0  0  0
 14 25  1  0  0  0  0
 15  5  1  0  0  0  0
 15 12  1  0  0  0  0
 17 28  1  0  0  0  0
 17 10  1  0  0  0  0
 18 20  1  0  0  0  0
 18  4  2  0  0  0  0
 19  3  1  0  0  0  0
 20 11  1  0  0  0  0
 21 23  2  0  0  0  0
 22 24  1  0  0  0  0
 23  4  1  0  0  0  0
 25 17  1  0  0  0  0
 25  9  1  0  0  0  0
 26  1  2  0  0  0  0
 26 21  1  0  0  0  0
 27  9  1  0  0  0  0
 27  1  1  0  0  0  0
 29 28  1  0  0  0  0
 30 34  1  0  0  0  0
 30 33  1  0  0  0  0
 32 29  1  0  0  0  0
 32 31  1  0  0  0  0
 33 31  1  0  0  0  0
 34 32  1  0  0  0  0
M  END
>  <MODEL>
5

>  <REMARK>
 VINA RESULT:      -5.9      2.386      3.323
  Name = 
  3 active torsions:
  status: ('A' for Active; 'I' for Inactive)
    1  A    between atoms: C_17  and  O_28
    2  A    between atoms: O_28  and  C_29
    3  A    between atoms: C_29  and  N_32
                            x       y       z     vdW  Elec       q    Type
                         _______ _______ _______ _____ _____    ______ ____

>  <TORSDO>
F 3

$$$$
=
 OpenBabel11122412113D

 34 41  0  0  1  0  0  0  0  0999 V2000
  185.5140  178.0310  137.5140 C   0  0  0  0  0  0  0  0  0  0  0  0
  187.8640  178.9270  137.5180 C   0  0  0  0  0  2  0  0  0  0  0  0
  181.1750  174.2820  136.0600 C   0  0  2  0  0  3  0  0  0  0  0  0
  183.6630  176.6840  138.3620 C   0  0  0  0  0  0  0  0  0  0  0  0
  183.3650  174.2680  137.5540 C   0  0  1  0  0  3  0  0  0  0  0  0
  182.6760  175.7260  135.6700 O   0  0  0  0  0  0  0  0  0  0  0  0
  181.2850  175.6680  135.4670 C   0  0  0  0  0  2  0  0  0  0  0  0
  180.5460  175.5040  138.2410 C   0  0  0  0  0  2  0  0  0  0  0  0
  187.4470  176.9280  136.1830 C   0  0  2  0  0  3  0  0  0  0  0  0
  189.6690  174.6870  136.6370 C   0  0  0  0  0  2  0  0  0  0  0  0
  184.8810  174.2410  137.3880 C   0  0  0  0  0  2  0  0  0  0  0  0
  181.6560  175.2740  139.2430 C   0  0  0  0  0  2  0  0  0  0  0  0
  186.9420  175.6140  136.8160 C   0  0  1  0  0  3  0  0  0  0  0  0
  189.1670  178.5610  136.8430 C   0  0  0  0  0  2  0  0  0  0  0  0
  183.0460  175.3290  138.6110 C   0  0  2  0  0  3  0  0  0  0  0  0
  180.3690  174.2680  137.3680 C   0  0  0  0  0  2  0  0  0  0  0  0
  189.7450  176.1260  137.1790 C   0  0  1  0  0  3  0  0  0  0  0  0
  184.8750  176.7790  137.6330 C   0  0  0  0  0  0  0  0  0  0  0  0
  182.6800  174.4130  136.1720 C   0  0  2  0  0  3  0  0  0  0  0  0
  185.4150  175.5870  136.8640 C   0  0  2  0  0  3  0  0  0  0  0  0
  183.7470  179.0620  138.8250 C   0  0  0  0  0  3  0  0  0  0  0  0
  188.7860  174.5820  135.5490 O   0  0  0  0  0  0  0  0  0  0  0  0
  183.1240  177.8250  138.9670 C   0  0  0  0  0  3  0  0  0  0  0  0
  187.4970  174.3780  136.0740 C   0  0  0  0  0  2  0  0  0  0  0  0
  188.9730  177.1510  136.3130 C   0  0  1  0  0  3  0  0  0  0  0  0
  184.9320  179.1640  138.0990 C   0  0  0  0  0  3  0  0  0  0  0  0
  186.7920  178.2040  136.7260 C   0  0  1  0  0  3  0  0  0  0  0  0
  189.3000  176.1500  138.5060 O   0  0  0  0  0  0  0  0  0  0  0  0
  190.4480  176.3790  139.2710 C   0  0  0  0  0  2  0  0  0  0  0  0
  188.6010  178.1760  141.8510 C   0  0  0  0  0  2  0  0  0  0  0  0
  190.9150  177.1190  141.4360 C   0  0  0  0  0  2  0  0  0  0  0  0
  190.1960  177.4520  140.2180 N   0  0  0  0  0  0  0  0  0  0  0  0
  190.0880  177.9080  142.8500 S   0  0  0  0  0  0  0  0  0  0  0  0
  188.7880  177.4080  140.5650 C   0  0  0  0  0  2  0  0  0  0  0  0
  1 18  2  0  0  0  0
  1 26  1  0  0  0  0
  3  7  1  6  0  0  0
  3 19  1  0  0  0  0
  3 16  1  0  0  0  0
  4 15  1  0  0  0  0
  4 23  2  0  0  0  0
  5 11  1  6  0  0  0
  5 15  1  0  0  0  0
  6 19  1  0  0  0  0
  7  6  1  0  0  0  0
  8 12  1  0  0  0  0
  9 25  1  0  0  0  0
  9 27  1  0  0  0  0
  9 13  1  0  0  0  0
 10 17  1  0  0  0  0
 13 20  1  0  0  0  0
 14  2  1  0  0  0  0
 15 12  1  0  0  0  0
 16  8  1  0  0  0  0
 17 28  1  0  0  0  0
 18  4  1  0  0  0  0
 19  5  1  0  0  0  0
 20 11  1  0  0  0  0
 20 18  1  0  0  0  0
 21 23  1  0  0  0  0
 22 24  1  0  0  0  0
 22 10  1  0  0  0  0
 24 13  1  0  0  0  0
 25 14  1  0  0  0  0
 25 17  1  0  0  0  0
 26 21  2  0  0  0  0
 27  1  1  0  0  0  0
 27  2  1  0  0  0  0
 28 29  1  0  0  0  0
 29 32  1  0  0  0  0
 30 33  1  0  0  0  0
 31 33  1  0  0  0  0
 32 34  1  0  0  0  0
 32 31  1  0  0  0  0
 34 30  1  0  0  0  0
M  END
>  <MODEL>
6

>  <REMARK>
 VINA RESULT:      -5.7      3.756      8.548
  Name = 
  3 active torsions:
  status: ('A' for Active; 'I' for Inactive)
    1  A    between atoms: C_17  and  O_28
    2  A    between atoms: O_28  and  C_29
    3  A    between atoms: C_29  and  N_32
                            x       y       z     vdW  Elec       q    Type
                         _______ _______ _______ _____ _____    ______ ____

>  <TORSDO>
F 3

$$$$
=
 OpenBabel11122412113D

 34 41  0  0  1  0  0  0  0  0999 V2000
  182.9680  177.8980  140.4170 C   0  0  0  0  0  0  0  0  0  0  0  0
  183.9940  178.7630  142.5450 C   0  0  0  0  0  2  0  0  0  0  0  0
  182.7360  176.7650  134.6160 C   0  0  2  0  0  3  0  0  0  0  0  0
  182.4920  176.2040  138.7240 C   0  0  0  0  0  0  0  0  0  0  0  0
  184.0800  175.9050  136.7330 C   0  0  1  0  0  3  0  0  0  0  0  0
  182.8360  178.0110  136.3260 O   0  0  0  0  0  0  0  0  0  0  0  0
  181.9270  177.8660  135.2620 C   0  0  0  0  0  2  0  0  0  0  0  0
  181.1410  175.1640  135.8580 C   0  0  0  0  0  2  0  0  0  0  0  0
  185.2790  179.0720  140.4940 C   0  0  2  0  0  3  0  0  0  0  0  0
  188.3430  178.2670  140.8560 C   0  0  0  0  0  2  0  0  0  0  0  0
  185.1870  176.3730  137.6720 C   0  0  0  0  0  2  0  0  0  0  0  0
  181.9450  174.4230  136.9030 C   0  0  0  0  0  2  0  0  0  0  0  0
  185.7550  177.8770  139.6400 C   0  0  1  0  0  3  0  0  0  0  0  0
  185.2580  179.5040  142.9170 C   0  0  0  0  0  2  0  0  0  0  0  0
  182.9690  175.3110  137.6050 C   0  0  2  0  0  3  0  0  0  0  0  0
  182.0000  175.4160  134.6240 C   0  0  0  0  0  2  0  0  0  0  0  0
  187.3170  178.3690  142.0000 C   0  0  1  0  0  3  0  0  0  0  0  0
  183.3770  177.1570  139.2880 C   0  0  0  0  0  0  0  0  0  0  0  0
  183.6860  177.0460  135.7610 C   0  0  2  0  0  3  0  0  0  0  0  0
  184.6940  177.4900  138.6120 C   0  0  2  0  0  3  0  0  0  0  0  0
  180.8270  176.7500  140.4000 C   0  0  0  0  0  3  0  0  0  0  0  0
  187.9450  179.0030  139.7280 O   0  0  0  0  0  0  0  0  0  0  0  0
  181.2330  175.9970  139.3010 C   0  0  0  0  0  3  0  0  0  0  0  0
  187.1090  178.1720  138.9590 C   0  0  0  0  0  2  0  0  0  0  0  0
  186.1780  179.3780  141.7170 C   0  0  1  0  0  3  0  0  0  0  0  0
  181.6880  177.6960  140.9510 C   0  0  0  0  0  3  0  0  0  0  0  0
  183.8530  178.9490  141.0470 C   0  0  1  0  0  3  0  0  0  0  0  0
  186.8060  177.0980  142.2840 O   0  0  0  0  0  0  0  0  0  0  0  0
  187.6890  176.5500  143.2190 C   0  0  0  0  0  2  0  0  0  0  0  0
  187.2110  177.7480  146.6300 C   0  0  0  0  0  2  0  0  0  0  0  0
  189.1000  177.1280  144.9880 C   0  0  0  0  0  2  0  0  0  0  0  0
  187.8450  177.4640  144.3370 N   0  0  0  0  0  0  0  0  0  0  0  0
  189.0150  177.6220  146.7360 S   0  0  0  0  0  0  0  0  0  0  0  0
  186.8040  177.1570  145.3020 C   0  0  0  0  0  2  0  0  0  0  0  0
  1 26  1  0  0  0  0
  1 27  1  0  0  0  0
  2 14  1  0  0  0  0
  3 16  1  1  0  0  0
  3  7  1  0  0  0  0
  3 19  1  0  0  0  0
  4 18  1  0  0  0  0
  4 23  2  0  0  0  0
  5 15  1  0  0  0  0
  5 11  1  1  0  0  0
  7  6  1  0  0  0  0
  8 12  1  0  0  0  0
  9 27  1  0  0  0  0
  9 25  1  0  0  0  0
 10 17  1  0  0  0  0
 11 20  1  0  0  0  0
 12 15  1  0  0  0  0
 13  9  1  0  0  0  0
 15  4  1  0  0  0  0
 16  8  1  0  0  0  0
 17 28  1  0  0  0  0
 18  1  2  0  0  0  0
 19  6  1  0  0  0  0
 19  5  1  0  0  0  0
 20 18  1  0  0  0  0
 20 13  1  0  0  0  0
 21 26  2  0  0  0  0
 22 10  1  0  0  0  0
 23 21  1  0  0  0  0
 24 13  1  0  0  0  0
 24 22  1  0  0  0  0
 25 17  1  0  0  0  0
 25 14  1  0  0  0  0
 27  2  1  0  0  0  0
 28 29  1  0  0  0  0
 29 32  1  0  0  0  0
 30 33  1  0  0  0  0
 31 33  1  0  0  0  0
 32 31  1  0  0  0  0
 32 34  1  0  0  0  0
 34 30  1  0  0  0  0
M  END
>  <MODEL>
7

>  <REMARK>
 VINA RESULT:      -5.6      3.271      8.242
  Name = 
  3 active torsions:
  status: ('A' for Active; 'I' for Inactive)
    1  A    between atoms: C_17  and  O_28
    2  A    between atoms: O_28  and  C_29
    3  A    between atoms: C_29  and  N_32
                            x       y       z     vdW  Elec       q    Type
                         _______ _______ _______ _____ _____    ______ ____

>  <TORSDO>
F 3

$$$$
=
 OpenBabel11122412113D

 34 41  0  0  1  0  0  0  0  0999 V2000
  183.6100  178.0480  139.5310 C   0  0  0  0  0  0  0  0  0  0  0  0
  181.5700  179.0990  140.5630 C   0  0  0  0  0  2  0  0  0  0  0  0
  186.5630  174.5780  135.7580 C   0  0  2  0  0  3  0  0  0  0  0  0
  185.4780  177.9270  137.9630 C   0  0  0  0  0  0  0  0  0  0  0  0
  185.1550  176.8230  135.6710 C   0  0  1  0  0  3  0  0  0  0  0  0
  185.2060  174.9830  137.3340 O   0  0  0  0  0  0  0  0  0  0  0  0
  186.3870  174.2280  137.2180 C   0  0  0  0  0  2  0  0  0  0  0  0
  188.1370  176.4300  136.6190 C   0  0  0  0  0  2  0  0  0  0  0  0
  181.1960  177.5100  138.7490 C   0  0  2  0  0  3  0  0  0  0  0  0
  179.0940  178.5930  136.6110 C   0  0  0  0  0  2  0  0  0  0  0  0
  183.7040  177.2850  135.7630 C   0  0  0  0  0  2  0  0  0  0  0  0
  187.4940  177.7660  136.3210 C   0  0  0  0  0  2  0  0  0  0  0  0
  181.7560  177.7440  137.3300 C   0  0  1  0  0  3  0  0  0  0  0  0
  180.0750  178.9770  140.3780 C   0  0  0  0  0  2  0  0  0  0  0  0
  185.9840  177.7630  136.5510 C   0  0  2  0  0  3  0  0  0  0  0  0
  187.8130  175.4370  135.5100 C   0  0  0  0  0  2  0  0  0  0  0  0
  179.4030  179.2650  137.9610 C   0  0  1  0  0  3  0  0  0  0  0  0
  184.0960  177.7670  138.2360 C   0  0  0  0  0  0  0  0  0  0  0  0
  185.2500  175.3040  135.9670 C   0  0  2  0  0  3  0  0  0  0  0  0
  183.1640  177.1650  137.2010 C   0  0  2  0  0  3  0  0  0  0  0  0
  185.8550  178.6280  140.2530 C   0  0  0  0  0  3  0  0  0  0  0  0
  179.4570  177.2360  136.6050 O   0  0  0  0  0  0  0  0  0  0  0  0
  186.3390  178.3760  138.9720 C   0  0  0  0  0  3  0  0  0  0  0  0
  180.8170  177.1680  136.2480 C   0  0  0  0  0  2  0  0  0  0  0  0
  179.8810  178.2720  139.0470 C   0  0  1  0  0  3  0  0  0  0  0  0
  184.5010  178.4600  140.5310 C   0  0  0  0  0  3  0  0  0  0  0  0
  182.1540  177.8700  139.8930 C   0  0  1  0  0  3  0  0  0  0  0  0
  180.3340  180.2910  137.7710 O   0  0  0  0  0  0  0  0  0  0  0  0
  179.9340  180.9330  136.5950 C   0  0  0  0  0  2  0  0  0  0  0  0
  180.8020  184.2500  135.3530 C   0  0  0  0  0  2  0  0  0  0  0  0
  180.8050  182.8840  137.5390 C   0  0  0  0  0  2  0  0  0  0  0  0
  180.8060  182.0660  136.3370 N   0  0  0  0  0  0  0  0  0  0  0  0
  181.1800  184.6040  137.0880 S   0  0  0  0  0  0  0  0  0  0  0  0
  180.1800  182.8750  135.3080 C   0  0  0  0  0  2  0  0  0  0  0  0
  1 27  1  0  0  0  0
  1 26  1  0  0  0  0
  3 16  1  1  0  0  0
  3 19  1  0  0  0  0
  3  7  1  0  0  0  0
  4 18  1  0  0  0  0
  4 23  2  0  0  0  0
  5 11  1  1  0  0  0
  5 19  1  0  0  0  0
  5 15  1  0  0  0  0
  7  6  1  0  0  0  0
  9 25  1  0  0  0  0
  9 27  1  0  0  0  0
 10 17  1  0  0  0  0
 11 20  1  0  0  0  0
 12 15  1  0  0  0  0
 12  8  1  0  0  0  0
 13  9  1  0  0  0  0
 14  2  1  0  0  0  0
 15  4  1  0  0  0  0
 16  8  1  0  0  0  0
 17 25  1  0  0  0  0
 18  1  2  0  0  0  0
 19  6  1  0  0  0  0
 20 13  1  0  0  0  0
 20 18  1  0  0  0  0
 21 26  2  0  0  0  0
 22 10  1  0  0  0  0
 23 21  1  0  0  0  0
 24 22  1  0  0  0  0
 24 13  1  0  0  0  0
 25 14  1  0  0  0  0
 27  2  1  0  0  0  0
 28 17  1  0  0  0  0
 29 28  1  0  0  0  0
 30 33  1  0  0  0  0
 32 29  1  0  0  0  0
 32 31  1  0  0  0  0
 33 31  1  0  0  0  0
 34 30  1  0  0  0  0
 34 32  1  0  0  0  0
M  END
>  <MODEL>
8

>  <REMARK>
 VINA RESULT:      -5.5      4.587      7.213
  Name = 
  3 active torsions:
  status: ('A' for Active; 'I' for Inactive)
    1  A    between atoms: C_17  and  O_28
    2  A    between atoms: O_28  and  C_29
    3  A    between atoms: C_29  and  N_32
                            x       y       z     vdW  Elec       q    Type
                         _______ _______ _______ _____ _____    ______ ____

>  <TORSDO>
F 3

$$$$
=
 OpenBabel11122412113D

 34 41  0  0  1  0  0  0  0  0999 V2000
  185.6920  178.5590  139.5620 C   0  0  0  0  0  0  0  0  0  0  0  0
  187.9930  177.8260  138.8560 C   0  0  0  0  0  2  0  0  0  0  0  0
  180.0400  180.1060  138.7480 C   0  0  2  0  0  3  0  0  0  0  0  0
  183.3920  178.2060  140.3010 C   0  0  0  0  0  0  0  0  0  0  0  0
  181.5220  177.9150  138.5700 C   0  0  1  0  0  3  0  0  0  0  0  0
  182.1390  180.3170  138.5380 O   0  0  0  0  0  0  0  0  0  0  0  0
  181.1170  181.1100  139.0940 C   0  0  0  0  0  2  0  0  0  0  0  0
  180.3520  179.2690  141.1670 C   0  0  0  0  0  2  0  0  0  0  0  0
  186.3540  178.1760  137.0830 C   0  0  2  0  0  3  0  0  0  0  0  0
  186.3440  175.7980  134.9610 C   0  0  0  0  0  2  0  0  0  0  0  0
  182.5900  177.3080  137.6640 C   0  0  0  0  0  2  0  0  0  0  0  0
  180.9360  177.8750  141.1070 C   0  0  0  0  0  2  0  0  0  0  0  0
  185.0450  177.3620  137.0080 C   0  0  1  0  0  3  0  0  0  0  0  0
  188.6930  177.5630  137.5420 C   0  0  0  0  0  2  0  0  0  0  0  0
  181.9920  177.7200  140.0150 C   0  0  2  0  0  3  0  0  0  0  0  0
  179.3980  179.4840  139.9980 C   0  0  0  0  0  2  0  0  0  0  0  0
  187.3830  175.9730  136.0840 C   0  0  1  0  0  3  0  0  0  0  0  0
  184.3540  178.2280  139.2600 C   0  0  0  0  0  0  0  0  0  0  0  0
  181.1980  179.3610  138.1170 C   0  0  2  0  0  3  0  0  0  0  0  0
  183.9380  178.0400  137.8130 C   0  0  2  0  0  3  0  0  0  0  0  0
  185.0980  178.8450  141.9000 C   0  0  0  0  0  3  0  0  0  0  0  0
  185.6910  177.0040  134.6580 O   0  0  0  0  0  0  0  0  0  0  0  0
  183.7810  178.4950  141.6140 C   0  0  0  0  0  3  0  0  0  0  0  0
  184.6060  177.1280  135.5460 C   0  0  0  0  0  2  0  0  0  0  0  0
  187.5910  177.4470  136.5050 C   0  0  1  0  0  3  0  0  0  0  0  0
  186.0450  178.8800  140.8790 C   0  0  0  0  0  3  0  0  0  0  0  0
  186.7580  178.6280  138.4930 C   0  0  1  0  0  3  0  0  0  0  0  0
  187.0240  175.1810  137.1800 O   0  0  0  0  0  0  0  0  0  0  0  0
  187.5100  173.9040  136.8820 C   0  0  0  0  0  2  0  0  0  0  0  0
  191.0980  173.4080  136.4690 C   0  0  0  0  0  2  0  0  0  0  0  0
  188.8730  172.9200  135.2620 C   0  0  0  0  0  2  0  0  0  0  0  0
  188.7950  174.0140  136.2140 N   0  0  0  0  0  0  0  0  0  0  0  0
  190.6200  172.5060  134.9720 S   0  0  0  0  0  0  0  0  0  0  0  0
  189.8250  173.7530  137.2030 C   0  0  0  0  0  2  0  0  0  0  0  0
  1 26  1  0  0  0  0
  3  7  1  1  0  0  0
  3 16  1  0  0  0  0
  4 23  2  0  0  0  0
  5 11  1  6  0  0  0
  5 15  1  0  0  0  0
  6  7  1  0  0  0  0
  9 27  1  0  0  0  0
 10 17  1  0  0  0  0
 11 20  1  0  0  0  0
 12  8  1  0  0  0  0
 13  9  1  0  0  0  0
 13 20  1  0  0  0  0
 14  2  1  0  0  0  0
 15  4  1  0  0  0  0
 15 12  1  0  0  0  0
 16  8  1  0  0  0  0
 17 25  1  0  0  0  0
 17 28  1  0  0  0  0
 18  1  2  0  0  0  0
 18  4  1  0  0  0  0
 19  6  1  0  0  0  0
 19  5  1  0  0  0  0
 19  3  1  0  0  0  0
 20 18  1  0  0  0  0
 22 10  1  0  0  0  0
 22 24  1  0  0  0  0
 23 21  1  0  0  0  0
 24 13  1  0  0  0  0
 25  9  1  0  0  0  0
 25 14  1  0  0  0  0
 26 21  2  0  0  0  0
 27  2  1  0  0  0  0
 27  1  1  0  0  0  0
 29 28  1  0  0  0  0
 30 34  1  0  0  0  0
 31 32  1  0  0  0  0
 32 29  1  0  0  0  0
 32 34  1  0  0  0  0
 33 31  1  0  0  0  0
 33 30  1  0  0  0  0
M  END
>  <MODEL>
9

>  <REMARK>
 VINA RESULT:      -5.5      4.163      7.769
  Name = 
  3 active torsions:
  status: ('A' for Active; 'I' for Inactive)
    1  A    between atoms: C_17  and  O_28
    2  A    between atoms: O_28  and  C_29
    3  A    between atoms: C_29  and  N_32
                            x       y       z     vdW  Elec       q    Type
                         _______ _______ _______ _____ _____    ______ ____

>  <TORSDO>
F 3

$$$$
