=
 OpenBabel11122411583D

 28 32  0  0  1  0  0  0  0  0999 V2000
  179.6910  179.7800  139.3310 C   0  0  0  0  0  0  0  0  0  0  0  0
  181.7250  175.8560  137.0460 F   0  0  0  0  0  0  0  0  0  0  0  0
  184.0090  178.1620  142.3600 O   0  0  0  0  0  1  0  0  0  0  0  0
  180.8920  182.0040  138.1220 C   0  0  0  0  0  3  0  0  0  0  0  0
  184.5160  178.8770  140.1620 C   0  0  1  0  0  3  0  0  0  0  0  0
  179.0620  178.6120  140.0300 C   0  0  0  0  0  2  0  0  0  0  0  0
  180.7690  177.4780  135.6180 C   0  0  0  0  0  1  0  0  0  0  0  0
  182.0150  177.0210  136.3530 C   0  0  1  0  0  0  0  0  0  0  0  0
  184.3610  176.5900  135.8150 C   0  0  0  0  0  0  0  0  0  0  0  0
  182.4820  178.1210  137.3250 C   0  0  2  0  0  3  0  0  0  0  0  0
  180.5890  180.4500  142.2080 O   0  0  0  0  0  1  0  0  0  0  0  0
  182.3680  177.8340  139.7730 C   0  0  1  0  0  3  0  0  0  0  0  0
  184.6980  176.7610  137.2590 C   0  0  0  0  0  2  0  0  0  0  0  0
  183.0400  176.7550  135.4000 O   0  0  0  0  0  0  0  0  0  0  0  0
  180.2380  179.1000  142.2950 C   0  0  2  0  0  3  0  0  0  0  0  0
  180.9040  179.6230  138.6260 C   0  0  0  0  0  0  0  0  0  0  0  0
  183.6080  179.0550  141.3570 C   0  0  1  0  0  3  0  0  0  0  0  0
  185.2540  176.2810  134.9840 O   0  0  0  0  0  0  0  0  0  0  0  0
  181.4020  178.1780  141.9230 C   0  0  0  0  0  2  0  0  0  0  0  0
  181.5050  180.7520  138.0450 C   0  0  0  0  0  3  0  0  0  0  0  0
  179.0750  181.0360  139.3900 C   0  0  0  0  0  3  0  0  0  0  0  0
  179.6730  182.1450  138.7870 C   0  0  0  0  0  3  0  0  0  0  0  0
  178.9320  178.8150  141.5430 C   0  0  0  0  0  2  0  0  0  0  0  0
  183.8270  177.7770  139.3660 C   0  0  1  0  0  3  0  0  0  0  0  0
  182.2420  178.7770  140.8840 N   0  0  2  0  0  0  0  0  0  0  0  0
  183.9190  177.9390  137.8560 C   0  0  2  0  0  3  0  0  0  0  0  0
  184.5580  180.0790  139.4460 O   0  0  0  0  0  1  0  0  0  0  0  0
  181.5630  178.2590  138.5360 C   0  0  1  0  0  3  0  0  0  0  0  0
  1 21  1  0  0  0  0
  1  6  1  0  0  0  0
  4 22  1  0  0  0  0
  5 27  1  6  0  0  0
  5 17  1  0  0  0  0
  6 23  1  0  0  0  0
  8  7  1  6  0  0  0
  8  2  1  0  0  0  0
  8 10  1  0  0  0  0
  9 13  1  0  0  0  0
 10 26  1  0  0  0  0
 10 28  1  0  0  0  0
 11 15  1  0  0  0  0
 12 25  1  0  0  0  0
 13 26  1  0  0  0  0
 14  9  1  0  0  0  0
 14  8  1  0  0  0  0
 16  1  2  0  0  0  0
 17  3  1  0  0  0  0
 18  9  2  0  0  0  0
 19 15  1  0  0  0  0
 20  4  2  0  0  0  0
 20 16  1  0  0  0  0
 22 21  2  0  0  0  0
 23 15  1  0  0  0  0
 24 12  1  0  0  0  0
 24  5  1  0  0  0  0
 25 17  1  0  0  0  0
 25 19  1  0  0  0  0
 26 24  1  0  0  0  0
 28 16  1  0  0  0  0
 28 12  1  0  0  0  0
M  END
>  <MODEL>
1

>  <REMARK>
 VINA RESULT:      -5.6      0.000      0.000
  Name = 
  0 active torsions:
  status: ('A' for Active; 'I' for Inactive)
                            x       y       z     vdW  Elec       q    Type
                         _______ _______ _______ _____ _____    ______ ____

>  <TORSDO>
F 0

$$$$
=
 OpenBabel11122411583D

 28 32  0  0  1  0  0  0  0  0999 V2000
  180.1700  179.0700  141.6230 C   0  0  0  0  0  0  0  0  0  0  0  0
  181.4870  175.1980  138.7900 F   0  0  0  0  0  0  0  0  0  0  0  0
  185.6610  178.6160  141.8990 O   0  0  0  0  0  1  0  0  0  0  0  0
  180.0600  181.2390  139.8520 C   0  0  0  0  0  3  0  0  0  0  0  0
  184.7810  179.0540  139.7450 C   0  0  1  0  0  3  0  0  0  0  0  0
  180.2620  177.9420  142.6060 C   0  0  0  0  0  2  0  0  0  0  0  0
  179.6080  176.4160  138.0330 C   0  0  0  0  0  1  0  0  0  0  0  0
  181.1180  176.2730  137.9950 C   0  0  1  0  0  0  0  0  0  0  0  0
  182.8670  176.1270  136.2920 C   0  0  0  0  0  0  0  0  0  0  0  0
  181.7780  177.5680  138.5050 C   0  0  2  0  0  3  0  0  0  0  0  0
  182.2720  180.3050  143.5170 O   0  0  0  0  0  1  0  0  0  0  0  0
  183.0230  177.6470  140.6340 C   0  0  1  0  0  3  0  0  0  0  0  0
  183.8620  176.5680  137.3120 C   0  0  0  0  0  2  0  0  0  0  0  0
  181.5230  176.0230  136.6530 O   0  0  0  0  0  0  0  0  0  0  0  0
  182.3130  178.9470  143.8450 C   0  0  2  0  0  3  0  0  0  0  0  0
  180.8370  178.9940  140.3820 C   0  0  0  0  0  0  0  0  0  0  0  0
  184.6170  179.2730  141.2320 C   0  0  1  0  0  3  0  0  0  0  0  0
  183.2350  175.8350  135.1260 O   0  0  0  0  0  0  0  0  0  0  0  0
  183.2760  178.1670  142.9450 C   0  0  0  0  0  2  0  0  0  0  0  0
  180.7910  180.0990  139.5140 C   0  0  0  0  0  3  0  0  0  0  0  0
  179.4260  180.2120  141.9470 C   0  0  0  0  0  3  0  0  0  0  0  0
  179.3700  181.2920  141.0650 C   0  0  0  0  0  3  0  0  0  0  0  0
  180.9020  178.3540  143.9360 C   0  0  0  0  0  2  0  0  0  0  0  0
  184.0290  177.7520  139.5040 C   0  0  1  0  0  3  0  0  0  0  0  0
  183.3000  178.7200  141.5900 N   0  0  2  0  0  0  0  0  0  0  0  0
  183.2820  177.6920  138.1790 C   0  0  2  0  0  3  0  0  0  0  0  0
  184.1880  180.1230  139.0660 O   0  0  0  0  0  1  0  0  0  0  0  0
  181.6230  177.7490  140.0130 C   0  0  1  0  0  3  0  0  0  0  0  0
  1 21  1  0  0  0  0
  1  6  1  0  0  0  0
  4 22  1  0  0  0  0
  5 27  1  6  0  0  0
  5 17  1  0  0  0  0
  6 23  1  0  0  0  0
  8  7  1  1  0  0  0
  8 10  1  0  0  0  0
  8  2  1  0  0  0  0
  9 14  1  0  0  0  0
  9 13  1  0  0  0  0
 10 28  1  0  0  0  0
 11 15  1  0  0  0  0
 12 25  1  0  0  0  0
 13 26  1  0  0  0  0
 14  8  1  0  0  0  0
 15 23  1  0  0  0  0
 16  1  2  0  0  0  0
 17 25  1  0  0  0  0
 17  3  1  0  0  0  0
 18  9  2  0  0  0  0
 19 15  1  0  0  0  0
 20  4  2  0  0  0  0
 20 16  1  0  0  0  0
 22 21  2  0  0  0  0
 24  5  1  0  0  0  0
 24 12  1  0  0  0  0
 25 19  1  0  0  0  0
 26 10  1  0  0  0  0
 26 24  1  0  0  0  0
 28 16  1  0  0  0  0
 28 12  1  0  0  0  0
M  END
>  <MODEL>
2

>  <REMARK>
 VINA RESULT:      -5.4      1.476      1.939
  Name = 
  0 active torsions:
  status: ('A' for Active; 'I' for Inactive)
                            x       y       z     vdW  Elec       q    Type
                         _______ _______ _______ _____ _____    ______ ____

>  <TORSDO>
F 0

$$$$
=
 OpenBabel11122411583D

 28 32  0  0  1  0  0  0  0  0999 V2000
  182.5380  177.6350  138.2340 C   0  0  0  0  0  0  0  0  0  0  0  0
  184.9180  173.2680  138.1110 F   0  0  0  0  0  0  0  0  0  0  0  0
  187.9450  178.7080  137.9990 O   0  0  0  0  0  1  0  0  0  0  0  0
  181.9290  178.1860  135.5550 C   0  0  0  0  0  3  0  0  0  0  0  0
  187.0570  177.5330  136.1460 C   0  0  1  0  0  3  0  0  0  0  0  0
  182.8870  177.3950  139.6710 C   0  0  0  0  0  2  0  0  0  0  0  0
  182.8140  173.3070  137.0340 C   0  0  0  0  0  1  0  0  0  0  0  0
  184.3090  173.5190  136.8910 C   0  0  1  0  0  0  0  0  0  0  0  0
  186.0940  172.7720  135.3950 C   0  0  0  0  0  0  0  0  0  0  0  0
  184.5910  174.9650  136.4390 C   0  0  2  0  0  3  0  0  0  0  0  0
  184.1780  180.2040  138.7270 O   0  0  0  0  0  1  0  0  0  0  0  0
  185.6970  176.6010  137.9180 C   0  0  1  0  0  3  0  0  0  0  0  0
  186.9040  173.9540  135.8120 C   0  0  0  0  0  2  0  0  0  0  0  0
  184.8120  172.6060  135.9200 O   0  0  0  0  0  0  0  0  0  0  0  0
  184.5610  179.3790  139.7880 C   0  0  2  0  0  3  0  0  0  0  0  0
  183.2450  176.9750  137.2060 C   0  0  0  0  0  0  0  0  0  0  0  0
  186.7890  178.5650  137.2170 C   0  0  1  0  0  3  0  0  0  0  0  0
  186.5660  171.9250  134.5950 O   0  0  0  0  0  0  0  0  0  0  0  0
  185.7240  178.4590  139.4100 C   0  0  0  0  0  2  0  0  0  0  0  0
  182.9430  177.2790  135.8670 C   0  0  0  0  0  3  0  0  0  0  0  0
  181.5120  178.5320  137.9110 C   0  0  0  0  0  3  0  0  0  0  0  0
  181.2070  178.8060  136.5760 C   0  0  0  0  0  3  0  0  0  0  0  0
  183.3510  178.6620  140.3990 C   0  0  0  0  0  2  0  0  0  0  0  0
  186.6790  176.2240  136.8260 C   0  0  1  0  0  3  0  0  0  0  0  0
  185.6500  178.0610  138.0030 N   0  0  2  0  0  0  0  0  0  0  0  0
  186.0200  175.2040  135.9090 C   0  0  2  0  0  3  0  0  0  0  0  0
  186.2300  177.7990  135.0500 O   0  0  0  0  0  1  0  0  0  0  0  0
  184.3410  175.9830  137.5490 C   0  0  1  0  0  3  0  0  0  0  0  0
  1  6  1  0  0  0  0
  4 20  2  0  0  0  0
  4 22  1  0  0  0  0
  5 27  1  6  0  0  0
  5 24  1  0  0  0  0
  5 17  1  0  0  0  0
  6 23  1  0  0  0  0
  8  7  1  1  0  0  0
  8  2  1  0  0  0  0
  9 13  1  0  0  0  0
  9 14  1  0  0  0  0
 10  8  1  0  0  0  0
 10 28  1  0  0  0  0
 11 15  1  0  0  0  0
 12 25  1  0  0  0  0
 13 26  1  0  0  0  0
 14  8  1  0  0  0  0
 15 23  1  0  0  0  0
 16 28  1  0  0  0  0
 16  1  2  0  0  0  0
 17  3  1  0  0  0  0
 17 25  1  0  0  0  0
 18  9  2  0  0  0  0
 19 15  1  0  0  0  0
 20 16  1  0  0  0  0
 21  1  1  0  0  0  0
 22 21  2  0  0  0  0
 24 12  1  0  0  0  0
 25 19  1  0  0  0  0
 26 10  1  0  0  0  0
 26 24  1  0  0  0  0
 28 12  1  0  0  0  0
M  END
>  <MODEL>
3

>  <REMARK>
 VINA RESULT:      -5.4      2.786      4.473
  Name = 
  0 active torsions:
  status: ('A' for Active; 'I' for Inactive)
                            x       y       z     vdW  Elec       q    Type
                         _______ _______ _______ _____ _____    ______ ____

>  <TORSDO>
F 0

$$$$
=
 OpenBabel11122411583D

 28 32  0  0  1  0  0  0  0  0999 V2000
  194.6400  174.6460  137.0250 C   0  0  0  0  0  0  0  0  0  0  0  0
  190.9610  175.7600  140.1830 F   0  0  0  0  0  0  0  0  0  0  0  0
  189.9240  172.9230  134.7380 O   0  0  0  0  0  1  0  0  0  0  0  0
  194.9790  176.9630  135.4860 C   0  0  0  0  0  3  0  0  0  0  0  0
  190.0780  175.2530  135.1240 C   0  0  1  0  0  3  0  0  0  0  0  0
  194.4560  173.3750  137.7980 C   0  0  0  0  0  2  0  0  0  0  0  0
  192.7680  177.2840  140.1530 C   0  0  0  0  0  1  0  0  0  0  0  0
  191.4240  176.9080  139.5580 C   0  0  1  0  0  0  0  0  0  0  0  0
  189.2860  178.0100  139.1150 C   0  0  0  0  0  0  0  0  0  0  0  0
  191.5710  176.6720  138.0430 C   0  0  2  0  0  3  0  0  0  0  0  0
  194.0380  172.7660  134.6500 O   0  0  0  0  0  1  0  0  0  0  0  0
  191.3080  174.4330  137.0400 C   0  0  1  0  0  3  0  0  0  0  0  0
  188.9860  176.9620  138.0950 C   0  0  0  0  0  2  0  0  0  0  0  0
  190.5040  177.9720  139.7920 O   0  0  0  0  0  0  0  0  0  0  0  0
  193.5710  172.0420  135.7510 C   0  0  2  0  0  3  0  0  0  0  0  0
  193.6060  175.6050  136.9670 C   0  0  0  0  0  0  0  0  0  0  0  0
  190.8320  173.9890  134.7790 C   0  0  1  0  0  3  0  0  0  0  0  0
  188.4430  178.9060  139.3750 O   0  0  0  0  0  0  0  0  0  0  0  0
  192.1250  172.4000  136.1040 C   0  0  0  0  0  2  0  0  0  0  0  0
  193.7830  176.7510  136.1730 C   0  0  0  0  0  3  0  0  0  0  0  0
  195.8420  174.8740  136.3440 C   0  0  0  0  0  3  0  0  0  0  0  0
  196.0130  176.0290  135.5780 C   0  0  0  0  0  3  0  0  0  0  0  0
  194.5540  172.1190  136.9250 C   0  0  0  0  0  2  0  0  0  0  0  0
  190.1020  175.2620  136.6460 C   0  0  1  0  0  3  0  0  0  0  0  0
  191.8470  173.8110  135.8310 N   0  0  2  0  0  0  0  0  0  0  0  0
  190.2370  176.6450  137.2670 C   0  0  2  0  0  3  0  0  0  0  0  0
  190.7680  176.3470  134.5940 O   0  0  0  0  0  1  0  0  0  0  0  0
  192.3100  175.3750  137.7220 C   0  0  1  0  0  3  0  0  0  0  0  0
  1  6  1  0  0  0  0
  3 17  1  0  0  0  0
  4 22  2  0  0  0  0
  4 20  1  0  0  0  0
  5 27  1  6  0  0  0
  5 24  1  0  0  0  0
  8 14  1  0  0  0  0
  8  7  1  1  0  0  0
  8  2  1  0  0  0  0
  9 18  2  0  0  0  0
  9 14  1  0  0  0  0
 10  8  1  0  0  0  0
 11 15  1  0  0  0  0
 12 28  1  0  0  0  0
 13  9  1  0  0  0  0
 15 19  1  0  0  0  0
 15 23  1  0  0  0  0
 16  1  1  0  0  0  0
 16 28  1  0  0  0  0
 17  5  1  0  0  0  0
 17 25  1  0  0  0  0
 20 16  2  0  0  0  0
 21  1  2  0  0  0  0
 22 21  1  0  0  0  0
 23  6  1  0  0  0  0
 24 12  1  0  0  0  0
 24 26  1  0  0  0  0
 25 19  1  0  0  0  0
 25 12  1  0  0  0  0
 26 10  1  0  0  0  0
 26 13  1  0  0  0  0
 28 10  1  0  0  0  0
M  END
>  <MODEL>
4

>  <REMARK>
 VINA RESULT:      -5.3      8.362     12.349
  Name = 
  0 active torsions:
  status: ('A' for Active; 'I' for Inactive)
                            x       y       z     vdW  Elec       q    Type
                         _______ _______ _______ _____ _____    ______ ____

>  <TORSDO>
F 0

$$$$
=
 OpenBabel11122411583D

 28 32  0  0  1  0  0  0  0  0999 V2000
  189.4730  177.9880  137.9160 C   0  0  0  0  0  0  0  0  0  0  0  0
  192.7050  176.1810  134.5940 F   0  0  0  0  0  0  0  0  0  0  0  0
  186.8890  174.0150  135.0930 O   0  0  0  0  0  1  0  0  0  0  0  0
  189.9690  176.5260  140.2550 C   0  0  0  0  0  3  0  0  0  0  0  0
  188.7800  173.3190  136.3340 C   0  0  1  0  0  3  0  0  0  0  0  0
  189.1510  178.7580  136.6710 C   0  0  0  0  0  2  0  0  0  0  0  0
  193.6480  176.9040  136.6370 C   0  0  0  0  0  1  0  0  0  0  0  0
  193.0330  175.7490  135.8700 C   0  0  1  0  0  0  0  0  0  0  0  0
  193.5980  173.4230  135.3690 C   0  0  0  0  0  0  0  0  0  0  0  0
  191.7770  175.2440  136.6050 C   0  0  2  0  0  3  0  0  0  0  0  0
  186.4970  177.2040  137.6690 O   0  0  0  0  0  1  0  0  0  0  0  0
  189.5140  175.5250  135.6630 C   0  0  1  0  0  3  0  0  0  0  0  0
  192.1540  173.1570  135.0980 C   0  0  0  0  0  2  0  0  0  0  0  0
  193.9900  174.6970  135.7760 O   0  0  0  0  0  0  0  0  0  0  0  0
  186.8040  177.6770  136.3900 C   0  0  2  0  0  3  0  0  0  0  0  0
  190.1550  176.7560  137.8390 C   0  0  0  0  0  0  0  0  0  0  0  0
  187.6120  174.2760  136.2650 C   0  0  1  0  0  3  0  0  0  0  0  0
  194.4540  172.5140  135.2140 O   0  0  0  0  0  0  0  0  0  0  0  0
  187.3840  176.5800  135.4940 C   0  0  0  0  0  2  0  0  0  0  0  0
  190.3760  176.0240  139.0180 C   0  0  0  0  0  3  0  0  0  0  0  0
  189.0810  178.4930  139.1620 C   0  0  0  0  0  3  0  0  0  0  0  0
  189.3290  177.7650  140.3280 C   0  0  0  0  0  3  0  0  0  0  0  0
  187.6460  178.9570  136.4590 C   0  0  0  0  0  2  0  0  0  0  0  0
  189.8740  174.0550  135.5740 C   0  0  1  0  0  3  0  0  0  0  0  0
  188.1870  175.6320  136.2690 N   0  0  2  0  0  0  0  0  0  0  0  0
  191.2740  173.8610  136.1380 C   0  0  2  0  0  3  0  0  0  0  0  0
  189.1260  173.1290  137.6760 O   0  0  0  0  0  1  0  0  0  0  0  0
  190.6050  176.2160  136.4940 C   0  0  1  0  0  3  0  0  0  0  0  0
  1 21  1  0  0  0  0
  2  8  1  0  0  0  0
  3 17  1  0  0  0  0
  4 22  1  0  0  0  0
  5 27  1  1  0  0  0
  6  1  1  0  0  0  0
  8 10  1  0  0  0  0
  8  7  1  1  0  0  0
  9 14  1  0  0  0  0
 12 25  1  0  0  0  0
 12 28  1  0  0  0  0
 13  9  1  0  0  0  0
 13 26  1  0  0  0  0
 14  8  1  0  0  0  0
 15 23  1  0  0  0  0
 15 11  1  0  0  0  0
 16  1  2  0  0  0  0
 16 20  1  0  0  0  0
 17 25  1  0  0  0  0
 17  5  1  0  0  0  0
 18  9  2  0  0  0  0
 19 25  1  0  0  0  0
 19 15  1  0  0  0  0
 20  4  2  0  0  0  0
 21 22  2  0  0  0  0
 23  6  1  0  0  0  0
 24 12  1  0  0  0  0
 24 26  1  0  0  0  0
 24  5  1  0  0  0  0
 26 10  1  0  0  0  0
 28 10  1  0  0  0  0
 28 16  1  0  0  0  0
M  END
>  <MODEL>
5

>  <REMARK>
 VINA RESULT:      -5.2      6.641      9.688
  Name = 
  0 active torsions:
  status: ('A' for Active; 'I' for Inactive)
                            x       y       z     vdW  Elec       q    Type
                         _______ _______ _______ _____ _____    ______ ____

>  <TORSDO>
F 0

$$$$
=
 OpenBabel11122411583D

 28 32  0  0  1  0  0  0  0  0999 V2000
  181.2580  176.0100  136.9340 C   0  0  0  0  0  0  0  0  0  0  0  0
  181.0590  180.7800  135.5370 F   0  0  0  0  0  0  0  0  0  0  0  0
  185.5030  178.6050  139.3180 O   0  0  0  0  0  1  0  0  0  0  0  0
  179.5960  175.8610  139.1850 C   0  0  0  0  0  3  0  0  0  0  0  0
  183.3540  179.3790  139.9410 C   0  0  1  0  0  3  0  0  0  0  0  0
  182.1890  176.0620  135.7610 C   0  0  0  0  0  2  0  0  0  0  0  0
  178.9670  179.7070  135.7830 C   0  0  0  0  0  1  0  0  0  0  0  0
  180.0630  180.5070  136.4620 C   0  0  1  0  0  0  0  0  0  0  0  0
  180.2260  182.5270  137.8310 C   0  0  0  0  0  0  0  0  0  0  0  0
  180.6360  179.7070  137.6470 C   0  0  2  0  0  3  0  0  0  0  0  0
  183.8050  174.9820  138.3440 O   0  0  0  0  0  1  0  0  0  0  0  0
  182.9350  178.8120  137.6260 C   0  0  1  0  0  3  0  0  0  0  0  0
  181.5410  182.0440  138.3430 C   0  0  0  0  0  2  0  0  0  0  0  0
  179.5120  181.7340  136.9330 O   0  0  0  0  0  0  0  0  0  0  0  0
  184.3080  175.5830  137.1860 C   0  0  2  0  0  3  0  0  0  0  0  0
  180.9320  177.1860  137.6410 C   0  0  0  0  0  0  0  0  0  0  0  0
  184.1810  178.1850  139.5220 C   0  0  1  0  0  3  0  0  0  0  0  0
  179.7740  183.6450  138.1890 O   0  0  0  0  0  0  0  0  0  0  0  0
  184.5550  177.0820  137.3770 C   0  0  0  0  0  2  0  0  0  0  0  0
  180.1150  177.0920  138.7820 C   0  0  0  0  0  3  0  0  0  0  0  0
  180.7210  174.7810  137.3370 C   0  0  0  0  0  3  0  0  0  0  0  0
  179.8920  174.7060  138.4580 C   0  0  0  0  0  3  0  0  0  0  0  0
  183.4580  175.2270  135.9610 C   0  0  0  0  0  2  0  0  0  0  0  0
  182.8940  179.9630  138.6120 C   0  0  1  0  0  3  0  0  0  0  0  0
  183.5680  177.6700  138.2850 N   0  0  2  0  0  0  0  0  0  0  0  0
  181.4850  180.5380  138.6310 C   0  0  2  0  0  3  0  0  0  0  0  0
  182.2730  178.9300  140.7070 O   0  0  0  0  0  1  0  0  0  0  0  0
  181.4900  178.5240  137.1950 C   0  0  1  0  0  3  0  0  0  0  0  0
  1 21  2  0  0  0  0
  1 16  1  0  0  0  0
  2  8  1  0  0  0  0
  3 17  1  0  0  0  0
  5 27  1  1  0  0  0
  6 23  1  0  0  0  0
  6  1  1  0  0  0  0
  8  7  1  6  0  0  0
  8 14  1  0  0  0  0
  8 10  1  0  0  0  0
  9 18  2  0  0  0  0
  9 13  1  0  0  0  0
 10 26  1  0  0  0  0
 12 25  1  0  0  0  0
 12 24  1  0  0  0  0
 13 26  1  0  0  0  0
 14  9  1  0  0  0  0
 15 19  1  0  0  0  0
 15 11  1  0  0  0  0
 16 20  2  0  0  0  0
 17  5  1  0  0  0  0
 19 25  1  0  0  0  0
 20  4  1  0  0  0  0
 21 22  1  0  0  0  0
 22  4  2  0  0  0  0
 23 15  1  0  0  0  0
 24 26  1  0  0  0  0
 24  5  1  0  0  0  0
 25 17  1  0  0  0  0
 28 12  1  0  0  0  0
 28 16  1  0  0  0  0
 28 10  1  0  0  0  0
M  END
>  <MODEL>
6

>  <REMARK>
 VINA RESULT:      -4.7      2.553      5.271
  Name = 
  0 active torsions:
  status: ('A' for Active; 'I' for Inactive)
                            x       y       z     vdW  Elec       q    Type
                         _______ _______ _______ _____ _____    ______ ____

>  <TORSDO>
F 0

$$$$
=
 OpenBabel11122411583D

 28 32  0  0  1  0  0  0  0  0999 V2000
  181.5860  179.0220  138.9390 C   0  0  0  0  0  0  0  0  0  0  0  0
  180.9770  174.1180  138.3660 F   0  0  0  0  0  0  0  0  0  0  0  0
  186.4580  176.9190  137.4290 O   0  0  0  0  0  1  0  0  0  0  0  0
  180.8670  180.1190  136.4630 C   0  0  0  0  0  3  0  0  0  0  0  0
  184.7040  176.6580  135.8610 C   0  0  1  0  0  3  0  0  0  0  0  0
  182.0210  178.4660  140.2610 C   0  0  0  0  0  2  0  0  0  0  0  0
  179.1020  175.4450  137.8070 C   0  0  0  0  0  1  0  0  0  0  0  0
  180.3860  174.8030  137.3150 C   0  0  1  0  0  0  0  0  0  0  0  0
  181.0780  173.3650  135.4630 C   0  0  0  0  0  0  0  0  0  0  0  0
  181.3390  175.8870  136.7780 C   0  0  2  0  0  3  0  0  0  0  0  0
  184.4540  180.1650  138.9780 O   0  0  0  0  0  1  0  0  0  0  0  0
  183.4530  176.4480  137.9210 C   0  0  1  0  0  3  0  0  0  0  0  0
  182.4810  173.8380  135.6530 C   0  0  0  0  0  2  0  0  0  0  0  0
  180.0700  173.8820  136.2750 O   0  0  0  0  0  0  0  0  0  0  0  0
  184.5070  179.1520  139.9400 C   0  0  2  0  0  3  0  0  0  0  0  0
  181.5650  178.2020  137.7910 C   0  0  0  0  0  0  0  0  0  0  0  0
  185.2960  177.5340  136.9410 C   0  0  1  0  0  3  0  0  0  0  0  0
  180.8110  172.4960  134.5940 O   0  0  0  0  0  0  0  0  0  0  0  0
  184.8340  177.7900  139.3230 C   0  0  0  0  0  2  0  0  0  0  0  0
  181.2240  178.7730  136.5520 C   0  0  0  0  0  3  0  0  0  0  0  0
  181.2120  180.3680  138.8440 C   0  0  0  0  0  3  0  0  0  0  0  0
  180.8520  180.9150  137.6100 C   0  0  0  0  0  3  0  0  0  0  0  0
  183.2590  179.1660  140.8320 C   0  0  0  0  0  2  0  0  0  0  0  0
  183.7980  175.7150  136.6390 C   0  0  1  0  0  3  0  0  0  0  0  0
  184.2630  177.6650  137.9810 N   0  0  2  0  0  0  0  0  0  0  0  0
  182.5060  175.3470  135.9240 C   0  0  2  0  0  3  0  0  0  0  0  0
  183.9730  177.4630  134.9810 O   0  0  0  0  0  1  0  0  0  0  0  0
  181.9450  176.7370  137.8920 C   0  0  1  0  0  3  0  0  0  0  0  0
  1  6  1  0  0  0  0
  4 20  2  0  0  0  0
  4 22  1  0  0  0  0
  5 27  1  6  0  0  0
  5 24  1  0  0  0  0
  5 17  1  0  0  0  0
  6 23  1  0  0  0  0
  8  7  1  1  0  0  0
  8  2  1  0  0  0  0
  9 13  1  0  0  0  0
  9 14  1  0  0  0  0
 10  8  1  0  0  0  0
 10 28  1  0  0  0  0
 11 15  1  0  0  0  0
 12 25  1  0  0  0  0
 13 26  1  0  0  0  0
 14  8  1  0  0  0  0
 15 23  1  0  0  0  0
 16 28  1  0  0  0  0
 16  1  2  0  0  0  0
 17  3  1  0  0  0  0
 17 25  1  0  0  0  0
 18  9  2  0  0  0  0
 19 15  1  0  0  0  0
 20 16  1  0  0  0  0
 21  1  1  0  0  0  0
 22 21  2  0  0  0  0
 24 12  1  0  0  0  0
 25 19  1  0  0  0  0
 26 24  1  0  0  0  0
 26 10  1  0  0  0  0
 28 12  1  0  0  0  0
M  END
>  <MODEL>
7

>  <REMARK>
 VINA RESULT:      -4.7      2.235      3.787
  Name = 
  0 active torsions:
  status: ('A' for Active; 'I' for Inactive)
                            x       y       z     vdW  Elec       q    Type
                         _______ _______ _______ _____ _____    ______ ____

>  <TORSDO>
F 0

$$$$
=
 OpenBabel11122411583D

 28 32  0  0  1  0  0  0  0  0999 V2000
  182.0280  177.7840  137.2200 C   0  0  0  0  0  0  0  0  0  0  0  0
  184.9350  177.4180  141.2400 F   0  0  0  0  0  0  0  0  0  0  0  0
  178.9310  175.7720  141.3180 O   0  0  0  0  0  1  0  0  0  0  0  0
  181.0650  180.4150  137.2780 C   0  0  0  0  0  3  0  0  0  0  0  0
  179.8200  177.9350  141.6790 C   0  0  1  0  0  3  0  0  0  0  0  0
  182.4870  176.3580  137.1820 C   0  0  0  0  0  2  0  0  0  0  0  0
  185.4260  179.2220  139.7940 C   0  0  0  0  0  1  0  0  0  0  0  0
  184.6240  178.7460  140.9900 C   0  0  1  0  0  0  0  0  0  0  0  0
  184.1970  179.4930  143.2790 C   0  0  0  0  0  0  0  0  0  0  0  0
  183.1180  178.8990  140.7030 C   0  0  2  0  0  3  0  0  0  0  0  0
  179.2560  176.4240  137.2650 O   0  0  0  0  0  1  0  0  0  0  0  0
  181.6380  176.9440  140.4270 C   0  0  1  0  0  3  0  0  0  0  0  0
  182.9510  178.6720  143.2890 C   0  0  0  0  0  2  0  0  0  0  0  0
  184.9780  179.5320  142.1250 O   0  0  0  0  0  0  0  0  0  0  0  0
  180.1190  175.3900  137.6380 C   0  0  2  0  0  3  0  0  0  0  0  0
  182.0650  178.5150  138.4260 C   0  0  0  0  0  0  0  0  0  0  0  0
  179.2950  176.9530  140.6570 C   0  0  1  0  0  3  0  0  0  0  0  0
  184.5510  180.1280  144.3060 O   0  0  0  0  0  0  0  0  0  0  0  0
  180.3830  175.3760  139.1450 C   0  0  0  0  0  2  0  0  0  0  0  0
  181.5580  179.8260  138.4440 C   0  0  0  0  0  3  0  0  0  0  0  0
  181.5460  178.3870  136.0520 C   0  0  0  0  0  3  0  0  0  0  0  0
  181.0670  179.6990  136.0800 C   0  0  0  0  0  3  0  0  0  0  0  0
  181.3820  175.3800  136.7680 C   0  0  0  0  0  2  0  0  0  0  0  0
  181.3020  177.5970  141.7540 C   0  0  1  0  0  3  0  0  0  0  0  0
  180.3890  176.7320  139.6960 N   0  0  2  0  0  0  0  0  0  0  0  0
  182.2140  178.7990  141.9500 C   0  0  2  0  0  3  0  0  0  0  0  0
  179.6130  179.2330  141.2020 O   0  0  0  0  0  1  0  0  0  0  0  0
  182.6090  177.8760  139.6890 C   0  0  1  0  0  3  0  0  0  0  0  0
  1 16  1  0  0  0  0
  4 20  1  0  0  0  0
  5 27  1  6  0  0  0
  5 24  1  0  0  0  0
  6  1  1  0  0  0  0
  8  7  1  6  0  0  0
  8  2  1  0  0  0  0
  8 14  1  0  0  0  0
  9 13  1  0  0  0  0
  9 18  2  0  0  0  0
 10  8  1  0  0  0  0
 10 26  1  0  0  0  0
 11 15  1  0  0  0  0
 12 24  1  0  0  0  0
 14  9  1  0  0  0  0
 15 19  1  0  0  0  0
 16 20  2  0  0  0  0
 16 28  1  0  0  0  0
 17  3  1  0  0  0  0
 17  5  1  0  0  0  0
 19 25  1  0  0  0  0
 21 22  1  0  0  0  0
 21  1  2  0  0  0  0
 22  4  2  0  0  0  0
 23  6  1  0  0  0  0
 23 15  1  0  0  0  0
 24 26  1  0  0  0  0
 25 12  1  0  0  0  0
 25 17  1  0  0  0  0
 26 13  1  0  0  0  0
 28 12  1  0  0  0  0
 28 10  1  0  0  0  0
M  END
>  <MODEL>
8

>  <REMARK>
 VINA RESULT:      -4.7      2.430      5.204
  Name = 
  0 active torsions:
  status: ('A' for Active; 'I' for Inactive)
                            x       y       z     vdW  Elec       q    Type
                         _______ _______ _______ _____ _____    ______ ____

>  <TORSDO>
F 0

$$$$
=
 OpenBabel11122411583D

 28 32  0  0  1  0  0  0  0  0999 V2000
  185.5310  174.6610  136.7120 C   0  0  0  0  0  0  0  0  0  0  0  0
  183.3860  177.6790  140.0350 F   0  0  0  0  0  0  0  0  0  0  0  0
  180.0990  174.5740  135.7550 O   0  0  0  0  0  1  0  0  0  0  0  0
  186.2600  176.3440  134.5940 C   0  0  0  0  0  3  0  0  0  0  0  0
  181.1470  176.6800  135.4950 C   0  0  1  0  0  3  0  0  0  0  0  0
  185.1160  173.7250  137.8070 C   0  0  0  0  0  2  0  0  0  0  0  0
  185.5420  178.3300  139.3170 C   0  0  0  0  0  1  0  0  0  0  0  0
  184.0480  178.4200  139.0680 C   0  0  1  0  0  0  0  0  0  0  0  0
  182.3890  180.1810  138.7120 C   0  0  0  0  0  0  0  0  0  0  0  0
  183.7190  177.8820  137.6620 C   0  0  2  0  0  3  0  0  0  0  0  0
  183.7390  172.7870  135.0360 O   0  0  0  0  0  1  0  0  0  0  0  0
  182.4510  175.7920  137.3290 C   0  0  1  0  0  3  0  0  0  0  0  0
  181.4980  179.1770  138.0610 C   0  0  0  0  0  2  0  0  0  0  0  0
  183.6460  179.7840  139.1670 O   0  0  0  0  0  0  0  0  0  0  0  0
  183.3400  172.5130  136.3470 C   0  0  2  0  0  3  0  0  0  0  0  0
  184.9170  175.9240  136.5800 C   0  0  0  0  0  0  0  0  0  0  0  0
  181.3010  175.1820  135.3680 C   0  0  1  0  0  3  0  0  0  0  0  0
  182.0050  181.3690  138.8670 O   0  0  0  0  0  0  0  0  0  0  0  0
  182.2470  173.4710  136.8290 C   0  0  0  0  0  2  0  0  0  0  0  0
  185.2770  176.7470  135.4990 C   0  0  0  0  0  3  0  0  0  0  0  0
  186.5270  174.2700  135.8090 C   0  0  0  0  0  3  0  0  0  0  0  0
  186.8910  175.1080  134.7530 C   0  0  0  0  0  3  0  0  0  0  0  0
  184.5480  172.4010  137.2840 C   0  0  0  0  0  2  0  0  0  0  0  0
  181.5520  176.9480  136.9380 C   0  0  1  0  0  3  0  0  0  0  0  0
  182.4190  174.8050  136.2500 N   0  0  2  0  0  0  0  0  0  0  0  0
  182.3110  178.2500  137.1490 C   0  0  2  0  0  3  0  0  0  0  0  0
  182.0190  177.3000  134.5940 O   0  0  0  0  0  1  0  0  0  0  0  0
  183.8550  176.3640  137.5710 C   0  0  1  0  0  3  0  0  0  0  0  0
  1  6  1  0  0  0  0
  4 22  2  0  0  0  0
  4 20  1  0  0  0  0
  5 27  1  6  0  0  0
  5 24  1  0  0  0  0
  8 14  1  0  0  0  0
  8  7  1  1  0  0  0
  8  2  1  0  0  0  0
  9 18  2  0  0  0  0
  9 14  1  0  0  0  0
 10  8  1  0  0  0  0
 11 15  1  0  0  0  0
 12 28  1  0  0  0  0
 13  9  1  0  0  0  0
 15 19  1  0  0  0  0
 15 23  1  0  0  0  0
 16  1  1  0  0  0  0
 16 28  1  0  0  0  0
 17  5  1  0  0  0  0
 17  3  1  0  0  0  0
 17 25  1  0  0  0  0
 20 16  2  0  0  0  0
 21  1  2  0  0  0  0
 22 21  1  0  0  0  0
 23  6  1  0  0  0  0
 24 26  1  0  0  0  0
 24 12  1  0  0  0  0
 25 19  1  0  0  0  0
 25 12  1  0  0  0  0
 26 10  1  0  0  0  0
 26 13  1  0  0  0  0
 28 10  1  0  0  0  0
M  END
>  <MODEL>
9

>  <REMARK>
 VINA RESULT:      -4.6      2.731      6.858
  Name = 
  0 active torsions:
  status: ('A' for Active; 'I' for Inactive)
                            x       y       z     vdW  Elec       q    Type
                         _______ _______ _______ _____ _____    ______ ____

>  <TORSDO>
F 0

$$$$
