=
 OpenBabel11122410523D

 32 37  0  0  1  0  0  0  0  0999 V2000
  184.8270  178.4720  140.5780 C   0  0  1  0  0  3  0  0  0  0  0  0
  180.0240  178.8020  140.7950 N   0  0  0  0  0  0  0  0  0  0  0  0
  180.0630  178.7380  142.1520 C   0  0  0  0  0  3  0  0  0  0  0  0
  186.1200  178.3450  142.7500 C   0  0  0  0  0  0  0  0  0  0  0  0
  186.1410  178.5010  144.1660 N   0  0  0  0  0  0  0  0  0  0  0  0
  185.7830  177.9170  138.4770 C   0  0  2  0  0  3  0  0  0  0  0  0
  183.5150  178.9420  138.5080 O   0  0  0  0  0  0  0  0  0  0  0  0
  185.2820  178.9730  146.3160 C   0  0  2  0  0  3  0  0  0  0  0  0
  181.1570  178.9300  140.0560 C   0  0  0  0  0  3  0  0  0  0  0  0
  183.6650  179.1940  139.9040 C   0  0  1  0  0  3  0  0  0  0  0  0
  182.4060  178.9880  140.6860 C   0  0  0  0  0  0  0  0  0  0  0  0
  183.7610  179.0050  142.7660 N   0  0  0  0  0  0  0  0  0  0  0  0
  186.6450  178.2980  146.4570 C   0  0  0  0  0  2  0  0  0  0  0  0
  184.2960  177.8500  138.0470 C   0  0  2  0  0  3  0  0  0  0  0  0
  187.0250  177.8000  145.0700 C   0  0  0  0  0  2  0  0  0  0  0  0
  181.2860  178.8090  142.8220 C   0  0  0  0  0  3  0  0  0  0  0  0
  182.4770  178.9430  142.0920 C   0  0  0  0  0  0  0  0  0  0  0  0
  183.7630  179.0920  144.2400 C   0  0  0  0  0  2  0  0  0  0  0  0
  185.9960  178.6480  139.7330 N   0  0  0  0  0  2  0  0  0  0  0  0
  187.0130  177.6670  142.1710 O   0  0  0  0  0  0  0  0  0  0  0  0
  184.2920  178.0670  146.7110 O   0  0  0  0  0  1  0  0  0  0  0  0
  185.0270  179.0460  141.9870 C   0  0  2  0  0  3  0  0  0  0  0  0
  185.1620  179.3260  144.8320 C   0  0  2  0  0  3  0  0  0  0  0  0
  182.4670  176.2410  137.5440 C   0  0  0  0  0  2  0  0  0  0  0  0
  183.6650  176.5160  138.4300 C   0  0  1  0  0  3  0  0  0  0  0  0
  183.7870  175.5540  137.2650 C   0  0  1  0  0  3  0  0  0  0  0  0
  183.7420  174.1340  137.7950 C   0  0  0  0  0  2  0  0  0  0  0  0
  184.9000  173.3610  137.2690 C   0  0  0  0  0  0  0  0  0  0  0  0
  185.7590  172.8960  138.0620 O   0  0  0  0  0  1  0  0  0  0  0  0
  185.0150  173.1220  135.9060 O   0  0  0  0  0  0  0  0  0  0  0  0
  186.2300  178.0310  136.1480 F   0  0  0  0  0  0  0  0  0  0  0  0
  186.6010  178.5540  137.3710 C   0  0  0  0  0  2  0  0  0  0  0  0
  1 19  1  6  0  0  0
  1 22  1  0  0  0  0
  2  3  1  0  0  0  0
  3 16  2  0  0  0  0
  4  5  1  0  0  0  0
  5 23  1  0  0  0  0
  5 15  1  0  0  0  0
  6 32  1  6  0  0  0
  6 19  1  0  0  0  0
  8 13  1  0  0  0  0
  8 21  1  6  0  0  0
  9 11  1  0  0  0  0
  9  2  2  0  0  0  0
 10  7  1  6  0  0  0
 10  1  1  0  0  0  0
 10 11  1  0  0  0  0
 11 17  2  0  0  0  0
 12 18  1  0  0  0  0
 14 25  1  0  0  0  0
 14  6  1  0  0  0  0
 14  7  1  1  0  0  0
 15 13  1  0  0  0  0
 17 12  1  0  0  0  0
 17 16  1  0  0  0  0
 20  4  2  0  0  0  0
 22  4  1  1  0  0  0
 22 12  1  0  0  0  0
 23 18  1  6  0  0  0
 23  8  1  0  0  0  0
 25 24  1  6  0  0  0
 26 24  1  0  0  0  0
 26 27  1  1  0  0  0
 26 25  1  0  0  0  0
 28 27  1  0  0  0  0
 28 29  1  0  0  0  0
 30 28  2  0  0  0  0
 31 32  1  0  0  0  0
M  END
>  <MODEL>
1

>  <REMARK>
 VINA RESULT:      -7.0      0.000      0.000
  Name = 
  4 active torsions:
  status: ('A' for Active; 'I' for Inactive)
    1  A    between atoms: C_7  and  C_19
    2  A    between atoms: C_10  and  C_17
    3  A    between atoms: C_20  and  C_29
    4  A    between atoms: C_29  and  C_30
                            x       y       z     vdW  Elec       q    Type
                         _______ _______ _______ _____ _____    ______ ____

>  <TORSDO>
F 4

$$$$
=
 OpenBabel11122410523D

 32 37  0  0  1  0  0  0  0  0999 V2000
  188.3610  177.6020  139.5270 C   0  0  1  0  0  3  0  0  0  0  0  0
  183.8900  178.7940  140.8700 N   0  0  0  0  0  0  0  0  0  0  0  0
  184.2130  178.6070  142.1770 C   0  0  0  0  0  3  0  0  0  0  0  0
  190.0490  177.0500  141.3310 C   0  0  0  0  0  0  0  0  0  0  0  0
  190.4110  177.0770  142.7070 N   0  0  0  0  0  0  0  0  0  0  0  0
  188.7000  177.0630  137.2390 C   0  0  2  0  0  3  0  0  0  0  0  0
  186.7460  178.4840  137.8410 O   0  0  0  0  0  0  0  0  0  0  0  0
  190.1600  177.5110  145.0160 C   0  0  2  0  0  3  0  0  0  0  0  0
  184.8340  178.7740  139.8940 C   0  0  0  0  0  3  0  0  0  0  0  0
  187.2470  178.5820  139.1720 C   0  0  1  0  0  3  0  0  0  0  0  0
  186.1760  178.5450  140.2170 C   0  0  0  0  0  0  0  0  0  0  0  0
  187.9320  178.1320  141.9230 N   0  0  0  0  0  0  0  0  0  0  0  0
  191.3570  176.5860  144.8070 C   0  0  0  0  0  2  0  0  0  0  0  0
  187.1720  177.3100  137.1650 C   0  0  2  0  0  3  0  0  0  0  0  0
  191.3160  176.1490  143.3510 C   0  0  0  0  0  2  0  0  0  0  0  0
  185.5420  178.3920  142.5460 C   0  0  0  0  0  3  0  0  0  0  0  0
  186.5460  178.3660  141.5650 C   0  0  0  0  0  0  0  0  0  0  0  0
  188.2770  178.0890  143.3580 C   0  0  0  0  0  2  0  0  0  0  0  0
  189.3260  177.6310  138.4400 N   0  0  0  0  0  2  0  0  0  0  0  0
  190.6380  176.2720  140.5310 O   0  0  0  0  0  0  0  0  0  0  0  0
  189.1210  176.7740  145.5930 O   0  0  0  0  0  1  0  0  0  0  0  0
  188.9770  178.0050  140.8730 C   0  0  2  0  0  3  0  0  0  0  0  0
  189.7890  178.0070  143.6180 C   0  0  2  0  0  3  0  0  0  0  0  0
  184.9330  176.2280  137.2260 C   0  0  0  0  0  2  0  0  0  0  0  0
  186.3870  176.0880  137.6280 C   0  0  1  0  0  3  0  0  0  0  0  0
  185.8600  175.3460  136.4170 C   0  0  1  0  0  3  0  0  0  0  0  0
  185.6330  173.8940  136.7910 C   0  0  0  0  0  2  0  0  0  0  0  0
  184.3000  173.4480  136.3030 C   0  0  0  0  0  0  0  0  0  0  0  0
  183.4650  172.9620  137.1080 O   0  0  0  0  0  1  0  0  0  0  0  0
  183.9630  173.6010  134.9640 O   0  0  0  0  0  0  0  0  0  0  0  0
  188.4340  177.7770  134.9900 F   0  0  0  0  0  0  0  0  0  0  0  0
  189.3650  177.6320  136.0010 C   0  0  0  0  0  2  0  0  0  0  0  0
  1 19  1  6  0  0  0
  1 22  1  0  0  0  0
  2  3  1  0  0  0  0
  3 16  2  0  0  0  0
  4  5  1  0  0  0  0
  5 15  1  0  0  0  0
  5 23  1  0  0  0  0
  6 32  1  6  0  0  0
  6 19  1  0  0  0  0
  8 21  1  6  0  0  0
  9 11  1  0  0  0  0
  9  2  2  0  0  0  0
 10  7  1  6  0  0  0
 10  1  1  0  0  0  0
 10 11  1  0  0  0  0
 11 17  2  0  0  0  0
 12 18  1  0  0  0  0
 13  8  1  0  0  0  0
 14  6  1  0  0  0  0
 14 25  1  0  0  0  0
 14  7  1  1  0  0  0
 15 13  1  0  0  0  0
 17 12  1  0  0  0  0
 17 16  1  0  0  0  0
 20  4  2  0  0  0  0
 22  4  1  1  0  0  0
 22 12  1  0  0  0  0
 23 18  1  1  0  0  0
 23  8  1  0  0  0  0
 25 24  1  1  0  0  0
 26 27  1  1  0  0  0
 26 24  1  0  0  0  0
 26 25  1  0  0  0  0
 28 27  1  0  0  0  0
 28 29  1  0  0  0  0
 30 28  2  0  0  0  0
 31 32  1  0  0  0  0
M  END
>  <MODEL>
2

>  <REMARK>
 VINA RESULT:      -7.0      2.822      3.825
  Name = 
  4 active torsions:
  status: ('A' for Active; 'I' for Inactive)
    1  A    between atoms: C_7  and  C_19
    2  A    between atoms: C_10  and  C_17
    3  A    between atoms: C_20  and  C_29
    4  A    between atoms: C_29  and  C_30
                            x       y       z     vdW  Elec       q    Type
                         _______ _______ _______ _____ _____    ______ ____

>  <TORSDO>
F 4

$$$$
=
 OpenBabel11122410523D

 32 37  0  0  1  0  0  0  0  0999 V2000
  190.4880  177.2210  140.4260 C   0  0  1  0  0  3  0  0  0  0  0  0
  186.0120  178.6260  139.3280 N   0  0  0  0  0  0  0  0  0  0  0  0
  185.6700  178.6280  140.6440 C   0  0  0  0  0  3  0  0  0  0  0  0
  191.0890  176.9240  142.8670 C   0  0  0  0  0  0  0  0  0  0  0  0
  190.7650  177.1470  144.2350 N   0  0  0  0  0  0  0  0  0  0  0  0
  191.8180  176.3550  138.6590 C   0  0  2  0  0  3  0  0  0  0  0  0
  189.9220  177.8620  138.0800 O   0  0  0  0  0  0  0  0  0  0  0  0
  189.4940  177.9130  146.0750 C   0  0  2  0  0  3  0  0  0  0  0  0
  187.2980  178.4590  138.9280 C   0  0  0  0  0  3  0  0  0  0  0  0
  189.7470  178.1480  139.4670 C   0  0  1  0  0  3  0  0  0  0  0  0
  188.3120  178.2700  139.8740 C   0  0  0  0  0  0  0  0  0  0  0  0
  189.0280  178.0950  142.2450 N   0  0  0  0  0  0  0  0  0  0  0  0
  190.5770  176.9590  146.5750 C   0  0  0  0  0  2  0  0  0  0  0  0
  190.5260  176.5990  137.8390 C   0  0  2  0  0  3  0  0  0  0  0  0
  191.1900  176.3160  145.3400 C   0  0  0  0  0  2  0  0  0  0  0  0
  186.6510  178.4590  141.6220 C   0  0  0  0  0  3  0  0  0  0  0  0
  187.9930  178.2850  141.2460 C   0  0  0  0  0  0  0  0  0  0  0  0
  188.6560  178.2580  143.6650 C   0  0  0  0  0  2  0  0  0  0  0  0
  191.8490  177.0860  139.9320 N   0  0  0  0  0  2  0  0  0  0  0  0
  191.9240  176.0350  142.5460 O   0  0  0  0  0  0  0  0  0  0  0  0
  188.2550  177.2730  146.1760 O   0  0  0  0  0  1  0  0  0  0  0  0
  190.4310  177.8100  141.8410 C   0  0  2  0  0  3  0  0  0  0  0  0
  189.8590  178.2040  144.6180 C   0  0  2  0  0  3  0  0  0  0  0  0
  188.3660  175.6390  137.0660 C   0  0  0  0  0  2  0  0  0  0  0  0
  189.5260  175.4630  138.0220 C   0  0  1  0  0  3  0  0  0  0  0  0
  189.4620  174.6460  136.7480 C   0  0  1  0  0  3  0  0  0  0  0  0
  188.9910  173.2450  137.0860 C   0  0  0  0  0  2  0  0  0  0  0  0
  188.3060  172.6430  135.9090 C   0  0  0  0  0  0  0  0  0  0  0  0
  188.7830  172.8000  134.7550 O   0  0  0  0  0  0  0  0  0  0  0  0
  187.1620  171.8780  136.0870 O   0  0  0  0  0  1  0  0  0  0  0  0
  192.7820  176.4620  136.4920 F   0  0  0  0  0  0  0  0  0  0  0  0
  193.0260  176.7340  137.8250 C   0  0  0  0  0  2  0  0  0  0  0  0
  1 19  1  6  0  0  0
  1 22  1  0  0  0  0
  2  3  1  0  0  0  0
  3 16  2  0  0  0  0
  4  5  1  0  0  0  0
  5 23  1  0  0  0  0
  5 15  1  0  0  0  0
  6 32  1  6  0  0  0
  6 19  1  0  0  0  0
  8 21  1  6  0  0  0
  8 13  1  0  0  0  0
  9  2  2  0  0  0  0
  9 11  1  0  0  0  0
 10  7  1  6  0  0  0
 10 11  1  0  0  0  0
 10  1  1  0  0  0  0
 11 17  2  0  0  0  0
 12 18  1  0  0  0  0
 14 25  1  0  0  0  0
 14  7  1  1  0  0  0
 14  6  1  0  0  0  0
 15 13  1  0  0  0  0
 17 16  1  0  0  0  0
 17 12  1  0  0  0  0
 20  4  2  0  0  0  0
 22 12  1  0  0  0  0
 22  4  1  1  0  0  0
 23 18  1  6  0  0  0
 23  8  1  0  0  0  0
 25 24  1  6  0  0  0
 26 24  1  0  0  0  0
 26 27  1  1  0  0  0
 26 25  1  0  0  0  0
 28 30  1  0  0  0  0
 28 27  1  0  0  0  0
 29 28  2  0  0  0  0
 31 32  1  0  0  0  0
M  END
>  <MODEL>
3

>  <REMARK>
 VINA RESULT:      -6.9      4.134      5.478
  Name = 
  4 active torsions:
  status: ('A' for Active; 'I' for Inactive)
    1  A    between atoms: C_7  and  C_19
    2  A    between atoms: C_10  and  C_17
    3  A    between atoms: C_20  and  C_29
    4  A    between atoms: C_29  and  C_30
                            x       y       z     vdW  Elec       q    Type
                         _______ _______ _______ _____ _____    ______ ____

>  <TORSDO>
F 4

$$$$
=
 OpenBabel11122410523D

 32 37  0  0  1  0  0  0  0  0999 V2000
  186.5710  178.2530  140.1820 C   0  0  1  0  0  3  0  0  0  0  0  0
  181.8080  178.8630  140.5860 N   0  0  0  0  0  0  0  0  0  0  0  0
  181.8730  178.6290  141.9230 C   0  0  0  0  0  3  0  0  0  0  0  0
  187.9020  177.7740  142.2810 C   0  0  0  0  0  0  0  0  0  0  0  0
  187.9650  177.7520  143.7030 N   0  0  0  0  0  0  0  0  0  0  0  0
  187.4390  177.9020  138.0000 C   0  0  2  0  0  3  0  0  0  0  0  0
  185.2470  179.0600  138.2260 O   0  0  0  0  0  0  0  0  0  0  0  0
  187.1900  178.0080  145.9210 C   0  0  2  0  0  3  0  0  0  0  0  0
  182.9300  179.0080  139.8340 C   0  0  0  0  0  3  0  0  0  0  0  0
  185.4460  179.1270  139.6370 C   0  0  1  0  0  3  0  0  0  0  0  0
  184.1940  178.9070  140.4270 C   0  0  0  0  0  0  0  0  0  0  0  0
  185.5940  178.5790  142.4500 N   0  0  0  0  0  0  0  0  0  0  0  0
  188.5070  177.2350  145.9360 C   0  0  0  0  0  2  0  0  0  0  0  0
  185.9420  177.9850  137.6110 C   0  0  2  0  0  3  0  0  0  0  0  0
  188.8210  176.8890  144.4880 C   0  0  0  0  0  2  0  0  0  0  0  0
  183.1130  178.5370  142.5580 C   0  0  0  0  0  3  0  0  0  0  0  0
  184.2940  178.6830  141.8130 C   0  0  0  0  0  0  0  0  0  0  0  0
  185.6360  178.4820  143.9230 C   0  0  0  0  0  2  0  0  0  0  0  0
  187.7300  178.4570  139.3280 N   0  0  0  0  0  2  0  0  0  0  0  0
  188.7330  177.1180  141.5960 O   0  0  0  0  0  0  0  0  0  0  0  0
  186.1500  177.1270  146.2330 O   0  0  0  0  0  1  0  0  0  0  0  0
  186.8420  178.6340  141.6430 C   0  0  2  0  0  3  0  0  0  0  0  0
  187.0600  178.5490  144.4960 C   0  0  2  0  0  3  0  0  0  0  0  0
  183.8710  176.6770  137.1790 C   0  0  0  0  0  2  0  0  0  0  0  0
  185.2300  176.6580  137.8470 C   0  0  1  0  0  3  0  0  0  0  0  0
  185.0270  175.9580  136.5190 C   0  0  1  0  0  3  0  0  0  0  0  0
  184.9030  174.4670  136.7640 C   0  0  0  0  0  2  0  0  0  0  0  0
  183.7160  173.9320  136.0420 C   0  0  0  0  0  0  0  0  0  0  0  0
  183.6890  173.9380  134.7840 O   0  0  0  0  0  0  0  0  0  0  0  0
  182.6540  173.3920  136.7550 O   0  0  0  0  0  1  0  0  0  0  0  0
  189.2750  179.3460  137.5690 F   0  0  0  0  0  0  0  0  0  0  0  0
  188.2740  178.6170  136.9550 C   0  0  0  0  0  2  0  0  0  0  0  0
  1 19  1  6  0  0  0
  1 22  1  0  0  0  0
  2  3  1  0  0  0  0
  3 16  2  0  0  0  0
  4  5  1  0  0  0  0
  5 15  1  0  0  0  0
  5 23  1  0  0  0  0
  6 32  1  6  0  0  0
  6 19  1  0  0  0  0
  8 13  1  0  0  0  0
  8 21  1  6  0  0  0
  9 11  1  0  0  0  0
  9  2  2  0  0  0  0
 10  7  1  6  0  0  0
 10  1  1  0  0  0  0
 10 11  1  0  0  0  0
 11 17  2  0  0  0  0
 12 18  1  0  0  0  0
 14 25  1  0  0  0  0
 14  6  1  0  0  0  0
 14  7  1  1  0  0  0
 15 13  1  0  0  0  0
 17 12  1  0  0  0  0
 17 16  1  0  0  0  0
 20  4  2  0  0  0  0
 22  4  1  1  0  0  0
 22 12  1  0  0  0  0
 23 18  1  6  0  0  0
 23  8  1  0  0  0  0
 25 24  1  6  0  0  0
 26 27  1  1  0  0  0
 26 24  1  0  0  0  0
 26 25  1  0  0  0  0
 28 30  1  0  0  0  0
 28 27  1  0  0  0  0
 29 28  2  0  0  0  0
 32 31  1  0  0  0  0
M  END
>  <MODEL>
4

>  <REMARK>
 VINA RESULT:      -6.8      1.679      2.060
  Name = 
  4 active torsions:
  status: ('A' for Active; 'I' for Inactive)
    1  A    between atoms: C_7  and  C_19
    2  A    between atoms: C_10  and  C_17
    3  A    between atoms: C_20  and  C_29
    4  A    between atoms: C_29  and  C_30
                            x       y       z     vdW  Elec       q    Type
                         _______ _______ _______ _____ _____    ______ ____

>  <TORSDO>
F 4

$$$$
=
 OpenBabel11122410523D

 32 37  0  0  1  0  0  0  0  0999 V2000
  187.0760  178.0690  139.9410 C   0  0  1  0  0  3  0  0  0  0  0  0
  182.9850  178.8840  142.3530 N   0  0  0  0  0  0  0  0  0  0  0  0
  183.6010  178.6000  143.5310 C   0  0  0  0  0  3  0  0  0  0  0  0
  189.1460  177.4570  141.2620 C   0  0  0  0  0  0  0  0  0  0  0  0
  189.8100  177.3820  142.5200 N   0  0  0  0  0  0  0  0  0  0  0  0
  186.9080  177.7560  137.5930 C   0  0  2  0  0  3  0  0  0  0  0  0
  185.0920  179.0050  138.7500 O   0  0  0  0  0  0  0  0  0  0  0  0
  190.0710  177.5950  144.8590 C   0  0  2  0  0  3  0  0  0  0  0  0
  183.6840  179.0030  141.1950 C   0  0  0  0  0  3  0  0  0  0  0  0
  185.8770  179.0130  139.9410 C   0  0  1  0  0  3  0  0  0  0  0  0
  185.0720  178.8230  141.1880 C   0  0  0  0  0  0  0  0  0  0  0  0
  187.1810  178.3600  142.4130 N   0  0  0  0  0  0  0  0  0  0  0  0
  191.2220  176.7620  144.2990 C   0  0  0  0  0  2  0  0  0  0  0  0
  185.3950  177.9210  137.8840 C   0  0  2  0  0  3  0  0  0  0  0  0
  190.8680  176.4530  142.8520 C   0  0  0  0  0  2  0  0  0  0  0  0
  184.9860  178.4290  143.5730 C   0  0  0  0  0  3  0  0  0  0  0  0
  185.7420  178.5470  142.3960 C   0  0  0  0  0  0  0  0  0  0  0  0
  187.8430  178.2100  143.7250 C   0  0  0  0  0  2  0  0  0  0  0  0
  187.7690  178.2500  138.6760 N   0  0  0  0  0  2  0  0  0  0  0  0
  189.5670  176.7870  140.2790 O   0  0  0  0  0  0  0  0  0  0  0  0
  189.2160  176.7520  145.5750 O   0  0  0  0  0  1  0  0  0  0  0  0
  187.9660  178.3860  141.1500 C   0  0  2  0  0  3  0  0  0  0  0  0
  189.3760  178.1910  143.6330 C   0  0  2  0  0  3  0  0  0  0  0  0
  183.3030  176.5850  138.0450 C   0  0  0  0  0  2  0  0  0  0  0  0
  184.7790  176.6210  138.3870 C   0  0  1  0  0  3  0  0  0  0  0  0
  184.2930  175.8090  137.2030 C   0  0  1  0  0  3  0  0  0  0  0  0
  184.2550  174.3450  137.5940 C   0  0  0  0  0  2  0  0  0  0  0  0
  185.5200  173.6780  137.1830 C   0  0  0  0  0  0  0  0  0  0  0  0
  186.0850  172.8660  137.9600 O   0  0  0  0  0  1  0  0  0  0  0  0
  186.0580  173.9230  135.9270 O   0  0  0  0  0  0  0  0  0  0  0  0
  186.4290  178.0310  135.2840 F   0  0  0  0  0  0  0  0  0  0  0  0
  187.2550  178.4690  136.3010 C   0  0  0  0  0  2  0  0  0  0  0  0
  1 19  1  6  0  0  0
  1 22  1  0  0  0  0
  2  3  1  0  0  0  0
  3 16  2  0  0  0  0
  4  5  1  0  0  0  0
  5 15  1  0  0  0  0
  5 23  1  0  0  0  0
  6 32  1  6  0  0  0
  6 14  1  0  0  0  0
  6 19  1  0  0  0  0
  8 21  1  6  0  0  0
  9  2  2  0  0  0  0
 10  7  1  6  0  0  0
 10  1  1  0  0  0  0
 10 11  1  0  0  0  0
 11  9  1  0  0  0  0
 11 17  2  0  0  0  0
 12 18  1  0  0  0  0
 13  8  1  0  0  0  0
 14 25  1  0  0  0  0
 14  7  1  1  0  0  0
 15 13  1  0  0  0  0
 17 12  1  0  0  0  0
 17 16  1  0  0  0  0
 20  4  2  0  0  0  0
 22  4  1  1  0  0  0
 22 12  1  0  0  0  0
 23 18  1  1  0  0  0
 23  8  1  0  0  0  0
 25 24  1  1  0  0  0
 26 27  1  1  0  0  0
 26 24  1  0  0  0  0
 26 25  1  0  0  0  0
 28 27  1  0  0  0  0
 28 29  1  0  0  0  0
 30 28  2  0  0  0  0
 31 32  1  0  0  0  0
M  END
>  <MODEL>
5

>  <REMARK>
 VINA RESULT:      -6.7      2.203      3.056
  Name = 
  4 active torsions:
  status: ('A' for Active; 'I' for Inactive)
    1  A    between atoms: C_7  and  C_19
    2  A    between atoms: C_10  and  C_17
    3  A    between atoms: C_20  and  C_29
    4  A    between atoms: C_29  and  C_30
                            x       y       z     vdW  Elec       q    Type
                         _______ _______ _______ _____ _____    ______ ____

>  <TORSDO>
F 4

$$$$
=
 OpenBabel11122410523D

 32 37  0  0  1  0  0  0  0  0999 V2000
  182.0910  177.1630  139.3700 C   0  0  1  0  0  3  0  0  0  0  0  0
  186.5230  177.7940  137.5900 N   0  0  0  0  0  0  0  0  0  0  0  0
  186.4790  176.5720  136.9950 C   0  0  0  0  0  3  0  0  0  0  0  0
  180.8610  175.0250  138.8000 C   0  0  0  0  0  0  0  0  0  0  0  0
  180.7610  173.8580  137.9910 N   0  0  0  0  0  0  0  0  0  0  0  0
  181.4100  178.6100  141.1250 C   0  0  2  0  0  3  0  0  0  0  0  0
  183.2240  179.3750  139.6020 O   0  0  0  0  0  0  0  0  0  0  0  0
  181.3760  172.3160  136.3090 C   0  0  2  0  0  3  0  0  0  0  0  0
  185.4260  178.3420  138.1730 C   0  0  0  0  0  3  0  0  0  0  0  0
  182.9710  178.2500  138.7620 C   0  0  1  0  0  3  0  0  0  0  0  0
  184.2120  177.6450  138.1850 C   0  0  0  0  0  0  0  0  0  0  0  0
  182.8800  175.6470  137.5580 N   0  0  0  0  0  0  0  0  0  0  0  0
  180.3010  171.6900  137.1950 C   0  0  0  0  0  2  0  0  0  0  0  0
  182.8470  179.1610  140.9550 C   0  0  2  0  0  3  0  0  0  0  0  0
  180.1310  172.6180  138.3880 C   0  0  0  0  0  2  0  0  0  0  0  0
  185.2850  175.8500  136.9700 C   0  0  0  0  0  3  0  0  0  0  0  0
  184.1290  176.3850  137.5610 C   0  0  0  0  0  0  0  0  0  0  0  0
  182.8180  174.3970  136.7730 C   0  0  0  0  0  2  0  0  0  0  0  0
  180.9450  177.8220  139.9760 N   0  0  0  0  0  2  0  0  0  0  0  0
  180.2480  175.0930  139.9000 O   0  0  0  0  0  0  0  0  0  0  0  0
  182.5960  171.6870  136.5750 O   0  0  0  0  0  1  0  0  0  0  0  0
  181.6850  176.1710  138.2720 C   0  0  2  0  0  3  0  0  0  0  0  0
  181.4070  173.7940  136.7020 C   0  0  2  0  0  3  0  0  0  0  0  0
  185.2470  178.9060  141.5570 C   0  0  0  0  0  2  0  0  0  0  0  0
  183.8670  178.2940  141.6840 C   0  0  1  0  0  3  0  0  0  0  0  0
  184.4570  179.0820  142.8360 C   0  0  1  0  0  3  0  0  0  0  0  0
  184.9660  178.1110  143.8840 C   0  0  0  0  0  2  0  0  0  0  0  0
  184.9080  178.7430  145.2310 C   0  0  0  0  0  0  0  0  0  0  0  0
  185.9710  178.9980  145.8530 O   0  0  0  0  0  1  0  0  0  0  0  0
  183.6820  179.0860  145.7850 O   0  0  0  0  0  0  0  0  0  0  0  0
  180.5410  180.1690  142.6910 F   0  0  0  0  0  0  0  0  0  0  0  0
  180.4530  179.7590  141.3750 C   0  0  0  0  0  2  0  0  0  0  0  0
  1 19  1  6  0  0  0
  2  9  1  0  0  0  0
  3  2  2  0  0  0  0
  4 20  2  0  0  0  0
  5 15  1  0  0  0  0
  5  4  1  0  0  0  0
  6 32  1  6  0  0  0
  8 21  1  1  0  0  0
  8 23  1  0  0  0  0
  8 13  1  0  0  0  0
  9 11  2  0  0  0  0
 10 11  1  1  0  0  0
 10  1  1  0  0  0  0
 10  7  1  0  0  0  0
 12 17  1  0  0  0  0
 12 22  1  0  0  0  0
 13 15  1  0  0  0  0
 14  7  1  6  0  0  0
 14  6  1  0  0  0  0
 14 25  1  0  0  0  0
 16  3  1  0  0  0  0
 16 17  2  0  0  0  0
 17 11  1  0  0  0  0
 18 12  1  0  0  0  0
 19  6  1  0  0  0  0
 22  4  1  1  0  0  0
 22  1  1  0  0  0  0
 23 18  1  1  0  0  0
 23  5  1  0  0  0  0
 24 26  1  0  0  0  0
 25 24  1  6  0  0  0
 25 26  1  0  0  0  0
 26 27  1  1  0  0  0
 27 28  1  0  0  0  0
 28 30  2  0  0  0  0
 28 29  1  0  0  0  0
 32 31  1  0  0  0  0
M  END
>  <MODEL>
6

>  <REMARK>
 VINA RESULT:      -6.6      2.917      7.883
  Name = 
  4 active torsions:
  status: ('A' for Active; 'I' for Inactive)
    1  A    between atoms: C_7  and  C_19
    2  A    between atoms: C_10  and  C_17
    3  A    between atoms: C_20  and  C_29
    4  A    between atoms: C_29  and  C_30
                            x       y       z     vdW  Elec       q    Type
                         _______ _______ _______ _____ _____    ______ ____

>  <TORSDO>
F 4

$$$$
=
 OpenBabel11122410523D

 32 37  0  0  1  0  0  0  0  0999 V2000
  184.6040  177.0960  138.0340 C   0  0  1  0  0  3  0  0  0  0  0  0
  189.2630  178.0330  138.8330 N   0  0  0  0  0  0  0  0  0  0  0  0
  189.6110  176.8140  138.3420 C   0  0  0  0  0  3  0  0  0  0  0  0
  183.9910  174.8830  136.9690 C   0  0  0  0  0  0  0  0  0  0  0  0
  184.4020  173.7150  136.2660 N   0  0  0  0  0  0  0  0  0  0  0  0
  183.0150  178.4840  139.1230 C   0  0  2  0  0  3  0  0  0  0  0  0
  185.3100  179.3780  138.7590 O   0  0  0  0  0  0  0  0  0  0  0  0
  185.9020  172.2270  135.2070 C   0  0  2  0  0  3  0  0  0  0  0  0
  187.9920  178.5030  138.7340 C   0  0  0  0  0  3  0  0  0  0  0  0
  185.6060  178.2430  137.9460 C   0  0  1  0  0  3  0  0  0  0  0  0
  186.9990  177.7260  138.1280 C   0  0  0  0  0  0  0  0  0  0  0  0
  186.3190  175.6450  136.9570 N   0  0  0  0  0  0  0  0  0  0  0  0
  184.5610  171.5260  135.4150 C   0  0  0  0  0  2  0  0  0  0  0  0
  184.2910  179.1320  139.7170 C   0  0  2  0  0  3  0  0  0  0  0  0
  183.7330  172.4340  136.3110 C   0  0  0  0  0  2  0  0  0  0  0  0
  188.6550  176.0130  137.7150 C   0  0  0  0  0  3  0  0  0  0  0  0
  187.3320  176.4660  137.5940 C   0  0  0  0  0  0  0  0  0  0  0  0
  186.7560  174.3990  136.2950 C   0  0  0  0  0  2  0  0  0  0  0  0
  183.2740  177.6730  137.9260 N   0  0  0  0  0  2  0  0  0  0  0  0
  182.8870  174.9030  137.5800 O   0  0  0  0  0  0  0  0  0  0  0  0
  186.8340  171.6810  136.0950 O   0  0  0  0  0  1  0  0  0  0  0  0
  184.8990  176.0840  136.9190 C   0  0  2  0  0  3  0  0  0  0  0  0
  185.6330  173.7020  135.5120 C   0  0  2  0  0  3  0  0  0  0  0  0
  186.0570  179.0070  141.4640 C   0  0  0  0  0  2  0  0  0  0  0  0
  184.8240  178.3320  140.9000 C   0  0  1  0  0  3  0  0  0  0  0  0
  184.7220  179.1740  142.1560 C   0  0  1  0  0  3  0  0  0  0  0  0
  184.6560  178.2530  143.3590 C   0  0  0  0  0  2  0  0  0  0  0  0
  183.6630  178.7720  144.3400 C   0  0  0  0  0  0  0  0  0  0  0  0
  182.4730  178.9700  143.9840 O   0  0  0  0  0  0  0  0  0  0  0  0
  184.0410  179.0030  145.6560 O   0  0  0  0  0  1  0  0  0  0  0  0
  182.6340  180.7930  138.7200 F   0  0  0  0  0  0  0  0  0  0  0  0
  182.0040  179.5660  138.7960 C   0  0  0  0  0  2  0  0  0  0  0  0
  1 19  1  6  0  0  0
  3  2  2  0  0  0  0
  4 20  2  0  0  0  0
  5 15  1  0  0  0  0
  5  4  1  0  0  0  0
  6 32  1  6  0  0  0
  6 14  1  0  0  0  0
  8 13  1  0  0  0  0
  8 23  1  0  0  0  0
  8 21  1  1  0  0  0
  9  2  1  0  0  0  0
 10  1  1  0  0  0  0
 10 11  1  1  0  0  0
 10  7  1  0  0  0  0
 11  9  2  0  0  0  0
 12 17  1  0  0  0  0
 13 15  1  0  0  0  0
 14  7  1  6  0  0  0
 14 25  1  0  0  0  0
 16  3  1  0  0  0  0
 17 16  2  0  0  0  0
 17 11  1  0  0  0  0
 18 12  1  0  0  0  0
 19  6  1  0  0  0  0
 22 12  1  0  0  0  0
 22  4  1  1  0  0  0
 22  1  1  0  0  0  0
 23  5  1  0  0  0  0
 23 18  1  1  0  0  0
 24 26  1  0  0  0  0
 25 24  1  6  0  0  0
 25 26  1  0  0  0  0
 26 27  1  1  0  0  0
 27 28  1  0  0  0  0
 28 30  1  0  0  0  0
 29 28  2  0  0  0  0
 31 32  1  0  0  0  0
M  END
>  <MODEL>
7

>  <REMARK>
 VINA RESULT:      -6.6      2.739      7.983
  Name = 
  4 active torsions:
  status: ('A' for Active; 'I' for Inactive)
    1  A    between atoms: C_7  and  C_19
    2  A    between atoms: C_10  and  C_17
    3  A    between atoms: C_20  and  C_29
    4  A    between atoms: C_29  and  C_30
                            x       y       z     vdW  Elec       q    Type
                         _______ _______ _______ _____ _____    ______ ____

>  <TORSDO>
F 4

$$$$
=
 OpenBabel11122410523D

 32 37  0  0  1  0  0  0  0  0999 V2000
  186.2260  178.2530  139.5800 C   0  0  1  0  0  3  0  0  0  0  0  0
  181.9280  177.5770  137.5080 N   0  0  0  0  0  0  0  0  0  0  0  0
  181.3140  177.6350  138.7190 C   0  0  0  0  0  3  0  0  0  0  0  0
  186.3100  178.5820  142.0880 C   0  0  0  0  0  0  0  0  0  0  0  0
  185.6200  178.8560  143.3040 N   0  0  0  0  0  0  0  0  0  0  0  0
  188.1480  177.7400  138.2840 C   0  0  2  0  0  3  0  0  0  0  0  0
  186.0260  178.2620  137.0920 O   0  0  0  0  0  0  0  0  0  0  0  0
  183.7700  179.3120  144.7010 C   0  0  2  0  0  3  0  0  0  0  0  0
  183.2440  177.8800  137.3620 C   0  0  0  0  0  3  0  0  0  0  0  0
  185.4440  178.6550  138.3340 C   0  0  1  0  0  3  0  0  0  0  0  0
  184.0090  178.2520  138.4730 C   0  0  0  0  0  0  0  0  0  0  0  0
  184.1700  178.7280  140.9040 N   0  0  0  0  0  0  0  0  0  0  0  0
  184.9770  178.9540  145.5670 C   0  0  0  0  0  2  0  0  0  0  0  0
  187.0830  177.3250  137.2390 C   0  0  2  0  0  3  0  0  0  0  0  0
  186.0490  178.4350  144.6200 C   0  0  0  0  0  2  0  0  0  0  0  0
  182.0360  178.0180  139.8510 C   0  0  0  0  0  3  0  0  0  0  0  0
  183.3970  178.3400  139.7390 C   0  0  0  0  0  0  0  0  0  0  0  0
  183.4460  178.9350  142.1750 C   0  0  0  0  0  2  0  0  0  0  0  0
  187.6180  178.6020  139.3490 N   0  0  0  0  0  2  0  0  0  0  0  0
  187.4600  178.0630  142.1110 O   0  0  0  0  0  0  0  0  0  0  0  0
  182.8580  178.2530  144.7490 O   0  0  0  0  0  1  0  0  0  0  0  0
  185.6340  178.9710  140.7990 C   0  0  2  0  0  3  0  0  0  0  0  0
  184.3320  179.5070  143.2920 C   0  0  2  0  0  3  0  0  0  0  0  0
  185.7130  175.4530  136.3420 C   0  0  0  0  0  2  0  0  0  0  0  0
  186.5480  175.9240  137.5140 C   0  0  1  0  0  3  0  0  0  0  0  0
  187.1340  174.9590  136.5040 C   0  0  1  0  0  3  0  0  0  0  0  0
  187.1220  173.5630  137.0950 C   0  0  0  0  0  2  0  0  0  0  0  0
  188.3980  172.8660  136.7720 C   0  0  0  0  0  0  0  0  0  0  0  0
  188.3850  171.8310  136.0580 O   0  0  0  0  0  0  0  0  0  0  0  0
  189.6040  173.3780  137.2290 O   0  0  0  0  0  1  0  0  0  0  0  0
  189.1850  178.2820  136.2180 F   0  0  0  0  0  0  0  0  0  0  0  0
  189.2960  178.4430  137.5860 C   0  0  0  0  0  2  0  0  0  0  0  0
  1 19  1  6  0  0  0
  1 22  1  0  0  0  0
  2  3  1  0  0  0  0
  3 16  2  0  0  0  0
  4 20  2  0  0  0  0
  4  5  1  0  0  0  0
  5 15  1  0  0  0  0
  6 32  1  6  0  0  0
  6 19  1  0  0  0  0
  8 21  1  6  0  0  0
  8 13  1  0  0  0  0
  9  2  2  0  0  0  0
  9 11  1  0  0  0  0
 10  7  1  6  0  0  0
 10 11  1  0  0  0  0
 10  1  1  0  0  0  0
 11 17  2  0  0  0  0
 12 18  1  0  0  0  0
 14  7  1  1  0  0  0
 14 25  1  0  0  0  0
 14  6  1  0  0  0  0
 15 13  1  0  0  0  0
 17 16  1  0  0  0  0
 17 12  1  0  0  0  0
 22 12  1  0  0  0  0
 22  4  1  1  0  0  0
 23 18  1  6  0  0  0
 23  5  1  0  0  0  0
 23  8  1  0  0  0  0
 24 26  1  0  0  0  0
 25 24  1  6  0  0  0
 26 27  1  1  0  0  0
 26 25  1  0  0  0  0
 28 27  1  0  0  0  0
 28 30  1  0  0  0  0
 29 28  2  0  0  0  0
 31 32  1  0  0  0  0
M  END
>  <MODEL>
8

>  <REMARK>
 VINA RESULT:      -6.5      2.096      2.765
  Name = 
  4 active torsions:
  status: ('A' for Active; 'I' for Inactive)
    1  A    between atoms: C_7  and  C_19
    2  A    between atoms: C_10  and  C_17
    3  A    between atoms: C_20  and  C_29
    4  A    between atoms: C_29  and  C_30
                            x       y       z     vdW  Elec       q    Type
                         _______ _______ _______ _____ _____    ______ ____

>  <TORSDO>
F 4

$$$$
=
 OpenBabel11122410523D

 32 37  0  0  1  0  0  0  0  0999 V2000
  183.7860  178.3860  139.3160 C   0  0  1  0  0  3  0  0  0  0  0  0
  182.7860  178.7890  144.0120 N   0  0  0  0  0  0  0  0  0  0  0  0
  184.0760  178.5010  144.3310 C   0  0  0  0  0  3  0  0  0  0  0  0
  186.1700  177.8720  138.6360 C   0  0  0  0  0  0  0  0  0  0  0  0
  187.5460  177.7910  138.9910 N   0  0  0  0  0  0  0  0  0  0  0  0
  181.9480  178.1630  137.8300 C   0  0  2  0  0  3  0  0  0  0  0  0
  181.5510  179.2230  140.0470 O   0  0  0  0  0  0  0  0  0  0  0  0
  189.4430  177.9220  140.3940 C   0  0  2  0  0  3  0  0  0  0  0  0
  182.4030  179.0110  142.7280 C   0  0  0  0  0  3  0  0  0  0  0  0
  182.9590  179.2370  140.2750 C   0  0  1  0  0  3  0  0  0  0  0  0
  183.3390  178.9340  141.6900 C   0  0  0  0  0  0  0  0  0  0  0  0
  185.6740  178.5760  140.9300 N   0  0  0  0  0  0  0  0  0  0  0  0
  189.8230  177.2010  139.1020 C   0  0  0  0  0  2  0  0  0  0  0  0
  181.1380  178.2040  139.1500 C   0  0  2  0  0  3  0  0  0  0  0  0
  188.5220  176.9300  138.3610 C   0  0  0  0  0  2  0  0  0  0  0  0
  185.0450  178.4310  143.3280 C   0  0  0  0  0  3  0  0  0  0  0  0
  184.6860  178.6560  141.9900 C   0  0  0  0  0  0  0  0  0  0  0  0
  187.0910  178.4180  141.3170 C   0  0  0  0  0  2  0  0  0  0  0  0
  183.3190  178.6720  137.9690 N   0  0  0  0  0  2  0  0  0  0  0  0
  185.7410  177.2780  137.6080 O   0  0  0  0  0  0  0  0  0  0  0  0
  189.4090  176.9870  141.4340 O   0  0  0  0  0  1  0  0  0  0  0  0
  185.2730  178.7150  139.5040 C   0  0  2  0  0  3  0  0  0  0  0  0
  188.0590  178.5170  140.1280 C   0  0  2  0  0  3  0  0  0  0  0  0
  180.0130  176.8030  140.8710 C   0  0  0  0  0  2  0  0  0  0  0  0
  181.1150  176.8400  139.8320 C   0  0  1  0  0  3  0  0  0  0  0  0
  179.8020  176.1500  139.5220 C   0  0  1  0  0  3  0  0  0  0  0  0
  179.9940  174.6510  139.6480 C   0  0  0  0  0  2  0  0  0  0  0  0
  179.6020  173.9820  138.3780 C   0  0  0  0  0  0  0  0  0  0  0  0
  178.9310  174.6090  137.5170 O   0  0  0  0  0  0  0  0  0  0  0  0
  180.0060  172.6780  138.1250 O   0  0  0  0  0  1  0  0  0  0  0  0
  181.2350  180.3010  137.0800 F   0  0  0  0  0  0  0  0  0  0  0  0
  181.2170  178.9560  136.7630 C   0  0  0  0  0  2  0  0  0  0  0  0
  1 19  1  6  0  0  0
  1 22  1  0  0  0  0
  1 10  1  0  0  0  0
  2  3  1  0  0  0  0
  4  5  1  0  0  0  0
  5 23  1  0  0  0  0
  6 32  1  6  0  0  0
  6 19  1  0  0  0  0
  6 14  1  0  0  0  0
  8 21  1  1  0  0  0
  9  2  2  0  0  0  0
 10  7  1  1  0  0  0
 10 11  1  0  0  0  0
 11 17  2  0  0  0  0
 11  9  1  0  0  0  0
 12 18  1  0  0  0  0
 12 17  1  0  0  0  0
 13  8  1  0  0  0  0
 14 25  1  0  0  0  0
 14  7  1  1  0  0  0
 15  5  1  0  0  0  0
 15 13  1  0  0  0  0
 16  3  2  0  0  0  0
 17 16  1  0  0  0  0
 20  4  2  0  0  0  0
 22  4  1  6  0  0  0
 22 12  1  0  0  0  0
 23  8  1  0  0  0  0
 23 18  1  1  0  0  0
 25 24  1  1  0  0  0
 26 27  1  1  0  0  0
 26 25  1  0  0  0  0
 26 24  1  0  0  0  0
 28 27  1  0  0  0  0
 29 28  2  0  0  0  0
 30 28  1  0  0  0  0
 32 31  1  0  0  0  0
M  END
>  <MODEL>
9

>  <REMARK>
 VINA RESULT:      -6.2      2.928      4.699
  Name = 
  4 active torsions:
  status: ('A' for Active; 'I' for Inactive)
    1  A    between atoms: C_7  and  C_19
    2  A    between atoms: C_10  and  C_17
    3  A    between atoms: C_20  and  C_29
    4  A    between atoms: C_29  and  C_30
                            x       y       z     vdW  Elec       q    Type
                         _______ _______ _______ _____ _____    ______ ____

>  <TORSDO>
F 4

$$$$
