=
 OpenBabel11122410303D

 30 35  0  0  1  0  0  0  0  0999 V2000
  185.8460  178.1730  141.7690 C   0  0  0  0  0  0  0  0  0  0  0  0
  183.3780  178.7760  141.7950 C   0  0  0  0  0  0  0  0  0  0  0  0
  185.8300  177.9500  145.9220 N   0  0  0  0  0  2  0  0  0  0  0  0
  187.0760  177.9190  142.6270 C   0  0  0  0  0  0  0  0  0  0  0  0
  186.1400  179.1550  140.7980 O   0  0  0  0  0  0  0  0  0  0  0  0
  189.3710  177.8890  139.8360 O   0  0  0  0  0  0  0  0  0  0  0  0
  190.1010  178.0350  143.5500 C   0  0  1  0  0  3  0  0  0  0  0  0
  188.3280  178.0540  140.5240 C   0  0  0  0  0  0  0  0  0  0  0  0
  189.3870  178.1350  144.9010 C   0  0  2  0  0  3  0  0  0  0  0  0
  187.2150  177.6760  146.1320 C   0  0  0  0  0  0  0  0  0  0  0  0
  187.0910  178.6400  139.8760 C   0  0  1  0  0  3  0  0  0  0  0  0
  188.3000  177.6850  141.9120 N   0  0  0  0  0  0  0  0  0  0  0  0
  182.1790  179.0140  142.4740 C   0  0  0  0  0  3  0  0  0  0  0  0
  190.2690  177.3820  145.8780 C   0  0  0  0  0  2  0  0  0  0  0  0
  191.5360  177.6250  143.8420 C   0  0  0  0  0  2  0  0  0  0  0  0
  183.3840  178.8120  140.4380 F   0  0  0  0  0  0  0  0  0  0  0  0
  185.7200  178.0900  144.6460 C   0  0  0  0  0  0  0  0  0  0  0  0
  182.1350  178.9560  143.8680 C   0  0  0  0  0  3  0  0  0  0  0  0
  184.5550  178.4910  142.5120 C   0  0  0  0  0  0  0  0  0  0  0  0
  186.9820  177.9080  143.9670 C   0  0  0  0  0  0  0  0  0  0  0  0
  187.7010  177.5200  147.2850 O   0  0  0  0  0  0  0  0  0  0  0  0
  188.0040  177.6400  144.9330 N   0  0  0  0  0  0  0  0  0  0  0  0
  191.6730  177.5560  145.3490 C   0  0  0  0  0  2  0  0  0  0  0  0
  189.2250  175.6730  143.0190 C   0  0  0  0  0  1  0  0  0  0  0  0
  183.2900  178.6540  144.5920 C   0  0  0  0  0  3  0  0  0  0  0  0
  184.4940  178.4150  143.9200 C   0  0  0  0  0  0  0  0  0  0  0  0
  189.4870  177.0910  142.5190 C   0  0  2  0  0  3  0  0  0  0  0  0
  186.4680  177.7590  138.7870 C   0  0  0  0  0  2  0  0  0  0  0  0
  187.6720  178.5790  136.8210 C   0  0  0  0  0  2  0  0  0  0  0  0
  186.5080  178.3930  137.4340 C   0  0  0  0  0  3  0  0  0  0  0  0
  1 19  2  0  0  0  0
  1  4  1  0  0  0  0
  2 13  2  0  0  0  0
  2 19  1  0  0  0  0
  3 10  1  0  0  0  0
  4 20  2  0  0  0  0
  5  1  1  0  0  0  0
  6  8  2  0  0  0  0
  7 15  1  1  0  0  0
  7  9  1  0  0  0  0
  8 12  1  0  0  0  0
  9 22  1  0  0  0  0
  9 14  1  1  0  0  0
 10 21  2  0  0  0  0
 11 28  1  1  0  0  0
 11  8  1  0  0  0  0
 11  5  1  0  0  0  0
 12 27  1  0  0  0  0
 12  4  1  0  0  0  0
 13 18  1  0  0  0  0
 15 23  1  0  0  0  0
 16  2  1  0  0  0  0
 17  3  1  0  0  0  0
 18 25  2  0  0  0  0
 19 26  1  0  0  0  0
 20 17  1  0  0  0  0
 20 22  1  0  0  0  0
 22 10  1  0  0  0  0
 23 14  1  0  0  0  0
 26 25  1  0  0  0  0
 26 17  2  0  0  0  0
 27 24  1  1  0  0  0
 27  7  1  0  0  0  0
 29 30  2  0  0  0  0
 30 28  1  0  0  0  0
M  END
>  <MODEL>
1

>  <REMARK>
 VINA RESULT:      -9.9      0.000      0.000
  Name = 
  2 active torsions:
  status: ('A' for Active; 'I' for Inactive)
    1  A    between atoms: C_11  and  C_28
    2  A    between atoms: C_28  and  C_30
                            x       y       z     vdW  Elec       q    Type
                         _______ _______ _______ _____ _____    ______ ____

>  <TORSDO>
F 2

$$$$
=
 OpenBabel11122410303D

 30 35  0  0  1  0  0  0  0  0999 V2000
  189.2850  177.4350  143.5550 C   0  0  0  0  0  0  0  0  0  0  0  0
  191.2470  176.6050  144.9400 C   0  0  0  0  0  0  0  0  0  0  0  0
  187.0440  177.9200  147.0250 N   0  0  0  0  0  2  0  0  0  0  0  0
  187.8250  177.8580  143.5900 C   0  0  0  0  0  0  0  0  0  0  0  0
  189.4630  176.4260  142.5840 O   0  0  0  0  0  0  0  0  0  0  0  0
  187.4590  177.9270  139.9960 O   0  0  0  0  0  0  0  0  0  0  0  0
  184.7990  178.0870  142.6890 C   0  0  1  0  0  3  0  0  0  0  0  0
  187.9270  177.7090  141.1460 C   0  0  0  0  0  0  0  0  0  0  0  0
  184.6380  178.0060  144.2100 C   0  0  2  0  0  3  0  0  0  0  0  0
  185.8130  178.3350  146.4350 C   0  0  0  0  0  0  0  0  0  0  0  0
  189.2400  176.9690  141.2890 C   0  0  1  0  0  3  0  0  0  0  0  0
  187.2300  178.1610  142.3180 N   0  0  0  0  0  0  0  0  0  0  0  0
  191.8390  176.2980  146.1690 C   0  0  0  0  0  3  0  0  0  0  0  0
  183.4580  178.8990  144.5360 C   0  0  0  0  0  2  0  0  0  0  0  0
  183.4970  178.6480  142.1390 C   0  0  0  0  0  2  0  0  0  0  0  0
  191.9820  176.4830  143.8060 F   0  0  0  0  0  0  0  0  0  0  0  0
  187.8210  177.6890  146.0230 C   0  0  0  0  0  0  0  0  0  0  0  0
  191.1170  176.4400  147.3560 C   0  0  0  0  0  3  0  0  0  0  0  0
  189.9110  177.0440  144.8880 C   0  0  0  0  0  0  0  0  0  0  0  0
  187.1680  177.9450  144.7590 C   0  0  0  0  0  0  0  0  0  0  0  0
  184.7960  178.6090  147.1270 O   0  0  0  0  0  0  0  0  0  0  0  0
  185.8220  178.3690  145.0000 N   0  0  0  0  0  0  0  0  0  0  0  0
  182.5650  178.8250  143.3200 C   0  0  0  0  0  2  0  0  0  0  0  0
  186.0850  180.3170  142.7280 C   0  0  0  0  0  1  0  0  0  0  0  0
  189.7990  176.8950  147.3210 C   0  0  0  0  0  3  0  0  0  0  0  0
  189.1970  177.2040  146.0960 C   0  0  0  0  0  0  0  0  0  0  0  0
  185.9810  178.9010  142.1680 C   0  0  2  0  0  3  0  0  0  0  0  0
  190.4540  177.7160  140.7260 C   0  0  0  0  0  2  0  0  0  0  0  0
  190.4480  176.2600  138.7590 C   0  0  0  0  0  2  0  0  0  0  0  0
  191.1530  176.9550  139.6450 C   0  0  0  0  0  3  0  0  0  0  0  0
  1  4  2  0  0  0  0
  1 19  1  0  0  0  0
  2 13  1  0  0  0  0
  4 20  1  0  0  0  0
  5  1  1  0  0  0  0
  6  8  2  0  0  0  0
  7 15  1  6  0  0  0
  7  9  1  0  0  0  0
  8 11  1  0  0  0  0
  8 12  1  0  0  0  0
  9 14  1  1  0  0  0
  9 22  1  0  0  0  0
 10  3  1  0  0  0  0
 10 21  2  0  0  0  0
 11 28  1  1  0  0  0
 11  5  1  0  0  0  0
 12  4  1  0  0  0  0
 13 18  2  0  0  0  0
 15 23  1  0  0  0  0
 16  2  1  0  0  0  0
 17 26  1  0  0  0  0
 17  3  1  0  0  0  0
 19  2  2  0  0  0  0
 19 26  1  0  0  0  0
 20 22  1  0  0  0  0
 20 17  2  0  0  0  0
 22 10  1  0  0  0  0
 23 14  1  0  0  0  0
 25 18  1  0  0  0  0
 26 25  2  0  0  0  0
 27 12  1  0  0  0  0
 27  7  1  0  0  0  0
 27 24  1  1  0  0  0
 29 30  2  0  0  0  0
 30 28  1  0  0  0  0
M  END
>  <MODEL>
2

>  <REMARK>
 VINA RESULT:      -9.8      2.443      5.632
  Name = 
  2 active torsions:
  status: ('A' for Active; 'I' for Inactive)
    1  A    between atoms: C_11  and  C_28
    2  A    between atoms: C_28  and  C_30
                            x       y       z     vdW  Elec       q    Type
                         _______ _______ _______ _____ _____    ______ ____

>  <TORSDO>
F 2

$$$$
=
 OpenBabel11122410303D

 30 35  0  0  1  0  0  0  0  0999 V2000
  186.4520  178.2500  144.7250 C   0  0  0  0  0  0  0  0  0  0  0  0
  183.9430  178.6090  144.9140 C   0  0  0  0  0  0  0  0  0  0  0  0
  186.1980  178.6800  140.5960 N   0  0  0  0  0  2  0  0  0  0  0  0
  187.6170  178.0730  143.7630 C   0  0  0  0  0  0  0  0  0  0  0  0
  186.4310  177.1800  145.6460 O   0  0  0  0  0  0  0  0  0  0  0  0
  189.9650  177.1040  146.3320 O   0  0  0  0  0  0  0  0  0  0  0  0
  190.2960  176.8910  142.5640 C   0  0  1  0  0  3  0  0  0  0  0  0
  188.8870  177.3740  145.7400 C   0  0  0  0  0  0  0  0  0  0  0  0
  189.4940  177.1340  141.2820 C   0  0  2  0  0  3  0  0  0  0  0  0
  187.5630  178.4300  140.2650 C   0  0  0  0  0  0  0  0  0  0  0  0
  187.5750  177.2560  146.4870 C   0  0  1  0  0  3  0  0  0  0  0  0
  188.8910  177.7990  144.3670 N   0  0  0  0  0  0  0  0  0  0  0  0
  182.6940  178.8690  144.3430 C   0  0  0  0  0  3  0  0  0  0  0  0
  190.5140  177.5550  140.2440 C   0  0  0  0  0  2  0  0  0  0  0  0
  191.7530  176.7530  142.1500 C   0  0  0  0  0  2  0  0  0  0  0  0
  184.0420  178.5030  146.2640 F   0  0  0  0  0  0  0  0  0  0  0  0
  186.1420  178.5250  141.8740 C   0  0  0  0  0  0  0  0  0  0  0  0
  182.5660  179.0120  142.9600 C   0  0  0  0  0  3  0  0  0  0  0  0
  185.0810  178.4730  144.0980 C   0  0  0  0  0  0  0  0  0  0  0  0
  187.4290  178.1880  142.4380 C   0  0  0  0  0  0  0  0  0  0  0  0
  187.9810  178.4540  139.0760 O   0  0  0  0  0  0  0  0  0  0  0  0
  188.3990  178.1080  141.3870 N   0  0  0  0  0  0  0  0  0  0  0  0
  191.7870  176.8450  140.6380 C   0  0  0  0  0  2  0  0  0  0  0  0
  190.4130  179.3780  143.2190 C   0  0  0  0  0  1  0  0  0  0  0  0
  183.6900  178.9010  142.1400 C   0  0  0  0  0  3  0  0  0  0  0  0
  184.9440  178.6410  142.7030 C   0  0  0  0  0  0  0  0  0  0  0  0
  190.1630  177.9400  143.6650 C   0  0  2  0  0  3  0  0  0  0  0  0
  187.4130  178.2480  147.6440 C   0  0  0  0  0  2  0  0  0  0  0  0
  189.3400  178.5460  149.1230 C   0  0  0  0  0  2  0  0  0  0  0  0
  188.2270  177.8780  148.8440 C   0  0  0  0  0  3  0  0  0  0  0  0
  1  5  1  0  0  0  0
  2 16  1  0  0  0  0
  3 17  1  0  0  0  0
  4 12  1  0  0  0  0
  4  1  2  0  0  0  0
  5 11  1  0  0  0  0
  7 15  1  6  0  0  0
  7 27  1  0  0  0  0
  8  6  2  0  0  0  0
  8 11  1  0  0  0  0
  9 14  1  6  0  0  0
  9 22  1  0  0  0  0
  9  7  1  0  0  0  0
 10  3  1  0  0  0  0
 10 22  1  0  0  0  0
 11 28  1  1  0  0  0
 12  8  1  0  0  0  0
 13  2  1  0  0  0  0
 14 23  1  0  0  0  0
 17 20  2  0  0  0  0
 17 26  1  0  0  0  0
 18 13  2  0  0  0  0
 19  1  1  0  0  0  0
 19  2  2  0  0  0  0
 20  4  1  0  0  0  0
 21 10  2  0  0  0  0
 22 20  1  0  0  0  0
 23 15  1  0  0  0  0
 25 26  2  0  0  0  0
 25 18  1  0  0  0  0
 26 19  1  0  0  0  0
 27 24  1  6  0  0  0
 27 12  1  0  0  0  0
 28 30  1  0  0  0  0
 30 29  2  0  0  0  0
M  END
>  <MODEL>
3

>  <REMARK>
 VINA RESULT:      -9.5      1.902      5.283
  Name = 
  2 active torsions:
  status: ('A' for Active; 'I' for Inactive)
    1  A    between atoms: C_11  and  C_28
    2  A    between atoms: C_28  and  C_30
                            x       y       z     vdW  Elec       q    Type
                         _______ _______ _______ _____ _____    ______ ____

>  <TORSDO>
F 2

$$$$
=
 OpenBabel11122410303D

 30 35  0  0  1  0  0  0  0  0999 V2000
  188.2680  177.7010  142.5740 C   0  0  0  0  0  0  0  0  0  0  0  0
  187.3080  177.8640  144.9210 C   0  0  0  0  0  0  0  0  0  0  0  0
  184.6710  179.0890  141.0130 N   0  0  0  0  0  2  0  0  0  0  0  0
  187.9590  177.8250  141.0900 C   0  0  0  0  0  0  0  0  0  0  0  0
  188.8540  176.4430  142.8330 O   0  0  0  0  0  0  0  0  0  0  0  0
  191.1050  176.4040  140.0230 O   0  0  0  0  0  0  0  0  0  0  0  0
  187.9780  177.1160  138.0060 C   0  0  1  0  0  3  0  0  0  0  0  0
  190.1340  176.7470  140.7480 C   0  0  0  0  0  0  0  0  0  0  0  0
  186.5390  177.6120  138.1740 C   0  0  2  0  0  3  0  0  0  0  0  0
  184.9870  179.0030  139.6240 C   0  0  0  0  0  0  0  0  0  0  0  0
  190.1340  176.3810  142.2170 C   0  0  1  0  0  3  0  0  0  0  0  0
  189.0320  177.4870  140.1970 N   0  0  0  0  0  0  0  0  0  0  0  0
  186.2730  178.1810  145.8050 C   0  0  0  0  0  3  0  0  0  0  0  0
  186.2060  178.3260  136.8800 C   0  0  0  0  0  2  0  0  0  0  0  0
  188.2860  177.1630  136.5170 C   0  0  0  0  0  2  0  0  0  0  0  0
  188.4970  177.4440  145.4240 F   0  0  0  0  0  0  0  0  0  0  0  0
  185.7170  178.6300  141.6100 C   0  0  0  0  0  0  0  0  0  0  0  0
  185.0470  178.6430  145.3190 C   0  0  0  0  0  3  0  0  0  0  0  0
  187.1200  177.9910  143.5330 C   0  0  0  0  0  0  0  0  0  0  0  0
  186.7500  178.2420  140.6780 C   0  0  0  0  0  0  0  0  0  0  0  0
  184.1660  179.3330  138.7260 O   0  0  0  0  0  0  0  0  0  0  0  0
  186.2900  178.4700  139.3410 N   0  0  0  0  0  0  0  0  0  0  0  0
  187.0180  177.6140  135.8230 C   0  0  0  0  0  2  0  0  0  0  0  0
  189.0560  179.3780  138.5980 C   0  0  0  0  0  1  0  0  0  0  0  0
  184.8530  178.7940  143.9460 C   0  0  0  0  0  3  0  0  0  0  0  0
  185.8840  178.4780  143.0540 C   0  0  0  0  0  0  0  0  0  0  0  0
  189.0560  177.8630  138.7870 C   0  0  2  0  0  3  0  0  0  0  0  0
  191.2370  177.0570  143.0390 C   0  0  0  0  0  2  0  0  0  0  0  0
  191.6710  176.7510  145.4280 C   0  0  0  0  0  2  0  0  0  0  0  0
  191.6800  176.2320  144.2050 C   0  0  0  0  0  3  0  0  0  0  0  0
  1  5  1  0  0  0  0
  1 19  1  0  0  0  0
  2 16  1  0  0  0  0
  2 13  1  0  0  0  0
  3 17  1  0  0  0  0
  4  1  2  0  0  0  0
  6  8  2  0  0  0  0
  7 15  1  6  0  0  0
  7  9  1  0  0  0  0
  7 27  1  0  0  0  0
  8 11  1  0  0  0  0
  9 14  1  6  0  0  0
  9 22  1  0  0  0  0
 10  3  1  0  0  0  0
 11  5  1  0  0  0  0
 11 28  1  1  0  0  0
 12  8  1  0  0  0  0
 12  4  1  0  0  0  0
 17 26  1  0  0  0  0
 18 13  2  0  0  0  0
 19  2  2  0  0  0  0
 20  4  1  0  0  0  0
 20 17  2  0  0  0  0
 21 10  2  0  0  0  0
 22 10  1  0  0  0  0
 22 20  1  0  0  0  0
 23 15  1  0  0  0  0
 23 14  1  0  0  0  0
 25 18  1  0  0  0  0
 26 19  1  0  0  0  0
 26 25  2  0  0  0  0
 27 24  1  1  0  0  0
 27 12  1  0  0  0  0
 28 30  1  0  0  0  0
 30 29  2  0  0  0  0
M  END
>  <MODEL>
4

>  <REMARK>
 VINA RESULT:      -9.0      2.532      5.885
  Name = 
  2 active torsions:
  status: ('A' for Active; 'I' for Inactive)
    1  A    between atoms: C_11  and  C_28
    2  A    between atoms: C_28  and  C_30
                            x       y       z     vdW  Elec       q    Type
                         _______ _______ _______ _____ _____    ______ ____

>  <TORSDO>
F 2

$$$$
=
 OpenBabel11122410303D

 30 35  0  0  1  0  0  0  0  0999 V2000
  187.4560  178.0090  140.3260 C   0  0  0  0  0  0  0  0  0  0  0  0
  185.2760  178.7120  139.2270 C   0  0  0  0  0  0  0  0  0  0  0  0
  185.5720  177.9770  144.0340 N   0  0  0  0  0  2  0  0  0  0  0  0
  188.1560  177.7440  141.6500 C   0  0  0  0  0  0  0  0  0  0  0  0
  188.2090  178.9320  139.5690 O   0  0  0  0  0  0  0  0  0  0  0  0
  191.4510  177.4930  140.1890 O   0  0  0  0  0  0  0  0  0  0  0  0
  190.4500  177.7790  143.8310 C   0  0  1  0  0  3  0  0  0  0  0  0
  190.2220  177.7310  140.3310 C   0  0  0  0  0  0  0  0  0  0  0  0
  189.2140  177.9700  144.7150 C   0  0  2  0  0  3  0  0  0  0  0  0
  186.6980  177.6570  144.8500 C   0  0  0  0  0  0  0  0  0  0  0  0
  189.4410  178.3370  139.1840 C   0  0  1  0  0  3  0  0  0  0  0  0
  189.5550  177.4270  141.5670 N   0  0  0  0  0  0  0  0  0  0  0  0
  183.9160  179.0300  139.2900 C   0  0  0  0  0  3  0  0  0  0  0  0
  189.5210  177.2280  146.0000 C   0  0  0  0  0  2  0  0  0  0  0  0
  191.5770  177.3250  144.7450 C   0  0  0  0  0  2  0  0  0  0  0  0
  185.8910  178.6850  138.0170 F   0  0  0  0  0  0  0  0  0  0  0  0
  186.0520  178.0620  142.8410 C   0  0  0  0  0  0  0  0  0  0  0  0
  183.2500  179.0380  140.5170 C   0  0  0  0  0  3  0  0  0  0  0  0
  185.9900  178.4130  140.4020 C   0  0  0  0  0  0  0  0  0  0  0  0
  187.4720  177.7990  142.8050 C   0  0  0  0  0  0  0  0  0  0  0  0
  186.6080  177.5340  146.1010 O   0  0  0  0  0  0  0  0  0  0  0  0
  187.9370  177.5340  144.1330 N   0  0  0  0  0  0  0  0  0  0  0  0
  191.0210  177.3200  146.1540 C   0  0  0  0  0  2  0  0  0  0  0  0
  189.7710  175.4330  143.0170 C   0  0  0  0  0  1  0  0  0  0  0  0
  183.9390  178.7220  141.6880 C   0  0  0  0  0  3  0  0  0  0  0  0
  185.3010  178.4040  141.6350 C   0  0  0  0  0  0  0  0  0  0  0  0
  190.3090  176.8140  142.6560 C   0  0  2  0  0  3  0  0  0  0  0  0
  189.3210  177.4330  137.9520 C   0  0  0  0  0  2  0  0  0  0  0  0
  190.4470  175.3130  137.4710 C   0  0  0  0  0  2  0  0  0  0  0  0
  189.6190  175.9990  138.2520 C   0  0  0  0  0  3  0  0  0  0  0  0
  1 19  2  0  0  0  0
  1  4  1  0  0  0  0
  2 13  2  0  0  0  0
  2 19  1  0  0  0  0
  3 10  1  0  0  0  0
  4 20  2  0  0  0  0
  5  1  1  0  0  0  0
  6  8  2  0  0  0  0
  7  9  1  0  0  0  0
  7 15  1  1  0  0  0
  8 12  1  0  0  0  0
  9 14  1  1  0  0  0
 10 21  2  0  0  0  0
 11 28  1  6  0  0  0
 11  5  1  0  0  0  0
 11  8  1  0  0  0  0
 12  4  1  0  0  0  0
 12 27  1  0  0  0  0
 13 18  1  0  0  0  0
 14 23  1  0  0  0  0
 15 23  1  0  0  0  0
 16  2  1  0  0  0  0
 17  3  1  0  0  0  0
 18 25  2  0  0  0  0
 19 26  1  0  0  0  0
 20 17  1  0  0  0  0
 20 22  1  0  0  0  0
 22  9  1  0  0  0  0
 22 10  1  0  0  0  0
 26 25  1  0  0  0  0
 26 17  2  0  0  0  0
 27 24  1  1  0  0  0
 27  7  1  0  0  0  0
 28 30  1  0  0  0  0
 29 30  2  0  0  0  0
M  END
>  <MODEL>
5

>  <REMARK>
 VINA RESULT:      -9.0      1.737      2.308
  Name = 
  2 active torsions:
  status: ('A' for Active; 'I' for Inactive)
    1  A    between atoms: C_11  and  C_28
    2  A    between atoms: C_28  and  C_30
                            x       y       z     vdW  Elec       q    Type
                         _______ _______ _______ _____ _____    ______ ____

>  <TORSDO>
F 2

$$$$
=
 OpenBabel11122410303D

 30 35  0  0  1  0  0  0  0  0999 V2000
  188.0770  177.8970  141.4380 C   0  0  0  0  0  0  0  0  0  0  0  0
  189.2790  177.8910  143.6770 C   0  0  0  0  0  0  0  0  0  0  0  0
  191.6070  176.7820  139.5440 N   0  0  0  0  0  2  0  0  0  0  0  0
  188.2430  177.7550  139.9330 C   0  0  0  0  0  0  0  0  0  0  0  0
  187.4090  179.1060  141.7290 O   0  0  0  0  0  0  0  0  0  0  0  0
  184.8910  178.8620  139.1670 O   0  0  0  0  0  0  0  0  0  0  0  0
  187.8480  178.3650  136.8530 C   0  0  1  0  0  3  0  0  0  0  0  0
  185.9570  178.6270  139.7950 C   0  0  0  0  0  0  0  0  0  0  0  0
  189.3360  178.0020  136.8830 C   0  0  2  0  0  3  0  0  0  0  0  0
  191.1460  176.7970  138.1930 C   0  0  0  0  0  0  0  0  0  0  0  0
  186.0730  179.0370  141.2490 C   0  0  1  0  0  3  0  0  0  0  0  0
  187.0590  177.9700  139.1490 N   0  0  0  0  0  0  0  0  0  0  0  0
  190.4230  177.6920  144.4550 C   0  0  0  0  0  3  0  0  0  0  0  0
  189.6000  177.2810  135.5760 C   0  0  0  0  0  2  0  0  0  0  0  0
  187.3970  178.2460  135.4060 C   0  0  0  0  0  2  0  0  0  0  0  0
  188.1140  178.2210  144.2900 F   0  0  0  0  0  0  0  0  0  0  0  0
  190.5900  177.1650  140.2360 C   0  0  0  0  0  0  0  0  0  0  0  0
  191.6300  177.3250  143.8550 C   0  0  0  0  0  3  0  0  0  0  0  0
  189.3370  177.7380  142.2790 C   0  0  0  0  0  0  0  0  0  0  0  0
  189.4370  177.4320  139.4080 C   0  0  0  0  0  0  0  0  0  0  0  0
  191.8990  176.5130  137.2230 O   0  0  0  0  0  0  0  0  0  0  0  0
  189.7780  177.2060  138.0360 N   0  0  0  0  0  0  0  0  0  0  0  0
  188.6240  177.8860  134.5940 C   0  0  0  0  0  2  0  0  0  0  0  0
  187.0450  176.0370  137.6030 C   0  0  0  0  0  1  0  0  0  0  0  0
  191.6970  177.1490  142.4720 C   0  0  0  0  0  3  0  0  0  0  0  0
  190.5570  177.3470  141.6860 C   0  0  0  0  0  0  0  0  0  0  0  0
  186.9270  177.5500  137.7570 C   0  0  2  0  0  3  0  0  0  0  0  0
  185.1240  178.2930  142.1940 C   0  0  0  0  0  2  0  0  0  0  0  0
  184.8410  178.6620  144.5970 C   0  0  0  0  0  2  0  0  0  0  0  0
  184.6950  179.1250  143.3600 C   0  0  0  0  0  3  0  0  0  0  0  0
  1  5  1  0  0  0  0
  1 19  1  0  0  0  0
  2 16  1  0  0  0  0
  2 13  1  0  0  0  0
  3 17  1  0  0  0  0
  4  1  2  0  0  0  0
  6  8  2  0  0  0  0
  7 15  1  6  0  0  0
  7  9  1  0  0  0  0
  7 27  1  0  0  0  0
  8 11  1  0  0  0  0
  9 14  1  6  0  0  0
  9 22  1  0  0  0  0
 10  3  1  0  0  0  0
 11  5  1  0  0  0  0
 11 28  1  1  0  0  0
 12  8  1  0  0  0  0
 12  4  1  0  0  0  0
 17 26  1  0  0  0  0
 18 13  2  0  0  0  0
 19  2  2  0  0  0  0
 20  4  1  0  0  0  0
 20 17  2  0  0  0  0
 21 10  2  0  0  0  0
 22 10  1  0  0  0  0
 22 20  1  0  0  0  0
 23 15  1  0  0  0  0
 23 14  1  0  0  0  0
 25 18  1  0  0  0  0
 26 19  1  0  0  0  0
 26 25  2  0  0  0  0
 27 24  1  1  0  0  0
 27 12  1  0  0  0  0
 28 30  1  0  0  0  0
 30 29  2  0  0  0  0
M  END
>  <MODEL>
6

>  <REMARK>
 VINA RESULT:      -8.7      2.764      6.975
  Name = 
  2 active torsions:
  status: ('A' for Active; 'I' for Inactive)
    1  A    between atoms: C_11  and  C_28
    2  A    between atoms: C_28  and  C_30
                            x       y       z     vdW  Elec       q    Type
                         _______ _______ _______ _____ _____    ______ ____

>  <TORSDO>
F 2

$$$$
=
 OpenBabel11122410303D

 30 35  0  0  1  0  0  0  0  0999 V2000
  187.4800  177.9680  144.3770 C   0  0  0  0  0  0  0  0  0  0  0  0
  185.2180  178.4590  145.4260 C   0  0  0  0  0  0  0  0  0  0  0  0
  185.9180  178.8250  140.6180 N   0  0  0  0  0  2  0  0  0  0  0  0
  188.2410  177.8180  143.0690 C   0  0  0  0  0  0  0  0  0  0  0  0
  187.6670  176.8140  145.1680 O   0  0  0  0  0  0  0  0  0  0  0  0
  191.2070  176.4530  144.6170 O   0  0  0  0  0  0  0  0  0  0  0  0
  190.2560  176.6010  140.9530 C   0  0  1  0  0  3  0  0  0  0  0  0
  190.0230  176.8470  144.4440 C   0  0  0  0  0  0  0  0  0  0  0  0
  189.1010  177.0190  140.0380 C   0  0  2  0  0  3  0  0  0  0  0  0
  187.0690  178.5270  139.8290 C   0  0  0  0  0  0  0  0  0  0  0  0
  189.0260  176.7350  145.5780 C   0  0  1  0  0  3  0  0  0  0  0  0
  189.6130  177.4070  143.1860 N   0  0  0  0  0  0  0  0  0  0  0  0
  183.8800  178.8500  145.3300 C   0  0  0  0  0  3  0  0  0  0  0  0
  189.7550  177.4800  138.7510 C   0  0  0  0  0  2  0  0  0  0  0  0
  191.4750  176.4160  140.0630 C   0  0  0  0  0  2  0  0  0  0  0  0
  185.7460  178.2110  146.6510 F   0  0  0  0  0  0  0  0  0  0  0  0
  186.2740  178.5460  141.8250 C   0  0  0  0  0  0  0  0  0  0  0  0
  183.3170  179.1390  144.0850 C   0  0  0  0  0  3  0  0  0  0  0  0
  186.0060  178.3360  144.2660 C   0  0  0  0  0  0  0  0  0  0  0  0
  187.6380  178.0770  141.8960 C   0  0  0  0  0  0  0  0  0  0  0  0
  187.0720  178.6450  138.5740 O   0  0  0  0  0  0  0  0  0  0  0  0
  188.1950  178.0430  140.5770 N   0  0  0  0  0  0  0  0  0  0  0  0
  191.0170  176.6570  138.6390 C   0  0  0  0  0  2  0  0  0  0  0  0
  190.8080  178.9970  141.7120 C   0  0  0  0  0  1  0  0  0  0  0  0
  184.0920  179.0430  142.9280 C   0  0  0  0  0  3  0  0  0  0  0  0
  185.4320  178.6510  143.0150 C   0  0  0  0  0  0  0  0  0  0  0  0
  190.5890  177.5400  142.1090 C   0  0  2  0  0  3  0  0  0  0  0  0
  189.3470  177.6140  146.7930 C   0  0  0  0  0  2  0  0  0  0  0  0
  188.1900  178.1610  148.8790 C   0  0  0  0  0  2  0  0  0  0  0  0
  188.5660  177.2290  148.0090 C   0  0  0  0  0  3  0  0  0  0  0  0
  1  5  1  0  0  0  0
  2 16  1  0  0  0  0
  3 17  1  0  0  0  0
  4 12  1  0  0  0  0
  4  1  2  0  0  0  0
  5 11  1  0  0  0  0
  7 15  1  6  0  0  0
  7 27  1  0  0  0  0
  8  6  2  0  0  0  0
  8 11  1  0  0  0  0
  9 14  1  6  0  0  0
  9 22  1  0  0  0  0
  9  7  1  0  0  0  0
 10 22  1  0  0  0  0
 10  3  1  0  0  0  0
 11 28  1  1  0  0  0
 12  8  1  0  0  0  0
 13  2  1  0  0  0  0
 17 20  2  0  0  0  0
 17 26  1  0  0  0  0
 18 13  2  0  0  0  0
 19  1  1  0  0  0  0
 19  2  2  0  0  0  0
 20  4  1  0  0  0  0
 21 10  2  0  0  0  0
 22 20  1  0  0  0  0
 23 14  1  0  0  0  0
 23 15  1  0  0  0  0
 25 26  2  0  0  0  0
 25 18  1  0  0  0  0
 26 19  1  0  0  0  0
 27 24  1  6  0  0  0
 27 12  1  0  0  0  0
 28 30  1  0  0  0  0
 30 29  2  0  0  0  0
M  END
>  <MODEL>
7

>  <REMARK>
 VINA RESULT:      -8.4      2.297      5.454
  Name = 
  2 active torsions:
  status: ('A' for Active; 'I' for Inactive)
    1  A    between atoms: C_11  and  C_28
    2  A    between atoms: C_28  and  C_30
                            x       y       z     vdW  Elec       q    Type
                         _______ _______ _______ _____ _____    ______ ____

>  <TORSDO>
F 2

$$$$
=
 OpenBabel11122410303D

 30 35  0  0  1  0  0  0  0  0999 V2000
  187.1410  178.0210  142.0250 C   0  0  0  0  0  0  0  0  0  0  0  0
  187.8610  177.8430  144.4550 C   0  0  0  0  0  0  0  0  0  0  0  0
  190.8910  176.6830  140.8210 N   0  0  0  0  0  2  0  0  0  0  0  0
  187.5990  177.9150  140.5780 C   0  0  0  0  0  0  0  0  0  0  0  0
  186.5190  179.2700  142.2350 O   0  0  0  0  0  0  0  0  0  0  0  0
  184.5620  179.3180  139.2130 O   0  0  0  0  0  0  0  0  0  0  0  0
  187.8830  178.6560  137.5150 C   0  0  1  0  0  3  0  0  0  0  0  0
  185.4590  178.9760  140.0290 C   0  0  0  0  0  0  0  0  0  0  0  0
  189.3030  178.1720  137.8230 C   0  0  2  0  0  3  0  0  0  0  0  0
  190.7160  176.7810  139.4080 C   0  0  0  0  0  0  0  0  0  0  0  0
  185.3070  179.3270  141.4940 C   0  0  1  0  0  3  0  0  0  0  0  0
  186.6180  178.2530  139.5850 N   0  0  0  0  0  0  0  0  0  0  0  0
  188.8050  177.5250  145.4350 C   0  0  0  0  0  3  0  0  0  0  0  0
  189.7720  177.4750  136.5620 C   0  0  0  0  0  2  0  0  0  0  0  0
  187.7270  178.6220  136.0020 C   0  0  0  0  0  2  0  0  0  0  0  0
  186.6230  178.2460  144.8390 F   0  0  0  0  0  0  0  0  0  0  0  0
  189.7850  177.1250  141.3140 C   0  0  0  0  0  0  0  0  0  0  0  0
  190.0780  177.0810  145.0710 C   0  0  0  0  0  3  0  0  0  0  0  0
  188.1900  177.7320  143.0920 C   0  0  0  0  0  0  0  0  0  0  0  0
  188.8470  177.5130  140.2860 C   0  0  0  0  0  0  0  0  0  0  0  0
  191.6260  176.4670  138.5950 O   0  0  0  0  0  0  0  0  0  0  0  0
  189.4420  177.3050  139.0010 N   0  0  0  0  0  0  0  0  0  0  0  0
  189.0640  178.1900  135.4350 C   0  0  0  0  0  2  0  0  0  0  0  0
  186.7750  176.3790  137.9740 C   0  0  0  0  0  1  0  0  0  0  0  0
  190.4110  176.9450  143.7230 C   0  0  0  0  0  3  0  0  0  0  0  0
  189.4720  177.2610  142.7350 C   0  0  0  0  0  0  0  0  0  0  0  0
  186.7400  177.8910  138.1760 C   0  0  2  0  0  3  0  0  0  0  0  0
  184.1340  178.6330  142.1940 C   0  0  0  0  0  2  0  0  0  0  0  0
  182.9640  178.6290  144.3440 C   0  0  0  0  0  2  0  0  0  0  0  0
  183.8000  179.2470  143.5160 C   0  0  0  0  0  3  0  0  0  0  0  0
  1  5  1  0  0  0  0
  1 19  1  0  0  0  0
  2 16  1  0  0  0  0
  2 13  1  0  0  0  0
  3 17  1  0  0  0  0
  4  1  2  0  0  0  0
  6  8  2  0  0  0  0
  7 15  1  6  0  0  0
  7  9  1  0  0  0  0
  7 27  1  0  0  0  0
  8 11  1  0  0  0  0
  9 14  1  6  0  0  0
  9 22  1  0  0  0  0
 10  3  1  0  0  0  0
 11 28  1  1  0  0  0
 11  5  1  0  0  0  0
 12  8  1  0  0  0  0
 12  4  1  0  0  0  0
 17 26  1  0  0  0  0
 18 13  2  0  0  0  0
 19  2  2  0  0  0  0
 20  4  1  0  0  0  0
 20 17  2  0  0  0  0
 21 10  2  0  0  0  0
 22 10  1  0  0  0  0
 22 20  1  0  0  0  0
 23 15  1  0  0  0  0
 23 14  1  0  0  0  0
 25 18  1  0  0  0  0
 26 19  1  0  0  0  0
 26 25  2  0  0  0  0
 27 24  1  1  0  0  0
 27 12  1  0  0  0  0
 28 30  1  0  0  0  0
 30 29  2  0  0  0  0
M  END
>  <MODEL>
8

>  <REMARK>
 VINA RESULT:      -8.3      2.442      6.282
  Name = 
  2 active torsions:
  status: ('A' for Active; 'I' for Inactive)
    1  A    between atoms: C_11  and  C_28
    2  A    between atoms: C_28  and  C_30
                            x       y       z     vdW  Elec       q    Type
                         _______ _______ _______ _____ _____    ______ ____

>  <TORSDO>
F 2

$$$$
=
 OpenBabel11122410303D

 30 35  0  0  1  0  0  0  0  0999 V2000
  187.4440  178.2830  142.1480 C   0  0  0  0  0  0  0  0  0  0  0  0
  185.8470  178.6340  144.0920 C   0  0  0  0  0  0  0  0  0  0  0  0
  184.2560  178.5320  139.4880 N   0  0  0  0  0  2  0  0  0  0  0  0
  187.5530  178.0730  140.6450 C   0  0  0  0  0  0  0  0  0  0  0  0
  188.1380  177.2540  142.8210 O   0  0  0  0  0  0  0  0  0  0  0  0
  191.0650  177.2310  140.7250 O   0  0  0  0  0  0  0  0  0  0  0  0
  188.5640  176.8570  137.9040 C   0  0  1  0  0  3  0  0  0  0  0  0
  189.8850  177.4680  141.0960 C   0  0  0  0  0  0  0  0  0  0  0  0
  187.0740  177.0390  137.6020 C   0  0  2  0  0  3  0  0  0  0  0  0
  184.9630  178.2770  138.2750 C   0  0  0  0  0  0  0  0  0  0  0  0
  189.5310  177.3750  142.5650 C   0  0  1  0  0  3  0  0  0  0  0  0
  188.8760  177.8330  140.1400 N   0  0  0  0  0  0  0  0  0  0  0  0
  184.5650  178.8610  144.6020 C   0  0  0  0  0  3  0  0  0  0  0  0
  187.0050  177.4210  136.1370 C   0  0  0  0  0  2  0  0  0  0  0  0
  189.2690  176.7110  136.5640 C   0  0  0  0  0  2  0  0  0  0  0  0
  186.8980  178.5870  144.9500 F   0  0  0  0  0  0  0  0  0  0  0  0
  185.1520  178.4320  140.4100 C   0  0  0  0  0  0  0  0  0  0  0  0
  183.4680  178.9420  143.7420 C   0  0  0  0  0  3  0  0  0  0  0  0
  186.0400  178.4700  142.7080 C   0  0  0  0  0  0  0  0  0  0  0  0
  186.4570  178.1290  139.8690 C   0  0  0  0  0  0  0  0  0  0  0  0
  184.3850  178.2520  137.1550 O   0  0  0  0  0  0  0  0  0  0  0  0
  186.3630  178.0090  138.4460 N   0  0  0  0  0  0  0  0  0  0  0  0
  188.1910  176.7370  135.5000 C   0  0  0  0  0  2  0  0  0  0  0  0
  189.0300  179.3710  138.2060 C   0  0  0  0  0  1  0  0  0  0  0  0
  183.6480  178.8030  142.3650 C   0  0  0  0  0  3  0  0  0  0  0  0
  184.9270  178.5760  141.8460 C   0  0  0  0  0  0  0  0  0  0  0  0
  189.2340  177.9520  138.7300 C   0  0  2  0  0  3  0  0  0  0  0  0
  190.2250  178.4140  143.4520 C   0  0  0  0  0  2  0  0  0  0  0  0
  189.9440  177.5370  145.7190 C   0  0  0  0  0  2  0  0  0  0  0  0
  190.7660  177.8290  144.7170 C   0  0  0  0  0  3  0  0  0  0  0  0
  1 19  1  0  0  0  0
  1  5  1  0  0  0  0
  2 13  1  0  0  0  0
  2 16  1  0  0  0  0
  3 17  1  0  0  0  0
  4  1  2  0  0  0  0
  6  8  2  0  0  0  0
  7 15  1  6  0  0  0
  7 27  1  0  0  0  0
  8 11  1  0  0  0  0
  9 14  1  6  0  0  0
  9  7  1  0  0  0  0
  9 22  1  0  0  0  0
 10 22  1  0  0  0  0
 10  3  1  0  0  0  0
 11  5  1  0  0  0  0
 11 28  1  1  0  0  0
 12  4  1  0  0  0  0
 12  8  1  0  0  0  0
 17 26  1  0  0  0  0
 18 13  2  0  0  0  0
 19  2  2  0  0  0  0
 20 17  2  0  0  0  0
 20  4  1  0  0  0  0
 21 10  2  0  0  0  0
 22 20  1  0  0  0  0
 23 14  1  0  0  0  0
 23 15  1  0  0  0  0
 25 18  1  0  0  0  0
 26 25  2  0  0  0  0
 26 19  1  0  0  0  0
 27 24  1  6  0  0  0
 27 12  1  0  0  0  0
 28 30  1  0  0  0  0
 30 29  2  0  0  0  0
M  END
>  <MODEL>
9

>  <REMARK>
 VINA RESULT:      -8.2      2.386      5.868
  Name = 
  2 active torsions:
  status: ('A' for Active; 'I' for Inactive)
    1  A    between atoms: C_11  and  C_28
    2  A    between atoms: C_28  and  C_30
                            x       y       z     vdW  Elec       q    Type
                         _______ _______ _______ _____ _____    ______ ____

>  <TORSDO>
F 2

$$$$
