=
 OpenBabel11122410343D

 30 35  0  0  1  0  0  0  0  0999 V2000
  187.2860  178.2750  143.0210 C   0  0  0  0  0  0  0  0  0  0  0  0
  184.8110  178.5630  142.7150 C   0  0  2  0  0  3  0  0  0  0  0  0
  187.1910  178.2370  147.2100 N   0  0  0  0  0  2  0  0  0  0  0  0
  188.5080  178.0740  143.8760 C   0  0  0  0  0  0  0  0  0  0  0  0
  187.4450  178.4400  141.5340 C   0  0  0  0  0  2  0  0  0  0  0  0
  190.9510  177.8560  141.1190 O   0  0  0  0  0  0  0  0  0  0  0  0
  191.0790  176.6400  145.1490 C   0  0  1  0  0  3  0  0  0  0  0  0
  189.8550  177.8260  141.7420 C   0  0  0  0  0  0  0  0  0  0  0  0
  190.0440  176.5790  146.1730 N   0  0  1  0  0  0  0  0  0  0  0  0
  188.5690  178.0590  147.5110 C   0  0  0  0  0  0  0  0  0  0  0  0
  188.6190  177.7500  141.0220 N   0  0  0  0  0  0  0  0  0  0  0  0
  189.8640  177.8250  143.2440 C   0  0  2  0  0  3  0  0  0  0  0  0
  183.5750  178.9250  143.4970 C   0  0  0  0  0  3  0  0  0  0  0  0
  190.8030  176.2340  147.3730 C   0  0  0  0  0  2  0  0  0  0  0  0
  192.0750  175.5410  145.4480 C   0  0  0  0  0  2  0  0  0  0  0  0
  184.5780  177.3700  142.0280 O   0  0  0  0  0  1  0  0  0  0  0  0
  187.1010  178.2450  145.8210 N   0  0  0  0  0  0  0  0  0  0  0  0
  183.5440  178.9570  144.8310 C   0  0  0  0  0  3  0  0  0  0  0  0
  186.0550  178.4240  143.5740 C   0  0  0  0  0  0  0  0  0  0  0  0
  188.3730  178.0890  145.2210 C   0  0  0  0  0  0  0  0  0  0  0  0
  189.0060  178.0840  148.6910 O   0  0  0  0  0  0  0  0  0  0  0  0
  189.4430  177.9190  146.2810 C   0  0  2  0  0  3  0  0  0  0  0  0
  191.9620  175.3510  146.9430 C   0  0  0  0  0  2  0  0  0  0  0  0
  190.3320  175.4880  143.2160 O   0  0  0  0  0  0  0  0  0  0  0  0
  184.7450  178.6800  145.6340 C   0  0  0  0  0  3  0  0  0  0  0  0
  185.9180  178.4320  145.0490 C   0  0  0  0  0  0  0  0  0  0  0  0
  190.4750  176.5620  143.7850 C   0  0  0  0  0  0  0  0  0  0  0  0
  188.6010  177.3410  139.6240 C   0  0  0  0  0  2  0  0  0  0  0  0
  189.3940  178.1570  137.3990 C   0  0  0  0  0  1  0  0  0  0  0  0
  188.7450  178.5490  138.7110 C   0  0  0  0  0  2  0  0  0  0  0  0
  1 19  2  0  0  0  0
  1  4  1  0  0  0  0
  2 16  1  1  0  0  0
  2 13  1  0  0  0  0
  2 19  1  0  0  0  0
  3 10  1  0  0  0  0
  4 20  2  0  0  0  0
  5  1  1  0  0  0  0
  6  8  2  0  0  0  0
  7 15  1  1  0  0  0
  7  9  1  0  0  0  0
  9 22  1  0  0  0  0
  9 14  1  1  0  0  0
 10 21  2  0  0  0  0
 11  5  1  0  0  0  0
 11  8  1  0  0  0  0
 12  8  1  6  0  0  0
 12 27  1  0  0  0  0
 12  4  1  0  0  0  0
 13 18  2  0  0  0  0
 15 23  1  0  0  0  0
 17  3  1  0  0  0  0
 18 25  1  0  0  0  0
 19 26  1  0  0  0  0
 20 17  1  0  0  0  0
 22 20  1  6  0  0  0
 22 10  1  0  0  0  0
 23 14  1  0  0  0  0
 24 27  2  0  0  0  0
 26 25  2  0  0  0  0
 26 17  1  0  0  0  0
 27  7  1  0  0  0  0
 28 11  1  0  0  0  0
 29 30  1  0  0  0  0
 30 28  1  0  0  0  0
M  END
>  <MODEL>
1

>  <REMARK>
 VINA RESULT:      -9.9      0.000      0.000
  Name = 
  2 active torsions:
  status: ('A' for Active; 'I' for Inactive)
    1  A    between atoms: N_11  and  C_28
    2  A    between atoms: C_28  and  C_30
                            x       y       z     vdW  Elec       q    Type
                         _______ _______ _______ _____ _____    ______ ____

>  <TORSDO>
F 2

$$$$
=
 OpenBabel11122410343D

 30 35  0  0  1  0  0  0  0  0999 V2000
  184.5910  178.6750  141.5040 C   0  0  0  0  0  0  0  0  0  0  0  0
  182.1800  178.4830  140.8290 C   0  0  2  0  0  3  0  0  0  0  0  0
  183.8600  178.8830  145.6240 N   0  0  0  0  0  2  0  0  0  0  0  0
  185.6830  178.7550  142.5360 C   0  0  0  0  0  0  0  0  0  0  0  0
  184.9450  178.7720  140.0450 C   0  0  0  0  0  2  0  0  0  0  0  0
  188.5210  178.8160  140.1800 O   0  0  0  0  0  0  0  0  0  0  0  0
  188.2350  177.9010  144.2800 C   0  0  1  0  0  3  0  0  0  0  0  0
  187.3640  178.6250  140.6430 C   0  0  0  0  0  0  0  0  0  0  0  0
  187.0810  177.7160  145.1510 N   0  0  1  0  0  0  0  0  0  0  0  0
  185.1850  178.9810  146.1300 C   0  0  0  0  0  0  0  0  0  0  0  0
  186.2850  178.2780  139.7670 N   0  0  0  0  0  0  0  0  0  0  0  0
  187.1420  178.7200  142.1260 C   0  0  2  0  0  3  0  0  0  0  0  0
  180.7940  178.6600  141.3950 C   0  0  0  0  0  3  0  0  0  0  0  0
  187.6940  177.5930  146.4710 C   0  0  0  0  0  2  0  0  0  0  0  0
  189.3470  177.0250  144.8130 C   0  0  0  0  0  2  0  0  0  0  0  0
  182.2640  177.2260  140.2270 O   0  0  0  0  0  1  0  0  0  0  0  0
  183.9840  178.7880  144.2420 N   0  0  0  0  0  0  0  0  0  0  0  0
  180.5540  178.7700  142.7040 C   0  0  0  0  0  3  0  0  0  0  0  0
  183.2820  178.6290  141.8630 C   0  0  0  0  0  0  0  0  0  0  0  0
  185.3420  178.8300  143.8420 C   0  0  0  0  0  0  0  0  0  0  0  0
  185.4240  179.1600  147.3530 O   0  0  0  0  0  0  0  0  0  0  0  0
  186.2490  178.9260  145.0530 C   0  0  2  0  0  3  0  0  0  0  0  0
  189.0400  176.9120  146.2880 C   0  0  0  0  0  2  0  0  0  0  0  0
  188.0040  176.5110  142.3730 O   0  0  0  0  0  0  0  0  0  0  0  0
  181.6460  178.7700  143.6880 C   0  0  0  0  0  3  0  0  0  0  0  0
  182.9210  178.7050  143.2980 C   0  0  0  0  0  0  0  0  0  0  0  0
  187.8710  177.6270  142.8570 C   0  0  0  0  0  0  0  0  0  0  0  0
  186.5540  177.7850  138.4220 C   0  0  0  0  0  2  0  0  0  0  0  0
  184.8890  176.3760  137.2020 C   0  0  0  0  0  1  0  0  0  0  0  0
  185.2820  177.7880  137.5870 C   0  0  0  0  0  2  0  0  0  0  0  0
  1 19  2  0  0  0  0
  1  4  1  0  0  0  0
  2 16  1  1  0  0  0
  2 13  1  0  0  0  0
  2 19  1  0  0  0  0
  3 10  1  0  0  0  0
  4 20  2  0  0  0  0
  5  1  1  0  0  0  0
  6  8  2  0  0  0  0
  7 15  1  1  0  0  0
  7  9  1  0  0  0  0
  9 14  1  1  0  0  0
 10 21  2  0  0  0  0
 11  5  1  0  0  0  0
 11  8  1  0  0  0  0
 12  8  1  6  0  0  0
 12  4  1  0  0  0  0
 12 27  1  0  0  0  0
 13 18  2  0  0  0  0
 15 23  1  0  0  0  0
 17  3  1  0  0  0  0
 18 25  1  0  0  0  0
 19 26  1  0  0  0  0
 20 17  1  0  0  0  0
 22 20  1  6  0  0  0
 22  9  1  0  0  0  0
 22 10  1  0  0  0  0
 23 14  1  0  0  0  0
 24 27  2  0  0  0  0
 26 25  2  0  0  0  0
 26 17  1  0  0  0  0
 27  7  1  0  0  0  0
 28 11  1  0  0  0  0
 29 30  1  0  0  0  0
 30 28  1  0  0  0  0
M  END
>  <MODEL>
2

>  <REMARK>
 VINA RESULT:      -9.3      2.367      3.354
  Name = 
  2 active torsions:
  status: ('A' for Active; 'I' for Inactive)
    1  A    between atoms: N_11  and  C_28
    2  A    between atoms: C_28  and  C_30
                            x       y       z     vdW  Elec       q    Type
                         _______ _______ _______ _____ _____    ______ ____

>  <TORSDO>
F 2

$$$$
=
 OpenBabel11122410343D

 30 35  0  0  1  0  0  0  0  0999 V2000
  189.4280  177.6260  140.2380 C   0  0  0  0  0  0  0  0  0  0  0  0
  190.3360  176.5750  138.1460 C   0  0  2  0  0  3  0  0  0  0  0  0
  185.6370  178.4770  138.6700 N   0  0  0  0  0  2  0  0  0  0  0  0
  188.3200  178.2510  141.0410 C   0  0  0  0  0  0  0  0  0  0  0  0
  190.8020  177.5120  140.8390 C   0  0  0  0  0  2  0  0  0  0  0  0
  190.2200  178.6640  144.1760 O   0  0  0  0  0  0  0  0  0  0  0  0
  186.0960  178.6010  143.3260 C   0  0  1  0  0  3  0  0  0  0  0  0
  189.8780  178.2350  143.0420 C   0  0  0  0  0  0  0  0  0  0  0  0
  185.3650  178.2660  142.1110 N   0  0  1  0  0  0  0  0  0  0  0  0
  185.0060  179.0770  139.7930 C   0  0  0  0  0  0  0  0  0  0  0  0
  190.7650  177.3990  142.2890 N   0  0  0  0  0  0  0  0  0  0  0  0
  188.5130  178.5720  142.5110 C   0  0  2  0  0  3  0  0  0  0  0  0
  190.0210  176.4410  136.6780 C   0  0  0  0  0  3  0  0  0  0  0  0
  183.9910  178.6180  142.4580 C   0  0  0  0  0  2  0  0  0  0  0  0
  185.2130  178.2380  144.4990 C   0  0  0  0  0  2  0  0  0  0  0  0
  190.5720  175.3040  138.6750 O   0  0  0  0  0  1  0  0  0  0  0  0
  186.9180  178.1310  139.0880 N   0  0  0  0  0  0  0  0  0  0  0  0
  188.8300  176.7490  136.1610 C   0  0  0  0  0  3  0  0  0  0  0  0
  189.2430  177.2640  138.9420 C   0  0  0  0  0  0  0  0  0  0  0  0
  187.1340  178.4960  140.4390 C   0  0  0  0  0  0  0  0  0  0  0  0
  183.8530  179.5760  139.7280 O   0  0  0  0  0  0  0  0  0  0  0  0
  185.8840  179.1180  141.0280 C   0  0  2  0  0  3  0  0  0  0  0  0
  183.8130  178.3540  143.9430 C   0  0  0  0  0  2  0  0  0  0  0  0
  187.5870  176.8340  143.8530 O   0  0  0  0  0  0  0  0  0  0  0  0
  187.7470  177.2890  136.9960 C   0  0  0  0  0  3  0  0  0  0  0  0
  187.9370  177.5310  138.2940 C   0  0  0  0  0  0  0  0  0  0  0  0
  187.4330  177.9340  143.3380 C   0  0  0  0  0  0  0  0  0  0  0  0
  191.8860  176.7360  142.9400 C   0  0  0  0  0  2  0  0  0  0  0  0
  191.7690  175.9600  145.3130 C   0  0  0  0  0  1  0  0  0  0  0  0
  191.3920  175.6460  143.8790 C   0  0  0  0  0  2  0  0  0  0  0  0
  1  5  1  0  0  0  0
  1  4  1  0  0  0  0
  2 16  1  1  0  0  0
  2 19  1  0  0  0  0
  3 17  1  0  0  0  0
  3 10  1  0  0  0  0
  5 11  1  0  0  0  0
  7 27  1  0  0  0  0
  7 15  1  1  0  0  0
  8  6  2  0  0  0  0
  9 14  1  1  0  0  0
  9  7  1  0  0  0  0
 11 28  1  0  0  0  0
 11  8  1  0  0  0  0
 12  4  1  6  0  0  0
 12  8  1  0  0  0  0
 12 27  1  0  0  0  0
 13  2  1  0  0  0  0
 14 23  1  0  0  0  0
 17 20  1  0  0  0  0
 18 13  2  0  0  0  0
 18 25  1  0  0  0  0
 19  1  2  0  0  0  0
 20 22  1  0  0  0  0
 20  4  2  0  0  0  0
 21 10  2  0  0  0  0
 22 10  1  6  0  0  0
 22  9  1  0  0  0  0
 23 15  1  0  0  0  0
 25 26  2  0  0  0  0
 26 19  1  0  0  0  0
 26 17  1  0  0  0  0
 27 24  2  0  0  0  0
 28 30  1  0  0  0  0
 30 29  1  0  0  0  0
M  END
>  <MODEL>
3

>  <REMARK>
 VINA RESULT:      -8.7      2.466      6.709
  Name = 
  2 active torsions:
  status: ('A' for Active; 'I' for Inactive)
    1  A    between atoms: N_11  and  C_28
    2  A    between atoms: C_28  and  C_30
                            x       y       z     vdW  Elec       q    Type
                         _______ _______ _______ _____ _____    ______ ____

>  <TORSDO>
F 2

$$$$
=
 OpenBabel11122410343D

 30 35  0  0  1  0  0  0  0  0999 V2000
  189.2020  177.3820  138.2480 C   0  0  0  0  0  0  0  0  0  0  0  0
  188.2790  176.8210  135.9810 C   0  0  2  0  0  3  0  0  0  0  0  0
  185.5590  178.6470  139.8850 N   0  0  0  0  0  2  0  0  0  0  0  0
  189.0460  177.8280  139.6760 C   0  0  0  0  0  0  0  0  0  0  0  0
  190.5780  177.1060  137.7070 C   0  0  0  0  0  2  0  0  0  0  0  0
  192.5880  177.4720  140.6450 O   0  0  0  0  0  0  0  0  0  0  0  0
  189.0260  177.6900  142.8800 C   0  0  1  0  0  3  0  0  0  0  0  0
  191.5070  177.3220  140.0130 C   0  0  0  0  0  0  0  0  0  0  0  0
  187.6270  177.6570  142.4740 N   0  0  1  0  0  0  0  0  0  0  0  0
  185.9570  178.9850  141.2060 C   0  0  0  0  0  0  0  0  0  0  0  0
  191.5010  176.6640  138.7410 N   0  0  0  0  0  0  0  0  0  0  0  0
  190.2240  177.8000  140.6310 C   0  0  2  0  0  3  0  0  0  0  0  0
  187.0470  177.0340  135.1400 C   0  0  0  0  0  3  0  0  0  0  0  0
  186.9260  177.9480  143.7220 C   0  0  0  0  0  2  0  0  0  0  0  0
  189.1090  177.0840  144.2640 C   0  0  0  0  0  2  0  0  0  0  0  0
  188.5850  175.4580  135.9980 O   0  0  0  0  0  1  0  0  0  0  0  0
  186.7050  178.1880  139.2440 N   0  0  0  0  0  0  0  0  0  0  0  0
  185.8930  177.4770  135.6430 C   0  0  0  0  0  3  0  0  0  0  0  0
  188.1390  177.3310  137.4040 C   0  0  0  0  0  0  0  0  0  0  0  0
  187.8280  178.2290  140.1060 C   0  0  0  0  0  0  0  0  0  0  0  0
  185.1660  179.5090  142.0330 O   0  0  0  0  0  0  0  0  0  0  0  0
  187.4250  178.7240  141.4800 C   0  0  2  0  0  3  0  0  0  0  0  0
  187.7440  177.3530  144.8560 C   0  0  0  0  0  2  0  0  0  0  0  0
  190.1510  175.8190  141.9540 O   0  0  0  0  0  0  0  0  0  0  0  0
  185.7610  177.8320  137.0640 C   0  0  0  0  0  3  0  0  0  0  0  0
  186.8080  177.7660  137.8880 C   0  0  0  0  0  0  0  0  0  0  0  0
  189.8860  177.0100  141.8650 C   0  0  0  0  0  0  0  0  0  0  0  0
  192.6340  175.8470  138.3260 C   0  0  0  0  0  2  0  0  0  0  0  0
  193.3360  173.8170  137.0480 C   0  0  0  0  0  1  0  0  0  0  0  0
  192.1580  174.6250  137.5550 C   0  0  0  0  0  2  0  0  0  0  0  0
  1  4  1  0  0  0  0
  2 16  1  1  0  0  0
  2 19  1  0  0  0  0
  3 10  1  0  0  0  0
  4 20  2  0  0  0  0
  5  1  1  0  0  0  0
  5 11  1  0  0  0  0
  7 15  1  1  0  0  0
  8 12  1  0  0  0  0
  8  6  2  0  0  0  0
  9  7  1  0  0  0  0
  9 14  1  1  0  0  0
 10 22  1  0  0  0  0
 10 21  2  0  0  0  0
 11  8  1  0  0  0  0
 12  4  1  6  0  0  0
 12 27  1  0  0  0  0
 13 18  2  0  0  0  0
 13  2  1  0  0  0  0
 14 23  1  0  0  0  0
 15 23  1  0  0  0  0
 17  3  1  0  0  0  0
 17 20  1  0  0  0  0
 18 25  1  0  0  0  0
 19 26  1  0  0  0  0
 19  1  2  0  0  0  0
 22 20  1  6  0  0  0
 22  9  1  0  0  0  0
 25 26  2  0  0  0  0
 26 17  1  0  0  0  0
 27 24  2  0  0  0  0
 27  7  1  0  0  0  0
 28 11  1  0  0  0  0
 29 30  1  0  0  0  0
 30 28  1  0  0  0  0
M  END
>  <MODEL>
4

>  <REMARK>
 VINA RESULT:      -8.7      2.794      5.832
  Name = 
  2 active torsions:
  status: ('A' for Active; 'I' for Inactive)
    1  A    between atoms: N_11  and  C_28
    2  A    between atoms: C_28  and  C_30
                            x       y       z     vdW  Elec       q    Type
                         _______ _______ _______ _____ _____    ______ ____

>  <TORSDO>
F 2

$$$$
=
 OpenBabel11122410343D

 30 35  0  0  1  0  0  0  0  0999 V2000
  187.9500  178.1150  141.7210 C   0  0  0  0  0  0  0  0  0  0  0  0
  187.6530  177.8600  144.2010 C   0  0  0  0  0  0  0  0  0  0  0  0
  192.0280  177.1560  141.6840 N   0  0  0  0  0  2  0  0  0  0  0  0
  188.7700  178.0330  140.4630 C   0  0  0  0  0  0  0  0  0  0  0  0
  186.5380  178.6280  141.6500 C   0  0  0  0  0  2  0  0  0  0  0  0
  186.0910  179.0030  138.1190 O   0  0  0  0  0  0  0  0  0  0  0  0
  189.7670  177.0170  137.5880 C   0  0  1  0  0  3  0  0  0  0  0  0
  186.6660  178.5790  139.1580 C   0  0  0  0  0  0  0  0  0  0  0  0
  190.7280  176.4920  138.5480 N   0  0  1  0  0  0  0  0  0  0  0  0
  192.3180  177.2530  140.2960 C   0  0  0  0  0  0  0  0  0  0  0  0
  185.9180  178.3650  140.3600 N   0  0  0  0  0  0  0  0  0  0  0  0
  188.1330  178.2570  139.1050 C   0  0  2  0  0  3  0  0  0  0  0  0
  188.4650  177.7390  145.4650 C   0  0  0  0  0  3  0  0  0  0  0  0
  191.8430  176.0900  137.6950 C   0  0  0  0  0  2  0  0  0  0  0  0
  189.8460  176.1510  136.3500 C   0  0  0  0  0  2  0  0  0  0  0  0
  186.7210  176.8220  144.1620 O   0  0  0  0  0  1  0  0  0  0  0  0
  190.6730  177.4400  141.8140 N   0  0  0  0  0  0  0  0  0  0  0  0
  189.7740  177.4750  145.4640 C   0  0  0  0  0  3  0  0  0  0  0  0
  188.4920  177.8420  142.9360 C   0  0  0  0  0  0  0  0  0  0  0  0
  190.0840  177.7260  140.5580 C   0  0  0  0  0  0  0  0  0  0  0  0
  193.4860  177.1280  139.8430 O   0  0  0  0  0  0  0  0  0  0  0  0
  191.1080  177.5930  139.4490 C   0  0  2  0  0  3  0  0  0  0  0  0
  191.2610  175.6230  136.3720 C   0  0  0  0  0  2  0  0  0  0  0  0
  187.6130  176.1620  138.0940 O   0  0  0  0  0  0  0  0  0  0  0  0
  190.5270  177.3280  144.2090 C   0  0  0  0  0  3  0  0  0  0  0  0
  189.9300  177.4990  143.0280 C   0  0  2  0  0  3  0  0  0  0  0  0
  188.4040  177.0910  138.1950 C   0  0  0  0  0  0  0  0  0  0  0  0
  184.4640  178.2740  140.3200 C   0  0  0  0  0  2  0  0  0  0  0  0
  182.4210  178.6280  141.7150 C   0  0  0  0  0  1  0  0  0  0  0  0
  183.8900  178.2540  141.7280 C   0  0  0  0  0  2  0  0  0  0  0  0
  1 19  2  0  0  0  0
  2 13  2  0  0  0  0
  3 17  1  0  0  0  0
  4 20  2  0  0  0  0
  4  1  1  0  0  0  0
  5  1  1  0  0  0  0
  6  8  2  0  0  0  0
  7 15  1  6  0  0  0
  7 27  1  0  0  0  0
  7  9  1  0  0  0  0
  8 11  1  0  0  0  0
  9 14  1  6  0  0  0
  9 22  1  0  0  0  0
 10  3  1  0  0  0  0
 11  5  1  0  0  0  0
 12 27  1  6  0  0  0
 12  8  1  0  0  0  0
 12  4  1  0  0  0  0
 15 23  1  0  0  0  0
 16  2  1  0  0  0  0
 17 26  1  0  0  0  0
 18 13  1  0  0  0  0
 19 26  1  0  0  0  0
 19  2  1  0  0  0  0
 20 17  1  0  0  0  0
 21 10  2  0  0  0  0
 22 10  1  1  0  0  0
 22 20  1  0  0  0  0
 23 14  1  0  0  0  0
 24 27  2  0  0  0  0
 25 18  2  0  0  0  0
 26 25  1  1  0  0  0
 28 11  1  0  0  0  0
 28 30  1  0  0  0  0
 29 30  1  0  0  0  0
M  END
>  <MODEL>
5

>  <REMARK>
 VINA RESULT:      -8.3      2.783      6.263
  Name = 
  2 active torsions:
  status: ('A' for Active; 'I' for Inactive)
    1  A    between atoms: N_11  and  C_28
    2  A    between atoms: C_28  and  C_30
                            x       y       z     vdW  Elec       q    Type
                         _______ _______ _______ _____ _____    ______ ____

>  <TORSDO>
F 2

$$$$
=
 OpenBabel11122410343D

 30 35  0  0  1  0  0  0  0  0999 V2000
  186.4030  177.9250  143.3150 C   0  0  0  0  0  0  0  0  0  0  0  0
  186.3750  178.4470  140.8600 C   0  0  2  0  0  3  0  0  0  0  0  0
  190.4490  176.8480  143.4720 N   0  0  0  0  0  2  0  0  0  0  0  0
  187.1070  177.5300  144.5850 C   0  0  0  0  0  0  0  0  0  0  0  0
  184.9140  178.1320  143.3310 C   0  0  0  0  0  2  0  0  0  0  0  0
  184.1800  177.7860  146.8160 O   0  0  0  0  0  0  0  0  0  0  0  0
  188.3290  177.7720  147.5410 C   0  0  1  0  0  3  0  0  0  0  0  0
  184.9340  177.9560  145.8210 C   0  0  0  0  0  0  0  0  0  0  0  0
  189.4680  177.8430  146.6350 N   0  0  1  0  0  0  0  0  0  0  0  0
  190.5950  176.5370  144.8510 C   0  0  0  0  0  0  0  0  0  0  0  0
  184.4290  178.5730  144.6310 N   0  0  0  0  0  0  0  0  0  0  0  0
  186.3770  177.5460  145.9140 C   0  0  2  0  0  3  0  0  0  0  0  0
  187.2080  178.2530  139.6180 C   0  0  0  0  0  3  0  0  0  0  0  0
  190.6000  177.6180  147.5300 C   0  0  0  0  0  2  0  0  0  0  0  0
  188.7460  178.4170  148.8440 C   0  0  0  0  0  2  0  0  0  0  0  0
  186.0370  179.7970  140.9700 O   0  0  0  0  0  1  0  0  0  0  0  0
  189.1260  177.2430  143.3050 N   0  0  0  0  0  0  0  0  0  0  0  0
  188.4860  177.8690  139.6540 C   0  0  0  0  0  3  0  0  0  0  0  0
  187.0650  177.9880  142.1310 C   0  0  0  0  0  0  0  0  0  0  0  0
  188.4140  177.1890  144.5280 C   0  0  0  0  0  0  0  0  0  0  0  0
  191.6630  176.0690  145.3240 O   0  0  0  0  0  0  0  0  0  0  0  0
  189.3280  176.7530  145.6560 C   0  0  2  0  0  3  0  0  0  0  0  0
  190.2440  178.2180  148.8790 C   0  0  0  0  0  2  0  0  0  0  0  0
  186.8520  179.5690  147.0810 O   0  0  0  0  0  0  0  0  0  0  0  0
  189.1600  177.5640  140.9240 C   0  0  0  0  0  3  0  0  0  0  0  0
  188.4990  177.6180  142.0820 C   0  0  0  0  0  0  0  0  0  0  0  0
  187.1190  178.3860  146.9160 C   0  0  0  0  0  0  0  0  0  0  0  0
  183.1880  179.3340  144.6620 C   0  0  0  0  0  2  0  0  0  0  0  0
  180.9040  178.6280  143.9330 C   0  0  0  0  0  1  0  0  0  0  0  0
  182.3070  178.9720  143.4760 C   0  0  0  0  0  2  0  0  0  0  0  0
  1  5  1  0  0  0  0
  1  4  1  0  0  0  0
  2 16  1  1  0  0  0
  2 19  1  0  0  0  0
  3 10  1  0  0  0  0
  5 11  1  0  0  0  0
  7 15  1  1  0  0  0
  8 12  1  0  0  0  0
  8  6  2  0  0  0  0
  9 14  1  1  0  0  0
  9  7  1  0  0  0  0
 10 21  2  0  0  0  0
 10 22  1  0  0  0  0
 11 28  1  0  0  0  0
 11  8  1  0  0  0  0
 12  4  1  6  0  0  0
 12 27  1  0  0  0  0
 13 18  2  0  0  0  0
 13  2  1  0  0  0  0
 14 23  1  0  0  0  0
 15 23  1  0  0  0  0
 17  3  1  0  0  0  0
 17 20  1  0  0  0  0
 18 25  1  0  0  0  0
 19  1  2  0  0  0  0
 20  4  2  0  0  0  0
 22 20  1  6  0  0  0
 22  9  1  0  0  0  0
 25 26  2  0  0  0  0
 26 19  1  0  0  0  0
 26 17  1  0  0  0  0
 27 24  2  0  0  0  0
 27  7  1  0  0  0  0
 30 29  1  0  0  0  0
 30 28  1  0  0  0  0
M  END
>  <MODEL>
6

>  <REMARK>
 VINA RESULT:      -8.3      1.921      5.129
  Name = 
  2 active torsions:
  status: ('A' for Active; 'I' for Inactive)
    1  A    between atoms: N_11  and  C_28
    2  A    between atoms: C_28  and  C_30
                            x       y       z     vdW  Elec       q    Type
                         _______ _______ _______ _____ _____    ______ ____

>  <TORSDO>
F 2

$$$$
=
 OpenBabel11122410343D

 30 35  0  0  1  0  0  0  0  0999 V2000
  185.2970  178.3180  140.1800 C   0  0  0  0  0  0  0  0  0  0  0  0
  183.3230  177.9220  138.6800 C   0  0  2  0  0  3  0  0  0  0  0  0
  183.0660  178.8280  143.6890 N   0  0  0  0  0  2  0  0  0  0  0  0
  185.9190  178.5520  141.5300 C   0  0  0  0  0  0  0  0  0  0  0  0
  186.1720  178.3130  138.9560 C   0  0  0  0  0  2  0  0  0  0  0  0
  189.4320  178.5890  140.4050 O   0  0  0  0  0  0  0  0  0  0  0  0
  187.6480  178.0070  144.1750 C   0  0  1  0  0  3  0  0  0  0  0  0
  188.1910  178.3670  140.4220 C   0  0  0  0  0  0  0  0  0  0  0  0
  186.2570  177.8250  144.5680 N   0  0  1  0  0  0  0  0  0  0  0  0
  184.0990  179.0490  144.6390 C   0  0  0  0  0  0  0  0  0  0  0  0
  187.5300  177.8810  139.2470 N   0  0  0  0  0  0  0  0  0  0  0  0
  187.4260  178.5730  141.6980 C   0  0  2  0  0  3  0  0  0  0  0  0
  181.8220  178.0600  138.6690 C   0  0  0  0  0  3  0  0  0  0  0  0
  186.3320  177.8520  146.0260 C   0  0  0  0  0  2  0  0  0  0  0  0
  188.5010  177.2500  145.1690 C   0  0  0  0  0  2  0  0  0  0  0  0
  183.6600  176.6260  138.2830 O   0  0  0  0  0  1  0  0  0  0  0  0
  183.7030  178.6240  142.4690 N   0  0  0  0  0  0  0  0  0  0  0  0
  181.1050  178.2650  139.7760 C   0  0  0  0  0  3  0  0  0  0  0  0
  183.9510  178.2220  140.0290 C   0  0  0  0  0  0  0  0  0  0  0  0
  185.1100  178.7160  142.6010 C   0  0  0  0  0  0  0  0  0  0  0  0
  183.8570  179.3450  145.8380 O   0  0  0  0  0  0  0  0  0  0  0  0
  185.4920  178.9700  144.0460 C   0  0  2  0  0  3  0  0  0  0  0  0
  187.6640  177.2420  146.4270 C   0  0  0  0  0  2  0  0  0  0  0  0
  188.1870  176.4500  142.4700 O   0  0  0  0  0  0  0  0  0  0  0  0
  181.7470  178.4140  141.0900 C   0  0  0  0  0  3  0  0  0  0  0  0
  183.0750  178.3960  141.2110 C   0  0  0  0  0  0  0  0  0  0  0  0
  187.8530  177.5930  142.7550 C   0  0  0  0  0  0  0  0  0  0  0  0
  188.2970  177.2950  138.1560 C   0  0  0  0  0  2  0  0  0  0  0  0
  187.4480  175.1890  137.1100 C   0  0  0  0  0  1  0  0  0  0  0  0
  187.3690  176.7030  137.1070 C   0  0  0  0  0  2  0  0  0  0  0  0
  1  4  1  0  0  0  0
  2 16  1  1  0  0  0
  2 19  1  0  0  0  0
  3 10  1  0  0  0  0
  4 12  1  0  0  0  0
  4 20  2  0  0  0  0
  5 11  1  0  0  0  0
  5  1  1  0  0  0  0
  6  8  2  0  0  0  0
  7  9  1  0  0  0  0
  7 15  1  1  0  0  0
  9 14  1  1  0  0  0
 10 21  2  0  0  0  0
 11  8  1  0  0  0  0
 12  8  1  6  0  0  0
 12 27  1  0  0  0  0
 13  2  1  0  0  0  0
 13 18  2  0  0  0  0
 14 23  1  0  0  0  0
 15 23  1  0  0  0  0
 17 20  1  0  0  0  0
 17  3  1  0  0  0  0
 18 25  1  0  0  0  0
 19  1  2  0  0  0  0
 19 26  1  0  0  0  0
 22 20  1  6  0  0  0
 22  9  1  0  0  0  0
 22 10  1  0  0  0  0
 24 27  2  0  0  0  0
 25 26  2  0  0  0  0
 26 17  1  0  0  0  0
 27  7  1  0  0  0  0
 28 11  1  0  0  0  0
 30 29  1  0  0  0  0
 30 28  1  0  0  0  0
M  END
>  <MODEL>
7

>  <REMARK>
 VINA RESULT:      -8.2      2.758      4.117
  Name = 
  2 active torsions:
  status: ('A' for Active; 'I' for Inactive)
    1  A    between atoms: N_11  and  C_28
    2  A    between atoms: C_28  and  C_30
                            x       y       z     vdW  Elec       q    Type
                         _______ _______ _______ _____ _____    ______ ____

>  <TORSDO>
F 2

$$$$
=
 OpenBabel11122410343D

 30 35  0  0  1  0  0  0  0  0999 V2000
  188.5540  177.2140  145.2220 C   0  0  0  0  0  0  0  0  0  0  0  0
  187.5310  178.0910  147.3400 C   0  0  0  0  0  0  0  0  0  0  0  0
  185.5620  178.6670  142.6750 N   0  0  0  0  0  2  0  0  0  0  0  0
  188.5930  177.0600  143.7260 C   0  0  0  0  0  0  0  0  0  0  0  0
  189.5870  176.5150  146.0630 C   0  0  0  0  0  2  0  0  0  0  0  0
  191.7360  175.1360  143.5560 O   0  0  0  0  0  0  0  0  0  0  0  0
  189.6050  177.3790  140.6990 C   0  0  1  0  0  3  0  0  0  0  0  0
  190.8320  175.9000  143.9880 C   0  0  0  0  0  0  0  0  0  0  0  0
  188.4600  178.2710  140.8290 N   0  0  1  0  0  0  0  0  0  0  0  0
  186.0480  178.2360  141.4110 C   0  0  0  0  0  0  0  0  0  0  0  0
  190.8450  176.3300  145.3550 N   0  0  0  0  0  0  0  0  0  0  0  0
  189.7710  176.3900  143.0450 C   0  0  2  0  0  3  0  0  0  0  0  0
  186.2360  178.6610  147.8590 C   0  0  0  0  0  3  0  0  0  0  0  0
  188.1310  178.5720  139.4390 C   0  0  0  0  0  2  0  0  0  0  0  0
  190.4350  177.8780  139.5370 C   0  0  0  0  0  2  0  0  0  0  0  0
  188.5760  178.9440  147.7010 O   0  0  0  0  0  1  0  0  0  0  0  0
  186.5030  178.2490  143.6110 N   0  0  0  0  0  0  0  0  0  0  0  0
  185.2580  179.0880  147.0570 C   0  0  0  0  0  3  0  0  0  0  0  0
  187.5420  177.8780  145.8380 C   0  0  0  0  0  0  0  0  0  0  0  0
  187.5710  177.5550  142.9920 C   0  0  0  0  0  0  0  0  0  0  0  0
  185.3870  178.3900  140.3500 O   0  0  0  0  0  0  0  0  0  0  0  0
  187.3800  177.5180  141.4890 C   0  0  2  0  0  3  0  0  0  0  0  0
  189.4310  178.5780  138.6520 C   0  0  0  0  0  2  0  0  0  0  0  0
  191.2870  178.0410  142.2340 O   0  0  0  0  0  0  0  0  0  0  0  0
  185.3670  178.9880  145.5940 C   0  0  0  0  0  3  0  0  0  0  0  0
  186.4310  178.4230  145.0220 C   0  0  2  0  0  3  0  0  0  0  0  0
  190.3520  177.2900  141.9890 C   0  0  0  0  0  0  0  0  0  0  0  0
  192.0550  176.2100  146.1560 C   0  0  0  0  0  2  0  0  0  0  0  0
  192.8060  175.6280  148.4690 C   0  0  0  0  0  1  0  0  0  0  0  0
  191.7260  176.2950  147.6390 C   0  0  0  0  0  2  0  0  0  0  0  0
  1 19  2  0  0  0  0
  1  5  1  0  0  0  0
  2 16  1  0  0  0  0
  2 13  2  0  0  0  0
  3 17  1  0  0  0  0
  4  1  1  0  0  0  0
  6  8  2  0  0  0  0
  7 15  1  6  0  0  0
  7  9  1  0  0  0  0
  7 27  1  0  0  0  0
  8 11  1  0  0  0  0
  9 14  1  6  0  0  0
  9 22  1  0  0  0  0
 10  3  1  0  0  0  0
 11  5  1  0  0  0  0
 11 28  1  0  0  0  0
 12 27  1  6  0  0  0
 12  4  1  0  0  0  0
 12  8  1  0  0  0  0
 17 26  1  0  0  0  0
 18 13  1  0  0  0  0
 19  2  1  0  0  0  0
 20 17  1  0  0  0  0
 20  4  2  0  0  0  0
 21 10  2  0  0  0  0
 22 10  1  1  0  0  0
 22 20  1  0  0  0  0
 23 14  1  0  0  0  0
 23 15  1  0  0  0  0
 25 18  2  0  0  0  0
 26 25  1  1  0  0  0
 26 19  1  0  0  0  0
 27 24  2  0  0  0  0
 28 30  1  0  0  0  0
 30 29  1  0  0  0  0
M  END
>  <MODEL>
8

>  <REMARK>
 VINA RESULT:      -8.2      1.497      5.664
  Name = 
  2 active torsions:
  status: ('A' for Active; 'I' for Inactive)
    1  A    between atoms: N_11  and  C_28
    2  A    between atoms: C_28  and  C_30
                            x       y       z     vdW  Elec       q    Type
                         _______ _______ _______ _____ _____    ______ ____

>  <TORSDO>
F 2

$$$$
=
 OpenBabel11122410343D

 30 35  0  0  1  0  0  0  0  0999 V2000
  187.4840  178.1160  141.4420 C   0  0  0  0  0  0  0  0  0  0  0  0
  188.2070  177.5290  143.7740 C   0  0  0  0  0  0  0  0  0  0  0  0
  190.9400  176.6840  139.5550 N   0  0  0  0  0  2  0  0  0  0  0  0
  187.6770  178.1250  139.9500 C   0  0  0  0  0  0  0  0  0  0  0  0
  186.2840  178.8020  142.0350 C   0  0  0  0  0  2  0  0  0  0  0  0
  184.4810  179.7560  139.0940 O   0  0  0  0  0  0  0  0  0  0  0  0
  187.1930  177.4400  136.8540 C   0  0  1  0  0  3  0  0  0  0  0  0
  185.3520  179.1130  139.7400 C   0  0  0  0  0  0  0  0  0  0  0  0
  188.3590  176.6630  137.2530 N   0  0  1  0  0  0  0  0  0  0  0  0
  190.6370  176.9530  138.1930 C   0  0  0  0  0  0  0  0  0  0  0  0
  185.1470  178.8140  141.1260 N   0  0  0  0  0  0  0  0  0  0  0  0
  186.5830  178.6270  139.0280 C   0  0  2  0  0  3  0  0  0  0  0  0
  189.4360  177.1200  144.5440 C   0  0  0  0  0  3  0  0  0  0  0  0
  188.9280  176.2610  135.9700 C   0  0  0  0  0  2  0  0  0  0  0  0
  186.5970  176.7680  135.6370 C   0  0  0  0  0  2  0  0  0  0  0  0
  187.1770  176.6290  144.0570 O   0  0  0  0  0  1  0  0  0  0  0  0
  189.8340  177.1090  140.2850 N   0  0  0  0  0  0  0  0  0  0  0  0
  190.5580  176.7020  143.9520 C   0  0  0  0  0  3  0  0  0  0  0  0
  188.4250  177.5990  142.2730 C   0  0  0  0  0  0  0  0  0  0  0  0
  188.8360  177.6500  139.4390 C   0  0  0  0  0  0  0  0  0  0  0  0
  191.4690  176.7560  137.2690 O   0  0  0  0  0  0  0  0  0  0  0  0
  189.2640  177.5620  137.9880 C   0  0  2  0  0  3  0  0  0  0  0  0
  187.7760  176.0740  134.9970 C   0  0  0  0  0  2  0  0  0  0  0  0
  185.3320  176.7880  138.1720 O   0  0  0  0  0  0  0  0  0  0  0  0
  190.6810  176.6550  142.4870 C   0  0  0  0  0  3  0  0  0  0  0  0
  189.6870  177.0740  141.7010 C   0  0  2  0  0  3  0  0  0  0  0  0
  186.2420  177.5880  137.9970 C   0  0  0  0  0  0  0  0  0  0  0  0
  183.8180  178.9070  141.7140 C   0  0  0  0  0  2  0  0  0  0  0  0
  182.5600  179.0020  143.8710 C   0  0  0  0  0  1  0  0  0  0  0  0
  183.8740  178.6370  143.2100 C   0  0  0  0  0  2  0  0  0  0  0  0
  1  5  1  0  0  0  0
  1 19  2  0  0  0  0
  2 16  1  0  0  0  0
  2 13  2  0  0  0  0
  3 17  1  0  0  0  0
  4  1  1  0  0  0  0
  6  8  2  0  0  0  0
  7 15  1  6  0  0  0
  7  9  1  0  0  0  0
  7 27  1  0  0  0  0
  8 11  1  0  0  0  0
  9 14  1  6  0  0  0
  9 22  1  0  0  0  0
 10  3  1  0  0  0  0
 11 28  1  0  0  0  0
 11  5  1  0  0  0  0
 12 27  1  6  0  0  0
 12  8  1  0  0  0  0
 12  4  1  0  0  0  0
 17 26  1  0  0  0  0
 18 13  1  0  0  0  0
 19  2  1  0  0  0  0
 20  4  2  0  0  0  0
 20 17  1  0  0  0  0
 21 10  2  0  0  0  0
 22 10  1  1  0  0  0
 22 20  1  0  0  0  0
 23 15  1  0  0  0  0
 23 14  1  0  0  0  0
 25 18  2  0  0  0  0
 26 19  1  0  0  0  0
 26 25  1  1  0  0  0
 27 24  2  0  0  0  0
 28 30  1  0  0  0  0
 30 29  1  0  0  0  0
M  END
>  <MODEL>
9

>  <REMARK>
 VINA RESULT:      -8.1      2.869      7.408
  Name = 
  2 active torsions:
  status: ('A' for Active; 'I' for Inactive)
    1  A    between atoms: N_11  and  C_28
    2  A    between atoms: C_28  and  C_30
                            x       y       z     vdW  Elec       q    Type
                         _______ _______ _______ _____ _____    ______ ____

>  <TORSDO>
F 2

$$$$
