=
 OpenBabel11122411533D

 28 31  0  0  1  0  0  0  0  0999 V2000
  189.4750  178.0150  138.8780 C   0  0  0  0  0  0  0  0  0  0  0  0
  193.0100  177.2530  139.2450 C   0  0  0  0  0  1  0  0  0  0  0  0
  189.1740  177.1910  141.5370 C   0  0  0  0  0  3  0  0  0  0  0  0
  189.6170  178.4080  137.5470 O   0  0  0  0  0  0  0  0  0  0  0  0
  193.2400  175.0070  138.4950 O   0  0  0  0  0  1  0  0  0  0  0  0
  192.9130  176.3000  138.0670 C   0  0  1  0  0  0  0  0  0  0  0  0
  193.7080  176.0600  135.6520 C   0  0  2  0  0  3  0  0  0  0  0  0
  191.5610  176.3420  137.4770 N   0  0  1  0  0  0  0  0  0  0  0  0
  186.3570  178.1760  137.5450 C   0  0  0  0  0  1  0  0  0  0  0  0
  189.5090  175.1630  137.2660 C   0  0  2  0  0  3  0  0  0  0  0  0
  192.3020  176.0990  135.2380 N   0  0  0  0  0  2  0  0  0  0  0  0
  193.9240  176.7690  137.0040 C   0  0  0  0  0  2  0  0  0  0  0  0
  187.4380  178.1770  136.4760 C   0  0  2  0  0  3  0  0  0  0  0  0
  189.9220  176.7410  139.2730 C   0  0  0  0  0  0  0  0  0  0  0  0
  194.5690  176.7140  134.5940 C   0  0  0  0  0  1  0  0  0  0  0  0
  187.8780  176.7680  136.0480 C   0  0  0  0  0  2  0  0  0  0  0  0
  189.7630  176.3350  140.6030 C   0  0  0  0  0  3  0  0  0  0  0  0
  188.8750  178.8660  139.8170 C   0  0  0  0  0  3  0  0  0  0  0  0
  188.7290  178.4550  141.1450 C   0  0  0  0  0  3  0  0  0  0  0  0
  188.6000  179.1040  136.8400 C   0  0  0  0  0  2  0  0  0  0  0  0
  190.1730  175.1900  135.9620 N   0  0  0  0  0  0  0  0  0  0  0  0
  188.1020  175.8030  137.2240 C   0  0  1  0  0  3  0  0  0  0  0  0
  191.5550  175.4680  136.3160 C   0  0  2  0  0  3  0  0  0  0  0  0
  190.5030  175.7560  138.2880 C   0  0  2  0  0  3  0  0  0  0  0  0
  186.6090  174.8490  135.8990 C   0  0  0  0  0  1  0  0  0  0  0  0
  187.1330  174.7990  137.1910 O   0  0  0  0  0  0  0  0  0  0  0  0
  190.1260  173.8350  135.4370 C   0  0  0  0  0  2  0  0  0  0  0  0
  191.2550  173.0160  136.0330 C   0  0  0  0  0  1  0  0  0  0  0  0
  1 14  2  0  0  0  0
  1 18  1  0  0  0  0
  4  1  1  0  0  0  0
  6  5  1  0  0  0  0
  6  2  1  1  0  0  0
  7 15  1  6  0  0  0
  7 12  1  0  0  0  0
  8  6  1  0  0  0  0
  8 24  1  0  0  0  0
 10 24  1  0  0  0  0
 11  7  1  0  0  0  0
 11 23  1  0  0  0  0
 12  6  1  0  0  0  0
 13 20  1  0  0  0  0
 13  9  1  0  0  0  0
 14 17  1  0  0  0  0
 16 13  1  0  0  0  0
 16 22  1  0  0  0  0
 17  3  2  0  0  0  0
 18 19  2  0  0  0  0
 19  3  1  0  0  0  0
 20  4  1  0  0  0  0
 21 23  1  0  0  0  0
 21 10  1  0  0  0  0
 22 10  1  0  0  0  0
 23  8  1  0  0  0  0
 24 14  1  0  0  0  0
 25 26  1  0  0  0  0
 26 22  1  0  0  0  0
 27 21  1  0  0  0  0
 27 28  1  0  0  0  0
M  END
>  <MODEL>
1

>  <REMARK>
 VINA RESULT:      -4.9      0.000      0.000
  Name = 
  2 active torsions:
  status: ('A' for Active; 'I' for Inactive)
    1  A    between atoms: C_5  and  N_24
    2  A    between atoms: O_17  and  C_25
                            x       y       z     vdW  Elec       q    Type
                         _______ _______ _______ _____ _____    ______ ____

>  <TORSDO>
F 2

$$$$
=
 OpenBabel11122411533D

 28 31  0  0  1  0  0  0  0  0999 V2000
  182.8440  176.1040  137.2500 C   0  0  0  0  0  0  0  0  0  0  0  0
  185.5910  178.2390  138.3040 C   0  0  0  0  0  1  0  0  0  0  0  0
  183.2330  177.1290  134.6730 C   0  0  0  0  0  3  0  0  0  0  0  0
  182.6340  175.6060  138.5360 O   0  0  0  0  0  0  0  0  0  0  0  0
  184.5630  180.2550  139.0330 O   0  0  0  0  0  1  0  0  0  0  0  0
  184.6750  178.8900  139.3250 C   0  0  1  0  0  0  0  0  0  0  0  0
  184.3400  179.0620  141.8500 C   0  0  2  0  0  3  0  0  0  0  0  0
  183.3540  178.2330  139.3280 N   0  0  1  0  0  0  0  0  0  0  0  0
  179.8340  174.5360  137.2340 C   0  0  0  0  0  1  0  0  0  0  0  0
  181.0800  178.4660  138.6780 C   0  0  2  0  0  3  0  0  0  0  0  0
  183.0370  178.4130  141.6710 N   0  0  0  0  0  2  0  0  0  0  0  0
  185.3170  178.7040  140.7120 C   0  0  0  0  0  2  0  0  0  0  0  0
  180.3340  174.8010  138.6450 C   0  0  2  0  0  3  0  0  0  0  0  0
  182.8270  177.4950  137.0370 C   0  0  0  0  0  0  0  0  0  0  0  0
  184.9360  178.6480  143.1780 C   0  0  0  0  0  1  0  0  0  0  0  0
  179.9510  176.1880  139.1810 C   0  0  0  0  0  2  0  0  0  0  0  0
  183.0170  177.9980  135.7460 C   0  0  0  0  0  3  0  0  0  0  0  0
  183.0520  175.2350  136.1690 C   0  0  0  0  0  3  0  0  0  0  0  0
  183.2500  175.7480  134.8840 C   0  0  0  0  0  3  0  0  0  0  0  0
  181.8210  174.4690  138.7950 C   0  0  0  0  0  2  0  0  0  0  0  0
  181.1590  178.5090  140.1390 N   0  0  0  0  0  0  0  0  0  0  0  0
  180.1670  177.3270  138.1710 C   0  0  1  0  0  3  0  0  0  0  0  0
  182.5530  178.8520  140.3720 C   0  0  2  0  0  3  0  0  0  0  0  0
  182.5310  178.4700  138.1500 C   0  0  2  0  0  3  0  0  0  0  0  0
  179.1350  178.3660  136.5110 C   0  0  0  0  0  1  0  0  0  0  0  0
  178.9310  177.8530  137.7930 O   0  0  0  0  0  0  0  0  0  0  0  0
  180.3580  179.6430  140.5720 C   0  0  0  0  0  2  0  0  0  0  0  0
  179.2100  179.1580  141.4350 C   0  0  0  0  0  1  0  0  0  0  0  0
  1  4  1  0  0  0  0
  3 19  2  0  0  0  0
  3 17  1  0  0  0  0
  4 20  1  0  0  0  0
  5  6  1  0  0  0  0
  6  2  1  6  0  0  0
  6  8  1  0  0  0  0
  6 12  1  0  0  0  0
  7 15  1  1  0  0  0
  8 23  1  0  0  0  0
  9 13  1  0  0  0  0
 10 21  1  0  0  0  0
 11  7  1  0  0  0  0
 12  7  1  0  0  0  0
 13 20  1  0  0  0  0
 13 16  1  0  0  0  0
 14  1  1  0  0  0  0
 14 24  1  0  0  0  0
 17 14  2  0  0  0  0
 18  1  2  0  0  0  0
 19 18  1  0  0  0  0
 21 23  1  0  0  0  0
 21 27  1  0  0  0  0
 22 10  1  0  0  0  0
 22 16  1  0  0  0  0
 23 11  1  0  0  0  0
 24 10  1  0  0  0  0
 24  8  1  0  0  0  0
 25 26  1  0  0  0  0
 26 22  1  0  0  0  0
 27 28  1  0  0  0  0
M  END
>  <MODEL>
2

>  <REMARK>
 VINA RESULT:      -4.6      6.388      9.477
  Name = 
  2 active torsions:
  status: ('A' for Active; 'I' for Inactive)
    1  A    between atoms: C_5  and  N_24
    2  A    between atoms: O_17  and  C_25
                            x       y       z     vdW  Elec       q    Type
                         _______ _______ _______ _____ _____    ______ ____

>  <TORSDO>
F 2

$$$$
=
 OpenBabel11122411533D

 28 31  0  0  1  0  0  0  0  0999 V2000
  185.1180  175.7310  137.1790 C   0  0  0  0  0  0  0  0  0  0  0  0
  185.9950  178.3300  139.5640 C   0  0  0  0  0  1  0  0  0  0  0  0
  187.0910  176.8050  135.5080 C   0  0  0  0  0  3  0  0  0  0  0  0
  184.1200  175.2050  138.0000 O   0  0  0  0  0  0  0  0  0  0  0  0
  184.5110  180.1280  139.0930 O   0  0  0  0  0  1  0  0  0  0  0  0
  184.5540  178.8060  139.5550 C   0  0  1  0  0  0  0  0  0  0  0  0
  182.5030  178.9180  141.0710 C   0  0  2  0  0  3  0  0  0  0  0  0
  183.7210  177.9200  138.7180 N   0  0  1  0  0  0  0  0  0  0  0  0
  183.2470  173.6420  135.2660 C   0  0  0  0  0  1  0  0  0  0  0  0
  182.5840  177.7360  136.6400 C   0  0  2  0  0  3  0  0  0  0  0  0
  181.8120  178.0430  140.1180 N   0  0  0  0  0  2  0  0  0  0  0  0
  184.0330  178.7420  141.0020 C   0  0  0  0  0  2  0  0  0  0  0  0
  182.5550  173.9960  136.5720 C   0  0  2  0  0  3  0  0  0  0  0  0
  185.0810  177.0950  136.8360 C   0  0  0  0  0  0  0  0  0  0  0  0
  182.0210  178.6220  142.4750 C   0  0  0  0  0  1  0  0  0  0  0  0
  181.7330  175.2920  136.5000 C   0  0  0  0  0  2  0  0  0  0  0  0
  186.0690  177.6230  135.9970 C   0  0  0  0  0  3  0  0  0  0  0  0
  186.1400  174.9130  136.6780 C   0  0  0  0  0  3  0  0  0  0  0  0
  187.1270  175.4510  135.8480 C   0  0  0  0  0  3  0  0  0  0  0  0
  183.5180  173.9400  137.7610 C   0  0  0  0  0  2  0  0  0  0  0  0
  181.5930  177.7940  137.7160 N   0  0  0  0  0  0  0  0  0  0  0  0
  182.4580  176.4490  135.7930 C   0  0  1  0  0  3  0  0  0  0  0  0
  182.3470  178.3850  138.8100 C   0  0  2  0  0  3  0  0  0  0  0  0
  183.9610  178.0020  137.2840 C   0  0  2  0  0  3  0  0  0  0  0  0
  180.5400  176.1680  134.7240 C   0  0  0  0  0  1  0  0  0  0  0  0
  181.8060  176.7410  134.5940 O   0  0  0  0  0  0  0  0  0  0  0  0
  180.5880  178.7650  137.3110 C   0  0  0  0  0  2  0  0  0  0  0  0
  181.1890  180.1570  137.3210 C   0  0  0  0  0  1  0  0  0  0  0  0
  1  4  1  0  0  0  0
  3 19  2  0  0  0  0
  3 17  1  0  0  0  0
  5  6  1  0  0  0  0
  6  2  1  6  0  0  0
  6 12  1  0  0  0  0
  7 15  1  1  0  0  0
  8 23  1  0  0  0  0
  8  6  1  0  0  0  0
  9 13  1  0  0  0  0
 10 24  1  0  0  0  0
 10 21  1  0  0  0  0
 11  7  1  0  0  0  0
 12  7  1  0  0  0  0
 13 20  1  0  0  0  0
 14  1  1  0  0  0  0
 14 24  1  0  0  0  0
 16 13  1  0  0  0  0
 17 14  2  0  0  0  0
 18  1  2  0  0  0  0
 19 18  1  0  0  0  0
 20  4  1  0  0  0  0
 21 23  1  0  0  0  0
 22 16  1  0  0  0  0
 22 10  1  0  0  0  0
 23 11  1  0  0  0  0
 24  8  1  0  0  0  0
 26 25  1  0  0  0  0
 26 22  1  0  0  0  0
 27 28  1  0  0  0  0
 27 21  1  0  0  0  0
M  END
>  <MODEL>
3

>  <REMARK>
 VINA RESULT:      -4.3      5.198      8.513
  Name = 
  2 active torsions:
  status: ('A' for Active; 'I' for Inactive)
    1  A    between atoms: C_5  and  N_24
    2  A    between atoms: O_17  and  C_25
                            x       y       z     vdW  Elec       q    Type
                         _______ _______ _______ _____ _____    ______ ____

>  <TORSDO>
F 2

$$$$
=
 OpenBabel11122411533D

 28 31  0  0  1  0  0  0  0  0999 V2000
  180.0130  175.6930  138.1080 C   0  0  0  0  0  0  0  0  0  0  0  0
  178.9920  178.4450  140.2520 C   0  0  0  0  0  1  0  0  0  0  0  0
  179.5660  174.0130  140.3020 C   0  0  0  0  0  3  0  0  0  0  0  0
  180.2550  176.5290  137.0170 O   0  0  0  0  0  0  0  0  0  0  0  0
  181.0110  179.2720  141.2000 O   0  0  0  0  0  1  0  0  0  0  0  0
  180.3230  179.1260  139.9890 C   0  0  1  0  0  0  0  0  0  0  0  0
  181.2930  181.1720  138.8080 C   0  0  2  0  0  3  0  0  0  0  0  0
  181.1160  178.3530  139.0130 N   0  0  1  0  0  0  0  0  0  0  0  0
  181.7780  173.8890  135.8380 C   0  0  0  0  0  1  0  0  0  0  0  0
  182.9850  176.9080  138.7560 C   0  0  2  0  0  3  0  0  0  0  0  0
  182.0300  180.2550  137.9330 N   0  0  0  0  0  2  0  0  0  0  0  0
  180.0250  180.5120  139.3870 C   0  0  0  0  0  2  0  0  0  0  0  0
  181.8240  175.3800  135.5450 C   0  0  2  0  0  3  0  0  0  0  0  0
  180.6520  175.9540  139.3340 C   0  0  0  0  0  0  0  0  0  0  0  0
  180.9090  182.4150  138.0350 C   0  0  0  0  0  1  0  0  0  0  0  0
  182.9490  176.1170  136.2880 C   0  0  0  0  0  2  0  0  0  0  0  0
  180.4270  175.1070  140.4230 C   0  0  0  0  0  3  0  0  0  0  0  0
  179.1570  174.5880  137.9870 C   0  0  0  0  0  3  0  0  0  0  0  0
  178.9320  173.7530  139.0850 C   0  0  0  0  0  3  0  0  0  0  0  0
  180.4490  176.0340  135.6990 C   0  0  0  0  0  2  0  0  0  0  0  0
  183.2890  178.1900  138.1180 N   0  0  0  0  0  0  0  0  0  0  0  0
  183.0780  175.7220  137.7690 C   0  0  1  0  0  3  0  0  0  0  0  0
  182.3390  179.0920  138.7500 C   0  0  2  0  0  3  0  0  0  0  0  0
  181.6400  177.0830  139.4950 C   0  0  2  0  0  3  0  0  0  0  0  0
  185.0610  175.3690  136.8530 C   0  0  0  0  0  1  0  0  0  0  0  0
  184.2820  175.0450  137.9650 O   0  0  0  0  0  0  0  0  0  0  0  0
  184.6170  178.5790  138.5660 C   0  0  0  0  0  2  0  0  0  0  0  0
  184.5620  179.0020  140.0210 C   0  0  0  0  0  1  0  0  0  0  0  0
  1 14  1  0  0  0  0
  3 17  1  0  0  0  0
  4  1  1  0  0  0  0
  6  2  1  1  0  0  0
  6  5  1  0  0  0  0
  7 15  1  6  0  0  0
  7 12  1  0  0  0  0
  8 24  1  0  0  0  0
  8  6  1  0  0  0  0
 10 24  1  0  0  0  0
 11 23  1  0  0  0  0
 11  7  1  0  0  0  0
 12  6  1  0  0  0  0
 13 20  1  0  0  0  0
 13  9  1  0  0  0  0
 13 16  1  0  0  0  0
 14 24  1  0  0  0  0
 14 17  2  0  0  0  0
 16 22  1  0  0  0  0
 18  1  2  0  0  0  0
 18 19  1  0  0  0  0
 19  3  2  0  0  0  0
 20  4  1  0  0  0  0
 21 27  1  0  0  0  0
 21 23  1  0  0  0  0
 21 10  1  0  0  0  0
 22 26  1  0  0  0  0
 22 10  1  0  0  0  0
 23  8  1  0  0  0  0
 25 26  1  0  0  0  0
 27 28  1  0  0  0  0
M  END
>  <MODEL>
4

>  <REMARK>
 VINA RESULT:      -4.3      6.453     10.008
  Name = 
  2 active torsions:
  status: ('A' for Active; 'I' for Inactive)
    1  A    between atoms: C_5  and  N_24
    2  A    between atoms: O_17  and  C_25
                            x       y       z     vdW  Elec       q    Type
                         _______ _______ _______ _____ _____    ______ ____

>  <TORSDO>
F 2

$$$$
=
 OpenBabel11122411533D

 28 31  0  0  1  0  0  0  0  0999 V2000
  187.9750  175.3240  136.6290 C   0  0  0  0  0  0  0  0  0  0  0  0
  190.0700  177.2200  138.9170 C   0  0  0  0  0  1  0  0  0  0  0  0
  189.7150  176.1420  134.5940 C   0  0  0  0  0  3  0  0  0  0  0  0
  187.0950  174.9300  137.6370 O   0  0  0  0  0  0  0  0  0  0  0  0
  189.0690  179.3740  139.0310 O   0  0  0  0  0  1  0  0  0  0  0  0
  188.8550  178.0250  139.3410 C   0  0  1  0  0  0  0  0  0  0  0  0
  187.3320  178.3850  141.3580 C   0  0  2  0  0  3  0  0  0  0  0  0
  187.6380  177.5110  138.6820 N   0  0  1  0  0  0  0  0  0  0  0  0
  185.2070  174.0810  135.1090 C   0  0  0  0  0  1  0  0  0  0  0  0
  186.0360  177.9410  136.9810 C   0  0  2  0  0  3  0  0  0  0  0  0
  186.2230  177.8660  140.5510 N   0  0  0  0  0  2  0  0  0  0  0  0
  188.6930  177.8580  140.8630 C   0  0  0  0  0  2  0  0  0  0  0  0
  184.9670  174.3790  136.5800 C   0  0  2  0  0  3  0  0  0  0  0  0
  188.2350  176.6930  136.4360 C   0  0  0  0  0  0  0  0  0  0  0  0
  187.1330  177.9940  142.8070 C   0  0  0  0  0  1  0  0  0  0  0  0
  184.5390  175.8290  136.8520 C   0  0  0  0  0  2  0  0  0  0  0  0
  189.1020  177.0940  135.4140 C   0  0  0  0  0  3  0  0  0  0  0  0
  188.5860  174.3740  135.7990 C   0  0  0  0  0  3  0  0  0  0  0  0
  189.4570  174.7830  134.7860 C   0  0  0  0  0  3  0  0  0  0  0  0
  186.1300  173.9030  137.4550 C   0  0  0  0  0  2  0  0  0  0  0  0
  185.3830  178.0640  138.2850 N   0  0  0  0  0  0  0  0  0  0  0  0
  185.3660  176.8750  136.0850 C   0  0  1  0  0  3  0  0  0  0  0  0
  186.5060  178.2730  139.1840 C   0  0  2  0  0  3  0  0  0  0  0  0
  187.5460  177.7610  137.2510 C   0  0  2  0  0  3  0  0  0  0  0  0
  183.2510  177.1530  135.4930 C   0  0  0  0  0  1  0  0  0  0  0  0
  184.5550  177.5030  135.1380 O   0  0  0  0  0  0  0  0  0  0  0  0
  184.6170  179.3010  138.2570 C   0  0  0  0  0  2  0  0  0  0  0  0
  183.2200  179.0490  138.7900 C   0  0  0  0  0  1  0  0  0  0  0  0
  1  4  1  0  0  0  0
  3 19  2  0  0  0  0
  3 17  1  0  0  0  0
  5  6  1  0  0  0  0
  6  2  1  6  0  0  0
  6 12  1  0  0  0  0
  7 15  1  1  0  0  0
  8 23  1  0  0  0  0
  8  6  1  0  0  0  0
  9 13  1  0  0  0  0
 10 24  1  0  0  0  0
 10 21  1  0  0  0  0
 11  7  1  0  0  0  0
 12  7  1  0  0  0  0
 13 16  1  0  0  0  0
 13 20  1  0  0  0  0
 14  1  1  0  0  0  0
 14 24  1  0  0  0  0
 17 14  2  0  0  0  0
 18  1  2  0  0  0  0
 19 18  1  0  0  0  0
 20  4  1  0  0  0  0
 21 23  1  0  0  0  0
 22 16  1  0  0  0  0
 22 10  1  0  0  0  0
 23 11  1  0  0  0  0
 24  8  1  0  0  0  0
 26 25  1  0  0  0  0
 26 22  1  0  0  0  0
 27 21  1  0  0  0  0
 27 28  1  0  0  0  0
M  END
>  <MODEL>
5

>  <REMARK>
 VINA RESULT:      -4.2      2.856      6.083
  Name = 
  2 active torsions:
  status: ('A' for Active; 'I' for Inactive)
    1  A    between atoms: C_5  and  N_24
    2  A    between atoms: O_17  and  C_25
                            x       y       z     vdW  Elec       q    Type
                         _______ _______ _______ _____ _____    ______ ____

>  <TORSDO>
F 2

$$$$
=
 OpenBabel11122411533D

 28 31  0  0  1  0  0  0  0  0999 V2000
  180.6200  179.3330  139.3540 C   0  0  0  0  0  0  0  0  0  0  0  0
  179.8580  178.4450  135.9130 C   0  0  0  0  0  1  0  0  0  0  0  0
  180.2740  182.0030  138.5850 C   0  0  0  0  0  3  0  0  0  0  0  0
  180.8120  178.0050  139.7370 O   0  0  0  0  0  0  0  0  0  0  0  0
  181.9690  178.3260  134.8230 O   0  0  0  0  0  1  0  0  0  0  0  0
  181.1900  177.7220  135.8180 C   0  0  1  0  0  0  0  0  0  0  0  0
  182.1440  175.3640  135.6040 C   0  0  2  0  0  3  0  0  0  0  0  0
  181.8810  177.7390  137.1220 N   0  0  1  0  0  0  0  0  0  0  0  0
  182.1480  179.3780  142.3840 C   0  0  0  0  0  1  0  0  0  0  0  0
  183.6730  178.7090  138.3450 C   0  0  2  0  0  3  0  0  0  0  0  0
  182.7820  175.5570  136.9090 N   0  0  0  0  0  2  0  0  0  0  0  0
  180.8990  176.2590  135.4390 C   0  0  0  0  0  2  0  0  0  0  0  0
  182.2270  178.0110  141.7240 C   0  0  2  0  0  3  0  0  0  0  0  0
  181.3550  179.8530  138.2740 C   0  0  0  0  0  0  0  0  0  0  0  0
  181.7500  173.9120  135.4390 C   0  0  0  0  0  1  0  0  0  0  0  0
  183.4280  177.8540  140.7800 C   0  0  0  0  0  2  0  0  0  0  0  0
  181.1800  181.1900  137.8990 C   0  0  0  0  0  3  0  0  0  0  0  0
  179.7190  180.1550  140.0460 C   0  0  0  0  0  3  0  0  0  0  0  0
  179.5440  181.4870  139.6590 C   0  0  0  0  0  3  0  0  0  0  0  0
  180.8910  177.6030  141.0980 C   0  0  0  0  0  2  0  0  0  0  0  0
  183.9750  177.2970  138.1050 N   0  0  0  0  0  0  0  0  0  0  0  0
  183.6510  179.0590  139.8510 C   0  0  1  0  0  3  0  0  0  0  0  0
  183.1080  176.9720  136.9850 C   0  0  2  0  0  3  0  0  0  0  0  0
  182.3930  179.0350  137.5450 C   0  0  2  0  0  3  0  0  0  0  0  0
  185.5200  178.7820  141.0030 C   0  0  0  0  0  1  0  0  0  0  0  0
  184.8410  179.6990  140.1990 O   0  0  0  0  0  0  0  0  0  0  0  0
  185.3460  177.2360  137.6210 C   0  0  0  0  0  2  0  0  0  0  0  0
  185.3740  177.5030  136.1290 C   0  0  0  0  0  1  0  0  0  0  0  0
  1  4  1  0  0  0  0
  1 18  1  0  0  0  0
  3 19  1  0  0  0  0
  4 20  1  0  0  0  0
  5  6  1  0  0  0  0
  6  2  1  1  0  0  0
  6  8  1  0  0  0  0
  7 15  1  1  0  0  0
  7 11  1  0  0  0  0
  8 24  1  0  0  0  0
 10 22  1  0  0  0  0
 11 23  1  0  0  0  0
 12  7  1  0  0  0  0
 12  6  1  0  0  0  0
 13  9  1  0  0  0  0
 14  1  2  0  0  0  0
 16 13  1  0  0  0  0
 17 14  1  0  0  0  0
 17  3  2  0  0  0  0
 19 18  2  0  0  0  0
 20 13  1  0  0  0  0
 21 10  1  0  0  0  0
 22 26  1  0  0  0  0
 22 16  1  0  0  0  0
 23  8  1  0  0  0  0
 23 21  1  0  0  0  0
 24 14  1  0  0  0  0
 24 10  1  0  0  0  0
 26 25  1  0  0  0  0
 27 21  1  0  0  0  0
 28 27  1  0  0  0  0
M  END
>  <MODEL>
6

>  <REMARK>
 VINA RESULT:      -4.1      6.096      9.399
  Name = 
  2 active torsions:
  status: ('A' for Active; 'I' for Inactive)
    1  A    between atoms: C_5  and  N_24
    2  A    between atoms: O_17  and  C_25
                            x       y       z     vdW  Elec       q    Type
                         _______ _______ _______ _____ _____    ______ ____

>  <TORSDO>
F 2

$$$$
=
 OpenBabel11122411533D

 28 31  0  0  1  0  0  0  0  0999 V2000
  182.9590  175.5060  138.0400 C   0  0  0  0  0  0  0  0  0  0  0  0
  184.1510  177.6310  140.7370 C   0  0  0  0  0  1  0  0  0  0  0  0
  185.4670  175.8650  136.8480 C   0  0  0  0  0  3  0  0  0  0  0  0
  181.7020  175.3400  138.6210 O   0  0  0  0  0  0  0  0  0  0  0  0
  183.4680  179.8300  140.1400 O   0  0  0  0  0  1  0  0  0  0  0  0
  182.9800  178.5670  140.5000 C   0  0  1  0  0  0  0  0  0  0  0  0
  180.8220  179.3510  141.6170 C   0  0  2  0  0  3  0  0  0  0  0  0
  182.0860  178.0230  139.4590 N   0  0  1  0  0  0  0  0  0  0  0  0
  180.9250  174.1910  135.6620 C   0  0  0  0  0  1  0  0  0  0  0  0
  181.3890  178.2550  137.1990 C   0  0  2  0  0  3  0  0  0  0  0  0
  180.0860  178.7710  140.4890 N   0  0  0  0  0  2  0  0  0  0  0  0
  182.1900  178.6680  141.8170 C   0  0  0  0  0  2  0  0  0  0  0  0
  180.1430  174.7460  136.8420 C   0  0  2  0  0  3  0  0  0  0  0  0
  183.4440  176.8050  137.8020 C   0  0  0  0  0  0  0  0  0  0  0  0
  180.0010  179.2210  142.8810 C   0  0  0  0  0  1  0  0  0  0  0  0
  179.8260  176.2440  136.7180 C   0  0  0  0  0  2  0  0  0  0  0  0
  184.6950  176.9750  137.2020 C   0  0  0  0  0  3  0  0  0  0  0  0
  183.7320  174.3940  137.6750 C   0  0  0  0  0  3  0  0  0  0  0  0
  184.9860  174.5750  137.0840 C   0  0  0  0  0  3  0  0  0  0  0  0
  180.7760  174.3550  138.1800 C   0  0  0  0  0  2  0  0  0  0  0  0
  180.2800  178.6340  138.0760 N   0  0  0  0  0  0  0  0  0  0  0  0
  181.0170  177.0950  136.2470 C   0  0  1  0  0  3  0  0  0  0  0  0
  180.9530  178.9240  139.3310 C   0  0  2  0  0  3  0  0  0  0  0  0
  182.6200  178.0330  138.1040 C   0  0  2  0  0  3  0  0  0  0  0  0
  181.9260  178.2510  134.5940 C   0  0  0  0  0  1  0  0  0  0  0  0
  180.7500  177.6010  134.9750 O   0  0  0  0  0  0  0  0  0  0  0  0
  179.7530  179.8910  137.5680 C   0  0  0  0  0  2  0  0  0  0  0  0
  180.7740  180.9930  137.7720 C   0  0  0  0  0  1  0  0  0  0  0  0
  1  4  1  0  0  0  0
  3 19  2  0  0  0  0
  3 17  1  0  0  0  0
  5  6  1  0  0  0  0
  6  2  1  1  0  0  0
  6 12  1  0  0  0  0
  7 12  1  0  0  0  0
  7 15  1  1  0  0  0
  8  6  1  0  0  0  0
  9 13  1  0  0  0  0
 10 21  1  0  0  0  0
 10 24  1  0  0  0  0
 11  7  1  0  0  0  0
 13 20  1  0  0  0  0
 14  1  1  0  0  0  0
 14 24  1  0  0  0  0
 16 13  1  0  0  0  0
 17 14  2  0  0  0  0
 18  1  2  0  0  0  0
 19 18  1  0  0  0  0
 20  4  1  0  0  0  0
 21 23  1  0  0  0  0
 22 16  1  0  0  0  0
 22 10  1  0  0  0  0
 23  8  1  0  0  0  0
 23 11  1  0  0  0  0
 24  8  1  0  0  0  0
 25 26  1  0  0  0  0
 26 22  1  0  0  0  0
 27 28  1  0  0  0  0
 27 21  1  0  0  0  0
M  END
>  <MODEL>
7

>  <REMARK>
 VINA RESULT:      -4.0      6.600      9.852
  Name = 
  2 active torsions:
  status: ('A' for Active; 'I' for Inactive)
    1  A    between atoms: C_5  and  N_24
    2  A    between atoms: O_17  and  C_25
                            x       y       z     vdW  Elec       q    Type
                         _______ _______ _______ _____ _____    ______ ____

>  <TORSDO>
F 2

$$$$
=
 OpenBabel11122411533D

 28 31  0  0  1  0  0  0  0  0999 V2000
  182.2740  175.6790  137.3820 C   0  0  0  0  0  0  0  0  0  0  0  0
  185.4780  177.2300  138.1180 C   0  0  0  0  0  1  0  0  0  0  0  0
  182.9150  175.9860  134.6740 C   0  0  0  0  0  3  0  0  0  0  0  0
  181.9410  175.5430  138.7300 O   0  0  0  0  0  0  0  0  0  0  0  0
  185.0050  179.5490  138.3470 O   0  0  0  0  0  1  0  0  0  0  0  0
  184.7610  178.2970  138.9250 C   0  0  1  0  0  0  0  0  0  0  0  0
  184.4800  179.0940  141.3340 C   0  0  2  0  0  3  0  0  0  0  0  0
  183.3150  178.0110  138.9920 N   0  0  1  0  0  0  0  0  0  0  0  0
  178.9610  174.9550  137.5270 C   0  0  0  0  0  1  0  0  0  0  0  0
  181.1790  178.6620  138.1800 C   0  0  2  0  0  3  0  0  0  0  0  0
  183.0550  178.7710  141.2220 N   0  0  0  0  0  2  0  0  0  0  0  0
  185.3320  178.2620  140.3540 C   0  0  0  0  0  2  0  0  0  0  0  0
  179.5120  175.3860  138.8760 C   0  0  2  0  0  3  0  0  0  0  0  0
  182.6160  176.9490  136.8810 C   0  0  0  0  0  0  0  0  0  0  0  0
  184.9490  178.8430  142.7510 C   0  0  0  0  0  1  0  0  0  0  0  0
  179.4990  176.9080  139.0860 C   0  0  0  0  0  2  0  0  0  0  0  0
  182.9300  177.0940  135.5260 C   0  0  0  0  0  3  0  0  0  0  0  0
  182.2500  174.5720  136.5220 C   0  0  0  0  0  3  0  0  0  0  0  0
  182.5740  174.7260  135.1720 C   0  0  0  0  0  3  0  0  0  0  0  0
  180.8630  174.7320  139.1760 C   0  0  0  0  0  2  0  0  0  0  0  0
  181.2660  179.0000  139.6010 N   0  0  0  0  0  0  0  0  0  0  0  0
  180.0020  177.7070  137.8720 C   0  0  1  0  0  3  0  0  0  0  0  0
  182.7000  179.0240  139.8350 C   0  0  2  0  0  3  0  0  0  0  0  0
  182.5820  178.1850  137.7460 C   0  0  2  0  0  3  0  0  0  0  0  0
  179.1670  178.4060  135.9450 C   0  0  0  0  0  1  0  0  0  0  0  0
  178.9440  178.4320  137.3230 O   0  0  0  0  0  0  0  0  0  0  0  0
  180.7840  180.3660  139.7390 C   0  0  0  0  0  2  0  0  0  0  0  0
  181.1070  181.1520  138.4830 C   0  0  0  0  0  1  0  0  0  0  0  0
  1  4  1  0  0  0  0
  3 19  2  0  0  0  0
  3 17  1  0  0  0  0
  4 20  1  0  0  0  0
  5  6  1  0  0  0  0
  6  2  1  6  0  0  0
  6  8  1  0  0  0  0
  6 12  1  0  0  0  0
  7 15  1  1  0  0  0
  8 23  1  0  0  0  0
  9 13  1  0  0  0  0
 10 21  1  0  0  0  0
 11  7  1  0  0  0  0
 12  7  1  0  0  0  0
 13 16  1  0  0  0  0
 13 20  1  0  0  0  0
 14  1  1  0  0  0  0
 14 24  1  0  0  0  0
 17 14  2  0  0  0  0
 18  1  2  0  0  0  0
 19 18  1  0  0  0  0
 21 27  1  0  0  0  0
 21 23  1  0  0  0  0
 22 10  1  0  0  0  0
 22 16  1  0  0  0  0
 23 11  1  0  0  0  0
 24 10  1  0  0  0  0
 24  8  1  0  0  0  0
 25 26  1  0  0  0  0
 26 22  1  0  0  0  0
 28 27  1  0  0  0  0
M  END
>  <MODEL>
8

>  <REMARK>
 VINA RESULT:      -3.8      6.216      9.476
  Name = 
  2 active torsions:
  status: ('A' for Active; 'I' for Inactive)
    1  A    between atoms: C_5  and  N_24
    2  A    between atoms: O_17  and  C_25
                            x       y       z     vdW  Elec       q    Type
                         _______ _______ _______ _____ _____    ______ ____

>  <TORSDO>
F 2

$$$$
=
 OpenBabel11122411533D

 28 31  0  0  1  0  0  0  0  0999 V2000
  181.0220  178.3480  137.7140 C   0  0  0  0  0  0  0  0  0  0  0  0
  184.0750  179.7240  139.1280 C   0  0  0  0  0  1  0  0  0  0  0  0
  179.8380  178.8020  140.2090 C   0  0  0  0  0  3  0  0  0  0  0  0
  181.6140  178.1020  136.4740 O   0  0  0  0  0  0  0  0  0  0  0  0
  185.2750  177.8450  139.9550 O   0  0  0  0  0  1  0  0  0  0  0  0
  184.8010  178.4380  138.7780 C   0  0  1  0  0  0  0  0  0  0  0  0
  186.6140  177.5590  137.2090 C   0  0  2  0  0  3  0  0  0  0  0  0
  183.9070  177.5230  138.0410 N   0  0  1  0  0  0  0  0  0  0  0  0
  178.9310  176.2980  135.9960 C   0  0  0  0  0  1  0  0  0  0  0  0
  182.6220  175.5320  138.2050 C   0  0  2  0  0  3  0  0  0  0  0  0
  185.5980  176.6950  136.6000 N   0  0  0  0  0  2  0  0  0  0  0  0
  185.9850  178.8050  137.8640 C   0  0  0  0  0  2  0  0  0  0  0  0
  180.3170  176.3530  135.3750 C   0  0  2  0  0  3  0  0  0  0  0  0
  181.6080  177.8140  138.8760 C   0  0  0  0  0  0  0  0  0  0  0  0
  187.6130  177.9890  136.1580 C   0  0  0  0  0  1  0  0  0  0  0  0
  181.3020  175.3420  135.9820 C   0  0  0  0  0  2  0  0  0  0  0  0
  181.0060  178.0410  140.1180 C   0  0  0  0  0  3  0  0  0  0  0  0
  179.8440  179.1020  137.8080 C   0  0  0  0  0  3  0  0  0  0  0  0
  179.2560  179.3310  139.0550 C   0  0  0  0  0  3  0  0  0  0  0  0
  180.8590  177.7830  135.3130 C   0  0  0  0  0  2  0  0  0  0  0  0
  183.7520  175.2900  137.3070 N   0  0  0  0  0  0  0  0  0  0  0  0
  181.2600  175.2790  137.5180 C   0  0  1  0  0  3  0  0  0  0  0  0
  184.6800  176.3480  137.6730 C   0  0  2  0  0  3  0  0  0  0  0  0
  182.8310  176.9310  138.8220 C   0  0  2  0  0  3  0  0  0  0  0  0
  179.9510  174.3190  139.0230 C   0  0  0  0  0  1  0  0  0  0  0  0
  180.7580  174.0400  137.9180 O   0  0  0  0  0  0  0  0  0  0  0  0
  184.3530  174.0290  137.7150 C   0  0  0  0  0  2  0  0  0  0  0  0
  184.1460  172.9900  136.6310 C   0  0  0  0  0  1  0  0  0  0  0  0
  1 18  2  0  0  0  0
  1 14  1  0  0  0  0
  4  1  1  0  0  0  0
  6  2  1  1  0  0  0
  6  5  1  0  0  0  0
  7 15  1  6  0  0  0
  7 12  1  0  0  0  0
  8  6  1  0  0  0  0
  8 24  1  0  0  0  0
 10 24  1  0  0  0  0
 11  7  1  0  0  0  0
 11 23  1  0  0  0  0
 12  6  1  0  0  0  0
 13 16  1  0  0  0  0
 13  9  1  0  0  0  0
 14 17  2  0  0  0  0
 16 22  1  0  0  0  0
 17  3  1  0  0  0  0
 18 19  1  0  0  0  0
 19  3  2  0  0  0  0
 20 13  1  0  0  0  0
 20  4  1  0  0  0  0
 21 23  1  0  0  0  0
 21 27  1  0  0  0  0
 21 10  1  0  0  0  0
 22 26  1  0  0  0  0
 22 10  1  0  0  0  0
 23  8  1  0  0  0  0
 24 14  1  0  0  0  0
 26 25  1  0  0  0  0
 28 27  1  0  0  0  0
M  END
>  <MODEL>
9

>  <REMARK>
 VINA RESULT:      -3.6      5.298      7.870
  Name = 
  2 active torsions:
  status: ('A' for Active; 'I' for Inactive)
    1  A    between atoms: C_5  and  N_24
    2  A    between atoms: O_17  and  C_25
                            x       y       z     vdW  Elec       q    Type
                         _______ _______ _______ _____ _____    ______ ____

>  <TORSDO>
F 2

$$$$
