=
 OpenBabel11122410323D

 30 35  0  0  1  0  0  0  0  0999 V2000
  189.3600  176.9800  143.3170 C   0  0  0  0  0  0  0  0  0  0  0  0
  191.3080  176.4370  144.7090 C   0  0  0  0  0  0  0  0  0  0  0  0
  187.0880  177.8730  146.7710 N   0  0  0  0  0  0  0  0  0  0  0  0
  187.8520  177.2170  143.1420 C   0  0  0  0  0  0  0  0  0  0  0  0
  190.1510  176.8710  142.0770 C   0  0  0  0  0  3  0  0  0  0  0  0
  188.1150  178.6530  139.7710 O   0  0  0  0  0  0  0  0  0  0  0  0
  185.0370  177.9270  142.4030 C   0  0  1  0  0  3  0  0  0  0  0  0
  188.4360  178.0710  140.8450 C   0  0  0  0  0  0  0  0  0  0  0  0
  184.9440  178.2250  143.8180 N   0  0  0  0  0  0  0  0  0  0  0  0
  185.9590  178.1870  146.2160 C   0  0  2  0  0  3  0  0  0  0  0  0
  189.7180  177.3520  140.9170 C   0  0  0  0  0  0  0  0  0  0  0  0
  187.5440  178.0860  141.9810 N   0  0  0  0  0  0  0  0  0  0  0  0
  191.8760  176.3020  145.9780 C   0  0  0  0  0  3  0  0  0  0  0  0
  183.6690  178.7630  144.1150 C   0  0  0  0  0  3  0  0  0  0  0  0
  183.7000  178.4010  141.8250 C   0  0  0  0  0  2  0  0  0  0  0  0
  192.1070  176.1450  143.6510 F   0  0  0  0  0  0  0  0  0  0  0  0
  187.9470  177.5400  145.6820 C   0  0  0  0  0  0  0  0  0  0  0  0
  191.1320  176.5620  147.1230 C   0  0  0  0  0  3  0  0  0  0  0  0
  189.9470  176.8320  144.5560 C   0  0  0  0  0  0  0  0  0  0  0  0
  187.2570  177.6980  144.4360 C   0  0  0  0  0  0  0  0  0  0  0  0
  184.7650  178.5840  147.0100 C   0  0  0  0  0  1  0  0  0  0  0  0
  186.0210  178.0610  144.7490 C   0  0  0  0  0  0  0  0  0  0  0  0
  182.9370  178.8710  143.0230 C   0  0  0  0  0  3  0  0  0  0  0  0
  186.0670  179.7290  141.2010 O   0  0  0  0  0  0  0  0  0  0  0  0
  189.8070  176.9650  147.0110 C   0  0  0  0  0  3  0  0  0  0  0  0
  189.2070  177.1070  145.7530 C   0  0  0  0  0  0  0  0  0  0  0  0
  186.2210  178.6330  141.8090 C   0  0  0  0  0  0  0  0  0  0  0  0
  190.5950  177.2340  139.7170 C   0  0  0  0  0  2  0  0  0  0  0  0
  189.9560  176.0330  137.9790 C   0  0  0  0  0  1  0  0  0  0  0  0
  190.5590  175.9250  139.2320 O   0  0  0  0  0  0  0  0  0  0  0  0
  1 19  1  0  0  0  0
  2 13  1  0  0  0  0
  4  1  2  0  0  0  0
  4 20  1  0  0  0  0
  5  1  1  0  0  0  0
  6  8  2  0  0  0  0
  7 15  1  6  0  0  0
  7  9  1  0  0  0  0
  8 11  1  0  0  0  0
  8 12  1  0  0  0  0
  9 14  1  0  0  0  0
  9 22  1  0  0  0  0
 10  3  1  0  0  0  0
 10 21  1  1  0  0  0
 11  5  2  0  0  0  0
 12  4  1  0  0  0  0
 13 18  2  0  0  0  0
 15 23  1  0  0  0  0
 16  2  1  0  0  0  0
 17 26  1  0  0  0  0
 17  3  2  0  0  0  0
 19  2  2  0  0  0  0
 19 26  1  0  0  0  0
 20 22  2  0  0  0  0
 20 17  1  0  0  0  0
 22 10  1  0  0  0  0
 23 14  2  0  0  0  0
 24 27  2  0  0  0  0
 25 18  1  0  0  0  0
 26 25  2  0  0  0  0
 27 12  1  0  0  0  0
 27  7  1  0  0  0  0
 28 11  1  0  0  0  0
 29 30  1  0  0  0  0
 30 28  1  0  0  0  0
M  END
>  <MODEL>
1

>  <REMARK>
 VINA RESULT:     -12.3      0.000      0.000
  Name = 
  2 active torsions:
  status: ('A' for Active; 'I' for Inactive)
    1  A    between atoms: C_11  and  C_28
    2  A    between atoms: C_28  and  O_30
                            x       y       z     vdW  Elec       q    Type
                         _______ _______ _______ _____ _____    ______ ____

>  <TORSDO>
F 2

$$$$
=
 OpenBabel11122410323D

 30 35  0  0  1  0  0  0  0  0999 V2000
  186.8770  178.3490  142.3010 C   0  0  0  0  0  0  0  0  0  0  0  0
  184.5270  178.9480  141.9210 C   0  0  0  0  0  0  0  0  0  0  0  0
  186.1090  177.7780  146.4200 N   0  0  0  0  0  0  0  0  0  0  0  0
  188.0810  178.1360  143.2320 C   0  0  2  0  0  3  0  0  0  0  0  0
  187.1630  178.3440  140.8540 C   0  0  0  0  0  3  0  0  0  0  0  0
  190.1640  176.4420  140.7260 O   0  0  0  0  0  0  0  0  0  0  0  0
  190.6020  177.4420  144.6930 C   0  0  1  0  0  3  0  0  0  0  0  0
  189.2120  177.0950  141.2360 C   0  0  0  0  0  0  0  0  0  0  0  0
  189.6840  177.2540  145.7980 N   0  0  0  0  0  0  0  0  0  0  0  0
  187.2980  177.4500  146.8220 C   0  0  0  0  0  0  0  0  0  0  0  0
  188.2600  177.7870  140.3520 C   0  0  0  0  0  0  0  0  0  0  0  0
  189.0730  177.1890  142.6710 N   0  0  0  0  0  0  0  0  0  0  0  0
  183.2460  179.1650  142.4340 C   0  0  0  0  0  3  0  0  0  0  0  0
  190.3830  176.7720  146.9300 C   0  0  0  0  0  3  0  0  0  0  0  0
  191.9520  176.9580  145.2330 C   0  0  0  0  0  2  0  0  0  0  0  0
  184.6890  179.1390  140.5870 F   0  0  0  0  0  0  0  0  0  0  0  0
  186.2500  178.0050  145.0200 C   0  0  0  0  0  0  0  0  0  0  0  0
  182.9870  179.0120  143.7910 C   0  0  0  0  0  3  0  0  0  0  0  0
  185.6040  178.5770  142.7780 C   0  0  0  0  0  0  0  0  0  0  0  0
  187.6030  177.7700  144.6100 C   0  0  0  0  0  0  0  0  0  0  0  0
  187.6000  177.1440  148.2460 C   0  0  0  0  0  1  0  0  0  0  0  0
  188.2690  177.4620  145.7140 C   0  0  0  0  0  0  0  0  0  0  0  0
  191.6620  176.5990  146.6560 C   0  0  0  0  0  3  0  0  0  0  0  0
  190.6230  175.5280  143.2460 O   0  0  0  0  0  0  0  0  0  0  0  0
  184.0080  178.6340  144.6530 C   0  0  0  0  0  3  0  0  0  0  0  0
  185.3040  178.4120  144.1710 C   0  0  0  0  0  0  0  0  0  0  0  0
  190.1300  176.6630  143.4990 C   0  0  0  0  0  0  0  0  0  0  0  0
  188.4570  177.7920  138.8740 C   0  0  0  0  0  2  0  0  0  0  0  0
  189.0120  178.9440  137.0760 C   0  0  0  0  0  1  0  0  0  0  0  0
  188.9320  179.0380  138.4640 O   0  0  0  0  0  0  0  0  0  0  0  0
  1 19  2  0  0  0  0
  2 13  2  0  0  0  0
  2 19  1  0  0  0  0
  3 10  2  0  0  0  0
  4  1  1  6  0  0  0
  4 20  1  0  0  0  0
  5  1  1  0  0  0  0
  6  8  2  0  0  0  0
  7 15  1  1  0  0  0
  7  9  1  0  0  0  0
  8 12  1  0  0  0  0
  9 14  1  0  0  0  0
 10 21  1  0  0  0  0
 11  5  2  0  0  0  0
 11  8  1  0  0  0  0
 12  4  1  0  0  0  0
 12 27  1  0  0  0  0
 13 18  1  0  0  0  0
 15 23  1  0  0  0  0
 16  2  1  0  0  0  0
 17  3  1  0  0  0  0
 18 25  2  0  0  0  0
 19 26  1  0  0  0  0
 20 17  1  0  0  0  0
 20 22  2  0  0  0  0
 22  9  1  0  0  0  0
 22 10  1  0  0  0  0
 23 14  2  0  0  0  0
 24 27  2  0  0  0  0
 26 25  1  0  0  0  0
 26 17  2  0  0  0  0
 27  7  1  0  0  0  0
 28 11  1  0  0  0  0
 29 30  1  0  0  0  0
 30 28  1  0  0  0  0
M  END
>  <MODEL>
2

>  <REMARK>
 VINA RESULT:     -10.9      2.177      5.338
  Name = 
  2 active torsions:
  status: ('A' for Active; 'I' for Inactive)
    1  A    between atoms: C_11  and  C_28
    2  A    between atoms: C_28  and  O_30
                            x       y       z     vdW  Elec       q    Type
                         _______ _______ _______ _____ _____    ______ ____

>  <TORSDO>
F 2

$$$$
=
 OpenBabel11122410323D

 30 35  0  0  1  0  0  0  0  0999 V2000
  187.7220  177.5690  144.8900 C   0  0  0  0  0  0  0  0  0  0  0  0
  185.7710  178.1390  146.2670 C   0  0  0  0  0  0  0  0  0  0  0  0
  185.6300  178.6850  141.3880 N   0  0  0  0  0  0  0  0  0  0  0  0
  188.3660  177.2400  143.5340 C   0  0  0  0  0  0  0  0  0  0  0  0
  188.5630  177.3500  146.0820 C   0  0  0  0  0  3  0  0  0  0  0  0
  191.8310  177.5830  144.7020 O   0  0  0  0  0  0  0  0  0  0  0  0
  190.0350  176.7380  141.0980 C   0  0  1  0  0  3  0  0  0  0  0  0
  190.5730  177.4940  144.7230 C   0  0  0  0  0  0  0  0  0  0  0  0
  188.9320  177.4060  140.4380 N   0  0  0  0  0  0  0  0  0  0  0  0
  186.5390  178.4320  140.4980 C   0  0  0  0  0  0  0  0  0  0  0  0
  189.8880  177.2870  146.0100 C   0  0  0  0  0  0  0  0  0  0  0  0
  189.8120  177.5650  143.4970 N   0  0  0  0  0  0  0  0  0  0  0  0
  184.4510  178.5890  146.3490 C   0  0  0  0  0  3  0  0  0  0  0  0
  189.2170  177.5640  139.0620 C   0  0  0  0  0  3  0  0  0  0  0  0
  191.0830  176.5520  139.9950 C   0  0  0  0  0  2  0  0  0  0  0  0
  186.3780  177.8140  147.4360 F   0  0  0  0  0  0  0  0  0  0  0  0
  186.2320  178.3340  142.6310 C   0  0  2  0  0  3  0  0  0  0  0  0
  183.7410  178.9290  145.2040 C   0  0  0  0  0  3  0  0  0  0  0  0
  186.4190  178.0040  145.0040 C   0  0  0  0  0  0  0  0  0  0  0  0
  187.5730  177.8720  142.4240 C   0  0  0  0  0  0  0  0  0  0  0  0
  186.3100  178.6420  139.0440 C   0  0  0  0  0  1  0  0  0  0  0  0
  187.7640  177.8920  141.1130 C   0  0  0  0  0  0  0  0  0  0  0  0
  190.4140  177.0910  138.7700 C   0  0  0  0  0  3  0  0  0  0  0  0
  191.5350  178.3190  142.1000 O   0  0  0  0  0  0  0  0  0  0  0  0
  184.3470  178.8270  143.9580 C   0  0  0  0  0  3  0  0  0  0  0  0
  185.6670  178.3750  143.8400 C   0  0  0  0  0  0  0  0  0  0  0  0
  190.5260  177.5730  142.2450 C   0  0  0  0  0  0  0  0  0  0  0  0
  190.6690  177.1000  147.2670 C   0  0  0  0  0  2  0  0  0  0  0  0
  192.3780  175.8000  147.7710 C   0  0  0  0  0  1  0  0  0  0  0  0
  191.0350  175.7590  147.4000 O   0  0  0  0  0  0  0  0  0  0  0  0
  1 19  1  0  0  0  0
  1  5  1  0  0  0  0
  2 13  1  0  0  0  0
  2 16  1  0  0  0  0
  4  1  2  0  0  0  0
  6  8  2  0  0  0  0
  7 15  1  6  0  0  0
  7 27  1  0  0  0  0
  8 11  1  0  0  0  0
  9  7  1  0  0  0  0
  9 22  1  0  0  0  0
 10 22  1  0  0  0  0
 10  3  2  0  0  0  0
 11  5  2  0  0  0  0
 11 28  1  0  0  0  0
 12  4  1  0  0  0  0
 12  8  1  0  0  0  0
 14  9  1  0  0  0  0
 17  3  1  6  0  0  0
 17 26  1  0  0  0  0
 18 13  2  0  0  0  0
 19  2  2  0  0  0  0
 20 17  1  0  0  0  0
 20  4  1  0  0  0  0
 21 10  1  0  0  0  0
 22 20  2  0  0  0  0
 23 14  2  0  0  0  0
 23 15  1  0  0  0  0
 24 27  2  0  0  0  0
 25 18  1  0  0  0  0
 26 25  2  0  0  0  0
 26 19  1  0  0  0  0
 27 12  1  0  0  0  0
 28 30  1  0  0  0  0
 30 29  1  0  0  0  0
M  END
>  <MODEL>
3

>  <REMARK>
 VINA RESULT:     -10.9      2.644      6.047
  Name = 
  2 active torsions:
  status: ('A' for Active; 'I' for Inactive)
    1  A    between atoms: C_11  and  C_28
    2  A    between atoms: C_28  and  O_30
                            x       y       z     vdW  Elec       q    Type
                         _______ _______ _______ _____ _____    ______ ____

>  <TORSDO>
F 2

$$$$
=
 OpenBabel11122410323D

 30 35  0  0  1  0  0  0  0  0999 V2000
  187.3310  177.7790  143.5850 C   0  0  0  0  0  0  0  0  0  0  0  0
  188.4400  177.7500  145.7750 C   0  0  0  0  0  0  0  0  0  0  0  0
  183.6760  178.8800  145.4040 N   0  0  0  0  0  0  0  0  0  0  0  0
  186.0650  177.7670  142.7150 C   0  0  0  0  0  0  0  0  0  0  0  0
  188.6110  177.5860  142.8770 C   0  0  0  0  0  3  0  0  0  0  0  0
  187.7810  178.6660  139.5940 O   0  0  0  0  0  0  0  0  0  0  0  0
  183.8780  177.9400  140.6750 C   0  0  1  0  0  3  0  0  0  0  0  0
  187.5990  178.3170  140.7930 C   0  0  0  0  0  0  0  0  0  0  0  0
  183.1250  178.4450  141.8060 N   0  0  0  0  0  0  0  0  0  0  0  0
  182.9160  178.9370  144.3540 C   0  0  0  0  0  0  0  0  0  0  0  0
  188.7390  177.8080  141.5740 C   0  0  0  0  0  0  0  0  0  0  0  0
  186.2830  178.3860  141.3860 N   0  0  0  0  0  0  0  0  0  0  0  0
  188.3630  177.9030  147.1620 C   0  0  0  0  0  3  0  0  0  0  0  0
  181.8310  178.8350  141.3870 C   0  0  0  0  0  3  0  0  0  0  0  0
  182.9370  178.1190  139.4800 C   0  0  0  0  0  2  0  0  0  0  0  0
  189.6520  177.4090  145.2670 F   0  0  0  0  0  0  0  0  0  0  0  0
  184.9560  178.5030  144.9040 C   0  0  2  0  0  3  0  0  0  0  0  0
  187.1610  178.2330  147.7760 C   0  0  0  0  0  3  0  0  0  0  0  0
  187.2850  177.9160  144.9560 C   0  0  0  0  0  0  0  0  0  0  0  0
  184.9140  178.3600  143.4790 C   0  0  0  0  0  0  0  0  0  0  0  0
  181.4710  179.2810  144.4350 C   0  0  0  0  0  1  0  0  0  0  0  0
  183.6560  178.5880  143.1290 C   0  0  0  0  0  0  0  0  0  0  0  0
  181.6820  178.6620  140.0880 C   0  0  0  0  0  3  0  0  0  0  0  0
  185.2490  179.6540  139.7080 O   0  0  0  0  0  0  0  0  0  0  0  0
  186.0180  178.4200  147.0070 C   0  0  0  0  0  3  0  0  0  0  0  0
  186.0620  178.2710  145.6150 C   0  0  0  0  0  0  0  0  0  0  0  0
  185.1630  178.7040  140.5350 C   0  0  0  0  0  0  0  0  0  0  0  0
  190.0760  177.6260  140.9400 C   0  0  0  0  0  2  0  0  0  0  0  0
  190.6120  176.4120  139.1780 C   0  0  0  0  0  1  0  0  0  0  0  0
  190.2190  176.3050  140.5110 O   0  0  0  0  0  0  0  0  0  0  0  0
  1 19  1  0  0  0  0
  2 13  1  0  0  0  0
  4 20  1  0  0  0  0
  4  1  2  0  0  0  0
  5  1  1  0  0  0  0
  6  8  2  0  0  0  0
  7 15  1  6  0  0  0
  7  9  1  0  0  0  0
  8 12  1  0  0  0  0
  8 11  1  0  0  0  0
  9 22  1  0  0  0  0
 10 21  1  0  0  0  0
 10  3  2  0  0  0  0
 11  5  2  0  0  0  0
 12  4  1  0  0  0  0
 13 18  2  0  0  0  0
 14  9  1  0  0  0  0
 15 23  1  0  0  0  0
 16  2  1  0  0  0  0
 17 20  1  1  0  0  0
 17  3  1  0  0  0  0
 17 26  1  0  0  0  0
 19 26  1  0  0  0  0
 19  2  2  0  0  0  0
 22 20  2  0  0  0  0
 22 10  1  0  0  0  0
 23 14  2  0  0  0  0
 24 27  2  0  0  0  0
 25 18  1  0  0  0  0
 26 25  2  0  0  0  0
 27  7  1  0  0  0  0
 27 12  1  0  0  0  0
 28 11  1  0  0  0  0
 29 30  1  0  0  0  0
 30 28  1  0  0  0  0
M  END
>  <MODEL>
4

>  <REMARK>
 VINA RESULT:     -10.9      1.789      2.777
  Name = 
  2 active torsions:
  status: ('A' for Active; 'I' for Inactive)
    1  A    between atoms: C_11  and  C_28
    2  A    between atoms: C_28  and  O_30
                            x       y       z     vdW  Elec       q    Type
                         _______ _______ _______ _____ _____    ______ ____

>  <TORSDO>
F 2

$$$$
=
 OpenBabel11122410323D

 30 35  0  0  1  0  0  0  0  0999 V2000
  188.3150  177.4570  143.6850 C   0  0  0  0  0  0  0  0  0  0  0  0
  189.7250  177.2580  145.6850 C   0  0  0  0  0  0  0  0  0  0  0  0
  184.9890  178.4970  146.0810 N   0  0  0  0  0  0  0  0  0  0  0  0
  186.9380  177.5280  143.0080 C   0  0  0  0  0  0  0  0  0  0  0  0
  189.4750  177.2910  142.7890 C   0  0  0  0  0  3  0  0  0  0  0  0
  188.2140  178.6080  139.7370 O   0  0  0  0  0  0  0  0  0  0  0  0
  184.4870  177.8800  141.3210 C   0  0  1  0  0  3  0  0  0  0  0  0
  188.1960  178.1800  140.9240 C   0  0  0  0  0  0  0  0  0  0  0  0
  183.9180  178.3190  142.5790 N   0  0  0  0  0  0  0  0  0  0  0  0
  184.0890  178.6390  145.1580 C   0  0  0  0  0  0  0  0  0  0  0  0
  189.4210  177.5990  141.4980 C   0  0  0  0  0  0  0  0  0  0  0  0
  186.9810  178.2330  141.7040 N   0  0  0  0  0  0  0  0  0  0  0  0
  189.8500  177.3170  147.0750 C   0  0  0  0  0  3  0  0  0  0  0  0
  182.5880  178.7600  142.3790 C   0  0  0  0  0  3  0  0  0  0  0  0
  183.3900  178.1570  140.2880 C   0  0  0  0  0  2  0  0  0  0  0  0
  190.8410  176.9320  144.9870 F   0  0  0  0  0  0  0  0  0  0  0  0
  186.1740  178.1320  145.3780 C   0  0  2  0  0  3  0  0  0  0  0  0
  188.7580  177.6260  147.8770 C   0  0  0  0  0  3  0  0  0  0  0  0
  188.4690  177.5020  145.0550 C   0  0  0  0  0  0  0  0  0  0  0  0
  185.9240  178.0870  143.9670 C   0  0  0  0  0  0  0  0  0  0  0  0
  182.6800  179.0030  145.4680 C   0  0  0  0  0  1  0  0  0  0  0  0
  184.6360  178.3610  143.8180 C   0  0  0  0  0  0  0  0  0  0  0  0
  182.2510  178.6790  141.1050 C   0  0  0  0  0  3  0  0  0  0  0  0
  185.7530  179.6310  140.2800 O   0  0  0  0  0  0  0  0  0  0  0  0
  187.5230  177.8860  147.2950 C   0  0  0  0  0  3  0  0  0  0  0  0
  187.3630  177.8320  145.9050 C   0  0  0  0  0  0  0  0  0  0  0  0
  185.7590  178.6280  141.0470 C   0  0  0  0  0  0  0  0  0  0  0  0
  190.6480  177.4370  140.6670 C   0  0  0  0  0  2  0  0  0  0  0  0
  191.0770  176.6090  138.6680 C   0  0  0  0  0  1  0  0  0  0  0  0
  190.5580  176.2650  139.9140 O   0  0  0  0  0  0  0  0  0  0  0  0
  1 19  1  0  0  0  0
  2 13  1  0  0  0  0
  4  1  2  0  0  0  0
  4 20  1  0  0  0  0
  5  1  1  0  0  0  0
  6  8  2  0  0  0  0
  7 15  1  6  0  0  0
  7  9  1  0  0  0  0
  8 11  1  0  0  0  0
  8 12  1  0  0  0  0
  9 22  1  0  0  0  0
 10 21  1  0  0  0  0
 10  3  2  0  0  0  0
 11  5  2  0  0  0  0
 12  4  1  0  0  0  0
 13 18  2  0  0  0  0
 14  9  1  0  0  0  0
 15 23  1  0  0  0  0
 16  2  1  0  0  0  0
 17 20  1  1  0  0  0
 17 26  1  0  0  0  0
 17  3  1  0  0  0  0
 19  2  2  0  0  0  0
 19 26  1  0  0  0  0
 22 20  2  0  0  0  0
 22 10  1  0  0  0  0
 23 14  2  0  0  0  0
 24 27  2  0  0  0  0
 25 18  1  0  0  0  0
 26 25  2  0  0  0  0
 27  7  1  0  0  0  0
 27 12  1  0  0  0  0
 28 11  1  0  0  0  0
 29 30  1  0  0  0  0
 30 28  1  0  0  0  0
M  END
>  <MODEL>
5

>  <REMARK>
 VINA RESULT:     -10.5      1.236      1.686
  Name = 
  2 active torsions:
  status: ('A' for Active; 'I' for Inactive)
    1  A    between atoms: C_11  and  C_28
    2  A    between atoms: C_28  and  O_30
                            x       y       z     vdW  Elec       q    Type
                         _______ _______ _______ _____ _____    ______ ____

>  <TORSDO>
F 2

$$$$
=
 OpenBabel11122410323D

 30 35  0  0  1  0  0  0  0  0999 V2000
  186.4660  177.9410  143.1360 C   0  0  0  0  0  0  0  0  0  0  0  0
  187.2930  177.9250  145.4470 C   0  0  0  0  0  0  0  0  0  0  0  0
  182.6220  179.0910  144.4730 N   0  0  0  0  0  0  0  0  0  0  0  0
  185.3190  177.9310  142.1140 C   0  0  0  0  0  0  0  0  0  0  0  0
  187.8230  177.7310  142.5950 C   0  0  0  0  0  3  0  0  0  0  0  0
  187.4200  178.7840  139.2240 O   0  0  0  0  0  0  0  0  0  0  0  0
  183.4050  178.1010  139.8150 C   0  0  1  0  0  3  0  0  0  0  0  0
  187.0860  178.4480  140.3940 C   0  0  0  0  0  0  0  0  0  0  0  0
  182.5220  178.6240  140.8380 N   0  0  0  0  0  0  0  0  0  0  0  0
  182.0010  179.1440  143.3360 C   0  0  0  0  0  0  0  0  0  0  0  0
  188.1140  177.9380  141.3160 C   0  0  0  0  0  0  0  0  0  0  0  0
  185.7070  178.5340  140.8170 N   0  0  0  0  0  0  0  0  0  0  0  0
  187.0430  178.0920  146.8120 C   0  0  0  0  0  3  0  0  0  0  0  0
  181.2940  179.0210  140.2580 C   0  0  0  0  0  3  0  0  0  0  0  0
  182.6230  178.2760  138.5100 C   0  0  0  0  0  2  0  0  0  0  0  0
  188.5550  177.5690  145.0980 F   0  0  0  0  0  0  0  0  0  0  0  0
  183.9520  178.6980  144.1410 C   0  0  2  0  0  3  0  0  0  0  0  0
  185.7770  178.4390  147.2680 C   0  0  0  0  0  3  0  0  0  0  0  0
  186.2500  178.0930  144.4890 C   0  0  0  0  0  0  0  0  0  0  0  0
  184.0870  178.5410  142.7230 C   0  0  0  0  0  0  0  0  0  0  0  0
  180.5600  179.5000  143.2320 C   0  0  0  0  0  1  0  0  0  0  0  0
  182.8840  178.7750  142.2160 C   0  0  0  0  0  0  0  0  0  0  0  0
  181.3070  178.8350  138.9510 C   0  0  0  0  0  3  0  0  0  0  0  0
  184.9030  179.7940  139.0120 O   0  0  0  0  0  0  0  0  0  0  0  0
  184.7420  178.6280  146.3600 C   0  0  0  0  0  3  0  0  0  0  0  0
  184.9580  178.4640  144.9860 C   0  0  0  0  0  0  0  0  0  0  0  0
  184.7050  178.8530  139.8300 C   0  0  0  0  0  0  0  0  0  0  0  0
  189.5190  177.7380  140.8570 C   0  0  0  0  0  2  0  0  0  0  0  0
  191.6310  177.4340  141.4140 C   0  0  0  0  0  1  0  0  0  0  0  0
  190.3520  177.5400  141.9580 O   0  0  0  0  0  0  0  0  0  0  0  0
  1 19  1  0  0  0  0
  2 13  1  0  0  0  0
  4 20  1  0  0  0  0
  4  1  2  0  0  0  0
  5  1  1  0  0  0  0
  6  8  2  0  0  0  0
  7 15  1  6  0  0  0
  7 27  1  0  0  0  0
  7  9  1  0  0  0  0
  8 12  1  0  0  0  0
  8 11  1  0  0  0  0
  9 22  1  0  0  0  0
 10  3  2  0  0  0  0
 11  5  2  0  0  0  0
 12  4  1  0  0  0  0
 13 18  2  0  0  0  0
 14  9  1  0  0  0  0
 15 23  1  0  0  0  0
 16  2  1  0  0  0  0
 17 20  1  1  0  0  0
 17  3  1  0  0  0  0
 17 26  1  0  0  0  0
 19 26  1  0  0  0  0
 19  2  2  0  0  0  0
 21 10  1  0  0  0  0
 22 20  2  0  0  0  0
 22 10  1  0  0  0  0
 23 14  2  0  0  0  0
 24 27  2  0  0  0  0
 25 18  1  0  0  0  0
 26 25  2  0  0  0  0
 27 12  1  0  0  0  0
 28 11  1  0  0  0  0
 28 30  1  0  0  0  0
 29 30  1  0  0  0  0
M  END
>  <MODEL>
6

>  <REMARK>
 VINA RESULT:     -10.4      2.420      3.860
  Name = 
  2 active torsions:
  status: ('A' for Active; 'I' for Inactive)
    1  A    between atoms: C_11  and  C_28
    2  A    between atoms: C_28  and  O_30
                            x       y       z     vdW  Elec       q    Type
                         _______ _______ _______ _____ _____    ______ ____

>  <TORSDO>
F 2

$$$$
=
 OpenBabel11122410323D

 30 35  0  0  1  0  0  0  0  0999 V2000
  187.1280  177.7320  144.3540 C   0  0  0  0  0  0  0  0  0  0  0  0
  184.9460  178.3790  145.2730 C   0  0  0  0  0  0  0  0  0  0  0  0
  185.8420  178.7640  140.4600 N   0  0  0  0  0  0  0  0  0  0  0  0
  188.0340  177.3470  143.1740 C   0  0  0  0  0  0  0  0  0  0  0  0
  187.6960  177.5390  145.7020 C   0  0  0  0  0  3  0  0  0  0  0  0
  191.1850  177.6730  145.0340 O   0  0  0  0  0  0  0  0  0  0  0  0
  190.1650  176.7370  141.1590 C   0  0  1  0  0  3  0  0  0  0  0  0
  189.9480  177.6050  144.7930 C   0  0  0  0  0  0  0  0  0  0  0  0
  189.2390  177.4010  140.2630 N   0  0  0  0  0  0  0  0  0  0  0  0
  186.9110  178.4660  139.7890 C   0  0  0  0  0  0  0  0  0  0  0  0
  189.0050  177.4520  145.9130 C   0  0  0  0  0  0  0  0  0  0  0  0
  189.4630  177.6470  143.4330 N   0  0  0  0  0  0  0  0  0  0  0  0
  183.6480  178.8530  145.0640 C   0  0  0  0  0  3  0  0  0  0  0  0
  189.8110  177.5080  138.9730 C   0  0  0  0  0  3  0  0  0  0  0  0
  191.4150  176.4980  140.3070 C   0  0  0  0  0  2  0  0  0  0  0  0
  185.2860  178.0830  146.5530 F   0  0  0  0  0  0  0  0  0  0  0  0
  186.1620  178.4450  141.8120 C   0  0  2  0  0  3  0  0  0  0  0  0
  183.2020  179.1660  143.7850 C   0  0  0  0  0  3  0  0  0  0  0  0
  185.8400  178.1920  144.1790 C   0  0  0  0  0  0  0  0  0  0  0  0
  187.5060  177.9550  141.9050 C   0  0  0  0  0  0  0  0  0  0  0  0
  186.9970  178.6320  138.3130 C   0  0  0  0  0  1  0  0  0  0  0  0
  187.9680  177.9270  140.6630 C   0  0  0  0  0  0  0  0  0  0  0  0
  191.0310  177.0060  138.9540 C   0  0  0  0  0  3  0  0  0  0  0  0
  191.4570  178.3260  142.4080 O   0  0  0  0  0  0  0  0  0  0  0  0
  184.0530  179.0120  142.6980 C   0  0  0  0  0  3  0  0  0  0  0  0
  185.3580  178.5360  142.8730 C   0  0  0  0  0  0  0  0  0  0  0  0
  190.4240  177.6020  142.3590 C   0  0  0  0  0  0  0  0  0  0  0  0
  189.5000  177.2940  147.3100 C   0  0  0  0  0  2  0  0  0  0  0  0
  188.2830  178.1430  148.9420 C   0  0  0  0  0  1  0  0  0  0  0  0
  188.4320  177.0000  148.1590 O   0  0  0  0  0  0  0  0  0  0  0  0
  1  5  1  0  0  0  0
  2 16  1  0  0  0  0
  4 12  1  0  0  0  0
  4  1  2  0  0  0  0
  5 11  2  0  0  0  0
  7 15  1  6  0  0  0
  7 27  1  0  0  0  0
  8  6  2  0  0  0  0
  8 11  1  0  0  0  0
  9 22  1  0  0  0  0
  9  7  1  0  0  0  0
 10  3  2  0  0  0  0
 10 22  1  0  0  0  0
 11 28  1  0  0  0  0
 12  8  1  0  0  0  0
 13  2  1  0  0  0  0
 14  9  1  0  0  0  0
 17  3  1  6  0  0  0
 17 20  1  0  0  0  0
 17 26  1  0  0  0  0
 18 13  2  0  0  0  0
 19  1  1  0  0  0  0
 19  2  2  0  0  0  0
 20  4  1  0  0  0  0
 21 10  1  0  0  0  0
 22 20  2  0  0  0  0
 23 14  2  0  0  0  0
 23 15  1  0  0  0  0
 25 26  2  0  0  0  0
 25 18  1  0  0  0  0
 26 19  1  0  0  0  0
 27 24  2  0  0  0  0
 27 12  1  0  0  0  0
 28 30  1  0  0  0  0
 30 29  1  0  0  0  0
M  END
>  <MODEL>
7

>  <REMARK>
 VINA RESULT:     -10.4      2.742      6.545
  Name = 
  2 active torsions:
  status: ('A' for Active; 'I' for Inactive)
    1  A    between atoms: C_11  and  C_28
    2  A    between atoms: C_28  and  O_30
                            x       y       z     vdW  Elec       q    Type
                         _______ _______ _______ _____ _____    ______ ____

>  <TORSDO>
F 2

$$$$
=
 OpenBabel11122410323D

 30 35  0  0  1  0  0  0  0  0999 V2000
  188.1240  177.3550  144.3350 C   0  0  0  0  0  0  0  0  0  0  0  0
  186.7140  177.8450  146.2840 C   0  0  0  0  0  0  0  0  0  0  0  0
  185.1670  178.9200  141.7480 N   0  0  0  0  0  0  0  0  0  0  0  0
  188.3120  177.1500  142.8240 C   0  0  0  0  0  0  0  0  0  0  0  0
  189.2650  176.9770  145.1910 C   0  0  0  0  0  3  0  0  0  0  0  0
  191.9830  177.2350  142.9150 O   0  0  0  0  0  0  0  0  0  0  0  0
  189.1440  176.8510  139.9620 C   0  0  1  0  0  3  0  0  0  0  0  0
  190.7850  177.1910  143.3080 C   0  0  0  0  0  0  0  0  0  0  0  0
  187.9430  177.6280  139.7310 N   0  0  0  0  0  0  0  0  0  0  0  0
  185.7520  178.7300  140.6060 C   0  0  0  0  0  0  0  0  0  0  0  0
  190.5010  176.8720  144.7170 C   0  0  0  0  0  0  0  0  0  0  0  0
  189.7000  177.4220  142.3820 N   0  0  0  0  0  0  0  0  0  0  0  0
  185.5120  178.3330  146.8030 C   0  0  0  0  0  3  0  0  0  0  0  0
  187.8170  177.9230  138.3530 C   0  0  0  0  0  3  0  0  0  0  0  0
  189.8020  176.7470  138.5820 C   0  0  0  0  0  2  0  0  0  0  0  0
  187.6170  177.3740  147.1800 F   0  0  0  0  0  0  0  0  0  0  0  0
  186.0860  178.4140  142.7140 C   0  0  2  0  0  3  0  0  0  0  0  0
  184.5190  178.8210  145.9620 C   0  0  0  0  0  3  0  0  0  0  0  0
  186.9460  177.8240  144.8770 C   0  0  0  0  0  0  0  0  0  0  0  0
  187.2700  177.9270  142.0690 C   0  0  0  0  0  0  0  0  0  0  0  0
  185.1150  179.1040  139.3140 C   0  0  0  0  0  1  0  0  0  0  0  0
  187.0640  178.0810  140.7680 C   0  0  0  0  0  0  0  0  0  0  0  0
  188.8380  177.4400  137.6710 C   0  0  0  0  0  3  0  0  0  0  0  0
  190.9780  178.2580  140.6040 O   0  0  0  0  0  0  0  0  0  0  0  0
  184.7190  178.8310  144.5870 C   0  0  0  0  0  3  0  0  0  0  0  0
  185.9100  178.3460  144.0350 C   0  0  0  0  0  0  0  0  0  0  0  0
  190.0100  177.5390  140.9780 C   0  0  0  0  0  0  0  0  0  0  0  0
  191.6050  176.5210  145.6560 C   0  0  0  0  0  2  0  0  0  0  0  0
  192.1230  175.8300  147.6860 C   0  0  0  0  0  1  0  0  0  0  0  0
  191.1130  176.4600  146.9610 O   0  0  0  0  0  0  0  0  0  0  0  0
  1 19  1  0  0  0  0
  1  5  1  0  0  0  0
  2 13  1  0  0  0  0
  2 16  1  0  0  0  0
  4  1  2  0  0  0  0
  6  8  2  0  0  0  0
  7 15  1  6  0  0  0
  7 27  1  0  0  0  0
  8 11  1  0  0  0  0
  9  7  1  0  0  0  0
  9 22  1  0  0  0  0
 10 22  1  0  0  0  0
 10  3  2  0  0  0  0
 11  5  2  0  0  0  0
 11 28  1  0  0  0  0
 12  4  1  0  0  0  0
 12  8  1  0  0  0  0
 14  9  1  0  0  0  0
 17  3  1  6  0  0  0
 17 26  1  0  0  0  0
 18 13  2  0  0  0  0
 19  2  2  0  0  0  0
 20 17  1  0  0  0  0
 20  4  1  0  0  0  0
 21 10  1  0  0  0  0
 22 20  2  0  0  0  0
 23 14  2  0  0  0  0
 23 15  1  0  0  0  0
 24 27  2  0  0  0  0
 25 18  1  0  0  0  0
 26 25  2  0  0  0  0
 26 19  1  0  0  0  0
 27 12  1  0  0  0  0
 28 30  1  0  0  0  0
 30 29  1  0  0  0  0
M  END
>  <MODEL>
8

>  <REMARK>
 VINA RESULT:     -10.3      2.392      5.484
  Name = 
  2 active torsions:
  status: ('A' for Active; 'I' for Inactive)
    1  A    between atoms: C_11  and  C_28
    2  A    between atoms: C_28  and  O_30
                            x       y       z     vdW  Elec       q    Type
                         _______ _______ _______ _____ _____    ______ ____

>  <TORSDO>
F 2

$$$$
=
 OpenBabel11122410323D

 30 35  0  0  1  0  0  0  0  0999 V2000
  185.7570  178.1530  142.2750 C   0  0  0  0  0  0  0  0  0  0  0  0
  185.9710  178.3220  139.8350 C   0  0  0  0  0  0  0  0  0  0  0  0
  189.9660  178.0600  142.6800 N   0  0  0  0  0  0  0  0  0  0  0  0
  186.3370  177.8280  143.6600 C   0  0  2  0  0  3  0  0  0  0  0  0
  184.3000  178.3740  142.2140 C   0  0  0  0  0  3  0  0  0  0  0  0
  183.5850  179.3510  145.5560 O   0  0  0  0  0  0  0  0  0  0  0  0
  187.1180  177.4800  146.5320 C   0  0  1  0  0  3  0  0  0  0  0  0
  184.2530  178.8980  144.5860 C   0  0  0  0  0  0  0  0  0  0  0  0
  188.4480  177.6850  145.9960 N   0  0  0  0  0  0  0  0  0  0  0  0
  190.0610  177.9560  143.9690 C   0  0  0  0  0  0  0  0  0  0  0  0
  183.5880  178.6950  143.2880 C   0  0  0  0  0  0  0  0  0  0  0  0
  185.6470  178.5550  144.7510 N   0  0  0  0  0  0  0  0  0  0  0  0
  186.7880  178.3700  138.7030 C   0  0  0  0  0  3  0  0  0  0  0  0
  189.3930  177.7110  147.0490 C   0  0  0  0  0  3  0  0  0  0  0  0
  187.3180  177.4480  148.0500 C   0  0  0  0  0  2  0  0  0  0  0  0
  184.6320  178.3710  139.6220 F   0  0  0  0  0  0  0  0  0  0  0  0
  188.5640  178.0940  142.4210 C   0  0  0  0  0  0  0  0  0  0  0  0
  188.1710  178.3080  138.8190 C   0  0  0  0  0  3  0  0  0  0  0  0
  186.5360  178.1960  141.1380 C   0  0  0  0  0  0  0  0  0  0  0  0
  187.8280  178.0230  143.6490 C   0  0  0  0  0  0  0  0  0  0  0  0
  191.3720  177.8670  144.6670 C   0  0  0  0  0  1  0  0  0  0  0  0
  188.7340  177.9000  144.6090 C   0  0  0  0  0  0  0  0  0  0  0  0
  188.7990  177.5750  148.2200 C   0  0  0  0  0  3  0  0  0  0  0  0
  185.9730  179.5650  146.8400 O   0  0  0  0  0  0  0  0  0  0  0  0
  188.7570  178.2030  140.0750 C   0  0  0  0  0  3  0  0  0  0  0  0
  187.9670  178.1490  141.2290 C   0  0  0  0  0  0  0  0  0  0  0  0
  186.2080  178.5860  146.0790 C   0  0  0  0  0  0  0  0  0  0  0  0
  182.1250  178.9380  143.1350 C   0  0  0  0  0  2  0  0  0  0  0  0
  180.5140  179.3460  141.6850 C   0  0  0  0  0  1  0  0  0  0  0  0
  181.7420  178.7000  141.8150 O   0  0  0  0  0  0  0  0  0  0  0  0
  2 19  1  0  0  0  0
  3 10  2  0  0  0  0
  4  1  1  6  0  0  0
  4 12  1  0  0  0  0
  5  1  1  0  0  0  0
  5 11  2  0  0  0  0
  7 15  1  1  0  0  0
  8 12  1  0  0  0  0
  8  6  2  0  0  0  0
  9  7  1  0  0  0  0
  9 14  1  0  0  0  0
 10 22  1  0  0  0  0
 10 21  1  0  0  0  0
 11  8  1  0  0  0  0
 12 27  1  0  0  0  0
 13 18  1  0  0  0  0
 13  2  2  0  0  0  0
 14 23  2  0  0  0  0
 15 23  1  0  0  0  0
 16  2  1  0  0  0  0
 17  3  1  0  0  0  0
 17 20  1  0  0  0  0
 18 25  2  0  0  0  0
 19 26  1  0  0  0  0
 19  1  2  0  0  0  0
 20  4  1  0  0  0  0
 20 22  2  0  0  0  0
 22  9  1  0  0  0  0
 25 26  1  0  0  0  0
 26 17  2  0  0  0  0
 27  7  1  0  0  0  0
 27 24  2  0  0  0  0
 28 11  1  0  0  0  0
 29 30  1  0  0  0  0
 30 28  1  0  0  0  0
M  END
>  <MODEL>
9

>  <REMARK>
 VINA RESULT:      -9.9      3.123      6.454
  Name = 
  2 active torsions:
  status: ('A' for Active; 'I' for Inactive)
    1  A    between atoms: C_11  and  C_28
    2  A    between atoms: C_28  and  O_30
                            x       y       z     vdW  Elec       q    Type
                         _______ _______ _______ _____ _____    ______ ____

>  <TORSDO>
F 2

$$$$
