=
 OpenBabel11122412133D

 34 40  0  0  1  0  0  0  0  0999 V2000
  183.8710  179.1970  143.9620 C   0  0  2  0  0  3  0  0  0  0  0  0
  181.4260  179.3540  143.2050 C   0  0  0  0  0  3  0  0  0  0  0  0
  191.1450  177.8150  144.5120 C   0  0  0  0  0  2  0  0  0  0  0  0
  186.2260  178.2610  144.4210 C   0  0  0  0  0  0  0  0  0  0  0  0
  187.6760  177.7380  142.4080 C   0  0  0  0  0  0  0  0  0  0  0  0
  190.0780  177.0230  142.4130 C   0  0  0  0  0  2  0  0  0  0  0  0
  190.7210  178.2110  143.1080 C   0  0  0  0  0  2  0  0  0  0  0  0
  189.0700  177.1860  145.8520 C   0  0  0  0  0  2  0  0  0  0  0  0
  182.9710  178.7110  141.6770 C   0  0  0  0  0  0  0  0  0  0  0  0
  182.6550  179.6360  138.6650 C   0  0  0  0  0  2  0  0  0  0  0  0
  186.6160  177.8920  141.6670 N   0  0  0  0  0  0  0  0  0  0  0  0
  188.2300  176.7530  144.6490 C   0  0  0  0  0  2  0  0  0  0  0  0
  184.1920  178.4340  141.1940 C   0  0  0  0  0  0  0  0  0  0  0  0
  180.7990  179.3780  142.0310 C   0  0  0  0  0  3  0  0  0  0  0  0
  187.6180  177.9510  143.9180 C   0  0  2  0  0  3  0  0  0  0  0  0
  190.1030  178.2670  145.5250 C   0  0  0  0  0  2  0  0  0  0  0  0
  181.8960  180.1060  139.9050 C   0  0  2  0  0  3  0  0  0  0  0  0
  185.1450  178.5460  143.4590 C   0  0  0  0  0  0  0  0  0  0  0  0
  188.8730  177.4040  141.7560 O   0  0  0  0  0  0  0  0  0  0  0  0
  185.3270  178.2980  142.1500 C   0  0  0  0  0  0  0  0  0  0  0  0
  184.5550  178.4500  146.2180 C   0  0  0  0  0  3  0  0  0  0  0  0
  184.1440  179.4860  138.9360 C   0  0  0  0  0  2  0  0  0  0  0  0
  185.9370  178.2470  145.7310 C   0  0  0  0  0  3  0  0  0  0  0  0
  184.4200  178.2180  139.7300 C   0  0  0  0  0  2  0  0  0  0  0  0
  181.7120  178.9560  140.9050 C   0  0  1  0  0  3  0  0  0  0  0  0
  183.5760  178.8350  145.3920 C   0  0  0  0  0  3  0  0  0  0  0  0
  182.7600  178.9010  143.0640 N   0  0  0  0  0  0  0  0  0  0  0  0
  180.6540  180.6040  139.5040 O   0  0  0  0  0  0  0  0  0  0  0  0
  180.8370  180.9920  138.1730 C   0  0  0  0  0  2  0  0  0  0  0  0
  181.1800  184.1120  136.4690 C   0  0  0  0  0  2  0  0  0  0  0  0
  179.4460  182.4690  136.7190 C   0  0  0  0  0  2  0  0  0  0  0  0
  180.3150  182.4020  137.9640 C   0  0  0  0  0  3  0  0  0  0  0  0
  180.2370  183.2350  135.6820 C   0  0  0  0  0  2  0  0  0  0  0  0
  181.4880  183.3370  137.7320 C   0  0  0  0  0  2  0  0  0  0  0  0
  1 26  1  1  0  0  0
  3 16  1  0  0  0  0
  4 23  2  0  0  0  0
  5 15  1  0  0  0  0
  6  7  1  0  0  0  0
  7  3  1  0  0  0  0
  9 27  1  0  0  0  0
 10 22  1  0  0  0  0
 10 17  1  0  0  0  0
 11 20  1  0  0  0  0
 11  5  2  0  0  0  0
 12  8  1  0  0  0  0
 13  9  2  0  0  0  0
 13 20  1  0  0  0  0
 14  2  2  0  0  0  0
 15  4  1  0  0  0  0
 15 12  1  1  0  0  0
 16  8  1  0  0  0  0
 17 28  1  6  0  0  0
 17 25  1  0  0  0  0
 18  1  1  0  0  0  0
 18  4  1  0  0  0  0
 19  5  1  0  0  0  0
 19  6  1  0  0  0  0
 20 18  2  0  0  0  0
 22 24  1  0  0  0  0
 23 21  1  0  0  0  0
 24 13  1  0  0  0  0
 25  9  1  0  0  0  0
 25 14  1  1  0  0  0
 26 21  2  0  0  0  0
 27  2  1  0  0  0  0
 27  1  1  0  0  0  0
 29 28  1  0  0  0  0
 30 34  1  0  0  0  0
 31 32  1  0  0  0  0
 32 29  1  0  0  0  0
 33 30  1  0  0  0  0
 33 31  1  0  0  0  0
 34 32  1  0  0  0  0
M  END
>  <MODEL>
1

>  <REMARK>
 VINA RESULT:     -10.2      0.000      0.000
  Name = 
  3 active torsions:
  status: ('A' for Active; 'I' for Inactive)
    1  A    between atoms: C_17  and  O_28
    2  A    between atoms: O_28  and  C_29
    3  A    between atoms: C_29  and  C_32
                            x       y       z     vdW  Elec       q    Type
                         _______ _______ _______ _____ _____    ______ ____

>  <TORSDO>
F 3

$$$$
=
 OpenBabel11122412133D

 34 40  0  0  1  0  0  0  0  0999 V2000
  187.0400  177.8290  141.0740 C   0  0  2  0  0  3  0  0  0  0  0  0
  185.3350  178.6750  139.3550 C   0  0  0  0  0  3  0  0  0  0  0  0
  190.9570  176.4560  147.2300 C   0  0  0  0  0  2  0  0  0  0  0  0
  188.7040  177.7840  143.0390 C   0  0  0  0  0  0  0  0  0  0  0  0
  187.7570  178.1150  145.3660 C   0  0  0  0  0  0  0  0  0  0  0  0
  188.9830  177.9300  147.5450 C   0  0  0  0  0  2  0  0  0  0  0  0
  189.4580  176.4890  147.4760 C   0  0  0  0  0  2  0  0  0  0  0  0
  191.4430  177.5230  144.9670 C   0  0  0  0  0  2  0  0  0  0  0  0
  184.8780  178.9960  141.5520 C   0  0  0  0  0  0  0  0  0  0  0  0
  181.8840  178.7920  142.5600 C   0  0  0  0  0  2  0  0  0  0  0  0
  186.6370  178.4760  144.8060 N   0  0  0  0  0  0  0  0  0  0  0  0
  190.2110  178.4290  144.9500 C   0  0  0  0  0  2  0  0  0  0  0  0
  185.0600  178.9100  142.8790 C   0  0  0  0  0  0  0  0  0  0  0  0
  184.0680  179.0810  139.4010 C   0  0  0  0  0  3  0  0  0  0  0  0
  188.9500  177.6710  144.5270 C   0  0  2  0  0  3  0  0  0  0  0  0
  191.2440  176.2240  145.7530 C   0  0  0  0  0  2  0  0  0  0  0  0
  182.4750  178.4050  141.2070 C   0  0  2  0  0  3  0  0  0  0  0  0
  187.3470  178.0710  142.5390 C   0  0  0  0  0  0  0  0  0  0  0  0
  187.8020  178.1180  146.7690 O   0  0  0  0  0  0  0  0  0  0  0  0
  186.3860  178.4670  143.3920 C   0  0  0  0  0  0  0  0  0  0  0  0
  189.4850  177.8750  140.7060 C   0  0  0  0  0  3  0  0  0  0  0  0
  182.7780  178.3600  143.7130 C   0  0  0  0  0  2  0  0  0  0  0  0
  189.7060  177.6650  142.1540 C   0  0  0  0  0  3  0  0  0  0  0  0
  183.9760  179.2890  143.8390 C   0  0  0  0  0  2  0  0  0  0  0  0
  183.6220  179.3500  140.8180 C   0  0  1  0  0  3  0  0  0  0  0  0
  188.2530  178.0110  140.2030 C   0  0  0  0  0  3  0  0  0  0  0  0
  185.9110  178.6500  140.6480 N   0  0  0  0  0  0  0  0  0  0  0  0
  181.4600  178.4530  140.2470 O   0  0  0  0  0  0  0  0  0  0  0  0
  180.6660  179.5420  140.6210 C   0  0  0  0  0  2  0  0  0  0  0  0
  181.0240  181.2690  137.5170 C   0  0  0  0  0  2  0  0  0  0  0  0
  180.0720  179.1810  138.2240 C   0  0  0  0  0  2  0  0  0  0  0  0
  179.9880  180.1380  139.4010 C   0  0  0  0  0  3  0  0  0  0  0  0
  181.0570  179.7850  137.2480 C   0  0  0  0  0  2  0  0  0  0  0  0
  180.7220  181.4020  138.9940 C   0  0  0  0  0  2  0  0  0  0  0  0
  1 26  1  6  0  0  0
  1 18  1  0  0  0  0
  2 14  2  0  0  0  0
  2 27  1  0  0  0  0
  3  7  1  0  0  0  0
  4 15  1  0  0  0  0
  5 19  1  0  0  0  0
  7  6  1  0  0  0  0
  8 16  1  0  0  0  0
  9 13  2  0  0  0  0
 10 22  1  0  0  0  0
 11  5  2  0  0  0  0
 12  8  1  0  0  0  0
 13 20  1  0  0  0  0
 13 24  1  0  0  0  0
 15 12  1  1  0  0  0
 15  5  1  0  0  0  0
 16  3  1  0  0  0  0
 17 28  1  6  0  0  0
 17 10  1  0  0  0  0
 18  4  1  0  0  0  0
 18 20  2  0  0  0  0
 19  6  1  0  0  0  0
 20 11  1  0  0  0  0
 21 23  1  0  0  0  0
 22 24  1  0  0  0  0
 23  4  2  0  0  0  0
 25 14  1  6  0  0  0
 25 17  1  0  0  0  0
 25  9  1  0  0  0  0
 26 21  2  0  0  0  0
 27  1  1  0  0  0  0
 27  9  1  0  0  0  0
 28 29  1  0  0  0  0
 30 34  1  0  0  0  0
 31 32  1  0  0  0  0
 32 29  1  0  0  0  0
 33 30  1  0  0  0  0
 33 31  1  0  0  0  0
 34 32  1  0  0  0  0
M  END
>  <MODEL>
2

>  <REMARK>
 VINA RESULT:      -9.4      1.845      3.847
  Name = 
  3 active torsions:
  status: ('A' for Active; 'I' for Inactive)
    1  A    between atoms: C_17  and  O_28
    2  A    between atoms: O_28  and  C_29
    3  A    between atoms: C_29  and  C_32
                            x       y       z     vdW  Elec       q    Type
                         _______ _______ _______ _____ _____    ______ ____

>  <TORSDO>
F 3

$$$$
=
 OpenBabel11122412133D

 34 40  0  0  1  0  0  0  0  0999 V2000
  187.0380  177.7980  141.2160 C   0  0  2  0  0  3  0  0  0  0  0  0
  185.3350  178.6710  139.5080 C   0  0  0  0  0  3  0  0  0  0  0  0
  190.9780  176.3670  147.3440 C   0  0  0  0  0  2  0  0  0  0  0  0
  188.7170  177.7270  143.1680 C   0  0  0  0  0  0  0  0  0  0  0  0
  187.7940  178.0800  145.5020 C   0  0  0  0  0  0  0  0  0  0  0  0
  189.0340  177.8770  147.6710 C   0  0  0  0  0  2  0  0  0  0  0  0
  189.4830  176.4280  147.6020 C   0  0  0  0  0  2  0  0  0  0  0  0
  191.4660  177.4200  145.0750 C   0  0  0  0  0  2  0  0  0  0  0  0
  184.9010  179.0050  141.7080 C   0  0  0  0  0  0  0  0  0  0  0  0
  181.9120  178.8570  142.7410 C   0  0  0  0  0  2  0  0  0  0  0  0
  186.6770  178.4600  144.9490 N   0  0  0  0  0  0  0  0  0  0  0  0
  190.2510  178.3480  145.0660 C   0  0  0  0  0  2  0  0  0  0  0  0
  185.0920  178.9180  143.0340 C   0  0  0  0  0  0  0  0  0  0  0  0
  184.0760  179.1000  139.5630 C   0  0  0  0  0  3  0  0  0  0  0  0
  188.9730  177.6120  144.6540 C   0  0  2  0  0  3  0  0  0  0  0  0
  191.2500  176.1270  145.8650 C   0  0  0  0  0  2  0  0  0  0  0  0
  182.4860  178.4560  141.3830 C   0  0  2  0  0  3  0  0  0  0  0  0
  187.3610  178.0380  142.6780 C   0  0  0  0  0  0  0  0  0  0  0  0
  187.8510  178.0850  146.9050 O   0  0  0  0  0  0  0  0  0  0  0  0
  186.4150  178.4530  143.5380 C   0  0  0  0  0  0  0  0  0  0  0  0
  189.4810  177.7990  140.8290 C   0  0  0  0  0  3  0  0  0  0  0  0
  182.8080  178.4120  143.8870 C   0  0  0  0  0  2  0  0  0  0  0  0
  189.7090  177.5880  142.2750 C   0  0  0  0  0  3  0  0  0  0  0  0
  184.0230  179.3190  144.0020 C   0  0  0  0  0  2  0  0  0  0  0  0
  183.6460  179.3800  140.9830 C   0  0  1  0  0  3  0  0  0  0  0  0
  188.2480  177.9560  140.3350 C   0  0  0  0  0  3  0  0  0  0  0  0
  185.9220  178.6380  140.7980 N   0  0  0  0  0  0  0  0  0  0  0  0
  181.4650  178.5210  140.4320 O   0  0  0  0  0  0  0  0  0  0  0  0
  180.7040  177.3680  140.6450 C   0  0  0  0  0  2  0  0  0  0  0  0
  182.1570  176.6360  137.4660 C   0  0  0  0  0  2  0  0  0  0  0  0
  181.6840  175.3970  139.4680 C   0  0  0  0  0  2  0  0  0  0  0  0
  180.6680  176.5240  139.3840 C   0  0  0  0  0  3  0  0  0  0  0  0
  182.7950  175.7450  138.5030 C   0  0  0  0  0  2  0  0  0  0  0  0
  181.0650  177.3860  138.1990 C   0  0  0  0  0  2  0  0  0  0  0  0
  1 26  1  6  0  0  0
  1 18  1  0  0  0  0
  2 14  2  0  0  0  0
  2 27  1  0  0  0  0
  3  7  1  0  0  0  0
  4 15  1  0  0  0  0
  5 19  1  0  0  0  0
  7  6  1  0  0  0  0
  8 16  1  0  0  0  0
  9 13  2  0  0  0  0
 10 22  1  0  0  0  0
 11  5  2  0  0  0  0
 12  8  1  0  0  0  0
 13 20  1  0  0  0  0
 13 24  1  0  0  0  0
 15 12  1  1  0  0  0
 15  5  1  0  0  0  0
 16  3  1  0  0  0  0
 17 28  1  6  0  0  0
 17 10  1  0  0  0  0
 18  4  1  0  0  0  0
 18 20  2  0  0  0  0
 19  6  1  0  0  0  0
 20 11  1  0  0  0  0
 21 23  1  0  0  0  0
 22 24  1  0  0  0  0
 23  4  2  0  0  0  0
 25 14  1  6  0  0  0
 25 17  1  0  0  0  0
 25  9  1  0  0  0  0
 26 21  2  0  0  0  0
 27  1  1  0  0  0  0
 27  9  1  0  0  0  0
 28 29  1  0  0  0  0
 30 34  1  0  0  0  0
 30 33  1  0  0  0  0
 32 31  1  0  0  0  0
 32 29  1  0  0  0  0
 33 31  1  0  0  0  0
 34 32  1  0  0  0  0
M  END
>  <MODEL>
3

>  <REMARK>
 VINA RESULT:      -9.3      2.815      4.641
  Name = 
  3 active torsions:
  status: ('A' for Active; 'I' for Inactive)
    1  A    between atoms: C_17  and  O_28
    2  A    between atoms: O_28  and  C_29
    3  A    between atoms: C_29  and  C_32
                            x       y       z     vdW  Elec       q    Type
                         _______ _______ _______ _____ _____    ______ ____

>  <TORSDO>
F 3

$$$$
=
 OpenBabel11122412133D

 34 40  0  0  1  0  0  0  0  0999 V2000
  188.2240  177.4510  140.5060 C   0  0  2  0  0  3  0  0  0  0  0  0
  186.8920  178.1600  138.4320 C   0  0  0  0  0  3  0  0  0  0  0  0
  190.8380  176.5220  147.3920 C   0  0  0  0  0  2  0  0  0  0  0  0
  189.4610  177.5550  142.7620 C   0  0  0  0  0  0  0  0  0  0  0  0
  188.0630  178.0040  144.8290 C   0  0  0  0  0  0  0  0  0  0  0  0
  188.8290  177.9720  147.2150 C   0  0  0  0  0  2  0  0  0  0  0  0
  189.3200  176.5400  147.3320 C   0  0  0  0  0  2  0  0  0  0  0  0
  191.7600  177.4630  145.2110 C   0  0  0  0  0  2  0  0  0  0  0  0
  186.0010  178.6010  140.4690 C   0  0  0  0  0  0  0  0  0  0  0  0
  182.8670  178.3970  140.8700 C   0  0  0  0  0  2  0  0  0  0  0  0
  187.0760  178.3080  144.0350 N   0  0  0  0  0  0  0  0  0  0  0  0
  190.5490  178.3410  144.8920 C   0  0  0  0  0  2  0  0  0  0  0  0
  185.9140  178.5970  141.8090 C   0  0  0  0  0  0  0  0  0  0  0  0
  185.6380  178.5430  138.1990 C   0  0  0  0  0  3  0  0  0  0  0  0
  189.4040  177.5350  144.2730 C   0  0  2  0  0  3  0  0  0  0  0  0
  191.4170  176.2090  146.0200 C   0  0  0  0  0  2  0  0  0  0  0  0
  183.7210  177.9420  139.6890 C   0  0  2  0  0  3  0  0  0  0  0  0
  188.2290  177.7850  141.9850 C   0  0  0  0  0  0  0  0  0  0  0  0
  187.8270  178.0900  146.2100 O   0  0  0  0  0  0  0  0  0  0  0  0
  187.1140  178.2120  142.6030 C   0  0  0  0  0  0  0  0  0  0  0  0
  190.6930  177.5240  140.6320 C   0  0  0  0  0  3  0  0  0  0  0  0
  183.5150  178.0510  142.2030 C   0  0  0  0  0  2  0  0  0  0  0  0
  190.6210  177.4040  142.1040 C   0  0  0  0  0  3  0  0  0  0  0  0
  184.6560  179.0100  142.5080 C   0  0  0  0  0  2  0  0  0  0  0  0
  184.9150  178.8850  139.4780 C   0  0  1  0  0  3  0  0  0  0  0  0
  189.5860  177.6050  139.8850 C   0  0  0  0  0  3  0  0  0  0  0  0
  187.1970  178.2230  139.8130 N   0  0  0  0  0  0  0  0  0  0  0  0
  182.9190  177.9140  138.5450 O   0  0  0  0  0  0  0  0  0  0  0  0
  182.1710  176.7380  138.6610 C   0  0  0  0  0  2  0  0  0  0  0  0
  184.2690  175.9480  135.8810 C   0  0  0  0  0  2  0  0  0  0  0  0
  183.4840  174.7840  137.8300 C   0  0  0  0  0  2  0  0  0  0  0  0
  182.4390  175.8290  137.4750 C   0  0  0  0  0  3  0  0  0  0  0  0
  184.7420  175.1620  137.0780 C   0  0  0  0  0  2  0  0  0  0  0  0
  183.0100  176.6540  136.3360 C   0  0  0  0  0  2  0  0  0  0  0  0
  1 26  1  6  0  0  0
  1 18  1  0  0  0  0
  2 27  1  0  0  0  0
  4 15  1  0  0  0  0
  5 19  1  0  0  0  0
  6  7  1  0  0  0  0
  7  3  1  0  0  0  0
  8 16  1  0  0  0  0
  9 13  2  0  0  0  0
 10 22  1  0  0  0  0
 11  5  2  0  0  0  0
 12  8  1  0  0  0  0
 13 24  1  0  0  0  0
 13 20  1  0  0  0  0
 14  2  2  0  0  0  0
 15  5  1  0  0  0  0
 15 12  1  1  0  0  0
 16  3  1  0  0  0  0
 17 28  1  6  0  0  0
 17 10  1  0  0  0  0
 18 20  2  0  0  0  0
 18  4  1  0  0  0  0
 19  6  1  0  0  0  0
 20 11  1  0  0  0  0
 21 23  1  0  0  0  0
 22 24  1  0  0  0  0
 23  4  2  0  0  0  0
 25 14  1  6  0  0  0
 25 17  1  0  0  0  0
 25  9  1  0  0  0  0
 26 21  2  0  0  0  0
 27  9  1  0  0  0  0
 27  1  1  0  0  0  0
 28 29  1  0  0  0  0
 30 34  1  0  0  0  0
 30 33  1  0  0  0  0
 32 31  1  0  0  0  0
 32 29  1  0  0  0  0
 33 31  1  0  0  0  0
 34 32  1  0  0  0  0
M  END
>  <MODEL>
4

>  <REMARK>
 VINA RESULT:      -9.3      3.272      5.175
  Name = 
  3 active torsions:
  status: ('A' for Active; 'I' for Inactive)
    1  A    between atoms: C_17  and  O_28
    2  A    between atoms: O_28  and  C_29
    3  A    between atoms: C_29  and  C_32
                            x       y       z     vdW  Elec       q    Type
                         _______ _______ _______ _____ _____    ______ ____

>  <TORSDO>
F 3

$$$$
=
 OpenBabel11122412133D

 34 40  0  0  1  0  0  0  0  0999 V2000
  186.1260  178.8980  141.5220 C   0  0  2  0  0  3  0  0  0  0  0  0
  185.8160  178.6390  138.9890 C   0  0  0  0  0  3  0  0  0  0  0  0
  188.2830  178.2530  148.5970 C   0  0  0  0  0  2  0  0  0  0  0  0
  186.4490  178.3190  144.0110 C   0  0  0  0  0  0  0  0  0  0  0  0
  188.6570  177.2690  144.6780 C   0  0  0  0  0  0  0  0  0  0  0  0
  189.4540  176.7550  146.9990 C   0  0  0  0  0  2  0  0  0  0  0  0
  189.4350  178.1440  147.6140 C   0  0  0  0  0  2  0  0  0  0  0  0
  186.0900  177.9570  147.3320 C   0  0  0  0  0  2  0  0  0  0  0  0
  187.6110  177.6390  139.9470 C   0  0  0  0  0  0  0  0  0  0  0  0
  190.3480  177.5140  138.3610 C   0  0  0  0  0  2  0  0  0  0  0  0
  188.9060  177.1040  143.4100 N   0  0  0  0  0  0  0  0  0  0  0  0
  186.6720  177.1030  146.2040 C   0  0  0  0  0  2  0  0  0  0  0  0
  188.4610  177.3010  140.9290 C   0  0  0  0  0  0  0  0  0  0  0  0
  186.5840  178.2390  137.9780 C   0  0  0  0  0  3  0  0  0  0  0  0
  187.3780  177.9560  145.1470 C   0  0  2  0  0  3  0  0  0  0  0  0
  187.0930  178.9400  147.9410 C   0  0  0  0  0  2  0  0  0  0  0  0
  189.0830  178.3090  138.0440 C   0  0  2  0  0  3  0  0  0  0  0  0
  186.9150  178.2040  142.6160 C   0  0  0  0  0  0  0  0  0  0  0  0
  189.6300  176.8220  145.5870 O   0  0  0  0  0  0  0  0  0  0  0  0
  188.0620  177.5590  142.3420 C   0  0  0  0  0  0  0  0  0  0  0  0
  184.2460  178.9700  143.1270 C   0  0  0  0  0  3  0  0  0  0  0  0
  190.6880  177.5590  139.8430 C   0  0  0  0  0  2  0  0  0  0  0  0
  185.1860  178.7110  144.2390 C   0  0  0  0  0  3  0  0  0  0  0  0
  189.7690  176.6380  140.6320 C   0  0  0  0  0  2  0  0  0  0  0  0
  187.8260  177.5360  138.4690 C   0  0  1  0  0  3  0  0  0  0  0  0
  184.6630  179.0000  141.8560 C   0  0  0  0  0  3  0  0  0  0  0  0
  186.3680  178.2530  140.2350 N   0  0  0  0  0  0  0  0  0  0  0  0
  189.0520  178.5670  136.6710 O   0  0  0  0  0  0  0  0  0  0  0  0
  189.8100  177.5410  136.0970 C   0  0  0  0  0  2  0  0  0  0  0  0
  187.5290  175.2420  134.5940 C   0  0  0  0  0  2  0  0  0  0  0  0
  187.7470  177.6320  134.6950 C   0  0  0  0  0  2  0  0  0  0  0  0
  189.1420  177.0440  134.8280 C   0  0  0  0  0  3  0  0  0  0  0  0
  186.7770  176.5000  134.9530 C   0  0  0  0  0  2  0  0  0  0  0  0
  188.9790  175.5370  134.9110 C   0  0  0  0  0  2  0  0  0  0  0  0
  1 26  1  1  0  0  0
  1 18  1  0  0  0  0
  2 27  1  0  0  0  0
  4 23  2  0  0  0  0
  4 15  1  0  0  0  0
  5 15  1  0  0  0  0
  5 19  1  0  0  0  0
  6  7  1  0  0  0  0
  7  3  1  0  0  0  0
  8 16  1  0  0  0  0
  9 27  1  0  0  0  0
  9 13  2  0  0  0  0
 10 22  1  0  0  0  0
 11  5  2  0  0  0  0
 12  8  1  0  0  0  0
 13 20  1  0  0  0  0
 14  2  2  0  0  0  0
 15 12  1  1  0  0  0
 16  3  1  0  0  0  0
 17 28  1  6  0  0  0
 17 10  1  0  0  0  0
 17 25  1  0  0  0  0
 18  4  1  0  0  0  0
 19  6  1  0  0  0  0
 20 18  2  0  0  0  0
 20 11  1  0  0  0  0
 21 23  1  0  0  0  0
 22 24  1  0  0  0  0
 24 13  1  0  0  0  0
 25 14  1  6  0  0  0
 25  9  1  0  0  0  0
 26 21  2  0  0  0  0
 27  1  1  0  0  0  0
 29 28  1  0  0  0  0
 30 34  1  0  0  0  0
 30 33  1  0  0  0  0
 31 32  1  0  0  0  0
 31 33  1  0  0  0  0
 32 34  1  0  0  0  0
 32 29  1  0  0  0  0
M  END
>  <MODEL>
5

>  <REMARK>
 VINA RESULT:      -9.2      3.929      6.215
  Name = 
  3 active torsions:
  status: ('A' for Active; 'I' for Inactive)
    1  A    between atoms: C_17  and  O_28
    2  A    between atoms: O_28  and  C_29
    3  A    between atoms: C_29  and  C_32
                            x       y       z     vdW  Elec       q    Type
                         _______ _______ _______ _____ _____    ______ ____

>  <TORSDO>
F 3

$$$$
=
 OpenBabel11122412133D

 34 40  0  0  1  0  0  0  0  0999 V2000
  188.6570  177.1210  143.0090 C   0  0  2  0  0  3  0  0  0  0  0  0
  191.1560  176.8960  142.4780 C   0  0  0  0  0  3  0  0  0  0  0  0
  181.4360  178.8450  142.9840 C   0  0  0  0  0  2  0  0  0  0  0  0
  186.3130  178.1420  143.3230 C   0  0  0  0  0  0  0  0  0  0  0  0
  185.0970  178.9120  141.2370 C   0  0  0  0  0  0  0  0  0  0  0  0
  182.7410  179.7530  141.0760 C   0  0  0  0  0  2  0  0  0  0  0  0
  181.9780  178.5480  141.5980 C   0  0  0  0  0  2  0  0  0  0  0  0
  183.3930  179.2450  144.5670 C   0  0  0  0  0  2  0  0  0  0  0  0
  189.8010  177.7490  140.8730 C   0  0  0  0  0  0  0  0  0  0  0  0
  190.3740  177.0670  137.8340 C   0  0  0  0  0  2  0  0  0  0  0  0
  186.2170  178.7640  140.5880 N   0  0  0  0  0  0  0  0  0  0  0  0
  184.3680  179.7320  143.4940 C   0  0  0  0  0  2  0  0  0  0  0  0
  188.6480  178.1330  140.3020 C   0  0  0  0  0  0  0  0  0  0  0  0
  191.8950  176.9380  141.3710 C   0  0  0  0  0  3  0  0  0  0  0  0
  184.9940  178.5690  142.7190 C   0  0  2  0  0  3  0  0  0  0  0  0
  182.3490  178.2530  144.0480 C   0  0  0  0  0  2  0  0  0  0  0  0
  190.9820  176.4530  139.0940 C   0  0  2  0  0  3  0  0  0  0  0  0
  187.4710  177.8810  142.4470 C   0  0  0  0  0  0  0  0  0  0  0  0
  183.9870  179.3640  140.5050 O   0  0  0  0  0  0  0  0  0  0  0  0
  187.4320  178.2480  141.1540 C   0  0  0  0  0  0  0  0  0  0  0  0
  187.7860  177.7100  145.2480 C   0  0  0  0  0  3  0  0  0  0  0  0
  188.8730  177.2750  137.9750 C   0  0  0  0  0  2  0  0  0  0  0  0
  186.4700  178.0290  144.6510 C   0  0  0  0  0  3  0  0  0  0  0  0
  188.5780  178.4840  138.8490 C   0  0  0  0  0  2  0  0  0  0  0  0
  191.1190  177.5030  140.2060 C   0  0  1  0  0  3  0  0  0  0  0  0
  188.8240  177.3440  144.4870 C   0  0  0  0  0  3  0  0  0  0  0  0
  189.8640  177.4320  142.2510 N   0  0  0  0  0  0  0  0  0  0  0  0
  192.2350  175.9240  138.7700 O   0  0  0  0  0  0  0  0  0  0  0  0
  192.5020  176.4000  137.4820 C   0  0  0  0  0  2  0  0  0  0  0  0
  194.4990  173.4400  137.4930 C   0  0  0  0  0  2  0  0  0  0  0  0
  193.1580  174.6050  135.8770 C   0  0  0  0  0  2  0  0  0  0  0  0
  193.6630  175.6360  136.8730 C   0  0  0  0  0  3  0  0  0  0  0  0
  193.3640  173.2500  136.5180 C   0  0  0  0  0  2  0  0  0  0  0  0
  194.3850  174.8720  137.9680 C   0  0  0  0  0  2  0  0  0  0  0  0
  1 26  1  1  0  0  0
  3 16  1  0  0  0  0
  4 23  2  0  0  0  0
  5 15  1  0  0  0  0
  6  7  1  0  0  0  0
  7  3  1  0  0  0  0
  9 27  1  0  0  0  0
 10 22  1  0  0  0  0
 10 17  1  0  0  0  0
 11 20  1  0  0  0  0
 11  5  2  0  0  0  0
 12  8  1  0  0  0  0
 13  9  2  0  0  0  0
 13 20  1  0  0  0  0
 14  2  2  0  0  0  0
 15  4  1  0  0  0  0
 15 12  1  1  0  0  0
 16  8  1  0  0  0  0
 17 28  1  6  0  0  0
 17 25  1  0  0  0  0
 18  1  1  0  0  0  0
 18  4  1  0  0  0  0
 19  6  1  0  0  0  0
 19  5  1  0  0  0  0
 20 18  2  0  0  0  0
 22 24  1  0  0  0  0
 23 21  1  0  0  0  0
 24 13  1  0  0  0  0
 25  9  1  0  0  0  0
 25 14  1  1  0  0  0
 26 21  2  0  0  0  0
 27  2  1  0  0  0  0
 27  1  1  0  0  0  0
 29 28  1  0  0  0  0
 30 34  1  0  0  0  0
 31 33  1  0  0  0  0
 31 32  1  0  0  0  0
 32 29  1  0  0  0  0
 32 34  1  0  0  0  0
 33 30  1  0  0  0  0
M  END
>  <MODEL>
6

>  <REMARK>
 VINA RESULT:      -9.2      3.625      8.989
  Name = 
  3 active torsions:
  status: ('A' for Active; 'I' for Inactive)
    1  A    between atoms: C_17  and  O_28
    2  A    between atoms: O_28  and  C_29
    3  A    between atoms: C_29  and  C_32
                            x       y       z     vdW  Elec       q    Type
                         _______ _______ _______ _____ _____    ______ ____

>  <TORSDO>
F 3

$$$$
=
 OpenBabel11122412133D

 34 40  0  0  1  0  0  0  0  0999 V2000
  184.3010  179.0120  144.2360 C   0  0  2  0  0  3  0  0  0  0  0  0
  181.8260  179.0730  143.5670 C   0  0  0  0  0  3  0  0  0  0  0  0
  191.6450  177.9570  144.5070 C   0  0  0  0  0  2  0  0  0  0  0  0
  186.7110  178.1750  144.5920 C   0  0  0  0  0  0  0  0  0  0  0  0
  188.1130  177.7690  142.5200 C   0  0  0  0  0  0  0  0  0  0  0  0
  190.5440  177.1670  142.4260 C   0  0  0  0  0  2  0  0  0  0  0  0
  191.1560  178.3660  143.1280 C   0  0  0  0  0  2  0  0  0  0  0  0
  189.6490  177.2010  145.8990 C   0  0  0  0  0  2  0  0  0  0  0  0
  183.3460  178.5390  141.9710 C   0  0  0  0  0  0  0  0  0  0  0  0
  182.8830  179.5190  138.9970 C   0  0  0  0  0  2  0  0  0  0  0  0
  187.0220  177.8910  141.8180 N   0  0  0  0  0  0  0  0  0  0  0  0
  188.7880  176.7580  144.7150 C   0  0  0  0  0  2  0  0  0  0  0  0
  184.5610  178.3300  141.4410 C   0  0  0  0  0  0  0  0  0  0  0  0
  181.1590  179.0950  142.4150 C   0  0  0  0  0  3  0  0  0  0  0  0
  188.0980  177.9430  144.0350 C   0  0  2  0  0  3  0  0  0  0  0  0
  190.6200  178.3360  145.5660 C   0  0  0  0  0  2  0  0  0  0  0  0
  182.1480  179.9240  140.2720 C   0  0  2  0  0  3  0  0  0  0  0  0
  185.5850  178.4330  143.6750 C   0  0  0  0  0  0  0  0  0  0  0  0
  189.3010  177.5070  141.8190 O   0  0  0  0  0  0  0  0  0  0  0  0
  185.7330  178.2250  142.3540 C   0  0  0  0  0  0  0  0  0  0  0  0
  185.0970  178.2440  146.4490 C   0  0  0  0  0  3  0  0  0  0  0  0
  184.3860  179.4320  139.2140 C   0  0  0  0  0  2  0  0  0  0  0  0
  186.4690  178.1170  145.9100 C   0  0  0  0  0  3  0  0  0  0  0  0
  184.7470  178.1600  139.9650 C   0  0  0  0  0  2  0  0  0  0  0  0
  182.0500  178.7430  141.2490 C   0  0  1  0  0  3  0  0  0  0  0  0
  184.0730  178.6030  145.6660 C   0  0  0  0  0  3  0  0  0  0  0  0
  183.1740  178.6850  143.3690 N   0  0  0  0  0  0  0  0  0  0  0  0
  180.8700  180.3730  139.9260 O   0  0  0  0  0  0  0  0  0  0  0  0
  180.7790  180.1610  138.5470 C   0  0  0  0  0  2  0  0  0  0  0  0
  178.9310  178.1580  136.2390 C   0  0  0  0  0  2  0  0  0  0  0  0
  179.5320  177.9980  138.5580 C   0  0  0  0  0  2  0  0  0  0  0  0
  179.4670  179.4760  138.2090 C   0  0  0  0  0  3  0  0  0  0  0  0
  179.5880  177.2480  137.2460 C   0  0  0  0  0  2  0  0  0  0  0  0
  179.2320  179.5640  136.7120 C   0  0  0  0  0  2  0  0  0  0  0  0
  1 26  1  1  0  0  0
  3 16  1  0  0  0  0
  4 23  2  0  0  0  0
  5 15  1  0  0  0  0
  6  7  1  0  0  0  0
  7  3  1  0  0  0  0
  9 27  1  0  0  0  0
 10 22  1  0  0  0  0
 10 17  1  0  0  0  0
 11 20  1  0  0  0  0
 11  5  2  0  0  0  0
 12  8  1  0  0  0  0
 13  9  2  0  0  0  0
 13 20  1  0  0  0  0
 14  2  2  0  0  0  0
 15  4  1  0  0  0  0
 15 12  1  1  0  0  0
 16  8  1  0  0  0  0
 17 28  1  6  0  0  0
 17 25  1  0  0  0  0
 18  1  1  0  0  0  0
 18  4  1  0  0  0  0
 19  6  1  0  0  0  0
 19  5  1  0  0  0  0
 20 18  2  0  0  0  0
 22 24  1  0  0  0  0
 23 21  1  0  0  0  0
 24 13  1  0  0  0  0
 25  9  1  0  0  0  0
 25 14  1  1  0  0  0
 26 21  2  0  0  0  0
 27  2  1  0  0  0  0
 27  1  1  0  0  0  0
 29 28  1  0  0  0  0
 30 34  1  0  0  0  0
 30 33  1  0  0  0  0
 32 29  1  0  0  0  0
 32 31  1  0  0  0  0
 33 31  1  0  0  0  0
 34 32  1  0  0  0  0
M  END
>  <MODEL>
7

>  <REMARK>
 VINA RESULT:      -9.1      1.426      2.033
  Name = 
  3 active torsions:
  status: ('A' for Active; 'I' for Inactive)
    1  A    between atoms: C_17  and  O_28
    2  A    between atoms: O_28  and  C_29
    3  A    between atoms: C_29  and  C_32
                            x       y       z     vdW  Elec       q    Type
                         _______ _______ _______ _____ _____    ______ ____

>  <TORSDO>
F 3

$$$$
=
 OpenBabel11122412133D

 34 40  0  0  1  0  0  0  0  0999 V2000
  189.2020  176.8880  138.2790 C   0  0  2  0  0  3  0  0  0  0  0  0
  187.5670  178.2520  139.7090 C   0  0  0  0  0  3  0  0  0  0  0  0
  195.1940  173.5810  135.4020 C   0  0  0  0  0  2  0  0  0  0  0  0
  191.3140  176.2020  136.9740 C   0  0  0  0  0  0  0  0  0  0  0  0
  193.4170  175.7700  138.3210 C   0  0  0  0  0  0  0  0  0  0  0  0
  195.6050  174.8860  137.4760 C   0  0  0  0  0  2  0  0  0  0  0  0
  195.1670  173.5410  136.9210 C   0  0  0  0  0  2  0  0  0  0  0  0
  193.5140  175.3180  134.5940 C   0  0  0  0  0  2  0  0  0  0  0  0
  189.6330  177.8500  140.5500 C   0  0  0  0  0  0  0  0  0  0  0  0
  189.9740  177.3480  143.6570 C   0  0  0  0  0  2  0  0  0  0  0  0
  192.8110  176.2990  139.3450 N   0  0  0  0  0  0  0  0  0  0  0  0
  193.5670  176.1880  135.8510 C   0  0  0  0  0  2  0  0  0  0  0  0
  190.8740  177.3390  140.5920 C   0  0  0  0  0  0  0  0  0  0  0  0
  187.5130  178.6290  140.9850 C   0  0  0  0  0  3  0  0  0  0  0  0
  192.7070  175.6140  136.9800 C   0  0  2  0  0  3  0  0  0  0  0  0
  193.7970  173.8370  134.8560 C   0  0  0  0  0  2  0  0  0  0  0  0
  188.6960  177.4150  142.8240 C   0  0  2  0  0  3  0  0  0  0  0  0
  190.6980  176.6430  138.2400 C   0  0  0  0  0  0  0  0  0  0  0  0
  194.7330  175.3200  138.5150 O   0  0  0  0  0  0  0  0  0  0  0  0
  191.4470  176.7480  139.3510 C   0  0  0  0  0  0  0  0  0  0  0  0
  189.3100  177.0370  135.8130 C   0  0  0  0  0  3  0  0  0  0  0  0
  191.0690  176.5630  142.9510 C   0  0  0  0  0  2  0  0  0  0  0  0
  190.6300  176.3690  135.8320 C   0  0  0  0  0  3  0  0  0  0  0  0
  191.6960  177.3940  141.8420 C   0  0  0  0  0  2  0  0  0  0  0  0
  188.8380  178.4280  141.6790 C   0  0  1  0  0  3  0  0  0  0  0  0
  188.6650  177.3340  136.9470 C   0  0  0  0  0  3  0  0  0  0  0  0
  188.8660  177.8080  139.3600 N   0  0  0  0  0  0  0  0  0  0  0  0
  187.6370  177.7760  143.6620 O   0  0  0  0  0  0  0  0  0  0  0  0
  188.0970  177.5090  144.9550 C   0  0  0  0  0  2  0  0  0  0  0  0
  185.9220  179.0090  147.3570 C   0  0  0  0  0  2  0  0  0  0  0  0
  185.6460  177.8590  145.2670 C   0  0  0  0  0  2  0  0  0  0  0  0
  186.9240  177.3390  145.9030 C   0  0  0  0  0  3  0  0  0  0  0  0
  185.2930  179.1390  145.9920 C   0  0  0  0  0  2  0  0  0  0  0  0
  187.1670  178.1740  147.1470 C   0  0  0  0  0  2  0  0  0  0  0  0
  1 26  1  6  0  0  0
  1 27  1  0  0  0  0
  2 14  2  0  0  0  0
  3  7  1  0  0  0  0
  4 15  1  0  0  0  0
  4 18  1  0  0  0  0
  5 19  1  0  0  0  0
  5 11  2  0  0  0  0
  6 19  1  0  0  0  0
  7  6  1  0  0  0  0
  8 16  1  0  0  0  0
  8 12  1  0  0  0  0
  9 13  2  0  0  0  0
  9 25  1  0  0  0  0
 11 20  1  0  0  0  0
 13 24  1  0  0  0  0
 15 12  1  6  0  0  0
 15  5  1  0  0  0  0
 16  3  1  0  0  0  0
 17 10  1  0  0  0  0
 17 28  1  1  0  0  0
 18  1  1  0  0  0  0
 18 20  2  0  0  0  0
 20 13  1  0  0  0  0
 21 23  1  0  0  0  0
 21 26  2  0  0  0  0
 22 10  1  0  0  0  0
 23  4  2  0  0  0  0
 24 22  1  0  0  0  0
 25 14  1  6  0  0  0
 25 17  1  0  0  0  0
 27  2  1  0  0  0  0
 27  9  1  0  0  0  0
 28 29  1  0  0  0  0
 29 32  1  0  0  0  0
 31 32  1  0  0  0  0
 31 33  1  0  0  0  0
 32 34  1  0  0  0  0
 33 30  1  0  0  0  0
 34 30  1  0  0  0  0
M  END
>  <MODEL>
8

>  <REMARK>
 VINA RESULT:      -9.0      5.022      9.377
  Name = 
  3 active torsions:
  status: ('A' for Active; 'I' for Inactive)
    1  A    between atoms: C_17  and  O_28
    2  A    between atoms: O_28  and  C_29
    3  A    between atoms: C_29  and  C_32
                            x       y       z     vdW  Elec       q    Type
                         _______ _______ _______ _____ _____    ______ ____

>  <TORSDO>
F 3

$$$$
=
 OpenBabel11122412133D

 34 40  0  0  1  0  0  0  0  0999 V2000
  182.3890  178.3080  143.7070 C   0  0  2  0  0  3  0  0  0  0  0  0
  183.8600  178.6780  145.7740 C   0  0  0  0  0  3  0  0  0  0  0  0
  179.5960  178.0420  136.8330 C   0  0  0  0  0  2  0  0  0  0  0  0
  181.1990  178.7080  141.4580 C   0  0  0  0  0  0  0  0  0  0  0  0
  182.6530  178.8230  139.3840 C   0  0  0  0  0  0  0  0  0  0  0  0
  181.8890  178.9810  137.0020 C   0  0  0  0  0  2  0  0  0  0  0  0
  181.0750  177.7040  136.8850 C   0  0  0  0  0  2  0  0  0  0  0  0
  178.9310  179.1650  139.0220 C   0  0  0  0  0  2  0  0  0  0  0  0
  184.8200  178.9050  143.7330 C   0  0  0  0  0  0  0  0  0  0  0  0
  187.8160  177.9740  143.3140 C   0  0  0  0  0  2  0  0  0  0  0  0
  183.6880  178.8860  140.1730 N   0  0  0  0  0  0  0  0  0  0  0  0
  180.3150  179.7350  139.3360 C   0  0  0  0  0  2  0  0  0  0  0  0
  184.8970  178.8850  142.3930 C   0  0  0  0  0  0  0  0  0  0  0  0
  185.1700  178.7550  146.0010 C   0  0  0  0  0  3  0  0  0  0  0  0
  181.2420  178.6800  139.9460 C   0  0  2  0  0  3  0  0  0  0  0  0
  178.9660  177.8690  138.2080 C   0  0  0  0  0  2  0  0  0  0  0  0
  186.8850  177.7280  144.4990 C   0  0  2  0  0  3  0  0  0  0  0  0
  182.4550  178.6400  142.2290 C   0  0  0  0  0  0  0  0  0  0  0  0
  182.8960  178.8570  138.0020 O   0  0  0  0  0  0  0  0  0  0  0  0
  183.6360  178.7950  141.6050 C   0  0  0  0  0  0  0  0  0  0  0  0
  180.0050  178.9580  143.5950 C   0  0  0  0  0  3  0  0  0  0  0  0
  187.0990  177.7950  141.9840 C   0  0  0  0  0  2  0  0  0  0  0  0
  180.0400  178.8300  142.1220 C   0  0  0  0  0  3  0  0  0  0  0  0
  186.2120  178.9950  141.6870 C   0  0  0  0  0  2  0  0  0  0  0  0
  185.9470  178.9240  144.7180 C   0  0  1  0  0  3  0  0  0  0  0  0
  181.1050  178.7750  144.3360 C   0  0  0  0  0  3  0  0  0  0  0  0
  183.5710  178.8150  144.3950 N   0  0  0  0  0  0  0  0  0  0  0  0
  187.6650  177.5080  145.6380 O   0  0  0  0  0  0  0  0  0  0  0  0
  188.8860  177.0320  145.1500 C   0  0  0  0  0  2  0  0  0  0  0  0
  191.3960  176.2160  147.5550 C   0  0  0  0  0  2  0  0  0  0  0  0
  191.3640  177.2220  145.3740 C   0  0  0  0  0  2  0  0  0  0  0  0
  190.0250  177.5170  146.0280 C   0  0  0  0  0  3  0  0  0  0  0  0
  191.9980  176.1060  146.1760 C   0  0  0  0  0  2  0  0  0  0  0  0
  189.9980  176.7560  147.3410 C   0  0  0  0  0  2  0  0  0  0  0  0
  1 26  1  1  0  0  0
  1 27  1  0  0  0  0
  2 14  2  0  0  0  0
  3  7  1  0  0  0  0
  3 16  1  0  0  0  0
  4 23  2  0  0  0  0
  4 18  1  0  0  0  0
  5 15  1  0  0  0  0
  5 11  2  0  0  0  0
  6 19  1  0  0  0  0
  7  6  1  0  0  0  0
  8 12  1  0  0  0  0
  9 27  1  0  0  0  0
  9 25  1  0  0  0  0
 10 17  1  0  0  0  0
 11 20  1  0  0  0  0
 13  9  2  0  0  0  0
 15 12  1  6  0  0  0
 15  4  1  0  0  0  0
 16  8  1  0  0  0  0
 17 25  1  0  0  0  0
 17 28  1  1  0  0  0
 18  1  1  0  0  0  0
 19  5  1  0  0  0  0
 20 18  2  0  0  0  0
 20 13  1  0  0  0  0
 21 26  2  0  0  0  0
 22 10  1  0  0  0  0
 23 21  1  0  0  0  0
 24 22  1  0  0  0  0
 24 13  1  0  0  0  0
 25 14  1  1  0  0  0
 27  2  1  0  0  0  0
 29 28  1  0  0  0  0
 29 32  1  0  0  0  0
 31 32  1  0  0  0  0
 31 33  1  0  0  0  0
 32 34  1  0  0  0  0
 33 30  1  0  0  0  0
 34 30  1  0  0  0  0
M  END
>  <MODEL>
9

>  <REMARK>
 VINA RESULT:      -9.0      2.244      9.105
  Name = 
  3 active torsions:
  status: ('A' for Active; 'I' for Inactive)
    1  A    between atoms: C_17  and  O_28
    2  A    between atoms: O_28  and  C_29
    3  A    between atoms: C_29  and  C_32
                            x       y       z     vdW  Elec       q    Type
                         _______ _______ _______ _____ _____    ______ ____

>  <TORSDO>
F 3

$$$$
