=
 OpenBabel11122411343D

 37 42  0  0  1  0  0  0  0  0999 V2000
  181.3740  177.9380  140.0240 C   0  0  0  0  0  2  0  0  0  0  0  0
  180.2400  173.5710  137.3130 S   0  0  0  0  0  0  0  0  0  0  0  0
  180.7200  177.9270  136.5880 C   0  0  0  0  0  0  0  0  0  0  0  0
  182.0840  178.6490  141.1880 C   0  0  1  0  0  3  0  0  0  0  0  0
  179.1850  180.7400  138.4430 C   0  0  0  0  0  2  0  0  0  0  0  0
  181.7010  175.6880  136.4720 C   0  0  0  0  0  0  0  0  0  0  0  0
  179.8050  178.8140  137.1680 O   0  0  0  0  0  0  0  0  0  0  0  0
  180.2480  179.5700  142.5570 C   0  0  0  0  0  0  0  0  0  0  0  0
  180.8110  176.5990  137.0940 C   0  0  0  0  0  0  0  0  0  0  0  0
  179.9880  180.2190  137.2590 C   0  0  1  0  0  3  0  0  0  0  0  0
  182.5000  176.0970  135.4060 C   0  0  0  0  0  3  0  0  0  0  0  0
  181.3260  178.5340  142.5070 C   0  0  0  0  0  2  0  0  0  0  0  0
  180.0020  176.0810  138.2880 C   0  0  2  0  0  3  0  0  0  0  0  0
  180.3810  172.5190  138.3770 O   0  0  0  0  0  0  0  0  0  0  0  0
  181.5120  179.6960  134.8960 C   0  0  0  0  0  2  0  0  0  0  0  0
  182.4160  177.3990  134.9220 C   0  0  0  0  0  3  0  0  0  0  0  0
  179.1650  174.8730  137.8890 C   0  0  0  0  0  2  0  0  0  0  0  0
  178.9640  179.3910  141.7890 C   0  0  0  0  0  2  0  0  0  0  0  0
  179.8480  180.3280  139.7500 C   0  0  0  0  0  2  0  0  0  0  0  0
  181.5320  178.3160  135.4900 C   0  0  0  0  0  0  0  0  0  0  0  0
  179.1240  177.0970  139.0210 C   0  0  0  0  0  2  0  0  0  0  0  0
  181.8430  174.2750  136.9550 C   0  0  0  0  0  2  0  0  0  0  0  0
  179.5540  180.9050  135.9580 C   0  0  2  0  0  3  0  0  0  0  0  0
  179.6620  172.9580  136.0690 O   0  0  0  0  0  0  0  0  0  0  0  0
  179.1640  179.1770  140.3510 N   0  0  1  0  0  0  0  0  0  0  0  0
  180.4150  180.5800  143.2160 O   0  0  0  0  0  0  0  0  0  0  0  0
  179.8340  177.8810  140.1320 C   0  0  2  0  0  3  0  0  0  0  0  0
  180.0860  180.2060  134.7050 C   0  0  0  0  0  2  0  0  0  0  0  0
  179.2040  183.2740  135.1340 C   0  0  0  0  0  3  0  0  0  0  0  0
  179.8990  182.3640  135.9450 C   0  0  0  0  0  0  0  0  0  0  0  0
  180.9350  182.8230  136.7670 C   0  0  0  0  0  3  0  0  0  0  0  0
  182.3050  184.6260  137.5940 O   0  0  0  0  0  1  0  0  0  0  0  0
  180.5860  185.0800  135.9640 C   0  0  0  0  0  3  0  0  0  0  0  0
  181.2780  184.1770  136.7760 C   0  0  0  0  0  0  0  0  0  0  0  0
  179.5490  184.6280  135.1430 C   0  0  0  0  0  3  0  0  0  0  0  0
  183.8370  178.6290  142.5470 C   0  0  0  0  0  1  0  0  0  0  0  0
  183.3650  178.1150  141.3390 O   0  0  0  0  0  0  0  0  0  0  0  0
  1 27  1  0  0  0  0
  1  4  1  0  0  0  0
  2 17  1  0  0  0  0
  2 14  2  0  0  0  0
  3  9  1  0  0  0  0
  3  7  1  0  0  0  0
  4 37  1  1  0  0  0
  4 12  1  0  0  0  0
  5 19  1  0  0  0  0
  6 22  1  0  0  0  0
  6  9  2  0  0  0  0
  7 10  1  0  0  0  0
  8 26  2  0  0  0  0
  9 13  1  0  0  0  0
 10  5  1  1  0  0  0
 11  6  1  0  0  0  0
 12  8  1  0  0  0  0
 13 17  1  6  0  0  0
 13 21  1  0  0  0  0
 15 20  1  0  0  0  0
 16 11  2  0  0  0  0
 16 20  1  0  0  0  0
 18  8  1  0  0  0  0
 20  3  2  0  0  0  0
 22  2  1  0  0  0  0
 23 30  1  1  0  0  0
 23 10  1  0  0  0  0
 24  2  2  0  0  0  0
 25 19  1  1  0  0  0
 25 18  1  0  0  0  0
 27 21  1  6  0  0  0
 27 25  1  0  0  0  0
 28 15  1  0  0  0  0
 28 23  1  0  0  0  0
 29 35  2  0  0  0  0
 29 30  1  0  0  0  0
 30 31  2  0  0  0  0
 31 34  1  0  0  0  0
 33 34  2  0  0  0  0
 34 32  1  0  0  0  0
 35 33  1  0  0  0  0
 37 36  1  0  0  0  0
M  END
>  <MODEL>
1

>  <REMARK>
 VINA RESULT:      -6.6      0.000      0.000
  Name = 
  2 active torsions:
  status: ('A' for Active; 'I' for Inactive)
    1  A    between atoms: C_4  and  O_37
    2  A    between atoms: C_23  and  C_30
                            x       y       z     vdW  Elec       q    Type
                         _______ _______ _______ _____ _____    ______ ____

>  <TORSDO>
F 2

$$$$
=
 OpenBabel11122411343D

 37 42  0  0  1  0  0  0  0  0999 V2000
  180.6150  177.8320  140.3250 C   0  0  0  0  0  2  0  0  0  0  0  0
  180.4510  180.2470  135.6510 S   0  0  0  0  0  0  0  0  0  0  0  0
  183.4740  178.6260  138.4730 C   0  0  0  0  0  0  0  0  0  0  0  0
  179.9910  176.9010  141.3770 C   0  0  1  0  0  3  0  0  0  0  0  0
  183.7720  179.2420  142.1120 C   0  0  0  0  0  2  0  0  0  0  0  0
  182.1650  178.3030  136.4320 C   0  0  0  0  0  0  0  0  0  0  0  0
  183.6260  179.2350  139.7260 O   0  0  0  0  0  0  0  0  0  0  0  0
  179.6360  178.3470  143.3460 C   0  0  0  0  0  0  0  0  0  0  0  0
  182.2920  178.8790  137.7200 C   0  0  0  0  0  0  0  0  0  0  0  0
  184.3340  178.6690  140.8180 C   0  0  1  0  0  3  0  0  0  0  0  0
  183.1640  177.4740  135.9250 C   0  0  0  0  0  3  0  0  0  0  0  0
  178.9500  177.5980  142.2470 C   0  0  0  0  0  2  0  0  0  0  0  0
  181.1280  179.7420  138.2180 C   0  0  2  0  0  3  0  0  0  0  0  0
  178.9700  180.3500  135.4240 O   0  0  0  0  0  0  0  0  0  0  0  0
  185.7600  177.4600  138.6540 C   0  0  0  0  0  2  0  0  0  0  0  0
  184.3120  177.2200  136.6700 C   0  0  0  0  0  3  0  0  0  0  0  0
  180.8630  180.8950  137.2610 C   0  0  0  0  0  2  0  0  0  0  0  0
  180.3150  179.6660  143.0790 C   0  0  0  0  0  2  0  0  0  0  0  0
  182.3950  178.6560  142.3910 C   0  0  0  0  0  2  0  0  0  0  0  0
  184.4860  177.7910  137.9300 C   0  0  0  0  0  0  0  0  0  0  0  0
  181.2250  180.2710  139.6500 C   0  0  0  0  0  2  0  0  0  0  0  0
  180.9470  178.5310  135.5860 C   0  0  0  0  0  2  0  0  0  0  0  0
  185.8350  178.9590  140.6960 C   0  0  2  0  0  3  0  0  0  0  0  0
  181.1800  181.0290  134.5940 O   0  0  0  0  0  0  0  0  0  0  0  0
  181.3330  179.6000  142.0240 N   0  0  1  0  0  0  0  0  0  0  0  0
  179.6600  177.8790  144.4690 O   0  0  0  0  0  0  0  0  0  0  0  0
  180.6860  179.3230  140.7280 C   0  0  2  0  0  3  0  0  0  0  0  0
  186.3840  178.6990  139.2920 C   0  0  0  0  0  2  0  0  0  0  0  0
  186.0860  177.8780  142.9730 C   0  0  0  0  0  3  0  0  0  0  0  0
  186.6370  178.2280  141.7300 C   0  0  0  0  0  0  0  0  0  0  0  0
  187.9630  177.8860  141.4420 C   0  0  0  0  0  3  0  0  0  0  0  0
  190.0490  176.8670  142.0950 O   0  0  0  0  0  1  0  0  0  0  0  0
  188.1830  176.8610  143.6240 C   0  0  0  0  0  3  0  0  0  0  0  0
  188.7350  177.2050  142.3870 C   0  0  0  0  0  0  0  0  0  0  0  0
  186.8590  177.1970  143.9170 C   0  0  0  0  0  3  0  0  0  0  0  0
  180.3130  175.4350  139.7440 C   0  0  0  0  0  1  0  0  0  0  0  0
  179.4040  175.8100  140.7340 O   0  0  0  0  0  0  0  0  0  0  0  0
  1 27  1  0  0  0  0
  1  4  1  0  0  0  0
  2 17  1  0  0  0  0
  3  7  1  0  0  0  0
  4 37  1  6  0  0  0
  4 12  1  0  0  0  0
  5 19  1  0  0  0  0
  6  9  1  0  0  0  0
  7 10  1  0  0  0  0
  8 26  2  0  0  0  0
  9 13  1  0  0  0  0
  9  3  2  0  0  0  0
 10  5  1  1  0  0  0
 11  6  2  0  0  0  0
 11 16  1  0  0  0  0
 12  8  1  0  0  0  0
 13 17  1  6  0  0  0
 13 21  1  0  0  0  0
 14  2  2  0  0  0  0
 15 28  1  0  0  0  0
 16 20  2  0  0  0  0
 18  8  1  0  0  0  0
 20  3  1  0  0  0  0
 20 15  1  0  0  0  0
 22  2  1  0  0  0  0
 22  6  1  0  0  0  0
 23 10  1  0  0  0  0
 23 30  1  1  0  0  0
 24  2  2  0  0  0  0
 25 19  1  1  0  0  0
 25 18  1  0  0  0  0
 27 21  1  6  0  0  0
 27 25  1  0  0  0  0
 28 23  1  0  0  0  0
 29 35  1  0  0  0  0
 30 29  2  0  0  0  0
 31 30  1  0  0  0  0
 31 34  2  0  0  0  0
 32 34  1  0  0  0  0
 33 35  2  0  0  0  0
 34 33  1  0  0  0  0
 36 37  1  0  0  0  0
M  END
>  <MODEL>
2

>  <REMARK>
 VINA RESULT:      -6.0      3.085      6.722
  Name = 
  2 active torsions:
  status: ('A' for Active; 'I' for Inactive)
    1  A    between atoms: C_4  and  O_37
    2  A    between atoms: C_23  and  C_30
                            x       y       z     vdW  Elec       q    Type
                         _______ _______ _______ _____ _____    ______ ____

>  <TORSDO>
F 2

$$$$
=
 OpenBabel11122411343D

 37 42  0  0  1  0  0  0  0  0999 V2000
  184.5450  174.6120  136.8820 C   0  0  0  0  0  2  0  0  0  0  0  0
  188.9660  177.0340  135.3710 S   0  0  0  0  0  0  0  0  0  0  0  0
  185.3740  177.8710  137.8440 C   0  0  0  0  0  0  0  0  0  0  0  0
  183.7690  173.3320  137.2370 C   0  0  1  0  0  3  0  0  0  0  0  0
  181.8130  177.3830  136.9500 C   0  0  0  0  0  2  0  0  0  0  0  0
  187.7320  177.2260  137.7710 C   0  0  0  0  0  0  0  0  0  0  0  0
  184.1230  177.9430  137.2180 O   0  0  0  0  0  0  0  0  0  0  0  0
  181.9790  173.2100  135.5420 C   0  0  0  0  0  0  0  0  0  0  0  0
  186.4560  177.2510  137.1570 C   0  0  0  0  0  0  0  0  0  0  0  0
  182.8760  177.9220  137.8980 C   0  0  1  0  0  3  0  0  0  0  0  0
  187.9160  177.7660  139.0430 C   0  0  0  0  0  3  0  0  0  0  0  0
  183.2570  172.5870  136.0080 C   0  0  0  0  0  2  0  0  0  0  0  0
  186.3310  176.5960  135.7780 C   0  0  2  0  0  3  0  0  0  0  0  0
  189.6490  175.9450  134.5940 O   0  0  0  0  0  0  0  0  0  0  0  0
  184.5060  179.0930  139.9360 C   0  0  0  0  0  2  0  0  0  0  0  0
  186.8530  178.3600  139.7170 C   0  0  0  0  0  3  0  0  0  0  0  0
  187.2930  177.2360  134.7870 C   0  0  0  0  0  2  0  0  0  0  0  0
  181.9830  174.5050  134.7710 C   0  0  0  0  0  2  0  0  0  0  0  0
  182.0000  175.8860  136.7490 C   0  0  0  0  0  2  0  0  0  0  0  0
  185.5890  178.4290  139.1330 C   0  0  0  0  0  0  0  0  0  0  0  0
  184.9290  176.5330  135.1680 C   0  0  0  0  0  2  0  0  0  0  0  0
  188.9140  176.5900  137.1010 C   0  0  0  0  0  2  0  0  0  0  0  0
  182.5090  179.3250  138.3940 C   0  0  2  0  0  3  0  0  0  0  0  0
  189.7170  178.3250  135.1970 O   0  0  0  0  0  0  0  0  0  0  0  0
  182.6610  175.6020  135.4690 N   0  0  1  0  0  0  0  0  0  0  0  0
  180.9180  172.6710  135.8010 O   0  0  0  0  0  0  0  0  0  0  0  0
  184.1030  175.3060  135.5750 C   0  0  2  0  0  3  0  0  0  0  0  0
  183.6720  180.0440  139.0810 C   0  0  0  0  0  2  0  0  0  0  0  0
  180.4380  180.4250  139.3520 C   0  0  0  0  0  3  0  0  0  0  0  0
  181.2930  179.3150  139.2700 C   0  0  0  0  0  0  0  0  0  0  0  0
  181.0050  178.1670  140.0180 C   0  0  0  0  0  3  0  0  0  0  0  0
  179.6000  176.9880  141.5830 O   0  0  0  0  0  1  0  0  0  0  0  0
  179.0330  179.2380  140.9240 C   0  0  0  0  0  3  0  0  0  0  0  0
  179.8790  178.1290  140.8440 C   0  0  0  0  0  0  0  0  0  0  0  0
  179.3120  180.3860  140.1780 C   0  0  0  0  0  3  0  0  0  0  0  0
  185.8960  172.8460  137.6360 C   0  0  0  0  0  1  0  0  0  0  0  0
  184.5930  172.4880  137.9830 O   0  0  0  0  0  0  0  0  0  0  0  0
  1  4  1  0  0  0  0
  2 22  1  0  0  0  0
  3 20  1  0  0  0  0
  4 37  1  6  0  0  0
  6 11  2  0  0  0  0
  7  3  1  0  0  0  0
  7 10  1  0  0  0  0
  8 26  2  0  0  0  0
  8 12  1  0  0  0  0
  9  6  1  0  0  0  0
  9  3  2  0  0  0  0
 10  5  1  6  0  0  0
 10 23  1  0  0  0  0
 11 16  1  0  0  0  0
 12  4  1  0  0  0  0
 13 17  1  6  0  0  0
 13  9  1  0  0  0  0
 14  2  2  0  0  0  0
 17  2  1  0  0  0  0
 18  8  1  0  0  0  0
 19  5  1  0  0  0  0
 20 16  2  0  0  0  0
 20 15  1  0  0  0  0
 21 13  1  0  0  0  0
 22  6  1  0  0  0  0
 23 28  1  0  0  0  0
 23 30  1  1  0  0  0
 24  2  2  0  0  0  0
 25 18  1  1  0  0  0
 25 27  1  0  0  0  0
 25 19  1  0  0  0  0
 27 21  1  1  0  0  0
 27  1  1  0  0  0  0
 28 15  1  0  0  0  0
 29 35  1  0  0  0  0
 30 29  2  0  0  0  0
 30 31  1  0  0  0  0
 31 34  2  0  0  0  0
 34 33  1  0  0  0  0
 34 32  1  0  0  0  0
 35 33  2  0  0  0  0
 36 37  1  0  0  0  0
M  END
>  <MODEL>
3

>  <REMARK>
 VINA RESULT:      -5.7      4.242      7.219
  Name = 
  2 active torsions:
  status: ('A' for Active; 'I' for Inactive)
    1  A    between atoms: C_4  and  O_37
    2  A    between atoms: C_23  and  C_30
                            x       y       z     vdW  Elec       q    Type
                         _______ _______ _______ _____ _____    ______ ____

>  <TORSDO>
F 2

$$$$
=
 OpenBabel11122411343D

 37 42  0  0  1  0  0  0  0  0999 V2000
  181.8030  178.9940  140.3300 C   0  0  0  0  0  2  0  0  0  0  0  0
  179.9430  182.7110  137.1000 S   0  0  0  0  0  0  0  0  0  0  0  0
  181.7540  178.6640  136.8480 C   0  0  0  0  0  0  0  0  0  0  0  0
  181.7940  178.2650  141.6830 C   0  0  1  0  0  3  0  0  0  0  0  0
  184.8460  177.4320  138.4730 C   0  0  0  0  0  2  0  0  0  0  0  0
  179.7250  180.0300  136.8090 C   0  0  0  0  0  0  0  0  0  0  0  0
  183.0850  178.4910  137.2490 O   0  0  0  0  0  0  0  0  0  0  0  0
  184.0390  178.6830  142.6210 C   0  0  0  0  0  0  0  0  0  0  0  0
  181.0540  179.8330  137.2590 C   0  0  0  0  0  0  0  0  0  0  0  0
  183.7010  177.2350  137.4880 C   0  0  1  0  0  3  0  0  0  0  0  0
  179.1010  179.0750  136.0080 C   0  0  0  0  0  3  0  0  0  0  0  0
  182.5830  179.0010  142.7610 C   0  0  0  0  0  2  0  0  0  0  0  0
  181.6490  180.9100  138.1720 C   0  0  2  0  0  3  0  0  0  0  0  0
  179.4440  183.7330  138.0830 O   0  0  0  0  0  0  0  0  0  0  0  0
  181.7580  176.4460  135.5430 C   0  0  0  0  0  2  0  0  0  0  0  0
  179.7850  177.9270  135.6180 C   0  0  0  0  0  3  0  0  0  0  0  0
  181.6270  182.2700  137.4890 C   0  0  0  0  0  2  0  0  0  0  0  0
  184.8750  179.3310  141.5480 C   0  0  0  0  0  2  0  0  0  0  0  0
  184.2980  177.6990  139.8680 C   0  0  0  0  0  2  0  0  0  0  0  0
  181.1030  177.7120  136.0180 C   0  0  0  0  0  0  0  0  0  0  0  0
  183.0440  180.6400  138.7400 C   0  0  0  0  0  2  0  0  0  0  0  0
  178.9330  181.2410  137.2040 C   0  0  0  0  0  2  0  0  0  0  0  0
  184.2060  176.6230  136.1760 C   0  0  2  0  0  3  0  0  0  0  0  0
  179.8810  183.2760  135.7090 O   0  0  0  0  0  0  0  0  0  0  0  0
  184.3500  179.1300  140.1920 N   0  0  1  0  0  0  0  0  0  0  0  0
  184.5530  177.8780  143.3760 O   0  0  0  0  0  0  0  0  0  0  0  0
  183.0650  179.8400  140.0480 C   0  0  2  0  0  3  0  0  0  0  0  0
  183.1780  176.6990  135.0440 C   0  0  0  0  0  2  0  0  0  0  0  0
  184.0640  174.3290  137.2410 C   0  0  0  0  0  3  0  0  0  0  0  0
  184.6990  175.2190  136.3600 C   0  0  0  0  0  0  0  0  0  0  0  0
  185.8140  174.7910  135.6310 C   0  0  0  0  0  3  0  0  0  0  0  0
  187.4010  173.0690  135.0560 O   0  0  0  0  0  1  0  0  0  0  0  0
  185.6630  172.6060  136.6630 C   0  0  0  0  0  3  0  0  0  0  0  0
  186.2950  173.4880  135.7820 C   0  0  0  0  0  0  0  0  0  0  0  0
  184.5470  173.0270  137.3910 C   0  0  0  0  0  3  0  0  0  0  0  0
  180.4300  178.6350  143.3920 C   0  0  0  0  0  1  0  0  0  0  0  0
  180.4740  178.0980  142.1060 O   0  0  0  0  0  0  0  0  0  0  0  0
  1  4  1  0  0  0  0
  2 22  1  0  0  0  0
  2 17  1  0  0  0  0
  2 14  2  0  0  0  0
  3  7  1  0  0  0  0
  3  9  1  0  0  0  0
  4 37  1  1  0  0  0
  4 12  1  0  0  0  0
  5 19  1  0  0  0  0
  6 22  1  0  0  0  0
  6  9  2  0  0  0  0
  7 10  1  0  0  0  0
  8 12  1  0  0  0  0
  8 26  2  0  0  0  0
  9 13  1  0  0  0  0
 10  5  1  1  0  0  0
 11  6  1  0  0  0  0
 13 17  1  6  0  0  0
 13 21  1  0  0  0  0
 15 20  1  0  0  0  0
 16 11  2  0  0  0  0
 16 20  1  0  0  0  0
 18  8  1  0  0  0  0
 20  3  2  0  0  0  0
 23 30  1  1  0  0  0
 23 10  1  0  0  0  0
 24  2  2  0  0  0  0
 25 19  1  1  0  0  0
 25 18  1  0  0  0  0
 27 21  1  6  0  0  0
 27 25  1  0  0  0  0
 27  1  1  0  0  0  0
 28 15  1  0  0  0  0
 28 23  1  0  0  0  0
 29 35  1  0  0  0  0
 30 29  2  0  0  0  0
 31 34  2  0  0  0  0
 31 30  1  0  0  0  0
 32 34  1  0  0  0  0
 33 35  2  0  0  0  0
 34 33  1  0  0  0  0
 37 36  1  0  0  0  0
M  END
>  <MODEL>
4

>  <REMARK>
 VINA RESULT:      -4.8      3.123      6.966
  Name = 
  2 active torsions:
  status: ('A' for Active; 'I' for Inactive)
    1  A    between atoms: C_4  and  O_37
    2  A    between atoms: C_23  and  C_30
                            x       y       z     vdW  Elec       q    Type
                         _______ _______ _______ _____ _____    ______ ____

>  <TORSDO>
F 2

$$$$
=
 OpenBabel11122411343D

 37 42  0  0  1  0  0  0  0  0999 V2000
  189.4130  176.4140  140.8780 C   0  0  0  0  0  2  0  0  0  0  0  0
  185.8920  177.6090  137.1530 S   0  0  0  0  0  0  0  0  0  0  0  0
  189.8140  175.5560  137.5110 C   0  0  0  0  0  0  0  0  0  0  0  0
  189.7610  176.0680  142.3350 C   0  0  1  0  0  3  0  0  0  0  0  0
  192.8920  176.7720  139.1720 C   0  0  0  0  0  2  0  0  0  0  0  0
  187.3820  175.3580  137.3370 C   0  0  0  0  0  0  0  0  0  0  0  0
  190.9410  176.3070  137.8710 O   0  0  0  0  0  0  0  0  0  0  0  0
  191.2090  177.9240  143.0790 C   0  0  0  0  0  0  0  0  0  0  0  0
  188.5180  176.0970  137.7490 C   0  0  0  0  0  0  0  0  0  0  0  0
  192.1790  175.7540  138.2920 C   0  0  1  0  0  3  0  0  0  0  0  0
  187.5290  174.1060  136.7420 C   0  0  0  0  0  3  0  0  0  0  0  0
  189.8580  177.2990  143.2320 C   0  0  0  0  0  2  0  0  0  0  0  0
  188.2660  177.4430  138.4340 C   0  0  2  0  0  3  0  0  0  0  0  0
  184.8070  178.2530  137.9690 O   0  0  0  0  0  0  0  0  0  0  0  0
  191.2640  173.6330  136.6070 C   0  0  0  0  0  2  0  0  0  0  0  0
  188.7970  173.5760  136.5220 C   0  0  0  0  0  3  0  0  0  0  0  0
  187.4620  178.3670  137.5300 C   0  0  0  0  0  2  0  0  0  0  0  0
  191.5440  178.7610  141.8710 C   0  0  0  0  0  2  0  0  0  0  0  0
  192.2030  176.8710  140.5250 C   0  0  0  0  0  2  0  0  0  0  0  0
  189.9400  174.2860  136.8880 C   0  0  0  0  0  0  0  0  0  0  0  0
  189.4910  178.1850  138.9720 C   0  0  0  0  0  2  0  0  0  0  0  0
  185.9890  175.8710  137.5560 C   0  0  0  0  0  2  0  0  0  0  0  0
  193.0400  175.3760  137.0810 C   0  0  2  0  0  3  0  0  0  0  0  0
  185.5920  177.7780  135.6900 O   0  0  0  0  0  0  0  0  0  0  0  0
  191.3460  178.0610  140.5970 N   0  0  1  0  0  0  0  0  0  0  0  0
  192.0560  177.7430  143.9340 O   0  0  0  0  0  0  0  0  0  0  0  0
  189.9090  177.7960  140.3950 C   0  0  2  0  0  3  0  0  0  0  0  0
  192.2620  174.6180  136.0040 C   0  0  0  0  0  2  0  0  0  0  0  0
  194.2090  173.3130  137.9690 C   0  0  0  0  0  3  0  0  0  0  0  0
  194.2760  174.6260  137.4780 C   0  0  0  0  0  0  0  0  0  0  0  0
  195.5210  175.2520  137.3510 C   0  0  0  0  0  3  0  0  0  0  0  0
  197.9200  175.2040  137.5840 O   0  0  0  0  0  1  0  0  0  0  0  0
  196.6170  173.2710  138.2060 C   0  0  0  0  0  3  0  0  0  0  0  0
  196.6890  174.5770  137.7140 C   0  0  0  0  0  0  0  0  0  0  0  0
  195.3780  172.6390  138.3330 C   0  0  0  0  0  3  0  0  0  0  0  0
  187.9310  176.0030  143.5880 C   0  0  0  0  0  1  0  0  0  0  0  0
  188.7940  175.1990  142.8440 O   0  0  0  0  0  0  0  0  0  0  0  0
  1  4  1  0  0  0  0
  2 17  1  0  0  0  0
  2 22  1  0  0  0  0
  2 14  2  0  0  0  0
  3  9  1  0  0  0  0
  3  7  1  0  0  0  0
  4 37  1  1  0  0  0
  4 12  1  0  0  0  0
  5 19  1  0  0  0  0
  6 22  1  0  0  0  0
  6  9  2  0  0  0  0
  7 10  1  0  0  0  0
  8 12  1  0  0  0  0
  8 26  2  0  0  0  0
  9 13  1  0  0  0  0
 10  5  1  1  0  0  0
 11  6  1  0  0  0  0
 13 17  1  6  0  0  0
 13 21  1  0  0  0  0
 15 20  1  0  0  0  0
 16 11  2  0  0  0  0
 16 20  1  0  0  0  0
 18  8  1  0  0  0  0
 20  3  2  0  0  0  0
 23 30  1  1  0  0  0
 23 10  1  0  0  0  0
 24  2  2  0  0  0  0
 25 19  1  1  0  0  0
 25 18  1  0  0  0  0
 27 21  1  6  0  0  0
 27 25  1  0  0  0  0
 27  1  1  0  0  0  0
 28 15  1  0  0  0  0
 28 23  1  0  0  0  0
 29 35  1  0  0  0  0
 30 29  2  0  0  0  0
 31 30  1  0  0  0  0
 31 34  2  0  0  0  0
 32 34  1  0  0  0  0
 33 35  2  0  0  0  0
 34 33  1  0  0  0  0
 37 36  1  0  0  0  0
M  END
>  <MODEL>
5

>  <REMARK>
 VINA RESULT:      -4.2      9.032     11.959
  Name = 
  2 active torsions:
  status: ('A' for Active; 'I' for Inactive)
    1  A    between atoms: C_4  and  O_37
    2  A    between atoms: C_23  and  C_30
                            x       y       z     vdW  Elec       q    Type
                         _______ _______ _______ _____ _____    ______ ____

>  <TORSDO>
F 2

$$$$
=
 OpenBabel11122411343D

 37 42  0  0  1  0  0  0  0  0999 V2000
  184.9370  175.2250  137.4730 C   0  0  0  0  0  2  0  0  0  0  0  0
  189.2300  177.7900  135.8310 S   0  0  0  0  0  0  0  0  0  0  0  0
  186.3760  177.8850  139.2320 C   0  0  0  0  0  0  0  0  0  0  0  0
  184.0880  173.9460  137.5590 C   0  0  1  0  0  3  0  0  0  0  0  0
  182.6740  177.9320  139.1150 C   0  0  0  0  0  2  0  0  0  0  0  0
  188.5600  177.1840  138.3820 C   0  0  0  0  0  0  0  0  0  0  0  0
  185.0430  178.2390  138.9880 O   0  0  0  0  0  0  0  0  0  0  0  0
  181.9850  174.5260  136.4050 C   0  0  0  0  0  0  0  0  0  0  0  0
  187.1980  177.4920  138.1380 C   0  0  0  0  0  0  0  0  0  0  0  0
  183.9740  178.0440  139.9020 C   0  0  1  0  0  3  0  0  0  0  0  0
  189.0750  177.2280  139.6760 C   0  0  0  0  0  3  0  0  0  0  0  0
  183.2370  173.7120  136.3150 C   0  0  0  0  0  2  0  0  0  0  0  0
  186.7030  177.3750  136.6930 C   0  0  2  0  0  3  0  0  0  0  0  0
  189.5840  177.0120  134.5960 O   0  0  0  0  0  0  0  0  0  0  0  0
  186.1330  178.3310  141.7540 C   0  0  0  0  0  2  0  0  0  0  0  0
  188.2640  177.6000  140.7440 C   0  0  0  0  0  3  0  0  0  0  0  0
  187.5140  178.2730  135.7700 C   0  0  0  0  0  2  0  0  0  0  0  0
  182.0010  176.0080  136.1310 C   0  0  0  0  0  2  0  0  0  0  0  0
  182.6140  176.5960  138.3890 C   0  0  0  0  0  2  0  0  0  0  0  0
  186.9260  177.9380  140.5400 C   0  0  0  0  0  0  0  0  0  0  0  0
  185.2090  177.6060  136.4550 C   0  0  0  0  0  2  0  0  0  0  0  0
  189.4810  176.7650  137.2740 C   0  0  0  0  0  2  0  0  0  0  0  0
  183.9080  179.1990  140.9080 C   0  0  2  0  0  3  0  0  0  0  0  0
  190.0940  179.0170  135.9200 O   0  0  0  0  0  0  0  0  0  0  0  0
  182.9500  176.7500  136.9680 N   0  0  1  0  0  0  0  0  0  0  0  0
  180.9390  173.9870  136.7180 O   0  0  0  0  0  0  0  0  0  0  0  0
  184.3300  176.3600  136.6180 C   0  0  2  0  0  3  0  0  0  0  0  0
  185.2740  179.5650  141.4920 C   0  0  0  0  0  2  0  0  0  0  0  0
  183.2710  179.0110  143.3530 C   0  0  0  0  0  3  0  0  0  0  0  0
  182.9110  178.9420  141.9980 C   0  0  0  0  0  0  0  0  0  0  0  0
  181.5910  178.6330  141.6500 C   0  0  0  0  0  3  0  0  0  0  0  0
  179.3330  178.0830  142.2930 O   0  0  0  0  0  1  0  0  0  0  0  0
  181.0050  178.4550  143.9920 C   0  0  0  0  0  3  0  0  0  0  0  0
  180.6400  178.3890  142.6440 C   0  0  0  0  0  0  0  0  0  0  0  0
  182.3200  178.7670  144.3460 C   0  0  0  0  0  3  0  0  0  0  0  0
  184.4240  171.8440  136.9370 C   0  0  0  0  0  1  0  0  0  0  0  0
  184.9300  172.8500  137.7590 O   0  0  0  0  0  0  0  0  0  0  0  0
  1  4  1  0  0  0  0
  2 24  2  0  0  0  0
  2 22  1  0  0  0  0
  3 20  1  0  0  0  0
  4 37  1  6  0  0  0
  6 11  2  0  0  0  0
  7  3  1  0  0  0  0
  7 10  1  0  0  0  0
  8 26  2  0  0  0  0
  9  6  1  0  0  0  0
  9  3  2  0  0  0  0
 10  5  1  6  0  0  0
 10 23  1  0  0  0  0
 11 16  1  0  0  0  0
 12  8  1  0  0  0  0
 12  4  1  0  0  0  0
 13 17  1  6  0  0  0
 13  9  1  0  0  0  0
 14  2  2  0  0  0  0
 17  2  1  0  0  0  0
 18  8  1  0  0  0  0
 19  5  1  0  0  0  0
 20 16  2  0  0  0  0
 20 15  1  0  0  0  0
 21 13  1  0  0  0  0
 22  6  1  0  0  0  0
 23 28  1  0  0  0  0
 23 30  1  1  0  0  0
 25 18  1  6  0  0  0
 25 19  1  0  0  0  0
 27 21  1  1  0  0  0
 27 25  1  0  0  0  0
 27  1  1  0  0  0  0
 28 15  1  0  0  0  0
 29 35  1  0  0  0  0
 30 29  2  0  0  0  0
 31 30  1  0  0  0  0
 31 34  2  0  0  0  0
 32 34  1  0  0  0  0
 33 35  2  0  0  0  0
 34 33  1  0  0  0  0
 36 37  1  0  0  0  0
M  END
>  <MODEL>
6

>  <REMARK>
 VINA RESULT:      -4.2      4.412      7.925
  Name = 
  2 active torsions:
  status: ('A' for Active; 'I' for Inactive)
    1  A    between atoms: C_4  and  O_37
    2  A    between atoms: C_23  and  C_30
                            x       y       z     vdW  Elec       q    Type
                         _______ _______ _______ _____ _____    ______ ____

>  <TORSDO>
F 2

$$$$
=
 OpenBabel11122411343D

 37 42  0  0  1  0  0  0  0  0999 V2000
  187.9590  176.0620  138.5720 C   0  0  0  0  0  2  0  0  0  0  0  0
  191.6550  177.5050  142.0290 S   0  0  0  0  0  0  0  0  0  0  0  0
  187.2580  177.8390  141.5020 C   0  0  0  0  0  0  0  0  0  0  0  0
  187.4230  175.0910  137.5060 C   0  0  1  0  0  3  0  0  0  0  0  0
  185.3900  178.9850  138.5170 C   0  0  0  0  0  2  0  0  0  0  0  0
  189.1330  176.6890  142.5730 C   0  0  0  0  0  0  0  0  0  0  0  0
  186.7600  178.6040  140.4400 O   0  0  0  0  0  0  0  0  0  0  0  0
  187.2870  176.4500  135.4500 C   0  0  0  0  0  0  0  0  0  0  0  0
  188.6180  177.4180  141.4730 C   0  0  0  0  0  0  0  0  0  0  0  0
  185.4160  178.5740  139.9830 C   0  0  1  0  0  3  0  0  0  0  0  0
  188.3110  176.3570  143.6480 C   0  0  0  0  0  3  0  0  0  0  0  0
  188.0220  175.3350  136.1240 C   0  0  0  0  0  2  0  0  0  0  0  0
  189.5770  177.7040  140.3130 C   0  0  2  0  0  3  0  0  0  0  0  0
  192.8830  176.8830  141.4260 O   0  0  0  0  0  0  0  0  0  0  0  0
  184.9970  177.8930  142.7290 C   0  0  0  0  0  2  0  0  0  0  0  0
  186.9790  176.7580  143.6670 C   0  0  0  0  0  3  0  0  0  0  0  0
  190.7990  178.4710  140.7980 C   0  0  0  0  0  2  0  0  0  0  0  0
  187.5410  177.8870  135.8280 C   0  0  0  0  0  2  0  0  0  0  0  0
  185.9600  177.8710  137.6500 C   0  0  0  0  0  2  0  0  0  0  0  0
  186.4440  177.5020  142.6160 C   0  0  0  0  0  0  0  0  0  0  0  0
  188.9870  178.3970  139.0840 C   0  0  0  0  0  2  0  0  0  0  0  0
  190.5570  176.2180  142.6060 C   0  0  0  0  0  2  0  0  0  0  0  0
  184.5390  179.5050  140.8290 C   0  0  2  0  0  3  0  0  0  0  0  0
  192.0510  178.3910  143.1770 O   0  0  0  0  0  0  0  0  0  0  0  0
  187.3440  178.1630  137.2560 N   0  0  1  0  0  0  0  0  0  0  0  0
  186.4610  176.1940  134.5940 O   0  0  0  0  0  0  0  0  0  0  0  0
  188.3700  177.4540  138.0440 C   0  0  2  0  0  3  0  0  0  0  0  0
  184.7740  179.3500  142.3330 C   0  0  0  0  0  2  0  0  0  0  0  0
  182.5510  179.8850  139.3050 C   0  0  0  0  0  3  0  0  0  0  0  0
  183.0830  179.3670  140.4970 C   0  0  0  0  0  0  0  0  0  0  0  0
  182.2420  178.7010  141.3950 C   0  0  0  0  0  3  0  0  0  0  0  0
  180.0540  177.8950  142.0070 O   0  0  0  0  0  1  0  0  0  0  0  0
  180.3560  179.0780  139.9260 C   0  0  0  0  0  3  0  0  0  0  0  0
  180.8820  178.5570  141.1120 C   0  0  0  0  0  0  0  0  0  0  0  0
  181.1910  179.7410  139.0230 C   0  0  0  0  0  3  0  0  0  0  0  0
  186.7450  172.9960  137.2430 C   0  0  0  0  0  1  0  0  0  0  0  0
  187.6900  173.7800  137.9040 O   0  0  0  0  0  0  0  0  0  0  0  0
  2 22  1  0  0  0  0
  2 24  2  0  0  0  0
  3 20  1  0  0  0  0
  4 37  1  1  0  0  0
  4  1  1  0  0  0  0
  6 22  1  0  0  0  0
  6 11  2  0  0  0  0
  7  3  1  0  0  0  0
  8 18  1  0  0  0  0
  8 12  1  0  0  0  0
  9  3  2  0  0  0  0
  9  6  1  0  0  0  0
 10  5  1  6  0  0  0
 10  7  1  0  0  0  0
 10 23  1  0  0  0  0
 11 16  1  0  0  0  0
 12  4  1  0  0  0  0
 13 21  1  6  0  0  0
 13 17  1  0  0  0  0
 13  9  1  0  0  0  0
 14  2  2  0  0  0  0
 17  2  1  0  0  0  0
 19  5  1  0  0  0  0
 20 15  1  0  0  0  0
 20 16  2  0  0  0  0
 23 30  1  1  0  0  0
 23 28  1  0  0  0  0
 25 18  1  6  0  0  0
 25 19  1  0  0  0  0
 25 27  1  0  0  0  0
 26  8  2  0  0  0  0
 27  1  1  1  0  0  0
 27 21  1  0  0  0  0
 28 15  1  0  0  0  0
 29 30  1  0  0  0  0
 30 31  2  0  0  0  0
 33 34  2  0  0  0  0
 34 31  1  0  0  0  0
 34 32  1  0  0  0  0
 35 29  2  0  0  0  0
 35 33  1  0  0  0  0
 36 37  1  0  0  0  0
M  END
>  <MODEL>
7

>  <REMARK>
 VINA RESULT:      -4.0      5.531      9.185
  Name = 
  2 active torsions:
  status: ('A' for Active; 'I' for Inactive)
    1  A    between atoms: C_4  and  O_37
    2  A    between atoms: C_23  and  C_30
                            x       y       z     vdW  Elec       q    Type
                         _______ _______ _______ _____ _____    ______ ____

>  <TORSDO>
F 2

$$$$
=
 OpenBabel11122411343D

 37 42  0  0  1  0  0  0  0  0999 V2000
  188.2020  174.2820  136.5720 C   0  0  0  0  0  2  0  0  0  0  0  0
  193.0710  176.0650  135.6690 S   0  0  0  0  0  0  0  0  0  0  0  0
  189.6600  176.8910  138.3900 C   0  0  0  0  0  0  0  0  0  0  0  0
  187.1690  173.1440  136.5750 C   0  0  1  0  0  3  0  0  0  0  0  0
  186.1030  177.4230  137.5080 C   0  0  0  0  0  2  0  0  0  0  0  0
  191.8350  175.8190  138.0630 C   0  0  0  0  0  0  0  0  0  0  0  0
  188.4700  177.3940  137.8500 O   0  0  0  0  0  0  0  0  0  0  0  0
  185.4420  173.8790  134.9710 C   0  0  0  0  0  0  0  0  0  0  0  0
  190.6100  176.2810  137.5220 C   0  0  0  0  0  0  0  0  0  0  0  0
  187.2270  177.4390  138.5350 C   0  0  1  0  0  3  0  0  0  0  0  0
  192.0900  175.9270  139.4290 C   0  0  0  0  0  3  0  0  0  0  0  0
  186.5490  172.9000  135.2020 C   0  0  0  0  0  2  0  0  0  0  0  0
  190.3920  176.0840  136.0180 C   0  0  2  0  0  3  0  0  0  0  0  0
  193.5360  175.1240  134.5940 O   0  0  0  0  0  0  0  0  0  0  0  0
  189.0040  177.6220  140.7680 C   0  0  0  0  0  2  0  0  0  0  0  0
  191.1540  176.5120  140.2770 C   0  0  0  0  0  3  0  0  0  0  0  0
  191.4940  176.7660  135.2190 C   0  0  0  0  0  2  0  0  0  0  0  0
  185.7360  175.3100  134.5990 C   0  0  0  0  0  2  0  0  0  0  0  0
  185.9820  176.0390  136.8850 C   0  0  0  0  0  2  0  0  0  0  0  0
  189.9490  177.0040  139.7770 C   0  0  0  0  0  0  0  0  0  0  0  0
  189.0260  176.4870  135.4600 C   0  0  0  0  0  2  0  0  0  0  0  0
  192.8790  175.1700  137.2030 C   0  0  0  0  0  2  0  0  0  0  0  0
  187.1440  178.6890  139.4190 C   0  0  2  0  0  3  0  0  0  0  0  0
  194.0780  177.1680  135.8440 O   0  0  0  0  0  0  0  0  0  0  0  0
  186.6070  176.0000  135.5570 N   0  0  1  0  0  0  0  0  0  0  0  0
  184.2850  173.5210  135.1010 O   0  0  0  0  0  0  0  0  0  0  0  0
  187.9520  175.3940  135.5290 C   0  0  2  0  0  3  0  0  0  0  0  0
  188.4110  178.9270  140.2440 C   0  0  0  0  0  2  0  0  0  0  0  0
  186.0220  178.8730  141.6830 C   0  0  0  0  0  3  0  0  0  0  0  0
  185.9270  178.6820  140.2950 C   0  0  0  0  0  0  0  0  0  0  0  0
  184.6710  178.4850  139.7100 C   0  0  0  0  0  3  0  0  0  0  0  0
  182.2770  178.2780  139.9150 O   0  0  0  0  0  1  0  0  0  0  0  0
  183.6190  178.6600  141.8830 C   0  0  0  0  0  3  0  0  0  0  0  0
  183.5200  178.4740  140.5010 C   0  0  0  0  0  0  0  0  0  0  0  0
  184.8700  178.8610  142.4730 C   0  0  0  0  0  3  0  0  0  0  0  0
  187.9100  171.1680  135.8920 C   0  0  0  0  0  1  0  0  0  0  0  0
  187.7780  171.9710  137.0240 O   0  0  0  0  0  0  0  0  0  0  0  0
  1  4  1  0  0  0  0
  2 24  2  0  0  0  0
  2 22  1  0  0  0  0
  3 20  1  0  0  0  0
  4 37  1  6  0  0  0
  6 11  2  0  0  0  0
  7  3  1  0  0  0  0
  7 10  1  0  0  0  0
  8 26  2  0  0  0  0
  8 12  1  0  0  0  0
  9  6  1  0  0  0  0
  9  3  2  0  0  0  0
 10  5  1  6  0  0  0
 10 23  1  0  0  0  0
 11 16  1  0  0  0  0
 12  4  1  0  0  0  0
 13 17  1  6  0  0  0
 13  9  1  0  0  0  0
 14  2  2  0  0  0  0
 17  2  1  0  0  0  0
 18  8  1  0  0  0  0
 19  5  1  0  0  0  0
 20 16  2  0  0  0  0
 20 15  1  0  0  0  0
 21 13  1  0  0  0  0
 22  6  1  0  0  0  0
 23 28  1  0  0  0  0
 23 30  1  1  0  0  0
 25 18  1  6  0  0  0
 25 19  1  0  0  0  0
 27 21  1  1  0  0  0
 27 25  1  0  0  0  0
 27  1  1  0  0  0  0
 28 15  1  0  0  0  0
 29 35  1  0  0  0  0
 30 29  2  0  0  0  0
 31 30  1  0  0  0  0
 31 34  2  0  0  0  0
 32 34  1  0  0  0  0
 33 35  2  0  0  0  0
 34 33  1  0  0  0  0
 36 37  1  0  0  0  0
M  END
>  <MODEL>
8

>  <REMARK>
 VINA RESULT:      -4.0      6.904     10.057
  Name = 
  2 active torsions:
  status: ('A' for Active; 'I' for Inactive)
    1  A    between atoms: C_4  and  O_37
    2  A    between atoms: C_23  and  C_30
                            x       y       z     vdW  Elec       q    Type
                         _______ _______ _______ _____ _____    ______ ____

>  <TORSDO>
F 2

$$$$
=
 OpenBabel11122411343D

 37 42  0  0  1  0  0  0  0  0999 V2000
  187.2680  175.6010  137.8360 C   0  0  0  0  0  2  0  0  0  0  0  0
  191.9920  177.2690  139.4510 S   0  0  0  0  0  0  0  0  0  0  0  0
  187.7240  177.6970  140.6000 C   0  0  0  0  0  0  0  0  0  0  0  0
  186.3750  174.5440  137.1670 C   0  0  1  0  0  3  0  0  0  0  0  0
  184.8500  178.5890  138.4410 C   0  0  0  0  0  2  0  0  0  0  0  0
  189.8740  176.6010  140.9970 C   0  0  0  0  0  0  0  0  0  0  0  0
  186.8520  178.3640  139.7290 O   0  0  0  0  0  0  0  0  0  0  0  0
  185.4550  175.6850  135.1810 C   0  0  0  0  0  0  0  0  0  0  0  0
  188.9730  177.2290  140.1030 C   0  0  0  0  0  0  0  0  0  0  0  0
  185.4360  178.3330  139.8230 C   0  0  1  0  0  3  0  0  0  0  0  0
  189.5270  176.4110  142.3340 C   0  0  0  0  0  3  0  0  0  0  0  0
  186.4000  174.6220  135.6440 C   0  0  0  0  0  2  0  0  0  0  0  0
  189.4150  177.3590  138.6410 C   0  0  2  0  0  3  0  0  0  0  0  0
  192.9020  176.5450  138.4990 O   0  0  0  0  0  0  0  0  0  0  0  0
  186.1010  177.9560  142.5790 C   0  0  0  0  0  2  0  0  0  0  0  0
  188.2990  176.8580  142.8130 C   0  0  0  0  0  3  0  0  0  0  0  0
  190.7240  178.1300  138.5400 C   0  0  0  0  0  2  0  0  0  0  0  0
  185.8220  177.1440  135.2750 C   0  0  0  0  0  2  0  0  0  0  0  0
  185.0560  177.3720  137.5500 C   0  0  0  0  0  2  0  0  0  0  0  0
  187.3980  177.5070  141.9690 C   0  0  0  0  0  0  0  0  0  0  0  0
  188.3960  177.9410  137.6600 C   0  0  0  0  0  2  0  0  0  0  0  0
  191.2070  176.0880  140.5390 C   0  0  0  0  0  2  0  0  0  0  0  0
  184.9400  179.3770  140.8310 C   0  0  2  0  0  3  0  0  0  0  0  0
  192.7880  178.2560  140.2580 O   0  0  0  0  0  0  0  0  0  0  0  0
  186.1820  177.5740  136.6310 N   0  0  1  0  0  0  0  0  0  0  0  0
  184.3660  175.3700  134.7360 O   0  0  0  0  0  0  0  0  0  0  0  0
  187.4360  176.9160  137.0430 C   0  0  2  0  0  3  0  0  0  0  0  0
  185.7320  179.3710  142.1400 C   0  0  0  0  0  2  0  0  0  0  0  0
  182.5270  179.3820  140.0600 C   0  0  0  0  0  3  0  0  0  0  0  0
  183.4690  179.2550  141.0940 C   0  0  0  0  0  0  0  0  0  0  0  0
  183.0310  179.0030  142.3990 C   0  0  0  0  0  3  0  0  0  0  0  0
  181.2380  178.6350  143.9690 O   0  0  0  0  0  1  0  0  0  0  0  0
  180.7320  179.0160  141.6410 C   0  0  0  0  0  3  0  0  0  0  0  0
  181.6660  178.8840  142.6730 C   0  0  0  0  0  0  0  0  0  0  0  0
  181.1620  179.2630  140.3360 C   0  0  0  0  0  3  0  0  0  0  0  0
  187.9410  173.0070  136.8420 C   0  0  0  0  0  1  0  0  0  0  0  0
  186.7840  173.2730  137.5740 O   0  0  0  0  0  0  0  0  0  0  0  0
  2 24  2  0  0  0  0
  2 22  1  0  0  0  0
  3 20  1  0  0  0  0
  4 37  1  6  0  0  0
  4  1  1  0  0  0  0
  6 11  2  0  0  0  0
  7 10  1  0  0  0  0
  7  3  1  0  0  0  0
  8 18  1  0  0  0  0
  8 12  1  0  0  0  0
  9  3  2  0  0  0  0
  9  6  1  0  0  0  0
 10  5  1  6  0  0  0
 10 23  1  0  0  0  0
 11 16  1  0  0  0  0
 12  4  1  0  0  0  0
 13 21  1  6  0  0  0
 13  9  1  0  0  0  0
 14  2  2  0  0  0  0
 17 13  1  0  0  0  0
 17  2  1  0  0  0  0
 19  5  1  0  0  0  0
 20 15  1  0  0  0  0
 20 16  2  0  0  0  0
 22  6  1  0  0  0  0
 23 30  1  1  0  0  0
 23 28  1  0  0  0  0
 25 18  1  6  0  0  0
 25 27  1  0  0  0  0
 25 19  1  0  0  0  0
 26  8  2  0  0  0  0
 27 21  1  1  0  0  0
 27  1  1  0  0  0  0
 28 15  1  0  0  0  0
 29 35  2  0  0  0  0
 29 30  1  0  0  0  0
 30 31  2  0  0  0  0
 31 34  1  0  0  0  0
 33 34  2  0  0  0  0
 34 32  1  0  0  0  0
 35 33  1  0  0  0  0
 36 37  1  0  0  0  0
M  END
>  <MODEL>
9

>  <REMARK>
 VINA RESULT:      -4.0      5.482      9.076
  Name = 
  2 active torsions:
  status: ('A' for Active; 'I' for Inactive)
    1  A    between atoms: C_4  and  O_37
    2  A    between atoms: C_23  and  C_30
                            x       y       z     vdW  Elec       q    Type
                         _______ _______ _______ _____ _____    ______ ____

>  <TORSDO>
F 2

$$$$
