=
 OpenBabel11122411113D

 31 35  0  0  1  0  0  0  0  0999 V2000
  183.6850  178.9910  144.5500 C   0  0  0  0  0  0  0  0  0  0  0  0
  186.7180  178.5840  142.3560 N   0  0  0  0  0  0  0  0  0  0  0  0
  187.7380  177.8740  143.1040 C   0  0  0  0  0  0  0  0  0  0  0  0
  184.0680  177.3820  137.9790 O   0  0  0  0  0  0  0  0  0  0  0  0
  185.2620  177.6470  137.6800 C   0  0  0  0  0  0  0  0  0  0  0  0
  188.6810  177.0790  145.2020 C   0  0  0  0  0  0  0  0  0  0  0  0
  185.3540  178.6790  142.8150 C   0  0  0  0  0  0  0  0  0  0  0  0
  182.6670  178.8050  143.6080 C   0  0  0  0  0  3  0  0  0  0  0  0
  187.6870  177.7690  144.5030 C   0  0  0  0  0  3  0  0  0  0  0  0
  185.8760  178.4000  140.0460 C   0  0  0  0  0  0  0  0  0  0  0  0
  183.3720  179.2270  145.8460 F   0  0  0  0  0  0  0  0  0  0  0  0
  188.8650  177.3310  140.9280 C   0  0  0  0  0  2  0  0  0  0  0  0
  188.6120  176.9780  146.6830 C   0  0  0  0  0  1  0  0  0  0  0  0
  184.6610  178.2610  140.4990 N   0  0  0  0  0  0  0  0  0  0  0  0
  186.9480  178.9710  140.9480 C   0  0  2  0  0  3  0  0  0  0  0  0
  186.1710  178.1540  138.6660 N   0  0  0  0  0  2  0  0  0  0  0  0
  185.0250  178.9260  144.1560 C   0  0  0  0  0  3  0  0  0  0  0  0
  189.7360  176.4810  144.5100 C   0  0  0  0  0  3  0  0  0  0  0  0
  184.3270  178.5120  141.8710 C   0  0  0  0  0  0  0  0  0  0  0  0
  182.9880  178.5640  142.2700 C   0  0  0  0  0  3  0  0  0  0  0  0
  188.3760  178.6920  140.4570 C   0  0  0  0  0  2  0  0  0  0  0  0
  188.8130  177.2780  142.4170 C   0  0  0  0  0  0  0  0  0  0  0  0
  189.7990  176.5760  143.1180 C   0  0  0  0  0  3  0  0  0  0  0  0
  187.5880  175.1030  136.1370 C   0  0  1  0  0  3  0  0  0  0  0  0
  185.2810  176.0250  135.7680 C   0  0  0  0  0  2  0  0  0  0  0  0
  187.7380  178.9290  136.5740 C   0  0  0  0  0  1  0  0  0  0  0  0
  188.3720  173.9870  136.7930 C   0  0  0  0  0  1  0  0  0  0  0  0
  186.0980  174.8980  136.4000 C   0  0  0  0  0  2  0  0  0  0  0  0
  187.2480  177.5820  136.0700 C   0  0  2  0  0  3  0  0  0  0  0  0
  185.7320  177.3990  136.2740 C   0  0  2  0  0  3  0  0  0  0  0  0
  188.0500  176.4440  136.6990 C   0  0  0  0  0  2  0  0  0  0  0  0
  1 11  1  0  0  0  0
  2  7  1  0  0  0  0
  2  3  1  0  0  0  0
  3  9  1  0  0  0  0
  5  4  2  0  0  0  0
  5 16  1  0  0  0  0
  6 13  1  0  0  0  0
  7 17  2  0  0  0  0
  8  1  2  0  0  0  0
  9  6  2  0  0  0  0
 10 14  2  0  0  0  0
 10 15  1  0  0  0  0
 12 22  1  0  0  0  0
 14 19  1  0  0  0  0
 15 21  1  6  0  0  0
 15  2  1  0  0  0  0
 16 10  1  0  0  0  0
 17  1  1  0  0  0  0
 18  6  1  0  0  0  0
 19 20  2  0  0  0  0
 19  7  1  0  0  0  0
 20  8  1  0  0  0  0
 21 12  1  0  0  0  0
 22  3  2  0  0  0  0
 22 23  1  0  0  0  0
 23 18  2  0  0  0  0
 24 28  1  0  0  0  0
 24 31  1  0  0  0  0
 24 27  1  1  0  0  0
 25 30  1  0  0  0  0
 25 28  1  0  0  0  0
 29 30  1  0  0  0  0
 29 26  1  1  0  0  0
 29 31  1  0  0  0  0
 30  5  1  1  0  0  0
M  END
>  <MODEL>
1

>  <REMARK>
 VINA RESULT:      -9.4      0.000      0.000
  Name = 
  1 active torsions:
  status: ('A' for Active; 'I' for Inactive)
    1  A    between atoms: C_5  and  C_30
                            x       y       z     vdW  Elec       q    Type
                         _______ _______ _______ _____ _____    ______ ____

>  <TORSDO>
F 1

$$$$
=
 OpenBabel11122411113D

 31 35  0  0  1  0  0  0  0  0999 V2000
  185.1540  178.8210  145.9970 C   0  0  0  0  0  0  0  0  0  0  0  0
  187.2200  178.4780  142.8680 N   0  0  0  0  0  0  0  0  0  0  0  0
  188.4140  177.7170  143.1830 C   0  0  0  0  0  0  0  0  0  0  0  0
  183.1760  177.5330  139.6450 O   0  0  0  0  0  0  0  0  0  0  0  0
  184.1990  177.7950  138.9600 C   0  0  0  0  0  0  0  0  0  0  0  0
  190.0020  176.8050  144.7850 C   0  0  0  0  0  0  0  0  0  0  0  0
  186.1050  178.5700  143.7780 C   0  0  0  0  0  0  0  0  0  0  0  0
  183.8670  178.6960  145.4630 C   0  0  0  0  0  3  0  0  0  0  0  0
  188.8500  177.5440  144.5060 C   0  0  0  0  0  3  0  0  0  0  0  0
  185.6210  178.4200  140.9920 C   0  0  0  0  0  0  0  0  0  0  0  0
  185.3190  178.9970  147.3300 F   0  0  0  0  0  0  0  0  0  0  0  0
  188.6950  177.2650  140.7300 C   0  0  0  0  0  2  0  0  0  0  0  0
  190.4500  176.6320  146.1920 C   0  0  0  0  0  1  0  0  0  0  0  0
  184.6360  178.2780  141.8340 N   0  0  0  0  0  0  0  0  0  0  0  0
  186.9580  178.9300  141.4850 C   0  0  2  0  0  3  0  0  0  0  0  0
  185.4100  178.2390  139.5860 N   0  0  0  0  0  2  0  0  0  0  0  0
  186.2700  178.7560  145.1580 C   0  0  0  0  0  3  0  0  0  0  0  0
  190.7310  176.2260  143.7440 C   0  0  0  0  0  3  0  0  0  0  0  0
  184.8080  178.4650  143.2450 C   0  0  0  0  0  0  0  0  0  0  0  0
  183.6940  178.5170  144.0880 C   0  0  0  0  0  3  0  0  0  0  0  0
  188.1160  178.6540  140.5150 C   0  0  0  0  0  2  0  0  0  0  0  0
  189.1630  177.1390  142.1400 C   0  0  0  0  0  0  0  0  0  0  0  0
  190.3090  176.3890  142.4230 C   0  0  0  0  0  3  0  0  0  0  0  0
  184.8790  174.8560  136.6870 C   0  0  1  0  0  3  0  0  0  0  0  0
  183.0860  176.5720  137.0740 C   0  0  0  0  0  2  0  0  0  0  0  0
  186.5790  178.2760  137.1990 C   0  0  0  0  0  1  0  0  0  0  0  0
  185.3270  173.4520  137.0300 C   0  0  0  0  0  1  0  0  0  0  0  0
  183.5530  175.1490  137.3850 C   0  0  0  0  0  2  0  0  0  0  0  0
  185.4990  177.2780  136.8190 C   0  0  2  0  0  3  0  0  0  0  0  0
  184.1430  177.6090  137.4690 C   0  0  2  0  0  3  0  0  0  0  0  0
  185.9480  175.8500  137.1300 C   0  0  0  0  0  2  0  0  0  0  0  0
  1 11  1  0  0  0  0
  2  3  1  0  0  0  0
  2  7  1  0  0  0  0
  3  9  1  0  0  0  0
  5 16  1  0  0  0  0
  5  4  2  0  0  0  0
  6 13  1  0  0  0  0
  7 17  1  0  0  0  0
  8  1  1  0  0  0  0
  9  6  2  0  0  0  0
 10 15  1  0  0  0  0
 10 14  2  0  0  0  0
 12 22  1  0  0  0  0
 14 19  1  0  0  0  0
 15 21  1  6  0  0  0
 15  2  1  0  0  0  0
 16 10  1  0  0  0  0
 17  1  2  0  0  0  0
 18  6  1  0  0  0  0
 19  7  2  0  0  0  0
 19 20  1  0  0  0  0
 20  8  2  0  0  0  0
 21 12  1  0  0  0  0
 22 23  1  0  0  0  0
 22  3  2  0  0  0  0
 23 18  2  0  0  0  0
 24 27  1  1  0  0  0
 24 31  1  0  0  0  0
 24 28  1  0  0  0  0
 25 28  1  0  0  0  0
 25 30  1  0  0  0  0
 29 31  1  0  0  0  0
 29 26  1  1  0  0  0
 29 30  1  0  0  0  0
 30  5  1  1  0  0  0
M  END
>  <MODEL>
2

>  <REMARK>
 VINA RESULT:      -9.0      1.385      1.736
  Name = 
  1 active torsions:
  status: ('A' for Active; 'I' for Inactive)
    1  A    between atoms: C_5  and  C_30
                            x       y       z     vdW  Elec       q    Type
                         _______ _______ _______ _____ _____    ______ ____

>  <TORSDO>
F 1

$$$$
=
 OpenBabel11122411113D

 31 35  0  0  1  0  0  0  0  0999 V2000
  181.5650  178.9630  142.9500 C   0  0  0  0  0  0  0  0  0  0  0  0
  185.2570  178.8080  142.2230 N   0  0  0  0  0  0  0  0  0  0  0  0
  185.9430  178.3380  143.4110 C   0  0  0  0  0  0  0  0  0  0  0  0
  184.7760  176.7930  137.3920 O   0  0  0  0  0  0  0  0  0  0  0  0
  185.9540  177.2060  137.5530 C   0  0  0  0  0  0  0  0  0  0  0  0
  186.0120  177.9050  145.8050 C   0  0  0  0  0  0  0  0  0  0  0  0
  183.8220  178.7390  142.0860 C   0  0  0  0  0  0  0  0  0  0  0  0
  181.0490  178.5320  141.7240 C   0  0  0  0  0  3  0  0  0  0  0  0
  185.3310  178.3640  144.6740 C   0  0  0  0  0  3  0  0  0  0  0  0
  185.4620  178.2720  139.8250 C   0  0  0  0  0  0  0  0  0  0  0  0
  180.7250  179.2750  143.9660 F   0  0  0  0  0  0  0  0  0  0  0  0
  187.9130  177.7610  141.9670 C   0  0  0  0  0  2  0  0  0  0  0  0
  185.3490  177.9400  147.1350 C   0  0  0  0  0  1  0  0  0  0  0  0
  184.1890  177.9960  139.7770 N   0  0  0  0  0  0  0  0  0  0  0  0
  186.0060  179.0850  140.9790 C   0  0  2  0  0  3  0  0  0  0  0  0
  186.3230  177.9390  138.7280 N   0  0  0  0  0  2  0  0  0  0  0  0
  182.9470  179.0640  143.1330 C   0  0  0  0  0  3  0  0  0  0  0  0
  187.3120  177.4090  145.6850 C   0  0  0  0  0  3  0  0  0  0  0  0
  183.2970  178.3260  140.8490 C   0  0  0  0  0  0  0  0  0  0  0  0
  181.9140  178.2130  140.6740 C   0  0  0  0  0  3  0  0  0  0  0  0
  187.5300  178.9790  141.1410 C   0  0  0  0  0  2  0  0  0  0  0  0
  187.2580  177.8470  143.3040 C   0  0  0  0  0  0  0  0  0  0  0  0
  187.9320  177.3750  144.4350 C   0  0  0  0  0  3  0  0  0  0  0  0
  189.6940  176.6870  137.6630 C   0  0  1  0  0  3  0  0  0  0  0  0
  187.6510  175.5400  136.7570 C   0  0  0  0  0  2  0  0  0  0  0  0
  187.4220  179.3600  136.0670 C   0  0  0  0  0  1  0  0  0  0  0  0
  190.6440  176.7510  138.8390 C   0  0  0  0  0  1  0  0  0  0  0  0
  188.6410  175.6120  137.9210 C   0  0  0  0  0  2  0  0  0  0  0  0
  188.0450  177.9950  136.3080 C   0  0  2  0  0  3  0  0  0  0  0  0
  186.9840  176.8950  136.5020 C   0  0  2  0  0  3  0  0  0  0  0  0
  189.0320  178.0490  137.4740 C   0  0  0  0  0  2  0  0  0  0  0  0
  1 17  1  0  0  0  0
  1 11  1  0  0  0  0
  2  3  1  0  0  0  0
  3  9  1  0  0  0  0
  4  5  2  0  0  0  0
  5 16  1  0  0  0  0
  6 13  1  0  0  0  0
  7  2  1  0  0  0  0
  7 17  2  0  0  0  0
  8  1  2  0  0  0  0
  9  6  2  0  0  0  0
 10 15  1  0  0  0  0
 12 22  1  0  0  0  0
 14 10  2  0  0  0  0
 14 19  1  0  0  0  0
 15 21  1  1  0  0  0
 15  2  1  0  0  0  0
 16 10  1  0  0  0  0
 18  6  1  0  0  0  0
 19  7  1  0  0  0  0
 20 19  2  0  0  0  0
 20  8  1  0  0  0  0
 21 12  1  0  0  0  0
 22  3  2  0  0  0  0
 22 23  1  0  0  0  0
 23 18  2  0  0  0  0
 24 28  1  0  0  0  0
 24 27  1  1  0  0  0
 25 28  1  0  0  0  0
 29 26  1  1  0  0  0
 29 30  1  0  0  0  0
 29 31  1  0  0  0  0
 30 25  1  0  0  0  0
 30  5  1  1  0  0  0
 31 24  1  0  0  0  0
M  END
>  <MODEL>
3

>  <REMARK>
 VINA RESULT:      -8.8      1.491      2.158
  Name = 
  1 active torsions:
  status: ('A' for Active; 'I' for Inactive)
    1  A    between atoms: C_5  and  C_30
                            x       y       z     vdW  Elec       q    Type
                         _______ _______ _______ _____ _____    ______ ____

>  <TORSDO>
F 1

$$$$
=
 OpenBabel11122411113D

 31 35  0  0  1  0  0  0  0  0999 V2000
  189.2880  177.5550  141.9000 C   0  0  0  0  0  0  0  0  0  0  0  0
  185.6460  177.8640  142.8080 N   0  0  0  0  0  0  0  0  0  0  0  0
  185.5460  178.1690  144.2220 C   0  0  0  0  0  0  0  0  0  0  0  0
  184.2390  180.5420  138.5080 O   0  0  0  0  0  0  0  0  0  0  0  0
  183.2050  180.1270  139.0940 C   0  0  0  0  0  0  0  0  0  0  0  0
  186.5000  178.2560  146.4590 C   0  0  0  0  0  0  0  0  0  0  0  0
  186.8970  177.9320  142.0930 C   0  0  0  0  0  0  0  0  0  0  0  0
  189.2820  178.1490  140.6340 C   0  0  0  0  0  3  0  0  0  0  0  0
  186.6190  177.9540  145.1000 C   0  0  0  0  0  3  0  0  0  0  0  0
  184.5110  178.7400  140.8020 C   0  0  0  0  0  0  0  0  0  0  0  0
  190.4470  177.0900  142.4240 F   0  0  0  0  0  0  0  0  0  0  0  0
  183.2040  178.9740  143.8170 C   0  0  0  0  0  2  0  0  0  0  0  0
  187.6460  178.0220  147.3750 C   0  0  0  0  0  1  0  0  0  0  0  0
  185.6670  179.0030  140.2600 N   0  0  0  0  0  0  0  0  0  0  0  0
  184.4330  177.7780  141.9670 C   0  0  2  0  0  3  0  0  0  0  0  0
  183.3010  179.2380  140.2150 N   0  0  0  0  0  2  0  0  0  0  0  0
  188.1000  177.4480  142.6290 C   0  0  0  0  0  3  0  0  0  0  0  0
  185.3060  178.7820  146.9560 C   0  0  0  0  0  3  0  0  0  0  0  0
  186.8960  178.5100  140.8120 C   0  0  0  0  0  0  0  0  0  0  0  0
  188.0870  178.6280  140.0910 C   0  0  0  0  0  3  0  0  0  0  0  0
  183.1230  177.8820  142.7620 C   0  0  0  0  0  2  0  0  0  0  0  0
  184.3420  178.6890  144.7360 C   0  0  0  0  0  0  0  0  0  0  0  0
  184.2290  179.0030  146.0930 C   0  0  0  0  0  3  0  0  0  0  0  0
  179.6630  179.0620  139.8620 C   0  0  1  0  0  3  0  0  0  0  0  0
  181.0270  181.1700  139.7700 C   0  0  0  0  0  2  0  0  0  0  0  0
  181.8530  178.9390  136.6930 C   0  0  0  0  0  1  0  0  0  0  0  0
  179.1610  177.9660  140.7760 C   0  0  0  0  0  1  0  0  0  0  0  0
  180.4850  180.0610  140.6730 C   0  0  0  0  0  2  0  0  0  0  0  0
  181.0560  179.5410  137.8370 C   0  0  2  0  0  3  0  0  0  0  0  0
  181.8590  180.5990  138.6170 C   0  0  2  0  0  3  0  0  0  0  0  0
  180.5130  178.4450  138.7540 C   0  0  0  0  0  2  0  0  0  0  0  0
  1 11  1  0  0  0  0
  1 17  1  0  0  0  0
  2  3  1  0  0  0  0
  3 22  2  0  0  0  0
  3  9  1  0  0  0  0
  4  5  2  0  0  0  0
  5 16  1  0  0  0  0
  6 18  1  0  0  0  0
  6 13  1  0  0  0  0
  7 17  2  0  0  0  0
  7  2  1  0  0  0  0
  8  1  2  0  0  0  0
  9  6  2  0  0  0  0
 10 15  1  0  0  0  0
 12 22  1  0  0  0  0
 14 10  2  0  0  0  0
 14 19  1  0  0  0  0
 15 21  1  1  0  0  0
 15  2  1  0  0  0  0
 16 10  1  0  0  0  0
 19  7  1  0  0  0  0
 20  8  1  0  0  0  0
 20 19  2  0  0  0  0
 21 12  1  0  0  0  0
 22 23  1  0  0  0  0
 23 18  2  0  0  0  0
 24 28  1  0  0  0  0
 24 27  1  1  0  0  0
 25 28  1  0  0  0  0
 29 26  1  6  0  0  0
 29 30  1  0  0  0  0
 29 31  1  0  0  0  0
 30  5  1  1  0  0  0
 30 25  1  0  0  0  0
 31 24  1  0  0  0  0
M  END
>  <MODEL>
4

>  <REMARK>
 VINA RESULT:      -8.8      3.117      5.638
  Name = 
  1 active torsions:
  status: ('A' for Active; 'I' for Inactive)
    1  A    between atoms: C_5  and  C_30
                            x       y       z     vdW  Elec       q    Type
                         _______ _______ _______ _____ _____    ______ ____

>  <TORSDO>
F 1

$$$$
=
 OpenBabel11122411113D

 31 35  0  0  1  0  0  0  0  0999 V2000
  184.3230  178.6260  144.4360 C   0  0  0  0  0  0  0  0  0  0  0  0
  188.0280  178.5440  143.7640 N   0  0  0  0  0  0  0  0  0  0  0  0
  188.6840  177.8780  144.8720 C   0  0  0  0  0  0  0  0  0  0  0  0
  187.6280  177.3510  138.6600 O   0  0  0  0  0  0  0  0  0  0  0  0
  188.8070  177.7170  138.9080 C   0  0  0  0  0  0  0  0  0  0  0  0
  188.7000  177.0600  147.1640 C   0  0  0  0  0  0  0  0  0  0  0  0
  186.5960  178.5170  143.5890 C   0  0  0  0  0  0  0  0  0  0  0  0
  183.8290  178.4080  143.1460 C   0  0  0  0  0  3  0  0  0  0  0  0
  188.0470  177.7060  146.1100 C   0  0  0  0  0  3  0  0  0  0  0  0
  188.2780  178.4040  141.3150 C   0  0  0  0  0  0  0  0  0  0  0  0
  183.4650  178.7780  145.4720 F   0  0  0  0  0  0  0  0  0  0  0  0
  190.6780  177.5200  143.3910 C   0  0  0  0  0  2  0  0  0  0  0  0
  188.0100  176.8860  148.4690 C   0  0  0  0  0  1  0  0  0  0  0  0
  187.0030  178.1560  141.1970 N   0  0  0  0  0  0  0  0  0  0  0  0
  188.8060  179.0110  142.5960 C   0  0  2  0  0  3  0  0  0  0  0  0
  189.1580  178.2440  140.1950 N   0  0  0  0  0  2  0  0  0  0  0  0
  185.7020  178.6780  144.6590 C   0  0  0  0  0  3  0  0  0  0  0  0
  189.9970  176.5730  146.9890 C   0  0  0  0  0  3  0  0  0  0  0  0
  186.0920  178.3180  142.2920 C   0  0  0  0  0  0  0  0  0  0  0  0
  184.7130  178.2520  142.0750 C   0  0  0  0  0  3  0  0  0  0  0  0
  190.3240  178.8600  142.7670 C   0  0  0  0  0  2  0  0  0  0  0  0
  189.9970  177.3940  144.7110 C   0  0  0  0  0  0  0  0  0  0  0  0
  190.6430  176.7360  145.7620 C   0  0  0  0  0  3  0  0  0  0  0  0
  189.9410  174.8130  136.7760 C   0  0  1  0  0  3  0  0  0  0  0  0
  189.2300  177.2050  136.4900 C   0  0  0  0  0  2  0  0  0  0  0  0
  191.6260  176.9060  139.5380 C   0  0  0  0  0  1  0  0  0  0  0  0
  189.4560  173.3790  136.7590 C   0  0  0  0  0  1  0  0  0  0  0  0
  188.7740  175.7450  136.4570 C   0  0  0  0  0  2  0  0  0  0  0  0
  190.9890  176.5880  138.1960 C   0  0  2  0  0  3  0  0  0  0  0  0
  189.8550  177.5690  137.8400 C   0  0  2  0  0  3  0  0  0  0  0  0
  190.5210  175.1340  138.1500 C   0  0  0  0  0  2  0  0  0  0  0  0
  1 17  1  0  0  0  0
  1 11  1  0  0  0  0
  2  3  1  0  0  0  0
  3  9  1  0  0  0  0
  4  5  2  0  0  0  0
  5 16  1  0  0  0  0
  6 13  1  0  0  0  0
  7  2  1  0  0  0  0
  7 17  2  0  0  0  0
  8  1  2  0  0  0  0
  9  6  2  0  0  0  0
 10 15  1  0  0  0  0
 12 22  1  0  0  0  0
 14 10  2  0  0  0  0
 14 19  1  0  0  0  0
 15 21  1  1  0  0  0
 15  2  1  0  0  0  0
 16 10  1  0  0  0  0
 18  6  1  0  0  0  0
 19  7  1  0  0  0  0
 20 19  2  0  0  0  0
 20  8  1  0  0  0  0
 21 12  1  0  0  0  0
 22  3  2  0  0  0  0
 22 23  1  0  0  0  0
 23 18  2  0  0  0  0
 24 27  1  1  0  0  0
 24 31  1  0  0  0  0
 25 30  1  0  0  0  0
 28 25  1  0  0  0  0
 28 24  1  0  0  0  0
 29 26  1  1  0  0  0
 30 29  1  0  0  0  0
 30  5  1  1  0  0  0
 31 29  1  0  0  0  0
M  END
>  <MODEL>
5

>  <REMARK>
 VINA RESULT:      -8.7      1.917      2.764
  Name = 
  1 active torsions:
  status: ('A' for Active; 'I' for Inactive)
    1  A    between atoms: C_5  and  C_30
                            x       y       z     vdW  Elec       q    Type
                         _______ _______ _______ _____ _____    ______ ____

>  <TORSDO>
F 1

$$$$
=
 OpenBabel11122411113D

 31 35  0  0  1  0  0  0  0  0999 V2000
  186.6300  178.2660  147.1850 C   0  0  0  0  0  0  0  0  0  0  0  0
  187.7950  178.3400  143.6040 N   0  0  0  0  0  0  0  0  0  0  0  0
  188.9910  177.5270  143.4900 C   0  0  0  0  0  0  0  0  0  0  0  0
  183.0120  177.9100  141.4660 O   0  0  0  0  0  0  0  0  0  0  0  0
  183.8340  178.2530  140.5760 C   0  0  0  0  0  0  0  0  0  0  0  0
  190.8930  176.3780  144.4820 C   0  0  0  0  0  0  0  0  0  0  0  0
  186.9590  178.3180  144.7800 C   0  0  0  0  0  0  0  0  0  0  0  0
  185.2440  178.2350  146.9970 C   0  0  0  0  0  3  0  0  0  0  0  0
  189.7450  177.1640  144.6160 C   0  0  0  0  0  3  0  0  0  0  0  0
  185.7640  178.5680  142.2260 C   0  0  0  0  0  0  0  0  0  0  0  0
  187.1430  178.2510  148.4380 F   0  0  0  0  0  0  0  0  0  0  0  0
  188.6040  177.4210  141.0130 C   0  0  0  0  0  2  0  0  0  0  0  0
  191.6800  176.0030  145.6850 C   0  0  0  0  0  1  0  0  0  0  0  0
  185.0250  178.3210  143.2710 N   0  0  0  0  0  0  0  0  0  0  0  0
  187.2060  178.9860  142.4120 C   0  0  2  0  0  3  0  0  0  0  0  0
  185.1870  178.5880  140.9140 N   0  0  0  0  0  2  0  0  0  0  0  0
  187.4860  178.3050  146.0800 C   0  0  0  0  0  3  0  0  0  0  0  0
  191.2980  175.9420  143.2180 C   0  0  0  0  0  3  0  0  0  0  0  0
  185.5660  178.3060  144.5990 C   0  0  0  0  0  0  0  0  0  0  0  0
  184.7120  178.2530  145.7050 C   0  0  0  0  0  3  0  0  0  0  0  0
  188.0580  178.8340  141.1440 C   0  0  0  0  0  2  0  0  0  0  0  0
  189.4140  177.0910  142.2200 C   0  0  0  0  0  0  0  0  0  0  0  0
  190.5560  176.2950  142.0890 C   0  0  0  0  0  3  0  0  0  0  0  0
  180.5340  179.0250  138.9100 C   0  0  1  0  0  3  0  0  0  0  0  0
  182.9490  179.6870  138.7180 C   0  0  0  0  0  2  0  0  0  0  0  0
  182.6800  175.8400  139.2180 C   0  0  0  0  0  1  0  0  0  0  0  0
  179.2040  179.4020  139.5270 C   0  0  0  0  0  1  0  0  0  0  0  0
  181.5880  180.0550  139.3100 C   0  0  0  0  0  2  0  0  0  0  0  0
  182.2930  177.2480  138.8000 C   0  0  2  0  0  3  0  0  0  0  0  0
  183.3840  178.2800  139.1410 C   0  0  2  0  0  3  0  0  0  0  0  0
  180.9370  177.6340  139.3890 C   0  0  0  0  0  2  0  0  0  0  0  0
  1 11  1  0  0  0  0
  2  7  1  0  0  0  0
  3  2  1  0  0  0  0
  3  9  1  0  0  0  0
  5 16  1  0  0  0  0
  5  4  2  0  0  0  0
  6  9  2  0  0  0  0
  6 13  1  0  0  0  0
  7 17  1  0  0  0  0
  8  1  1  0  0  0  0
 10 15  1  0  0  0  0
 10 14  2  0  0  0  0
 12 21  1  0  0  0  0
 12 22  1  0  0  0  0
 14 19  1  0  0  0  0
 15 21  1  6  0  0  0
 15  2  1  0  0  0  0
 16 10  1  0  0  0  0
 17  1  2  0  0  0  0
 18  6  1  0  0  0  0
 19  7  2  0  0  0  0
 19 20  1  0  0  0  0
 20  8  2  0  0  0  0
 22  3  2  0  0  0  0
 23 22  1  0  0  0  0
 23 18  2  0  0  0  0
 24 28  1  0  0  0  0
 24 31  1  0  0  0  0
 24 27  1  1  0  0  0
 25 30  1  0  0  0  0
 25 28  1  0  0  0  0
 29 30  1  0  0  0  0
 29 26  1  1  0  0  0
 29 31  1  0  0  0  0
 30  5  1  1  0  0  0
M  END
>  <MODEL>
6

>  <REMARK>
 VINA RESULT:      -8.7      2.926      4.402
  Name = 
  1 active torsions:
  status: ('A' for Active; 'I' for Inactive)
    1  A    between atoms: C_5  and  C_30
                            x       y       z     vdW  Elec       q    Type
                         _______ _______ _______ _____ _____    ______ ____

>  <TORSDO>
F 1

$$$$
=
 OpenBabel11122411113D

 31 35  0  0  1  0  0  0  0  0999 V2000
  180.7770  178.8200  143.2960 C   0  0  0  0  0  0  0  0  0  0  0  0
  184.3280  178.8410  142.0430 N   0  0  0  0  0  0  0  0  0  0  0  0
  185.2060  178.4670  143.1350 C   0  0  0  0  0  0  0  0  0  0  0  0
  183.2860  176.5800  137.4130 O   0  0  0  0  0  0  0  0  0  0  0  0
  184.4470  177.0670  137.3850 C   0  0  0  0  0  0  0  0  0  0  0  0
  185.6450  178.1500  145.5080 C   0  0  0  0  0  0  0  0  0  0  0  0
  182.8960  178.6850  142.1200 C   0  0  0  0  0  0  0  0  0  0  0  0
  180.1180  178.3050  142.1750 C   0  0  0  0  0  3  0  0  0  0  0  0
  184.7820  178.5170  144.4720 C   0  0  0  0  0  3  0  0  0  0  0  0
  184.2200  178.2070  139.6630 C   0  0  0  0  0  0  0  0  0  0  0  0
  180.0730  179.1310  144.4100 F   0  0  0  0  0  0  0  0  0  0  0  0
  186.9800  177.9360  141.4420 C   0  0  0  0  0  2  0  0  0  0  0  0
  185.1800  178.2100  146.9180 C   0  0  0  0  0  1  0  0  0  0  0  0
  182.9740  177.8570  139.8110 N   0  0  0  0  0  0  0  0  0  0  0  0
  184.8730  179.1020  140.6930 C   0  0  2  0  0  3  0  0  0  0  0  0
  184.9340  177.8730  138.4650 N   0  0  0  0  0  2  0  0  0  0  0  0
  182.1620  179.0080  143.2700 C   0  0  0  0  0  3  0  0  0  0  0  0
  186.9430  177.7230  145.2180 C   0  0  0  0  0  3  0  0  0  0  0  0
  182.2250  178.1860  140.9900 C   0  0  0  0  0  0  0  0  0  0  0  0
  180.8420  177.9860  141.0230 C   0  0  0  0  0  3  0  0  0  0  0  0
  186.4070  179.0900  140.6350 C   0  0  0  0  0  2  0  0  0  0  0  0
  186.5210  178.0470  142.8550 C   0  0  0  0  0  0  0  0  0  0  0  0
  187.3780  177.6670  143.8920 C   0  0  0  0  0  3  0  0  0  0  0  0
  186.3530  173.9930  136.2930 C   0  0  1  0  0  3  0  0  0  0  0  0
  184.7390  175.6600  135.3290 C   0  0  0  0  0  2  0  0  0  0  0  0
  187.4130  177.5090  137.4620 C   0  0  0  0  0  1  0  0  0  0  0  0
  186.4650  172.6390  136.9580 C   0  0  0  0  0  1  0  0  0  0  0  0
  184.8860  174.2850  135.9820 C   0  0  0  0  0  2  0  0  0  0  0  0
  186.7920  176.4410  136.5780 C   0  0  2  0  0  3  0  0  0  0  0  0
  185.3330  176.7660  136.2070 C   0  0  2  0  0  3  0  0  0  0  0  0
  186.9250  175.0610  137.2200 C   0  0  0  0  0  2  0  0  0  0  0  0
  1 11  1  0  0  0  0
  2  7  1  0  0  0  0
  2  3  1  0  0  0  0
  3  9  1  0  0  0  0
  5  4  2  0  0  0  0
  5 16  1  0  0  0  0
  6 13  1  0  0  0  0
  7 17  2  0  0  0  0
  8  1  2  0  0  0  0
  9  6  2  0  0  0  0
 10 14  2  0  0  0  0
 10 15  1  0  0  0  0
 12 22  1  0  0  0  0
 14 19  1  0  0  0  0
 15 21  1  1  0  0  0
 15  2  1  0  0  0  0
 16 10  1  0  0  0  0
 17  1  1  0  0  0  0
 18  6  1  0  0  0  0
 19 20  2  0  0  0  0
 19  7  1  0  0  0  0
 20  8  1  0  0  0  0
 21 12  1  0  0  0  0
 22  3  2  0  0  0  0
 22 23  1  0  0  0  0
 23 18  2  0  0  0  0
 24 27  1  1  0  0  0
 24 31  1  0  0  0  0
 25 28  1  0  0  0  0
 25 30  1  0  0  0  0
 28 24  1  0  0  0  0
 29 31  1  0  0  0  0
 29 26  1  1  0  0  0
 30 29  1  0  0  0  0
 30  5  1  1  0  0  0
M  END
>  <MODEL>
7

>  <REMARK>
 VINA RESULT:      -8.5      1.632      2.349
  Name = 
  1 active torsions:
  status: ('A' for Active; 'I' for Inactive)
    1  A    between atoms: C_5  and  C_30
                            x       y       z     vdW  Elec       q    Type
                         _______ _______ _______ _____ _____    ______ ____

>  <TORSDO>
F 1

$$$$
=
 OpenBabel11122411113D

 31 35  0  0  1  0  0  0  0  0999 V2000
  191.3840  176.4510  144.5100 C   0  0  0  0  0  0  0  0  0  0  0  0
  187.7070  177.2410  144.3200 N   0  0  0  0  0  0  0  0  0  0  0  0
  187.3100  177.8970  145.5510 C   0  0  0  0  0  0  0  0  0  0  0  0
  187.7530  178.8510  139.3160 O   0  0  0  0  0  0  0  0  0  0  0  0
  186.5620  178.6720  139.6820 C   0  0  0  0  0  0  0  0  0  0  0  0
  187.6990  178.4730  147.8840 C   0  0  0  0  0  0  0  0  0  0  0  0
  189.0910  177.0370  143.9690 C   0  0  0  0  0  0  0  0  0  0  0  0
  191.7640  176.7080  143.1890 C   0  0  0  0  0  3  0  0  0  0  0  0
  188.1010  177.8310  146.7090 C   0  0  0  0  0  3  0  0  0  0  0  0
  187.2180  177.6670  141.9410 C   0  0  0  0  0  0  0  0  0  0  0  0
  192.3080  176.0490  145.4140 F   0  0  0  0  0  0  0  0  0  0  0  0
  185.2660  178.7430  144.3670 C   0  0  0  0  0  2  0  0  0  0  0  0
  188.5490  178.3930  149.1000 C   0  0  0  0  0  1  0  0  0  0  0  0
  188.4950  177.7000  141.6830 N   0  0  0  0  0  0  0  0  0  0  0  0
  186.7320  177.0360  143.2270 C   0  0  2  0  0  3  0  0  0  0  0  0
  186.2640  178.0880  140.9570 N   0  0  0  0  0  2  0  0  0  0  0  0
  190.0520  176.6170  144.9010 C   0  0  0  0  0  3  0  0  0  0  0  0
  186.5030  179.1920  147.9130 C   0  0  0  0  0  3  0  0  0  0  0  0
  189.4760  177.2740  142.6380 C   0  0  0  0  0  0  0  0  0  0  0  0
  190.8110  177.1200  142.2530 C   0  0  0  0  0  3  0  0  0  0  0  0
  185.2950  177.4300  143.6000 C   0  0  0  0  0  2  0  0  0  0  0  0
  186.1000  178.6150  145.5960 C   0  0  0  0  0  0  0  0  0  0  0  0
  185.7060  179.2670  146.7680 C   0  0  0  0  0  3  0  0  0  0  0  0
  183.1520  177.2490  138.8980 C   0  0  1  0  0  3  0  0  0  0  0  0
  184.1790  179.4440  139.5610 C   0  0  0  0  0  2  0  0  0  0  0  0
  186.3700  177.7410  136.8370 C   0  0  0  0  0  1  0  0  0  0  0  0
  182.4810  176.0000  139.4280 C   0  0  0  0  0  1  0  0  0  0  0  0
  183.4780  178.1810  140.0630 C   0  0  0  0  0  2  0  0  0  0  0  0
  185.1330  178.1130  137.6360 C   0  0  2  0  0  3  0  0  0  0  0  0
  185.4480  179.1060  138.7710 C   0  0  2  0  0  3  0  0  0  0  0  0
  184.4250  176.8610  138.1520 C   0  0  0  0  0  2  0  0  0  0  0  0
  1 17  1  0  0  0  0
  1 11  1  0  0  0  0
  2  3  1  0  0  0  0
  3 22  2  0  0  0  0
  3  9  1  0  0  0  0
  4  5  2  0  0  0  0
  5 16  1  0  0  0  0
  6 18  1  0  0  0  0
  6 13  1  0  0  0  0
  7  2  1  0  0  0  0
  7 17  2  0  0  0  0
  8  1  2  0  0  0  0
  9  6  2  0  0  0  0
 10 15  1  0  0  0  0
 12 22  1  0  0  0  0
 14 10  2  0  0  0  0
 14 19  1  0  0  0  0
 15 21  1  1  0  0  0
 15  2  1  0  0  0  0
 16 10  1  0  0  0  0
 19  7  1  0  0  0  0
 20 19  2  0  0  0  0
 20  8  1  0  0  0  0
 21 12  1  0  0  0  0
 22 23  1  0  0  0  0
 23 18  2  0  0  0  0
 24 27  1  1  0  0  0
 24 28  1  0  0  0  0
 25 28  1  0  0  0  0
 29 26  1  1  0  0  0
 29 31  1  0  0  0  0
 29 30  1  0  0  0  0
 30 25  1  0  0  0  0
 30  5  1  1  0  0  0
 31 24  1  0  0  0  0
M  END
>  <MODEL>
8

>  <REMARK>
 VINA RESULT:      -8.3      2.588      5.035
  Name = 
  1 active torsions:
  status: ('A' for Active; 'I' for Inactive)
    1  A    between atoms: C_5  and  C_30
                            x       y       z     vdW  Elec       q    Type
                         _______ _______ _______ _____ _____    ______ ____

>  <TORSDO>
F 1

$$$$
=
 OpenBabel11122411113D

 31 35  0  0  1  0  0  0  0  0999 V2000
  191.0170  176.8600  142.5550 C   0  0  0  0  0  0  0  0  0  0  0  0
  189.8770  177.7660  139.0820 N   0  0  0  0  0  0  0  0  0  0  0  0
  190.6210  176.9660  138.1280 C   0  0  0  0  0  0  0  0  0  0  0  0
  184.7570  178.0300  140.2410 O   0  0  0  0  0  0  0  0  0  0  0  0
  184.9530  178.5520  139.1120 C   0  0  0  0  0  0  0  0  0  0  0  0
  192.5100  175.5470  137.5460 C   0  0  0  0  0  0  0  0  0  0  0  0
  189.8920  177.4860  140.4970 C   0  0  0  0  0  0  0  0  0  0  0  0
  189.8010  176.9210  143.2420 C   0  0  0  0  0  3  0  0  0  0  0  0
  191.8120  176.3140  138.4820 C   0  0  0  0  0  3  0  0  0  0  0  0
  187.5000  178.3910  139.2810 C   0  0  0  0  0  0  0  0  0  0  0  0
  192.1510  176.5230  143.2140 F   0  0  0  0  0  0  0  0  0  0  0  0
  188.8560  177.4800  136.4190 C   0  0  0  0  0  2  0  0  0  0  0  0
  193.7710  174.8640  137.9380 C   0  0  0  0  0  1  0  0  0  0  0  0
  187.4770  177.9210  140.4970 N   0  0  0  0  0  0  0  0  0  0  0  0
  188.8280  178.7020  138.6250 C   0  0  2  0  0  3  0  0  0  0  0  0
  186.2830  178.7500  138.6150 N   0  0  0  0  0  2  0  0  0  0  0  0
  191.0630  177.1390  141.1860 C   0  0  0  0  0  3  0  0  0  0  0  0
  192.0230  175.4190  136.2440 C   0  0  0  0  0  3  0  0  0  0  0  0
  188.6760  177.5640  141.1980 C   0  0  0  0  0  0  0  0  0  0  0  0
  188.6300  177.2720  142.5640 C   0  0  0  0  0  3  0  0  0  0  0  0
  188.7430  178.8360  137.0980 C   0  0  0  0  0  2  0  0  0  0  0  0
  190.1440  176.8400  136.8090 C   0  0  0  0  0  0  0  0  0  0  0  0
  190.8380  176.0610  135.8770 C   0  0  0  0  0  3  0  0  0  0  0  0
  181.2410  177.9280  139.4270 C   0  0  1  0  0  3  0  0  0  0  0  0
  182.8100  179.8530  139.0520 C   0  0  0  0  0  2  0  0  0  0  0  0
  183.9230  176.8170  136.8920 C   0  0  0  0  0  1  0  0  0  0  0  0
  180.4770  177.1560  140.4820 C   0  0  0  0  0  1  0  0  0  0  0  0
  182.0080  179.0690  140.0920 C   0  0  0  0  0  2  0  0  0  0  0  0
  183.0050  177.7540  137.6600 C   0  0  2  0  0  3  0  0  0  0  0  0
  183.7670  178.9430  138.2750 C   0  0  2  0  0  3  0  0  0  0  0  0
  182.2020  176.9850  138.7080 C   0  0  0  0  0  2  0  0  0  0  0  0
  1 11  1  0  0  0  0
  1  8  1  0  0  0  0
  2  7  1  0  0  0  0
  3  9  1  0  0  0  0
  3  2  1  0  0  0  0
  5  4  2  0  0  0  0
  6 13  1  0  0  0  0
  6  9  2  0  0  0  0
  7 17  1  0  0  0  0
  7 19  2  0  0  0  0
 10 14  2  0  0  0  0
 12 22  1  0  0  0  0
 12 21  1  0  0  0  0
 14 19  1  0  0  0  0
 15 21  1  6  0  0  0
 15  2  1  0  0  0  0
 15 10  1  0  0  0  0
 16  5  1  0  0  0  0
 16 10  1  0  0  0  0
 17  1  2  0  0  0  0
 18  6  1  0  0  0  0
 19 20  1  0  0  0  0
 20  8  2  0  0  0  0
 22  3  2  0  0  0  0
 23 18  2  0  0  0  0
 23 22  1  0  0  0  0
 24 28  1  0  0  0  0
 24 27  1  1  0  0  0
 25 28  1  0  0  0  0
 29 26  1  1  0  0  0
 29 30  1  0  0  0  0
 29 31  1  0  0  0  0
 30 25  1  0  0  0  0
 30  5  1  1  0  0  0
 31 24  1  0  0  0  0
M  END
>  <MODEL>
9

>  <REMARK>
 VINA RESULT:      -8.2      3.134      6.138
  Name = 
  1 active torsions:
  status: ('A' for Active; 'I' for Inactive)
    1  A    between atoms: C_5  and  C_30
                            x       y       z     vdW  Elec       q    Type
                         _______ _______ _______ _____ _____    ______ ____

>  <TORSDO>
F 1

$$$$
