=
 OpenBabel11122410443D

 32 37  0  0  1  0  0  0  0  0999 V2000
  187.6300  178.6360  136.6500 C   0  0  0  0  0  2  0  0  0  0  0  0
  187.8780  177.9370  141.7840 C   0  0  0  0  0  0  0  0  0  0  0  0
  183.2020  178.7680  143.4230 C   0  0  0  0  0  2  0  0  0  0  0  0
  183.8060  179.2740  144.7180 C   0  0  0  0  0  2  0  0  0  0  0  0
  189.7810  177.3880  143.5170 C   0  0  2  0  0  3  0  0  0  0  0  0
  190.0270  177.5920  145.0010 C   0  0  2  0  0  3  0  0  0  0  0  0
  188.3270  177.9930  139.4170 N   0  0  0  0  0  0  0  0  0  0  0  0
  185.9800  178.1780  140.1490 C   0  0  0  0  0  2  0  0  0  0  0  0
  189.5550  176.9520  147.1260 C   0  0  0  0  0  0  0  0  0  0  0  0
  186.5730  178.2530  137.6990 C   0  0  2  0  0  3  0  0  0  0  0  0
  184.1950  179.0070  142.2950 C   0  0  0  0  0  2  0  0  0  0  0  0
  186.5050  178.2800  141.5150 N   0  0  0  0  0  0  0  0  0  0  0  0
  185.5850  178.4900  142.6040 C   0  0  0  0  0  0  0  0  0  0  0  0
  187.3830  177.8780  144.1810 C   0  0  0  0  0  0  0  0  0  0  0  0
  190.9690  177.1090  147.0800 N   0  0  0  0  0  2  0  0  0  0  0  0
  189.0550  178.7680  137.2020 C   0  0  0  0  0  2  0  0  0  0  0  0
  187.0260  178.6080  139.1230 C   0  0  2  0  0  3  0  0  0  0  0  0
  191.3410  177.2190  145.6720 C   0  0  0  0  0  2  0  0  0  0  0  0
  189.3180  177.8050  138.3580 C   0  0  0  0  0  2  0  0  0  0  0  0
  185.0360  178.4380  145.0440 C   0  0  0  0  0  2  0  0  0  0  0  0
  185.9970  178.3170  143.8830 C   0  0  0  0  0  0  0  0  0  0  0  0
  187.7340  177.5810  145.5520 N   0  0  0  0  0  2  0  0  0  0  0  0
  188.7340  177.7740  140.7700 C   0  0  0  0  0  3  0  0  0  0  0  0
  190.6640  178.2060  142.8080 O   0  0  0  0  0  1  0  0  0  0  0  0
  188.9120  176.8160  148.1990 O   0  0  0  0  0  0  0  0  0  0  0  0
  188.3200  177.7610  143.1910 C   0  0  0  0  0  0  0  0  0  0  0  0
  188.9760  176.8670  145.7750 C   0  0  1  0  0  3  0  0  0  0  0  0
  186.3050  176.8830  137.6010 O   0  0  0  0  0  0  0  0  0  0  0  0
  185.1860  176.7930  136.7680 C   0  0  0  0  0  2  0  0  0  0  0  0
  183.9890  176.4360  137.5760 C   0  0  0  0  0  0  0  0  0  0  0  0
  183.7700  175.0800  137.9480 N   0  0  0  0  0  1  0  0  0  0  0  0
  182.8060  177.5370  137.8020 S   0  0  0  0  0  0  0  0  0  0  0  0
  1 16  1  0  0  0  0
  1 10  1  0  0  0  0
  2 26  1  0  0  0  0
  3  4  1  0  0  0  0
  4 20  1  0  0  0  0
  5 24  1  6  0  0  0
  5  6  1  0  0  0  0
  6 18  1  1  0  0  0
  6 27  1  0  0  0  0
  7 23  1  0  0  0  0
  8 12  1  0  0  0  0
  9 25  2  0  0  0  0
 10 28  1  1  0  0  0
 10 17  1  0  0  0  0
 11 13  1  0  0  0  0
 11  3  1  0  0  0  0
 12  2  1  0  0  0  0
 12 13  1  0  0  0  0
 13 21  2  0  0  0  0
 14 22  1  0  0  0  0
 15  9  1  0  0  0  0
 16 19  1  0  0  0  0
 17  7  1  0  0  0  0
 17  8  1  1  0  0  0
 18 15  1  0  0  0  0
 19  7  1  0  0  0  0
 21 14  1  0  0  0  0
 21 20  1  0  0  0  0
 23  2  2  0  0  0  0
 26  5  1  0  0  0  0
 26 14  2  0  0  0  0
 27 22  1  1  0  0  0
 27  9  1  0  0  0  0
 29 30  1  0  0  0  0
 29 28  1  0  0  0  0
 30 32  2  0  0  0  0
 30 31  1  0  0  0  0
M  END
>  <MODEL>
1

>  <REMARK>
 VINA RESULT:      -9.1      0.000      0.000
  Name = 
  3 active torsions:
  status: ('A' for Active; 'I' for Inactive)
    1  A    between atoms: C_10  and  O_20
    2  A    between atoms: O_20  and  C_29
    3  A    between atoms: C_29  and  C_30
                            x       y       z     vdW  Elec       q    Type
                         _______ _______ _______ _____ _____    ______ ____

>  <TORSDO>
F 3

$$$$
=
 OpenBabel11122410443D

 32 37  0  0  1  0  0  0  0  0999 V2000
  181.6080  179.6830  139.4760 C   0  0  0  0  0  2  0  0  0  0  0  0
  185.9500  178.2740  141.9370 C   0  0  0  0  0  0  0  0  0  0  0  0
  184.7100  178.2220  146.8060 C   0  0  0  0  0  2  0  0  0  0  0  0
  186.1420  178.6070  147.1170 C   0  0  0  0  0  2  0  0  0  0  0  0
  188.4250  177.7340  141.2250 C   0  0  2  0  0  3  0  0  0  0  0  0
  189.7980  177.7470  141.8720 C   0  0  2  0  0  3  0  0  0  0  0  0
  184.2520  178.7390  140.2910 N   0  0  0  0  0  0  0  0  0  0  0  0
  183.5440  178.4980  142.6410 C   0  0  0  0  0  2  0  0  0  0  0  0
  191.2550  176.7430  143.2930 C   0  0  0  0  0  0  0  0  0  0  0  0
  181.8600  179.0120  140.8360 C   0  0  2  0  0  3  0  0  0  0  0  0
  184.3490  178.7550  145.4270 C   0  0  0  0  0  2  0  0  0  0  0  0
  184.9710  178.4670  142.9770 N   0  0  0  0  0  0  0  0  0  0  0  0
  185.3620  178.3880  144.3620 C   0  0  0  0  0  0  0  0  0  0  0  0
  187.6460  177.7950  143.6370 C   0  0  0  0  0  0  0  0  0  0  0  0
  192.0200  177.0920  142.1450 N   0  0  0  0  0  2  0  0  0  0  0  0
  182.8720  179.9220  138.6390 C   0  0  0  0  0  2  0  0  0  0  0  0
  183.3070  179.2110  141.3110 C   0  0  2  0  0  3  0  0  0  0  0  0
  191.0730  177.4580  141.0940 C   0  0  0  0  0  2  0  0  0  0  0  0
  183.9270  178.8420  138.8700 C   0  0  0  0  0  2  0  0  0  0  0  0
  187.0640  177.9030  146.1300 C   0  0  0  0  0  2  0  0  0  0  0  0
  186.6410  178.0850  144.6900 C   0  0  0  0  0  0  0  0  0  0  0  0
  188.9610  177.3490  144.0410 N   0  0  0  0  0  2  0  0  0  0  0  0
  185.5870  178.3780  140.6550 C   0  0  0  0  0  3  0  0  0  0  0  0
  188.3760  178.7580  140.2760 O   0  0  0  0  0  1  0  0  0  0  0  0
  191.7720  176.3650  144.3770 O   0  0  0  0  0  0  0  0  0  0  0  0
  187.3510  177.9520  142.3110 C   0  0  0  0  0  0  0  0  0  0  0  0
  189.8100  176.7820  143.0120 C   0  0  1  0  0  3  0  0  0  0  0  0
  181.5620  177.6490  140.7360 O   0  0  0  0  0  0  0  0  0  0  0  0
  180.1820  177.5950  140.5270 C   0  0  0  0  0  2  0  0  0  0  0  0
  179.7550  176.1790  140.3670 C   0  0  0  0  0  0  0  0  0  0  0  0
  178.9670  175.5620  141.3780 N   0  0  0  0  0  1  0  0  0  0  0  0
  180.4050  175.2670  139.1800 S   0  0  0  0  0  0  0  0  0  0  0  0
  1 10  1  0  0  0  0
  2 26  1  0  0  0  0
  2 12  1  0  0  0  0
  3  4  1  0  0  0  0
  5 24  1  6  0  0  0
  5  6  1  0  0  0  0
  5 26  1  0  0  0  0
  6 18  1  6  0  0  0
  6 27  1  0  0  0  0
  7 23  1  0  0  0  0
  7 17  1  0  0  0  0
  8 12  1  0  0  0  0
  9 25  2  0  0  0  0
 10 28  1  6  0  0  0
 10 17  1  0  0  0  0
 11  3  1  0  0  0  0
 12 13  1  0  0  0  0
 13 21  2  0  0  0  0
 13 11  1  0  0  0  0
 14 22  1  0  0  0  0
 14 21  1  0  0  0  0
 15  9  1  0  0  0  0
 16 19  1  0  0  0  0
 16  1  1  0  0  0  0
 17  8  1  1  0  0  0
 18 15  1  0  0  0  0
 19  7  1  0  0  0  0
 20  4  1  0  0  0  0
 21 20  1  0  0  0  0
 23  2  2  0  0  0  0
 26 14  2  0  0  0  0
 27  9  1  1  0  0  0
 27 22  1  0  0  0  0
 29 28  1  0  0  0  0
 30 29  1  0  0  0  0
 30 31  1  0  0  0  0
 32 30  2  0  0  0  0
M  END
>  <MODEL>
2

>  <REMARK>
 VINA RESULT:      -9.1      2.829      4.109
  Name = 
  3 active torsions:
  status: ('A' for Active; 'I' for Inactive)
    1  A    between atoms: C_10  and  O_20
    2  A    between atoms: O_20  and  C_29
    3  A    between atoms: C_29  and  C_30
                            x       y       z     vdW  Elec       q    Type
                         _______ _______ _______ _____ _____    ______ ____

>  <TORSDO>
F 3

$$$$
=
 OpenBabel11122410443D

 32 37  0  0  1  0  0  0  0  0999 V2000
  189.8010  177.1340  136.7030 C   0  0  0  0  0  2  0  0  0  0  0  0
  188.9850  177.2800  141.8230 C   0  0  0  0  0  0  0  0  0  0  0  0
  184.2970  179.0150  142.3290 C   0  0  0  0  0  2  0  0  0  0  0  0
  184.7300  179.6420  143.6390 C   0  0  0  0  0  2  0  0  0  0  0  0
  190.4180  176.7720  143.9710 C   0  0  2  0  0  3  0  0  0  0  0  0
  190.4190  177.1850  145.4320 C   0  0  2  0  0  3  0  0  0  0  0  0
  189.8620  176.8750  139.6150 N   0  0  0  0  0  0  0  0  0  0  0  0
  187.4860  177.5040  139.8140 C   0  0  0  0  0  2  0  0  0  0  0  0
  189.4650  176.9830  147.4800 C   0  0  0  0  0  0  0  0  0  0  0  0
  188.5210  177.0830  137.5530 C   0  0  2  0  0  3  0  0  0  0  0  0
  185.5050  178.9200  141.4090 C   0  0  0  0  0  2  0  0  0  0  0  0
  187.7620  177.7600  141.2310 N   0  0  0  0  0  0  0  0  0  0  0  0
  186.7070  178.2750  142.0670 C   0  0  0  0  0  0  0  0  0  0  0  0
  188.0570  177.6930  144.0510 C   0  0  0  0  0  0  0  0  0  0  0  0
  190.8690  176.9320  147.7060 N   0  0  0  0  0  2  0  0  0  0  0  0
  191.1040  177.1580  137.5140 C   0  0  0  0  0  2  0  0  0  0  0  0
  188.7600  177.6060  138.9770 C   0  0  2  0  0  3  0  0  0  0  0  0
  191.5060  176.7520  146.4040 C   0  0  0  0  0  2  0  0  0  0  0  0
  190.9830  176.3760  138.8200 C   0  0  0  0  0  2  0  0  0  0  0  0
  185.7210  178.7100  144.3240 C   0  0  0  0  0  2  0  0  0  0  0  0
  186.8440  178.2640  143.4150 C   0  0  0  0  0  0  0  0  0  0  0  0
  188.0960  177.5850  145.4920 N   0  0  0  0  0  2  0  0  0  0  0  0
  189.9720  176.8320  141.0400 C   0  0  0  0  0  3  0  0  0  0  0  0
  191.5410  177.3280  143.3550 O   0  0  0  0  0  1  0  0  0  0  0  0
  188.6230  177.1200  148.4050 O   0  0  0  0  0  0  0  0  0  0  0  0
  189.1250  177.2830  143.3020 C   0  0  0  0  0  0  0  0  0  0  0  0
  189.1370  176.7530  146.0630 C   0  0  1  0  0  3  0  0  0  0  0  0
  188.0480  175.7670  137.5900 O   0  0  0  0  0  0  0  0  0  0  0  0
  187.8320  175.4230  136.2530 C   0  0  0  0  0  2  0  0  0  0  0  0
  188.1580  173.9870  136.0470 C   0  0  0  0  0  0  0  0  0  0  0  0
  187.1970  173.1240  135.4480 N   0  0  0  0  0  1  0  0  0  0  0  0
  189.4930  173.3520  136.7400 S   0  0  0  0  0  0  0  0  0  0  0  0
  1 16  1  0  0  0  0
  1 10  1  0  0  0  0
  2 26  1  0  0  0  0
  3  4  1  0  0  0  0
  4 20  1  0  0  0  0
  5 24  1  6  0  0  0
  5  6  1  0  0  0  0
  6 27  1  0  0  0  0
  6 18  1  1  0  0  0
  7 23  1  0  0  0  0
  8 12  1  0  0  0  0
  9 15  1  0  0  0  0
  9 25  2  0  0  0  0
 10 28  1  1  0  0  0
 10 17  1  0  0  0  0
 11 13  1  0  0  0  0
 11  3  1  0  0  0  0
 12  2  1  0  0  0  0
 12 13  1  0  0  0  0
 13 21  2  0  0  0  0
 14 22  1  0  0  0  0
 16 19  1  0  0  0  0
 17  7  1  0  0  0  0
 17  8  1  1  0  0  0
 18 15  1  0  0  0  0
 19  7  1  0  0  0  0
 21 14  1  0  0  0  0
 21 20  1  0  0  0  0
 23  2  2  0  0  0  0
 26  5  1  0  0  0  0
 26 14  2  0  0  0  0
 27 22  1  6  0  0  0
 27  9  1  0  0  0  0
 29 28  1  0  0  0  0
 30 29  1  0  0  0  0
 30 32  2  0  0  0  0
 31 30  1  0  0  0  0
M  END
>  <MODEL>
3

>  <REMARK>
 VINA RESULT:      -8.2      2.207      2.386
  Name = 
  3 active torsions:
  status: ('A' for Active; 'I' for Inactive)
    1  A    between atoms: C_10  and  O_20
    2  A    between atoms: O_20  and  C_29
    3  A    between atoms: C_29  and  C_30
                            x       y       z     vdW  Elec       q    Type
                         _______ _______ _______ _____ _____    ______ ____

>  <TORSDO>
F 3

$$$$
=
 OpenBabel11122410443D

 32 37  0  0  1  0  0  0  0  0999 V2000
  189.8050  177.9150  148.3010 C   0  0  0  0  0  2  0  0  0  0  0  0
  186.6380  178.1130  144.1980 C   0  0  0  0  0  0  0  0  0  0  0  0
  189.6770  177.7760  140.2110 C   0  0  0  0  0  2  0  0  0  0  0  0
  188.6810  178.6280  139.4500 C   0  0  0  0  0  2  0  0  0  0  0  0
  184.0500  178.4180  143.8330 C   0  0  2  0  0  3  0  0  0  0  0  0
  183.1320  178.9090  142.7280 C   0  0  2  0  0  3  0  0  0  0  0  0
  187.5730  177.9370  146.4130 N   0  0  0  0  0  0  0  0  0  0  0  0
  189.0690  177.5340  144.4950 C   0  0  0  0  0  2  0  0  0  0  0  0
  182.1540  178.4920  140.7240 C   0  0  0  0  0  0  0  0  0  0  0  0
  189.9420  177.4040  146.8580 C   0  0  2  0  0  3  0  0  0  0  0  0
  189.5850  178.1200  141.6910 C   0  0  0  0  0  2  0  0  0  0  0  0
  187.9650  177.9930  143.6470 N   0  0  0  0  0  0  0  0  0  0  0  0
  188.1680  178.0870  142.2240 C   0  0  0  0  0  0  0  0  0  0  0  0
  185.7230  178.2780  141.9330 C   0  0  0  0  0  0  0  0  0  0  0  0
  181.1290  179.0470  141.5410 N   0  0  0  0  0  2  0  0  0  0  0  0
  188.4440  178.5430  148.6280 C   0  0  0  0  0  2  0  0  0  0  0  0
  188.9450  178.0900  145.9120 C   0  0  2  0  0  3  0  0  0  0  0  0
  181.6280  179.0460  142.9140 C   0  0  0  0  0  2  0  0  0  0  0  0
  187.3050  177.8870  147.8490 C   0  0  0  0  0  2  0  0  0  0  0  0
  187.2740  178.2500  139.8930 C   0  0  0  0  0  2  0  0  0  0  0  0
  187.1060  178.2400  141.3960 C   0  0  0  0  0  0  0  0  0  0  0  0
  184.6200  178.3100  141.0000 N   0  0  0  0  0  2  0  0  0  0  0  0
  186.4610  178.0560  145.5220 C   0  0  0  0  0  3  0  0  0  0  0  0
  184.0100  179.3410  144.8810 O   0  0  0  0  0  1  0  0  0  0  0  0
  182.0370  178.3380  139.4800 O   0  0  0  0  0  0  0  0  0  0  0  0
  185.4850  178.2910  143.2800 C   0  0  0  0  0  0  0  0  0  0  0  0
  183.2990  178.0350  141.5290 C   0  0  1  0  0  3  0  0  0  0  0  0
  189.7530  176.0180  146.8430 O   0  0  0  0  0  0  0  0  0  0  0  0
  190.7220  175.5120  147.7140 C   0  0  0  0  0  2  0  0  0  0  0  0
  192.0250  175.4060  147.0050 C   0  0  0  0  0  0  0  0  0  0  0  0
  193.2360  175.6280  147.7200 N   0  0  0  0  0  1  0  0  0  0  0  0
  192.0550  175.3000  145.3770 S   0  0  0  0  0  0  0  0  0  0  0  0
  1 16  1  0  0  0  0
  2 23  2  0  0  0  0
  3 11  1  0  0  0  0
  4 20  1  0  0  0  0
  4  3  1  0  0  0  0
  5 24  1  1  0  0  0
  6 18  1  1  0  0  0
  6  5  1  0  0  0  0
  7 19  1  0  0  0  0
  9 15  1  0  0  0  0
 10 28  1  1  0  0  0
 10  1  1  0  0  0  0
 11 13  1  0  0  0  0
 12  2  1  0  0  0  0
 12  8  1  0  0  0  0
 13 12  1  0  0  0  0
 14 26  2  0  0  0  0
 15 18  1  0  0  0  0
 17  8  1  6  0  0  0
 17  7  1  0  0  0  0
 17 10  1  0  0  0  0
 19 16  1  0  0  0  0
 20 21  1  0  0  0  0
 21 14  1  0  0  0  0
 21 13  2  0  0  0  0
 22 27  1  0  0  0  0
 22 14  1  0  0  0  0
 23  7  1  0  0  0  0
 25  9  2  0  0  0  0
 26  5  1  0  0  0  0
 26  2  1  0  0  0  0
 27  9  1  6  0  0  0
 27  6  1  0  0  0  0
 28 29  1  0  0  0  0
 30 29  1  0  0  0  0
 30 31  1  0  0  0  0
 32 30  2  0  0  0  0
M  END
>  <MODEL>
4

>  <REMARK>
 VINA RESULT:      -7.3      3.173      8.384
  Name = 
  3 active torsions:
  status: ('A' for Active; 'I' for Inactive)
    1  A    between atoms: C_10  and  O_20
    2  A    between atoms: O_20  and  C_29
    3  A    between atoms: C_29  and  C_30
                            x       y       z     vdW  Elec       q    Type
                         _______ _______ _______ _____ _____    ______ ____

>  <TORSDO>
F 3

$$$$
=
 OpenBabel11122410443D

 32 37  0  0  1  0  0  0  0  0999 V2000
  191.7610  176.1930  135.5510 C   0  0  0  0  0  2  0  0  0  0  0  0
  189.6900  177.0940  140.2200 C   0  0  0  0  0  0  0  0  0  0  0  0
  184.9680  178.5280  139.2780 C   0  0  0  0  0  2  0  0  0  0  0  0
  185.0390  179.3870  140.5240 C   0  0  0  0  0  2  0  0  0  0  0  0
  190.5590  177.0460  142.7040 C   0  0  2  0  0  3  0  0  0  0  0  0
  190.1820  177.6860  144.0270 C   0  0  2  0  0  3  0  0  0  0  0  0
  191.1030  176.4090  138.3910 N   0  0  0  0  0  0  0  0  0  0  0  0
  188.7320  176.8800  137.9030 C   0  0  0  0  0  2  0  0  0  0  0  0
  188.7550  177.7430  145.7900 C   0  0  0  0  0  0  0  0  0  0  0  0
  190.3120  176.1820  136.0640 C   0  0  2  0  0  3  0  0  0  0  0  0
  186.3700  178.3790  138.7050 C   0  0  0  0  0  2  0  0  0  0  0  0
  188.6370  177.3790  139.2780 N   0  0  0  0  0  0  0  0  0  0  0  0
  187.3910  177.9400  139.7340 C   0  0  0  0  0  0  0  0  0  0  0  0
  188.2220  177.7870  142.0530 C   0  0  0  0  0  0  0  0  0  0  0  0
  190.0590  177.8350  146.3510 N   0  0  0  0  0  2  0  0  0  0  0  0
  192.8180  176.4460  136.6330 C   0  0  0  0  0  2  0  0  0  0  0  0
  190.1700  176.9430  137.3910 C   0  0  2  0  0  3  0  0  0  0  0  0
  191.0060  177.4980  145.2920 C   0  0  0  0  0  2  0  0  0  0  0  0
  192.4030  175.8750  137.9880 C   0  0  0  0  0  2  0  0  0  0  0  0
  185.8590  178.6540  141.5780 C   0  0  0  0  0  2  0  0  0  0  0  0
  187.1870  178.1550  141.0560 C   0  0  0  0  0  0  0  0  0  0  0  0
  187.9050  177.9140  143.4580 N   0  0  0  0  0  2  0  0  0  0  0  0
  190.8550  176.6030  139.7860 C   0  0  0  0  0  3  0  0  0  0  0  0
  191.7810  177.5800  142.2880 O   0  0  0  0  0  1  0  0  0  0  0  0
  187.7050  177.9620  146.4480 O   0  0  0  0  0  0  0  0  0  0  0  0
  189.4570  177.3440  141.6650 C   0  0  0  0  0  0  0  0  0  0  0  0
  188.7980  177.2650  144.3980 C   0  0  1  0  0  3  0  0  0  0  0  0
  189.8890  174.8570  136.2140 O   0  0  0  0  0  0  0  0  0  0  0  0
  188.8890  174.6860  135.2540 C   0  0  0  0  0  2  0  0  0  0  0  0
  187.9560  173.6130  135.6900 C   0  0  0  0  0  0  0  0  0  0  0  0
  188.1650  172.9600  136.9370 N   0  0  0  0  0  1  0  0  0  0  0  0
  186.8670  173.0090  134.6340 S   0  0  0  0  0  0  0  0  0  0  0  0
  1 10  1  0  0  0  0
  1 16  1  0  0  0  0
  2 26  1  0  0  0  0
  3  4  1  0  0  0  0
  4 20  1  0  0  0  0
  5 24  1  6  0  0  0
  5  6  1  0  0  0  0
  6 27  1  0  0  0  0
  6 18  1  1  0  0  0
  7 23  1  0  0  0  0
  8 12  1  0  0  0  0
  9 15  1  0  0  0  0
  9 25  2  0  0  0  0
 10 28  1  1  0  0  0
 10 17  1  0  0  0  0
 11  3  1  0  0  0  0
 11 13  1  0  0  0  0
 12 13  1  0  0  0  0
 12  2  1  0  0  0  0
 13 21  2  0  0  0  0
 14 22  1  0  0  0  0
 16 19  1  0  0  0  0
 17  8  1  1  0  0  0
 17  7  1  0  0  0  0
 18 15  1  0  0  0  0
 19  7  1  0  0  0  0
 21 20  1  0  0  0  0
 21 14  1  0  0  0  0
 23  2  2  0  0  0  0
 26 14  2  0  0  0  0
 26  5  1  0  0  0  0
 27 22  1  6  0  0  0
 27  9  1  0  0  0  0
 29 30  1  0  0  0  0
 29 28  1  0  0  0  0
 30 31  1  0  0  0  0
 32 30  2  0  0  0  0
M  END
>  <MODEL>
5

>  <REMARK>
 VINA RESULT:      -7.1      2.719      3.554
  Name = 
  3 active torsions:
  status: ('A' for Active; 'I' for Inactive)
    1  A    between atoms: C_10  and  O_20
    2  A    between atoms: O_20  and  C_29
    3  A    between atoms: C_29  and  C_30
                            x       y       z     vdW  Elec       q    Type
                         _______ _______ _______ _____ _____    ______ ____

>  <TORSDO>
F 3

$$$$
=
 OpenBabel11122410443D

 32 37  0  0  1  0  0  0  0  0999 V2000
  190.7480  176.0370  147.3470 C   0  0  0  0  0  2  0  0  0  0  0  0
  188.9780  177.4790  142.6890 C   0  0  0  0  0  0  0  0  0  0  0  0
  184.1950  178.7970  143.4820 C   0  0  0  0  0  2  0  0  0  0  0  0
  183.8930  178.3360  142.0700 C   0  0  0  0  0  2  0  0  0  0  0  0
  189.9560  177.5550  140.2470 C   0  0  2  0  0  3  0  0  0  0  0  0
  189.4130  177.5380  138.8300 C   0  0  2  0  0  3  0  0  0  0  0  0
  190.3530  176.8400  144.5630 N   0  0  0  0  0  0  0  0  0  0  0  0
  188.0890  177.6970  145.0330 C   0  0  0  0  0  2  0  0  0  0  0  0
  188.3710  178.6720  137.1640 C   0  0  0  0  0  0  0  0  0  0  0  0
  189.6070  176.9720  146.9120 C   0  0  2  0  0  3  0  0  0  0  0  0
  185.3800  178.0030  144.0130 C   0  0  0  0  0  2  0  0  0  0  0  0
  187.8620  177.6440  143.5860 N   0  0  0  0  0  0  0  0  0  0  0  0
  186.5650  177.9970  143.0680 C   0  0  0  0  0  0  0  0  0  0  0  0
  187.5550  178.1430  140.8110 C   0  0  0  0  0  0  0  0  0  0  0  0
  189.4480  177.9820  136.5410 N   0  0  0  0  0  2  0  0  0  0  0  0
  191.5810  175.4700  146.1910 C   0  0  0  0  0  2  0  0  0  0  0  0
  189.1910  176.7270  145.4550 C   0  0  2  0  0  3  0  0  0  0  0  0
  190.3170  177.4920  137.6070 C   0  0  0  0  0  2  0  0  0  0  0  0
  191.6840  176.4470  145.0210 C   0  0  0  0  0  2  0  0  0  0  0  0
  185.0770  178.6820  141.1780 C   0  0  0  0  0  2  0  0  0  0  0  0
  186.4010  178.2210  141.7420 C   0  0  0  0  0  0  0  0  0  0  0  0
  187.3550  178.5190  139.4300 N   0  0  0  0  0  2  0  0  0  0  0  0
  190.1720  177.1210  143.1730 C   0  0  0  0  0  3  0  0  0  0  0  0
  190.6270  176.3520  140.4770 O   0  0  0  0  0  1  0  0  0  0  0  0
  187.4450  179.2290  136.5200 O   0  0  0  0  0  0  0  0  0  0  0  0
  188.7830  177.7180  141.2370 C   0  0  0  0  0  0  0  0  0  0  0  0
  188.5410  178.7330  138.6250 C   0  0  1  0  0  3  0  0  0  0  0  0
  190.0120  178.3000  147.0870 O   0  0  0  0  0  0  0  0  0  0  0  0
  189.5810  178.6430  148.3720 C   0  0  0  0  0  2  0  0  0  0  0  0
  188.1310  178.3400  148.5100 C   0  0  0  0  0  0  0  0  0  0  0  0
  187.7210  177.1050  149.0850 N   0  0  0  0  0  1  0  0  0  0  0  0
  187.0310  179.2930  147.7710 S   0  0  0  0  0  0  0  0  0  0  0  0
  2 23  2  0  0  0  0
  2 12  1  0  0  0  0
  3 11  1  0  0  0  0
  4  3  1  0  0  0  0
  5 24  1  1  0  0  0
  5 26  1  0  0  0  0
  6 18  1  6  0  0  0
  6  5  1  0  0  0  0
  7 19  1  0  0  0  0
  7 17  1  0  0  0  0
 10 28  1  6  0  0  0
 10  1  1  0  0  0  0
 12  8  1  0  0  0  0
 13 12  1  0  0  0  0
 13 11  1  0  0  0  0
 14 26  2  0  0  0  0
 14 21  1  0  0  0  0
 15  9  1  0  0  0  0
 15 18  1  0  0  0  0
 16  1  1  0  0  0  0
 17  8  1  6  0  0  0
 17 10  1  0  0  0  0
 19 16  1  0  0  0  0
 20 21  1  0  0  0  0
 20  4  1  0  0  0  0
 21 13  2  0  0  0  0
 22 14  1  0  0  0  0
 23  7  1  0  0  0  0
 25  9  2  0  0  0  0
 26  2  1  0  0  0  0
 27  9  1  6  0  0  0
 27  6  1  0  0  0  0
 27 22  1  0  0  0  0
 28 29  1  0  0  0  0
 29 30  1  0  0  0  0
 30 31  1  0  0  0  0
 32 30  2  0  0  0  0
M  END
>  <MODEL>
6

>  <REMARK>
 VINA RESULT:      -7.1      2.751      7.501
  Name = 
  3 active torsions:
  status: ('A' for Active; 'I' for Inactive)
    1  A    between atoms: C_10  and  O_20
    2  A    between atoms: O_20  and  C_29
    3  A    between atoms: C_29  and  C_30
                            x       y       z     vdW  Elec       q    Type
                         _______ _______ _______ _____ _____    ______ ____

>  <TORSDO>
F 3

$$$$
=
 OpenBabel11122410443D

 32 37  0  0  1  0  0  0  0  0999 V2000
  193.9360  173.9750  136.0420 C   0  0  0  0  0  2  0  0  0  0  0  0
  189.8640  176.5230  138.0000 C   0  0  0  0  0  0  0  0  0  0  0  0
  191.3890  178.1050  142.5180 C   0  0  0  0  0  2  0  0  0  0  0  0
  189.9520  177.9810  142.9840 C   0  0  0  0  0  2  0  0  0  0  0  0
  187.4000  177.0130  137.2180 C   0  0  2  0  0  3  0  0  0  0  0  0
  186.0700  177.3450  137.8720 C   0  0  2  0  0  3  0  0  0  0  0  0
  191.4230  175.3770  136.5630 N   0  0  0  0  0  0  0  0  0  0  0  0
  192.2830  176.3320  138.6660 C   0  0  0  0  0  2  0  0  0  0  0  0
  184.7790  178.8980  138.9050 C   0  0  0  0  0  0  0  0  0  0  0  0
  193.8150  175.0860  137.0970 C   0  0  2  0  0  3  0  0  0  0  0  0
  191.6270  177.1070  141.3940 C   0  0  0  0  0  2  0  0  0  0  0  0
  190.8850  176.6050  139.0130 N   0  0  0  0  0  0  0  0  0  0  0  0
  190.5830  177.1830  140.2990 C   0  0  0  0  0  0  0  0  0  0  0  0
  188.3120  177.7010  139.4820 C   0  0  0  0  0  0  0  0  0  0  0  0
  183.9240  178.2530  137.9690 N   0  0  0  0  0  2  0  0  0  0  0  0
  192.6100  173.5830  135.3750 C   0  0  0  0  0  2  0  0  0  0  0  0
  192.3880  175.1930  137.6540 C   0  0  2  0  0  3  0  0  0  0  0  0
  184.7770  177.4690  137.0800 C   0  0  0  0  0  2  0  0  0  0  0  0
  191.6550  174.7690  135.2530 C   0  0  0  0  0  2  0  0  0  0  0  0
  189.0300  178.3900  141.8440 C   0  0  0  0  0  2  0  0  0  0  0  0
  189.3520  177.6940  140.5400 C   0  0  0  0  0  0  0  0  0  0  0  0
  187.0610  178.3750  139.7470 N   0  0  0  0  0  2  0  0  0  0  0  0
  190.1420  175.9590  136.8200 C   0  0  0  0  0  3  0  0  0  0  0  0
  187.3150  175.7290  136.6760 O   0  0  0  0  0  1  0  0  0  0  0  0
  184.3570  179.6660  139.8090 O   0  0  0  0  0  0  0  0  0  0  0  0
  188.5160  177.0780  138.2820 C   0  0  0  0  0  0  0  0  0  0  0  0
  186.1980  178.6360  138.6120 C   0  0  1  0  0  3  0  0  0  0  0  0
  194.2090  176.3030  136.5290 O   0  0  0  0  0  0  0  0  0  0  0  0
  194.9420  175.9500  135.3930 C   0  0  0  0  0  2  0  0  0  0  0  0
  196.1860  176.7630  135.3270 C   0  0  0  0  0  0  0  0  0  0  0  0
  197.3210  176.3760  136.0930 N   0  0  0  0  0  1  0  0  0  0  0  0
  196.1610  178.2240  134.6000 S   0  0  0  0  0  0  0  0  0  0  0  0
  1 10  1  0  0  0  0
  2 26  1  0  0  0  0
  2 12  1  0  0  0  0
  3  4  1  0  0  0  0
  5 24  1  1  0  0  0
  5  6  1  0  0  0  0
  5 26  1  0  0  0  0
  6 18  1  6  0  0  0
  6 27  1  0  0  0  0
  7 23  1  0  0  0  0
  7 17  1  0  0  0  0
  8 12  1  0  0  0  0
  9 25  2  0  0  0  0
 10 28  1  6  0  0  0
 10 17  1  0  0  0  0
 11  3  1  0  0  0  0
 12 13  1  0  0  0  0
 13 21  2  0  0  0  0
 13 11  1  0  0  0  0
 14 22  1  0  0  0  0
 14 21  1  0  0  0  0
 15  9  1  0  0  0  0
 16  1  1  0  0  0  0
 17  8  1  1  0  0  0
 18 15  1  0  0  0  0
 19 16  1  0  0  0  0
 19  7  1  0  0  0  0
 20  4  1  0  0  0  0
 21 20  1  0  0  0  0
 23  2  2  0  0  0  0
 26 14  2  0  0  0  0
 27  9  1  1  0  0  0
 27 22  1  0  0  0  0
 29 28  1  0  0  0  0
 30 29  1  0  0  0  0
 30 31  1  0  0  0  0
 32 30  2  0  0  0  0
M  END
>  <MODEL>
7

>  <REMARK>
 VINA RESULT:      -7.0      4.692      8.052
  Name = 
  3 active torsions:
  status: ('A' for Active; 'I' for Inactive)
    1  A    between atoms: C_10  and  O_20
    2  A    between atoms: O_20  and  C_29
    3  A    between atoms: C_29  and  C_30
                            x       y       z     vdW  Elec       q    Type
                         _______ _______ _______ _____ _____    ______ ____

>  <TORSDO>
F 3

$$$$
=
 OpenBabel11122410443D

 32 37  0  0  1  0  0  0  0  0999 V2000
  191.6520  176.6930  137.1510 C   0  0  0  0  0  2  0  0  0  0  0  0
  188.4500  177.4420  141.1620 C   0  0  0  0  0  0  0  0  0  0  0  0
  184.0580  178.7180  139.0810 C   0  0  0  0  0  2  0  0  0  0  0  0
  183.7830  179.5590  140.3110 C   0  0  0  0  0  2  0  0  0  0  0  0
  188.6740  177.3850  143.7830 C   0  0  2  0  0  3  0  0  0  0  0  0
  187.9550  177.9900  144.9750 C   0  0  2  0  0  3  0  0  0  0  0  0
  190.2990  176.8380  139.7390 N   0  0  0  0  0  0  0  0  0  0  0  0
  188.1090  177.2310  138.6770 C   0  0  0  0  0  2  0  0  0  0  0  0
  186.1330  177.9660  146.3270 C   0  0  0  0  0  0  0  0  0  0  0  0
  190.1220  176.6210  137.2870 C   0  0  2  0  0  3  0  0  0  0  0  0
  185.5630  178.6290  138.8750 C   0  0  0  0  0  2  0  0  0  0  0  0
  187.6550  177.7040  139.9890 N   0  0  0  0  0  0  0  0  0  0  0  0
  186.3130  178.2110  140.1230 C   0  0  0  0  0  0  0  0  0  0  0  0
  186.5460  178.0510  142.5760 C   0  0  0  0  0  0  0  0  0  0  0  0
  187.2520  178.0960  147.1960 N   0  0  0  0  0  2  0  0  0  0  0  0
  192.3960  176.9660  138.4640 C   0  0  0  0  0  2  0  0  0  0  0  0
  189.6250  177.3540  138.5410 C   0  0  2  0  0  3  0  0  0  0  0  0
  188.4450  177.8110  146.4040 C   0  0  0  0  0  2  0  0  0  0  0  0
  191.6790  176.3590  139.6690 C   0  0  0  0  0  2  0  0  0  0  0  0
  184.3430  178.8390  141.5310 C   0  0  0  0  0  2  0  0  0  0  0  0
  185.7780  178.3970  141.3540 C   0  0  0  0  0  0  0  0  0  0  0  0
  185.8840  178.1430  143.8580 N   0  0  0  0  0  2  0  0  0  0  0  0
  189.7050  177.0000  141.0290 C   0  0  0  0  0  3  0  0  0  0  0  0
  189.9390  177.9700  143.6890 O   0  0  0  0  0  1  0  0  0  0  0  0
  184.9440  178.1350  146.7030 O   0  0  0  0  0  0  0  0  0  0  0  0
  187.8550  177.6600  142.5050 C   0  0  0  0  0  0  0  0  0  0  0  0
  186.5400  177.5120  144.9860 C   0  0  1  0  0  3  0  0  0  0  0  0
  189.7280  175.2790  137.3180 O   0  0  0  0  0  0  0  0  0  0  0  0
  189.5430  174.9250  135.9790 C   0  0  0  0  0  2  0  0  0  0  0  0
  188.1220  175.1400  135.5960 C   0  0  0  0  0  0  0  0  0  0  0  0
  187.7790  176.2270  134.7430 N   0  0  0  0  0  1  0  0  0  0  0  0
  186.9430  174.3060  136.3560 S   0  0  0  0  0  0  0  0  0  0  0  0
  1 10  1  0  0  0  0
  1 16  1  0  0  0  0
  2 26  1  0  0  0  0
  3  4  1  0  0  0  0
  4 20  1  0  0  0  0
  5 24  1  6  0  0  0
  5  6  1  0  0  0  0
  6 27  1  0  0  0  0
  6 18  1  1  0  0  0
  7 23  1  0  0  0  0
  8 12  1  0  0  0  0
  9 25  2  0  0  0  0
  9 15  1  0  0  0  0
 10 28  1  1  0  0  0
 10 17  1  0  0  0  0
 11  3  1  0  0  0  0
 11 13  1  0  0  0  0
 12 13  1  0  0  0  0
 12  2  1  0  0  0  0
 13 21  2  0  0  0  0
 14 22  1  0  0  0  0
 16 19  1  0  0  0  0
 17  8  1  1  0  0  0
 17  7  1  0  0  0  0
 18 15  1  0  0  0  0
 19  7  1  0  0  0  0
 21 20  1  0  0  0  0
 21 14  1  0  0  0  0
 23  2  2  0  0  0  0
 26 14  2  0  0  0  0
 26  5  1  0  0  0  0
 27 22  1  6  0  0  0
 27  9  1  0  0  0  0
 29 28  1  0  0  0  0
 30 29  1  0  0  0  0
 30 32  2  0  0  0  0
 31 30  1  0  0  0  0
M  END
>  <MODEL>
8

>  <REMARK>
 VINA RESULT:      -6.9      2.441      3.389
  Name = 
  3 active torsions:
  status: ('A' for Active; 'I' for Inactive)
    1  A    between atoms: C_10  and  O_20
    2  A    between atoms: O_20  and  C_29
    3  A    between atoms: C_29  and  C_30
                            x       y       z     vdW  Elec       q    Type
                         _______ _______ _______ _____ _____    ______ ____

>  <TORSDO>
F 3

$$$$
=
 OpenBabel11122410443D

 32 37  0  0  1  0  0  0  0  0999 V2000
  189.6290  177.9160  145.8360 C   0  0  0  0  0  2  0  0  0  0  0  0
  185.0610  178.2530  143.4010 C   0  0  0  0  0  0  0  0  0  0  0  0
  186.2160  178.3930  138.5130 C   0  0  0  0  0  2  0  0  0  0  0  0
  184.9800  179.2440  138.3030 C   0  0  0  0  0  2  0  0  0  0  0  0
  182.5440  178.4410  144.1440 C   0  0  2  0  0  3  0  0  0  0  0  0
  181.2460  178.9640  143.5550 C   0  0  2  0  0  3  0  0  0  0  0  0
  186.8200  177.9580  145.0220 N   0  0  0  0  0  0  0  0  0  0  0  0
  187.4130  177.7880  142.6340 C   0  0  0  0  0  2  0  0  0  0  0  0
  179.5440  178.6480  142.0880 C   0  0  0  0  0  0  0  0  0  0  0  0
  189.1750  177.5250  144.4190 C   0  0  2  0  0  3  0  0  0  0  0  0
  186.7290  178.6160  139.9290 C   0  0  0  0  0  2  0  0  0  0  0  0
  186.0500  178.2490  142.3520 N   0  0  0  0  0  0  0  0  0  0  0  0
  185.6530  178.4640  140.9840 C   0  0  0  0  0  0  0  0  0  0  0  0
  183.3000  178.5400  141.7250 C   0  0  0  0  0  0  0  0  0  0  0  0
  178.9310  179.0810  143.2970 N   0  0  0  0  0  2  0  0  0  0  0  0
  188.5070  178.4400  146.7420 C   0  0  0  0  0  2  0  0  0  0  0  0
  187.8660  178.2260  144.0260 C   0  0  2  0  0  3  0  0  0  0  0  0
  179.9460  179.0020  144.3450 C   0  0  0  0  0  2  0  0  0  0  0  0
  187.1630  177.7840  146.4320 C   0  0  0  0  0  2  0  0  0  0  0  0
  183.8840  178.7550  139.2400 C   0  0  0  0  0  2  0  0  0  0  0  0
  184.3430  178.6210  140.6740 C   0  0  0  0  0  0  0  0  0  0  0  0
  181.9110  178.5830  141.3250 N   0  0  0  0  0  2  0  0  0  0  0  0
  185.4400  178.0840  144.6720 C   0  0  0  0  0  3  0  0  0  0  0  0
  182.9160  179.2770  145.1990 O   0  0  0  0  0  1  0  0  0  0  0  0
  178.9330  178.5850  140.9900 O   0  0  0  0  0  0  0  0  0  0  0  0
  183.6300  178.4370  143.0480 C   0  0  0  0  0  0  0  0  0  0  0  0
  180.9260  178.1950  142.3150 C   0  0  1  0  0  3  0  0  0  0  0  0
  189.0240  176.1360  144.3530 O   0  0  0  0  0  0  0  0  0  0  0  0
  189.5780  175.7710  143.1240 C   0  0  0  0  0  2  0  0  0  0  0  0
  191.0390  176.0520  143.1300 C   0  0  0  0  0  0  0  0  0  0  0  0
  191.8750  175.4120  144.0870 N   0  0  0  0  0  1  0  0  0  0  0  0
  191.6310  177.2780  142.2300 S   0  0  0  0  0  0  0  0  0  0  0  0
  1 16  1  0  0  0  0
  2 23  2  0  0  0  0
  3 11  1  0  0  0  0
  4  3  1  0  0  0  0
  4 20  1  0  0  0  0
  5 24  1  1  0  0  0
  6  5  1  0  0  0  0
  6 18  1  1  0  0  0
  7 19  1  0  0  0  0
  9 27  1  0  0  0  0
  9 15  1  0  0  0  0
 10 28  1  1  0  0  0
 10  1  1  0  0  0  0
 11 13  1  0  0  0  0
 12  8  1  0  0  0  0
 12  2  1  0  0  0  0
 13 12  1  0  0  0  0
 14 26  2  0  0  0  0
 15 18  1  0  0  0  0
 17  8  1  6  0  0  0
 17 10  1  0  0  0  0
 17  7  1  0  0  0  0
 19 16  1  0  0  0  0
 20 21  1  0  0  0  0
 21 13  2  0  0  0  0
 21 14  1  0  0  0  0
 22 14  1  0  0  0  0
 23  7  1  0  0  0  0
 25  9  2  0  0  0  0
 26  2  1  0  0  0  0
 26  5  1  0  0  0  0
 27 22  1  6  0  0  0
 27  6  1  0  0  0  0
 29 30  1  0  0  0  0
 29 28  1  0  0  0  0
 30 31  1  0  0  0  0
 32 30  2  0  0  0  0
M  END
>  <MODEL>
9

>  <REMARK>
 VINA RESULT:      -6.5      3.526      7.710
  Name = 
  3 active torsions:
  status: ('A' for Active; 'I' for Inactive)
    1  A    between atoms: C_10  and  O_20
    2  A    between atoms: O_20  and  C_29
    3  A    between atoms: C_29  and  C_30
                            x       y       z     vdW  Elec       q    Type
                         _______ _______ _______ _____ _____    ______ ____

>  <TORSDO>
F 3

$$$$
