=
 OpenBabel11122410293D

 30 35  0  0  1  0  0  0  0  0999 V2000
  189.0490  177.3660  143.6120 C   0  0  0  0  0  0  0  0  0  0  0  0
  191.1280  176.4280  144.7340 C   0  0  0  0  0  0  0  0  0  0  0  0
  187.2290  178.0000  147.3320 N   0  0  0  0  0  2  0  0  0  0  0  0
  187.7310  177.9100  143.7480 C   0  0  0  0  0  0  0  0  0  0  0  0
  189.5780  177.2380  142.3230 C   0  0  0  0  0  3  0  0  0  0  0  0
  186.9280  178.6330  140.1890 O   0  0  0  0  0  1  0  0  0  0  0  0
  184.6290  178.1400  143.2820 C   0  0  1  0  0  3  0  0  0  0  0  0
  187.6130  178.2100  141.3250 C   0  0  0  0  0  0  0  0  0  0  0  0
  184.6620  178.0000  144.8070 C   0  0  2  0  0  3  0  0  0  0  0  0
  185.9410  178.5540  146.9170 C   0  0  1  0  0  3  0  0  0  0  0  0
  188.8770  177.6410  141.1850 C   0  0  0  0  0  0  0  0  0  0  0  0
  187.0340  178.3610  142.5960 C   0  0  0  0  0  0  0  0  0  0  0  0
  191.7960  176.1260  145.9250 C   0  0  0  0  0  3  0  0  0  0  0  0
  183.4500  178.7620  145.3100 C   0  0  0  0  0  2  0  0  0  0  0  0
  183.2420  178.6420  142.9140 C   0  0  0  0  0  2  0  0  0  0  0  0
  192.0380  176.0470  143.2740 Cl  0  0  0  0  0  0  0  0  0  0  0  0
  187.9410  177.7180  146.1420 C   0  0  0  0  0  0  0  0  0  0  0  0
  191.2050  176.3550  147.1620 C   0  0  0  0  0  3  0  0  0  0  0  0
  189.8100  176.9880  144.7720 C   0  0  0  0  0  0  0  0  0  0  0  0
  187.1960  178.0150  145.0460 C   0  0  0  0  0  0  0  0  0  0  0  0
  185.8590  180.0080  147.3450 C   0  0  0  0  0  1  0  0  0  0  0  0
  185.8990  178.4660  145.4480 N   0  0  0  0  0  0  0  0  0  0  0  0
  182.4360  178.6640  144.1960 C   0  0  0  0  0  2  0  0  0  0  0  0
  185.7780  180.4450  143.2510 C   0  0  0  0  0  1  0  0  0  0  0  0
  189.9240  176.8900  147.2270 C   0  0  0  0  0  3  0  0  0  0  0  0
  189.2280  177.2010  146.0570 C   0  0  0  0  0  0  0  0  0  0  0  0
  185.6980  179.0380  142.6660 C   0  0  2  0  0  3  0  0  0  0  0  0
  189.4260  177.4940  139.9060 O   0  0  0  0  0  0  0  0  0  0  0  0
  190.8590  176.0570  138.6320 C   0  0  0  0  0  1  0  0  0  0  0  0
  190.7840  177.1390  139.6870 C   0  0  0  0  0  2  0  0  0  0  0  0
  1  4  1  0  0  0  0
  1 19  1  0  0  0  0
  2 19  2  0  0  0  0
  2 13  1  0  0  0  0
  4 20  1  0  0  0  0
  5  1  2  0  0  0  0
  6  8  1  0  0  0  0
  7 15  1  1  0  0  0
  7  9  1  0  0  0  0
  8 12  1  0  0  0  0
  9 14  1  1  0  0  0
  9 22  1  0  0  0  0
 10  3  1  0  0  0  0
 10 21  1  6  0  0  0
 11  8  2  0  0  0  0
 11  5  1  0  0  0  0
 12 27  1  0  0  0  0
 12  4  2  0  0  0  0
 13 18  2  0  0  0  0
 15 23  1  0  0  0  0
 16  2  1  0  0  0  0
 17  3  1  0  0  0  0
 18 25  1  0  0  0  0
 19 26  1  0  0  0  0
 20 22  1  0  0  0  0
 20 17  2  0  0  0  0
 22 10  1  0  0  0  0
 23 14  1  0  0  0  0
 26 17  1  0  0  0  0
 26 25  2  0  0  0  0
 27 24  1  1  0  0  0
 27  7  1  0  0  0  0
 28 11  1  0  0  0  0
 29 30  1  0  0  0  0
 30 28  1  0  0  0  0
M  END
>  <MODEL>
1

>  <REMARK>
 VINA RESULT:      -9.3      0.000      0.000
  Name = 
  2 active torsions:
  status: ('A' for Active; 'I' for Inactive)
    1  A    between atoms: C_11  and  O_28
    2  A    between atoms: O_28  and  C_30
                            x       y       z     vdW  Elec       q    Type
                         _______ _______ _______ _____ _____    ______ ____

>  <TORSDO>
F 2

$$$$
=
 OpenBabel11122410293D

 30 35  0  0  1  0  0  0  0  0999 V2000
  185.7270  178.4640  142.3730 C   0  0  0  0  0  0  0  0  0  0  0  0
  186.5380  178.3970  144.7810 C   0  0  0  0  0  0  0  0  0  0  0  0
  181.7420  178.7490  143.6390 N   0  0  0  0  0  2  0  0  0  0  0  0
  184.6260  178.5320  141.4590 C   0  0  0  0  0  0  0  0  0  0  0  0
  187.0200  178.4170  141.8410 C   0  0  0  0  0  3  0  0  0  0  0  0
  186.4420  178.6280  138.2150 O   0  0  0  0  0  1  0  0  0  0  0  0
  182.7830  177.6400  139.0710 C   0  0  1  0  0  3  0  0  0  0  0  0
  186.1920  178.5650  139.5840 C   0  0  0  0  0  0  0  0  0  0  0  0
  181.7600  177.6510  140.2090 C   0  0  2  0  0  3  0  0  0  0  0  0
  181.0480  178.7880  142.3540 C   0  0  1  0  0  3  0  0  0  0  0  0
  187.2640  178.4550  140.4670 C   0  0  0  0  0  0  0  0  0  0  0  0
  184.8730  178.6150  140.0630 C   0  0  0  0  0  0  0  0  0  0  0  0
  186.2150  178.4460  146.1400 C   0  0  0  0  0  3  0  0  0  0  0  0
  180.4320  177.9890  139.5580 C   0  0  0  0  0  2  0  0  0  0  0  0
  181.9970  177.6010  137.7700 C   0  0  0  0  0  2  0  0  0  0  0  0
  188.2600  178.2300  144.4490 Cl  0  0  0  0  0  0  0  0  0  0  0  0
  183.1210  178.6280  143.3410 C   0  0  0  0  0  0  0  0  0  0  0  0
  184.8960  178.5630  146.5650 C   0  0  0  0  0  3  0  0  0  0  0  0
  185.5030  178.4710  143.7940 C   0  0  0  0  0  0  0  0  0  0  0  0
  183.3250  178.5560  142.0000 C   0  0  0  0  0  0  0  0  0  0  0  0
  180.4170  180.1560  142.1650 C   0  0  0  0  0  1  0  0  0  0  0  0
  182.0690  178.5660  141.3160 N   0  0  0  0  0  0  0  0  0  0  0  0
  180.5390  177.4540  138.1500 C   0  0  0  0  0  2  0  0  0  0  0  0
  183.1600  180.1880  139.0940 C   0  0  0  0  0  1  0  0  0  0  0  0
  183.8730  178.6280  145.6290 C   0  0  0  0  0  3  0  0  0  0  0  0
  184.1600  178.5790  144.2620 C   0  0  0  0  0  0  0  0  0  0  0  0
  183.7810  178.7950  139.0520 C   0  0  2  0  0  3  0  0  0  0  0  0
  188.5670  178.3970  139.9620 O   0  0  0  0  0  0  0  0  0  0  0  0
  190.3620  177.1280  140.9160 C   0  0  0  0  0  1  0  0  0  0  0  0
  189.2950  177.1820  139.8450 C   0  0  0  0  0  2  0  0  0  0  0  0
  1 19  1  0  0  0  0
  2 13  1  0  0  0  0
  4 20  1  0  0  0  0
  4  1  2  0  0  0  0
  5  1  1  0  0  0  0
  6  8  1  0  0  0  0
  7 15  1  6  0  0  0
  7  9  1  0  0  0  0
  8 12  2  0  0  0  0
  8 11  1  0  0  0  0
  9 14  1  6  0  0  0
  9 22  1  0  0  0  0
 10 21  1  6  0  0  0
 10  3  1  0  0  0  0
 11  5  2  0  0  0  0
 12  4  1  0  0  0  0
 13 18  2  0  0  0  0
 15 23  1  0  0  0  0
 16  2  1  0  0  0  0
 17  3  1  0  0  0  0
 17 26  1  0  0  0  0
 19 26  1  0  0  0  0
 19  2  2  0  0  0  0
 20 17  2  0  0  0  0
 22 20  1  0  0  0  0
 22 10  1  0  0  0  0
 23 14  1  0  0  0  0
 25 18  1  0  0  0  0
 26 25  2  0  0  0  0
 27  7  1  0  0  0  0
 27 24  1  1  0  0  0
 27 12  1  0  0  0  0
 28 11  1  0  0  0  0
 30 28  1  0  0  0  0
 30 29  1  0  0  0  0
M  END
>  <MODEL>
2

>  <REMARK>
 VINA RESULT:      -8.9      2.945      4.943
  Name = 
  2 active torsions:
  status: ('A' for Active; 'I' for Inactive)
    1  A    between atoms: C_11  and  O_28
    2  A    between atoms: O_28  and  C_30
                            x       y       z     vdW  Elec       q    Type
                         _______ _______ _______ _____ _____    ______ ____

>  <TORSDO>
F 2

$$$$
=
 OpenBabel11122410293D

 30 35  0  0  1  0  0  0  0  0999 V2000
  185.8800  178.4550  141.9580 C   0  0  0  0  0  0  0  0  0  0  0  0
  183.4180  178.9830  142.3000 C   0  0  0  0  0  0  0  0  0  0  0  0
  186.4620  178.1040  146.0930 N   0  0  0  0  0  2  0  0  0  0  0  0
  187.1540  178.1560  142.5390 C   0  0  0  0  0  0  0  0  0  0  0  0
  185.7890  178.5040  140.5630 C   0  0  0  0  0  3  0  0  0  0  0  0
  189.1950  177.6460  139.4720 O   0  0  0  0  0  1  0  0  0  0  0  0
  190.2270  178.5010  143.1190 C   0  0  1  0  0  3  0  0  0  0  0  0
  188.1120  177.9200  140.3030 C   0  0  0  0  0  0  0  0  0  0  0  0
  189.6720  178.6080  144.5410 C   0  0  2  0  0  3  0  0  0  0  0  0
  187.8900  177.8000  146.1450 C   0  0  1  0  0  3  0  0  0  0  0  0
  186.8840  178.2530  139.7340 C   0  0  0  0  0  0  0  0  0  0  0  0
  188.2590  177.8570  141.6980 C   0  0  0  0  0  0  0  0  0  0  0  0
  182.3540  179.1400  143.1940 C   0  0  0  0  0  3  0  0  0  0  0  0
  190.7660  178.0710  145.4450 C   0  0  0  0  0  2  0  0  0  0  0  0
  191.7230  178.2630  143.2450 C   0  0  0  0  0  2  0  0  0  0  0  0
  182.9840  179.2150  140.6080 Cl  0  0  0  0  0  0  0  0  0  0  0  0
  186.1410  178.2710  144.7240 C   0  0  0  0  0  0  0  0  0  0  0  0
  182.5370  179.0030  144.5650 C   0  0  0  0  0  3  0  0  0  0  0  0
  184.7260  178.6710  142.7900 C   0  0  0  0  0  0  0  0  0  0  0  0
  187.2440  178.1310  143.9450 C   0  0  0  0  0  0  0  0  0  0  0  0
  188.0830  176.3780  146.6410 C   0  0  0  0  0  1  0  0  0  0  0  0
  188.3960  177.9160  144.7660 N   0  0  0  0  0  0  0  0  0  0  0  0
  192.0560  178.3680  144.7180 C   0  0  0  0  0  2  0  0  0  0  0  0
  189.5770  176.0260  142.8200 C   0  0  0  0  0  1  0  0  0  0  0  0
  183.7980  178.7090  145.0670 C   0  0  0  0  0  3  0  0  0  0  0  0
  184.8830  178.5470  144.2030 C   0  0  0  0  0  0  0  0  0  0  0  0
  189.5960  177.4330  142.2300 C   0  0  2  0  0  3  0  0  0  0  0  0
  186.7680  178.3180  138.3410 O   0  0  0  0  0  0  0  0  0  0  0  0
  186.8150  176.2010  137.2180 C   0  0  0  0  0  1  0  0  0  0  0  0
  185.9780  177.4060  137.5910 C   0  0  0  0  0  2  0  0  0  0  0  0
  1  4  1  0  0  0  0
  1 19  1  0  0  0  0
  2 19  2  0  0  0  0
  2 13  1  0  0  0  0
  3 10  1  0  0  0  0
  4 20  1  0  0  0  0
  5  1  2  0  0  0  0
  6  8  1  0  0  0  0
  7 15  1  1  0  0  0
  7  9  1  0  0  0  0
  8 12  1  0  0  0  0
  9 22  1  0  0  0  0
  9 14  1  1  0  0  0
 10 21  1  6  0  0  0
 11  8  2  0  0  0  0
 11  5  1  0  0  0  0
 12 27  1  0  0  0  0
 12  4  2  0  0  0  0
 13 18  2  0  0  0  0
 15 23  1  0  0  0  0
 16  2  1  0  0  0  0
 17  3  1  0  0  0  0
 18 25  1  0  0  0  0
 19 26  1  0  0  0  0
 20 17  2  0  0  0  0
 20 22  1  0  0  0  0
 22 10  1  0  0  0  0
 23 14  1  0  0  0  0
 26 17  1  0  0  0  0
 26 25  2  0  0  0  0
 27 24  1  1  0  0  0
 27  7  1  0  0  0  0
 28 11  1  0  0  0  0
 29 30  1  0  0  0  0
 30 28  1  0  0  0  0
M  END
>  <MODEL>
3

>  <REMARK>
 VINA RESULT:      -8.3      2.475      5.608
  Name = 
  2 active torsions:
  status: ('A' for Active; 'I' for Inactive)
    1  A    between atoms: C_11  and  O_28
    2  A    between atoms: O_28  and  C_30
                            x       y       z     vdW  Elec       q    Type
                         _______ _______ _______ _____ _____    ______ ____

>  <TORSDO>
F 2

$$$$
=
 OpenBabel11122410293D

 30 35  0  0  1  0  0  0  0  0999 V2000
  186.0550  178.4110  142.5730 C   0  0  0  0  0  0  0  0  0  0  0  0
  188.5510  178.0980  142.9350 C   0  0  0  0  0  0  0  0  0  0  0  0
  186.5450  178.1660  138.4190 N   0  0  0  0  0  2  0  0  0  0  0  0
  184.9620  178.5290  141.6550 C   0  0  0  0  0  0  0  0  0  0  0  0
  185.7710  178.4620  143.9420 C   0  0  0  0  0  3  0  0  0  0  0  0
  182.1090  178.7890  144.0270 O   0  0  0  0  0  1  0  0  0  0  0  0
  182.4440  179.8420  140.3020 C   0  0  1  0  0  3  0  0  0  0  0  0
  183.4060  178.6740  143.5350 C   0  0  0  0  0  0  0  0  0  0  0  0
  183.3710  179.7270  139.0890 C   0  0  2  0  0  3  0  0  0  0  0  0
  185.1660  178.3420  137.9690 C   0  0  1  0  0  3  0  0  0  0  0  0
  184.4710  178.6020  144.4310 C   0  0  0  0  0  0  0  0  0  0  0  0
  183.6340  178.6280  142.1490 C   0  0  0  0  0  0  0  0  0  0  0  0
  189.8100  177.8780  142.3700 C   0  0  0  0  0  3  0  0  0  0  0  0
  182.4530  179.5540  137.8930 C   0  0  0  0  0  2  0  0  0  0  0  0
  181.0450  180.1030  139.7670 C   0  0  0  0  0  2  0  0  0  0  0  0
  188.5550  178.2180  144.6930 Cl  0  0  0  0  0  0  0  0  0  0  0  0
  186.5150  178.2530  139.8310 C   0  0  0  0  0  0  0  0  0  0  0  0
  189.9750  177.7740  140.9930 C   0  0  0  0  0  3  0  0  0  0  0  0
  187.3980  178.2180  142.0950 C   0  0  0  0  0  0  0  0  0  0  0  0
  185.2560  178.5000  140.2780 C   0  0  0  0  0  0  0  0  0  0  0  0
  184.6720  177.0490  137.3450 C   0  0  0  0  0  1  0  0  0  0  0  0
  184.3680  178.6520  139.1670 N   0  0  0  0  0  0  0  0  0  0  0  0
  181.1800  180.2740  138.2680 C   0  0  0  0  0  2  0  0  0  0  0  0
  182.1590  177.2990  140.5980 C   0  0  0  0  0  1  0  0  0  0  0  0
  188.8740  177.8940  140.1550 C   0  0  0  0  0  3  0  0  0  0  0  0
  187.6020  178.1170  140.6860 C   0  0  0  0  0  0  0  0  0  0  0  0
  182.4310  178.6490  141.2540 C   0  0  2  0  0  3  0  0  0  0  0  0
  184.2160  178.6600  145.8050 O   0  0  0  0  0  0  0  0  0  0  0  0
  186.0200  179.3780  147.2110 C   0  0  0  0  0  1  0  0  0  0  0  0
  185.1490  178.2170  146.7810 C   0  0  0  0  0  2  0  0  0  0  0  0
  1  5  1  0  0  0  0
  2 16  1  0  0  0  0
  3 17  1  0  0  0  0
  4 12  1  0  0  0  0
  4  1  2  0  0  0  0
  5 11  2  0  0  0  0
  7 15  1  6  0  0  0
  7 27  1  0  0  0  0
  8  6  1  0  0  0  0
  8 11  1  0  0  0  0
  9 14  1  6  0  0  0
  9 22  1  0  0  0  0
  9  7  1  0  0  0  0
 10 21  1  1  0  0  0
 10  3  1  0  0  0  0
 10 22  1  0  0  0  0
 11 28  1  0  0  0  0
 12  8  2  0  0  0  0
 13  2  1  0  0  0  0
 14 23  1  0  0  0  0
 17 20  2  0  0  0  0
 17 26  1  0  0  0  0
 18 13  2  0  0  0  0
 19  1  1  0  0  0  0
 19  2  2  0  0  0  0
 20  4  1  0  0  0  0
 22 20  1  0  0  0  0
 23 15  1  0  0  0  0
 25 26  2  0  0  0  0
 25 18  1  0  0  0  0
 26 19  1  0  0  0  0
 27 24  1  6  0  0  0
 27 12  1  0  0  0  0
 28 30  1  0  0  0  0
 30 29  1  0  0  0  0
M  END
>  <MODEL>
4

>  <REMARK>
 VINA RESULT:      -7.8      3.522      6.280
  Name = 
  2 active torsions:
  status: ('A' for Active; 'I' for Inactive)
    1  A    between atoms: C_11  and  O_28
    2  A    between atoms: O_28  and  C_30
                            x       y       z     vdW  Elec       q    Type
                         _______ _______ _______ _____ _____    ______ ____

>  <TORSDO>
F 2

$$$$
=
 OpenBabel11122410293D

 30 35  0  0  1  0  0  0  0  0999 V2000
  187.8420  177.8720  142.6850 C   0  0  0  0  0  0  0  0  0  0  0  0
  186.7100  178.0700  144.9520 C   0  0  0  0  0  0  0  0  0  0  0  0
  184.2590  178.8090  140.7250 N   0  0  0  0  0  2  0  0  0  0  0  0
  187.7310  177.9320  141.2580 C   0  0  0  0  0  0  0  0  0  0  0  0
  189.0980  177.5940  143.2350 C   0  0  0  0  0  3  0  0  0  0  0  0
  191.2680  177.3300  140.2780 O   0  0  0  0  0  1  0  0  0  0  0  0
  187.9560  176.9180  138.2890 C   0  0  1  0  0  3  0  0  0  0  0  0
  190.1290  177.5010  141.0600 C   0  0  0  0  0  0  0  0  0  0  0  0
  186.4560  177.2190  138.3570 C   0  0  2  0  0  3  0  0  0  0  0  0
  184.6830  178.7380  139.3290 C   0  0  1  0  0  3  0  0  0  0  0  0
  190.2330  177.3990  142.4460 C   0  0  0  0  0  0  0  0  0  0  0  0
  188.8920  177.7770  140.4550 C   0  0  0  0  0  0  0  0  0  0  0  0
  185.5480  178.3580  145.6740 C   0  0  0  0  0  3  0  0  0  0  0  0
  186.0570  177.6100  136.9470 C   0  0  0  0  0  2  0  0  0  0  0  0
  188.3130  176.7790  136.8180 C   0  0  0  0  0  2  0  0  0  0  0  0
  188.1000  177.6530  145.9520 Cl  0  0  0  0  0  0  0  0  0  0  0  0
  185.3960  178.4840  141.5020 C   0  0  0  0  0  0  0  0  0  0  0  0
  184.3620  178.6910  145.0280 C   0  0  0  0  0  3  0  0  0  0  0  0
  186.6970  178.1170  143.5210 C   0  0  0  0  0  0  0  0  0  0  0  0
  186.4600  178.1900  140.7100 C   0  0  0  0  0  0  0  0  0  0  0  0
  184.6370  180.1280  138.7190 C   0  0  0  0  0  1  0  0  0  0  0  0
  186.0710  178.2460  139.3340 N   0  0  0  0  0  0  0  0  0  0  0  0
  187.0120  176.8630  136.0470 C   0  0  0  0  0  2  0  0  0  0  0  0
  188.6810  179.3790  138.5210 C   0  0  0  0  0  1  0  0  0  0  0  0
  184.3200  178.7360  143.6410 C   0  0  0  0  0  3  0  0  0  0  0  0
  185.4620  178.4510  142.8890 C   0  0  0  0  0  0  0  0  0  0  0  0
  188.8760  177.9320  138.9630 C   0  0  2  0  0  3  0  0  0  0  0  0
  191.4750  177.1130  143.0220 O   0  0  0  0  0  0  0  0  0  0  0  0
  191.6800  176.5330  145.3380 C   0  0  0  0  0  1  0  0  0  0  0  0
  191.6790  176.0250  143.9130 C   0  0  0  0  0  2  0  0  0  0  0  0
  1  5  1  0  0  0  0
  1 19  1  0  0  0  0
  2 13  1  0  0  0  0
  2 16  1  0  0  0  0
  3 17  1  0  0  0  0
  4  1  2  0  0  0  0
  6  8  1  0  0  0  0
  7 15  1  6  0  0  0
  7  9  1  0  0  0  0
  7 27  1  0  0  0  0
  8 11  1  0  0  0  0
  9 14  1  6  0  0  0
  9 22  1  0  0  0  0
 10 21  1  1  0  0  0
 10 22  1  0  0  0  0
 10  3  1  0  0  0  0
 11 28  1  0  0  0  0
 11  5  2  0  0  0  0
 12  8  2  0  0  0  0
 12  4  1  0  0  0  0
 17 26  1  0  0  0  0
 18 13  2  0  0  0  0
 19  2  2  0  0  0  0
 20  4  1  0  0  0  0
 20 17  2  0  0  0  0
 22 20  1  0  0  0  0
 23 15  1  0  0  0  0
 23 14  1  0  0  0  0
 25 18  1  0  0  0  0
 26 19  1  0  0  0  0
 26 25  2  0  0  0  0
 27 24  1  1  0  0  0
 27 12  1  0  0  0  0
 28 30  1  0  0  0  0
 30 29  1  0  0  0  0
M  END
>  <MODEL>
5

>  <REMARK>
 VINA RESULT:      -7.6      2.822      5.808
  Name = 
  2 active torsions:
  status: ('A' for Active; 'I' for Inactive)
    1  A    between atoms: C_11  and  O_28
    2  A    between atoms: O_28  and  C_30
                            x       y       z     vdW  Elec       q    Type
                         _______ _______ _______ _____ _____    ______ ____

>  <TORSDO>
F 2

$$$$
=
 OpenBabel11122410293D

 30 35  0  0  1  0  0  0  0  0999 V2000
  186.3420  178.2770  140.8780 C   0  0  0  0  0  0  0  0  0  0  0  0
  183.8850  178.8470  140.5660 C   0  0  0  0  0  0  0  0  0  0  0  0
  185.8700  178.1580  145.0400 N   0  0  0  0  0  2  0  0  0  0  0  0
  187.4250  178.0000  141.7730 C   0  0  0  0  0  0  0  0  0  0  0  0
  186.6020  178.2470  139.5030 C   0  0  0  0  0  3  0  0  0  0  0  0
  190.1510  177.2960  139.3430 O   0  0  0  0  0  1  0  0  0  0  0  0
  190.2640  178.3490  143.0820 C   0  0  1  0  0  3  0  0  0  0  0  0
  188.9020  177.6280  139.8620 C   0  0  0  0  0  0  0  0  0  0  0  0
  189.3760  178.5420  144.3130 C   0  0  2  0  0  3  0  0  0  0  0  0
  187.2330  177.8440  145.4620 C   0  0  1  0  0  3  0  0  0  0  0  0
  187.8630  177.9390  138.9880 C   0  0  0  0  0  0  0  0  0  0  0  0
  188.6970  177.6430  141.2520 C   0  0  0  0  0  0  0  0  0  0  0  0
  182.6370  179.0650  141.1570 C   0  0  0  0  0  3  0  0  0  0  0  0
  190.1980  178.0480  145.4890 C   0  0  0  0  0  2  0  0  0  0  0  0
  191.6770  178.1050  143.5890 C   0  0  0  0  0  2  0  0  0  0  0  0
  183.8910  178.9850  138.8100 Cl  0  0  0  0  0  0  0  0  0  0  0  0
  185.9030  178.2490  143.6270 C   0  0  0  0  0  0  0  0  0  0  0  0
  182.4700  179.0040  142.5360 C   0  0  0  0  0  3  0  0  0  0  0  0
  185.0240  178.5510  141.3830 C   0  0  0  0  0  0  0  0  0  0  0  0
  187.1620  178.0540  143.1560 C   0  0  0  0  0  0  0  0  0  0  0  0
  187.2640  176.4510  146.0650 C   0  0  0  0  0  1  0  0  0  0  0  0
  188.0680  177.8760  144.2490 N   0  0  0  0  0  0  0  0  0  0  0  0
  191.6340  178.2910  145.0920 C   0  0  0  0  0  2  0  0  0  0  0  0
  189.6520  175.8670  142.7620 C   0  0  0  0  0  1  0  0  0  0  0  0
  183.5600  178.7280  143.3510 C   0  0  0  0  0  3  0  0  0  0  0  0
  184.8220  178.5070  142.7950 C   0  0  0  0  0  0  0  0  0  0  0  0
  189.8490  177.2370  142.1210 C   0  0  2  0  0  3  0  0  0  0  0  0
  188.0980  177.9250  137.6090 O   0  0  0  0  0  0  0  0  0  0  0  0
  186.9470  177.7200  135.5170 C   0  0  0  0  0  1  0  0  0  0  0  0
  187.2820  178.6270  136.6820 C   0  0  0  0  0  2  0  0  0  0  0  0
  1 19  2  0  0  0  0
  1  4  1  0  0  0  0
  2 13  2  0  0  0  0
  2 19  1  0  0  0  0
  3 10  1  0  0  0  0
  4 20  2  0  0  0  0
  5  1  1  0  0  0  0
  6  8  1  0  0  0  0
  7 15  1  1  0  0  0
  7  9  1  0  0  0  0
  8 12  2  0  0  0  0
  9 14  1  1  0  0  0
 10 21  1  6  0  0  0
 11  5  2  0  0  0  0
 11  8  1  0  0  0  0
 12  4  1  0  0  0  0
 12 27  1  0  0  0  0
 13 18  1  0  0  0  0
 15 23  1  0  0  0  0
 16  2  1  0  0  0  0
 17  3  1  0  0  0  0
 18 25  2  0  0  0  0
 19 26  1  0  0  0  0
 20 17  1  0  0  0  0
 20 22  1  0  0  0  0
 22  9  1  0  0  0  0
 22 10  1  0  0  0  0
 23 14  1  0  0  0  0
 26 25  1  0  0  0  0
 26 17  2  0  0  0  0
 27 24  1  1  0  0  0
 27  7  1  0  0  0  0
 28 11  1  0  0  0  0
 29 30  1  0  0  0  0
 30 28  1  0  0  0  0
M  END
>  <MODEL>
6

>  <REMARK>
 VINA RESULT:      -7.6      2.630      5.790
  Name = 
  2 active torsions:
  status: ('A' for Active; 'I' for Inactive)
    1  A    between atoms: C_11  and  O_28
    2  A    between atoms: O_28  and  C_30
                            x       y       z     vdW  Elec       q    Type
                         _______ _______ _______ _____ _____    ______ ____

>  <TORSDO>
F 2

$$$$
=
 OpenBabel11122410293D

 30 35  0  0  1  0  0  0  0  0999 V2000
  187.6970  178.0130  139.7630 C   0  0  0  0  0  0  0  0  0  0  0  0
  185.5220  178.6820  138.6300 C   0  0  0  0  0  0  0  0  0  0  0  0
  185.9300  178.3670  143.5460 N   0  0  0  0  0  2  0  0  0  0  0  0
  188.4150  177.7740  140.9790 C   0  0  0  0  0  0  0  0  0  0  0  0
  188.3730  177.8210  138.5530 C   0  0  0  0  0  3  0  0  0  0  0  0
  191.6950  176.6630  139.6240 O   0  0  0  0  0  1  0  0  0  0  0  0
  190.7160  178.1020  143.0980 C   0  0  1  0  0  3  0  0  0  0  0  0
  190.3800  177.1170  139.6840 C   0  0  0  0  0  0  0  0  0  0  0  0
  189.5060  178.4760  143.9570 C   0  0  2  0  0  3  0  0  0  0  0  0
  187.0580  178.0250  144.4090 C   0  0  1  0  0  3  0  0  0  0  0  0
  189.7000  177.3900  138.4980 C   0  0  0  0  0  0  0  0  0  0  0  0
  189.7500  177.2930  140.9260 C   0  0  0  0  0  0  0  0  0  0  0  0
  184.1750  179.0310  138.7670 C   0  0  0  0  0  3  0  0  0  0  0  0
  189.8700  178.0660  145.3710 C   0  0  0  0  0  2  0  0  0  0  0  0
  191.8700  177.8370  144.0510 C   0  0  0  0  0  2  0  0  0  0  0  0
  186.0930  178.6300  136.9640 Cl  0  0  0  0  0  0  0  0  0  0  0  0
  186.4140  178.3050  142.2170 C   0  0  0  0  0  0  0  0  0  0  0  0
  183.5790  179.1280  140.0190 C   0  0  0  0  0  3  0  0  0  0  0  0
  186.3160  178.4120  139.7920 C   0  0  0  0  0  0  0  0  0  0  0  0
  187.7360  177.9910  142.1940 C   0  0  0  0  0  0  0  0  0  0  0  0
  186.7760  176.7060  145.1050 C   0  0  0  0  0  1  0  0  0  0  0  0
  188.2320  177.8810  143.5310 N   0  0  0  0  0  0  0  0  0  0  0  0
  191.3740  178.1850  145.4390 C   0  0  0  0  0  2  0  0  0  0  0  0
  190.0220  175.6390  142.8070 C   0  0  0  0  0  1  0  0  0  0  0  0
  184.3280  178.8800  141.1620 C   0  0  0  0  0  3  0  0  0  0  0  0
  185.6760  178.5310  141.0620 C   0  0  0  0  0  0  0  0  0  0  0  0
  190.5300  176.9190  142.1510 C   0  0  2  0  0  3  0  0  0  0  0  0
  190.3550  177.2150  137.2750 O   0  0  0  0  0  0  0  0  0  0  0  0
  190.6200  174.9160  136.6520 C   0  0  0  0  0  1  0  0  0  0  0  0
  189.9600  176.2380  136.3220 C   0  0  0  0  0  2  0  0  0  0  0  0
  1 19  2  0  0  0  0
  1  4  1  0  0  0  0
  2 13  2  0  0  0  0
  2 19  1  0  0  0  0
  3 10  1  0  0  0  0
  4 20  2  0  0  0  0
  5  1  1  0  0  0  0
  6  8  1  0  0  0  0
  7  9  1  0  0  0  0
  7 15  1  1  0  0  0
  8 12  2  0  0  0  0
  9 14  1  1  0  0  0
 10 21  1  6  0  0  0
 11  5  2  0  0  0  0
 11  8  1  0  0  0  0
 12  4  1  0  0  0  0
 12 27  1  0  0  0  0
 13 18  1  0  0  0  0
 14 23  1  0  0  0  0
 15 23  1  0  0  0  0
 16  2  1  0  0  0  0
 17  3  1  0  0  0  0
 18 25  2  0  0  0  0
 19 26  1  0  0  0  0
 20 17  1  0  0  0  0
 20 22  1  0  0  0  0
 22  9  1  0  0  0  0
 22 10  1  0  0  0  0
 26 25  1  0  0  0  0
 26 17  2  0  0  0  0
 27 24  1  1  0  0  0
 27  7  1  0  0  0  0
 28 11  1  0  0  0  0
 30 29  1  0  0  0  0
 30 28  1  0  0  0  0
M  END
>  <MODEL>
7

>  <REMARK>
 VINA RESULT:      -7.5      2.788      5.980
  Name = 
  2 active torsions:
  status: ('A' for Active; 'I' for Inactive)
    1  A    between atoms: C_11  and  O_28
    2  A    between atoms: O_28  and  C_30
                            x       y       z     vdW  Elec       q    Type
                         _______ _______ _______ _____ _____    ______ ____

>  <TORSDO>
F 2

$$$$
=
 OpenBabel11122410293D

 30 35  0  0  1  0  0  0  0  0999 V2000
  186.5730  178.2540  141.8030 C   0  0  0  0  0  0  0  0  0  0  0  0
  185.2850  178.5660  139.6340 C   0  0  0  0  0  0  0  0  0  0  0  0
  190.0260  177.1720  139.6900 N   0  0  0  0  0  2  0  0  0  0  0  0
  187.7990  177.8980  142.4510 C   0  0  0  0  0  0  0  0  0  0  0  0
  185.4940  178.6430  142.6050 C   0  0  0  0  0  3  0  0  0  0  0  0
  186.8860  178.5030  146.0060 O   0  0  0  0  0  1  0  0  0  0  0  0
  189.6880  176.3280  144.4170 C   0  0  1  0  0  3  0  0  0  0  0  0
  186.7930  178.4070  144.6200 C   0  0  0  0  0  0  0  0  0  0  0  0
  190.3750  176.0230  143.0840 C   0  0  2  0  0  3  0  0  0  0  0  0
  190.9530  176.9180  140.7900 C   0  0  1  0  0  3  0  0  0  0  0  0
  185.5850  178.7130  143.9960 C   0  0  0  0  0  0  0  0  0  0  0  0
  187.9080  178.0100  143.8630 C   0  0  0  0  0  0  0  0  0  0  0  0
  185.2990  178.5490  138.2360 C   0  0  0  0  0  3  0  0  0  0  0  0
  191.8460  175.8510  143.4170 C   0  0  0  0  0  2  0  0  0  0  0  0
  190.6750  175.9690  145.5160 C   0  0  0  0  0  2  0  0  0  0  0  0
  183.7290  179.0000  140.3390 Cl  0  0  0  0  0  0  0  0  0  0  0  0
  188.7930  177.5310  140.2850 C   0  0  0  0  0  0  0  0  0  0  0  0
  186.4480  178.2130  137.5310 C   0  0  0  0  0  3  0  0  0  0  0  0
  186.4690  178.2350  140.3680 C   0  0  0  0  0  0  0  0  0  0  0  0
  188.8740  177.4850  141.6400 C   0  0  0  0  0  0  0  0  0  0  0  0
  192.0470  177.9710  140.7780 C   0  0  0  0  0  1  0  0  0  0  0  0
  190.1720  177.0290  142.0340 N   0  0  0  0  0  0  0  0  0  0  0  0
  191.8690  175.3340  144.8350 C   0  0  0  0  0  2  0  0  0  0  0  0
  190.2310  178.8460  144.3690 C   0  0  0  0  0  1  0  0  0  0  0  0
  187.6080  177.8800  138.2180 C   0  0  0  0  0  3  0  0  0  0  0  0
  187.6280  177.8840  139.6140 C   0  0  0  0  0  0  0  0  0  0  0  0
  189.1870  177.7580  144.6040 C   0  0  2  0  0  3  0  0  0  0  0  0
  184.4880  179.0960  144.7750 O   0  0  0  0  0  0  0  0  0  0  0  0
  182.2350  178.6710  144.0800 C   0  0  0  0  0  1  0  0  0  0  0  0
  183.3290  179.7060  144.2250 C   0  0  0  0  0  2  0  0  0  0  0  0
  1  4  1  0  0  0  0
  1  5  2  0  0  0  0
  2 16  1  0  0  0  0
  2 19  1  0  0  0  0
  3 17  1  0  0  0  0
  3 10  1  0  0  0  0
  4 12  2  0  0  0  0
  5 11  1  0  0  0  0
  7 27  1  0  0  0  0
  7 15  1  1  0  0  0
  8  6  1  0  0  0  0
  9 14  1  1  0  0  0
  9  7  1  0  0  0  0
 10 21  1  1  0  0  0
 10 22  1  0  0  0  0
 11  8  2  0  0  0  0
 11 28  1  0  0  0  0
 12 27  1  0  0  0  0
 12  8  1  0  0  0  0
 13  2  2  0  0  0  0
 14 23  1  0  0  0  0
 17 20  2  0  0  0  0
 18 25  2  0  0  0  0
 18 13  1  0  0  0  0
 19  1  1  0  0  0  0
 20 22  1  0  0  0  0
 20  4  1  0  0  0  0
 22  9  1  0  0  0  0
 23 15  1  0  0  0  0
 25 26  1  0  0  0  0
 26 17  1  0  0  0  0
 26 19  2  0  0  0  0
 27 24  1  6  0  0  0
 29 30  1  0  0  0  0
 30 28  1  0  0  0  0
M  END
>  <MODEL>
8

>  <REMARK>
 VINA RESULT:      -7.4      3.219      7.180
  Name = 
  2 active torsions:
  status: ('A' for Active; 'I' for Inactive)
    1  A    between atoms: C_11  and  O_28
    2  A    between atoms: O_28  and  C_30
                            x       y       z     vdW  Elec       q    Type
                         _______ _______ _______ _____ _____    ______ ____

>  <TORSDO>
F 2

$$$$
=
 OpenBabel11122410293D

 30 35  0  0  1  0  0  0  0  0999 V2000
  185.6660  178.3830  142.6490 C   0  0  0  0  0  0  0  0  0  0  0  0
  185.3530  178.5290  140.1310 C   0  0  0  0  0  0  0  0  0  0  0  0
  189.8040  177.9110  142.1880 N   0  0  0  0  0  2  0  0  0  0  0  0
  186.5560  178.2140  143.7590 C   0  0  0  0  0  0  0  0  0  0  0  0
  184.3070  178.5780  142.9200 C   0  0  0  0  0  3  0  0  0  0  0  0
  184.1800  178.5920  146.5950 O   0  0  0  0  0  1  0  0  0  0  0  0
  187.6850  176.9280  146.3970 C   0  0  1  0  0  3  0  0  0  0  0  0
  184.6820  178.5120  145.2990 C   0  0  0  0  0  0  0  0  0  0  0  0
  188.8980  176.7630  145.4780 C   0  0  2  0  0  3  0  0  0  0  0  0
  190.2240  177.7860  143.5820 C   0  0  1  0  0  3  0  0  0  0  0  0
  183.8060  178.6330  144.2220 C   0  0  0  0  0  0  0  0  0  0  0  0
  186.0550  178.3140  145.0840 C   0  0  0  0  0  0  0  0  0  0  0  0
  185.9430  178.5430  138.8640 C   0  0  0  0  0  3  0  0  0  0  0  0
  190.1090  176.8220  146.3910 C   0  0  0  0  0  2  0  0  0  0  0  0
  188.1750  176.7080  147.8200 C   0  0  0  0  0  2  0  0  0  0  0  0
  183.5990  178.6940  140.1160 Cl  0  0  0  0  0  0  0  0  0  0  0  0
  188.3960  178.0560  142.2090 C   0  0  0  0  0  0  0  0  0  0  0  0
  187.3180  178.4100  138.7070 C   0  0  0  0  0  3  0  0  0  0  0  0
  186.1660  178.3770  141.3000 C   0  0  0  0  0  0  0  0  0  0  0  0
  187.9190  177.9960  143.4790 C   0  0  0  0  0  0  0  0  0  0  0  0
  191.0490  179.0010  143.9690 C   0  0  0  0  0  1  0  0  0  0  0  0
  188.9930  177.7460  144.3900 N   0  0  0  0  0  0  0  0  0  0  0  0
  189.6260  176.2870  147.7170 C   0  0  0  0  0  2  0  0  0  0  0  0
  187.8050  179.5000  146.4560 C   0  0  0  0  0  1  0  0  0  0  0  0
  188.1290  178.2530  139.8240 C   0  0  0  0  0  3  0  0  0  0  0  0
  187.5720  178.2310  141.1040 C   0  0  0  0  0  0  0  0  0  0  0  0
  186.9380  178.2550  146.2950 C   0  0  2  0  0  3  0  0  0  0  0  0
  182.4410  178.8200  144.4640 O   0  0  0  0  0  0  0  0  0  0  0  0
  180.1330  178.5270  143.8900 C   0  0  0  0  0  1  0  0  0  0  0  0
  181.4910  179.0020  143.4230 C   0  0  0  0  0  2  0  0  0  0  0  0
  1  5  2  0  0  0  0
  1  4  1  0  0  0  0
  2 19  1  0  0  0  0
  3 17  1  0  0  0  0
  3 10  1  0  0  0  0
  4 12  2  0  0  0  0
  5 11  1  0  0  0  0
  7 15  1  1  0  0  0
  8  6  1  0  0  0  0
  9 14  1  1  0  0  0
  9  7  1  0  0  0  0
 10 21  1  1  0  0  0
 10 22  1  0  0  0  0
 11 28  1  0  0  0  0
 11  8  2  0  0  0  0
 12  8  1  0  0  0  0
 12 27  1  0  0  0  0
 13  2  2  0  0  0  0
 14 23  1  0  0  0  0
 16  2  1  0  0  0  0
 17 20  2  0  0  0  0
 18 13  1  0  0  0  0
 18 25  2  0  0  0  0
 19  1  1  0  0  0  0
 20  4  1  0  0  0  0
 20 22  1  0  0  0  0
 22  9  1  0  0  0  0
 23 15  1  0  0  0  0
 25 26  1  0  0  0  0
 26 19  2  0  0  0  0
 26 17  1  0  0  0  0
 27  7  1  0  0  0  0
 27 24  1  6  0  0  0
 30 29  1  0  0  0  0
 30 28  1  0  0  0  0
M  END
>  <MODEL>
9

>  <REMARK>
 VINA RESULT:      -7.2      3.058      6.590
  Name = 
  2 active torsions:
  status: ('A' for Active; 'I' for Inactive)
    1  A    between atoms: C_11  and  O_28
    2  A    between atoms: O_28  and  C_30
                            x       y       z     vdW  Elec       q    Type
                         _______ _______ _______ _____ _____    ______ ____

>  <TORSDO>
F 2

$$$$
