=
 OpenBabel11122410333D

 30 35  0  0  1  0  0  0  0  0999 V2000
  187.0920  178.2000  142.8600 C   0  0  0  0  0  0  0  0  0  0  0  0
  184.6670  178.7450  142.5950 C   0  0  0  0  0  0  0  0  0  0  0  0
  186.6410  177.8970  147.0200 N   0  0  0  0  0  2  0  0  0  0  0  0
  188.1740  177.7980  143.7010 C   0  0  0  0  0  0  0  0  0  0  0  0
  187.3860  178.5530  141.4280 C   0  0  0  0  0  2  0  0  0  0  0  0
  190.7630  177.5230  141.1650 O   0  0  0  0  0  0  0  0  0  0  0  0
  190.8740  176.8470  145.1290 C   0  0  1  0  0  3  0  0  0  0  0  0
  189.6070  177.5400  141.6720 C   0  0  0  0  0  0  0  0  0  0  0  0
  189.8310  176.4930  146.1360 C   0  0  1  0  0  3  0  0  0  0  0  0
  187.9890  177.6140  147.4880 C   0  0  2  0  0  3  0  0  0  0  0  0
  188.3940  177.6140  140.7950 C   0  0  2  0  0  3  0  0  0  0  0  0
  189.4400  177.3940  143.0950 N   0  0  0  0  0  0  0  0  0  0  0  0
  183.4110  178.9370  143.1780 C   0  0  0  0  0  3  0  0  0  0  0  0
  190.6550  176.2870  147.3740 C   0  0  0  0  0  2  0  0  0  0  0  0
  192.0450  176.1410  145.4410 O   0  0  0  0  0  0  0  0  0  0  0  0
  184.7570  178.8740  141.2470 F   0  0  0  0  0  0  0  0  0  0  0  0
  186.6760  177.9580  145.6060 C   0  0  0  0  0  0  0  0  0  0  0  0
  183.2390  178.8000  144.5530 C   0  0  0  0  0  3  0  0  0  0  0  0
  185.7870  178.4030  143.3980 C   0  0  0  0  0  0  0  0  0  0  0  0
  187.9310  177.7530  145.0960 C   0  0  0  0  0  0  0  0  0  0  0  0
  188.4100  178.6660  148.4940 C   0  0  0  0  0  1  0  0  0  0  0  0
  188.8970  177.6820  146.2440 C   0  0  2  0  0  3  0  0  0  0  0  0
  192.0500  176.0230  146.8430 C   0  0  0  0  0  2  0  0  0  0  0  0
  190.7770  175.4760  143.1910 O   0  0  0  0  0  0  0  0  0  0  0  0
  184.3230  178.4650  145.3600 C   0  0  0  0  0  3  0  0  0  0  0  0
  185.5870  178.2610  144.7960 C   0  0  0  0  0  0  0  0  0  0  0  0
  190.3770  176.5270  143.7640 C   0  0  0  0  0  0  0  0  0  0  0  0
  188.7300  178.0930  139.3860 C   0  0  0  0  0  2  0  0  0  0  0  0
  187.9040  178.9590  137.4700 O   0  0  0  0  0  1  0  0  0  0  0  0
  187.5340  178.5740  138.7140 N   0  0  0  0  0  2  0  0  0  0  0  0
  1 19  2  0  0  0  0
  1  4  1  0  0  0  0
  2 13  2  0  0  0  0
  2 19  1  0  0  0  0
  3 10  1  0  0  0  0
  4 20  2  0  0  0  0
  5  1  1  0  0  0  0
  6  8  2  0  0  0  0
  7 27  1  6  0  0  0
  7 15  1  0  0  0  0
  7  9  1  0  0  0  0
  8 12  1  0  0  0  0
  9 22  1  0  0  0  0
  9 14  1  1  0  0  0
 10 21  1  1  0  0  0
 11 28  1  6  0  0  0
 11  5  1  0  0  0  0
 11  8  1  0  0  0  0
 12  4  1  0  0  0  0
 12 27  1  0  0  0  0
 13 18  1  0  0  0  0
 15 23  1  0  0  0  0
 16  2  1  0  0  0  0
 17  3  1  0  0  0  0
 18 25  2  0  0  0  0
 19 26  1  0  0  0  0
 20 17  1  0  0  0  0
 22 20  1  6  0  0  0
 22 10  1  0  0  0  0
 23 14  1  0  0  0  0
 24 27  2  0  0  0  0
 26 25  1  0  0  0  0
 26 17  2  0  0  0  0
 29 30  1  0  0  0  0
 30 28  1  0  0  0  0
M  END
>  <MODEL>
1

>  <REMARK>
 VINA RESULT:     -12.0      0.000      0.000
  Name = 
  2 active torsions:
  status: ('A' for Active; 'I' for Inactive)
    1  A    between atoms: C_11  and  C_28
    2  A    between atoms: C_28  and  N_30
                            x       y       z     vdW  Elec       q    Type
                         _______ _______ _______ _____ _____    ______ ____

>  <TORSDO>
F 2

$$$$
=
 OpenBabel11122410333D

 30 35  0  0  1  0  0  0  0  0999 V2000
  187.6210  178.0420  142.4860 C   0  0  0  0  0  0  0  0  0  0  0  0
  185.2610  178.5270  141.8220 C   0  0  0  0  0  0  0  0  0  0  0  0
  186.5280  177.9010  146.5340 N   0  0  0  0  0  2  0  0  0  0  0  0
  188.5630  177.6980  143.5020 C   0  0  0  0  0  0  0  0  0  0  0  0
  188.1310  178.3430  141.1030 C   0  0  0  0  0  2  0  0  0  0  0  0
  191.5210  177.3710  141.4150 O   0  0  0  0  0  0  0  0  0  0  0  0
  191.0190  176.8610  145.3740 C   0  0  1  0  0  3  0  0  0  0  0  0
  190.3000  177.3860  141.7340 C   0  0  0  0  0  0  0  0  0  0  0  0
  189.8360  176.5270  146.2210 C   0  0  1  0  0  3  0  0  0  0  0  0
  187.7890  177.6650  147.2180 C   0  0  2  0  0  3  0  0  0  0  0  0
  189.2390  177.3990  140.6770 C   0  0  2  0  0  3  0  0  0  0  0  0
  189.9140  177.2950  143.1190 N   0  0  0  0  0  0  0  0  0  0  0  0
  183.9260  178.7170  142.1930 C   0  0  0  0  0  3  0  0  0  0  0  0
  190.4580  176.3880  147.5790 C   0  0  0  0  0  2  0  0  0  0  0  0
  192.1360  176.1920  145.8950 O   0  0  0  0  0  0  0  0  0  0  0  0
  185.5590  178.6020  140.5010 F   0  0  0  0  0  0  0  0  0  0  0  0
  186.7830  177.9040  145.1420 C   0  0  0  0  0  0  0  0  0  0  0  0
  183.5420  178.6320  143.5290 C   0  0  0  0  0  3  0  0  0  0  0  0
  186.2450  178.2410  142.8040 C   0  0  0  0  0  0  0  0  0  0  0  0
  188.1060  177.7040  144.8430 C   0  0  0  0  0  0  0  0  0  0  0  0
  188.0330  178.7660  148.2300 C   0  0  0  0  0  1  0  0  0  0  0  0
  188.8800  177.7010  146.1290 C   0  0  2  0  0  3  0  0  0  0  0  0
  191.9220  176.1320  147.2850 C   0  0  0  0  0  2  0  0  0  0  0  0
  191.2460  175.4100  143.5060 O   0  0  0  0  0  0  0  0  0  0  0  0
  184.4910  178.3530  144.5090 C   0  0  0  0  0  3  0  0  0  0  0  0
  185.8300  178.1520  144.1590 C   0  0  0  0  0  0  0  0  0  0  0  0
  190.7460  176.4750  143.9630 C   0  0  0  0  0  0  0  0  0  0  0  0
  189.7850  177.8270  139.3180 C   0  0  0  0  0  2  0  0  0  0  0  0
  190.4370  175.7510  138.7070 O   0  0  0  0  0  1  0  0  0  0  0  0
  189.6120  176.7620  138.3430 N   0  0  0  0  0  2  0  0  0  0  0  0
  1 19  2  0  0  0  0
  1  4  1  0  0  0  0
  2 13  2  0  0  0  0
  2 19  1  0  0  0  0
  3 10  1  0  0  0  0
  4 20  2  0  0  0  0
  5  1  1  0  0  0  0
  6  8  2  0  0  0  0
  7 27  1  6  0  0  0
  7 15  1  0  0  0  0
  7  9  1  0  0  0  0
  8 12  1  0  0  0  0
  9 14  1  1  0  0  0
 10 21  1  1  0  0  0
 11 28  1  6  0  0  0
 11  5  1  0  0  0  0
 11  8  1  0  0  0  0
 12  4  1  0  0  0  0
 12 27  1  0  0  0  0
 13 18  1  0  0  0  0
 15 23  1  0  0  0  0
 16  2  1  0  0  0  0
 17  3  1  0  0  0  0
 18 25  2  0  0  0  0
 19 26  1  0  0  0  0
 20 17  1  0  0  0  0
 22 20  1  6  0  0  0
 22  9  1  0  0  0  0
 22 10  1  0  0  0  0
 23 14  1  0  0  0  0
 24 27  2  0  0  0  0
 26 25  1  0  0  0  0
 26 17  2  0  0  0  0
 30 29  1  0  0  0  0
 30 28  1  0  0  0  0
M  END
>  <MODEL>
2

>  <REMARK>
 VINA RESULT:     -11.6      1.124      1.145
  Name = 
  2 active torsions:
  status: ('A' for Active; 'I' for Inactive)
    1  A    between atoms: C_11  and  C_28
    2  A    between atoms: C_28  and  N_30
                            x       y       z     vdW  Elec       q    Type
                         _______ _______ _______ _____ _____    ______ ____

>  <TORSDO>
F 2

$$$$
=
 OpenBabel11122410333D

 30 35  0  0  1  0  0  0  0  0999 V2000
  187.9190  177.6100  143.9440 C   0  0  0  0  0  0  0  0  0  0  0  0
  187.7480  177.8360  146.4270 C   0  0  0  0  0  0  0  0  0  0  0  0
  183.9400  178.8570  143.4860 N   0  0  0  0  0  2  0  0  0  0  0  0
  187.3400  177.7980  142.6530 C   0  0  0  0  0  0  0  0  0  0  0  0
  189.2450  176.9050  144.0430 C   0  0  0  0  0  2  0  0  0  0  0  0
  190.1580  176.7170  140.6270 O   0  0  0  0  0  0  0  0  0  0  0  0
  186.5260  178.0880  139.5720 C   0  0  1  0  0  3  0  0  0  0  0  0
  189.5270  177.1740  141.6210 C   0  0  0  0  0  0  0  0  0  0  0  0
  185.5190  178.9520  140.2570 C   0  0  1  0  0  3  0  0  0  0  0  0
  183.7220  178.7760  142.0500 C   0  0  2  0  0  3  0  0  0  0  0  0
  190.2060  177.3250  142.9470 C   0  0  2  0  0  3  0  0  0  0  0  0
  188.1740  177.6440  141.4640 N   0  0  0  0  0  0  0  0  0  0  0  0
  186.9890  178.1800  147.5500 C   0  0  0  0  0  3  0  0  0  0  0  0
  184.4800  179.1210  139.1880 C   0  0  0  0  0  2  0  0  0  0  0  0
  186.5410  178.4250  138.2100 O   0  0  0  0  0  0  0  0  0  0  0  0
  189.0230  177.4220  146.6370 F   0  0  0  0  0  0  0  0  0  0  0  0
  185.2880  178.5110  143.7410 C   0  0  0  0  0  0  0  0  0  0  0  0
  185.6800  178.6340  147.4100 C   0  0  0  0  0  3  0  0  0  0  0  0
  187.1950  177.9500  145.1250 C   0  0  0  0  0  0  0  0  0  0  0  0
  185.9800  178.1940  142.6010 C   0  0  0  0  0  0  0  0  0  0  0  0
  182.5450  177.8640  141.7650 C   0  0  0  0  0  1  0  0  0  0  0  0
  185.0100  178.1740  141.4550 C   0  0  2  0  0  3  0  0  0  0  0  0
  185.2220  178.8100  137.9050 C   0  0  0  0  0  2  0  0  0  0  0  0
  188.7160  179.0070  139.6400 O   0  0  0  0  0  0  0  0  0  0  0  0
  185.1170  178.7530  146.1420 C   0  0  0  0  0  3  0  0  0  0  0  0
  185.8620  178.4220  145.0050 C   0  0  0  0  0  0  0  0  0  0  0  0
  187.8580  178.2760  140.2070 C   0  0  0  0  0  0  0  0  0  0  0  0
  191.4830  176.4950  143.0390 C   0  0  0  0  0  2  0  0  0  0  0  0
  192.2120  174.7700  144.3030 O   0  0  0  0  0  1  0  0  0  0  0  0
  191.6790  176.0110  144.3960 N   0  0  0  0  0  2  0  0  0  0  0  0
  1  5  1  0  0  0  0
  1 19  1  0  0  0  0
  2 16  1  0  0  0  0
  2 13  1  0  0  0  0
  3 17  1  0  0  0  0
  4  1  2  0  0  0  0
  6  8  2  0  0  0  0
  7 15  1  6  0  0  0
  7 27  1  0  0  0  0
  7  9  1  0  0  0  0
  8 11  1  0  0  0  0
  9 14  1  6  0  0  0
  9 22  1  0  0  0  0
 10 21  1  1  0  0  0
 10  3  1  0  0  0  0
 11 28  1  6  0  0  0
 11  5  1  0  0  0  0
 12  8  1  0  0  0  0
 12  4  1  0  0  0  0
 17 26  1  0  0  0  0
 18 13  2  0  0  0  0
 19  2  2  0  0  0  0
 20  4  1  0  0  0  0
 20 17  2  0  0  0  0
 22 10  1  0  0  0  0
 22 20  1  1  0  0  0
 23 15  1  0  0  0  0
 23 14  1  0  0  0  0
 24 27  2  0  0  0  0
 25 18  1  0  0  0  0
 26 19  1  0  0  0  0
 26 25  2  0  0  0  0
 27 12  1  0  0  0  0
 28 30  1  0  0  0  0
 29 30  1  0  0  0  0
M  END
>  <MODEL>
3

>  <REMARK>
 VINA RESULT:     -10.2      2.274      5.837
  Name = 
  2 active torsions:
  status: ('A' for Active; 'I' for Inactive)
    1  A    between atoms: C_11  and  C_28
    2  A    between atoms: C_28  and  N_30
                            x       y       z     vdW  Elec       q    Type
                         _______ _______ _______ _____ _____    ______ ____

>  <TORSDO>
F 2

$$$$
=
 OpenBabel11122410333D

 30 35  0  0  1  0  0  0  0  0999 V2000
  186.8640  177.8020  144.2900 C   0  0  0  0  0  0  0  0  0  0  0  0
  184.4790  178.5180  144.5050 C   0  0  0  0  0  0  0  0  0  0  0  0
  186.7420  178.4020  140.1390 N   0  0  0  0  0  2  0  0  0  0  0  0
  188.0270  177.6390  143.4770 C   0  0  0  0  0  0  0  0  0  0  0  0
  186.9030  177.3100  145.7110 C   0  0  0  0  0  2  0  0  0  0  0  0
  190.3400  176.5300  146.0530 O   0  0  0  0  0  0  0  0  0  0  0  0
  190.8850  177.1710  142.1180 C   0  0  1  0  0  3  0  0  0  0  0  0
  189.3410  177.1000  145.5320 C   0  0  0  0  0  0  0  0  0  0  0  0
  190.1830  178.0220  141.1130 C   0  0  1  0  0  3  0  0  0  0  0  0
  188.0680  177.9950  139.6980 C   0  0  2  0  0  3  0  0  0  0  0  0
  188.2250  177.6110  146.3910 C   0  0  2  0  0  3  0  0  0  0  0  0
  189.3090  177.3480  144.1130 N   0  0  0  0  0  0  0  0  0  0  0  0
  183.3100  178.9880  143.9000 C   0  0  0  0  0  3  0  0  0  0  0  0
  191.0370  177.8280  139.8950 C   0  0  0  0  0  2  0  0  0  0  0  0
  192.2610  177.2150  141.8470 O   0  0  0  0  0  0  0  0  0  0  0  0
  184.4550  178.3250  145.8480 F   0  0  0  0  0  0  0  0  0  0  0  0
  186.7020  178.2930  141.5500 C   0  0  0  0  0  0  0  0  0  0  0  0
  183.2670  179.2310  142.5290 C   0  0  0  0  0  3  0  0  0  0  0  0
  185.6450  178.2840  143.7290 C   0  0  0  0  0  0  0  0  0  0  0  0
  187.8790  177.8370  142.0820 C   0  0  0  0  0  0  0  0  0  0  0  0
  187.9440  176.9000  138.6580 C   0  0  0  0  0  1  0  0  0  0  0  0
  188.7870  177.4530  140.9490 C   0  0  2  0  0  3  0  0  0  0  0  0
  192.3640  177.3530  140.4510 C   0  0  0  0  0  2  0  0  0  0  0  0
  191.4210  178.3570  144.1070 O   0  0  0  0  0  0  0  0  0  0  0  0
  184.3990  179.0080  141.7480 C   0  0  0  0  0  3  0  0  0  0  0  0
  185.5820  178.5450  142.3350 C   0  0  0  0  0  0  0  0  0  0  0  0
  190.5710  177.6580  143.4890 C   0  0  0  0  0  0  0  0  0  0  0  0
  188.2400  176.9900  147.7840 C   0  0  0  0  0  2  0  0  0  0  0  0
  189.5120  178.5560  148.8010 O   0  0  0  0  0  1  0  0  0  0  0  0
  188.2640  178.0280  148.8030 N   0  0  0  0  0  2  0  0  0  0  0  0
  1  5  1  0  0  0  0
  2 16  1  0  0  0  0
  3 17  1  0  0  0  0
  4 12  1  0  0  0  0
  4  1  2  0  0  0  0
  5 11  1  0  0  0  0
  7 15  1  6  0  0  0
  7 27  1  0  0  0  0
  8  6  2  0  0  0  0
  8 11  1  0  0  0  0
  9 14  1  6  0  0  0
  9  7  1  0  0  0  0
 10 21  1  6  0  0  0
 10  3  1  0  0  0  0
 10 22  1  0  0  0  0
 11 28  1  1  0  0  0
 12  8  1  0  0  0  0
 13  2  1  0  0  0  0
 14 23  1  0  0  0  0
 17 20  2  0  0  0  0
 17 26  1  0  0  0  0
 18 13  2  0  0  0  0
 19  1  1  0  0  0  0
 19  2  2  0  0  0  0
 20  4  1  0  0  0  0
 22  9  1  0  0  0  0
 22 20  1  1  0  0  0
 23 15  1  0  0  0  0
 25 26  2  0  0  0  0
 25 18  1  0  0  0  0
 26 19  1  0  0  0  0
 27 24  2  0  0  0  0
 27 12  1  0  0  0  0
 28 30  1  0  0  0  0
 29 30  1  0  0  0  0
M  END
>  <MODEL>
4

>  <REMARK>
 VINA RESULT:     -10.1      2.004      5.404
  Name = 
  2 active torsions:
  status: ('A' for Active; 'I' for Inactive)
    1  A    between atoms: C_11  and  C_28
    2  A    between atoms: C_28  and  N_30
                            x       y       z     vdW  Elec       q    Type
                         _______ _______ _______ _____ _____    ______ ____

>  <TORSDO>
F 2

$$$$
=
 OpenBabel11122410333D

 30 35  0  0  1  0  0  0  0  0999 V2000
  185.8800  178.5790  142.0280 C   0  0  0  0  0  0  0  0  0  0  0  0
  184.3180  178.6400  143.9780 C   0  0  0  0  0  0  0  0  0  0  0  0
  189.1380  177.8600  144.5710 N   0  0  0  0  0  2  0  0  0  0  0  0
  187.1900  178.3400  141.5130 C   0  0  0  0  0  0  0  0  0  0  0  0
  184.8230  179.0980  141.0920 C   0  0  0  0  0  2  0  0  0  0  0  0
  186.4800  178.8000  137.9780 O   0  0  0  0  0  0  0  0  0  0  0  0
  189.8960  177.8470  139.8790 C   0  0  1  0  0  3  0  0  0  0  0  0
  186.2780  178.5410  139.1970 C   0  0  0  0  0  0  0  0  0  0  0  0
  190.1900  177.2080  141.1960 C   0  0  1  0  0  3  0  0  0  0  0  0
  190.2750  177.8200  143.6640 C   0  0  2  0  0  3  0  0  0  0  0  0
  184.8810  178.4370  139.7290 C   0  0  2  0  0  3  0  0  0  0  0  0
  187.3870  178.2510  140.0690 N   0  0  0  0  0  0  0  0  0  0  0  0
  184.1170  178.5250  145.3560 C   0  0  0  0  0  3  0  0  0  0  0  0
  191.6850  177.0760  141.1460 C   0  0  0  0  0  2  0  0  0  0  0  0
  190.8250  177.3700  138.9410 O   0  0  0  0  0  0  0  0  0  0  0  0
  183.2310  178.8910  143.2060 F   0  0  0  0  0  0  0  0  0  0  0  0
  187.9690  178.0390  143.7950 C   0  0  0  0  0  0  0  0  0  0  0  0
  185.1830  178.2460  146.2090 C   0  0  0  0  0  3  0  0  0  0  0  0
  185.6140  178.4700  143.4250 C   0  0  0  0  0  0  0  0  0  0  0  0
  188.2310  178.1350  142.4530 C   0  0  0  0  0  0  0  0  0  0  0  0
  191.3000  178.8530  144.0880 C   0  0  0  0  0  1  0  0  0  0  0  0
  189.7210  178.1710  142.2690 C   0  0  2  0  0  3  0  0  0  0  0  0
  192.0080  177.1440  139.6680 C   0  0  0  0  0  2  0  0  0  0  0  0
  188.2790  176.6430  138.6210 O   0  0  0  0  0  0  0  0  0  0  0  0
  186.4630  178.0760  145.6880 C   0  0  0  0  0  3  0  0  0  0  0  0
  186.6840  178.1790  144.3100 C   0  0  0  0  0  0  0  0  0  0  0  0
  188.4960  177.5420  139.4800 C   0  0  0  0  0  0  0  0  0  0  0  0
  183.8600  179.0850  138.7980 C   0  0  0  0  0  2  0  0  0  0  0  0
  182.6150  180.9620  138.6260 O   0  0  0  0  0  1  0  0  0  0  0  0
  183.8460  180.5270  138.9860 N   0  0  0  0  0  2  0  0  0  0  0  0
  1 19  1  0  0  0  0
  2 13  1  0  0  0  0
  4  1  2  0  0  0  0
  4 20  1  0  0  0  0
  5  1  1  0  0  0  0
  6  8  2  0  0  0  0
  7 15  1  6  0  0  0
  7  9  1  0  0  0  0
  8 11  1  0  0  0  0
  8 12  1  0  0  0  0
  9 14  1  1  0  0  0
  9 22  1  0  0  0  0
 10 21  1  1  0  0  0
 10  3  1  0  0  0  0
 11 28  1  6  0  0  0
 11  5  1  0  0  0  0
 12  4  1  0  0  0  0
 13 18  2  0  0  0  0
 15 23  1  0  0  0  0
 16  2  1  0  0  0  0
 17 26  1  0  0  0  0
 17  3  1  0  0  0  0
 19  2  2  0  0  0  0
 19 26  1  0  0  0  0
 20 17  2  0  0  0  0
 22 20  1  1  0  0  0
 22 10  1  0  0  0  0
 23 14  1  0  0  0  0
 24 27  2  0  0  0  0
 25 18  1  0  0  0  0
 26 25  2  0  0  0  0
 27  7  1  0  0  0  0
 27 12  1  0  0  0  0
 28 30  1  0  0  0  0
 29 30  1  0  0  0  0
M  END
>  <MODEL>
5

>  <REMARK>
 VINA RESULT:     -10.0      2.445      4.195
  Name = 
  2 active torsions:
  status: ('A' for Active; 'I' for Inactive)
    1  A    between atoms: C_11  and  C_28
    2  A    between atoms: C_28  and  N_30
                            x       y       z     vdW  Elec       q    Type
                         _______ _______ _______ _____ _____    ______ ____

>  <TORSDO>
F 2

$$$$
=
 OpenBabel11122410333D

 30 35  0  0  1  0  0  0  0  0999 V2000
  185.9090  178.3020  142.7460 C   0  0  0  0  0  0  0  0  0  0  0  0
  186.8390  178.1710  145.0630 C   0  0  0  0  0  0  0  0  0  0  0  0
  182.0370  178.8690  144.2570 N   0  0  0  0  0  2  0  0  0  0  0  0
  184.8000  178.5490  141.8820 C   0  0  0  0  0  0  0  0  0  0  0  0
  187.2050  177.8370  142.1390 C   0  0  0  0  0  2  0  0  0  0  0  0
  186.5160  178.2570  138.6920 O   0  0  0  0  0  0  0  0  0  0  0  0
  182.6740  179.0850  139.5520 C   0  0  1  0  0  3  0  0  0  0  0  0
  186.3500  178.4630  139.9270 C   0  0  0  0  0  0  0  0  0  0  0  0
  181.9950  179.6600  140.7500 C   0  0  1  0  0  3  0  0  0  0  0  0
  181.2120  178.9360  143.0610 C   0  0  2  0  0  3  0  0  0  0  0  0
  187.5290  178.5590  140.8460 C   0  0  2  0  0  3  0  0  0  0  0  0
  185.0290  178.7000  140.4480 N   0  0  0  0  0  0  0  0  0  0  0  0
  186.6280  178.2260  146.4430 C   0  0  0  0  0  3  0  0  0  0  0  0
  180.5770  179.7770  140.2730 C   0  0  0  0  0  2  0  0  0  0  0  0
  182.0470  179.5920  138.4040 O   0  0  0  0  0  0  0  0  0  0  0  0
  188.1090  177.9670  144.6320 F   0  0  0  0  0  0  0  0  0  0  0  0
  183.3850  178.7380  143.8480 C   0  0  0  0  0  0  0  0  0  0  0  0
  185.3540  178.4540  146.9590 C   0  0  0  0  0  3  0  0  0  0  0  0
  185.7550  178.3510  144.1630 C   0  0  0  0  0  0  0  0  0  0  0  0
  183.5260  178.7000  142.4850 C   0  0  0  0  0  0  0  0  0  0  0  0
  180.1330  177.8740  143.1260 C   0  0  0  0  0  1  0  0  0  0  0  0
  182.1550  178.6550  141.8740 C   0  0  2  0  0  3  0  0  0  0  0  0
  180.6980  179.7720  138.7630 C   0  0  0  0  0  2  0  0  0  0  0  0
  184.5580  180.3620  138.8680 O   0  0  0  0  0  0  0  0  0  0  0  0
  184.2770  178.6330  146.0950 C   0  0  0  0  0  3  0  0  0  0  0  0
  184.4670  178.5900  144.7100 C   0  0  0  0  0  0  0  0  0  0  0  0
  184.1220  179.4230  139.5910 C   0  0  0  0  0  0  0  0  0  0  0  0
  188.7920  177.9650  140.2280 C   0  0  0  0  0  2  0  0  0  0  0  0
  190.3560  176.3560  140.4950 O   0  0  0  0  0  1  0  0  0  0  0  0
  189.4780  177.1180  141.1900 N   0  0  0  0  0  2  0  0  0  0  0  0
  1 19  1  0  0  0  0
  2 13  1  0  0  0  0
  4 20  1  0  0  0  0
  4  1  2  0  0  0  0
  5  1  1  0  0  0  0
  6  8  2  0  0  0  0
  7 15  1  6  0  0  0
  7 27  1  0  0  0  0
  7  9  1  0  0  0  0
  8 12  1  0  0  0  0
  8 11  1  0  0  0  0
  9 14  1  6  0  0  0
  9 22  1  0  0  0  0
 10 21  1  1  0  0  0
 10  3  1  0  0  0  0
 11 28  1  6  0  0  0
 11  5  1  0  0  0  0
 12  4  1  0  0  0  0
 13 18  2  0  0  0  0
 15 23  1  0  0  0  0
 16  2  1  0  0  0  0
 17  3  1  0  0  0  0
 17 26  1  0  0  0  0
 19 26  1  0  0  0  0
 19  2  2  0  0  0  0
 20 17  2  0  0  0  0
 22 20  1  1  0  0  0
 22 10  1  0  0  0  0
 23 14  1  0  0  0  0
 24 27  2  0  0  0  0
 25 18  1  0  0  0  0
 26 25  2  0  0  0  0
 27 12  1  0  0  0  0
 28 30  1  0  0  0  0
 29 30  1  0  0  0  0
M  END
>  <MODEL>
6

>  <REMARK>
 VINA RESULT:      -9.9      2.817      6.773
  Name = 
  2 active torsions:
  status: ('A' for Active; 'I' for Inactive)
    1  A    between atoms: C_11  and  C_28
    2  A    between atoms: C_28  and  N_30
                            x       y       z     vdW  Elec       q    Type
                         _______ _______ _______ _____ _____    ______ ____

>  <TORSDO>
F 2

$$$$
=
 OpenBabel11122410333D

 30 35  0  0  1  0  0  0  0  0999 V2000
  185.1100  178.4440  142.1740 C   0  0  0  0  0  0  0  0  0  0  0  0
  184.9580  178.7610  139.6990 C   0  0  0  0  0  0  0  0  0  0  0  0
  189.1560  177.3820  141.8590 N   0  0  0  0  0  2  0  0  0  0  0  0
  185.9070  178.1890  143.3300 C   0  0  0  0  0  0  0  0  0  0  0  0
  183.6180  178.5480  142.3350 C   0  0  0  0  0  2  0  0  0  0  0  0
  183.3280  178.5700  145.8640 O   0  0  0  0  0  0  0  0  0  0  0  0
  187.2510  177.7430  146.1990 C   0  0  1  0  0  3  0  0  0  0  0  0
  183.9290  178.7140  144.7630 C   0  0  0  0  0  0  0  0  0  0  0  0
  188.4310  178.0090  145.3250 C   0  0  1  0  0  3  0  0  0  0  0  0
  189.5340  177.0750  143.2300 C   0  0  2  0  0  3  0  0  0  0  0  0
  183.2230  179.3110  143.5850 C   0  0  2  0  0  3  0  0  0  0  0  0
  185.3290  178.3910  144.6560 N   0  0  0  0  0  0  0  0  0  0  0  0
  185.5840  178.7530  138.4490 C   0  0  0  0  0  3  0  0  0  0  0  0
  189.5630  177.5160  146.1780 C   0  0  0  0  0  2  0  0  0  0  0  0
  187.6440  177.9190  147.5350 O   0  0  0  0  0  0  0  0  0  0  0  0
  183.6430  179.0940  139.7380 F   0  0  0  0  0  0  0  0  0  0  0  0
  187.8090  177.8150  141.8670 C   0  0  0  0  0  0  0  0  0  0  0  0
  186.9370  178.4410  138.3340 C   0  0  0  0  0  3  0  0  0  0  0  0
  185.6950  178.4550  140.8730 C   0  0  0  0  0  0  0  0  0  0  0  0
  187.2560  177.8100  143.1210 C   0  0  0  0  0  0  0  0  0  0  0  0
  190.0770  175.6620  143.3040 C   0  0  0  0  0  1  0  0  0  0  0  0
  188.2430  177.1860  144.0650 C   0  0  2  0  0  3  0  0  0  0  0  0
  188.9950  177.5290  147.5820 C   0  0  0  0  0  2  0  0  0  0  0  0
  185.9040  179.6730  146.5290 O   0  0  0  0  0  0  0  0  0  0  0  0
  187.6790  178.1380  139.4720 C   0  0  0  0  0  3  0  0  0  0  0  0
  187.0740  178.1480  140.7340 C   0  0  0  0  0  0  0  0  0  0  0  0
  186.1370  178.6540  145.8220 C   0  0  0  0  0  0  0  0  0  0  0  0
  181.7060  179.2830  143.7470 C   0  0  0  0  0  2  0  0  0  0  0  0
  180.1330  180.6670  142.9000 O   0  0  0  0  0  1  0  0  0  0  0  0
  181.0560  179.7470  142.5310 N   0  0  0  0  0  2  0  0  0  0  0  0
  1  5  1  0  0  0  0
  1  4  1  0  0  0  0
  2 16  1  0  0  0  0
  2 19  1  0  0  0  0
  3 17  1  0  0  0  0
  3 10  1  0  0  0  0
  4 12  1  0  0  0  0
  5 11  1  0  0  0  0
  7 27  1  6  0  0  0
  7 15  1  0  0  0  0
  8  6  2  0  0  0  0
  9 14  1  1  0  0  0
  9  7  1  0  0  0  0
 10 21  1  6  0  0  0
 10 22  1  0  0  0  0
 11 28  1  1  0  0  0
 11  8  1  0  0  0  0
 12  8  1  0  0  0  0
 12 27  1  0  0  0  0
 13  2  2  0  0  0  0
 14 23  1  0  0  0  0
 15 23  1  0  0  0  0
 17 20  1  0  0  0  0
 18 13  1  0  0  0  0
 18 25  2  0  0  0  0
 19  1  2  0  0  0  0
 20  4  2  0  0  0  0
 22 20  1  6  0  0  0
 22  9  1  0  0  0  0
 25 26  1  0  0  0  0
 26 19  1  0  0  0  0
 26 17  2  0  0  0  0
 27 24  2  0  0  0  0
 30 29  1  0  0  0  0
 30 28  1  0  0  0  0
M  END
>  <MODEL>
7

>  <REMARK>
 VINA RESULT:      -9.9      3.430      5.316
  Name = 
  2 active torsions:
  status: ('A' for Active; 'I' for Inactive)
    1  A    between atoms: C_11  and  C_28
    2  A    between atoms: C_28  and  N_30
                            x       y       z     vdW  Elec       q    Type
                         _______ _______ _______ _____ _____    ______ ____

>  <TORSDO>
F 2

$$$$
=
 OpenBabel11122410333D

 30 35  0  0  1  0  0  0  0  0999 V2000
  187.9860  177.6010  143.8310 C   0  0  0  0  0  0  0  0  0  0  0  0
  186.0420  178.4830  145.1310 C   0  0  0  0  0  0  0  0  0  0  0  0
  186.1540  178.6920  140.2180 N   0  0  0  0  0  2  0  0  0  0  0  0
  188.6510  177.4400  142.5780 C   0  0  0  0  0  0  0  0  0  0  0  0
  188.5750  176.9450  145.0490 C   0  0  0  0  0  2  0  0  0  0  0  0
  191.6920  175.8490  143.7760 O   0  0  0  0  0  0  0  0  0  0  0  0
  190.5530  176.8990  140.0630 C   0  0  1  0  0  3  0  0  0  0  0  0
  190.6460  176.5570  143.7930 C   0  0  0  0  0  0  0  0  0  0  0  0
  189.5980  177.9180  139.5350 C   0  0  1  0  0  3  0  0  0  0  0  0
  187.0940  178.2310  139.2080 C   0  0  2  0  0  3  0  0  0  0  0  0
  190.0870  177.0540  145.0910 C   0  0  2  0  0  3  0  0  0  0  0  0
  190.0340  176.9710  142.5570 N   0  0  0  0  0  0  0  0  0  0  0  0
  184.7950  179.1160  145.1420 C   0  0  0  0  0  3  0  0  0  0  0  0
  189.8070  177.7980  138.0540 C   0  0  0  0  0  2  0  0  0  0  0  0
  191.6690  176.8600  139.2130 O   0  0  0  0  0  0  0  0  0  0  0  0
  186.5770  178.1360  146.3280 F   0  0  0  0  0  0  0  0  0  0  0  0
  186.7150  178.4230  141.4890 C   0  0  0  0  0  0  0  0  0  0  0  0
  184.1940  179.5200  143.9520 C   0  0  0  0  0  3  0  0  0  0  0  0
  186.7160  178.2460  143.9040 C   0  0  0  0  0  0  0  0  0  0  0  0
  187.9390  177.8110  141.4110 C   0  0  0  0  0  0  0  0  0  0  0  0
  186.3940  177.2800  138.2580 C   0  0  0  0  0  1  0  0  0  0  0  0
  188.2100  177.4890  139.9690 C   0  0  2  0  0  3  0  0  0  0  0  0
  191.1730  177.1530  137.9290 C   0  0  0  0  0  2  0  0  0  0  0  0
  192.0430  177.7960  141.6830 O   0  0  0  0  0  0  0  0  0  0  0  0
  184.8360  179.2970  142.7380 C   0  0  0  0  0  3  0  0  0  0  0  0
  186.0880  178.6730  142.7050 C   0  0  0  0  0  0  0  0  0  0  0  0
  190.9290  177.2460  141.4600 C   0  0  0  0  0  0  0  0  0  0  0  0
  190.6260  176.2750  146.2870 C   0  0  0  0  0  2  0  0  0  0  0  0
  192.5440  176.0250  147.4550 O   0  0  0  0  0  1  0  0  0  0  0  0
  191.7640  176.9660  146.8730 N   0  0  0  0  0  2  0  0  0  0  0  0
  1 19  1  0  0  0  0
  1  5  1  0  0  0  0
  2 13  1  0  0  0  0
  2 16  1  0  0  0  0
  3 17  1  0  0  0  0
  4  1  2  0  0  0  0
  5 11  1  0  0  0  0
  6  8  2  0  0  0  0
  7 15  1  6  0  0  0
  7 27  1  0  0  0  0
  8 11  1  0  0  0  0
  9 14  1  6  0  0  0
  9 22  1  0  0  0  0
  9  7  1  0  0  0  0
 10 21  1  6  0  0  0
 10 22  1  0  0  0  0
 10  3  1  0  0  0  0
 11 28  1  1  0  0  0
 12  4  1  0  0  0  0
 12  8  1  0  0  0  0
 17 26  1  0  0  0  0
 18 13  2  0  0  0  0
 19  2  2  0  0  0  0
 20 17  2  0  0  0  0
 20  4  1  0  0  0  0
 22 20  1  1  0  0  0
 23 14  1  0  0  0  0
 23 15  1  0  0  0  0
 25 18  1  0  0  0  0
 26 25  2  0  0  0  0
 26 19  1  0  0  0  0
 27 24  2  0  0  0  0
 27 12  1  0  0  0  0
 28 30  1  0  0  0  0
 30 29  1  0  0  0  0
M  END
>  <MODEL>
8

>  <REMARK>
 VINA RESULT:      -9.9      2.088      5.736
  Name = 
  2 active torsions:
  status: ('A' for Active; 'I' for Inactive)
    1  A    between atoms: C_11  and  C_28
    2  A    between atoms: C_28  and  N_30
                            x       y       z     vdW  Elec       q    Type
                         _______ _______ _______ _____ _____    ______ ____

>  <TORSDO>
F 2

$$$$
=
 OpenBabel11122410333D

 30 35  0  0  1  0  0  0  0  0999 V2000
  187.8500  177.7790  142.2560 C   0  0  0  0  0  0  0  0  0  0  0  0
  189.1410  177.7630  140.1160 C   0  0  0  0  0  0  0  0  0  0  0  0
  191.3640  177.1500  144.4620 N   0  0  0  0  0  2  0  0  0  0  0  0
  187.8430  177.7640  143.6840 C   0  0  0  0  0  0  0  0  0  0  0  0
  186.5350  177.7330  141.5290 C   0  0  0  0  0  2  0  0  0  0  0  0
  184.2700  178.1660  144.2150 O   0  0  0  0  0  0  0  0  0  0  0  0
  187.3040  177.8370  146.8360 C   0  0  1  0  0  3  0  0  0  0  0  0
  185.3910  178.2370  143.6390 C   0  0  0  0  0  0  0  0  0  0  0  0
  188.7660  178.1230  146.7500 C   0  0  1  0  0  3  0  0  0  0  0  0
  190.8910  177.0630  145.8350 C   0  0  2  0  0  3  0  0  0  0  0  0
  185.4780  178.5980  142.1880 C   0  0  2  0  0  3  0  0  0  0  0  0
  186.6040  178.0640  144.3970 N   0  0  0  0  0  0  0  0  0  0  0  0
  190.3720  177.6690  139.4590 C   0  0  0  0  0  3  0  0  0  0  0  0
  189.2130  177.8720  148.1610 C   0  0  0  0  0  2  0  0  0  0  0  0
  186.8540  178.2230  148.1080 O   0  0  0  0  0  0  0  0  0  0  0  0
  188.0370  177.9480  139.3500 F   0  0  0  0  0  0  0  0  0  0  0  0
  190.2480  177.4260  143.6350 C   0  0  0  0  0  0  0  0  0  0  0  0
  191.5510  177.5000  140.1820 C   0  0  0  0  0  3  0  0  0  0  0  0
  189.0760  177.6930  141.5320 C   0  0  0  0  0  0  0  0  0  0  0  0
  189.0750  177.5160  144.3380 C   0  0  0  0  0  0  0  0  0  0  0  0
  191.3220  175.7410  146.4380 C   0  0  0  0  0  1  0  0  0  0  0  0
  189.3530  177.1320  145.7630 C   0  0  2  0  0  3  0  0  0  0  0  0
  187.9410  177.9970  148.9740 C   0  0  0  0  0  2  0  0  0  0  0  0
  185.9730  179.6280  146.0200 O   0  0  0  0  0  0  0  0  0  0  0  0
  191.5110  177.4290  141.5720 C   0  0  0  0  0  3  0  0  0  0  0  0
  190.2910  177.5290  142.2490 C   0  0  0  0  0  0  0  0  0  0  0  0
  186.5900  178.5610  145.7500 C   0  0  0  0  0  0  0  0  0  0  0  0
  184.1440  178.4190  141.4690 C   0  0  0  0  0  2  0  0  0  0  0  0
  184.7620  179.7530  139.7530 O   0  0  0  0  0  1  0  0  0  0  0  0
  184.3290  178.4990  140.0290 N   0  0  0  0  0  2  0  0  0  0  0  0
  1  4  1  0  0  0  0
  2 19  1  0  0  0  0
  3 10  1  0  0  0  0
  4 20  2  0  0  0  0
  4 12  1  0  0  0  0
  5 11  1  0  0  0  0
  5  1  1  0  0  0  0
  7 27  1  6  0  0  0
  7 15  1  0  0  0  0
  8  6  2  0  0  0  0
  8 12  1  0  0  0  0
  9  7  1  0  0  0  0
  9 14  1  1  0  0  0
 10 21  1  6  0  0  0
 11 28  1  6  0  0  0
 11  8  1  0  0  0  0
 12 27  1  0  0  0  0
 13  2  2  0  0  0  0
 13 18  1  0  0  0  0
 14 23  1  0  0  0  0
 15 23  1  0  0  0  0
 16  2  1  0  0  0  0
 17 20  1  0  0  0  0
 17  3  1  0  0  0  0
 18 25  2  0  0  0  0
 19 26  1  0  0  0  0
 19  1  2  0  0  0  0
 22 20  1  6  0  0  0
 22 10  1  0  0  0  0
 22  9  1  0  0  0  0
 25 26  1  0  0  0  0
 26 17  2  0  0  0  0
 27 24  2  0  0  0  0
 29 30  1  0  0  0  0
 30 28  1  0  0  0  0
M  END
>  <MODEL>
9

>  <REMARK>
 VINA RESULT:      -9.7      2.714      4.833
  Name = 
  2 active torsions:
  status: ('A' for Active; 'I' for Inactive)
    1  A    between atoms: C_11  and  C_28
    2  A    between atoms: C_28  and  N_30
                            x       y       z     vdW  Elec       q    Type
                         _______ _______ _______ _____ _____    ______ ____

>  <TORSDO>
F 2

$$$$
