=
 OpenBabel11122411573D

 28 32  0  0  1  0  0  0  0  0999 V2000
  189.4430  178.1160  138.1480 C   0  0  0  0  0  0  0  0  0  0  0  0
  192.6870  176.2140  134.7950 F   0  0  0  0  0  0  0  0  0  0  0  0
  186.9960  174.3660  137.1710 O   0  0  0  0  0  0  0  0  0  0  0  0
  189.9640  176.8310  140.5790 C   0  0  0  0  0  3  0  0  0  0  0  0
  189.2470  173.5650  136.8530 C   0  0  2  0  0  3  0  0  0  0  0  0
  189.1510  178.7110  136.9200 O   0  0  0  0  0  0  0  0  0  0  0  0
  194.0420  177.0170  136.3990 F   0  0  0  0  0  0  0  0  0  0  0  0
  193.2660  175.9370  136.0250 C   0  0  0  0  0  0  0  0  0  0  0  0
  193.2810  173.4950  135.6710 C   0  0  1  0  0  3  0  0  0  0  0  0
  192.1970  175.6880  137.1120 C   0  0  2  0  0  3  0  0  0  0  0  0
  186.3340  177.2630  137.5570 C   0  0  0  0  0  1  0  0  0  0  0  0
  190.0270  175.7320  135.9780 C   0  0  1  0  0  3  0  0  0  0  0  0
  192.5620  173.2300  136.8510 O   0  0  0  0  0  0  0  0  0  0  0  0
  194.1620  174.7190  135.8690 C   0  0  0  0  0  2  0  0  0  0  0  0
  186.9920  177.7640  136.2830 C   0  0  2  0  0  3  0  0  0  0  0  0
  190.3430  177.0420  138.1840 C   0  0  0  0  0  0  0  0  0  0  0  0
  188.1840  174.5920  136.8190 C   0  0  0  0  0  0  0  0  0  0  0  0
  194.1480  172.3010  135.3330 C   0  0  0  0  0  1  0  0  0  0  0  0
  187.7170  176.6650  135.4880 C   0  0  0  0  0  2  0  0  0  0  0  0
  190.5870  176.3930  139.4070 C   0  0  0  0  0  3  0  0  0  0  0  0
  188.8170  178.5520  139.3250 C   0  0  0  0  0  3  0  0  0  0  0  0
  189.0810  177.9110  140.5380 C   0  0  0  0  0  3  0  0  0  0  0  0
  187.8230  179.0270  136.5230 C   0  0  0  0  0  2  0  0  0  0  0  0
  190.4200  174.2550  136.1640 C   0  0  1  0  0  3  0  0  0  0  0  0
  188.6110  175.8440  136.3080 N   0  0  0  0  0  0  0  0  0  0  0  0
  191.6260  174.2650  137.0900 C   0  0  2  0  0  3  0  0  0  0  0  0
  188.8580  172.4560  136.1010 O   0  0  0  0  0  1  0  0  0  0  0  0
  190.9660  176.5650  136.8860 C   0  0  1  0  0  3  0  0  0  0  0  0
  1 16  2  0  0  0  0
  1 21  1  0  0  0  0
  2  8  1  0  0  0  0
  5 27  1  6  0  0  0
  6  1  1  0  0  0  0
  8  7  1  0  0  0  0
  9 18  1  1  0  0  0
  9 14  1  0  0  0  0
  9 13  1  0  0  0  0
 10  8  1  6  0  0  0
 12 24  1  0  0  0  0
 12 25  1  1  0  0  0
 12 28  1  0  0  0  0
 13 26  1  0  0  0  0
 14  8  1  0  0  0  0
 15 23  1  0  0  0  0
 15 11  1  1  0  0  0
 16 20  1  0  0  0  0
 17  5  1  0  0  0  0
 17  3  2  0  0  0  0
 19 15  1  0  0  0  0
 19 25  1  0  0  0  0
 20  4  2  0  0  0  0
 21 22  2  0  0  0  0
 22  4  1  0  0  0  0
 23  6  1  0  0  0  0
 24  5  1  0  0  0  0
 24 26  1  0  0  0  0
 25 17  1  0  0  0  0
 26 10  1  0  0  0  0
 28 10  1  0  0  0  0
 28 16  1  0  0  0  0
M  END
>  <MODEL>
1

>  <REMARK>
 VINA RESULT:      -6.6      0.000      0.000
  Name = 
  0 active torsions:
  status: ('A' for Active; 'I' for Inactive)
                            x       y       z     vdW  Elec       q    Type
                         _______ _______ _______ _____ _____    ______ ____

>  <TORSDO>
F 0

$$$$
=
 OpenBabel11122411573D

 28 32  0  0  1  0  0  0  0  0999 V2000
  181.0880  179.1140  137.8570 C   0  0  0  0  0  0  0  0  0  0  0  0
  185.4920  176.7110  138.3280 F   0  0  0  0  0  0  0  0  0  0  0  0
  180.9110  178.6540  142.4140 O   0  0  0  0  0  0  0  0  0  0  0  0
  181.5890  181.8120  138.4060 C   0  0  0  0  0  3  0  0  0  0  0  0
  183.2860  178.8170  142.0420 C   0  0  2  0  0  3  0  0  0  0  0  0
  180.8350  177.7580  137.6410 O   0  0  0  0  0  0  0  0  0  0  0  0
  185.9390  178.2700  136.7710 F   0  0  0  0  0  0  0  0  0  0  0  0
  185.8460  178.0380  138.1290 C   0  0  0  0  0  0  0  0  0  0  0  0
  187.0540  178.2250  140.2730 C   0  0  1  0  0  3  0  0  0  0  0  0
  184.7990  179.0020  138.7320 C   0  0  2  0  0  3  0  0  0  0  0  0
  178.9310  178.3140  140.1910 C   0  0  0  0  0  1  0  0  0  0  0  0
  183.1600  177.6070  139.8990 C   0  0  1  0  0  3  0  0  0  0  0  0
  186.2960  179.3280  140.7060 O   0  0  0  0  0  0  0  0  0  0  0  0
  187.2090  178.2690  138.7600 C   0  0  0  0  0  2  0  0  0  0  0  0
  179.5490  177.0600  139.5970 C   0  0  2  0  0  3  0  0  0  0  0  0
  182.3470  179.5000  138.3380 C   0  0  0  0  0  0  0  0  0  0  0  0
  181.9080  178.4220  141.6810 C   0  0  0  0  0  0  0  0  0  0  0  0
  188.4220  178.2710  140.9200 C   0  0  0  0  0  1  0  0  0  0  0  0
  180.8510  176.6240  140.2880 C   0  0  0  0  0  2  0  0  0  0  0  0
  182.5840  180.8560  138.6250 C   0  0  0  0  0  3  0  0  0  0  0  0
  180.0900  180.0750  137.6410 C   0  0  0  0  0  3  0  0  0  0  0  0
  180.3440  181.4220  137.9120 C   0  0  0  0  0  3  0  0  0  0  0  0
  179.6350  177.1300  138.0690 C   0  0  0  0  0  2  0  0  0  0  0  0
  184.1330  178.1580  140.9570 C   0  0  1  0  0  3  0  0  0  0  0  0
  181.8160  177.7140  140.4560 N   0  0  0  0  0  0  0  0  0  0  0  0
  184.9640  179.2110  140.2420 C   0  0  2  0  0  3  0  0  0  0  0  0
  183.6250  178.2790  143.2830 O   0  0  0  0  0  1  0  0  0  0  0  0
  183.3880  178.4300  138.6070 C   0  0  1  0  0  3  0  0  0  0  0  0
  1 16  1  0  0  0  0
  4 20  1  0  0  0  0
  5 27  1  1  0  0  0
  6  1  1  0  0  0  0
  6 23  1  0  0  0  0
  7  8  1  0  0  0  0
  8  2  1  0  0  0  0
  8 14  1  0  0  0  0
  9 13  1  0  0  0  0
  9 18  1  1  0  0  0
 10  8  1  1  0  0  0
 10 26  1  0  0  0  0
 12 25  1  1  0  0  0
 12 24  1  0  0  0  0
 14  9  1  0  0  0  0
 15 11  1  1  0  0  0
 15 19  1  0  0  0  0
 16 28  1  0  0  0  0
 16 20  2  0  0  0  0
 17  5  1  0  0  0  0
 17  3  2  0  0  0  0
 19 25  1  0  0  0  0
 21  1  2  0  0  0  0
 21 22  1  0  0  0  0
 22  4  2  0  0  0  0
 23 15  1  0  0  0  0
 24  5  1  0  0  0  0
 25 17  1  0  0  0  0
 26 13  1  0  0  0  0
 26 24  1  0  0  0  0
 28 10  1  0  0  0  0
 28 12  1  0  0  0  0
M  END
>  <MODEL>
2

>  <REMARK>
 VINA RESULT:      -5.9      5.880      8.801
  Name = 
  0 active torsions:
  status: ('A' for Active; 'I' for Inactive)
                            x       y       z     vdW  Elec       q    Type
                         _______ _______ _______ _____ _____    ______ ____

>  <TORSDO>
F 0

$$$$
=
 OpenBabel11122411573D

 28 32  0  0  1  0  0  0  0  0999 V2000
  182.4680  177.9080  136.7840 C   0  0  0  0  0  0  0  0  0  0  0  0
  184.7160  177.4250  141.2680 F   0  0  0  0  0  0  0  0  0  0  0  0
  178.9310  175.8970  138.8920 O   0  0  0  0  0  0  0  0  0  0  0  0
  180.9030  180.2240  136.9220 C   0  0  0  0  0  3  0  0  0  0  0  0
  179.9540  177.0960  140.7140 C   0  0  2  0  0  3  0  0  0  0  0  0
  183.2060  176.7240  136.7420 O   0  0  0  0  0  0  0  0  0  0  0  0
  185.3860  179.4610  140.5910 F   0  0  0  0  0  0  0  0  0  0  0  0
  184.3630  178.7650  141.2050 C   0  0  0  0  0  0  0  0  0  0  0  0
  182.9400  178.6710  143.2200 C   0  0  1  0  0  3  0  0  0  0  0  0
  183.0610  178.9720  140.3990 C   0  0  2  0  0  3  0  0  0  0  0  0
  180.2300  175.5830  136.2100 C   0  0  0  0  0  1  0  0  0  0  0  0
  182.2280  176.7400  139.8360 C   0  0  1  0  0  3  0  0  0  0  0  0
  181.8070  179.1690  142.5510 O   0  0  0  0  0  0  0  0  0  0  0  0
  184.2000  179.2830  142.6250 C   0  0  0  0  0  2  0  0  0  0  0  0
  181.5190  174.9570  136.7130 C   0  0  2  0  0  3  0  0  0  0  0  0
  182.3180  178.5690  138.0110 C   0  0  0  0  0  0  0  0  0  0  0  0
  179.9720  176.3390  139.4450 C   0  0  0  0  0  0  0  0  0  0  0  0
  182.8540  179.0280  144.6880 C   0  0  0  0  0  1  0  0  0  0  0  0
  181.6040  174.8610  138.2460 C   0  0  0  0  0  2  0  0  0  0  0  0
  181.5170  179.7230  138.0730 C   0  0  0  0  0  3  0  0  0  0  0  0
  181.8490  178.4110  135.6300 C   0  0  0  0  0  3  0  0  0  0  0  0
  181.0710  179.5690  135.7010 C   0  0  0  0  0  3  0  0  0  0  0  0
  182.7550  175.5690  136.0470 C   0  0  0  0  0  2  0  0  0  0  0  0
  181.4340  177.2340  141.0590 C   0  0  1  0  0  3  0  0  0  0  0  0
  181.2730  176.1140  138.9290 N   0  0  0  0  0  0  0  0  0  0  0  0
  181.7910  178.7030  141.2140 C   0  0  2  0  0  3  0  0  0  0  0  0
  179.3180  176.3470  141.7040 O   0  0  0  0  0  1  0  0  0  0  0  0
  182.9600  177.9720  139.2480 C   0  0  1  0  0  3  0  0  0  0  0  0
  1 16  1  0  0  0  0
  3 17  2  0  0  0  0
  4 20  1  0  0  0  0
  5 24  1  0  0  0  0
  5 27  1  1  0  0  0
  6  1  1  0  0  0  0
  7  8  1  0  0  0  0
  8  2  1  0  0  0  0
  8 14  1  0  0  0  0
  9 18  1  1  0  0  0
 10  8  1  1  0  0  0
 10 26  1  0  0  0  0
 12 25  1  6  0  0  0
 12 24  1  0  0  0  0
 13  9  1  0  0  0  0
 14  9  1  0  0  0  0
 15 11  1  1  0  0  0
 15 19  1  0  0  0  0
 16 20  2  0  0  0  0
 16 28  1  0  0  0  0
 17  5  1  0  0  0  0
 19 25  1  0  0  0  0
 21 22  1  0  0  0  0
 21  1  2  0  0  0  0
 22  4  2  0  0  0  0
 23 15  1  0  0  0  0
 23  6  1  0  0  0  0
 24 26  1  0  0  0  0
 25 17  1  0  0  0  0
 26 13  1  0  0  0  0
 28 12  1  0  0  0  0
 28 10  1  0  0  0  0
M  END
>  <MODEL>
3

>  <REMARK>
 VINA RESULT:      -5.5      7.784      9.923
  Name = 
  0 active torsions:
  status: ('A' for Active; 'I' for Inactive)
                            x       y       z     vdW  Elec       q    Type
                         _______ _______ _______ _____ _____    ______ ____

>  <TORSDO>
F 0

$$$$
=
 OpenBabel11122411573D

 28 32  0  0  1  0  0  0  0  0999 V2000
  179.4910  177.1710  138.5120 C   0  0  0  0  0  0  0  0  0  0  0  0
  180.9850  180.1710  142.2740 F   0  0  0  0  0  0  0  0  0  0  0  0
  183.6300  178.1060  136.7800 O   0  0  0  0  0  0  0  0  0  0  0  0
  180.5650  174.6410  139.0360 C   0  0  0  0  0  3  0  0  0  0  0  0
  184.0660  178.2170  139.1470 C   0  0  2  0  0  3  0  0  0  0  0  0
  179.0070  178.4490  138.2280 O   0  0  0  0  0  0  0  0  0  0  0  0
  179.9020  178.5220  143.3520 F   0  0  0  0  0  0  0  0  0  0  0  0
  181.1090  178.8890  142.7900 C   0  0  0  0  0  0  0  0  0  0  0  0
  183.5300  179.1020  143.2220 C   0  0  1  0  0  3  0  0  0  0  0  0
  181.4810  177.8690  141.6910 C   0  0  2  0  0  3  0  0  0  0  0  0
  180.8660  177.9330  135.6360 C   0  0  0  0  0  1  0  0  0  0  0  0
  181.8420  179.1560  139.6400 C   0  0  1  0  0  3  0  0  0  0  0  0
  183.8560  177.9630  142.4630 O   0  0  0  0  0  0  0  0  0  0  0  0
  182.1700  178.9120  143.8780 C   0  0  0  0  0  2  0  0  0  0  0  0
  180.3220  179.1840  136.3050 C   0  0  2  0  0  3  0  0  0  0  0  0
  180.4010  177.0100  139.5660 C   0  0  0  0  0  0  0  0  0  0  0  0
  183.2290  178.3850  137.9410 C   0  0  0  0  0  0  0  0  0  0  0  0
  184.5800  179.3090  144.2930 C   0  0  0  0  0  1  0  0  0  0  0  0
  181.3220  179.8620  137.2570 C   0  0  0  0  0  2  0  0  0  0  0  0
  180.9470  175.7380  139.8120 C   0  0  0  0  0  3  0  0  0  0  0  0
  179.1120  176.0680  137.7320 C   0  0  0  0  0  3  0  0  0  0  0  0
  179.6460  174.8050  137.9980 C   0  0  0  0  0  3  0  0  0  0  0  0
  178.9310  178.9570  136.9030 C   0  0  0  0  0  2  0  0  0  0  0  0
  183.2250  178.8580  140.2470 C   0  0  1  0  0  3  0  0  0  0  0  0
  181.9490  178.9350  138.2020 N   0  0  0  0  0  0  0  0  0  0  0  0
  182.9780  177.8510  141.3580 C   0  0  2  0  0  3  0  0  0  0  0  0
  185.2560  178.9300  139.0020 O   0  0  0  0  0  1  0  0  0  0  0  0
  180.8280  178.2320  140.3580 C   0  0  1  0  0  3  0  0  0  0  0  0
  1 16  1  0  0  0  0
  2  8  1  0  0  0  0
  3 17  2  0  0  0  0
  4 20  1  0  0  0  0
  5 27  1  6  0  0  0
  5 24  1  0  0  0  0
  6  1  1  0  0  0  0
  8  7  1  0  0  0  0
  8 14  1  0  0  0  0
  9 14  1  0  0  0  0
  9 18  1  1  0  0  0
 10  8  1  1  0  0  0
 12 25  1  6  0  0  0
 12 24  1  0  0  0  0
 12 28  1  0  0  0  0
 13  9  1  0  0  0  0
 15 11  1  1  0  0  0
 15 23  1  0  0  0  0
 15 19  1  0  0  0  0
 16 20  2  0  0  0  0
 16 28  1  0  0  0  0
 17 25  1  0  0  0  0
 17  5  1  0  0  0  0
 19 25  1  0  0  0  0
 21 22  1  0  0  0  0
 21  1  2  0  0  0  0
 22  4  2  0  0  0  0
 23  6  1  0  0  0  0
 24 26  1  0  0  0  0
 26 10  1  0  0  0  0
 26 13  1  0  0  0  0
 28 10  1  0  0  0  0
M  END
>  <MODEL>
4

>  <REMARK>
 VINA RESULT:      -5.2      8.170     10.562
  Name = 
  0 active torsions:
  status: ('A' for Active; 'I' for Inactive)
                            x       y       z     vdW  Elec       q    Type
                         _______ _______ _______ _____ _____    ______ ____

>  <TORSDO>
F 0

$$$$
=
 OpenBabel11122411573D

 28 32  0  0  1  0  0  0  0  0999 V2000
  180.7910  177.6460  137.3310 C   0  0  0  0  0  0  0  0  0  0  0  0
  183.9970  173.8110  137.9660 F   0  0  0  0  0  0  0  0  0  0  0  0
  184.2020  180.1460  139.0960 O   0  0  0  0  0  0  0  0  0  0  0  0
  181.4850  178.8730  134.9140 C   0  0  0  0  0  3  0  0  0  0  0  0
  185.4220  178.4000  137.9690 C   0  0  2  0  0  3  0  0  0  0  0  0
  180.4870  177.0630  138.5630 O   0  0  0  0  0  0  0  0  0  0  0  0
  183.0510  173.3470  135.9800 F   0  0  0  0  0  0  0  0  0  0  0  0
  184.0450  174.0750  136.6050 C   0  0  0  0  0  0  0  0  0  0  0  0
  186.4640  174.5640  136.6010 C   0  0  1  0  0  3  0  0  0  0  0  0
  183.8270  175.5760  136.3090 C   0  0  2  0  0  3  0  0  0  0  0  0
  181.2340  180.0650  139.4980 C   0  0  0  0  0  1  0  0  0  0  0  0
  183.7110  176.7030  138.4790 C   0  0  1  0  0  3  0  0  0  0  0  0
  186.2970  175.8370  136.0270 O   0  0  0  0  0  0  0  0  0  0  0  0
  185.3950  173.6170  136.0760 C   0  0  0  0  0  2  0  0  0  0  0  0
  181.1910  178.7240  140.2100 C   0  0  2  0  0  3  0  0  0  0  0  0
  181.9550  177.2460  136.6610 C   0  0  0  0  0  0  0  0  0  0  0  0
  184.2750  178.9450  138.7260 C   0  0  0  0  0  0  0  0  0  0  0  0
  187.8320  174.0260  136.2390 C   0  0  0  0  0  1  0  0  0  0  0  0
  182.5610  178.0330  140.3120 C   0  0  0  0  0  2  0  0  0  0  0  0
  182.3030  177.8790  135.4550 C   0  0  0  0  0  3  0  0  0  0  0  0
  179.9720  178.6470  136.7880 C   0  0  0  0  0  3  0  0  0  0  0  0
  180.3180  179.2550  135.5790 C   0  0  0  0  0  3  0  0  0  0  0  0
  180.0660  177.8290  139.6840 C   0  0  0  0  0  2  0  0  0  0  0  0
  185.1360  176.9020  137.9320 C   0  0  1  0  0  3  0  0  0  0  0  0
  183.2840  177.9800  139.0390 N   0  0  0  0  0  0  0  0  0  0  0  0
  185.0930  176.4220  136.4910 C   0  0  2  0  0  3  0  0  0  0  0  0
  186.6050  178.6270  138.6730 O   0  0  0  0  0  1  0  0  0  0  0  0
  182.8440  176.1960  137.3000 C   0  0  1  0  0  3  0  0  0  0  0  0
  1  6  1  0  0  0  0
  4 20  2  0  0  0  0
  4 22  1  0  0  0  0
  5 27  1  1  0  0  0
  5 17  1  0  0  0  0
  6 23  1  0  0  0  0
  7  8  1  0  0  0  0
  8  2  1  0  0  0  0
  9 18  1  6  0  0  0
 10 26  1  0  0  0  0
 10  8  1  1  0  0  0
 10 28  1  0  0  0  0
 12 25  1  6  0  0  0
 13 26  1  0  0  0  0
 13  9  1  0  0  0  0
 14  9  1  0  0  0  0
 14  8  1  0  0  0  0
 15 11  1  6  0  0  0
 15 19  1  0  0  0  0
 16 28  1  0  0  0  0
 16  1  2  0  0  0  0
 17 25  1  0  0  0  0
 17  3  2  0  0  0  0
 20 16  1  0  0  0  0
 21  1  1  0  0  0  0
 22 21  2  0  0  0  0
 23 15  1  0  0  0  0
 24  5  1  0  0  0  0
 24 12  1  0  0  0  0
 25 19  1  0  0  0  0
 26 24  1  0  0  0  0
 28 12  1  0  0  0  0
M  END
>  <MODEL>
5

>  <REMARK>
 VINA RESULT:      -5.0      5.140      8.098
  Name = 
  0 active torsions:
  status: ('A' for Active; 'I' for Inactive)
                            x       y       z     vdW  Elec       q    Type
                         _______ _______ _______ _____ _____    ______ ____

>  <TORSDO>
F 0

$$$$
=
 OpenBabel11122411573D

 28 32  0  0  1  0  0  0  0  0999 V2000
  182.8050  177.5290  136.8190 C   0  0  0  0  0  0  0  0  0  0  0  0
  187.4660  178.2390  135.0420 F   0  0  0  0  0  0  0  0  0  0  0  0
  184.0130  173.1080  136.8310 O   0  0  0  0  0  0  0  0  0  0  0  0
  183.0340  177.3340  139.6010 C   0  0  0  0  0  3  0  0  0  0  0  0
  186.1290  174.1830  137.2450 C   0  0  2  0  0  3  0  0  0  0  0  0
  182.7060  177.5700  135.4270 O   0  0  0  0  0  0  0  0  0  0  0  0
  187.2090  179.9580  136.4680 F   0  0  0  0  0  0  0  0  0  0  0  0
  187.5460  178.6220  136.3730 C   0  0  0  0  0  0  0  0  0  0  0  0
  189.2760  176.9540  136.9360 C   0  0  1  0  0  3  0  0  0  0  0  0
  186.5840  177.7990  137.2590 C   0  0  2  0  0  3  0  0  0  0  0  0
  181.5520  174.6100  136.0140 C   0  0  0  0  0  1  0  0  0  0  0  0
  185.5770  176.1050  135.8060 C   0  0  1  0  0  3  0  0  0  0  0  0
  188.5180  176.3880  137.9770 O   0  0  0  0  0  0  0  0  0  0  0  0
  188.9820  178.4440  136.8360 C   0  0  0  0  0  2  0  0  0  0  0  0
  182.1530  175.2780  134.7890 C   0  0  2  0  0  3  0  0  0  0  0  0
  184.0770  177.4730  137.4060 C   0  0  0  0  0  0  0  0  0  0  0  0
  184.7810  174.0890  136.6460 C   0  0  0  0  0  0  0  0  0  0  0  0
  190.7490  176.7500  137.2190 C   0  0  0  0  0  1  0  0  0  0  0  0
  183.6490  174.9800  134.5940 C   0  0  0  0  0  2  0  0  0  0  0  0
  184.1810  177.3600  138.8040 C   0  0  0  0  0  3  0  0  0  0  0  0
  181.6550  177.5000  137.6210 C   0  0  0  0  0  3  0  0  0  0  0  0
  181.7710  177.4070  139.0100 C   0  0  0  0  0  3  0  0  0  0  0  0
  181.7860  176.7620  134.7050 C   0  0  0  0  0  2  0  0  0  0  0  0
  186.7180  175.4250  136.5830 C   0  0  1  0  0  3  0  0  0  0  0  0
  184.4480  175.1810  135.8050 N   0  0  0  0  0  0  0  0  0  0  0  0
  187.1420  176.4240  137.6480 C   0  0  2  0  0  3  0  0  0  0  0  0
  186.8860  173.0680  136.8880 O   0  0  0  0  0  1  0  0  0  0  0  0
  185.2980  177.4580  136.5080 C   0  0  1  0  0  3  0  0  0  0  0  0
  1 16  2  0  0  0  0
  1 21  1  0  0  0  0
  2  8  1  0  0  0  0
  5 27  1  6  0  0  0
  6  1  1  0  0  0  0
  8  7  1  0  0  0  0
  8 14  1  0  0  0  0
  9 18  1  1  0  0  0
  9 13  1  0  0  0  0
 10  8  1  6  0  0  0
 10 26  1  0  0  0  0
 12 25  1  1  0  0  0
 12 28  1  0  0  0  0
 12 24  1  0  0  0  0
 14  9  1  0  0  0  0
 15 11  1  1  0  0  0
 16 20  1  0  0  0  0
 17  3  2  0  0  0  0
 17  5  1  0  0  0  0
 19 15  1  0  0  0  0
 19 25  1  0  0  0  0
 20  4  2  0  0  0  0
 21 22  2  0  0  0  0
 22  4  1  0  0  0  0
 23 15  1  0  0  0  0
 23  6  1  0  0  0  0
 24  5  1  0  0  0  0
 24 26  1  0  0  0  0
 25 17  1  0  0  0  0
 26 13  1  0  0  0  0
 28 10  1  0  0  0  0
 28 16  1  0  0  0  0
M  END
>  <MODEL>
6

>  <REMARK>
 VINA RESULT:      -5.0      3.663      5.697
  Name = 
  0 active torsions:
  status: ('A' for Active; 'I' for Inactive)
                            x       y       z     vdW  Elec       q    Type
                         _______ _______ _______ _____ _____    ______ ____

>  <TORSDO>
F 0

$$$$
=
 OpenBabel11122411573D

 28 32  0  0  1  0  0  0  0  0999 V2000
  180.9380  176.4660  136.5190 C   0  0  0  0  0  0  0  0  0  0  0  0
  185.4820  174.6550  137.7280 F   0  0  0  0  0  0  0  0  0  0  0  0
  181.9420  179.6910  139.6170 O   0  0  0  0  0  0  0  0  0  0  0  0
  181.3630  178.4990  134.6440 C   0  0  0  0  0  3  0  0  0  0  0  0
  184.1300  179.1490  138.7650 C   0  0  2  0  0  3  0  0  0  0  0  0
  180.7380  175.4900  137.4970 O   0  0  0  0  0  0  0  0  0  0  0  0
  185.4090  174.3720  135.4990 F   0  0  0  0  0  0  0  0  0  0  0  0
  185.6780  175.2800  136.5050 C   0  0  0  0  0  0  0  0  0  0  0  0
  187.3670  176.8550  137.3750 C   0  0  1  0  0  3  0  0  0  0  0  0
  184.7480  176.5030  136.3370 C   0  0  2  0  0  3  0  0  0  0  0  0
  179.4980  178.0780  138.9840 C   0  0  0  0  0  1  0  0  0  0  0  0
  183.5600  176.7710  138.4610 C   0  0  1  0  0  3  0  0  0  0  0  0
  186.6640  177.9910  136.9360 O   0  0  0  0  0  0  0  0  0  0  0  0
  187.1350  175.7010  136.4110 C   0  0  0  0  0  2  0  0  0  0  0  0
  180.0370  176.7440  139.4730 C   0  0  2  0  0  3  0  0  0  0  0  0
  182.2460  176.8850  136.2370 C   0  0  0  0  0  0  0  0  0  0  0  0
  182.7390  178.8330  139.1510 C   0  0  0  0  0  0  0  0  0  0  0  0
  188.8470  177.1710  137.4330 C   0  0  0  0  0  1  0  0  0  0  0  0
  181.5000  176.8030  139.9450 C   0  0  0  0  0  2  0  0  0  0  0  0
  182.4480  177.9170  135.3050 C   0  0  0  0  0  3  0  0  0  0  0  0
  179.8500  177.0540  135.8570 C   0  0  0  0  0  3  0  0  0  0  0  0
  180.0650  178.0650  134.9170 C   0  0  0  0  0  3  0  0  0  0  0  0
  179.7320  175.6060  138.4950 C   0  0  0  0  0  2  0  0  0  0  0  0
  184.7240  177.7780  138.4540 C   0  0  1  0  0  3  0  0  0  0  0  0
  182.3940  177.4670  138.9930 N   0  0  0  0  0  0  0  0  0  0  0  0
  185.2700  177.7640  137.0350 C   0  0  2  0  0  3  0  0  0  0  0  0
  184.8070  179.7090  139.8480 O   0  0  0  0  0  1  0  0  0  0  0  0
  183.3960  176.2630  137.0060 C   0  0  1  0  0  3  0  0  0  0  0  0
  1  6  1  0  0  0  0
  4 22  2  0  0  0  0
  4 20  1  0  0  0  0
  5 17  1  0  0  0  0
  5 27  1  1  0  0  0
  6 23  1  0  0  0  0
  7  8  1  0  0  0  0
  8  2  1  0  0  0  0
  9 18  1  6  0  0  0
 10  8  1  1  0  0  0
 10 28  1  0  0  0  0
 10 26  1  0  0  0  0
 12 25  1  6  0  0  0
 13 26  1  0  0  0  0
 13  9  1  0  0  0  0
 14  8  1  0  0  0  0
 14  9  1  0  0  0  0
 15 11  1  6  0  0  0
 15 19  1  0  0  0  0
 16  1  1  0  0  0  0
 16 28  1  0  0  0  0
 17  3  2  0  0  0  0
 20 16  2  0  0  0  0
 21  1  2  0  0  0  0
 22 21  1  0  0  0  0
 23 15  1  0  0  0  0
 24 12  1  0  0  0  0
 24  5  1  0  0  0  0
 25 17  1  0  0  0  0
 25 19  1  0  0  0  0
 26 24  1  0  0  0  0
 28 12  1  0  0  0  0
M  END
>  <MODEL>
7

>  <REMARK>
 VINA RESULT:      -4.8      5.131      8.174
  Name = 
  0 active torsions:
  status: ('A' for Active; 'I' for Inactive)
                            x       y       z     vdW  Elec       q    Type
                         _______ _______ _______ _____ _____    ______ ____

>  <TORSDO>
F 0

$$$$
=
 OpenBabel11122411573D

 28 32  0  0  1  0  0  0  0  0999 V2000
  187.3550  177.2130  137.1780 C   0  0  0  0  0  0  0  0  0  0  0  0
  185.3330  172.7750  138.4450 F   0  0  0  0  0  0  0  0  0  0  0  0
  190.4780  174.6240  135.0460 O   0  0  0  0  0  0  0  0  0  0  0  0
  186.4480  177.7930  134.5940 C   0  0  0  0  0  3  0  0  0  0  0  0
  188.5130  173.2400  134.8730 C   0  0  2  0  0  3  0  0  0  0  0  0
  187.8480  176.8890  138.4430 O   0  0  0  0  0  0  0  0  0  0  0  0
  183.5270  174.0300  137.9770 F   0  0  0  0  0  0  0  0  0  0  0  0
  184.5180  173.2420  137.4240 C   0  0  0  0  0  0  0  0  0  0  0  0
  184.9410  171.3050  135.9550 C   0  0  1  0  0  3  0  0  0  0  0  0
  185.3150  174.0840  136.4020 C   0  0  2  0  0  3  0  0  0  0  0  0
  190.6030  177.0750  136.7650 C   0  0  0  0  0  1  0  0  0  0  0  0
  187.6650  173.9520  137.0740 C   0  0  1  0  0  3  0  0  0  0  0  0
  185.3810  172.1010  134.8820 O   0  0  0  0  0  0  0  0  0  0  0  0
  183.8720  172.0470  136.7430 C   0  0  0  0  0  2  0  0  0  0  0  0
  190.2110  176.3960  138.0660 C   0  0  2  0  0  3  0  0  0  0  0  0
  186.6370  176.2440  136.4620 C   0  0  0  0  0  0  0  0  0  0  0  0
  189.3930  174.2220  135.5420 C   0  0  0  0  0  0  0  0  0  0  0  0
  184.3630  170.0130  135.4170 C   0  0  0  0  0  1  0  0  0  0  0  0
  189.8670  174.9060  137.9070 C   0  0  0  0  0  2  0  0  0  0  0  0
  186.1990  176.5390  135.1590 C   0  0  0  0  0  3  0  0  0  0  0  0
  187.6060  178.4690  136.6070 C   0  0  0  0  0  3  0  0  0  0  0  0
  187.1490  178.7580  135.3190 C   0  0  0  0  0  3  0  0  0  0  0  0
  189.1730  177.2070  138.8470 C   0  0  0  0  0  2  0  0  0  0  0  0
  187.4550  172.9420  135.9320 C   0  0  1  0  0  3  0  0  0  0  0  0
  188.9270  174.6360  136.8160 N   0  0  0  0  0  0  0  0  0  0  0  0
  186.0720  173.2350  135.3740 C   0  0  2  0  0  3  0  0  0  0  0  0
  189.2270  172.0760  134.5940 O   0  0  0  0  0  1  0  0  0  0  0  0
  186.4240  174.8790  137.0890 C   0  0  1  0  0  3  0  0  0  0  0  0
  1  6  1  0  0  0  0
  3 17  2  0  0  0  0
  4 20  2  0  0  0  0
  4 22  1  0  0  0  0
  5 27  1  1  0  0  0
  5 17  1  0  0  0  0
  5 24  1  0  0  0  0
  6 23  1  0  0  0  0
  8  7  1  0  0  0  0
  8  2  1  0  0  0  0
  9 18  1  6  0  0  0
  9 14  1  0  0  0  0
 10 28  1  0  0  0  0
 10  8  1  1  0  0  0
 12 25  1  6  0  0  0
 12 28  1  0  0  0  0
 13 26  1  0  0  0  0
 13  9  1  0  0  0  0
 14  8  1  0  0  0  0
 15 11  1  6  0  0  0
 15 23  1  0  0  0  0
 16 28  1  0  0  0  0
 16  1  2  0  0  0  0
 17 25  1  0  0  0  0
 19 15  1  0  0  0  0
 20 16  1  0  0  0  0
 21  1  1  0  0  0  0
 22 21  2  0  0  0  0
 24 12  1  0  0  0  0
 25 19  1  0  0  0  0
 26 24  1  0  0  0  0
 26 10  1  0  0  0  0
M  END
>  <MODEL>
8

>  <REMARK>
 VINA RESULT:      -4.7      3.583      5.998
  Name = 
  0 active torsions:
  status: ('A' for Active; 'I' for Inactive)
                            x       y       z     vdW  Elec       q    Type
                         _______ _______ _______ _____ _____    ______ ____

>  <TORSDO>
F 0

$$$$
=
 OpenBabel11122411573D

 28 32  0  0  1  0  0  0  0  0999 V2000
  183.7570  176.9890  136.4470 C   0  0  0  0  0  0  0  0  0  0  0  0
  183.7210  177.4410  141.4650 F   0  0  0  0  0  0  0  0  0  0  0  0
  180.5230  173.8300  137.2000 O   0  0  0  0  0  0  0  0  0  0  0  0
  181.6430  178.5540  135.4900 C   0  0  0  0  0  3  0  0  0  0  0  0
  180.1440  175.3490  139.0320 C   0  0  2  0  0  3  0  0  0  0  0  0
  184.7730  176.1660  136.9350 O   0  0  0  0  0  0  0  0  0  0  0  0
  183.9190  179.5710  140.7740 F   0  0  0  0  0  0  0  0  0  0  0  0
  183.0200  178.5510  141.0170 C   0  0  0  0  0  0  0  0  0  0  0  0
  180.9520  177.9590  142.2270 C   0  0  1  0  0  3  0  0  0  0  0  0
  182.2450  178.2460  139.7160 C   0  0  2  0  0  3  0  0  0  0  0  0
  182.9280  173.9900  135.4190 C   0  0  0  0  0  1  0  0  0  0  0  0
  182.5420  175.8570  139.2710 C   0  0  1  0  0  3  0  0  0  0  0  0
  180.1580  177.9880  141.0660 O   0  0  0  0  0  0  0  0  0  0  0  0
  182.0660  178.9890  142.1160 C   0  0  0  0  0  2  0  0  0  0  0  0
  183.9680  173.8970  136.5220 C   0  0  2  0  0  3  0  0  0  0  0  0
  182.8550  177.5630  137.3540 C   0  0  0  0  0  0  0  0  0  0  0  0
  180.9870  174.6370  138.0480 C   0  0  0  0  0  0  0  0  0  0  0  0
  180.0910  178.2770  143.4320 C   0  0  0  0  0  1  0  0  0  0  0  0
  183.3680  173.8600  137.9370 C   0  0  0  0  0  2  0  0  0  0  0  0
  181.7870  178.3350  136.8630 C   0  0  0  0  0  3  0  0  0  0  0  0
  183.6080  177.2090  135.0690 C   0  0  0  0  0  3  0  0  0  0  0  0
  182.5550  177.9940  134.5940 C   0  0  0  0  0  3  0  0  0  0  0  0
  185.0950  174.9180  136.3370 C   0  0  0  0  0  2  0  0  0  0  0  0
  181.1650  176.0340  139.9350 C   0  0  1  0  0  3  0  0  0  0  0  0
  182.3730  174.9080  138.1770 N   0  0  0  0  0  0  0  0  0  0  0  0
  180.9090  177.5330  139.9560 C   0  0  2  0  0  3  0  0  0  0  0  0
  179.4090  174.4300  139.7810 O   0  0  0  0  0  1  0  0  0  0  0  0
  183.0150  177.2660  138.8320 C   0  0  1  0  0  3  0  0  0  0  0  0
  1  6  1  0  0  0  0
  1 16  1  0  0  0  0
  3 17  2  0  0  0  0
  4 20  1  0  0  0  0
  5 27  1  1  0  0  0
  5 24  1  0  0  0  0
  7  8  1  0  0  0  0
  8  2  1  0  0  0  0
  8 14  1  0  0  0  0
  9 18  1  1  0  0  0
 10 26  1  0  0  0  0
 10  8  1  1  0  0  0
 12 25  1  6  0  0  0
 12 24  1  0  0  0  0
 13  9  1  0  0  0  0
 14  9  1  0  0  0  0
 15 11  1  6  0  0  0
 15 19  1  0  0  0  0
 16 28  1  0  0  0  0
 17 25  1  0  0  0  0
 17  5  1  0  0  0  0
 19 25  1  0  0  0  0
 20 16  2  0  0  0  0
 21  1  2  0  0  0  0
 22 21  1  0  0  0  0
 22  4  2  0  0  0  0
 23 15  1  0  0  0  0
 23  6  1  0  0  0  0
 24 26  1  0  0  0  0
 26 13  1  0  0  0  0
 28 12  1  0  0  0  0
 28 10  1  0  0  0  0
M  END
>  <MODEL>
9

>  <REMARK>
 VINA RESULT:      -4.6      6.638      9.748
  Name = 
  0 active torsions:
  status: ('A' for Active; 'I' for Inactive)
                            x       y       z     vdW  Elec       q    Type
                         _______ _______ _______ _____ _____    ______ ____

>  <TORSDO>
F 0

$$$$
