=
 OpenBabel11122411553D

 28 32  0  0  1  0  0  0  0  0999 V2000
  180.5500  179.4900  142.1240 C   0  0  0  0  0  0  0  0  0  0  0  0
  179.6870  176.7900  139.8510 O   0  0  0  0  0  0  0  0  0  0  0  0
  186.6310  178.2850  140.7870 O   0  0  0  0  0  0  0  0  0  0  0  0
  179.3120  181.3540  140.4350 C   0  0  0  0  0  3  0  0  0  0  0  0
  185.3160  178.9360  138.8910 C   0  0  0  0  0  0  0  0  0  0  0  0
  181.2360  178.5750  143.0850 C   0  0  0  0  0  2  0  0  0  0  0  0
  179.8460  176.8740  137.4110 O   0  0  0  0  0  0  0  0  0  0  0  0
  180.6360  176.7950  138.6860 S   0  0  0  0  0  0  0  0  0  0  0  0
  183.0290  175.7440  137.6670 C   0  0  2  0  0  3  0  0  0  0  0  0
  181.7140  178.2250  138.7940 C   0  0  2  0  0  3  0  0  0  0  0  0
  184.5080  180.0220  143.8490 O   0  0  0  0  0  0  0  0  0  0  0  0
  183.3310  179.4400  140.1280 C   0  0  2  0  0  3  0  0  0  0  0  0
  183.6870  176.7930  138.4240 N   0  0  0  0  0  2  0  0  0  0  0  0
  181.7300  175.0140  138.6950 S   0  0  0  0  0  0  0  0  0  0  0  0
  183.6650  179.2410  143.3350 C   0  0  0  0  0  0  0  0  0  0  0  0
  180.9300  179.5640  140.7670 C   0  0  0  0  0  0  0  0  0  0  0  0
  185.5470  178.6880  140.2870 C   0  0  0  0  0  0  0  0  0  0  0  0
  184.0410  174.6770  137.3090 C   0  0  0  0  0  1  0  0  0  0  0  0
  184.1110  178.2540  142.3080 C   0  0  0  0  0  2  0  0  0  0  0  0
  180.3100  180.5140  139.9360 C   0  0  0  0  0  3  0  0  0  0  0  0
  179.5530  180.3400  142.6150 C   0  0  0  0  0  3  0  0  0  0  0  0
  178.9310  181.2640  141.7740 C   0  0  0  0  0  3  0  0  0  0  0  0
  182.3040  179.2960  143.7630 N   0  0  0  0  0  2  0  0  0  0  0  0
  183.8690  179.2470  138.6880 C   0  0  2  0  0  3  0  0  0  0  0  0
  184.3630  178.9100  141.0310 N   0  0  0  0  0  0  0  0  0  0  0  0
  183.0620  178.0790  138.0950 C   0  0  2  0  0  3  0  0  0  0  0  0
  186.1810  178.8510  137.9810 O   0  0  0  0  0  0  0  0  0  0  0  0
  182.0150  178.6720  140.2180 C   0  0  1  0  0  3  0  0  0  0  0  0
  1 21  1  0  0  0  0
  1  6  1  0  0  0  0
  4 22  1  0  0  0  0
  5 17  1  0  0  0  0
  6 23  1  0  0  0  0
  7  8  2  0  0  0  0
  8 14  1  0  0  0  0
  8  2  2  0  0  0  0
  9 18  1  1  0  0  0
  9 13  1  0  0  0  0
  9 14  1  0  0  0  0
 10  8  1  1  0  0  0
 10 28  1  0  0  0  0
 12 28  1  0  0  0  0
 12 25  1  1  0  0  0
 15 23  1  0  0  0  0
 15 11  2  0  0  0  0
 16  1  2  0  0  0  0
 17  3  2  0  0  0  0
 17 25  1  0  0  0  0
 19 15  1  0  0  0  0
 20  4  2  0  0  0  0
 20 16  1  0  0  0  0
 22 21  2  0  0  0  0
 24  5  1  1  0  0  0
 24 12  1  0  0  0  0
 25 19  1  0  0  0  0
 26 13  1  1  0  0  0
 26 24  1  0  0  0  0
 26 10  1  0  0  0  0
 27  5  2  0  0  0  0
 28 16  1  6  0  0  0
M  END
>  <MODEL>
1

>  <REMARK>
 VINA RESULT:      -6.0      0.000      0.000
  Name = 
  0 active torsions:
  status: ('A' for Active; 'I' for Inactive)
                            x       y       z     vdW  Elec       q    Type
                         _______ _______ _______ _____ _____    ______ ____

>  <TORSDO>
F 0

$$$$
=
 OpenBabel11122411553D

 28 32  0  0  1  0  0  0  0  0999 V2000
  191.3830  174.5730  137.5260 C   0  0  0  0  0  0  0  0  0  0  0  0
  190.9170  175.8020  140.9140 O   0  0  0  0  0  0  0  0  0  0  0  0
  185.8950  177.3890  136.0560 O   0  0  0  0  0  0  0  0  0  0  0  0
  193.6600  176.1800  137.2190 C   0  0  0  0  0  3  0  0  0  0  0  0
  187.5940  178.8890  136.8340 C   0  0  0  0  0  0  0  0  0  0  0  0
  190.1830  173.6850  137.5940 C   0  0  0  0  0  2  0  0  0  0  0  0
  191.1650  178.1280  141.6330 O   0  0  0  0  0  0  0  0  0  0  0  0
  190.2960  177.1710  140.8670 S   0  0  0  0  0  0  0  0  0  0  0  0
  187.8860  178.6050  140.9260 C   0  0  2  0  0  3  0  0  0  0  0  0
  190.1820  177.7220  139.1640 C   0  0  2  0  0  3  0  0  0  0  0  0
  188.1820  174.3010  134.5940 O   0  0  0  0  0  0  0  0  0  0  0  0
  189.3380  177.2550  136.9410 C   0  0  2  0  0  3  0  0  0  0  0  0
  187.8190  178.3420  139.5000 N   0  0  0  0  0  2  0  0  0  0  0  0
  188.4130  177.0930  141.7710 S   0  0  0  0  0  0  0  0  0  0  0  0
  188.5160  174.3430  135.8060 C   0  0  0  0  0  0  0  0  0  0  0  0
  191.2960  175.9600  137.7650 C   0  0  0  0  0  0  0  0  0  0  0  0
  187.0780  177.6120  136.4280 C   0  0  0  0  0  0  0  0  0  0  0  0
  186.5140  179.0030  141.4260 C   0  0  0  0  0  1  0  0  0  0  0  0
  187.7450  175.2060  136.7490 C   0  0  0  0  0  2  0  0  0  0  0  0
  192.4430  176.7550  137.5930 C   0  0  0  0  0  3  0  0  0  0  0  0
  192.6050  174.0060  137.1470 C   0  0  0  0  0  3  0  0  0  0  0  0
  193.7410  174.8050  137.0000 C   0  0  0  0  0  3  0  0  0  0  0  0
  189.6090  173.5460  136.2630 N   0  0  0  0  0  2  0  0  0  0  0  0
  188.9850  178.7070  137.3490 C   0  0  2  0  0  3  0  0  0  0  0  0
  188.0730  176.6130  136.5530 N   0  0  0  0  0  0  0  0  0  0  0  0
  189.0870  178.7460  138.8830 C   0  0  2  0  0  3  0  0  0  0  0  0
  186.9600  179.9760  136.8090 O   0  0  0  0  0  0  0  0  0  0  0  0
  189.9860  176.5970  138.1570 C   0  0  1  0  0  3  0  0  0  0  0  0
  1  6  1  0  0  0  0
  1 16  1  0  0  0  0
  3 17  2  0  0  0  0
  4 20  1  0  0  0  0
  8  2  2  0  0  0  0
  8  7  2  0  0  0  0
  8 14  1  0  0  0  0
  9 18  1  1  0  0  0
  9 14  1  0  0  0  0
 10  8  1  1  0  0  0
 11 15  2  0  0  0  0
 12 25  1  1  0  0  0
 12 24  1  0  0  0  0
 12 28  1  0  0  0  0
 13  9  1  0  0  0  0
 15 23  1  0  0  0  0
 15 19  1  0  0  0  0
 17 25  1  0  0  0  0
 17  5  1  0  0  0  0
 20 16  2  0  0  0  0
 21  1  2  0  0  0  0
 22 21  1  0  0  0  0
 22  4  2  0  0  0  0
 23  6  1  0  0  0  0
 24  5  1  1  0  0  0
 24 26  1  0  0  0  0
 25 19  1  0  0  0  0
 26 10  1  0  0  0  0
 26 13  1  1  0  0  0
 27  5  2  0  0  0  0
 28 16  1  6  0  0  0
 28 10  1  0  0  0  0
M  END
>  <MODEL>
2

>  <REMARK>
 VINA RESULT:      -5.8      5.767      9.791
  Name = 
  0 active torsions:
  status: ('A' for Active; 'I' for Inactive)
                            x       y       z     vdW  Elec       q    Type
                         _______ _______ _______ _____ _____    ______ ____

>  <TORSDO>
F 0

$$$$
=
 OpenBabel11122411553D

 28 32  0  0  1  0  0  0  0  0999 V2000
  180.5710  178.2530  142.0810 C   0  0  0  0  0  0  0  0  0  0  0  0
  180.3970  181.1500  139.8950 O   0  0  0  0  0  0  0  0  0  0  0  0
  180.4620  174.6630  136.8540 O   0  0  0  0  0  0  0  0  0  0  0  0
  183.1280  179.0130  142.9430 C   0  0  0  0  0  3  0  0  0  0  0  0
  182.3370  176.1500  136.9880 C   0  0  0  0  0  0  0  0  0  0  0  0
  179.2170  177.7650  141.6810 C   0  0  0  0  0  2  0  0  0  0  0  0
  182.2170  181.9890  138.4910 O   0  0  0  0  0  0  0  0  0  0  0  0
  181.2060  180.8900  138.6550 S   0  0  0  0  0  0  0  0  0  0  0  0
  181.1240  179.9560  136.0110 C   0  0  2  0  0  3  0  0  0  0  0  0
  182.0660  179.3240  138.8160 C   0  0  2  0  0  3  0  0  0  0  0  0
  179.5230  174.2190  140.8310 O   0  0  0  0  0  0  0  0  0  0  0  0
  181.8690  176.9390  139.1970 C   0  0  2  0  0  3  0  0  0  0  0  0
  181.2700  178.6320  136.5880 N   0  0  0  0  0  2  0  0  0  0  0  0
  179.9300  180.8920  137.0000 S   0  0  0  0  0  0  0  0  0  0  0  0
  179.3930  175.4580  140.6530 C   0  0  0  0  0  0  0  0  0  0  0  0
  181.5890  178.4800  141.1320 C   0  0  0  0  0  0  0  0  0  0  0  0
  181.1450  175.5160  137.4800 C   0  0  0  0  0  0  0  0  0  0  0  0
  180.6080  179.8300  134.5940 C   0  0  0  0  0  1  0  0  0  0  0  0
  179.4410  176.0080  139.2650 C   0  0  0  0  0  2  0  0  0  0  0  0
  182.8700  178.8470  141.5810 C   0  0  0  0  0  3  0  0  0  0  0  0
  180.8400  178.4170  143.4440 C   0  0  0  0  0  3  0  0  0  0  0  0
  182.1110  178.8020  143.8740 C   0  0  0  0  0  3  0  0  0  0  0  0
  179.1770  176.3130  141.7760 N   0  0  0  0  0  2  0  0  0  0  0  0
  182.7580  177.2070  137.9570 C   0  0  2  0  0  3  0  0  0  0  0  0
  180.8070  176.0220  138.7580 N   0  0  0  0  0  0  0  0  0  0  0  0
  182.4180  178.6360  137.5010 C   0  0  2  0  0  3  0  0  0  0  0  0
  182.9030  175.8930  135.8940 O   0  0  0  0  0  0  0  0  0  0  0  0
  181.3300  178.2910  139.6580 C   0  0  1  0  0  3  0  0  0  0  0  0
  1 21  1  0  0  0  0
  3 17  2  0  0  0  0
  4 22  1  0  0  0  0
  5 17  1  0  0  0  0
  6 23  1  0  0  0  0
  6  1  1  0  0  0  0
  7  8  2  0  0  0  0
  8  2  2  0  0  0  0
  9 18  1  6  0  0  0
  9 13  1  0  0  0  0
  9 14  1  0  0  0  0
 10  8  1  6  0  0  0
 10 28  1  0  0  0  0
 12 25  1  6  0  0  0
 12 28  1  0  0  0  0
 14  8  1  0  0  0  0
 15 11  2  0  0  0  0
 15 23  1  0  0  0  0
 16 20  1  0  0  0  0
 16  1  2  0  0  0  0
 17 25  1  0  0  0  0
 19 15  1  0  0  0  0
 20  4  2  0  0  0  0
 21 22  2  0  0  0  0
 24  5  1  6  0  0  0
 24 12  1  0  0  0  0
 25 19  1  0  0  0  0
 26 13  1  6  0  0  0
 26 24  1  0  0  0  0
 26 10  1  0  0  0  0
 27  5  2  0  0  0  0
 28 16  1  1  0  0  0
M  END
>  <MODEL>
3

>  <REMARK>
 VINA RESULT:      -5.6      3.254      4.730
  Name = 
  0 active torsions:
  status: ('A' for Active; 'I' for Inactive)
                            x       y       z     vdW  Elec       q    Type
                         _______ _______ _______ _____ _____    ______ ____

>  <TORSDO>
F 0

$$$$
=
 OpenBabel11122411553D

 28 32  0  0  1  0  0  0  0  0999 V2000
  187.1780  176.0420  136.5220 C   0  0  0  0  0  0  0  0  0  0  0  0
  186.2220  178.3580  139.1540 O   0  0  0  0  0  0  0  0  0  0  0  0
  181.5670  173.2100  137.3720 O   0  0  0  0  0  0  0  0  0  0  0  0
  187.1820  178.1240  134.6440 C   0  0  0  0  0  3  0  0  0  0  0  0
  181.4200  175.5060  136.6990 C   0  0  0  0  0  0  0  0  0  0  0  0
  187.1990  174.8690  137.4460 C   0  0  0  0  0  2  0  0  0  0  0  0
  184.5550  180.1390  138.9510 O   0  0  0  0  0  0  0  0  0  0  0  0
  184.7510  178.6530  139.0500 S   0  0  0  0  0  0  0  0  0  0  0  0
  182.1930  177.9210  139.9370 C   0  0  2  0  0  3  0  0  0  0  0  0
  184.0850  177.8760  137.5770 C   0  0  2  0  0  3  0  0  0  0  0  0
  185.2600  172.1900  135.8810 O   0  0  0  0  0  0  0  0  0  0  0  0
  183.7660  175.8130  136.3470 C   0  0  2  0  0  3  0  0  0  0  0  0
  182.2360  176.9130  138.8930 N   0  0  0  0  0  2  0  0  0  0  0  0
  183.7970  177.9580  140.7750 S   0  0  0  0  0  0  0  0  0  0  0  0
  185.5320  173.1270  136.6760 C   0  0  0  0  0  0  0  0  0  0  0  0
  186.0290  176.8470  136.3680 C   0  0  0  0  0  0  0  0  0  0  0  0
  182.1120  174.2840  136.9990 C   0  0  0  0  0  0  0  0  0  0  0  0
  181.1160  177.5590  140.9370 C   0  0  0  0  0  1  0  0  0  0  0  0
  184.4710  173.6400  137.5940 C   0  0  0  0  0  2  0  0  0  0  0  0
  186.0420  177.8780  135.4120 C   0  0  0  0  0  3  0  0  0  0  0  0
  188.3130  176.2930  135.7440 C   0  0  0  0  0  3  0  0  0  0  0  0
  188.3190  177.3340  134.8130 C   0  0  0  0  0  3  0  0  0  0  0  0
  186.8540  173.6630  136.7070 N   0  0  0  0  0  2  0  0  0  0  0  0
  182.4260  176.5820  136.4490 C   0  0  2  0  0  3  0  0  0  0  0  0
  183.5100  174.4620  136.8680 N   0  0  0  0  0  0  0  0  0  0  0  0
  182.5930  177.5590  137.6260 C   0  0  2  0  0  3  0  0  0  0  0  0
  180.1710  175.6580  136.7000 O   0  0  0  0  0  0  0  0  0  0  0  0
  184.7860  176.5840  137.1810 C   0  0  1  0  0  3  0  0  0  0  0  0
  1  6  1  0  0  0  0
  4 22  2  0  0  0  0
  4 20  1  0  0  0  0
  5 27  2  0  0  0  0
  5 17  1  0  0  0  0
  7  8  2  0  0  0  0
  8  2  2  0  0  0  0
  8 14  1  0  0  0  0
  9 14  1  0  0  0  0
  9 18  1  1  0  0  0
 10 26  1  0  0  0  0
 10  8  1  1  0  0  0
 11 15  2  0  0  0  0
 12 24  1  0  0  0  0
 12 25  1  1  0  0  0
 12 28  1  0  0  0  0
 13  9  1  0  0  0  0
 15 23  1  0  0  0  0
 15 19  1  0  0  0  0
 16  1  1  0  0  0  0
 17  3  2  0  0  0  0
 20 16  2  0  0  0  0
 21  1  2  0  0  0  0
 22 21  1  0  0  0  0
 23  6  1  0  0  0  0
 24  5  1  1  0  0  0
 24 26  1  0  0  0  0
 25 17  1  0  0  0  0
 25 19  1  0  0  0  0
 26 13  1  1  0  0  0
 28 16  1  6  0  0  0
 28 10  1  0  0  0  0
M  END
>  <MODEL>
4

>  <REMARK>
 VINA RESULT:      -5.2      3.224      7.298
  Name = 
  0 active torsions:
  status: ('A' for Active; 'I' for Inactive)
                            x       y       z     vdW  Elec       q    Type
                         _______ _______ _______ _____ _____    ______ ____

>  <TORSDO>
F 0

$$$$
=
 OpenBabel11122411553D

 28 32  0  0  1  0  0  0  0  0999 V2000
  184.3580  175.9720  135.7570 C   0  0  0  0  0  0  0  0  0  0  0  0
  181.3670  177.9460  135.1600 O   0  0  0  0  0  0  0  0  0  0  0  0
  185.4080  179.6250  140.8340 O   0  0  0  0  0  0  0  0  0  0  0  0
  182.7990  173.6920  136.2390 C   0  0  0  0  0  3  0  0  0  0  0  0
  183.3500  178.3980  140.9110 C   0  0  0  0  0  0  0  0  0  0  0  0
  185.2710  177.1300  135.5210 C   0  0  0  0  0  2  0  0  0  0  0  0
  179.3050  177.8440  136.4740 O   0  0  0  0  0  0  0  0  0  0  0  0
  180.7340  178.3060  136.4750 S   0  0  0  0  0  0  0  0  0  0  0  0
  180.5780  180.2440  138.4980 C   0  0  2  0  0  3  0  0  0  0  0  0
  181.6110  177.4840  137.8080 C   0  0  2  0  0  3  0  0  0  0  0  0
  187.6350  177.2640  138.3100 O   0  0  0  0  0  0  0  0  0  0  0  0
  183.7380  177.1370  138.9160 C   0  0  2  0  0  3  0  0  0  0  0  0
  181.7630  179.6100  139.0480 N   0  0  0  0  0  2  0  0  0  0  0  0
  180.7750  180.3830  136.7030 S   0  0  0  0  0  0  0  0  0  0  0  0
  186.6510  177.5850  137.5940 C   0  0  0  0  0  0  0  0  0  0  0  0
  183.3380  176.0160  136.7300 C   0  0  0  0  0  0  0  0  0  0  0  0
  184.6150  178.7750  140.3460 C   0  0  0  0  0  0  0  0  0  0  0  0
  180.4300  181.6280  139.0920 C   0  0  0  0  0  1  0  0  0  0  0  0
  185.6990  178.6270  138.0790 C   0  0  0  0  0  2  0  0  0  0  0  0
  182.5740  174.8600  136.9710 C   0  0  0  0  0  3  0  0  0  0  0  0
  184.5790  174.7950  135.0320 C   0  0  0  0  0  3  0  0  0  0  0  0
  183.7990  173.6610  135.2670 C   0  0  0  0  0  3  0  0  0  0  0  0
  186.4780  176.9660  136.3180 N   0  0  0  0  0  2  0  0  0  0  0  0
  182.6470  177.4870  139.9590 C   0  0  2  0  0  3  0  0  0  0  0  0
  184.8340  178.0940  139.1240 N   0  0  0  0  0  0  0  0  0  0  0  0
  181.5170  178.1690  139.1680 C   0  0  2  0  0  3  0  0  0  0  0  0
  182.8860  178.8110  142.0060 O   0  0  0  0  0  0  0  0  0  0  0  0
  183.0930  177.2660  137.5380 C   0  0  1  0  0  3  0  0  0  0  0  0
  1 16  1  0  0  0  0
  2  8  2  0  0  0  0
  4 20  1  0  0  0  0
  5 27  2  0  0  0  0
  6  1  1  0  0  0  0
  6 23  1  0  0  0  0
  7  8  2  0  0  0  0
  8 14  1  0  0  0  0
  9 13  1  0  0  0  0
  9 18  1  1  0  0  0
 10  8  1  6  0  0  0
 10 26  1  0  0  0  0
 12 25  1  6  0  0  0
 12 24  1  0  0  0  0
 14  9  1  0  0  0  0
 15 19  1  0  0  0  0
 15 11  2  0  0  0  0
 16 20  2  0  0  0  0
 17  3  2  0  0  0  0
 17  5  1  0  0  0  0
 19 25  1  0  0  0  0
 21 22  1  0  0  0  0
 21  1  2  0  0  0  0
 22  4  2  0  0  0  0
 23 15  1  0  0  0  0
 24  5  1  1  0  0  0
 25 17  1  0  0  0  0
 26 13  1  6  0  0  0
 26 24  1  0  0  0  0
 28 16  1  6  0  0  0
 28 10  1  0  0  0  0
 28 12  1  0  0  0  0
M  END
>  <MODEL>
5

>  <REMARK>
 VINA RESULT:      -5.1      2.400      5.934
  Name = 
  0 active torsions:
  status: ('A' for Active; 'I' for Inactive)
                            x       y       z     vdW  Elec       q    Type
                         _______ _______ _______ _____ _____    ______ ____

>  <TORSDO>
F 0

$$$$
=
 OpenBabel11122411553D

 28 32  0  0  1  0  0  0  0  0999 V2000
  181.4200  177.3290  137.5620 C   0  0  0  0  0  0  0  0  0  0  0  0
  182.2750  173.8090  137.2740 O   0  0  0  0  0  0  0  0  0  0  0  0
  187.6390  178.5160  137.9200 O   0  0  0  0  0  0  0  0  0  0  0  0
  180.3630  177.3200  134.9650 C   0  0  0  0  0  3  0  0  0  0  0  0
  186.9520  177.4680  135.8760 C   0  0  0  0  0  0  0  0  0  0  0  0
  181.9610  177.4340  138.9500 C   0  0  0  0  0  2  0  0  0  0  0  0
  183.2580  172.7370  135.3060 O   0  0  0  0  0  0  0  0  0  0  0  0
  183.5280  173.6650  136.4560 S   0  0  0  0  0  0  0  0  0  0  0  0
  186.3240  173.4600  136.5500 C   0  0  2  0  0  3  0  0  0  0  0  0
  184.0130  175.2670  135.8110 C   0  0  2  0  0  3  0  0  0  0  0  0
  184.1500  180.3630  139.0670 O   0  0  0  0  0  0  0  0  0  0  0  0
  184.6050  177.5590  136.3270 C   0  0  2  0  0  3  0  0  0  0  0  0
  186.3220  174.9100  136.5990 N   0  0  0  0  0  2  0  0  0  0  0  0
  185.0290  172.8400  137.6540 S   0  0  0  0  0  0  0  0  0  0  0  0
  183.8220  179.1490  139.0290 C   0  0  0  0  0  0  0  0  0  0  0  0
  182.2150  176.8840  136.4850 C   0  0  0  0  0  0  0  0  0  0  0  0
  186.7350  178.0780  137.1580 C   0  0  0  0  0  0  0  0  0  0  0  0
  187.6680  172.9460  137.0210 C   0  0  0  0  0  1  0  0  0  0  0  0
  184.8780  178.1080  138.8560 C   0  0  0  0  0  2  0  0  0  0  0  0
  181.6750  176.8990  135.1870 C   0  0  0  0  0  3  0  0  0  0  0  0
  180.1070  177.7540  137.3290 C   0  0  0  0  0  3  0  0  0  0  0  0
  179.5770  177.7430  136.0370 C   0  0  0  0  0  3  0  0  0  0  0  0
  182.4490  178.7860  139.1790 N   0  0  0  0  0  2  0  0  0  0  0  0
  185.6500  176.9460  135.3630 C   0  0  2  0  0  3  0  0  0  0  0  0
  185.3570  178.0780  137.4800 N   0  0  0  0  0  0  0  0  0  0  0  0
  185.4980  175.4200  135.4980 C   0  0  2  0  0  3  0  0  0  0  0  0
  188.0670  177.3450  135.3040 O   0  0  0  0  0  0  0  0  0  0  0  0
  183.6390  176.4390  136.7070 C   0  0  1  0  0  3  0  0  0  0  0  0
  1  6  1  0  0  0  0
  4 20  2  0  0  0  0
  4 22  1  0  0  0  0
  5 17  1  0  0  0  0
  6 23  1  0  0  0  0
  7  8  2  0  0  0  0
  8  2  2  0  0  0  0
  8 14  1  0  0  0  0
  9 13  1  0  0  0  0
  9 18  1  1  0  0  0
  9 14  1  0  0  0  0
 10  8  1  1  0  0  0
 10 28  1  0  0  0  0
 12 28  1  0  0  0  0
 12 25  1  1  0  0  0
 15 11  2  0  0  0  0
 15 23  1  0  0  0  0
 16  1  2  0  0  0  0
 17 25  1  0  0  0  0
 17  3  2  0  0  0  0
 19 15  1  0  0  0  0
 20 16  1  0  0  0  0
 21  1  1  0  0  0  0
 22 21  2  0  0  0  0
 24 26  1  0  0  0  0
 24  5  1  1  0  0  0
 24 12  1  0  0  0  0
 25 19  1  0  0  0  0
 26 10  1  0  0  0  0
 26 13  1  1  0  0  0
 27  5  2  0  0  0  0
 28 16  1  6  0  0  0
M  END
>  <MODEL>
6

>  <REMARK>
 VINA RESULT:      -5.1      3.409      4.705
  Name = 
  0 active torsions:
  status: ('A' for Active; 'I' for Inactive)
                            x       y       z     vdW  Elec       q    Type
                         _______ _______ _______ _____ _____    ______ ____

>  <TORSDO>
F 0

$$$$
=
 OpenBabel11122411553D

 28 32  0  0  1  0  0  0  0  0999 V2000
  186.0460  176.7600  137.3740 C   0  0  0  0  0  0  0  0  0  0  0  0
  183.5200  177.4970  134.8690 O   0  0  0  0  0  0  0  0  0  0  0  0
  182.1260  179.3050  141.6600 O   0  0  0  0  0  0  0  0  0  0  0  0
  185.7140  174.0090  136.9500 C   0  0  0  0  0  3  0  0  0  0  0  0
  181.2350  177.3910  140.5240 C   0  0  0  0  0  0  0  0  0  0  0  0
  186.2910  178.2040  137.6720 C   0  0  0  0  0  2  0  0  0  0  0  0
  181.3960  176.3120  134.5940 O   0  0  0  0  0  0  0  0  0  0  0  0
  182.1540  177.2800  135.4580 S   0  0  0  0  0  0  0  0  0  0  0  0
  179.9930  178.5020  136.7640 C   0  0  2  0  0  3  0  0  0  0  0  0
  182.3130  176.5890  137.1050 C   0  0  2  0  0  3  0  0  0  0  0  0
  186.1640  178.6210  141.3050 O   0  0  0  0  0  0  0  0  0  0  0  0
  183.2380  176.8580  139.3290 C   0  0  2  0  0  3  0  0  0  0  0  0
  180.7420  178.2730  137.9860 N   0  0  0  0  0  2  0  0  0  0  0  0
  181.1310  179.1020  135.4900 S   0  0  0  0  0  0  0  0  0  0  0  0
  185.7870  178.6850  140.1060 C   0  0  0  0  0  0  0  0  0  0  0  0
  184.7620  176.1870  137.4800 C   0  0  0  0  0  0  0  0  0  0  0  0
  182.2570  178.3460  140.8530 C   0  0  0  0  0  0  0  0  0  0  0  0
  178.9310  179.5500  137.0170 C   0  0  0  0  0  1  0  0  0  0  0  0
  184.3990  179.1390  139.7970 C   0  0  0  0  0  2  0  0  0  0  0  0
  184.6140  174.8030  137.2790 C   0  0  0  0  0  3  0  0  0  0  0  0
  187.1440  175.9550  137.0490 C   0  0  0  0  0  3  0  0  0  0  0  0
  186.9790  174.5860  136.8310 C   0  0  0  0  0  3  0  0  0  0  0  0
  186.7010  178.3480  139.0620 N   0  0  0  0  0  2  0  0  0  0  0  0
  181.7300  176.5150  139.4190 C   0  0  2  0  0  3  0  0  0  0  0  0
  183.4300  178.0940  140.1030 N   0  0  0  0  0  0  0  0  0  0  0  0
  181.1390  176.8620  138.0420 C   0  0  2  0  0  3  0  0  0  0  0  0
  180.0900  177.3370  141.0440 O   0  0  0  0  0  0  0  0  0  0  0  0
  183.5660  177.0300  137.8480 C   0  0  1  0  0  3  0  0  0  0  0  0
  1 16  1  0  0  0  0
  1  6  1  0  0  0  0
  2  8  2  0  0  0  0
  4 20  1  0  0  0  0
  5 17  1  0  0  0  0
  5 27  2  0  0  0  0
  6 23  1  0  0  0  0
  7  8  2  0  0  0  0
  8 14  1  0  0  0  0
  9 18  1  1  0  0  0
  9 13  1  0  0  0  0
 10  8  1  6  0  0  0
 10 28  1  0  0  0  0
 10 26  1  0  0  0  0
 12 24  1  0  0  0  0
 12 25  1  1  0  0  0
 14  9  1  0  0  0  0
 15 11  2  0  0  0  0
 17  3  2  0  0  0  0
 19 25  1  0  0  0  0
 19 15  1  0  0  0  0
 20 16  2  0  0  0  0
 21  1  2  0  0  0  0
 22  4  2  0  0  0  0
 22 21  1  0  0  0  0
 23 15  1  0  0  0  0
 24  5  1  1  0  0  0
 25 17  1  0  0  0  0
 26 13  1  1  0  0  0
 26 24  1  0  0  0  0
 28 16  1  6  0  0  0
 28 12  1  0  0  0  0
M  END
>  <MODEL>
7

>  <REMARK>
 VINA RESULT:      -5.1      2.586      5.832
  Name = 
  0 active torsions:
  status: ('A' for Active; 'I' for Inactive)
                            x       y       z     vdW  Elec       q    Type
                         _______ _______ _______ _____ _____    ______ ____

>  <TORSDO>
F 0

$$$$
=
 OpenBabel11122411553D

 28 32  0  0  1  0  0  0  0  0999 V2000
  182.5520  177.9190  139.3010 C   0  0  0  0  0  0  0  0  0  0  0  0
  182.9770  174.6450  137.7850 O   0  0  0  0  0  0  0  0  0  0  0  0
  188.8770  178.3160  139.5310 O   0  0  0  0  0  0  0  0  0  0  0  0
  181.3880  178.8970  136.9460 C   0  0  0  0  0  3  0  0  0  0  0  0
  187.9840  178.0990  137.3180 C   0  0  0  0  0  0  0  0  0  0  0  0
  183.1630  177.4910  140.5960 C   0  0  0  0  0  2  0  0  0  0  0  0
  183.7400  174.2210  135.4980 O   0  0  0  0  0  0  0  0  0  0  0  0
  184.1670  174.6700  136.8670 S   0  0  0  0  0  0  0  0  0  0  0  0
  186.9220  174.1810  136.6600 C   0  0  2  0  0  3  0  0  0  0  0  0
  184.8070  176.3420  136.7580 C   0  0  2  0  0  3  0  0  0  0  0  0
  185.6820  179.9830  141.5090 O   0  0  0  0  0  0  0  0  0  0  0  0
  185.6850  178.2530  137.9620 C   0  0  2  0  0  3  0  0  0  0  0  0
  187.0910  175.5210  137.1920 N   0  0  0  0  0  2  0  0  0  0  0  0
  185.6130  173.3470  137.5930 S   0  0  0  0  0  0  0  0  0  0  0  0
  185.2120  178.8910  141.0940 C   0  0  0  0  0  0  0  0  0  0  0  0
  183.2420  177.7950  138.0780 C   0  0  0  0  0  0  0  0  0  0  0  0
  187.8960  178.2530  138.7430 C   0  0  0  0  0  0  0  0  0  0  0  0
  188.2160  173.4120  136.8210 C   0  0  0  0  0  1  0  0  0  0  0  0
  186.1310  177.8770  140.4980 C   0  0  0  0  0  2  0  0  0  0  0  0
  182.6510  178.3040  136.9070 C   0  0  0  0  0  3  0  0  0  0  0  0
  181.2890  178.5200  139.3310 C   0  0  0  0  0  3  0  0  0  0  0  0
  180.7050  179.0020  138.1580 C   0  0  0  0  0  3  0  0  0  0  0  0
  183.8140  178.6320  141.2250 N   0  0  0  0  0  2  0  0  0  0  0  0
  186.6080  177.9100  136.7660 C   0  0  2  0  0  3  0  0  0  0  0  0
  186.5420  178.2730  139.1560 N   0  0  0  0  0  0  0  0  0  0  0  0
  186.2850  176.4520  136.3950 C   0  0  2  0  0  3  0  0  0  0  0  0
  189.0500  178.0740  136.6490 O   0  0  0  0  0  0  0  0  0  0  0  0
  184.6130  177.1680  138.0220 C   0  0  1  0  0  3  0  0  0  0  0  0
  1 21  1  0  0  0  0
  1  6  1  0  0  0  0
  4 22  1  0  0  0  0
  5 17  1  0  0  0  0
  6 23  1  0  0  0  0
  7  8  2  0  0  0  0
  8 14  1  0  0  0  0
  8  2  2  0  0  0  0
  9 18  1  1  0  0  0
  9 13  1  0  0  0  0
  9 14  1  0  0  0  0
 10  8  1  1  0  0  0
 10 28  1  0  0  0  0
 12 28  1  0  0  0  0
 12 25  1  1  0  0  0
 15 23  1  0  0  0  0
 15 11  2  0  0  0  0
 16  1  2  0  0  0  0
 17 25  1  0  0  0  0
 17  3  2  0  0  0  0
 19 15  1  0  0  0  0
 20  4  2  0  0  0  0
 20 16  1  0  0  0  0
 22 21  2  0  0  0  0
 24  5  1  1  0  0  0
 24 12  1  0  0  0  0
 25 19  1  0  0  0  0
 26 10  1  0  0  0  0
 26 24  1  0  0  0  0
 26 13  1  1  0  0  0
 27  5  2  0  0  0  0
 28 16  1  6  0  0  0
M  END
>  <MODEL>
8

>  <REMARK>
 VINA RESULT:      -5.0      2.758      3.809
  Name = 
  0 active torsions:
  status: ('A' for Active; 'I' for Inactive)
                            x       y       z     vdW  Elec       q    Type
                         _______ _______ _______ _____ _____    ______ ____

>  <TORSDO>
F 0

$$$$
=
 OpenBabel11122411553D

 28 32  0  0  1  0  0  0  0  0999 V2000
  190.1910  174.5670  136.3510 C   0  0  0  0  0  0  0  0  0  0  0  0
  189.7060  177.2800  138.7190 O   0  0  0  0  0  0  0  0  0  0  0  0
  183.8870  174.4110  135.6800 O   0  0  0  0  0  0  0  0  0  0  0  0
  191.5280  176.2930  134.5940 C   0  0  0  0  0  3  0  0  0  0  0  0
  184.8930  176.4950  135.0550 C   0  0  0  0  0  0  0  0  0  0  0  0
  189.4900  173.5730  137.2190 C   0  0  0  0  0  2  0  0  0  0  0  0
  189.0550  179.5690  138.1510 O   0  0  0  0  0  0  0  0  0  0  0  0
  188.5720  178.1510  138.2560 S   0  0  0  0  0  0  0  0  0  0  0  0
  185.8150  178.6280  138.4480 C   0  0  2  0  0  3  0  0  0  0  0  0
  188.0150  177.6030  136.6420 C   0  0  2  0  0  3  0  0  0  0  0  0
  187.0370  171.8250  135.1420 O   0  0  0  0  0  0  0  0  0  0  0  0
  187.1560  175.7660  135.3150 C   0  0  2  0  0  3  0  0  0  0  0  0
  185.6760  177.6110  137.4220 N   0  0  0  0  0  2  0  0  0  0  0  0
  187.0300  178.0630  139.6650 S   0  0  0  0  0  0  0  0  0  0  0  0
  187.4800  172.6260  136.0050 C   0  0  0  0  0  0  0  0  0  0  0  0
  189.5660  175.7610  135.9350 C   0  0  0  0  0  0  0  0  0  0  0  0
  184.9070  175.1250  135.4860 C   0  0  0  0  0  0  0  0  0  0  0  0
  184.4810  178.8320  139.1340 C   0  0  0  0  0  1  0  0  0  0  0  0
  186.5520  173.6090  136.6390 C   0  0  0  0  0  2  0  0  0  0  0  0
  190.2440  176.6090  135.0420 C   0  0  0  0  0  3  0  0  0  0  0  0
  191.4760  174.2560  135.8930 C   0  0  0  0  0  3  0  0  0  0  0  0
  192.1460  175.1180  135.0220 C   0  0  0  0  0  3  0  0  0  0  0  0
  188.8560  172.5630  136.3830 N   0  0  0  0  0  2  0  0  0  0  0  0
  186.2880  177.0300  135.0960 C   0  0  2  0  0  3  0  0  0  0  0  0
  186.2350  174.6930  135.7170 N   0  0  0  0  0  0  0  0  0  0  0  0
  186.5660  177.9420  136.3040 C   0  0  2  0  0  3  0  0  0  0  0  0
  183.8660  177.1540  134.7450 O   0  0  0  0  0  0  0  0  0  0  0  0
  188.1740  176.1090  136.4000 C   0  0  1  0  0  3  0  0  0  0  0  0
  1  6  1  0  0  0  0
  4 22  2  0  0  0  0
  4 20  1  0  0  0  0
  5 17  1  0  0  0  0
  7  8  2  0  0  0  0
  8  2  2  0  0  0  0
  8 14  1  0  0  0  0
  9 18  1  1  0  0  0
  9 14  1  0  0  0  0
 10  8  1  1  0  0  0
 11 15  2  0  0  0  0
 12 25  1  1  0  0  0
 12 28  1  0  0  0  0
 13  9  1  0  0  0  0
 15 23  1  0  0  0  0
 15 19  1  0  0  0  0
 16  1  1  0  0  0  0
 17  3  2  0  0  0  0
 17 25  1  0  0  0  0
 20 16  2  0  0  0  0
 21  1  2  0  0  0  0
 22 21  1  0  0  0  0
 23  6  1  0  0  0  0
 24  5  1  1  0  0  0
 24 12  1  0  0  0  0
 24 26  1  0  0  0  0
 25 19  1  0  0  0  0
 26 10  1  0  0  0  0
 26 13  1  1  0  0  0
 27  5  2  0  0  0  0
 28 16  1  6  0  0  0
 28 10  1  0  0  0  0
M  END
>  <MODEL>
9

>  <REMARK>
 VINA RESULT:      -4.7      5.168      9.244
  Name = 
  0 active torsions:
  status: ('A' for Active; 'I' for Inactive)
                            x       y       z     vdW  Elec       q    Type
                         _______ _______ _______ _____ _____    ______ ____

>  <TORSDO>
F 0

$$$$
