=
 OpenBabel11122412093D

 34 40  0  0  1  0  0  0  0  0999 V2000
  182.1920  179.0960  143.1110 C   0  0  0  0  0  0  0  0  0  0  0  0
  183.2120  178.7380  145.3560 C   0  0  0  0  0  2  0  0  0  0  0  0
  182.5120  176.1790  137.2880 C   0  0  1  0  0  3  0  0  0  0  0  0
  181.4300  178.3700  140.9350 C   0  0  0  0  0  0  0  0  0  0  0  0
  183.1250  178.0710  139.0420 C   0  0  2  0  0  3  0  0  0  0  0  0
  184.4950  177.4420  137.2300 O   0  0  0  0  0  0  0  0  0  0  0  0
  182.4190  175.1230  138.1940 O   0  0  0  0  0  1  0  0  0  0  0  0
  180.8730  178.1630  137.0880 C   0  0  0  0  0  2  0  0  0  0  0  0
  184.7020  179.3700  143.6300 C   0  0  2  0  0  3  0  0  0  0  0  0
  187.5310  177.9500  144.0210 C   0  0  0  0  0  2  0  0  0  0  0  0
  184.1020  177.7340  140.1580 C   0  0  0  0  0  2  0  0  0  0  0  0
  180.6670  178.5410  138.5560 C   0  0  0  0  0  2  0  0  0  0  0  0
  184.9090  178.4170  142.4340 C   0  0  1  0  0  3  0  0  0  0  0  0
  184.4680  178.8310  145.9700 O   0  0  0  0  0  0  0  0  0  0  0  0
  181.6700  177.8920  139.5210 C   0  0  2  0  0  3  0  0  0  0  0  0
  181.1020  176.6620  136.9010 C   0  0  0  0  0  2  0  0  0  0  0  0
  186.2890  177.6890  144.8590 C   0  0  2  0  0  3  0  0  0  0  0  0
  182.4970  178.6990  141.8000 C   0  0  0  0  0  0  0  0  0  0  0  0
  183.4460  177.2410  137.8200 C   0  0  0  0  0  0  0  0  0  0  0  0
  183.9210  178.7240  141.3060 C   0  0  2  0  0  3  0  0  0  0  0  0
  179.8860  178.7740  142.6860 C   0  0  0  0  0  3  0  0  0  0  0  0
  187.2780  177.5960  142.5660 C   0  0  0  0  0  2  0  0  0  0  0  0
  180.1560  178.3930  141.4130 N   0  0  0  0  0  0  0  0  0  0  0  0
  186.3330  178.5880  141.9090 C   0  0  0  0  0  2  0  0  0  0  0  0
  185.4150  178.9500  144.9310 C   0  0  1  0  0  3  0  0  0  0  0  0
  180.8950  179.1280  143.5170 N   0  0  0  0  0  0  0  0  0  0  0  0
  183.2640  179.5280  144.0770 C   0  0  1  0  0  3  0  0  0  0  0  0
  186.6820  177.3060  146.1450 O   0  0  0  0  0  0  0  0  0  0  0  0
  187.9890  177.1450  146.0670 O   0  0  0  0  0  0  0  0  0  0  0  0
  190.3040  177.9690  147.9970 O   0  0  0  0  0  0  0  0  0  0  0  0
  187.9710  177.8070  148.3350 C   0  0  0  0  0  2  0  0  0  0  0  0
  188.3820  176.7540  147.3500 C   0  0  2  0  0  3  0  0  0  0  0  0
  189.2780  178.3300  148.8810 C   0  0  0  0  0  2  0  0  0  0  0  0
  189.8910  176.7530  147.4360 C   0  0  0  0  0  2  0  0  0  0  0  0
  1 26  1  0  0  0  0
  1 27  1  0  0  0  0
  2 14  1  0  0  0  0
  3 19  1  0  0  0  0
  3  7  1  1  0  0  0
  4 23  2  0  0  0  0
  4 18  1  0  0  0  0
  5 15  1  0  0  0  0
  5 11  1  1  0  0  0
  6 19  2  0  0  0  0
  8 12  1  0  0  0  0
  9 27  1  0  0  0  0
  9 25  1  0  0  0  0
 10 17  1  0  0  0  0
 11 20  1  0  0  0  0
 12 15  1  0  0  0  0
 13  9  1  0  0  0  0
 15  4  1  0  0  0  0
 16  8  1  0  0  0  0
 16  3  1  0  0  0  0
 17 25  1  0  0  0  0
 17 28  1  0  0  0  0
 18  1  2  0  0  0  0
 19  5  1  0  0  0  0
 20 18  1  0  0  0  0
 20 13  1  0  0  0  0
 21 26  2  0  0  0  0
 22 10  1  0  0  0  0
 23 21  1  0  0  0  0
 24 13  1  0  0  0  0
 24 22  1  0  0  0  0
 25 14  1  0  0  0  0
 27  2  1  0  0  0  0
 29 28  1  0  0  0  0
 29 32  1  0  0  0  0
 30 33  1  0  0  0  0
 31 33  1  0  0  0  0
 32 34  1  0  0  0  0
 32 31  1  0  0  0  0
 34 30  1  0  0  0  0
M  END
>  <MODEL>
1

>  <REMARK>
 VINA RESULT:      -8.8      0.000      0.000
  Name = 
  3 active torsions:
  status: ('A' for Active; 'I' for Inactive)
    1  A    between atoms: C_17  and  O_28
    2  A    between atoms: O_28  and  O_29
    3  A    between atoms: O_29  and  C_32
                            x       y       z     vdW  Elec       q    Type
                         _______ _______ _______ _____ _____    ______ ____

>  <TORSDO>
F 3

$$$$
=
 OpenBabel11122412093D

 34 40  0  0  1  0  0  0  0  0999 V2000
  187.7960  178.1830  139.7700 C   0  0  0  0  0  0  0  0  0  0  0  0
  186.9710  178.1260  142.1200 C   0  0  0  0  0  2  0  0  0  0  0  0
  191.5930  174.4220  136.0320 C   0  0  1  0  0  3  0  0  0  0  0  0
  188.6210  177.1690  137.7360 C   0  0  0  0  0  0  0  0  0  0  0  0
  191.0930  176.5320  137.5610 C   0  0  2  0  0  3  0  0  0  0  0  0
  193.2320  175.5910  137.2480 O   0  0  0  0  0  0  0  0  0  0  0  0
  190.7780  173.5170  136.7110 O   0  0  0  0  0  1  0  0  0  0  0  0
  190.7920  176.4120  134.5950 C   0  0  0  0  0  2  0  0  0  0  0  0
  189.3010  178.4410  141.8460 C   0  0  2  0  0  3  0  0  0  0  0  0
  190.9070  176.9950  144.1920 C   0  0  0  0  0  2  0  0  0  0  0  0
  191.0040  176.3290  139.0650 C   0  0  0  0  0  2  0  0  0  0  0  0
  189.6990  177.0110  135.4810 C   0  0  0  0  0  2  0  0  0  0  0  0
  190.1380  177.3140  141.2050 C   0  0  1  0  0  3  0  0  0  0  0  0
  187.4800  178.2640  143.4190 O   0  0  0  0  0  0  0  0  0  0  0  0
  189.6910  176.4770  136.9210 C   0  0  2  0  0  3  0  0  0  0  0  0
  190.8930  174.8930  134.7440 C   0  0  0  0  0  2  0  0  0  0  0  0
  189.4060  176.9060  143.9640 C   0  0  2  0  0  3  0  0  0  0  0  0
  188.8530  177.5840  139.0660 C   0  0  0  0  0  0  0  0  0  0  0  0
  192.0460  175.5180  136.9690 C   0  0  0  0  0  0  0  0  0  0  0  0
  190.2240  177.4850  139.6860 C   0  0  2  0  0  3  0  0  0  0  0  0
  186.3690  177.8830  137.9040 C   0  0  0  0  0  3  0  0  0  0  0  0
  191.6620  176.4380  142.9980 C   0  0  0  0  0  2  0  0  0  0  0  0
  187.3770  177.3080  137.2030 N   0  0  0  0  0  0  0  0  0  0  0  0
  191.5480  177.3540  141.7910 C   0  0  0  0  0  2  0  0  0  0  0  0
  188.8840  178.1940  143.3100 C   0  0  1  0  0  3  0  0  0  0  0  0
  186.5840  178.3210  139.1680 N   0  0  0  0  0  0  0  0  0  0  0  0
  187.9750  178.7150  141.1660 C   0  0  1  0  0  3  0  0  0  0  0  0
  188.7720  176.7050  145.1940 O   0  0  0  0  0  0  0  0  0  0  0  0
  189.7000  176.9520  146.0990 O   0  0  0  0  0  0  0  0  0  0  0  0
  188.7620  178.9370  148.3220 O   0  0  0  0  0  0  0  0  0  0  0  0
  187.6150  177.2140  147.1800 C   0  0  0  0  0  2  0  0  0  0  0  0
  189.0520  176.8110  147.3290 C   0  0  2  0  0  3  0  0  0  0  0  0
  187.4800  178.4290  148.0680 C   0  0  0  0  0  2  0  0  0  0  0  0
  189.6070  177.8190  148.3090 C   0  0  0  0  0  2  0  0  0  0  0  0
  1 27  1  0  0  0  0
  2 14  1  0  0  0  0
  3  7  1  1  0  0  0
  3 19  1  0  0  0  0
  4 18  1  0  0  0  0
  5 11  1  1  0  0  0
  8 16  1  0  0  0  0
  8 12  1  0  0  0  0
  9 25  1  0  0  0  0
 11 20  1  0  0  0  0
 12 15  1  0  0  0  0
 13 24  1  0  0  0  0
 13  9  1  0  0  0  0
 15  5  1  0  0  0  0
 15  4  1  0  0  0  0
 16  3  1  0  0  0  0
 17 10  1  0  0  0  0
 17 28  1  0  0  0  0
 18 20  1  0  0  0  0
 18  1  2  0  0  0  0
 19  6  2  0  0  0  0
 19  5  1  0  0  0  0
 20 13  1  0  0  0  0
 21 26  2  0  0  0  0
 22 10  1  0  0  0  0
 23  4  2  0  0  0  0
 23 21  1  0  0  0  0
 24 22  1  0  0  0  0
 25 14  1  0  0  0  0
 25 17  1  0  0  0  0
 26  1  1  0  0  0  0
 27  9  1  0  0  0  0
 27  2  1  0  0  0  0
 28 29  1  0  0  0  0
 29 32  1  0  0  0  0
 31 32  1  0  0  0  0
 31 33  1  0  0  0  0
 32 34  1  0  0  0  0
 33 30  1  0  0  0  0
 34 30  1  0  0  0  0
M  END
>  <MODEL>
2

>  <REMARK>
 VINA RESULT:      -8.7      4.965      6.508
  Name = 
  3 active torsions:
  status: ('A' for Active; 'I' for Inactive)
    1  A    between atoms: C_17  and  O_28
    2  A    between atoms: O_28  and  O_29
    3  A    between atoms: O_29  and  C_32
                            x       y       z     vdW  Elec       q    Type
                         _______ _______ _______ _____ _____    ______ ____

>  <TORSDO>
F 3

$$$$
=
 OpenBabel11122412093D

 34 40  0  0  1  0  0  0  0  0999 V2000
  182.3660  178.9840  143.5680 C   0  0  0  0  0  0  0  0  0  0  0  0
  183.8170  178.5820  145.5520 C   0  0  0  0  0  2  0  0  0  0  0  0
  181.6890  176.3590  137.6360 C   0  0  1  0  0  3  0  0  0  0  0  0
  181.2310  178.3150  141.5400 C   0  0  0  0  0  0  0  0  0  0  0  0
  182.5400  178.2020  139.3440 C   0  0  2  0  0  3  0  0  0  0  0  0
  183.5610  177.7360  137.2710 O   0  0  0  0  0  0  0  0  0  0  0  0
  181.8240  175.2590  138.4820 O   0  0  0  0  0  1  0  0  0  0  0  0
  179.9490  178.2530  137.8650 C   0  0  0  0  0  2  0  0  0  0  0  0
  184.9130  179.3770  143.6110 C   0  0  2  0  0  3  0  0  0  0  0  0
  187.8280  178.1070  143.3740 C   0  0  0  0  0  2  0  0  0  0  0  0
  183.7290  177.8700  140.2310 C   0  0  0  0  0  2  0  0  0  0  0  0
  180.0140  178.5510  139.3640 C   0  0  0  0  0  2  0  0  0  0  0  0
  184.9290  178.4940  142.3460 C   0  0  1  0  0  3  0  0  0  0  0  0
  185.1630  178.7190  145.9180 O   0  0  0  0  0  0  0  0  0  0  0  0
  181.2160  177.9170  140.0810 C   0  0  2  0  0  3  0  0  0  0  0  0
  180.2100  176.7780  137.5540 C   0  0  0  0  0  2  0  0  0  0  0  0
  186.7860  177.7360  144.4170 C   0  0  2  0  0  3  0  0  0  0  0  0
  182.4290  178.6650  142.2010 C   0  0  0  0  0  0  0  0  0  0  0  0
  182.6560  177.4490  138.0380 C   0  0  0  0  0  0  0  0  0  0  0  0
  183.7280  178.7950  141.4460 C   0  0  2  0  0  3  0  0  0  0  0  0
  180.0390  178.5490  143.5730 C   0  0  0  0  0  3  0  0  0  0  0  0
  187.3150  177.8060  141.9770 C   0  0  0  0  0  2  0  0  0  0  0  0
  180.0740  178.2430  142.2530 N   0  0  0  0  0  0  0  0  0  0  0  0
  186.2150  178.7700  141.5690 C   0  0  0  0  0  2  0  0  0  0  0  0
  185.8840  178.9400  144.7260 C   0  0  1  0  0  3  0  0  0  0  0  0
  181.1720  178.9230  144.2150 N   0  0  0  0  0  0  0  0  0  0  0  0
  183.5820  179.4320  144.3330 C   0  0  1  0  0  3  0  0  0  0  0  0
  187.4390  177.3180  145.5810 O   0  0  0  0  0  0  0  0  0  0  0  0
  188.6080  176.8640  145.1710 O   0  0  0  0  0  0  0  0  0  0  0  0
  190.7470  176.0310  147.2900 O   0  0  0  0  0  0  0  0  0  0  0  0
  190.9130  177.3550  145.3390 C   0  0  0  0  0  2  0  0  0  0  0  0
  189.5520  177.5560  145.9350 C   0  0  2  0  0  3  0  0  0  0  0  0
  191.6730  176.6000  146.4040 C   0  0  0  0  0  2  0  0  0  0  0  0
  189.6600  176.9170  147.3000 C   0  0  0  0  0  2  0  0  0  0  0  0
  1 26  1  0  0  0  0
  1 27  1  0  0  0  0
  2 14  1  0  0  0  0
  3 19  1  0  0  0  0
  3  7  1  1  0  0  0
  4 18  1  0  0  0  0
  4 23  2  0  0  0  0
  5 15  1  0  0  0  0
  5 11  1  1  0  0  0
  6 19  2  0  0  0  0
  8 12  1  0  0  0  0
  9 27  1  0  0  0  0
  9 25  1  0  0  0  0
 10 17  1  0  0  0  0
 11 20  1  0  0  0  0
 12 15  1  0  0  0  0
 13  9  1  0  0  0  0
 15  4  1  0  0  0  0
 16  3  1  0  0  0  0
 16  8  1  0  0  0  0
 17 25  1  0  0  0  0
 17 28  1  0  0  0  0
 18  1  2  0  0  0  0
 19  5  1  0  0  0  0
 20 18  1  0  0  0  0
 20 13  1  0  0  0  0
 21 26  2  0  0  0  0
 22 10  1  0  0  0  0
 23 21  1  0  0  0  0
 24 22  1  0  0  0  0
 24 13  1  0  0  0  0
 25 14  1  0  0  0  0
 27  2  1  0  0  0  0
 29 28  1  0  0  0  0
 29 32  1  0  0  0  0
 30 34  1  0  0  0  0
 31 32  1  0  0  0  0
 31 33  1  0  0  0  0
 32 34  1  0  0  0  0
 33 30  1  0  0  0  0
M  END
>  <MODEL>
3

>  <REMARK>
 VINA RESULT:      -8.7      0.985      1.299
  Name = 
  3 active torsions:
  status: ('A' for Active; 'I' for Inactive)
    1  A    between atoms: C_17  and  O_28
    2  A    between atoms: O_28  and  O_29
    3  A    between atoms: O_29  and  C_32
                            x       y       z     vdW  Elec       q    Type
                         _______ _______ _______ _____ _____    ______ ____

>  <TORSDO>
F 3

$$$$
=
 OpenBabel11122412093D

 34 40  0  0  1  0  0  0  0  0999 V2000
  188.9370  177.7710  137.4360 C   0  0  0  0  0  0  0  0  0  0  0  0
  187.1070  177.9910  139.1130 C   0  0  0  0  0  2  0  0  0  0  0  0
  194.0250  173.7920  136.5320 C   0  0  1  0  0  3  0  0  0  0  0  0
  190.6140  176.5380  136.2060 C   0  0  0  0  0  0  0  0  0  0  0  0
  192.8770  176.0570  137.3000 C   0  0  2  0  0  3  0  0  0  0  0  0
  194.9080  175.2340  138.1670 O   0  0  0  0  0  0  0  0  0  0  0  0
  192.9820  172.9380  136.8890 O   0  0  0  0  0  1  0  0  0  0  0  0
  194.0000  175.4970  134.5940 C   0  0  0  0  0  2  0  0  0  0  0  0
  189.2950  178.4260  139.9030 C   0  0  2  0  0  3  0  0  0  0  0  0
  189.6070  177.4440  142.9210 C   0  0  0  0  0  2  0  0  0  0  0  0
  192.0930  176.0650  138.6020 C   0  0  0  0  0  2  0  0  0  0  0  0
  192.6220  176.1380  134.7640 C   0  0  0  0  0  2  0  0  0  0  0  0
  190.3290  177.2810  139.9110 C   0  0  1  0  0  3  0  0  0  0  0  0
  186.9480  178.3470  140.4590 O   0  0  0  0  0  0  0  0  0  0  0  0
  191.9380  175.8150  136.1010 C   0  0  2  0  0  3  0  0  0  0  0  0
  194.0130  174.0250  135.0110 C   0  0  0  0  0  2  0  0  0  0  0  0
  188.3880  177.2180  142.0420 C   0  0  2  0  0  3  0  0  0  0  0  0
  190.1980  177.1540  137.4080 C   0  0  0  0  0  0  0  0  0  0  0  0
  193.9910  175.0400  137.3850 C   0  0  0  0  0  0  0  0  0  0  0  0
  191.1170  177.2400  138.5990 C   0  0  2  0  0  3  0  0  0  0  0  0
  188.5490  177.1100  135.1960 C   0  0  0  0  0  3  0  0  0  0  0  0
  190.8310  176.7770  142.3180 C   0  0  0  0  0  2  0  0  0  0  0  0
  189.7650  176.5130  135.1430 N   0  0  0  0  0  0  0  0  0  0  0  0
  191.3000  177.5020  141.0690 C   0  0  0  0  0  2  0  0  0  0  0  0
  188.2390  178.3610  141.0260 C   0  0  1  0  0  3  0  0  0  0  0  0
  188.1490  177.7370  136.3290 N   0  0  0  0  0  0  0  0  0  0  0  0
  188.4440  178.5070  138.6530 C   0  0  1  0  0  3  0  0  0  0  0  0
  187.2500  177.1500  142.8530 O   0  0  0  0  0  0  0  0  0  0  0  0
  187.5470  177.8720  143.9160 O   0  0  0  0  0  0  0  0  0  0  0  0
  186.9970  178.6850  146.8820 O   0  0  0  0  0  0  0  0  0  0  0  0
  185.5290  178.2890  145.0720 C   0  0  0  0  0  2  0  0  0  0  0  0
  186.7160  177.3840  144.9280 C   0  0  2  0  0  3  0  0  0  0  0  0
  185.6710  178.8630  146.4620 C   0  0  0  0  0  2  0  0  0  0  0  0
  187.4210  177.5030  146.2590 C   0  0  0  0  0  2  0  0  0  0  0  0
  1 27  1  0  0  0  0
  2 14  1  0  0  0  0
  3  7  1  1  0  0  0
  3 19  1  0  0  0  0
  4 18  2  0  0  0  0
  5 19  1  0  0  0  0
  5 11  1  1  0  0  0
  8 12  1  0  0  0  0
  8 16  1  0  0  0  0
  9 13  1  0  0  0  0
  9 25  1  0  0  0  0
 12 15  1  0  0  0  0
 13 24  1  0  0  0  0
 14 25  1  0  0  0  0
 15  4  1  0  0  0  0
 15  5  1  0  0  0  0
 16  3  1  0  0  0  0
 17 28  1  0  0  0  0
 17 10  1  0  0  0  0
 18  1  1  0  0  0  0
 18 20  1  0  0  0  0
 19  6  2  0  0  0  0
 20 11  1  0  0  0  0
 20 13  1  0  0  0  0
 21 26  1  0  0  0  0
 22 10  1  0  0  0  0
 23 21  2  0  0  0  0
 23  4  1  0  0  0  0
 24 22  1  0  0  0  0
 25 17  1  0  0  0  0
 26  1  2  0  0  0  0
 27  2  1  0  0  0  0
 27  9  1  0  0  0  0
 28 29  1  0  0  0  0
 29 32  1  0  0  0  0
 31 33  1  0  0  0  0
 32 31  1  0  0  0  0
 32 34  1  0  0  0  0
 33 30  1  0  0  0  0
 34 30  1  0  0  0  0
M  END
>  <MODEL>
4

>  <REMARK>
 VINA RESULT:      -8.1      6.444      8.400
  Name = 
  3 active torsions:
  status: ('A' for Active; 'I' for Inactive)
    1  A    between atoms: C_17  and  O_28
    2  A    between atoms: O_28  and  O_29
    3  A    between atoms: O_29  and  C_32
                            x       y       z     vdW  Elec       q    Type
                         _______ _______ _______ _____ _____    ______ ____

>  <TORSDO>
F 3

$$$$
=
 OpenBabel11122412093D

 34 40  0  0  1  0  0  0  0  0999 V2000
  188.4160  177.6270  143.0870 C   0  0  0  0  0  0  0  0  0  0  0  0
  190.4510  176.3780  142.3770 C   0  0  0  0  0  2  0  0  0  0  0  0
  182.2960  178.2540  140.9210 C   0  0  1  0  0  3  0  0  0  0  0  0
  186.0290  177.9880  143.2180 C   0  0  0  0  0  0  0  0  0  0  0  0
  184.8060  179.0520  141.2390 C   0  0  2  0  0  3  0  0  0  0  0  0
  183.4060  179.7340  139.4700 O   0  0  0  0  0  0  0  0  0  0  0  0
  182.5590  176.8890  140.8110 O   0  0  0  0  0  1  0  0  0  0  0  0
  182.5280  179.6820  143.0600 C   0  0  0  0  0  2  0  0  0  0  0  0
  189.7240  178.0920  140.9160 C   0  0  2  0  0  3  0  0  0  0  0  0
  190.2630  177.2750  137.8810 C   0  0  0  0  0  2  0  0  0  0  0  0
  185.8860  178.3930  140.3960 C   0  0  0  0  0  2  0  0  0  0  0  0
  183.8730  179.2010  143.6070 C   0  0  0  0  0  2  0  0  0  0  0  0
  188.3510  177.9550  140.2250 C   0  0  1  0  0  3  0  0  0  0  0  0
  191.3850  176.3920  141.3320 O   0  0  0  0  0  0  0  0  0  0  0  0
  184.6940  178.3650  142.6150 C   0  0  2  0  0  3  0  0  0  0  0  0
  181.7670  178.5730  142.3310 C   0  0  0  0  0  2  0  0  0  0  0  0
  190.4800  176.3770  139.0880 C   0  0  2  0  0  3  0  0  0  0  0  0
  187.2230  178.0310  142.4660 C   0  0  0  0  0  0  0  0  0  0  0  0
  183.5000  179.0540  140.4780 C   0  0  0  0  0  0  0  0  0  0  0  0
  187.2430  178.5920  141.0670 C   0  0  2  0  0  3  0  0  0  0  0  0
  187.2240  177.1140  145.0670 C   0  0  0  0  0  3  0  0  0  0  0  0
  188.8020  177.6770  137.7710 C   0  0  0  0  0  2  0  0  0  0  0  0
  186.0610  177.5050  144.4900 N   0  0  0  0  0  0  0  0  0  0  0  0
  188.4110  178.6520  138.8680 C   0  0  0  0  0  2  0  0  0  0  0  0
  190.8460  177.2160  140.3220 C   0  0  1  0  0  3  0  0  0  0  0  0
  188.3850  177.1840  144.3720 N   0  0  0  0  0  0  0  0  0  0  0  0
  189.7420  177.7050  142.3800 C   0  0  1  0  0  3  0  0  0  0  0  0
  191.5100  175.4750  138.8020 O   0  0  0  0  0  0  0  0  0  0  0  0
  190.9760  174.6030  137.9680 O   0  0  0  0  0  0  0  0  0  0  0  0
  192.5530  175.7170  135.5130 O   0  0  0  0  0  0  0  0  0  0  0  0
  193.2930  174.8710  137.5920 C   0  0  0  0  0  2  0  0  0  0  0  0
  192.0450  174.1390  137.1980 C   0  0  2  0  0  3  0  0  0  0  0  0
  193.6760  175.6410  136.3500 C   0  0  0  0  0  2  0  0  0  0  0  0
  191.8360  174.5370  135.7550 C   0  0  0  0  0  2  0  0  0  0  0  0
  1 26  1  0  0  0  0
  2 27  1  0  0  0  0
  3  7  1  1  0  0  0
  3 16  1  0  0  0  0
  4 23  2  0  0  0  0
  5 11  1  6  0  0  0
  5 15  1  0  0  0  0
  6 19  2  0  0  0  0
  8 12  1  0  0  0  0
  9 27  1  0  0  0  0
 10 17  1  0  0  0  0
 11 20  1  0  0  0  0
 13  9  1  0  0  0  0
 13 20  1  0  0  0  0
 14  2  1  0  0  0  0
 15  4  1  0  0  0  0
 15 12  1  0  0  0  0
 16  8  1  0  0  0  0
 17 25  1  0  0  0  0
 18  1  2  0  0  0  0
 18  4  1  0  0  0  0
 19  3  1  0  0  0  0
 19  5  1  0  0  0  0
 20 18  1  0  0  0  0
 22 10  1  0  0  0  0
 22 24  1  0  0  0  0
 23 21  1  0  0  0  0
 24 13  1  0  0  0  0
 25  9  1  0  0  0  0
 25 14  1  0  0  0  0
 26 21  2  0  0  0  0
 27  1  1  0  0  0  0
 28 17  1  0  0  0  0
 29 28  1  0  0  0  0
 30 34  1  0  0  0  0
 30 33  1  0  0  0  0
 32 31  1  0  0  0  0
 32 29  1  0  0  0  0
 33 31  1  0  0  0  0
 34 32  1  0  0  0  0
M  END
>  <MODEL>
5

>  <REMARK>
 VINA RESULT:      -7.9      4.769      7.327
  Name = 
  3 active torsions:
  status: ('A' for Active; 'I' for Inactive)
    1  A    between atoms: C_17  and  O_28
    2  A    between atoms: O_28  and  O_29
    3  A    between atoms: O_29  and  C_32
                            x       y       z     vdW  Elec       q    Type
                         _______ _______ _______ _____ _____    ______ ____

>  <TORSDO>
F 3

$$$$
=
 OpenBabel11122412093D

 34 40  0  0  1  0  0  0  0  0999 V2000
  186.3850  178.2530  138.8230 C   0  0  0  0  0  0  0  0  0  0  0  0
  183.9400  177.9990  138.4160 C   0  0  0  0  0  2  0  0  0  0  0  0
  190.5990  176.3740  143.4320 C   0  0  1  0  0  3  0  0  0  0  0  0
  188.5080  177.5800  139.7650 C   0  0  0  0  0  0  0  0  0  0  0  0
  189.0310  178.1290  142.2080 C   0  0  2  0  0  3  0  0  0  0  0  0
  189.6410  178.2480  144.4820 O   0  0  0  0  0  0  0  0  0  0  0  0
  189.8030  175.2490  143.2190 O   0  0  0  0  0  1  0  0  0  0  0  0
  191.9220  177.6680  141.6320 C   0  0  0  0  0  2  0  0  0  0  0  0
  184.5490  179.3210  140.2830 C   0  0  2  0  0  3  0  0  0  0  0  0
  182.4470  178.9440  142.6510 C   0  0  0  0  0  2  0  0  0  0  0  0
  187.5290  178.0200  142.4100 C   0  0  0  0  0  2  0  0  0  0  0  0
  190.8930  177.7660  140.5040 C   0  0  0  0  0  2  0  0  0  0  0  0
  185.2950  178.6560  141.4590 C   0  0  1  0  0  3  0  0  0  0  0  0
  182.7300  178.4500  138.9600 O   0  0  0  0  0  0  0  0  0  0  0  0
  189.4630  177.3950  140.9230 C   0  0  2  0  0  3  0  0  0  0  0  0
  191.7770  176.3780  142.4410 C   0  0  0  0  0  2  0  0  0  0  0  0
  182.4560  178.1630  141.3460 C   0  0  2  0  0  3  0  0  0  0  0  0
  187.2290  178.1520  139.9410 C   0  0  0  0  0  0  0  0  0  0  0  0
  189.7460  177.6220  143.4400 C   0  0  0  0  0  0  0  0  0  0  0  0
  186.8110  178.7350  141.2670 C   0  0  2  0  0  3  0  0  0  0  0  0
  188.0240  177.1990  137.4770 C   0  0  0  0  0  3  0  0  0  0  0  0
  183.7330  178.7060  143.4240 C   0  0  0  0  0  2  0  0  0  0  0  0
  188.8570  177.0970  138.5410 N   0  0  0  0  0  0  0  0  0  0  0  0
  184.9170  179.3780  142.7510 C   0  0  0  0  0  2  0  0  0  0  0  0
  183.0380  179.0200  140.2120 C   0  0  1  0  0  3  0  0  0  0  0  0
  186.8070  177.7790  137.6210 N   0  0  0  0  0  0  0  0  0  0  0  0
  185.0330  178.9090  138.9080 C   0  0  1  0  0  3  0  0  0  0  0  0
  181.1450  177.7860  141.0350 O   0  0  0  0  0  0  0  0  0  0  0  0
  180.3830  178.6810  141.6340 O   0  0  0  0  0  0  0  0  0  0  0  0
  179.5630  179.9290  138.8900 O   0  0  0  0  0  0  0  0  0  0  0  0
  179.3170  177.7400  139.7470 C   0  0  0  0  0  2  0  0  0  0  0  0
  179.2040  178.7110  140.8840 C   0  0  2  0  0  3  0  0  0  0  0  0
  179.2680  178.6110  138.5130 C   0  0  0  0  0  2  0  0  0  0  0  0
  179.0780  180.0520  140.1990 C   0  0  0  0  0  2  0  0  0  0  0  0
  1 27  1  0  0  0  0
  1 18  1  0  0  0  0
  2 27  1  0  0  0  0
  2 14  1  0  0  0  0
  3  7  1  6  0  0  0
  3 19  1  0  0  0  0
  4 18  2  0  0  0  0
  4 15  1  0  0  0  0
  5 11  1  1  0  0  0
  5 19  1  0  0  0  0
  8 16  1  0  0  0  0
  9 13  1  0  0  0  0
 10 22  1  0  0  0  0
 12 15  1  0  0  0  0
 12  8  1  0  0  0  0
 13 24  1  0  0  0  0
 14 25  1  0  0  0  0
 15  5  1  0  0  0  0
 16  3  1  0  0  0  0
 17 10  1  0  0  0  0
 18 20  1  0  0  0  0
 19  6  2  0  0  0  0
 20 13  1  0  0  0  0
 20 11  1  0  0  0  0
 21 26  1  0  0  0  0
 21 23  2  0  0  0  0
 23  4  1  0  0  0  0
 24 22  1  0  0  0  0
 25  9  1  0  0  0  0
 25 17  1  0  0  0  0
 26  1  2  0  0  0  0
 27  9  1  0  0  0  0
 28 17  1  0  0  0  0
 28 29  1  0  0  0  0
 30 34  1  0  0  0  0
 31 32  1  0  0  0  0
 32 29  1  0  0  0  0
 33 30  1  0  0  0  0
 33 31  1  0  0  0  0
 34 32  1  0  0  0  0
M  END
>  <MODEL>
6

>  <REMARK>
 VINA RESULT:      -7.6      3.489      8.546
  Name = 
  3 active torsions:
  status: ('A' for Active; 'I' for Inactive)
    1  A    between atoms: C_17  and  O_28
    2  A    between atoms: O_28  and  O_29
    3  A    between atoms: O_29  and  C_32
                            x       y       z     vdW  Elec       q    Type
                         _______ _______ _______ _____ _____    ______ ____

>  <TORSDO>
F 3

$$$$
=
 OpenBabel11122412093D

 34 40  0  0  1  0  0  0  0  0999 V2000
  186.7200  178.4610  141.8110 C   0  0  0  0  0  0  0  0  0  0  0  0
  189.0210  177.5060  141.7720 C   0  0  0  0  0  2  0  0  0  0  0  0
  181.0670  177.2180  138.8070 C   0  0  1  0  0  3  0  0  0  0  0  0
  184.3210  178.3520  141.5270 C   0  0  0  0  0  0  0  0  0  0  0  0
  183.3210  178.5650  139.1810 C   0  0  2  0  0  3  0  0  0  0  0  0
  182.1710  178.4390  137.1280 O   0  0  0  0  0  0  0  0  0  0  0  0
  181.5570  175.9580  139.1470 O   0  0  0  0  0  1  0  0  0  0  0  0
  180.6840  179.1920  140.4260 C   0  0  0  0  0  2  0  0  0  0  0  0
  188.3070  178.5710  139.7830 C   0  0  2  0  0  3  0  0  0  0  0  0
  189.5020  177.0840  137.2280 C   0  0  0  0  0  2  0  0  0  0  0  0
  184.6250  177.9340  138.7190 C   0  0  0  0  0  2  0  0  0  0  0  0
  181.9670  179.1620  141.2580 C   0  0  0  0  0  2  0  0  0  0  0  0
  187.1190  177.9750  138.9990 C   0  0  1  0  0  3  0  0  0  0  0  0
  190.1120  177.4230  140.8970 O   0  0  0  0  0  0  0  0  0  0  0  0
  183.0740  178.2720  140.6750 C   0  0  2  0  0  3  0  0  0  0  0  0
  180.2490  177.7960  139.9770 C   0  0  0  0  0  2  0  0  0  0  0  0
  189.6390  176.6130  138.6680 C   0  0  2  0  0  3  0  0  0  0  0  0
  185.6090  178.4300  140.9520 C   0  0  0  0  0  0  0  0  0  0  0  0
  182.1890  178.0930  138.2980 C   0  0  0  0  0  0  0  0  0  0  0  0
  185.7910  178.5800  139.4630 C   0  0  2  0  0  3  0  0  0  0  0  0
  185.2880  178.2780  143.6880 C   0  0  0  0  0  3  0  0  0  0  0  0
  188.0400  177.1360  136.8200 C   0  0  0  0  0  2  0  0  0  0  0  0
  184.2010  178.2530  142.8780 N   0  0  0  0  0  0  0  0  0  0  0  0
  187.3100  178.2730  137.5140 C   0  0  0  0  0  2  0  0  0  0  0  0
  189.6400  177.8130  139.6270 C   0  0  1  0  0  3  0  0  0  0  0  0
  186.5290  178.3900  143.1550 N   0  0  0  0  0  0  0  0  0  0  0  0
  188.1230  178.6110  141.2860 C   0  0  1  0  0  3  0  0  0  0  0  0
  190.8320  175.8960  138.7990 O   0  0  0  0  0  0  0  0  0  0  0  0
  190.7090  174.8780  137.9680 O   0  0  0  0  0  0  0  0  0  0  0  0
  192.5920  175.7420  135.6290 O   0  0  0  0  0  0  0  0  0  0  0  0
  192.9290  175.6880  137.9680 C   0  0  0  0  0  2  0  0  0  0  0  0
  192.0170  174.5580  137.5940 C   0  0  2  0  0  3  0  0  0  0  0  0
  193.4460  176.1990  136.6440 C   0  0  0  0  0  2  0  0  0  0  0  0
  192.1100  174.5070  136.0860 C   0  0  0  0  0  2  0  0  0  0  0  0
  1 26  1  0  0  0  0
  3  7  1  1  0  0  0
  3 16  1  0  0  0  0
  4 23  2  0  0  0  0
  5 11  1  6  0  0  0
  5 15  1  0  0  0  0
  6 19  2  0  0  0  0
  8 12  1  0  0  0  0
  9 27  1  0  0  0  0
 10 17  1  0  0  0  0
 11 20  1  0  0  0  0
 13 20  1  0  0  0  0
 13  9  1  0  0  0  0
 14  2  1  0  0  0  0
 15 12  1  0  0  0  0
 15  4  1  0  0  0  0
 16  8  1  0  0  0  0
 17 28  1  0  0  0  0
 17 25  1  0  0  0  0
 18  4  1  0  0  0  0
 18  1  2  0  0  0  0
 19  3  1  0  0  0  0
 19  5  1  0  0  0  0
 20 18  1  0  0  0  0
 22 10  1  0  0  0  0
 22 24  1  0  0  0  0
 23 21  1  0  0  0  0
 24 13  1  0  0  0  0
 25  9  1  0  0  0  0
 25 14  1  0  0  0  0
 26 21  2  0  0  0  0
 27  2  1  0  0  0  0
 27  1  1  0  0  0  0
 29 28  1  0  0  0  0
 30 34  1  0  0  0  0
 30 33  1  0  0  0  0
 32 29  1  0  0  0  0
 32 31  1  0  0  0  0
 33 31  1  0  0  0  0
 34 32  1  0  0  0  0
M  END
>  <MODEL>
7

>  <REMARK>
 VINA RESULT:      -7.6      4.410      6.528
  Name = 
  3 active torsions:
  status: ('A' for Active; 'I' for Inactive)
    1  A    between atoms: C_17  and  O_28
    2  A    between atoms: O_28  and  O_29
    3  A    between atoms: O_29  and  C_32
                            x       y       z     vdW  Elec       q    Type
                         _______ _______ _______ _____ _____    ______ ____

>  <TORSDO>
F 3

$$$$
=
 OpenBabel11122412093D

 34 40  0  0  1  0  0  0  0  0999 V2000
  184.8200  178.6070  140.9540 C   0  0  0  0  0  0  0  0  0  0  0  0
  186.5270  178.1230  142.7030 C   0  0  0  0  0  2  0  0  0  0  0  0
  183.0130  175.9300  135.2880 C   0  0  1  0  0  3  0  0  0  0  0  0
  183.3320  177.9970  139.1490 C   0  0  0  0  0  0  0  0  0  0  0  0
  184.2680  177.7270  136.7830 C   0  0  2  0  0  3  0  0  0  0  0  0
  184.9100  177.1340  134.5940 O   0  0  0  0  0  0  0  0  0  0  0  0
  183.1890  174.8400  136.1400 O   0  0  0  0  0  1  0  0  0  0  0  0
  181.4910  177.9700  135.7200 C   0  0  0  0  0  2  0  0  0  0  0  0
  187.3660  178.7820  140.5910 C   0  0  2  0  0  3  0  0  0  0  0  0
  190.0960  177.2620  139.9500 C   0  0  0  0  0  2  0  0  0  0  0  0
  185.5500  177.3130  137.4860 C   0  0  0  0  0  2  0  0  0  0  0  0
  181.8130  178.2920  137.1800 C   0  0  0  0  0  2  0  0  0  0  0  0
  187.1130  177.8750  139.3690 C   0  0  1  0  0  3  0  0  0  0  0  0
  187.9200  178.1520  142.8530 O   0  0  0  0  0  0  0  0  0  0  0  0
  183.0560  177.5720  137.7240 C   0  0  2  0  0  3  0  0  0  0  0  0
  181.5790  176.4720  135.4210 C   0  0  0  0  0  2  0  0  0  0  0  0
  189.2030  177.0030  141.1530 C   0  0  2  0  0  3  0  0  0  0  0  0
  184.6430  178.2560  139.6050 C   0  0  0  0  0  0  0  0  0  0  0  0
  184.1170  176.9410  135.5000 C   0  0  0  0  0  0  0  0  0  0  0  0
  185.8140  178.2590  138.6560 C   0  0  2  0  0  3  0  0  0  0  0  0
  182.4950  178.3730  141.3330 C   0  0  0  0  0  3  0  0  0  0  0  0
  189.3470  176.9780  138.6600 C   0  0  0  0  0  2  0  0  0  0  0  0
  182.2990  178.0380  140.0330 N   0  0  0  0  0  0  0  0  0  0  0  0
  188.2790  178.0240  138.3940 C   0  0  0  0  0  2  0  0  0  0  0  0
  188.4610  178.2860  141.5570 C   0  0  1  0  0  3  0  0  0  0  0  0
  183.7420  178.6610  141.7790 N   0  0  0  0  0  0  0  0  0  0  0  0
  186.1740  178.9650  141.5070 C   0  0  1  0  0  3  0  0  0  0  0  0
  189.9930  176.5540  142.2160 O   0  0  0  0  0  0  0  0  0  0  0  0
  191.1300  177.2120  142.0950 O   0  0  0  0  0  0  0  0  0  0  0  0
  190.4170  178.6530  144.7750 O   0  0  0  0  0  0  0  0  0  0  0  0
  190.8340  176.3780  144.2860 C   0  0  0  0  0  2  0  0  0  0  0  0
  191.6800  177.2210  143.3800 C   0  0  2  0  0  3  0  0  0  0  0  0
  190.2890  177.3580  145.2980 C   0  0  0  0  0  2  0  0  0  0  0  0
  191.5630  178.6080  143.9680 C   0  0  0  0  0  2  0  0  0  0  0  0
  1 27  1  0  0  0  0
  1 26  1  0  0  0  0
  2 14  1  0  0  0  0
  3 16  1  0  0  0  0
  3 19  1  0  0  0  0
  3  7  1  1  0  0  0
  4 18  1  0  0  0  0
  4 23  2  0  0  0  0
  5 11  1  1  0  0  0
  5 15  1  0  0  0  0
  6 19  2  0  0  0  0
  8 12  1  0  0  0  0
  9 27  1  0  0  0  0
  9 25  1  0  0  0  0
 10 17  1  0  0  0  0
 11 20  1  0  0  0  0
 12 15  1  0  0  0  0
 13  9  1  0  0  0  0
 15  4  1  0  0  0  0
 16  8  1  0  0  0  0
 17 25  1  0  0  0  0
 17 28  1  0  0  0  0
 18  1  2  0  0  0  0
 19  5  1  0  0  0  0
 20 13  1  0  0  0  0
 20 18  1  0  0  0  0
 21 26  2  0  0  0  0
 22 10  1  0  0  0  0
 23 21  1  0  0  0  0
 24 22  1  0  0  0  0
 24 13  1  0  0  0  0
 25 14  1  0  0  0  0
 27  2  1  0  0  0  0
 29 28  1  0  0  0  0
 29 32  1  0  0  0  0
 30 33  1  0  0  0  0
 31 33  1  0  0  0  0
 32 34  1  0  0  0  0
 32 31  1  0  0  0  0
 34 30  1  0  0  0  0
M  END
>  <MODEL>
8

>  <REMARK>
 VINA RESULT:      -7.5      2.707      3.672
  Name = 
  3 active torsions:
  status: ('A' for Active; 'I' for Inactive)
    1  A    between atoms: C_17  and  O_28
    2  A    between atoms: O_28  and  O_29
    3  A    between atoms: O_29  and  C_32
                            x       y       z     vdW  Elec       q    Type
                         _______ _______ _______ _____ _____    ______ ____

>  <TORSDO>
F 3

$$$$
=
 OpenBabel11122412093D

 34 40  0  0  1  0  0  0  0  0999 V2000
  183.3290  178.6500  143.8150 C   0  0  0  0  0  0  0  0  0  0  0  0
  181.4190  179.9120  142.8330 C   0  0  0  0  0  2  0  0  0  0  0  0
  189.7700  178.3650  142.8350 C   0  0  1  0  0  3  0  0  0  0  0  0
  185.6590  178.3320  144.3770 C   0  0  0  0  0  0  0  0  0  0  0  0
  187.2810  177.4840  142.5880 C   0  0  2  0  0  3  0  0  0  0  0  0
  189.0200  177.0000  141.0730 O   0  0  0  0  0  0  0  0  0  0  0  0
  189.4790  179.7280  142.7950 O   0  0  0  0  0  1  0  0  0  0  0  0
  189.1900  176.7400  144.7560 C   0  0  0  0  0  2  0  0  0  0  0  0
  182.4810  178.3580  141.3990 C   0  0  2  0  0  3  0  0  0  0  0  0
  182.5020  179.4400  138.3990 C   0  0  0  0  0  2  0  0  0  0  0  0
  186.3570  178.1930  141.6120 C   0  0  0  0  0  2  0  0  0  0  0  0
  187.7470  177.1380  145.0710 C   0  0  0  0  0  2  0  0  0  0  0  0
  183.9540  178.5900  141.0030 C   0  0  1  0  0  3  0  0  0  0  0  0
  180.7040  179.9740  141.6290 O   0  0  0  0  0  0  0  0  0  0  0  0
  187.0990  178.0430  144.0140 C   0  0  2  0  0  3  0  0  0  0  0  0
  190.0320  177.9290  144.2890 C   0  0  0  0  0  2  0  0  0  0  0  0
  182.0210  180.2170  139.6140 C   0  0  2  0  0  3  0  0  0  0  0  0
  184.6340  178.3310  143.4050 C   0  0  0  0  0  0  0  0  0  0  0  0
  188.7070  177.5820  142.0990 C   0  0  0  0  0  0  0  0  0  0  0  0
  184.9050  177.9020  141.9860 C   0  0  2  0  0  3  0  0  0  0  0  0
  184.0970  179.0040  146.0260 C   0  0  0  0  0  3  0  0  0  0  0  0
  183.9710  179.0830  138.5410 C   0  0  0  0  0  2  0  0  0  0  0  0
  185.3640  178.6940  145.6550 N   0  0  0  0  0  0  0  0  0  0  0  0
  184.1840  178.0190  139.6050 C   0  0  0  0  0  2  0  0  0  0  0  0
  181.4600  179.2590  140.6760 C   0  0  1  0  0  3  0  0  0  0  0  0
  183.0950  178.9720  145.1150 N   0  0  0  0  0  0  0  0  0  0  0  0
  182.1670  178.6070  142.8590 C   0  0  1  0  0  3  0  0  0  0  0  0
  181.0300  181.1180  139.2120 O   0  0  0  0  0  0  0  0  0  0  0  0
  181.6410  181.9530  138.3940 O   0  0  0  0  0  0  0  0  0  0  0  0
  181.5360  184.2510  136.2800 O   0  0  0  0  0  0  0  0  0  0  0  0
  180.4530  182.1520  136.3610 C   0  0  0  0  0  2  0  0  0  0  0  0
  180.6120  182.6590  137.7640 C   0  0  2  0  0  3  0  0  0  0  0  0
  180.8140  183.3380  135.4980 C   0  0  0  0  0  2  0  0  0  0  0  0
  181.0310  184.0990  137.5780 C   0  0  0  0  0  2  0  0  0  0  0  0
  1 26  1  0  0  0  0
  2 27  1  0  0  0  0
  3  7  1  1  0  0  0
  3 16  1  0  0  0  0
  4 23  2  0  0  0  0
  5 11  1  6  0  0  0
  5 15  1  0  0  0  0
  6 19  2  0  0  0  0
  8 12  1  0  0  0  0
  9 27  1  0  0  0  0
 10 22  1  0  0  0  0
 10 17  1  0  0  0  0
 11 20  1  0  0  0  0
 13  9  1  0  0  0  0
 13 20  1  0  0  0  0
 14  2  1  0  0  0  0
 15  4  1  0  0  0  0
 15 12  1  0  0  0  0
 16  8  1  0  0  0  0
 17 25  1  0  0  0  0
 18  1  2  0  0  0  0
 18  4  1  0  0  0  0
 19  5  1  0  0  0  0
 19  3  1  0  0  0  0
 20 18  1  0  0  0  0
 22 24  1  0  0  0  0
 23 21  1  0  0  0  0
 24 13  1  0  0  0  0
 25  9  1  0  0  0  0
 25 14  1  0  0  0  0
 26 21  2  0  0  0  0
 27  1  1  0  0  0  0
 28 17  1  0  0  0  0
 29 28  1  0  0  0  0
 30 34  1  0  0  0  0
 31 32  1  0  0  0  0
 32 29  1  0  0  0  0
 33 30  1  0  0  0  0
 33 31  1  0  0  0  0
 34 32  1  0  0  0  0
M  END
>  <MODEL>
9

>  <REMARK>
 VINA RESULT:      -7.3      3.267      8.509
  Name = 
  3 active torsions:
  status: ('A' for Active; 'I' for Inactive)
    1  A    between atoms: C_17  and  O_28
    2  A    between atoms: O_28  and  O_29
    3  A    between atoms: O_29  and  C_32
                            x       y       z     vdW  Elec       q    Type
                         _______ _______ _______ _____ _____    ______ ____

>  <TORSDO>
F 3

$$$$
