=
 OpenBabel11122412063D

 34 41  0  0  1  0  0  0  0  0999 V2000
  186.7780  178.5410  141.3440 C   0  0  0  0  0  0  0  0  0  0  0  0
  185.3470  178.9630  139.2830 C   0  0  0  0  0  2  0  0  0  0  0  0
  187.3610  177.6120  147.9750 C   0  0  2  0  0  3  0  0  0  0  0  0
  187.9600  177.8490  143.3240 C   0  0  0  0  0  0  0  0  0  0  0  0
  186.6860  177.2660  145.4810 C   0  0  1  0  0  3  0  0  0  0  0  0
  186.8560  179.4000  146.8880 C   0  0  0  0  0  2  0  0  0  0  0  0
  187.8200  179.0600  148.0160 C   0  0  0  0  0  2  0  0  0  0  0  0
  189.5490  177.0600  146.6960 C   0  0  0  0  0  2  0  0  0  0  0  0
  184.4090  179.3780  141.4760 C   0  0  2  0  0  3  0  0  0  0  0  0
  181.3320  178.1770  141.7570 C   0  0  0  0  0  2  0  0  0  0  0  0
  185.4480  177.3280  144.5760 C   0  0  0  0  0  2  0  0  0  0  0  0
  189.1340  176.7530  145.2660 C   0  0  0  0  0  2  0  0  0  0  0  0
  184.2460  178.4590  142.6970 C   0  0  1  0  0  3  0  0  0  0  0  0
  183.8980  179.3900  139.0950 C   0  0  0  0  0  2  0  0  0  0  0  0
  188.0220  177.6910  144.8250 C   0  0  1  0  0  3  0  0  0  0  0  0
  188.4910  176.6000  147.6990 C   0  0  0  0  0  2  0  0  0  0  0  0
  182.3300  178.1130  140.5890 C   0  0  1  0  0  3  0  0  0  0  0  0
  186.7690  178.2730  142.7210 C   0  0  0  0  0  0  0  0  0  0  0  0
  186.4030  177.9470  146.8300 C   0  0  2  0  0  3  0  0  0  0  0  0
  185.5220  178.4620  143.5560 C   0  0  2  0  0  3  0  0  0  0  0  0
  189.0580  177.9350  141.2260 C   0  0  0  0  0  3  0  0  0  0  0  0
  181.7950  178.7950  143.0600 C   0  0  0  0  0  3  0  0  0  0  0  0
  189.0810  177.7030  142.5640 N   0  0  0  0  0  0  0  0  0  0  0  0
  183.0590  178.9020  143.4960 C   0  0  0  0  0  3  0  0  0  0  0  0
  183.2440  179.3490  140.4750 C   0  0  1  0  0  3  0  0  0  0  0  0
  187.9140  178.3500  140.6230 N   0  0  0  0  0  0  0  0  0  0  0  0
  185.5800  179.0030  140.7120 N   0  0  0  0  0  0  0  0  0  0  0  0
  183.0590  176.9190  140.6330 O   0  0  0  0  0  0  0  0  0  0  0  0
  182.3420  176.0210  139.8400 C   0  0  0  0  0  2  0  0  0  0  0  0
  183.5280  174.4560  136.9340 N   0  0  0  0  0  2  0  0  0  0  0  0
  181.9100  176.0950  137.3960 C   0  0  0  0  0  2  0  0  0  0  0  0
  182.9640  175.9430  138.4570 C   0  0  2  0  0  3  0  0  0  0  0  0
  182.2870  175.0200  136.4310 C   0  0  0  0  0  2  0  0  0  0  0  0
  183.5610  174.6880  138.2770 O   0  0  0  0  0  0  0  0  0  0  0  0
  1 18  1  0  0  0  0
  2 27  1  0  0  0  0
  3 16  1  6  0  0  0
  3  7  1  0  0  0  0
  4 15  1  0  0  0  0
  5 11  1  6  0  0  0
  5 19  1  0  0  0  0
  6  7  1  0  0  0  0
  8 16  1  0  0  0  0
  9 27  1  6  0  0  0
  9 13  1  0  0  0  0
 10 22  1  0  0  0  0
 12  8  1  0  0  0  0
 13 24  1  1  0  0  0
 13 20  1  0  0  0  0
 14  2  1  0  0  0  0
 15 12  1  6  0  0  0
 15  5  1  0  0  0  0
 17 28  1  1  0  0  0
 17 10  1  0  0  0  0
 18  4  2  0  0  0  0
 18 20  1  0  0  0  0
 19  6  1  6  0  0  0
 19  3  1  0  0  0  0
 20 11  1  1  0  0  0
 21 23  2  0  0  0  0
 22 24  2  0  0  0  0
 23  4  1  0  0  0  0
 25 14  1  6  0  0  0
 25 17  1  0  0  0  0
 25  9  1  0  0  0  0
 26 21  1  0  0  0  0
 26  1  2  0  0  0  0
 27  1  1  0  0  0  0
 29 28  1  0  0  0  0
 30 34  1  0  0  0  0
 31 32  1  0  0  0  0
 32 29  1  1  0  0  0
 33 30  1  0  0  0  0
 33 31  1  0  0  0  0
 34 32  1  0  0  0  0
M  END
>  <MODEL>
1

>  <REMARK>
 VINA RESULT:      -8.0      0.000      0.000
  Name = 
  3 active torsions:
  status: ('A' for Active; 'I' for Inactive)
    1  A    between atoms: C_17  and  O_28
    2  A    between atoms: O_28  and  C_29
    3  A    between atoms: C_29  and  C_32
                            x       y       z     vdW  Elec       q    Type
                         _______ _______ _______ _____ _____    ______ ____

>  <TORSDO>
F 3

$$$$
=
 OpenBabel11122412063D

 34 41  0  0  1  0  0  0  0  0999 V2000
  187.2410  178.1860  139.8630 C   0  0  0  0  0  0  0  0  0  0  0  0
  185.1690  178.8710  138.5560 C   0  0  0  0  0  2  0  0  0  0  0  0
  190.3080  176.8460  145.6920 C   0  0  2  0  0  3  0  0  0  0  0  0
  189.0230  177.2640  141.1950 C   0  0  0  0  0  0  0  0  0  0  0  0
  188.6560  176.7090  143.6800 C   0  0  1  0  0  3  0  0  0  0  0  0
  189.6330  178.7340  144.9090 C   0  0  0  0  0  2  0  0  0  0  0  0
  190.9180  178.2310  145.5520 C   0  0  0  0  0  2  0  0  0  0  0  0
  191.7180  176.1280  143.6370 C   0  0  0  0  0  2  0  0  0  0  0  0
  185.2430  179.2680  140.9430 C   0  0  2  0  0  3  0  0  0  0  0  0
  182.4140  178.3970  142.4350 C   0  0  0  0  0  2  0  0  0  0  0  0
  187.1770  176.9550  143.3510 C   0  0  0  0  0  2  0  0  0  0  0  0
  190.7330  175.9450  142.4940 C   0  0  0  0  0  2  0  0  0  0  0  0
  185.4720  178.3090  142.1210 C   0  0  1  0  0  3  0  0  0  0  0  0
  183.8290  179.4630  138.9700 C   0  0  0  0  0  2  0  0  0  0  0  0
  189.6590  177.0210  142.5430 C   0  0  1  0  0  3  0  0  0  0  0  0
  191.1020  175.7330  144.9790 C   0  0  0  0  0  2  0  0  0  0  0  0
  182.8470  178.2870  140.9630 C   0  0  1  0  0  3  0  0  0  0  0  0
  187.7520  177.8480  141.1260 C   0  0  0  0  0  0  0  0  0  0  0  0
  189.0210  177.3440  145.0320 C   0  0  2  0  0  3  0  0  0  0  0  0
  186.9750  178.1270  142.3930 C   0  0  2  0  0  3  0  0  0  0  0  0
  189.1930  177.3420  138.8330 C   0  0  0  0  0  3  0  0  0  0  0  0
  183.4310  178.8900  143.4430 C   0  0  0  0  0  3  0  0  0  0  0  0
  189.7200  177.0380  140.0480 N   0  0  0  0  0  0  0  0  0  0  0  0
  184.7660  178.8350  143.3330 C   0  0  0  0  0  3  0  0  0  0  0  0
  183.7810  179.4200  140.4970 C   0  0  1  0  0  3  0  0  0  0  0  0
  187.9630  177.9110  138.7450 N   0  0  0  0  0  0  0  0  0  0  0  0
  185.9560  178.8090  139.7700 N   0  0  0  0  0  0  0  0  0  0  0  0
  183.3820  177.0200  140.7040 O   0  0  0  0  0  0  0  0  0  0  0  0
  182.4150  176.3620  139.9400 C   0  0  0  0  0  2  0  0  0  0  0  0
  183.2340  174.4270  137.1320 N   0  0  0  0  0  2  0  0  0  0  0  0
  181.8820  176.3090  137.5160 C   0  0  0  0  0  2  0  0  0  0  0  0
  182.9540  176.0910  138.5470 C   0  0  2  0  0  3  0  0  0  0  0  0
  182.0610  175.1210  136.6300 C   0  0  0  0  0  2  0  0  0  0  0  0
  183.3630  174.7540  138.4490 O   0  0  0  0  0  0  0  0  0  0  0  0
  1 18  1  0  0  0  0
  2 14  1  0  0  0  0
  2 27  1  0  0  0  0
  3 16  1  6  0  0  0
  4 15  1  0  0  0  0
  5 11  1  6  0  0  0
  5 19  1  0  0  0  0
  6  7  1  0  0  0  0
  7  3  1  0  0  0  0
  8 16  1  0  0  0  0
  9 27  1  6  0  0  0
  9 13  1  0  0  0  0
 10 22  1  0  0  0  0
 12  8  1  0  0  0  0
 13 20  1  0  0  0  0
 13 24  1  1  0  0  0
 15 12  1  6  0  0  0
 15  5  1  0  0  0  0
 17 28  1  1  0  0  0
 17 10  1  0  0  0  0
 18  4  2  0  0  0  0
 18 20  1  0  0  0  0
 19  6  1  6  0  0  0
 19  3  1  0  0  0  0
 20 11  1  1  0  0  0
 21 23  2  0  0  0  0
 23  4  1  0  0  0  0
 24 22  2  0  0  0  0
 25 14  1  6  0  0  0
 25  9  1  0  0  0  0
 25 17  1  0  0  0  0
 26 21  1  0  0  0  0
 26  1  2  0  0  0  0
 27  1  1  0  0  0  0
 29 28  1  0  0  0  0
 30 34  1  0  0  0  0
 31 32  1  0  0  0  0
 32 29  1  1  0  0  0
 33 30  1  0  0  0  0
 33 31  1  0  0  0  0
 34 32  1  0  0  0  0
M  END
>  <MODEL>
2

>  <REMARK>
 VINA RESULT:      -7.7      1.622      2.174
  Name = 
  3 active torsions:
  status: ('A' for Active; 'I' for Inactive)
    1  A    between atoms: C_17  and  O_28
    2  A    between atoms: O_28  and  C_29
    3  A    between atoms: C_29  and  C_32
                            x       y       z     vdW  Elec       q    Type
                         _______ _______ _______ _____ _____    ______ ____

>  <TORSDO>
F 3

$$$$
=
 OpenBabel11122412063D

 34 41  0  0  1  0  0  0  0  0999 V2000
  186.0100  178.7560  140.8230 C   0  0  0  0  0  0  0  0  0  0  0  0
  184.5560  179.0290  138.7530 C   0  0  0  0  0  2  0  0  0  0  0  0
  186.6470  178.0080  147.4720 C   0  0  2  0  0  3  0  0  0  0  0  0
  187.2370  178.1940  142.8170 C   0  0  0  0  0  0  0  0  0  0  0  0
  186.0040  177.5620  144.9850 C   0  0  1  0  0  3  0  0  0  0  0  0
  186.0140  179.7320  146.3480 C   0  0  0  0  0  2  0  0  0  0  0  0
  186.9990  179.4870  147.4830 C   0  0  0  0  0  2  0  0  0  0  0  0
  188.8730  177.5930  146.2050 C   0  0  0  0  0  2  0  0  0  0  0  0
  183.5850  179.4190  140.9370 C   0  0  2  0  0  3  0  0  0  0  0  0
  180.6040  178.0000  141.2410 C   0  0  0  0  0  2  0  0  0  0  0  0
  184.7670  177.5150  144.0780 C   0  0  0  0  0  2  0  0  0  0  0  0
  188.4840  177.2270  144.7820 C   0  0  0  0  0  2  0  0  0  0  0  0
  183.4880  178.5160  142.1760 C   0  0  1  0  0  3  0  0  0  0  0  0
  183.0790  179.3440  138.5550 C   0  0  0  0  0  2  0  0  0  0  0  0
  187.3070  178.0720  144.3210 C   0  0  1  0  0  3  0  0  0  0  0  0
  187.8500  177.0770  147.2170 C   0  0  0  0  0  2  0  0  0  0  0  0
  181.6070  177.9860  140.0750 C   0  0  1  0  0  3  0  0  0  0  0  0
  186.0180  178.5170  142.2050 C   0  0  0  0  0  0  0  0  0  0  0  0
  185.6700  178.2480  146.3200 C   0  0  2  0  0  3  0  0  0  0  0  0
  184.7590  178.6300  143.0350 C   0  0  2  0  0  3  0  0  0  0  0  0
  188.3290  178.3180  140.7180 C   0  0  0  0  0  3  0  0  0  0  0  0
  181.0190  178.6770  142.5310 C   0  0  0  0  0  3  0  0  0  0  0  0
  188.3660  178.1160  142.0610 N   0  0  0  0  0  0  0  0  0  0  0  0
  182.2700  178.8850  142.9650 C   0  0  0  0  0  3  0  0  0  0  0  0
  182.4270  179.2830  139.9360 C   0  0  1  0  0  3  0  0  0  0  0  0
  187.1580  178.6350  140.1060 N   0  0  0  0  0  0  0  0  0  0  0  0
  184.7820  179.1150  140.1810 N   0  0  0  0  0  0  0  0  0  0  0  0
  182.4220  176.8500  140.1440 O   0  0  0  0  0  0  0  0  0  0  0  0
  181.6100  175.7900  139.7360 C   0  0  0  0  0  2  0  0  0  0  0  0
  182.1470  176.1450  136.2880 N   0  0  0  0  0  2  0  0  0  0  0  0
  183.4790  175.5280  138.1220 C   0  0  0  0  0  2  0  0  0  0  0  0
  182.0020  175.3490  138.3360 C   0  0  2  0  0  3  0  0  0  0  0  0
  183.5210  176.1390  136.7600 C   0  0  0  0  0  2  0  0  0  0  0  0
  181.3420  176.1450  137.3890 O   0  0  0  0  0  0  0  0  0  0  0  0
  1 18  1  0  0  0  0
  2 27  1  0  0  0  0
  3 16  1  6  0  0  0
  3  7  1  0  0  0  0
  4 15  1  0  0  0  0
  5 11  1  6  0  0  0
  5 19  1  0  0  0  0
  6  7  1  0  0  0  0
  8 16  1  0  0  0  0
  9 27  1  6  0  0  0
  9 13  1  0  0  0  0
 10 22  1  0  0  0  0
 12  8  1  0  0  0  0
 13 24  1  1  0  0  0
 13 20  1  0  0  0  0
 14  2  1  0  0  0  0
 15 12  1  6  0  0  0
 15  5  1  0  0  0  0
 17 28  1  1  0  0  0
 17 10  1  0  0  0  0
 18  4  2  0  0  0  0
 18 20  1  0  0  0  0
 19  6  1  6  0  0  0
 19  3  1  0  0  0  0
 20 11  1  1  0  0  0
 21 23  2  0  0  0  0
 22 24  2  0  0  0  0
 23  4  1  0  0  0  0
 25 14  1  6  0  0  0
 25 17  1  0  0  0  0
 25  9  1  0  0  0  0
 26 21  1  0  0  0  0
 26  1  2  0  0  0  0
 27  1  1  0  0  0  0
 29 28  1  0  0  0  0
 30 33  1  0  0  0  0
 30 34  1  0  0  0  0
 31 32  1  0  0  0  0
 32 29  1  1  0  0  0
 33 31  1  0  0  0  0
 34 32  1  0  0  0  0
M  END
>  <MODEL>
3

>  <REMARK>
 VINA RESULT:      -7.6      1.075      1.168
  Name = 
  3 active torsions:
  status: ('A' for Active; 'I' for Inactive)
    1  A    between atoms: C_17  and  O_28
    2  A    between atoms: O_28  and  C_29
    3  A    between atoms: C_29  and  C_32
                            x       y       z     vdW  Elec       q    Type
                         _______ _______ _______ _____ _____    ______ ____

>  <TORSDO>
F 3

$$$$
=
 OpenBabel11122412063D

 34 41  0  0  1  0  0  0  0  0999 V2000
  187.2200  178.2990  139.2140 C   0  0  0  0  0  0  0  0  0  0  0  0
  189.2290  177.7140  137.7670 C   0  0  0  0  0  2  0  0  0  0  0  0
  180.5700  178.6490  140.1300 C   0  0  2  0  0  3  0  0  0  0  0  0
  185.2430  178.5200  140.5710 C   0  0  0  0  0  0  0  0  0  0  0  0
  182.9620  177.6960  139.7170 C   0  0  1  0  0  3  0  0  0  0  0  0
  181.8320  179.8210  138.8390 C   0  0  0  0  0  2  0  0  0  0  0  0
  180.7300  180.1320  139.8420 C   0  0  0  0  0  2  0  0  0  0  0  0
  181.9000  179.0350  142.3240 C   0  0  0  0  0  2  0  0  0  0  0  0
  187.0510  177.9220  136.7320 C   0  0  2  0  0  3  0  0  0  0  0  0
  186.4500  175.4560  134.6000 C   0  0  0  0  0  2  0  0  0  0  0  0
  183.7940  177.0430  138.6050 C   0  0  0  0  0  2  0  0  0  0  0  0
  183.2560  178.3810  142.1140 C   0  0  0  0  0  2  0  0  0  0  0  0
  185.7220  177.2080  137.0200 C   0  0  1  0  0  3  0  0  0  0  0  0
  189.3830  177.3730  136.2910 C   0  0  0  0  0  2  0  0  0  0  0  0
  183.7410  178.6120  140.6920 C   0  0  1  0  0  3  0  0  0  0  0  0
  180.7890  178.2670  141.6080 C   0  0  0  0  0  2  0  0  0  0  0  0
  187.6570  175.7180  135.5150 C   0  0  1  0  0  3  0  0  0  0  0  0
  185.8230  178.2450  139.3260 C   0  0  0  0  0  0  0  0  0  0  0  0
  181.6900  178.3340  139.1360 C   0  0  2  0  0  3  0  0  0  0  0  0
  184.9450  177.9300  138.1350 C   0  0  2  0  0  3  0  0  0  0  0  0
  187.3970  178.8370  141.5070 C   0  0  0  0  0  3  0  0  0  0  0  0
  185.2590  176.3870  134.7040 C   0  0  0  0  0  3  0  0  0  0  0  0
  186.0440  178.8240  141.6300 N   0  0  0  0  0  0  0  0  0  0  0  0
  184.9130  177.1370  135.7610 C   0  0  0  0  0  3  0  0  0  0  0  0
  187.9710  177.2120  135.7280 C   0  0  1  0  0  3  0  0  0  0  0  0
  187.9780  178.5760  140.3070 N   0  0  0  0  0  0  0  0  0  0  0  0
  187.8320  178.0490  137.9440 N   0  0  0  0  0  0  0  0  0  0  0  0
  187.5130  175.0300  136.7250 O   0  0  0  0  0  0  0  0  0  0  0  0
  187.7770  173.6930  136.4220 C   0  0  0  0  0  2  0  0  0  0  0  0
  184.5810  172.8550  137.5950 N   0  0  0  0  0  2  0  0  0  0  0  0
  186.0350  171.9820  135.9700 C   0  0  0  0  0  2  0  0  0  0  0  0
  186.7090  172.8040  137.0340 C   0  0  2  0  0  3  0  0  0  0  0  0
  184.5960  172.1120  136.3470 C   0  0  0  0  0  2  0  0  0  0  0  0
  185.7230  173.5970  137.6370 O   0  0  0  0  0  0  0  0  0  0  0  0
  1 18  2  0  0  0  0
  1 26  1  0  0  0  0
  2 27  1  0  0  0  0
  3  7  1  1  0  0  0
  3 16  1  0  0  0  0
  4 15  1  0  0  0  0
  4 23  2  0  0  0  0
  5 11  1  6  0  0  0
  5 15  1  0  0  0  0
  6  7  1  0  0  0  0
  9 13  1  0  0  0  0
  9 27  1  1  0  0  0
 10 22  1  0  0  0  0
 10 17  1  0  0  0  0
 12  8  1  0  0  0  0
 13 24  1  6  0  0  0
 13 20  1  0  0  0  0
 14  2  1  0  0  0  0
 15 12  1  1  0  0  0
 16  8  1  0  0  0  0
 17 25  1  0  0  0  0
 17 28  1  1  0  0  0
 18  4  1  0  0  0  0
 19  6  1  1  0  0  0
 19  5  1  0  0  0  0
 19  3  1  0  0  0  0
 20 11  1  1  0  0  0
 20 18  1  0  0  0  0
 21 23  1  0  0  0  0
 22 24  2  0  0  0  0
 25 14  1  1  0  0  0
 25  9  1  0  0  0  0
 26 21  2  0  0  0  0
 27  1  1  0  0  0  0
 29 28  1  0  0  0  0
 30 34  1  0  0  0  0
 31 33  1  0  0  0  0
 31 32  1  0  0  0  0
 32 29  1  6  0  0  0
 32 34  1  0  0  0  0
 33 30  1  0  0  0  0
M  END
>  <MODEL>
4

>  <REMARK>
 VINA RESULT:      -6.9      3.379      6.616
  Name = 
  3 active torsions:
  status: ('A' for Active; 'I' for Inactive)
    1  A    between atoms: C_17  and  O_28
    2  A    between atoms: O_28  and  C_29
    3  A    between atoms: C_29  and  C_32
                            x       y       z     vdW  Elec       q    Type
                         _______ _______ _______ _____ _____    ______ ____

>  <TORSDO>
F 3

$$$$
=
 OpenBabel11122412063D

 34 41  0  0  1  0  0  0  0  0999 V2000
  186.1600  178.3440  139.4900 C   0  0  0  0  0  0  0  0  0  0  0  0
  187.9320  177.6580  137.7980 C   0  0  0  0  0  2  0  0  0  0  0  0
  179.7160  178.9230  141.3090 C   0  0  2  0  0  3  0  0  0  0  0  0
  184.4000  178.6640  141.1020 C   0  0  0  0  0  0  0  0  0  0  0  0
  182.0000  177.8860  140.5990 C   0  0  1  0  0  3  0  0  0  0  0  0
  180.8160  180.0210  139.8200 C   0  0  0  0  0  2  0  0  0  0  0  0
  179.8730  180.3930  140.9560 C   0  0  0  0  0  2  0  0  0  0  0  0
  181.3480  179.3290  143.2840 C   0  0  0  0  0  2  0  0  0  0  0  0
  185.6370  177.9050  137.0690 C   0  0  2  0  0  3  0  0  0  0  0  0
  184.6780  175.4010  135.1200 C   0  0  0  0  0  2  0  0  0  0  0  0
  182.6510  177.1780  139.4030 C   0  0  0  0  0  2  0  0  0  0  0  0
  182.6440  178.6280  142.9090 C   0  0  0  0  0  2  0  0  0  0  0  0
  184.3420  177.2400  137.5610 C   0  0  1  0  0  3  0  0  0  0  0  0
  187.8680  177.2730  136.3260 C   0  0  0  0  0  2  0  0  0  0  0  0
  182.9320  178.8040  141.4260 C   0  0  1  0  0  3  0  0  0  0  0  0
  180.1290  178.5760  142.7540 C   0  0  0  0  0  2  0  0  0  0  0  0
  186.0080  175.6500  135.8500 C   0  0  1  0  0  3  0  0  0  0  0  0
  184.7920  178.3370  139.7970 C   0  0  0  0  0  0  0  0  0  0  0  0
  180.6760  178.5470  140.1800 C   0  0  2  0  0  3  0  0  0  0  0  0
  183.7480  178.0160  138.7500 C   0  0  2  0  0  3  0  0  0  0  0  0
  186.6710  178.9390  141.7190 C   0  0  0  0  0  3  0  0  0  0  0  0
  183.5390  176.3700  135.3590 C   0  0  0  0  0  3  0  0  0  0  0  0
  185.3480  178.9710  142.0280 N   0  0  0  0  0  0  0  0  0  0  0  0
  183.3640  177.1590  136.4300 C   0  0  0  0  0  3  0  0  0  0  0  0
  186.3890  177.1390  135.9700 C   0  0  1  0  0  3  0  0  0  0  0  0
  187.0710  178.6270  140.4590 N   0  0  0  0  0  0  0  0  0  0  0  0
  186.5820  178.0410  138.1570 N   0  0  0  0  0  0  0  0  0  0  0  0
  186.0160  175.0010  137.0890 O   0  0  0  0  0  0  0  0  0  0  0  0
  186.8170  173.8720  136.9070 C   0  0  0  0  0  2  0  0  0  0  0  0
  183.8920  171.9630  137.2190 N   0  0  0  0  0  2  0  0  0  0  0  0
  185.7750  171.9000  135.8160 C   0  0  0  0  0  2  0  0  0  0  0  0
  185.9930  172.6140  137.1210 C   0  0  2  0  0  3  0  0  0  0  0  0
  184.3260  171.5490  135.8960 C   0  0  0  0  0  2  0  0  0  0  0  0
  184.7310  172.9570  137.6260 O   0  0  0  0  0  0  0  0  0  0  0  0
  1 18  2  0  0  0  0
  1 26  1  0  0  0  0
  2 27  1  0  0  0  0
  3  7  1  1  0  0  0
  3 16  1  0  0  0  0
  4 15  1  0  0  0  0
  4 23  2  0  0  0  0
  5 11  1  6  0  0  0
  5 15  1  0  0  0  0
  6  7  1  0  0  0  0
  9 13  1  0  0  0  0
  9 27  1  1  0  0  0
 10 22  1  0  0  0  0
 10 17  1  0  0  0  0
 12  8  1  0  0  0  0
 13 24  1  6  0  0  0
 13 20  1  0  0  0  0
 14  2  1  0  0  0  0
 15 12  1  1  0  0  0
 16  8  1  0  0  0  0
 17 25  1  0  0  0  0
 17 28  1  1  0  0  0
 18  4  1  0  0  0  0
 19  6  1  1  0  0  0
 19  5  1  0  0  0  0
 19  3  1  0  0  0  0
 20 11  1  1  0  0  0
 20 18  1  0  0  0  0
 21 23  1  0  0  0  0
 22 24  2  0  0  0  0
 25 14  1  1  0  0  0
 25  9  1  0  0  0  0
 26 21  2  0  0  0  0
 27  1  1  0  0  0  0
 29 28  1  0  0  0  0
 30 34  1  0  0  0  0
 31 33  1  0  0  0  0
 31 32  1  0  0  0  0
 32 29  1  6  0  0  0
 32 34  1  0  0  0  0
 33 30  1  0  0  0  0
M  END
>  <MODEL>
5

>  <REMARK>
 VINA RESULT:      -6.8      3.317      6.239
  Name = 
  3 active torsions:
  status: ('A' for Active; 'I' for Inactive)
    1  A    between atoms: C_17  and  O_28
    2  A    between atoms: O_28  and  C_29
    3  A    between atoms: C_29  and  C_32
                            x       y       z     vdW  Elec       q    Type
                         _______ _______ _______ _____ _____    ______ ____

>  <TORSDO>
F 3

$$$$
=
 OpenBabel11122412063D

 34 41  0  0  1  0  0  0  0  0999 V2000
  185.7720  177.1170  136.9320 C   0  0  0  0  0  0  0  0  0  0  0  0
  187.5710  178.8850  137.2660 C   0  0  0  0  0  2  0  0  0  0  0  0
  183.9580  170.7040  136.0590 C   0  0  2  0  0  3  0  0  0  0  0  0
  184.1730  175.3160  136.9140 C   0  0  0  0  0  0  0  0  0  0  0  0
  184.9440  172.8710  137.1210 C   0  0  1  0  0  3  0  0  0  0  0  0
  184.9720  172.0310  134.7010 C   0  0  0  0  0  2  0  0  0  0  0  0
  183.7910  171.0760  134.5950 C   0  0  0  0  0  2  0  0  0  0  0  0
  181.9390  172.2490  136.5760 C   0  0  0  0  0  2  0  0  0  0  0  0
  188.2070  176.6920  136.4590 C   0  0  2  0  0  3  0  0  0  0  0  0
  190.9020  175.5350  138.0040 C   0  0  0  0  0  2  0  0  0  0  0  0
  186.2990  173.4960  137.4780 C   0  0  0  0  0  2  0  0  0  0  0  0
  182.5100  173.4610  137.2930 C   0  0  0  0  0  2  0  0  0  0  0  0
  187.9870  175.2930  137.0540 C   0  0  1  0  0  3  0  0  0  0  0  0
  189.0870  178.8630  137.1260 C   0  0  0  0  0  2  0  0  0  0  0  0
  183.8410  173.8620  136.6770 C   0  0  1  0  0  3  0  0  0  0  0  0
  182.7100  170.9760  136.9230 C   0  0  0  0  0  2  0  0  0  0  0  0
  190.1110  176.8380  138.2080 C   0  0  1  0  0  3  0  0  0  0  0  0
  185.5060  175.7420  136.8410 C   0  0  0  0  0  0  0  0  0  0  0  0
  185.1340  171.6750  136.1730 C   0  0  2  0  0  3  0  0  0  0  0  0
  186.6150  174.7330  136.6400 C   0  0  2  0  0  3  0  0  0  0  0  0
  183.4670  177.5610  137.1930 C   0  0  0  0  0  3  0  0  0  0  0  0
  190.3650  174.5210  137.0150 C   0  0  0  0  0  3  0  0  0  0  0  0
  183.1840  176.2370  137.0740 N   0  0  0  0  0  0  0  0  0  0  0  0
  189.0930  174.3860  136.6110 C   0  0  0  0  0  3  0  0  0  0  0  0
  189.4890  177.4040  136.9160 C   0  0  1  0  0  3  0  0  0  0  0  0
  184.7520  177.9940  137.1230 N   0  0  0  0  0  0  0  0  0  0  0  0
  187.1240  177.5770  136.8320 N   0  0  0  0  0  0  0  0  0  0  0  0
  189.1640  176.6820  139.2270 O   0  0  0  0  0  0  0  0  0  0  0  0
  189.8750  176.8500  140.4180 C   0  0  0  0  0  2  0  0  0  0  0  0
  187.1010  178.5750  141.6950 N   0  0  0  0  0  2  0  0  0  0  0  0
  188.7100  177.1180  142.5940 C   0  0  0  0  0  2  0  0  0  0  0  0
  189.1340  177.8120  141.3300 C   0  0  2  0  0  3  0  0  0  0  0  0
  187.3070  177.6040  142.7550 C   0  0  0  0  0  2  0  0  0  0  0  0
  187.9720  178.2680  140.6920 O   0  0  0  0  0  0  0  0  0  0  0  0
  1 26  1  0  0  0  0
  3  7  1  6  0  0  0
  3 19  1  0  0  0  0
  3 16  1  0  0  0  0
  4 23  2  0  0  0  0
  5 11  1  6  0  0  0
  7  6  1  0  0  0  0
  8 16  1  0  0  0  0
  8 12  1  0  0  0  0
  9 27  1  1  0  0  0
  9 25  1  0  0  0  0
  9 13  1  0  0  0  0
 10 17  1  0  0  0  0
 13 24  1  6  0  0  0
 14  2  1  0  0  0  0
 15  4  1  0  0  0  0
 15  5  1  0  0  0  0
 15 12  1  1  0  0  0
 17 28  1  1  0  0  0
 18  4  1  0  0  0  0
 18  1  2  0  0  0  0
 19  6  1  6  0  0  0
 19  5  1  0  0  0  0
 20 18  1  0  0  0  0
 20 13  1  0  0  0  0
 20 11  1  1  0  0  0
 22 10  1  0  0  0  0
 23 21  1  0  0  0  0
 24 22  2  0  0  0  0
 25 14  1  1  0  0  0
 25 17  1  0  0  0  0
 26 21  2  0  0  0  0
 27  1  1  0  0  0  0
 27  2  1  0  0  0  0
 28 29  1  0  0  0  0
 30 33  1  0  0  0  0
 31 33  1  0  0  0  0
 32 29  1  6  0  0  0
 32 31  1  0  0  0  0
 34 32  1  0  0  0  0
 34 30  1  0  0  0  0
M  END
>  <MODEL>
6

>  <REMARK>
 VINA RESULT:      -6.8      3.750      9.240
  Name = 
  3 active torsions:
  status: ('A' for Active; 'I' for Inactive)
    1  A    between atoms: C_17  and  O_28
    2  A    between atoms: O_28  and  C_29
    3  A    between atoms: C_29  and  C_32
                            x       y       z     vdW  Elec       q    Type
                         _______ _______ _______ _____ _____    ______ ____

>  <TORSDO>
F 3

$$$$
=
 OpenBabel11122412063D

 34 41  0  0  1  0  0  0  0  0999 V2000
  187.1000  178.4530  139.5040 C   0  0  0  0  0  0  0  0  0  0  0  0
  189.3210  177.9550  138.3680 C   0  0  0  0  0  2  0  0  0  0  0  0
  180.3870  178.7510  139.3560 C   0  0  2  0  0  3  0  0  0  0  0  0
  184.9300  178.5930  140.5360 C   0  0  0  0  0  0  0  0  0  0  0  0
  182.8230  177.8230  139.2780 C   0  0  1  0  0  3  0  0  0  0  0  0
  181.8300  179.9980  138.3580 C   0  0  0  0  0  2  0  0  0  0  0  0
  180.5770  180.2490  139.1870 C   0  0  0  0  0  2  0  0  0  0  0  0
  181.3430  179.0030  141.7550 C   0  0  0  0  0  2  0  0  0  0  0  0
  187.3360  178.2270  137.0090 C   0  0  2  0  0  3  0  0  0  0  0  0
  187.1080  175.8940  134.6640 C   0  0  0  0  0  2  0  0  0  0  0  0
  183.8290  177.2380  138.2770 C   0  0  0  0  0  2  0  0  0  0  0  0
  182.7210  178.3620  141.7270 C   0  0  0  0  0  2  0  0  0  0  0  0
  185.9850  177.4970  137.0360 C   0  0  1  0  0  3  0  0  0  0  0  0
  189.7130  177.7040  136.9180 C   0  0  0  0  0  2  0  0  0  0  0  0
  183.4260  178.6780  140.4180 C   0  0  1  0  0  3  0  0  0  0  0  0
  180.3690  178.2800  140.8250 C   0  0  0  0  0  2  0  0  0  0  0  0
  188.1500  176.1000  135.7760 C   0  0  1  0  0  3  0  0  0  0  0  0
  185.7040  178.3930  139.3860 C   0  0  0  0  0  0  0  0  0  0  0  0
  181.6540  178.4960  138.5380 C   0  0  2  0  0  3  0  0  0  0  0  0
  185.0320  178.1510  138.0520 C   0  0  2  0  0  3  0  0  0  0  0  0
  186.9020  178.8510  141.8240 C   0  0  0  0  0  3  0  0  0  0  0  0
  185.9080  176.8180  134.6310 C   0  0  0  0  0  3  0  0  0  0  0  0
  185.5470  178.8310  141.7260 N   0  0  0  0  0  0  0  0  0  0  0  0
  185.3900  177.5030  135.6620 C   0  0  0  0  0  3  0  0  0  0  0  0
  188.4130  177.5780  136.1260 C   0  0  1  0  0  3  0  0  0  0  0  0
  187.6700  178.6620  140.7200 N   0  0  0  0  0  0  0  0  0  0  0  0
  187.9110  178.2800  138.3370 N   0  0  0  0  0  0  0  0  0  0  0  0
  187.8200  175.3410  136.9040 O   0  0  0  0  0  0  0  0  0  0  0  0
  188.5560  174.1600  136.7810 C   0  0  0  0  0  2  0  0  0  0  0  0
  191.9690  174.1280  137.5870 N   0  0  0  0  0  2  0  0  0  0  0  0
  190.6950  173.4650  135.7280 C   0  0  0  0  0  2  0  0  0  0  0  0
  190.0290  174.4860  136.6090 C   0  0  2  0  0  3  0  0  0  0  0  0
  191.9620  173.1980  136.4710 C   0  0  0  0  0  2  0  0  0  0  0  0
  190.6710  174.4460  137.8540 O   0  0  0  0  0  0  0  0  0  0  0  0
  1 26  1  0  0  0  0
  3  7  1  1  0  0  0
  3 16  1  0  0  0  0
  4 23  2  0  0  0  0
  5 11  1  6  0  0  0
  5 15  1  0  0  0  0
  6  7  1  0  0  0  0
  9 13  1  0  0  0  0
  9 27  1  1  0  0  0
 10 17  1  0  0  0  0
 12  8  1  0  0  0  0
 13 24  1  6  0  0  0
 13 20  1  0  0  0  0
 14  2  1  0  0  0  0
 15  4  1  0  0  0  0
 15 12  1  1  0  0  0
 16  8  1  0  0  0  0
 17 25  1  0  0  0  0
 17 28  1  1  0  0  0
 18  1  2  0  0  0  0
 18  4  1  0  0  0  0
 19  6  1  1  0  0  0
 19  5  1  0  0  0  0
 19  3  1  0  0  0  0
 20 11  1  1  0  0  0
 20 18  1  0  0  0  0
 22 10  1  0  0  0  0
 22 24  2  0  0  0  0
 23 21  1  0  0  0  0
 25 14  1  1  0  0  0
 25  9  1  0  0  0  0
 26 21  2  0  0  0  0
 27  2  1  0  0  0  0
 27  1  1  0  0  0  0
 29 28  1  0  0  0  0
 30 34  1  0  0  0  0
 31 33  1  0  0  0  0
 31 32  1  0  0  0  0
 32 29  1  1  0  0  0
 32 34  1  0  0  0  0
 33 30  1  0  0  0  0
M  END
>  <MODEL>
7

>  <REMARK>
 VINA RESULT:      -6.6      3.814      7.444
  Name = 
  3 active torsions:
  status: ('A' for Active; 'I' for Inactive)
    1  A    between atoms: C_17  and  O_28
    2  A    between atoms: O_28  and  C_29
    3  A    between atoms: C_29  and  C_32
                            x       y       z     vdW  Elec       q    Type
                         _______ _______ _______ _____ _____    ______ ____

>  <TORSDO>
F 3

$$$$
=
 OpenBabel11122412063D

 34 41  0  0  1  0  0  0  0  0999 V2000
  189.7430  177.8730  141.1840 C   0  0  0  0  0  0  0  0  0  0  0  0
  190.3210  177.8420  138.7060 C   0  0  0  0  0  2  0  0  0  0  0  0
  185.2170  178.3150  146.1330 C   0  0  2  0  0  3  0  0  0  0  0  0
  189.0180  177.6170  143.4660 C   0  0  0  0  0  0  0  0  0  0  0  0
  186.5160  177.4590  144.0410 C   0  0  1  0  0  3  0  0  0  0  0  0
  185.9060  179.8370  144.7750 C   0  0  0  0  0  2  0  0  0  0  0  0
  185.6970  179.7500  146.2800 C   0  0  0  0  0  2  0  0  0  0  0  0
  187.5490  177.5570  146.9800 C   0  0  0  0  0  2  0  0  0  0  0  0
  188.1570  178.6750  139.4030 C   0  0  2  0  0  3  0  0  0  0  0  0
  185.7060  177.4990  137.5060 C   0  0  0  0  0  2  0  0  0  0  0  0
  186.3410  177.3140  142.5230 C   0  0  0  0  0  2  0  0  0  0  0  0
  188.2590  176.9590  145.7770 C   0  0  0  0  0  2  0  0  0  0  0  0
  187.0390  178.0190  140.2270 C   0  0  1  0  0  3  0  0  0  0  0  0
  189.5340  178.1950  137.4520 C   0  0  0  0  0  2  0  0  0  0  0  0
  187.9530  177.7680  144.5260 C   0  0  1  0  0  3  0  0  0  0  0  0
  186.0450  177.2900  146.9340 C   0  0  0  0  0  2  0  0  0  0  0  0
  187.2180  177.2180  137.4780 C   0  0  1  0  0  3  0  0  0  0  0  0
  188.7050  177.8890  142.1270 C   0  0  0  0  0  0  0  0  0  0  0  0
  185.4420  178.3940  144.6220 C   0  0  2  0  0  3  0  0  0  0  0  0
  187.2830  178.2200  141.7330 C   0  0  2  0  0  3  0  0  0  0  0  0
  191.2900  177.2980  142.8740 C   0  0  0  0  0  3  0  0  0  0  0  0
  185.1630  178.3760  138.6150 C   0  0  0  0  0  3  0  0  0  0  0  0
  190.3060  177.3420  143.8100 N   0  0  0  0  0  0  0  0  0  0  0  0
  185.7180  178.5920  139.8160 C   0  0  0  0  0  3  0  0  0  0  0  0
  188.0880  178.4220  137.8890 C   0  0  1  0  0  3  0  0  0  0  0  0
  191.0080  177.5610  141.5720 N   0  0  0  0  0  0  0  0  0  0  0  0
  189.4520  178.1750  139.8150 N   0  0  0  0  0  0  0  0  0  0  0  0
  187.5170  176.0720  138.2230 O   0  0  0  0  0  0  0  0  0  0  0  0
  187.5960  175.0370  137.2890 C   0  0  0  0  0  2  0  0  0  0  0  0
  190.8980  173.8580  137.1880 N   0  0  0  0  0  2  0  0  0  0  0  0
  189.0970  173.8850  135.6800 C   0  0  0  0  0  2  0  0  0  0  0  0
  189.0180  174.9220  136.7650 C   0  0  2  0  0  3  0  0  0  0  0  0
  190.3380  173.1440  136.0540 C   0  0  0  0  0  2  0  0  0  0  0  0
  189.8710  174.5130  137.8000 O   0  0  0  0  0  0  0  0  0  0  0  0
  1 26  2  0  0  0  0
  1 18  1  0  0  0  0
  2 27  1  0  0  0  0
  3  7  1  1  0  0  0
  3 16  1  0  0  0  0
  4 23  1  0  0  0  0
  4 15  1  0  0  0  0
  5 11  1  6  0  0  0
  5 15  1  0  0  0  0
  5 19  1  0  0  0  0
  6  7  1  0  0  0  0
  9 27  1  1  0  0  0
  9 13  1  0  0  0  0
 10 22  1  0  0  0  0
 12  8  1  0  0  0  0
 13 24  1  6  0  0  0
 13 20  1  0  0  0  0
 14  2  1  0  0  0  0
 15 12  1  1  0  0  0
 16  8  1  0  0  0  0
 17 10  1  0  0  0  0
 17 25  1  0  0  0  0
 17 28  1  1  0  0  0
 18  4  2  0  0  0  0
 19  6  1  1  0  0  0
 19  3  1  0  0  0  0
 20 18  1  0  0  0  0
 20 11  1  1  0  0  0
 21 23  2  0  0  0  0
 22 24  2  0  0  0  0
 25 14  1  1  0  0  0
 25  9  1  0  0  0  0
 26 21  1  0  0  0  0
 27  1  1  0  0  0  0
 29 28  1  0  0  0  0
 30 34  1  0  0  0  0
 31 33  1  0  0  0  0
 31 32  1  0  0  0  0
 32 29  1  1  0  0  0
 32 34  1  0  0  0  0
 33 30  1  0  0  0  0
M  END
>  <MODEL>
8

>  <REMARK>
 VINA RESULT:      -6.5      3.166      4.481
  Name = 
  3 active torsions:
  status: ('A' for Active; 'I' for Inactive)
    1  A    between atoms: C_17  and  O_28
    2  A    between atoms: O_28  and  C_29
    3  A    between atoms: C_29  and  C_32
                            x       y       z     vdW  Elec       q    Type
                         _______ _______ _______ _____ _____    ______ ____

>  <TORSDO>
F 3

$$$$
=
 OpenBabel11122412063D

 34 41  0  0  1  0  0  0  0  0999 V2000
  189.2680  177.8760  140.4480 C   0  0  0  0  0  0  0  0  0  0  0  0
  189.8800  177.6760  137.9860 C   0  0  0  0  0  2  0  0  0  0  0  0
  184.6860  178.7370  145.2890 C   0  0  2  0  0  3  0  0  0  0  0  0
  188.5050  177.7810  142.7300 C   0  0  0  0  0  0  0  0  0  0  0  0
  185.9920  177.7200  143.2740 C   0  0  1  0  0  3  0  0  0  0  0  0
  185.4320  180.1540  143.8500 C   0  0  0  0  0  2  0  0  0  0  0  0
  185.2000  180.1660  145.3540 C   0  0  0  0  0  2  0  0  0  0  0  0
  186.9850  177.9760  146.2180 C   0  0  0  0  0  2  0  0  0  0  0  0
  187.7290  178.6030  138.5960 C   0  0  2  0  0  3  0  0  0  0  0  0
  185.2750  177.3720  136.7370 C   0  0  0  0  0  2  0  0  0  0  0  0
  185.8340  177.4850  141.7660 C   0  0  0  0  0  2  0  0  0  0  0  0
  187.6970  177.2870  145.0650 C   0  0  0  0  0  2  0  0  0  0  0  0
  186.5830  178.0280  139.4420 C   0  0  1  0  0  3  0  0  0  0  0  0
  189.1200  177.9690  136.7000 C   0  0  0  0  0  2  0  0  0  0  0  0
  187.4300  178.0230  143.7620 C   0  0  1  0  0  3  0  0  0  0  0  0
  185.4760  177.7440  146.1650 C   0  0  0  0  0  2  0  0  0  0  0  0
  186.7790  177.0530  136.7510 C   0  0  1  0  0  3  0  0  0  0  0  0
  188.2180  177.9760  141.3720 C   0  0  0  0  0  0  0  0  0  0  0  0
  184.9340  178.7160  143.7800 C   0  0  2  0  0  3  0  0  0  0  0  0
  186.8100  178.3160  140.9360 C   0  0  2  0  0  3  0  0  0  0  0  0
  190.7770  177.3700  142.1940 C   0  0  0  0  0  3  0  0  0  0  0  0
  184.7390  178.3290  137.7810 C   0  0  0  0  0  3  0  0  0  0  0  0
  189.7810  177.4960  143.1100 N   0  0  0  0  0  0  0  0  0  0  0  0
  185.2820  178.6060  138.9750 C   0  0  0  0  0  3  0  0  0  0  0  0
  187.6740  178.2590  137.1000 C   0  0  1  0  0  3  0  0  0  0  0  0
  190.5190  177.5580  140.8740 N   0  0  0  0  0  0  0  0  0  0  0  0
  189.0040  178.0990  139.0590 N   0  0  0  0  0  0  0  0  0  0  0  0
  187.0390  175.9480  137.5710 O   0  0  0  0  0  0  0  0  0  0  0  0
  187.2460  174.8810  136.6940 C   0  0  0  0  0  2  0  0  0  0  0  0
  184.5730  172.7460  137.4690 N   0  0  0  0  0  2  0  0  0  0  0  0
  186.5290  172.5590  136.1820 C   0  0  0  0  0  2  0  0  0  0  0  0
  186.5760  173.6300  137.2360 C   0  0  2  0  0  3  0  0  0  0  0  0
  185.1350  172.0470  136.3260 C   0  0  0  0  0  2  0  0  0  0  0  0
  185.2530  173.9210  137.5970 O   0  0  0  0  0  0  0  0  0  0  0  0
  1 26  2  0  0  0  0
  1 18  1  0  0  0  0
  2 27  1  0  0  0  0
  3  7  1  1  0  0  0
  3 16  1  0  0  0  0
  4 23  1  0  0  0  0
  4 15  1  0  0  0  0
  5 11  1  6  0  0  0
  5 15  1  0  0  0  0
  5 19  1  0  0  0  0
  6  7  1  0  0  0  0
  9 27  1  1  0  0  0
  9 13  1  0  0  0  0
 10 17  1  0  0  0  0
 10 22  1  0  0  0  0
 12  8  1  0  0  0  0
 13 24  1  6  0  0  0
 13 20  1  0  0  0  0
 14  2  1  0  0  0  0
 15 12  1  1  0  0  0
 16  8  1  0  0  0  0
 17 25  1  0  0  0  0
 17 28  1  1  0  0  0
 18  4  2  0  0  0  0
 19  6  1  1  0  0  0
 19  3  1  0  0  0  0
 20 18  1  0  0  0  0
 20 11  1  1  0  0  0
 21 23  2  0  0  0  0
 22 24  2  0  0  0  0
 25 14  1  1  0  0  0
 25  9  1  0  0  0  0
 26 21  1  0  0  0  0
 27  1  1  0  0  0  0
 29 28  1  0  0  0  0
 30 34  1  0  0  0  0
 31 33  1  0  0  0  0
 31 32  1  0  0  0  0
 32 29  1  6  0  0  0
 32 34  1  0  0  0  0
 33 30  1  0  0  0  0
M  END
>  <MODEL>
9

>  <REMARK>
 VINA RESULT:      -6.4      2.517      4.020
  Name = 
  3 active torsions:
  status: ('A' for Active; 'I' for Inactive)
    1  A    between atoms: C_17  and  O_28
    2  A    between atoms: O_28  and  C_29
    3  A    between atoms: C_29  and  C_32
                            x       y       z     vdW  Elec       q    Type
                         _______ _______ _______ _____ _____    ______ ____

>  <TORSDO>
F 3

$$$$
