=
 OpenBabel11122412063D

 34 40  0  0  1  0  0  0  0  0999 V2000
  183.4440  178.6340  143.4040 C   0  0  0  0  0  0  0  0  0  0  0  0
  181.2190  179.2530  142.3410 C   0  0  0  0  0  2  0  0  0  0  0  0
  189.9490  178.6350  143.4890 C   0  0  0  0  0  0  0  0  0  0  0  0
  185.7070  178.4100  144.2570 C   0  0  0  0  0  0  0  0  0  0  0  0
  187.6240  177.8720  142.6170 C   0  0  2  0  0  3  0  0  0  0  0  0
  189.7480  177.1680  141.4850 C   0  0  0  0  0  1  0  0  0  0  0  0
  190.5990  179.6650  143.4200 O   0  0  0  0  0  0  0  0  0  0  0  0
  189.1060  176.6200  144.7790 C   0  0  0  0  0  2  0  0  0  0  0  0
  182.9010  178.1570  140.9830 C   0  0  2  0  0  3  0  0  0  0  0  0
  183.2990  179.7160  138.3330 N   0  0  0  0  0  0  0  0  0  0  0  0
  186.7110  178.5270  141.5890 C   0  0  0  0  0  2  0  0  0  0  0  0
  187.6670  177.0770  145.0290 C   0  0  0  0  0  2  0  0  0  0  0  0
  184.3630  178.5410  140.6750 C   0  0  1  0  0  3  0  0  0  0  0  0
  180.6700  179.1510  140.9280 C   0  0  0  0  0  2  0  0  0  0  0  0
  187.1900  178.1760  144.0700 C   0  0  2  0  0  3  0  0  0  0  0  0
  190.0780  177.7940  144.7350 C   0  0  0  0  0  2  0  0  0  0  0  0
  182.3430  179.9010  139.1990 C   0  0  0  0  0  0  0  0  0  0  0  0
  184.8070  178.3750  143.1700 C   0  0  0  0  0  0  0  0  0  0  0  0
  189.0830  178.2540  142.3080 C   0  0  2  0  0  3  0  0  0  0  0  0
  185.2910  178.0140  141.7820 C   0  0  2  0  0  3  0  0  0  0  0  0
  183.9360  178.9970  145.7370 C   0  0  0  0  0  3  0  0  0  0  0  0
  183.9310  178.4150  138.1270 C   0  0  0  0  0  2  0  0  0  0  0  0
  185.2470  178.7320  145.4980 N   0  0  0  0  0  0  0  0  0  0  0  0
  184.8270  178.0180  139.3060 C   0  0  0  0  0  2  0  0  0  0  0  0
  181.8400  178.7420  140.0350 C   0  0  1  0  0  3  0  0  0  0  0  0
  183.0120  178.9550  144.6950 C   0  0  0  0  0  3  0  0  0  0  0  0
  182.5210  178.6150  142.3070 N   0  0  0  0  0  0  0  0  0  0  0  0
  181.7870  181.1730  139.3690 O   0  0  0  0  0  0  0  0  0  0  0  0
  180.6880  181.6330  138.5950 C   0  0  0  0  0  2  0  0  0  0  0  0
  182.1800  184.6250  137.2530 O   0  0  0  0  0  0  0  0  0  0  0  0
  180.3540  183.4580  136.8470 C   0  0  0  0  0  3  0  0  0  0  0  0
  181.0860  182.8530  137.8440 C   0  0  0  0  0  0  0  0  0  0  0  0
  181.0980  184.5720  136.5060 C   0  0  0  0  0  3  0  0  0  0  0  0
  182.2100  183.6090  138.0820 C   0  0  0  0  0  3  0  0  0  0  0  0
  1 26  1  0  0  0  0
  3 16  1  0  0  0  0
  4 23  2  0  0  0  0
  5 11  1  6  0  0  0
  5 15  1  0  0  0  0
  7  3  2  0  0  0  0
  8 12  1  0  0  0  0
  9 27  1  1  0  0  0
 10 17  2  0  0  0  0
 13 24  1  6  0  0  0
 13  9  1  0  0  0  0
 13 20  1  0  0  0  0
 14  2  1  0  0  0  0
 15  4  1  0  0  0  0
 15 12  1  1  0  0  0
 16  8  1  0  0  0  0
 17 28  1  0  0  0  0
 17 25  1  0  0  0  0
 18  1  2  0  0  0  0
 18  4  1  0  0  0  0
 19  6  1  1  0  0  0
 19  5  1  0  0  0  0
 19  3  1  0  0  0  0
 20 11  1  6  0  0  0
 20 18  1  0  0  0  0
 22 10  1  0  0  0  0
 22 24  1  0  0  0  0
 23 21  1  0  0  0  0
 25 14  1  1  0  0  0
 25  9  1  0  0  0  0
 26 21  2  0  0  0  0
 27  2  1  0  0  0  0
 27  1  1  0  0  0  0
 29 28  1  0  0  0  0
 30 34  1  0  0  0  0
 31 32  1  0  0  0  0
 32 34  2  0  0  0  0
 32 29  1  0  0  0  0
 33 31  2  0  0  0  0
 33 30  1  0  0  0  0
M  END
>  <MODEL>
1

>  <REMARK>
 VINA RESULT:      -8.6      0.000      0.000
  Name = 
  3 active torsions:
  status: ('A' for Active; 'I' for Inactive)
    1  A    between atoms: C_17  and  O_28
    2  A    between atoms: O_28  and  C_29
    3  A    between atoms: C_29  and  C_32
                            x       y       z     vdW  Elec       q    Type
                         _______ _______ _______ _____ _____    ______ ____

>  <TORSDO>
F 3

$$$$
=
 OpenBabel11122412063D

 34 40  0  0  1  0  0  0  0  0999 V2000
  181.9310  178.7310  143.2260 C   0  0  0  0  0  0  0  0  0  0  0  0
  183.5710  179.1060  145.1320 C   0  0  0  0  0  2  0  0  0  0  0  0
  180.2800  176.0520  137.5330 C   0  0  0  0  0  0  0  0  0  0  0  0
  180.5350  177.9860  141.3830 C   0  0  0  0  0  0  0  0  0  0  0  0
  181.5790  177.7230  139.0390 C   0  0  2  0  0  3  0  0  0  0  0  0
  182.0620  177.5150  136.5870 C   0  0  0  0  0  1  0  0  0  0  0  0
  180.3260  174.8470  137.3450 O   0  0  0  0  0  0  0  0  0  0  0  0
  178.9770  178.2060  137.8410 C   0  0  0  0  0  2  0  0  0  0  0  0
  184.3270  179.4420  142.8530 C   0  0  2  0  0  3  0  0  0  0  0  0
  186.9840  177.9150  142.3860 N   0  0  0  0  0  0  0  0  0  0  0  0
  182.8740  177.5240  139.8160 C   0  0  0  0  0  2  0  0  0  0  0  0
  179.1440  178.3770  139.3530 C   0  0  0  0  0  2  0  0  0  0  0  0
  184.3210  178.4970  141.6340 C   0  0  1  0  0  3  0  0  0  0  0  0
  185.0490  179.4560  145.1870 C   0  0  0  0  0  2  0  0  0  0  0  0
  180.3260  177.5930  139.9380 C   0  0  2  0  0  3  0  0  0  0  0  0
  178.9400  176.7380  137.4330 C   0  0  0  0  0  2  0  0  0  0  0  0
  186.4070  178.1220  143.5360 C   0  0  0  0  0  0  0  0  0  0  0  0
  181.7930  178.4120  141.8630 C   0  0  0  0  0  0  0  0  0  0  0  0
  181.5740  176.7810  137.8210 C   0  0  2  0  0  3  0  0  0  0  0  0
  182.9630  178.5720  140.9170 C   0  0  2  0  0  3  0  0  0  0  0  0
  179.6180  178.1470  143.5750 C   0  0  0  0  0  3  0  0  0  0  0  0
  186.8580  178.8460  141.2660 C   0  0  0  0  0  2  0  0  0  0  0  0
  179.4950  177.8550  142.2540 N   0  0  0  0  0  0  0  0  0  0  0  0
  185.4560  178.8130  140.6470 C   0  0  0  0  0  2  0  0  0  0  0  0
  185.5710  179.3670  143.7550 C   0  0  1  0  0  3  0  0  0  0  0  0
  180.8360  178.5890  144.0850 C   0  0  0  0  0  3  0  0  0  0  0  0
  183.2060  179.1520  143.7290 N   0  0  0  0  0  0  0  0  0  0  0  0
  186.5450  177.1880  144.5680 O   0  0  0  0  0  0  0  0  0  0  0  0
  187.8130  176.7190  145.0060 C   0  0  0  0  0  2  0  0  0  0  0  0
  189.2870  178.0240  148.0220 O   0  0  0  0  0  0  0  0  0  0  0  0
  187.2370  177.7880  147.2470 C   0  0  0  0  0  3  0  0  0  0  0  0
  188.1460  177.3390  146.3160 C   0  0  0  0  0  0  0  0  0  0  0  0
  188.0170  178.2170  148.3040 C   0  0  0  0  0  3  0  0  0  0  0  0
  189.4120  177.4880  146.8310 C   0  0  0  0  0  3  0  0  0  0  0  0
  1 27  1  0  0  0  0
  1 26  1  0  0  0  0
  2 14  1  0  0  0  0
  3 19  1  0  0  0  0
  4 18  1  0  0  0  0
  4 23  2  0  0  0  0
  5 11  1  1  0  0  0
  5 15  1  0  0  0  0
  7  3  2  0  0  0  0
  8 12  1  0  0  0  0
  9 27  1  1  0  0  0
  9 25  1  0  0  0  0
 10 17  2  0  0  0  0
 13 24  1  6  0  0  0
 13  9  1  0  0  0  0
 15 12  1  6  0  0  0
 15  4  1  0  0  0  0
 16  3  1  0  0  0  0
 16  8  1  0  0  0  0
 17 25  1  0  0  0  0
 17 28  1  0  0  0  0
 18  1  2  0  0  0  0
 19  6  1  6  0  0  0
 19  5  1  0  0  0  0
 20 11  1  6  0  0  0
 20 13  1  0  0  0  0
 20 18  1  0  0  0  0
 21 26  2  0  0  0  0
 22 10  1  0  0  0  0
 23 21  1  0  0  0  0
 24 22  1  0  0  0  0
 25 14  1  1  0  0  0
 27  2  1  0  0  0  0
 28 29  1  0  0  0  0
 29 32  1  0  0  0  0
 30 33  1  0  0  0  0
 31 33  2  0  0  0  0
 32 34  2  0  0  0  0
 32 31  1  0  0  0  0
 34 30  1  0  0  0  0
M  END
>  <MODEL>
2

>  <REMARK>
 VINA RESULT:      -8.6      3.529      8.524
  Name = 
  3 active torsions:
  status: ('A' for Active; 'I' for Inactive)
    1  A    between atoms: C_17  and  O_28
    2  A    between atoms: O_28  and  C_29
    3  A    between atoms: C_29  and  C_32
                            x       y       z     vdW  Elec       q    Type
                         _______ _______ _______ _____ _____    ______ ____

>  <TORSDO>
F 3

$$$$
=
 OpenBabel11122412063D

 34 40  0  0  1  0  0  0  0  0999 V2000
  188.1790  177.3930  138.2040 C   0  0  0  0  0  0  0  0  0  0  0  0
  186.7030  178.3790  140.0240 C   0  0  0  0  0  2  0  0  0  0  0  0
  192.9330  173.4280  136.2050 C   0  0  0  0  0  0  0  0  0  0  0  0
  189.5770  176.0970  136.6980 C   0  0  0  0  0  0  0  0  0  0  0  0
  191.9970  175.5390  137.3950 C   0  0  2  0  0  3  0  0  0  0  0  0
  194.4260  174.9280  137.5190 C   0  0  0  0  0  1  0  0  0  0  0  0
  192.9210  172.2310  136.4410 O   0  0  0  0  0  0  0  0  0  0  0  0
  192.7510  175.3780  134.5940 C   0  0  0  0  0  2  0  0  0  0  0  0
  189.1060  178.3710  140.3410 C   0  0  2  0  0  3  0  0  0  0  0  0
  189.8000  177.2010  143.1270 N   0  0  0  0  0  0  0  0  0  0  0  0
  191.4540  175.6950  138.8090 C   0  0  0  0  0  2  0  0  0  0  0  0
  191.3480  175.8670  134.9600 C   0  0  0  0  0  2  0  0  0  0  0  0
  190.1270  177.2140  140.3180 C   0  0  1  0  0  3  0  0  0  0  0  0
  186.9850  178.9520  141.4030 C   0  0  0  0  0  2  0  0  0  0  0  0
  190.8710  175.4010  136.3420 C   0  0  2  0  0  3  0  0  0  0  0  0
  192.8940  173.8700  134.7630 C   0  0  0  0  0  2  0  0  0  0  0  0
  188.6130  177.5400  142.7080 C   0  0  0  0  0  0  0  0  0  0  0  0
  189.4190  176.7940  137.9160 C   0  0  0  0  0  0  0  0  0  0  0  0
  193.0170  174.3860  137.3720 C   0  0  2  0  0  3  0  0  0  0  0  0
  190.5800  176.9400  138.8750 C   0  0  2  0  0  3  0  0  0  0  0  0
  187.3110  176.5460  136.1190 C   0  0  0  0  0  3  0  0  0  0  0  0
  191.0160  177.8630  142.6600 C   0  0  0  0  0  2  0  0  0  0  0  0
  188.5180  175.9840  135.8490 N   0  0  0  0  0  0  0  0  0  0  0  0
  191.3480  177.4970  141.2090 C   0  0  0  0  0  2  0  0  0  0  0  0
  188.4540  178.6630  141.7030 C   0  0  1  0  0  3  0  0  0  0  0  0
  187.1190  177.2580  137.3010 C   0  0  0  0  0  3  0  0  0  0  0  0
  188.0000  178.0920  139.4430 N   0  0  0  0  0  0  0  0  0  0  0  0
  187.4840  176.8600  143.1740 O   0  0  0  0  0  0  0  0  0  0  0  0
  187.1930  176.7260  144.5580 C   0  0  0  0  0  2  0  0  0  0  0  0
  185.0160  179.1010  146.1690 O   0  0  0  0  0  0  0  0  0  0  0  0
  185.1730  178.2260  144.1510 C   0  0  0  0  0  3  0  0  0  0  0  0
  186.1810  177.7410  144.9540 C   0  0  0  0  0  0  0  0  0  0  0  0
  184.4700  179.0890  144.9710 C   0  0  0  0  0  3  0  0  0  0  0  0
  186.0500  178.2950  146.2050 C   0  0  0  0  0  3  0  0  0  0  0  0
  1 27  1  0  0  0  0
  2 14  1  0  0  0  0
  3  7  2  0  0  0  0
  3 19  1  0  0  0  0
  4 18  2  0  0  0  0
  5 11  1  1  0  0  0
  8 16  1  0  0  0  0
  8 12  1  0  0  0  0
  9 27  1  6  0  0  0
  9 25  1  0  0  0  0
 13  9  1  0  0  0  0
 13 24  1  1  0  0  0
 15 12  1  6  0  0  0
 15  4  1  0  0  0  0
 15  5  1  0  0  0  0
 16  3  1  0  0  0  0
 17 10  2  0  0  0  0
 17 28  1  0  0  0  0
 18  1  1  0  0  0  0
 18 20  1  0  0  0  0
 19  5  1  0  0  0  0
 19  6  1  6  0  0  0
 20 11  1  1  0  0  0
 20 13  1  0  0  0  0
 21 26  1  0  0  0  0
 22 10  1  0  0  0  0
 23 21  2  0  0  0  0
 23  4  1  0  0  0  0
 24 22  1  0  0  0  0
 25 14  1  6  0  0  0
 25 17  1  0  0  0  0
 26  1  2  0  0  0  0
 27  2  1  0  0  0  0
 28 29  1  0  0  0  0
 29 32  1  0  0  0  0
 30 34  1  0  0  0  0
 31 32  1  0  0  0  0
 31 33  2  0  0  0  0
 32 34  2  0  0  0  0
 33 30  1  0  0  0  0
M  END
>  <MODEL>
3

>  <REMARK>
 VINA RESULT:      -8.4      4.744      8.632
  Name = 
  3 active torsions:
  status: ('A' for Active; 'I' for Inactive)
    1  A    between atoms: C_17  and  O_28
    2  A    between atoms: O_28  and  C_29
    3  A    between atoms: C_29  and  C_32
                            x       y       z     vdW  Elec       q    Type
                         _______ _______ _______ _____ _____    ______ ____

>  <TORSDO>
F 3

$$$$
=
 OpenBabel11122412063D

 34 40  0  0  1  0  0  0  0  0999 V2000
  183.2740  179.1810  139.7400 C   0  0  0  0  0  0  0  0  0  0  0  0
  180.8020  179.3550  139.1740 C   0  0  0  0  0  2  0  0  0  0  0  0
  188.2010  176.6970  143.1850 C   0  0  0  0  0  0  0  0  0  0  0  0
  185.5500  178.6090  140.3660 C   0  0  0  0  0  0  0  0  0  0  0  0
  186.1060  178.1960  142.8510 C   0  0  2  0  0  3  0  0  0  0  0  0
  187.1720  177.9100  145.1030 C   0  0  0  0  0  1  0  0  0  0  0  0
  188.3950  175.4950  143.2660 O   0  0  0  0  0  0  0  0  0  0  0  0
  188.8530  179.0040  142.3560 C   0  0  0  0  0  2  0  0  0  0  0  0
  181.4910  179.5730  141.4870 C   0  0  2  0  0  3  0  0  0  0  0  0
  179.7790  177.7120  143.2800 N   0  0  0  0  0  0  0  0  0  0  0  0
  184.6300  177.8370  142.9550 C   0  0  0  0  0  2  0  0  0  0  0  0
  187.8180  179.1630  141.2410 C   0  0  0  0  0  2  0  0  0  0  0  0
  182.3040  178.6280  142.3960 C   0  0  1  0  0  3  0  0  0  0  0  0
  179.5450  179.5110  140.0130 C   0  0  0  0  0  2  0  0  0  0  0  0
  186.6020  178.2370  141.3860 C   0  0  2  0  0  3  0  0  0  0  0  0
  189.2700  177.5500  142.5470 C   0  0  0  0  0  2  0  0  0  0  0  0
  179.5510  178.0000  142.0300 C   0  0  0  0  0  0  0  0  0  0  0  0
  184.2140  178.8720  140.7400 C   0  0  0  0  0  0  0  0  0  0  0  0
  186.9170  177.2540  143.7590 C   0  0  2  0  0  3  0  0  0  0  0  0
  183.8090  178.8730  142.1980 C   0  0  2  0  0  3  0  0  0  0  0  0
  184.9920  178.9040  138.0700 C   0  0  0  0  0  3  0  0  0  0  0  0
  180.4410  178.6430  144.1920 C   0  0  0  0  0  2  0  0  0  0  0  0
  185.8910  178.6200  139.0470 N   0  0  0  0  0  0  0  0  0  0  0  0
  181.9360  178.7870  143.8800 C   0  0  0  0  0  2  0  0  0  0  0  0
  179.9700  179.3440  141.4700 C   0  0  1  0  0  3  0  0  0  0  0  0
  183.6680  179.1880  138.3980 C   0  0  0  0  0  3  0  0  0  0  0  0
  181.9110  179.4370  140.1040 N   0  0  0  0  0  0  0  0  0  0  0  0
  178.9310  177.0640  141.1960 O   0  0  0  0  0  0  0  0  0  0  0  0
  179.4730  175.7710  140.9680 C   0  0  0  0  0  2  0  0  0  0  0  0
  181.0830  175.7820  137.7460 O   0  0  0  0  0  0  0  0  0  0  0  0
  181.7590  175.8150  139.8440 C   0  0  0  0  0  3  0  0  0  0  0  0
  180.3840  175.8140  139.7930 C   0  0  0  0  0  0  0  0  0  0  0  0
  182.1480  175.8020  138.5170 C   0  0  0  0  0  3  0  0  0  0  0  0
  179.9930  175.7810  138.4760 C   0  0  0  0  0  3  0  0  0  0  0  0
  1 27  1  0  0  0  0
  1 18  1  0  0  0  0
  2 14  1  0  0  0  0
  2 27  1  0  0  0  0
  3  7  2  0  0  0  0
  3 19  1  0  0  0  0
  4 18  2  0  0  0  0
  4 15  1  0  0  0  0
  5 11  1  6  0  0  0
  5 19  1  0  0  0  0
  8 16  1  0  0  0  0
  9 27  1  6  0  0  0
  9 13  1  0  0  0  0
 10 22  1  0  0  0  0
 12  8  1  0  0  0  0
 13 24  1  1  0  0  0
 15 12  1  1  0  0  0
 15  5  1  0  0  0  0
 16  3  1  0  0  0  0
 17 10  2  0  0  0  0
 18 20  1  0  0  0  0
 19  6  1  1  0  0  0
 20 13  1  0  0  0  0
 20 11  1  1  0  0  0
 21 26  1  0  0  0  0
 21 23  2  0  0  0  0
 23  4  1  0  0  0  0
 24 22  1  0  0  0  0
 25 14  1  6  0  0  0
 25  9  1  0  0  0  0
 25 17  1  0  0  0  0
 26  1  2  0  0  0  0
 28 17  1  0  0  0  0
 29 28  1  0  0  0  0
 30 34  1  0  0  0  0
 30 33  1  0  0  0  0
 32 31  1  0  0  0  0
 32 29  1  0  0  0  0
 33 31  2  0  0  0  0
 34 32  2  0  0  0  0
M  END
>  <MODEL>
4

>  <REMARK>
 VINA RESULT:      -8.1      3.062      5.106
  Name = 
  3 active torsions:
  status: ('A' for Active; 'I' for Inactive)
    1  A    between atoms: C_17  and  O_28
    2  A    between atoms: O_28  and  C_29
    3  A    between atoms: C_29  and  C_32
                            x       y       z     vdW  Elec       q    Type
                         _______ _______ _______ _____ _____    ______ ____

>  <TORSDO>
F 3

$$$$
=
 OpenBabel11122412063D

 34 40  0  0  1  0  0  0  0  0999 V2000
  187.5780  178.0440  141.1840 C   0  0  0  0  0  0  0  0  0  0  0  0
  185.9750  178.2530  139.2210 C   0  0  0  0  0  2  0  0  0  0  0  0
  188.9110  176.4390  147.3450 C   0  0  0  0  0  0  0  0  0  0  0  0
  188.8790  177.5030  143.1620 C   0  0  0  0  0  0  0  0  0  0  0  0
  187.8610  177.9280  145.4940 C   0  0  2  0  0  3  0  0  0  0  0  0
  187.4080  178.3400  147.9260 C   0  0  0  0  0  1  0  0  0  0  0  0
  188.6780  175.3280  147.7910 O   0  0  0  0  0  0  0  0  0  0  0  0
  190.5340  178.2360  146.5900 C   0  0  0  0  0  2  0  0  0  0  0  0
  185.3350  179.1950  141.3620 C   0  0  2  0  0  3  0  0  0  0  0  0
  182.4800  178.2530  142.1190 N   0  0  0  0  0  0  0  0  0  0  0  0
  186.5330  177.7760  144.7630 C   0  0  0  0  0  2  0  0  0  0  0  0
  190.3610  178.0990  145.0760 C   0  0  0  0  0  2  0  0  0  0  0  0
  185.2190  178.5490  142.7580 C   0  0  1  0  0  3  0  0  0  0  0  0
  184.5710  178.8160  139.0730 C   0  0  0  0  0  2  0  0  0  0  0  0
  189.0560  177.4070  144.6610 C   0  0  2  0  0  3  0  0  0  0  0  0
  190.3460  176.9060  147.3100 C   0  0  0  0  0  2  0  0  0  0  0  0
  183.0560  178.1090  140.9580 C   0  0  0  0  0  0  0  0  0  0  0  0
  187.6940  178.0110  142.5860 C   0  0  0  0  0  0  0  0  0  0  0  0
  187.7440  177.2860  146.8880 C   0  0  2  0  0  3  0  0  0  0  0  0
  186.5870  178.5590  143.4590 C   0  0  2  0  0  3  0  0  0  0  0  0
  189.7600  177.0340  141.0000 C   0  0  0  0  0  3  0  0  0  0  0  0
  182.7790  179.3720  143.0090 C   0  0  0  0  0  2  0  0  0  0  0  0
  189.8640  177.0200  142.3540 N   0  0  0  0  0  0  0  0  0  0  0  0
  184.1710  179.2500  143.6390 C   0  0  0  0  0  2  0  0  0  0  0  0
  184.0740  179.1250  140.4830 C   0  0  1  0  0  3  0  0  0  0  0  0
  188.6160  177.5440  140.3910 C   0  0  0  0  0  3  0  0  0  0  0  0
  186.3750  178.5440  140.5850 N   0  0  0  0  0  0  0  0  0  0  0  0
  182.7470  177.0080  140.1540 O   0  0  0  0  0  0  0  0  0  0  0  0
  181.5860  176.9640  139.3360 C   0  0  0  0  0  2  0  0  0  0  0  0
  178.9330  175.5860  141.3440 O   0  0  0  0  0  0  0  0  0  0  0  0
  180.3270  174.8030  139.8270 C   0  0  0  0  0  3  0  0  0  0  0  0
  180.5360  176.1520  140.0060 C   0  0  0  0  0  0  0  0  0  0  0  0
  179.2960  174.5000  140.6950 C   0  0  0  0  0  3  0  0  0  0  0  0
  179.6610  176.6080  140.9630 C   0  0  0  0  0  3  0  0  0  0  0  0
  1 18  1  0  0  0  0
  2 27  1  0  0  0  0
  3  7  2  0  0  0  0
  4 15  1  0  0  0  0
  5 11  1  6  0  0  0
  5 19  1  0  0  0  0
  8 16  1  0  0  0  0
  9 27  1  6  0  0  0
  9 13  1  0  0  0  0
 10 22  1  0  0  0  0
 12  8  1  0  0  0  0
 13 20  1  0  0  0  0
 13 24  1  1  0  0  0
 14  2  1  0  0  0  0
 15 12  1  1  0  0  0
 15  5  1  0  0  0  0
 16  3  1  0  0  0  0
 17 10  2  0  0  0  0
 18  4  2  0  0  0  0
 18 20  1  0  0  0  0
 19  3  1  0  0  0  0
 19  6  1  1  0  0  0
 20 11  1  1  0  0  0
 21 23  2  0  0  0  0
 22 24  1  0  0  0  0
 23  4  1  0  0  0  0
 25 14  1  6  0  0  0
 25 17  1  0  0  0  0
 25  9  1  0  0  0  0
 26 21  1  0  0  0  0
 26  1  2  0  0  0  0
 27  1  1  0  0  0  0
 28 17  1  0  0  0  0
 29 32  1  0  0  0  0
 29 28  1  0  0  0  0
 31 32  1  0  0  0  0
 31 33  2  0  0  0  0
 32 34  2  0  0  0  0
 33 30  1  0  0  0  0
 34 30  1  0  0  0  0
M  END
>  <MODEL>
5

>  <REMARK>
 VINA RESULT:      -7.9      3.337      5.436
  Name = 
  3 active torsions:
  status: ('A' for Active; 'I' for Inactive)
    1  A    between atoms: C_17  and  O_28
    2  A    between atoms: O_28  and  C_29
    3  A    between atoms: C_29  and  C_32
                            x       y       z     vdW  Elec       q    Type
                         _______ _______ _______ _____ _____    ______ ____

>  <TORSDO>
F 3

$$$$
=
 OpenBabel11122412063D

 34 40  0  0  1  0  0  0  0  0999 V2000
  187.9190  177.9990  141.1450 C   0  0  0  0  0  0  0  0  0  0  0  0
  186.2720  178.2130  139.2200 C   0  0  0  0  0  2  0  0  0  0  0  0
  189.3900  176.3780  147.2710 C   0  0  0  0  0  0  0  0  0  0  0  0
  189.2640  177.4540  143.0930 C   0  0  0  0  0  0  0  0  0  0  0  0
  188.2980  177.8720  145.4470 C   0  0  2  0  0  3  0  0  0  0  0  0
  187.8990  178.2750  147.8900 C   0  0  0  0  0  1  0  0  0  0  0  0
  189.1680  175.2650  147.7190 O   0  0  0  0  0  0  0  0  0  0  0  0
  190.9940  178.1790  146.4850 C   0  0  0  0  0  2  0  0  0  0  0  0
  185.6790  179.1470  141.3760 C   0  0  2  0  0  3  0  0  0  0  0  0
  182.8430  178.2010  142.1940 N   0  0  0  0  0  0  0  0  0  0  0  0
  186.9550  177.7200  144.7470 C   0  0  0  0  0  2  0  0  0  0  0  0
  190.7880  178.0460  144.9740 C   0  0  0  0  0  2  0  0  0  0  0  0
  185.5950  178.4970  142.7730 C   0  0  1  0  0  3  0  0  0  0  0  0
  184.8650  178.7740  139.1040 C   0  0  0  0  0  2  0  0  0  0  0  0
  189.4740  177.3530  144.5870 C   0  0  2  0  0  3  0  0  0  0  0  0
  190.8230  176.8470  147.2050 C   0  0  0  0  0  2  0  0  0  0  0  0
  183.3930  178.0610  141.0210 C   0  0  0  0  0  0  0  0  0  0  0  0
  188.0670  177.9630  142.5440 C   0  0  0  0  0  0  0  0  0  0  0  0
  188.2120  177.2250  146.8420 C   0  0  2  0  0  3  0  0  0  0  0  0
  186.9790  178.5070  143.4430 C   0  0  2  0  0  3  0  0  0  0  0  0
  190.0970  176.9920  140.9100 C   0  0  0  0  0  3  0  0  0  0  0  0
  183.1600  179.3180  143.0810 C   0  0  0  0  0  2  0  0  0  0  0  0
  190.2320  176.9750  142.2620 N   0  0  0  0  0  0  0  0  0  0  0  0
  184.5670  179.1950  143.6790 C   0  0  0  0  0  2  0  0  0  0  0  0
  184.4000  179.0790  140.5260 C   0  0  1  0  0  3  0  0  0  0  0  0
  188.9390  177.5030  140.3280 C   0  0  0  0  0  3  0  0  0  0  0  0
  186.7020  178.5000  140.5750 N   0  0  0  0  0  0  0  0  0  0  0  0
  183.0670  176.9610  140.2200 O   0  0  0  0  0  0  0  0  0  0  0  0
  181.7480  176.7280  139.7480 C   0  0  0  0  0  2  0  0  0  0  0  0
  181.1420  174.0080  137.4660 O   0  0  0  0  0  0  0  0  0  0  0  0
  182.8770  175.2580  137.9990 C   0  0  0  0  0  3  0  0  0  0  0  0
  181.7720  175.6590  138.7150 C   0  0  0  0  0  0  0  0  0  0  0  0
  182.4180  174.2130  137.2190 C   0  0  0  0  0  3  0  0  0  0  0  0
  180.7110  174.8550  138.3700 C   0  0  0  0  0  3  0  0  0  0  0  0
  1 18  1  0  0  0  0
  2 27  1  0  0  0  0
  3  7  2  0  0  0  0
  4 15  1  0  0  0  0
  5 11  1  6  0  0  0
  5 19  1  0  0  0  0
  8 16  1  0  0  0  0
  9 27  1  6  0  0  0
  9 13  1  0  0  0  0
 10 22  1  0  0  0  0
 12  8  1  0  0  0  0
 13 20  1  0  0  0  0
 13 24  1  1  0  0  0
 14  2  1  0  0  0  0
 15 12  1  1  0  0  0
 15  5  1  0  0  0  0
 16  3  1  0  0  0  0
 17 10  2  0  0  0  0
 18  4  2  0  0  0  0
 18 20  1  0  0  0  0
 19  3  1  0  0  0  0
 19  6  1  1  0  0  0
 20 11  1  1  0  0  0
 21 23  2  0  0  0  0
 22 24  1  0  0  0  0
 23  4  1  0  0  0  0
 25 14  1  6  0  0  0
 25 17  1  0  0  0  0
 25  9  1  0  0  0  0
 26 21  1  0  0  0  0
 26  1  2  0  0  0  0
 27  1  1  0  0  0  0
 28 17  1  0  0  0  0
 29 28  1  0  0  0  0
 30 34  1  0  0  0  0
 31 32  1  0  0  0  0
 32 29  1  0  0  0  0
 33 30  1  0  0  0  0
 33 31  2  0  0  0  0
 34 32  2  0  0  0  0
M  END
>  <MODEL>
6

>  <REMARK>
 VINA RESULT:      -7.8      3.428      5.546
  Name = 
  3 active torsions:
  status: ('A' for Active; 'I' for Inactive)
    1  A    between atoms: C_17  and  O_28
    2  A    between atoms: O_28  and  C_29
    3  A    between atoms: C_29  and  C_32
                            x       y       z     vdW  Elec       q    Type
                         _______ _______ _______ _____ _____    ______ ____

>  <TORSDO>
F 3

$$$$
=
 OpenBabel11122412063D

 34 40  0  0  1  0  0  0  0  0999 V2000
  187.8830  177.8780  140.8620 C   0  0  0  0  0  0  0  0  0  0  0  0
  186.5260  177.8770  138.7120 C   0  0  0  0  0  2  0  0  0  0  0  0
  188.5250  176.7220  147.2310 C   0  0  0  0  0  0  0  0  0  0  0  0
  188.9560  177.5320  143.0140 C   0  0  0  0  0  0  0  0  0  0  0  0
  187.6370  178.0350  145.1730 C   0  0  2  0  0  3  0  0  0  0  0  0
  186.8680  178.5630  147.5010 C   0  0  0  0  0  1  0  0  0  0  0  0
  188.2940  175.6270  147.7190 O   0  0  0  0  0  0  0  0  0  0  0  0
  190.1350  178.5620  146.5590 C   0  0  0  0  0  2  0  0  0  0  0  0
  185.5800  178.9050  140.6930 C   0  0  2  0  0  3  0  0  0  0  0  0
  182.7050  177.8470  141.1630 N   0  0  0  0  0  0  0  0  0  0  0  0
  186.4190  177.7630  144.3000 C   0  0  0  0  0  2  0  0  0  0  0  0
  190.1580  178.3250  145.0480 C   0  0  0  0  0  2  0  0  0  0  0  0
  185.3250  178.3380  142.1050 C   0  0  1  0  0  3  0  0  0  0  0  0
  185.1240  178.3480  138.3590 C   0  0  0  0  0  2  0  0  0  0  0  0
  188.9500  177.5350  144.5260 C   0  0  2  0  0  3  0  0  0  0  0  0
  189.9270  177.2680  147.3380 C   0  0  0  0  0  2  0  0  0  0  0  0
  183.4260  177.6680  140.0920 C   0  0  0  0  0  0  0  0  0  0  0  0
  187.8270  177.9350  142.2670 C   0  0  0  0  0  0  0  0  0  0  0  0
  187.3810  177.4710  146.5830 C   0  0  2  0  0  3  0  0  0  0  0  0
  186.5950  178.4690  142.9630 C   0  0  2  0  0  3  0  0  0  0  0  0
  190.1190  176.9870  141.0090 C   0  0  0  0  0  3  0  0  0  0  0  0
  182.8340  179.0320  142.0070 C   0  0  0  0  0  2  0  0  0  0  0  0
  190.0560  177.0600  142.3640 N   0  0  0  0  0  0  0  0  0  0  0  0
  184.1430  179.0290  142.8050 C   0  0  0  0  0  2  0  0  0  0  0  0
  184.4430  178.7110  139.6770 C   0  0  1  0  0  3  0  0  0  0  0  0
  189.0340  177.3930  140.2340 C   0  0  0  0  0  3  0  0  0  0  0  0
  186.7390  178.2720  140.0910 N   0  0  0  0  0  0  0  0  0  0  0  0
  183.2740  176.5040  139.3310 O   0  0  0  0  0  0  0  0  0  0  0  0
  182.2940  176.3860  138.3090 C   0  0  0  0  0  2  0  0  0  0  0  0
  180.0530  173.5820  138.6050 O   0  0  0  0  0  0  0  0  0  0  0  0
  180.4630  175.4000  139.7820 C   0  0  0  0  0  3  0  0  0  0  0  0
  181.3010  175.3470  138.6910 C   0  0  0  0  0  0  0  0  0  0  0  0
  179.6980  174.2530  139.6800 C   0  0  0  0  0  3  0  0  0  0  0  0
  181.0150  174.2100  137.9730 C   0  0  0  0  0  3  0  0  0  0  0  0
  1 18  1  0  0  0  0
  2 27  1  0  0  0  0
  3 16  1  0  0  0  0
  3  7  2  0  0  0  0
  4 15  1  0  0  0  0
  5 11  1  6  0  0  0
  5 19  1  0  0  0  0
  8 16  1  0  0  0  0
  9 27  1  6  0  0  0
  9 13  1  0  0  0  0
 10 22  1  0  0  0  0
 12  8  1  0  0  0  0
 13 24  1  1  0  0  0
 13 20  1  0  0  0  0
 14  2  1  0  0  0  0
 15 12  1  6  0  0  0
 15  5  1  0  0  0  0
 17 10  2  0  0  0  0
 18 20  1  0  0  0  0
 18  4  2  0  0  0  0
 19  3  1  0  0  0  0
 19  6  1  1  0  0  0
 20 11  1  1  0  0  0
 21 23  2  0  0  0  0
 22 24  1  0  0  0  0
 23  4  1  0  0  0  0
 25 14  1  6  0  0  0
 25 17  1  0  0  0  0
 25  9  1  0  0  0  0
 26  1  2  0  0  0  0
 26 21  1  0  0  0  0
 27  1  1  0  0  0  0
 28 17  1  0  0  0  0
 29 32  1  0  0  0  0
 29 28  1  0  0  0  0
 30 33  1  0  0  0  0
 32 31  1  0  0  0  0
 33 31  2  0  0  0  0
 34 30  1  0  0  0  0
 34 32  2  0  0  0  0
M  END
>  <MODEL>
7

>  <REMARK>
 VINA RESULT:      -7.7      3.486      5.590
  Name = 
  3 active torsions:
  status: ('A' for Active; 'I' for Inactive)
    1  A    between atoms: C_17  and  O_28
    2  A    between atoms: O_28  and  C_29
    3  A    between atoms: C_29  and  C_32
                            x       y       z     vdW  Elec       q    Type
                         _______ _______ _______ _____ _____    ______ ____

>  <TORSDO>
F 3

$$$$
=
 OpenBabel11122412063D

 34 40  0  0  1  0  0  0  0  0999 V2000
  183.3090  178.6220  143.1170 C   0  0  0  0  0  0  0  0  0  0  0  0
  181.1380  179.2920  141.9780 C   0  0  0  0  0  2  0  0  0  0  0  0
  189.8030  178.5790  143.4990 C   0  0  0  0  0  0  0  0  0  0  0  0
  185.5300  178.3530  144.0640 C   0  0  0  0  0  0  0  0  0  0  0  0
  187.5170  177.8630  142.4940 C   0  0  2  0  0  3  0  0  0  0  0  0
  189.6880  177.1870  141.4350 C   0  0  0  0  0  1  0  0  0  0  0  0
  190.4600  179.6070  143.4960 O   0  0  0  0  0  0  0  0  0  0  0  0
  188.8930  176.5250  144.6750 C   0  0  0  0  0  2  0  0  0  0  0  0
  182.8750  178.2350  140.6580 C   0  0  2  0  0  3  0  0  0  0  0  0
  183.4010  179.8870  138.0880 N   0  0  0  0  0  0  0  0  0  0  0  0
  186.6550  178.5600  141.4500 C   0  0  0  0  0  2  0  0  0  0  0  0
  187.4460  176.9810  144.8760 C   0  0  0  0  0  2  0  0  0  0  0  0
  184.3520  178.6220  140.4320 C   0  0  1  0  0  3  0  0  0  0  0  0
  180.6540  179.2440  140.5380 C   0  0  0  0  0  2  0  0  0  0  0  0
  187.0180  178.1170  143.9360 C   0  0  2  0  0  3  0  0  0  0  0  0
  189.8710  177.6930  144.7180 C   0  0  0  0  0  2  0  0  0  0  0  0
  182.4070  180.0460  138.9150 C   0  0  0  0  0  0  0  0  0  0  0  0
  184.6800  178.3620  142.9360 C   0  0  0  0  0  0  0  0  0  0  0  0
  188.9910  178.2470  142.2660 C   0  0  2  0  0  3  0  0  0  0  0  0
  185.2250  178.0490  141.5600 C   0  0  2  0  0  3  0  0  0  0  0  0
  183.6960  178.8980  145.4820 C   0  0  0  0  0  3  0  0  0  0  0  0
  184.0360  178.5890  137.8640 C   0  0  0  0  0  2  0  0  0  0  0  0
  185.0150  178.6330  145.2940 N   0  0  0  0  0  0  0  0  0  0  0  0
  184.8750  178.1450  139.0670 C   0  0  0  0  0  2  0  0  0  0  0  0
  181.8610  178.8610  139.6850 C   0  0  1  0  0  3  0  0  0  0  0  0
  182.8200  178.8980  144.3980 C   0  0  0  0  0  3  0  0  0  0  0  0
  182.4370  178.6480  141.9800 N   0  0  0  0  0  0  0  0  0  0  0  0
  181.8490  181.3140  139.1060 O   0  0  0  0  0  0  0  0  0  0  0  0
  181.4220  182.1290  138.0240 C   0  0  0  0  0  2  0  0  0  0  0  0
  179.4820  180.6460  135.3750 O   0  0  0  0  0  0  0  0  0  0  0  0
  179.5470  180.4630  137.5710 C   0  0  0  0  0  3  0  0  0  0  0  0
  180.5100  181.3490  137.1450 C   0  0  0  0  0  0  0  0  0  0  0  0
  178.9310  180.0440  136.4070 C   0  0  0  0  0  3  0  0  0  0  0  0
  180.4380  181.4500  135.7760 C   0  0  0  0  0  3  0  0  0  0  0  0
  1 26  1  0  0  0  0
  2 27  1  0  0  0  0
  3 16  1  0  0  0  0
  4 23  2  0  0  0  0
  5 11  1  6  0  0  0
  5 15  1  0  0  0  0
  7  3  2  0  0  0  0
  8 16  1  0  0  0  0
  8 12  1  0  0  0  0
  9 27  1  1  0  0  0
 10 17  2  0  0  0  0
 13 24  1  6  0  0  0
 13  9  1  0  0  0  0
 13 20  1  0  0  0  0
 14  2  1  0  0  0  0
 15  4  1  0  0  0  0
 15 12  1  1  0  0  0
 17 28  1  0  0  0  0
 17 25  1  0  0  0  0
 18  1  2  0  0  0  0
 18  4  1  0  0  0  0
 19  6  1  1  0  0  0
 19  5  1  0  0  0  0
 19  3  1  0  0  0  0
 20 11  1  1  0  0  0
 20 18  1  0  0  0  0
 22 10  1  0  0  0  0
 22 24  1  0  0  0  0
 23 21  1  0  0  0  0
 25 14  1  1  0  0  0
 25  9  1  0  0  0  0
 26 21  2  0  0  0  0
 27  1  1  0  0  0  0
 29 28  1  0  0  0  0
 30 34  1  0  0  0  0
 30 33  1  0  0  0  0
 32 31  1  0  0  0  0
 32 29  1  0  0  0  0
 33 31  2  0  0  0  0
 34 32  2  0  0  0  0
M  END
>  <MODEL>
8

>  <REMARK>
 VINA RESULT:      -7.3      1.163      1.549
  Name = 
  3 active torsions:
  status: ('A' for Active; 'I' for Inactive)
    1  A    between atoms: C_17  and  O_28
    2  A    between atoms: O_28  and  C_29
    3  A    between atoms: C_29  and  C_32
                            x       y       z     vdW  Elec       q    Type
                         _______ _______ _______ _____ _____    ______ ____

>  <TORSDO>
F 3

$$$$
=
 OpenBabel11122412063D

 34 40  0  0  1  0  0  0  0  0999 V2000
  186.7290  178.2070  142.1610 C   0  0  0  0  0  0  0  0  0  0  0  0
  189.0790  177.7590  141.3010 C   0  0  0  0  0  2  0  0  0  0  0  0
  180.2630  177.6470  141.7200 C   0  0  0  0  0  0  0  0  0  0  0  0
  184.3920  178.2550  142.8220 C   0  0  0  0  0  0  0  0  0  0  0  0
  182.5800  178.5870  141.0160 C   0  0  2  0  0  3  0  0  0  0  0  0
  180.5050  179.0790  139.6950 C   0  0  0  0  0  1  0  0  0  0  0  0
  179.7100  176.5630  141.6300 O   0  0  0  0  0  0  0  0  0  0  0  0
  180.8230  179.7560  143.0130 C   0  0  0  0  0  2  0  0  0  0  0  0
  187.4290  178.6740  139.7780 C   0  0  2  0  0  3  0  0  0  0  0  0
  187.3850  177.0240  137.1540 N   0  0  0  0  0  0  0  0  0  0  0  0
  183.6270  177.9900  140.0860 C   0  0  0  0  0  2  0  0  0  0  0  0
  182.2700  179.4320  143.3920 C   0  0  0  0  0  2  0  0  0  0  0  0
  186.0350  178.1570  139.3660 C   0  0  1  0  0  3  0  0  0  0  0  0
  189.7320  177.8750  139.9340 C   0  0  0  0  0  2  0  0  0  0  0  0
  182.9160  178.3560  142.5080 C   0  0  2  0  0  3  0  0  0  0  0  0
  179.9600  178.5030  142.9260 C   0  0  0  0  0  2  0  0  0  0  0  0
  188.2790  176.9440  138.0990 C   0  0  0  0  0  0  0  0  0  0  0  0
  185.3730  178.3430  141.8100 C   0  0  0  0  0  0  0  0  0  0  0  0
  181.1890  178.0730  140.6020 C   0  0  2  0  0  3  0  0  0  0  0  0
  184.9780  178.6280  140.3780 C   0  0  2  0  0  3  0  0  0  0  0  0
  186.0770  177.8580  144.4560 C   0  0  0  0  0  3  0  0  0  0  0  0
  186.6660  178.2610  136.8580 C   0  0  0  0  0  2  0  0  0  0  0  0
  184.7730  178.0030  144.1050 N   0  0  0  0  0  0  0  0  0  0  0  0
  185.6440  178.6060  137.9480 C   0  0  0  0  0  2  0  0  0  0  0  0
  188.6110  178.1600  138.9380 C   0  0  1  0  0  3  0  0  0  0  0  0
  187.0770  177.9560  143.4920 C   0  0  0  0  0  3  0  0  0  0  0  0
  187.7350  178.2810  141.1420 N   0  0  0  0  0  0  0  0  0  0  0  0
  188.9240  175.7290  138.3530 O   0  0  0  0  0  0  0  0  0  0  0  0
  189.5490  174.9700  137.3270 C   0  0  0  0  0  2  0  0  0  0  0  0
  193.1330  174.7690  137.6210 O   0  0  0  0  0  0  0  0  0  0  0  0
  191.6660  176.3890  137.3340 C   0  0  0  0  0  3  0  0  0  0  0  0
  191.0210  175.1740  137.3850 C   0  0  0  0  0  0  0  0  0  0  0  0
  193.0030  176.0710  137.4820 C   0  0  0  0  0  3  0  0  0  0  0  0
  191.9590  174.1870  137.5760 C   0  0  0  0  0  3  0  0  0  0  0  0
  1 26  1  0  0  0  0
  3 16  1  0  0  0  0
  4 23  2  0  0  0  0
  5 11  1  6  0  0  0
  5 15  1  0  0  0  0
  7  3  2  0  0  0  0
  8 12  1  0  0  0  0
  9 27  1  1  0  0  0
 10 17  2  0  0  0  0
 13 24  1  6  0  0  0
 13  9  1  0  0  0  0
 13 20  1  0  0  0  0
 14  2  1  0  0  0  0
 15  4  1  0  0  0  0
 15 12  1  1  0  0  0
 16  8  1  0  0  0  0
 17 28  1  0  0  0  0
 17 25  1  0  0  0  0
 18  1  2  0  0  0  0
 18  4  1  0  0  0  0
 19  6  1  1  0  0  0
 19  5  1  0  0  0  0
 19  3  1  0  0  0  0
 20 11  1  6  0  0  0
 20 18  1  0  0  0  0
 22 10  1  0  0  0  0
 22 24  1  0  0  0  0
 23 21  1  0  0  0  0
 25  9  1  0  0  0  0
 25 14  1  1  0  0  0
 26 21  2  0  0  0  0
 27  2  1  0  0  0  0
 27  1  1  0  0  0  0
 29 32  1  0  0  0  0
 29 28  1  0  0  0  0
 31 32  1  0  0  0  0
 31 33  2  0  0  0  0
 32 34  2  0  0  0  0
 33 30  1  0  0  0  0
 34 30  1  0  0  0  0
M  END
>  <MODEL>
9

>  <REMARK>
 VINA RESULT:      -7.3      3.337      8.075
  Name = 
  3 active torsions:
  status: ('A' for Active; 'I' for Inactive)
    1  A    between atoms: C_17  and  O_28
    2  A    between atoms: O_28  and  C_29
    3  A    between atoms: C_29  and  C_32
                            x       y       z     vdW  Elec       q    Type
                         _______ _______ _______ _____ _____    ______ ____

>  <TORSDO>
F 3

$$$$
