=
 OpenBabel11122410453D

 32 37  0  0  1  0  0  0  0  0999 V2000
  188.4800  177.3900  136.7820 C   0  0  0  0  0  2  0  0  0  0  0  0
  187.9630  177.8840  142.3360 C   0  0  0  0  0  0  0  0  0  0  0  0
  183.4730  179.3870  143.7180 C   0  0  0  0  0  2  0  0  0  0  0  0
  183.6470  178.5990  145.0010 C   0  0  0  0  0  2  0  0  0  0  0  0
  189.7520  177.2530  144.0130 C   0  0  0  0  0  0  0  0  0  0  0  0
  190.0300  177.0790  145.3070 C   0  0  0  0  0  0  0  0  0  0  0  0
  188.5180  177.9200  139.9430 C   0  0  0  0  0  0  0  0  0  0  0  0
  186.2640  178.4230  140.6690 C   0  0  0  0  0  3  0  0  0  0  0  0
  189.5860  176.9980  147.6180 C   0  0  1  0  0  3  0  0  0  0  0  0
  186.6850  178.4180  138.2350 C   0  0  0  0  0  2  0  0  0  0  0  0
  184.2440  178.7040  142.6000 C   0  0  0  0  0  2  0  0  0  0  0  0
  186.6210  178.2530  142.0190 C   0  0  0  0  0  0  0  0  0  0  0  0
  185.6820  178.4330  142.9800 C   0  0  0  0  0  0  0  0  0  0  0  0
  187.3580  177.8580  144.7130 C   0  0  0  0  0  0  0  0  0  0  0  0
  191.0390  176.5540  147.3810 C   0  0  0  0  0  3  0  0  0  0  0  0
  189.4300  178.2290  137.6340 C   0  0  0  0  0  2  0  0  0  0  0  0
  187.1840  178.2590  139.6360 C   0  0  0  0  0  0  0  0  0  0  0  0
  191.3230  176.6430  145.8740 C   0  0  0  0  0  3  0  0  0  0  0  0
  189.5150  177.7420  138.9710 O   0  0  0  0  0  0  0  0  0  0  0  0
  187.0930  177.2090  137.3980 C   0  0  1  0  0  3  0  0  0  0  0  0
  185.1020  178.6890  145.4350 C   0  0  0  0  0  2  0  0  0  0  0  0
  186.0200  178.2530  144.3730 N   0  0  0  0  0  0  0  0  0  0  0  0
  187.7130  177.6620  145.9920 C   0  0  0  0  0  3  0  0  0  0  0  0
  188.8750  177.7280  141.2780 C   0  0  0  0  0  3  0  0  0  0  0  0
  190.7550  177.0310  143.0700 O   0  0  0  0  0  1  0  0  0  0  0  0
  189.5790  178.2550  148.4680 C   0  0  0  0  0  1  0  0  0  0  0  0
  188.3600  177.6730  143.6200 C   0  0  0  0  0  0  0  0  0  0  0  0
  189.0560  177.2870  146.3020 N   0  0  0  0  0  0  0  0  0  0  0  0
  186.0830  176.9590  136.2890 C   0  0  0  0  0  2  0  0  0  0  0  0
  184.6870  176.7450  136.8570 C   0  0  0  0  0  3  0  0  0  0  0  0
  183.6330  177.1280  135.8350 C   0  0  0  0  0  1  0  0  0  0  0  0
  184.5150  175.2850  137.2190 C   0  0  0  0  0  1  0  0  0  0  0  0
  1 20  1  0  0  0  0
  1 16  1  0  0  0  0
  2 27  2  0  0  0  0
  3  4  1  0  0  0  0
  4 21  1  0  0  0  0
  5  6  2  0  0  0  0
  6 18  1  0  0  0  0
  6 28  1  0  0  0  0
  7 24  2  0  0  0  0
  8 12  1  0  0  0  0
  9 26  1  1  0  0  0
 10 17  1  0  0  0  0
 11 13  1  0  0  0  0
 11  3  1  0  0  0  0
 12  2  1  0  0  0  0
 12 13  2  0  0  0  0
 13 22  1  0  0  0  0
 14 23  2  0  0  0  0
 15  9  1  0  0  0  0
 16 19  1  0  0  0  0
 17  7  1  0  0  0  0
 17  8  2  0  0  0  0
 18 15  2  0  0  0  0
 19  7  1  0  0  0  0
 20 29  1  6  0  0  0
 20 10  1  0  0  0  0
 22 14  1  0  0  0  0
 22 21  1  0  0  0  0
 23 28  1  0  0  0  0
 24  2  1  0  0  0  0
 25  5  1  0  0  0  0
 27  5  1  0  0  0  0
 27 14  1  0  0  0  0
 28  9  1  0  0  0  0
 29 30  1  0  0  0  0
 30 32  1  0  0  0  0
 31 30  1  0  0  0  0
M  END
>  <MODEL>
1

>  <REMARK>
 VINA RESULT:     -10.7      0.000      0.000
  Name = 
  2 active torsions:
  status: ('A' for Active; 'I' for Inactive)
    1  A    between atoms: C_20  and  C_29
    2  A    between atoms: C_29  and  C_30
                            x       y       z     vdW  Elec       q    Type
                         _______ _______ _______ _____ _____    ______ ____

>  <TORSDO>
F 2

$$$$
=
 OpenBabel11122410453D

 32 37  0  0  1  0  0  0  0  0999 V2000
  179.3930  179.6920  142.9250 C   0  0  0  0  0  2  0  0  0  0  0  0
  184.7740  178.3990  143.7810 C   0  0  0  0  0  0  0  0  0  0  0  0
  187.3250  177.9310  139.5850 C   0  0  0  0  0  2  0  0  0  0  0  0
  188.5560  178.4110  140.3260 C   0  0  0  0  0  2  0  0  0  0  0  0
  185.8730  178.2300  146.0560 C   0  0  0  0  0  0  0  0  0  0  0  0
  187.0310  178.0970  146.7070 C   0  0  0  0  0  0  0  0  0  0  0  0
  182.3320  178.6310  143.6400 C   0  0  0  0  0  0  0  0  0  0  0  0
  183.6660  178.6290  141.6190 C   0  0  0  0  0  3  0  0  0  0  0  0
  189.3640  177.8910  146.9410 C   0  0  1  0  0  3  0  0  0  0  0  0
  181.2290  178.9440  141.3570 C   0  0  0  0  0  2  0  0  0  0  0  0
  186.0890  178.5680  140.2000 C   0  0  0  0  0  2  0  0  0  0  0  0
  184.8510  178.4620  142.3570 C   0  0  0  0  0  0  0  0  0  0  0  0
  186.0330  178.3750  141.6990 C   0  0  0  0  0  0  0  0  0  0  0  0
  187.2150  178.1730  143.8680 C   0  0  0  0  0  0  0  0  0  0  0  0
  188.7350  177.9660  148.3420 C   0  0  0  0  0  3  0  0  0  0  0  0
  179.8380  178.4950  143.7650 C   0  0  0  0  0  2  0  0  0  0  0  0
  182.4190  178.7190  142.2350 C   0  0  0  0  0  0  0  0  0  0  0  0
  187.2110  178.0660  148.1740 C   0  0  0  0  0  3  0  0  0  0  0  0
  181.1220  178.7020  144.3470 O   0  0  0  0  0  0  0  0  0  0  0  0
  180.4170  180.1260  141.8770 C   0  0  1  0  0  3  0  0  0  0  0  0
  188.5160  177.8620  141.7440 C   0  0  0  0  0  2  0  0  0  0  0  0
  187.2670  178.2140  142.4340 N   0  0  0  0  0  0  0  0  0  0  0  0
  188.3370  178.0430  144.5930 C   0  0  0  0  0  3  0  0  0  0  0  0
  183.5060  178.4870  144.3800 C   0  0  0  0  0  3  0  0  0  0  0  0
  184.6930  178.3360  146.7890 O   0  0  0  0  0  1  0  0  0  0  0  0
  190.0630  176.5540  146.7770 C   0  0  0  0  0  1  0  0  0  0  0  0
  185.8890  178.2700  144.5490 C   0  0  0  0  0  0  0  0  0  0  0  0
  188.2540  177.9870  146.0180 N   0  0  0  0  0  0  0  0  0  0  0  0
  179.6960  180.8240  140.7350 C   0  0  0  0  0  2  0  0  0  0  0  0
  180.2520  180.3890  139.3870 C   0  0  0  0  0  3  0  0  0  0  0  0
  179.1440  179.8460  138.5050 C   0  0  0  0  0  1  0  0  0  0  0  0
  180.8870  181.5810  138.7020 C   0  0  0  0  0  1  0  0  0  0  0  0
  1 16  1  0  0  0  0
  2 24  1  0  0  0  0
  2 27  2  0  0  0  0
  3 11  1  0  0  0  0
  3  4  1  0  0  0  0
  4 21  1  0  0  0  0
  5  6  2  0  0  0  0
  5 25  1  0  0  0  0
  6 18  1  0  0  0  0
  7 19  1  0  0  0  0
  7 24  2  0  0  0  0
  8 17  2  0  0  0  0
  8 12  1  0  0  0  0
  9 26  1  1  0  0  0
  9 15  1  0  0  0  0
 10 20  1  0  0  0  0
 10 17  1  0  0  0  0
 11 13  1  0  0  0  0
 12  2  1  0  0  0  0
 13 12  2  0  0  0  0
 13 22  1  0  0  0  0
 14 27  1  0  0  0  0
 14 23  2  0  0  0  0
 16 19  1  0  0  0  0
 17  7  1  0  0  0  0
 18 15  2  0  0  0  0
 20 29  1  6  0  0  0
 20  1  1  0  0  0  0
 21 22  1  0  0  0  0
 22 14  1  0  0  0  0
 23 28  1  0  0  0  0
 27  5  1  0  0  0  0
 28  6  1  0  0  0  0
 28  9  1  0  0  0  0
 30 29  1  0  0  0  0
 31 30  1  0  0  0  0
 32 30  1  0  0  0  0
M  END
>  <MODEL>
2

>  <REMARK>
 VINA RESULT:     -10.0      3.354      5.798
  Name = 
  2 active torsions:
  status: ('A' for Active; 'I' for Inactive)
    1  A    between atoms: C_20  and  C_29
    2  A    between atoms: C_29  and  C_30
                            x       y       z     vdW  Elec       q    Type
                         _______ _______ _______ _____ _____    ______ ____

>  <TORSDO>
F 2

$$$$
=
 OpenBabel11122410453D

 32 37  0  0  1  0  0  0  0  0999 V2000
  188.2320  177.3470  148.3420 C   0  0  0  0  0  2  0  0  0  0  0  0
  185.5190  178.4780  143.5760 C   0  0  0  0  0  0  0  0  0  0  0  0
  188.4600  178.3540  139.6180 C   0  0  0  0  0  2  0  0  0  0  0  0
  187.2690  177.9040  138.7960 C   0  0  0  0  0  2  0  0  0  0  0  0
  183.0210  178.8510  143.3920 C   0  0  0  0  0  0  0  0  0  0  0  0
  181.9930  179.0030  142.5520 C   0  0  0  0  0  0  0  0  0  0  0  0
  186.5530  178.3440  145.8000 C   0  0  0  0  0  0  0  0  0  0  0  0
  187.9100  178.0580  143.8160 C   0  0  0  0  0  3  0  0  0  0  0  0
  180.9120  179.1260  140.4650 C   0  0  1  0  0  3  0  0  0  0  0  0
  189.0470  177.8280  145.9980 C   0  0  0  0  0  2  0  0  0  0  0  0
  188.3050  177.8480  141.0440 C   0  0  0  0  0  2  0  0  0  0  0  0
  186.7960  178.2520  142.9810 C   0  0  0  0  0  0  0  0  0  0  0  0
  186.9620  178.2100  141.6360 C   0  0  0  0  0  0  0  0  0  0  0  0
  184.5330  178.6000  141.3330 C   0  0  0  0  0  0  0  0  0  0  0  0
  179.8530  179.2370  141.5740 C   0  0  0  0  0  3  0  0  0  0  0  0
  187.3940  178.6090  148.1410 C   0  0  0  0  0  2  0  0  0  0  0  0
  187.8070  178.0960  145.2050 C   0  0  0  0  0  0  0  0  0  0  0  0
  180.5770  179.1890  142.9280 C   0  0  0  0  0  3  0  0  0  0  0  0
  186.3530  178.4090  147.1880 O   0  0  0  0  0  0  0  0  0  0  0  0
  188.7730  176.7510  147.0420 C   0  0  1  0  0  3  0  0  0  0  0  0
  186.0250  178.6100  139.3140 C   0  0  0  0  0  2  0  0  0  0  0  0
  185.8310  178.3950  140.7550 N   0  0  0  0  0  0  0  0  0  0  0  0
  183.4510  178.7580  140.5540 C   0  0  0  0  0  3  0  0  0  0  0  0
  185.4390  178.5160  144.9790 C   0  0  0  0  0  3  0  0  0  0  0  0
  182.7830  178.8820  144.7640 O   0  0  0  0  0  1  0  0  0  0  0  0
  180.9140  180.4030  139.6440 C   0  0  0  0  0  1  0  0  0  0  0  0
  184.3990  178.6410  142.8200 C   0  0  0  0  0  0  0  0  0  0  0  0
  182.1750  178.9780  141.1560 N   0  0  0  0  0  0  0  0  0  0  0  0
  190.0380  175.9630  147.3440 C   0  0  0  0  0  2  0  0  0  0  0  0
  191.2810  176.7490  146.9530 C   0  0  0  0  0  3  0  0  0  0  0  0
  192.4290  176.4290  147.8920 C   0  0  0  0  0  1  0  0  0  0  0  0
  191.6810  176.3790  145.5410 C   0  0  0  0  0  1  0  0  0  0  0  0
  2 24  1  0  0  0  0
  3 11  1  0  0  0  0
  4 21  1  0  0  0  0
  4  3  1  0  0  0  0
  5 25  1  0  0  0  0
  6 18  1  0  0  0  0
  6  5  2  0  0  0  0
  7 19  1  0  0  0  0
  8 17  2  0  0  0  0
  9 26  1  1  0  0  0
  9 28  1  0  0  0  0
  9 15  1  0  0  0  0
 10 20  1  0  0  0  0
 11 13  1  0  0  0  0
 12  2  1  0  0  0  0
 12  8  1  0  0  0  0
 13 12  2  0  0  0  0
 14 27  1  0  0  0  0
 15 18  2  0  0  0  0
 16  1  1  0  0  0  0
 17  7  1  0  0  0  0
 17 10  1  0  0  0  0
 19 16  1  0  0  0  0
 20 29  1  1  0  0  0
 20  1  1  0  0  0  0
 21 22  1  0  0  0  0
 22 14  1  0  0  0  0
 22 13  1  0  0  0  0
 23 28  1  0  0  0  0
 23 14  2  0  0  0  0
 24  7  2  0  0  0  0
 27  5  1  0  0  0  0
 27  2  2  0  0  0  0
 28  6  1  0  0  0  0
 30 29  1  0  0  0  0
 30 31  1  0  0  0  0
 32 30  1  0  0  0  0
M  END
>  <MODEL>
3

>  <REMARK>
 VINA RESULT:      -9.8      2.872      8.564
  Name = 
  2 active torsions:
  status: ('A' for Active; 'I' for Inactive)
    1  A    between atoms: C_20  and  C_29
    2  A    between atoms: C_29  and  C_30
                            x       y       z     vdW  Elec       q    Type
                         _______ _______ _______ _____ _____    ______ ____

>  <TORSDO>
F 2

$$$$
=
 OpenBabel11122410453D

 32 37  0  0  1  0  0  0  0  0999 V2000
  192.8310  176.3490  138.2940 C   0  0  0  0  0  2  0  0  0  0  0  0
  188.9720  177.7380  142.1060 C   0  0  0  0  0  0  0  0  0  0  0  0
  184.7080  179.1740  140.0840 C   0  0  0  0  0  2  0  0  0  0  0  0
  183.9910  178.6250  141.3010 C   0  0  0  0  0  2  0  0  0  0  0  0
  189.2700  177.5090  144.6100 C   0  0  0  0  0  0  0  0  0  0  0  0
  188.6620  177.5730  145.7980 C   0  0  0  0  0  0  0  0  0  0  0  0
  190.9080  177.4050  140.6310 C   0  0  0  0  0  0  0  0  0  0  0  0
  188.7320  177.8840  139.6820 C   0  0  0  0  0  3  0  0  0  0  0  0
  186.8620  177.8560  147.2880 C   0  0  1  0  0  3  0  0  0  0  0  0
  190.5870  177.4940  138.0980 C   0  0  0  0  0  2  0  0  0  0  0  0
  185.9680  178.3610  139.8340 C   0  0  0  0  0  2  0  0  0  0  0  0
  188.1510  177.9650  140.9610 C   0  0  0  0  0  0  0  0  0  0  0  0
  186.8300  178.2470  141.0710 C   0  0  0  0  0  0  0  0  0  0  0  0
  187.0090  178.0760  143.5370 C   0  0  0  0  0  0  0  0  0  0  0  0
  188.1120  177.4680  148.0950 C   0  0  0  0  0  3  0  0  0  0  0  0
  193.0830  177.3760  139.3970 C   0  0  0  0  0  2  0  0  0  0  0  0
  190.0850  177.6050  139.5020 C   0  0  0  0  0  0  0  0  0  0  0  0
  189.2850  177.3200  147.1140 C   0  0  0  0  0  3  0  0  0  0  0  0
  192.2810  177.1280  140.5480 O   0  0  0  0  0  0  0  0  0  0  0  0
  191.3570  176.1900  137.9230 C   0  0  1  0  0  3  0  0  0  0  0  0
  184.8530  178.8760  142.5290 C   0  0  0  0  0  2  0  0  0  0  0  0
  186.2070  178.3250  142.3730 N   0  0  0  0  0  0  0  0  0  0  0  0
  186.4690  178.1200  144.7650 C   0  0  0  0  0  3  0  0  0  0  0  0
  190.3350  177.4620  141.9010 C   0  0  0  0  0  3  0  0  0  0  0  0
  190.6270  177.1940  144.5610 O   0  0  0  0  0  1  0  0  0  0  0  0
  186.3970  179.2350  147.7180 C   0  0  0  0  0  1  0  0  0  0  0  0
  188.4610  177.7710  143.3670 C   0  0  0  0  0  0  0  0  0  0  0  0
  187.2940  177.8850  145.9070 N   0  0  0  0  0  0  0  0  0  0  0  0
  191.2550  175.6950  136.4880 C   0  0  0  0  0  2  0  0  0  0  0  0
  189.8600  175.1650  136.1890 C   0  0  0  0  0  3  0  0  0  0  0  0
  189.6570  175.0190  134.6930 C   0  0  0  0  0  1  0  0  0  0  0  0
  189.6920  173.8110  136.8440 C   0  0  0  0  0  1  0  0  0  0  0  0
  1 16  1  0  0  0  0
  2 27  2  0  0  0  0
  3  4  1  0  0  0  0
  4 21  1  0  0  0  0
  5  6  2  0  0  0  0
  6 28  1  0  0  0  0
  6 18  1  0  0  0  0
  7 24  2  0  0  0  0
  8 12  1  0  0  0  0
  9 26  1  1  0  0  0
  9 15  1  0  0  0  0
 10 17  1  0  0  0  0
 11  3  1  0  0  0  0
 11 13  1  0  0  0  0
 12 13  2  0  0  0  0
 12  2  1  0  0  0  0
 13 22  1  0  0  0  0
 14 23  2  0  0  0  0
 16 19  1  0  0  0  0
 17  8  2  0  0  0  0
 17  7  1  0  0  0  0
 18 15  2  0  0  0  0
 19  7  1  0  0  0  0
 20 29  1  6  0  0  0
 20 10  1  0  0  0  0
 20  1  1  0  0  0  0
 22 21  1  0  0  0  0
 22 14  1  0  0  0  0
 23 28  1  0  0  0  0
 24  2  1  0  0  0  0
 25  5  1  0  0  0  0
 27 14  1  0  0  0  0
 27  5  1  0  0  0  0
 28  9  1  0  0  0  0
 30 29  1  0  0  0  0
 30 32  1  0  0  0  0
 31 30  1  0  0  0  0
M  END
>  <MODEL>
4

>  <REMARK>
 VINA RESULT:      -9.3      2.138      3.314
  Name = 
  2 active torsions:
  status: ('A' for Active; 'I' for Inactive)
    1  A    between atoms: C_20  and  C_29
    2  A    between atoms: C_29  and  C_30
                            x       y       z     vdW  Elec       q    Type
                         _______ _______ _______ _____ _____    ______ ____

>  <TORSDO>
F 2

$$$$
=
 OpenBabel11122410453D

 32 37  0  0  1  0  0  0  0  0999 V2000
  190.5270  176.2360  136.8010 C   0  0  0  0  0  2  0  0  0  0  0  0
  189.1360  177.3520  142.1090 C   0  0  0  0  0  0  0  0  0  0  0  0
  184.5810  179.1920  142.5510 C   0  0  0  0  0  2  0  0  0  0  0  0
  184.4920  178.5400  143.9160 C   0  0  0  0  0  2  0  0  0  0  0  0
  190.5820  176.8280  144.1200 C   0  0  0  0  0  0  0  0  0  0  0  0
  190.6320  176.7840  145.4530 C   0  0  0  0  0  0  0  0  0  0  0  0
  190.0780  177.1040  139.8530 C   0  0  0  0  0  0  0  0  0  0  0  0
  187.7700  177.7810  140.1320 C   0  0  0  0  0  3  0  0  0  0  0  0
  189.8100  176.9740  147.6510 C   0  0  1  0  0  3  0  0  0  0  0  0
  188.5850  177.4930  137.8180 C   0  0  0  0  0  2  0  0  0  0  0  0
  185.4810  178.3570  141.6540 C   0  0  0  0  0  2  0  0  0  0  0  0
  187.8890  177.7420  141.5330 C   0  0  0  0  0  0  0  0  0  0  0  0
  186.8180  178.0670  142.2980 C   0  0  0  0  0  0  0  0  0  0  0  0
  188.1480  177.6110  144.3390 C   0  0  0  0  0  0  0  0  0  0  0  0
  191.2520  176.4430  147.7100 C   0  0  0  0  0  3  0  0  0  0  0  0
  191.3740  177.1200  137.7140 C   0  0  0  0  0  2  0  0  0  0  0  0
  188.8360  177.4660  139.2920 C   0  0  0  0  0  0  0  0  0  0  0  0
  191.7860  176.3560  146.2720 C   0  0  0  0  0  3  0  0  0  0  0  0
  191.2080  176.7780  139.0880 O   0  0  0  0  0  0  0  0  0  0  0  0
  189.0490  176.1840  137.1870 C   0  0  1  0  0  3  0  0  0  0  0  0
  185.8590  178.6120  144.5800 C   0  0  0  0  0  2  0  0  0  0  0  0
  186.9100  178.0240  143.7390 N   0  0  0  0  0  0  0  0  0  0  0  0
  188.2740  177.5380  145.6730 C   0  0  0  0  0  3  0  0  0  0  0  0
  190.1980  177.0420  141.2420 C   0  0  0  0  0  3  0  0  0  0  0  0
  191.7110  176.4620  143.3880 O   0  0  0  0  0  1  0  0  0  0  0  0
  189.7410  178.3150  148.3590 C   0  0  0  0  0  1  0  0  0  0  0  0
  189.3020  177.2640  143.4560 C   0  0  0  0  0  0  0  0  0  0  0  0
  189.5230  177.1410  146.2430 N   0  0  0  0  0  0  0  0  0  0  0  0
  188.2220  175.8600  135.9530 C   0  0  0  0  0  2  0  0  0  0  0  0
  187.4290  174.5760  136.1460 C   0  0  0  0  0  3  0  0  0  0  0  0
  188.2810  173.5220  136.8280 C   0  0  0  0  0  1  0  0  0  0  0  0
  186.2180  174.8630  137.0080 C   0  0  0  0  0  1  0  0  0  0  0  0
  1 20  1  0  0  0  0
  1 16  1  0  0  0  0
  2 27  2  0  0  0  0
  3  4  1  0  0  0  0
  4 21  1  0  0  0  0
  5  6  2  0  0  0  0
  6 28  1  0  0  0  0
  6 18  1  0  0  0  0
  7 24  2  0  0  0  0
  8 12  1  0  0  0  0
  9 15  1  0  0  0  0
  9 26  1  1  0  0  0
 10 17  1  0  0  0  0
 11 13  1  0  0  0  0
 11  3  1  0  0  0  0
 12  2  1  0  0  0  0
 12 13  2  0  0  0  0
 13 22  1  0  0  0  0
 14 23  2  0  0  0  0
 16 19  1  0  0  0  0
 17  7  1  0  0  0  0
 17  8  2  0  0  0  0
 18 15  2  0  0  0  0
 19  7  1  0  0  0  0
 20 29  1  6  0  0  0
 20 10  1  0  0  0  0
 22 14  1  0  0  0  0
 22 21  1  0  0  0  0
 23 28  1  0  0  0  0
 24  2  1  0  0  0  0
 25  5  1  0  0  0  0
 27  5  1  0  0  0  0
 27 14  1  0  0  0  0
 28  9  1  0  0  0  0
 29 30  1  0  0  0  0
 30 31  1  0  0  0  0
 30 32  1  0  0  0  0
M  END
>  <MODEL>
5

>  <REMARK>
 VINA RESULT:      -9.3      1.434      1.890
  Name = 
  2 active torsions:
  status: ('A' for Active; 'I' for Inactive)
    1  A    between atoms: C_20  and  C_29
    2  A    between atoms: C_29  and  C_30
                            x       y       z     vdW  Elec       q    Type
                         _______ _______ _______ _____ _____    ______ ____

>  <TORSDO>
F 2

$$$$
=
 OpenBabel11122410453D

 32 37  0  0  1  0  0  0  0  0999 V2000
  181.3080  179.7200  140.4300 C   0  0  0  0  0  2  0  0  0  0  0  0
  186.1280  178.2370  142.8630 C   0  0  0  0  0  0  0  0  0  0  0  0
  189.7400  177.3980  139.6110 C   0  0  0  0  0  2  0  0  0  0  0  0
  190.7350  177.8650  140.6540 C   0  0  0  0  0  2  0  0  0  0  0  0
  186.5160  178.1560  145.3640 C   0  0  0  0  0  0  0  0  0  0  0  0
  187.4280  178.0100  146.3280 C   0  0  0  0  0  0  0  0  0  0  0  0
  183.8480  178.5710  142.0120 C   0  0  0  0  0  0  0  0  0  0  0  0
  185.7020  178.3850  140.4650 C   0  0  0  0  0  3  0  0  0  0  0  0
  189.5800  177.7120  147.2360 C   0  0  1  0  0  3  0  0  0  0  0  0
  183.4660  178.7950  139.4960 C   0  0  0  0  0  2  0  0  0  0  0  0
  188.4210  178.1270  139.8130 C   0  0  0  0  0  2  0  0  0  0  0  0
  186.6130  178.2090  141.5210 C   0  0  0  0  0  0  0  0  0  0  0  0
  187.9270  178.0280  141.2390 C   0  0  0  0  0  0  0  0  0  0  0  0
  188.4220  177.9050  143.6640 C   0  0  0  0  0  0  0  0  0  0  0  0
  188.5810  177.9010  148.3900 C   0  0  0  0  0  3  0  0  0  0  0  0
  181.4190  178.5570  141.4150 C   0  0  0  0  0  2  0  0  0  0  0  0
  184.3390  178.5690  140.6890 C   0  0  0  0  0  0  0  0  0  0  0  0
  187.1790  178.0610  147.7840 C   0  0  0  0  0  3  0  0  0  0  0  0
  182.4930  178.7410  142.3340 O   0  0  0  0  0  0  0  0  0  0  0  0
  182.6140  180.0420  139.7040 C   0  0  1  0  0  3  0  0  0  0  0  0
  190.2560  177.4060  142.0230 C   0  0  0  0  0  2  0  0  0  0  0  0
  188.8860  177.8560  142.3060 N   0  0  0  0  0  0  0  0  0  0  0  0
  189.2790  177.7680  144.6880 C   0  0  0  0  0  3  0  0  0  0  0  0
  184.7490  178.4190  143.0650 C   0  0  0  0  0  3  0  0  0  0  0  0
  185.1840  178.3610  145.7190 O   0  0  0  0  0  1  0  0  0  0  0  0
  190.2130  176.3370  147.3420 C   0  0  0  0  0  1  0  0  0  0  0  0
  186.9660  178.1040  143.9270 C   0  0  0  0  0  0  0  0  0  0  0  0
  188.7880  177.8020  146.0280 N   0  0  0  0  0  0  0  0  0  0  0  0
  182.2940  180.7020  138.3720 C   0  0  0  0  0  2  0  0  0  0  0  0
  180.8980  180.3290  137.8950 C   0  0  0  0  0  3  0  0  0  0  0  0
  180.1270  181.5700  137.4870 C   0  0  0  0  0  1  0  0  0  0  0  0
  181.0100  179.4040  136.7030 C   0  0  0  0  0  1  0  0  0  0  0  0
  1 16  1  0  0  0  0
  2 24  1  0  0  0  0
  2 27  2  0  0  0  0
  3 11  1  0  0  0  0
  3  4  1  0  0  0  0
  4 21  1  0  0  0  0
  5 25  1  0  0  0  0
  5  6  2  0  0  0  0
  6 18  1  0  0  0  0
  7 19  1  0  0  0  0
  7 24  2  0  0  0  0
  8 17  2  0  0  0  0
  8 12  1  0  0  0  0
  9 26  1  1  0  0  0
  9 15  1  0  0  0  0
 10 20  1  0  0  0  0
 10 17  1  0  0  0  0
 11 13  1  0  0  0  0
 12  2  1  0  0  0  0
 13 12  2  0  0  0  0
 13 22  1  0  0  0  0
 14 27  1  0  0  0  0
 14 23  2  0  0  0  0
 16 19  1  0  0  0  0
 17  7  1  0  0  0  0
 18 15  2  0  0  0  0
 20 29  1  6  0  0  0
 20  1  1  0  0  0  0
 21 22  1  0  0  0  0
 22 14  1  0  0  0  0
 23 28  1  0  0  0  0
 27  5  1  0  0  0  0
 28  6  1  0  0  0  0
 28  9  1  0  0  0  0
 30 29  1  0  0  0  0
 31 30  1  0  0  0  0
 32 30  1  0  0  0  0
M  END
>  <MODEL>
6

>  <REMARK>
 VINA RESULT:      -9.2      2.934      4.894
  Name = 
  2 active torsions:
  status: ('A' for Active; 'I' for Inactive)
    1  A    between atoms: C_20  and  C_29
    2  A    between atoms: C_29  and  C_30
                            x       y       z     vdW  Elec       q    Type
                         _______ _______ _______ _____ _____    ______ ____

>  <TORSDO>
F 2

$$$$
=
 OpenBabel11122410453D

 32 37  0  0  1  0  0  0  0  0999 V2000
  179.9400  179.7150  141.0050 C   0  0  0  0  0  2  0  0  0  0  0  0
  185.3310  178.3820  141.7180 C   0  0  0  0  0  0  0  0  0  0  0  0
  187.8120  178.0810  137.4660 C   0  0  0  0  0  2  0  0  0  0  0  0
  189.0570  178.5280  138.2050 C   0  0  0  0  0  2  0  0  0  0  0  0
  186.4670  178.1190  143.9660 C   0  0  0  0  0  0  0  0  0  0  0  0
  187.6350  177.9590  144.5930 C   0  0  0  0  0  0  0  0  0  0  0  0
  182.8880  178.6220  141.6270 C   0  0  0  0  0  0  0  0  0  0  0  0
  184.1880  178.7000  139.5860 C   0  0  0  0  0  3  0  0  0  0  0  0
  189.9720  177.7410  144.7800 C   0  0  1  0  0  3  0  0  0  0  0  0
  181.7480  179.0290  139.3780 C   0  0  0  0  0  2  0  0  0  0  0  0
  186.5880  178.6940  138.1260 C   0  0  0  0  0  2  0  0  0  0  0  0
  185.3850  178.5020  140.2970 C   0  0  0  0  0  0  0  0  0  0  0  0
  186.5560  178.4400  139.6170 C   0  0  0  0  0  0  0  0  0  0  0  0
  187.7730  178.1490  141.7570 C   0  0  0  0  0  0  0  0  0  0  0  0
  189.3660  177.7600  146.1930 C   0  0  0  0  0  3  0  0  0  0  0  0
  180.3960  178.4840  141.7870 C   0  0  0  0  0  2  0  0  0  0  0  0
  182.9520  178.7660  140.2260 C   0  0  0  0  0  0  0  0  0  0  0  0
  187.8400  177.8690  146.0540 C   0  0  0  0  0  3  0  0  0  0  0  0
  181.6900  178.6660  142.3560 O   0  0  0  0  0  0  0  0  0  0  0  0
  180.9470  180.1890  139.9580 C   0  0  1  0  0  3  0  0  0  0  0  0
  189.0380  177.9230  139.6000 C   0  0  0  0  0  2  0  0  0  0  0  0
  187.8020  178.2490  140.3250 N   0  0  0  0  0  0  0  0  0  0  0  0
  188.9060  177.9890  142.4570 C   0  0  0  0  0  3  0  0  0  0  0  0
  184.0730  178.4470  142.3420 C   0  0  0  0  0  3  0  0  0  0  0  0
  185.2990  178.1970  144.7220 O   0  0  0  0  0  1  0  0  0  0  0  0
  190.6650  176.4100  144.5510 C   0  0  0  0  0  1  0  0  0  0  0  0
  186.4590  178.2210  142.4630 C   0  0  0  0  0  0  0  0  0  0  0  0
  188.8460  177.8750  143.8800 N   0  0  0  0  0  0  0  0  0  0  0  0
  180.2090  180.9350  138.8570 C   0  0  0  0  0  2  0  0  0  0  0  0
  181.1620  181.3690  137.7530 C   0  0  0  0  0  3  0  0  0  0  0  0
  180.7280  180.7930  136.4180 C   0  0  0  0  0  1  0  0  0  0  0  0
  181.1630  182.8800  137.6620 C   0  0  0  0  0  1  0  0  0  0  0  0
  1 16  1  0  0  0  0
  2 24  1  0  0  0  0
  2 27  2  0  0  0  0
  3 11  1  0  0  0  0
  3  4  1  0  0  0  0
  4 21  1  0  0  0  0
  5  6  2  0  0  0  0
  5 25  1  0  0  0  0
  6 18  1  0  0  0  0
  7 24  2  0  0  0  0
  7 19  1  0  0  0  0
  8 17  2  0  0  0  0
  8 12  1  0  0  0  0
  9 26  1  6  0  0  0
  9 15  1  0  0  0  0
 10 20  1  0  0  0  0
 10 17  1  0  0  0  0
 11 13  1  0  0  0  0
 12  2  1  0  0  0  0
 13 12  2  0  0  0  0
 13 22  1  0  0  0  0
 14 23  2  0  0  0  0
 14 27  1  0  0  0  0
 16 19  1  0  0  0  0
 17  7  1  0  0  0  0
 18 15  2  0  0  0  0
 20 29  1  6  0  0  0
 20  1  1  0  0  0  0
 21 22  1  0  0  0  0
 22 14  1  0  0  0  0
 23 28  1  0  0  0  0
 27  5  1  0  0  0  0
 28  6  1  0  0  0  0
 28  9  1  0  0  0  0
 30 29  1  0  0  0  0
 31 30  1  0  0  0  0
 32 30  1  0  0  0  0
M  END
>  <MODEL>
7

>  <REMARK>
 VINA RESULT:      -8.9      3.354      5.601
  Name = 
  2 active torsions:
  status: ('A' for Active; 'I' for Inactive)
    1  A    between atoms: C_20  and  C_29
    2  A    between atoms: C_29  and  C_30
                            x       y       z     vdW  Elec       q    Type
                         _______ _______ _______ _____ _____    ______ ____

>  <TORSDO>
F 2

$$$$
=
 OpenBabel11122410453D

 32 37  0  0  1  0  0  0  0  0999 V2000
  181.4190  178.5880  138.5700 C   0  0  0  0  0  2  0  0  0  0  0  0
  185.9010  178.3840  141.9210 C   0  0  0  0  0  0  0  0  0  0  0  0
  184.7320  178.6500  146.7060 C   0  0  0  0  0  2  0  0  0  0  0  0
  185.9480  177.7980  147.0100 C   0  0  0  0  0  2  0  0  0  0  0  0
  188.2790  178.0230  141.1300 C   0  0  0  0  0  0  0  0  0  0  0  0
  189.5380  177.7890  141.5090 C   0  0  0  0  0  0  0  0  0  0  0  0
  184.1320  178.7910  140.2660 C   0  0  0  0  0  0  0  0  0  0  0  0
  183.5820  178.6770  142.6210 C   0  0  0  0  0  3  0  0  0  0  0  0
  191.2940  177.3750  143.0200 C   0  0  1  0  0  3  0  0  0  0  0  0
  181.7100  179.0160  141.0440 C   0  0  0  0  0  2  0  0  0  0  0  0
  184.1910  178.2810  145.3340 C   0  0  0  0  0  2  0  0  0  0  0  0
  184.9280  178.4600  142.9630 C   0  0  0  0  0  0  0  0  0  0  0  0
  185.2650  178.3170  144.2680 C   0  0  0  0  0  0  0  0  0  0  0  0
  187.6300  177.9790  143.6130 C   0  0  0  0  0  0  0  0  0  0  0  0
  191.8520  177.3080  141.5890 C   0  0  0  0  0  3  0  0  0  0  0  0
  182.6090  179.5360  138.4270 C   0  0  0  0  0  2  0  0  0  0  0  0
  183.1730  178.8380  141.2990 C   0  0  0  0  0  0  0  0  0  0  0  0
  190.7020  177.6130  140.6170 C   0  0  0  0  0  3  0  0  0  0  0  0
  183.8160  178.9500  138.9080 O   0  0  0  0  0  0  0  0  0  0  0  0
  181.2430  178.0270  139.9810 C   0  0  1  0  0  3  0  0  0  0  0  0
  187.0630  178.1820  146.0500 C   0  0  0  0  0  2  0  0  0  0  0  0
  186.6390  178.0820  144.6470 N   0  0  0  0  0  0  0  0  0  0  0  0
  188.9160  177.7420  143.9150 C   0  0  0  0  0  3  0  0  0  0  0  0
  185.4660  178.5530  140.5950 C   0  0  0  0  0  3  0  0  0  0  0  0
  187.9920  178.1380  139.7710 O   0  0  0  0  0  1  0  0  0  0  0  0
  191.9770  178.5030  143.7720 C   0  0  0  0  0  1  0  0  0  0  0  0
  187.2130  178.1440  142.1880 C   0  0  0  0  0  0  0  0  0  0  0  0
  189.8840  177.6620  142.8680 N   0  0  0  0  0  0  0  0  0  0  0  0
  179.7820  177.6610  140.1930 C   0  0  0  0  0  2  0  0  0  0  0  0
  179.5500  176.1750  139.9630 C   0  0  0  0  0  3  0  0  0  0  0  0
  178.9310  175.9390  138.5980 C   0  0  0  0  0  1  0  0  0  0  0  0
  180.8750  175.4470  140.0350 C   0  0  0  0  0  1  0  0  0  0  0  0
  1 20  1  0  0  0  0
  2 27  2  0  0  0  0
  2 12  1  0  0  0  0
  3  4  1  0  0  0  0
  5  6  2  0  0  0  0
  5 27  1  0  0  0  0
  6 28  1  0  0  0  0
  7 24  2  0  0  0  0
  7 17  1  0  0  0  0
  8 12  1  0  0  0  0
  9 26  1  1  0  0  0
 10 17  1  0  0  0  0
 11  3  1  0  0  0  0
 12 13  2  0  0  0  0
 13 22  1  0  0  0  0
 13 11  1  0  0  0  0
 14 23  2  0  0  0  0
 14 22  1  0  0  0  0
 15  9  1  0  0  0  0
 16  1  1  0  0  0  0
 16 19  1  0  0  0  0
 17  8  2  0  0  0  0
 18  6  1  0  0  0  0
 18 15  2  0  0  0  0
 19  7  1  0  0  0  0
 20 29  1  1  0  0  0
 20 10  1  0  0  0  0
 21  4  1  0  0  0  0
 22 21  1  0  0  0  0
 24  2  1  0  0  0  0
 25  5  1  0  0  0  0
 27 14  1  0  0  0  0
 28  9  1  0  0  0  0
 28 23  1  0  0  0  0
 30 32  1  0  0  0  0
 30 29  1  0  0  0  0
 31 30  1  0  0  0  0
M  END
>  <MODEL>
8

>  <REMARK>
 VINA RESULT:      -8.8      2.846      4.501
  Name = 
  2 active torsions:
  status: ('A' for Active; 'I' for Inactive)
    1  A    between atoms: C_20  and  C_29
    2  A    between atoms: C_29  and  C_30
                            x       y       z     vdW  Elec       q    Type
                         _______ _______ _______ _____ _____    ______ ____

>  <TORSDO>
F 2

$$$$
=
 OpenBabel11122410453D

 32 37  0  0  1  0  0  0  0  0999 V2000
  179.5850  180.1420  138.5690 C   0  0  0  0  0  2  0  0  0  0  0  0
  184.2350  178.6700  141.3200 C   0  0  0  0  0  0  0  0  0  0  0  0
  188.0420  177.7790  138.3130 C   0  0  0  0  0  2  0  0  0  0  0  0
  188.9710  178.2540  139.4110 C   0  0  0  0  0  2  0  0  0  0  0  0
  184.4640  178.6180  143.8410 C   0  0  0  0  0  0  0  0  0  0  0  0
  185.3130  178.4800  144.8630 C   0  0  0  0  0  0  0  0  0  0  0  0
  182.0150  179.0030  140.3220 C   0  0  0  0  0  0  0  0  0  0  0  0
  183.9620  178.7910  138.8980 C   0  0  0  0  0  3  0  0  0  0  0  0
  187.4010  178.1860  145.9090 C   0  0  1  0  0  3  0  0  0  0  0  0
  181.7940  179.1980  137.7840 C   0  0  0  0  0  2  0  0  0  0  0  0
  186.7160  178.5150  138.4220 C   0  0  0  0  0  2  0  0  0  0  0  0
  184.8040  178.6250  140.0110 C   0  0  0  0  0  0  0  0  0  0  0  0
  186.1320  178.4360  139.8150 C   0  0  0  0  0  0  0  0  0  0  0  0
  186.4730  178.3390  142.2680 C   0  0  0  0  0  0  0  0  0  0  0  0
  186.3330  178.3920  146.9950 C   0  0  0  0  0  3  0  0  0  0  0  0
  179.6290  178.9910  139.5720 C   0  0  0  0  0  2  0  0  0  0  0  0
  182.5890  178.9830  139.0330 C   0  0  0  0  0  0  0  0  0  0  0  0
  184.9720  178.5500  146.2990 C   0  0  0  0  0  3  0  0  0  0  0  0
  180.6430  179.1810  140.5560 O   0  0  0  0  0  0  0  0  0  0  0  0
  180.9360  180.4510  137.9230 C   0  0  1  0  0  3  0  0  0  0  0  0
  188.4040  177.8140  140.7530 C   0  0  0  0  0  2  0  0  0  0  0  0
  187.0210  178.2730  140.9430 N   0  0  0  0  0  0  0  0  0  0  0  0
  187.2630  178.2120  143.3450 C   0  0  0  0  0  3  0  0  0  0  0  0
  182.8470  178.8600  141.4320 C   0  0  0  0  0  3  0  0  0  0  0  0
  183.1130  178.8320  144.1080 O   0  0  0  0  0  1  0  0  0  0  0  0
  188.0200  176.8090  146.0710 C   0  0  0  0  0  1  0  0  0  0  0  0
  185.0030  178.5470  142.4360 C   0  0  0  0  0  0  0  0  0  0  0  0
  186.6880  178.2640  144.6520 N   0  0  0  0  0  0  0  0  0  0  0  0
  180.7040  181.0960  136.5660 C   0  0  0  0  0  2  0  0  0  0  0  0
  180.3280  182.5630  136.7130 C   0  0  0  0  0  3  0  0  0  0  0  0
  181.3260  183.2810  137.6000 C   0  0  0  0  0  1  0  0  0  0  0  0
  180.3240  183.2150  135.3460 C   0  0  0  0  0  1  0  0  0  0  0  0
  1 16  1  0  0  0  0
  2 24  1  0  0  0  0
  2 27  2  0  0  0  0
  3 11  1  0  0  0  0
  3  4  1  0  0  0  0
  4 21  1  0  0  0  0
  5 25  1  0  0  0  0
  5  6  2  0  0  0  0
  6 18  1  0  0  0  0
  7 19  1  0  0  0  0
  7 24  2  0  0  0  0
  8 17  2  0  0  0  0
  8 12  1  0  0  0  0
  9 26  1  1  0  0  0
  9 15  1  0  0  0  0
 10 20  1  0  0  0  0
 10 17  1  0  0  0  0
 11 13  1  0  0  0  0
 12  2  1  0  0  0  0
 13 12  2  0  0  0  0
 13 22  1  0  0  0  0
 14 27  1  0  0  0  0
 14 23  2  0  0  0  0
 16 19  1  0  0  0  0
 17  7  1  0  0  0  0
 18 15  2  0  0  0  0
 20 29  1  6  0  0  0
 20  1  1  0  0  0  0
 21 22  1  0  0  0  0
 22 14  1  0  0  0  0
 23 28  1  0  0  0  0
 27  5  1  0  0  0  0
 28  6  1  0  0  0  0
 28  9  1  0  0  0  0
 29 30  1  0  0  0  0
 30 31  1  0  0  0  0
 32 30  1  0  0  0  0
M  END
>  <MODEL>
9

>  <REMARK>
 VINA RESULT:      -8.5      3.837      5.987
  Name = 
  2 active torsions:
  status: ('A' for Active; 'I' for Inactive)
    1  A    between atoms: C_20  and  C_29
    2  A    between atoms: C_29  and  C_30
                            x       y       z     vdW  Elec       q    Type
                         _______ _______ _______ _____ _____    ______ ____

>  <TORSDO>
F 2

$$$$
