=
 OpenBabel11122410473D

 32 38  0  0  1  0  0  0  0  0999 V2000
  188.9820  177.9830  147.7520 C   0  0  1  0  0  3  0  0  0  0  0  0
  185.9270  178.2410  143.8560 C   0  0  2  0  0  3  0  0  0  0  0  0
  188.7060  178.4540  139.6890 C   0  0  0  0  0  2  0  0  0  0  0  0
  187.4790  178.1650  138.8320 C   0  0  0  0  0  2  0  0  0  0  0  0
  183.4430  178.7720  143.6420 C   0  0  0  0  0  0  0  0  0  0  0  0
  182.3500  179.0400  142.8270 C   0  0  0  0  0  0  0  0  0  0  0  0
  186.7250  177.3960  145.8900 C   0  0  1  0  0  3  0  0  0  0  0  0
  188.3200  177.4050  143.9460 C   0  0  0  0  0  2  0  0  0  0  0  0
  181.2360  179.3730  140.9960 N   0  0  0  0  0  0  0  0  0  0  0  0
  189.2650  177.6090  146.2940 C   0  0  2  0  0  3  0  0  0  0  0  0
  188.5530  177.7380  141.0210 C   0  0  0  0  0  2  0  0  0  0  0  0
  187.0660  177.5620  143.0640 C   0  0  2  0  0  3  0  0  0  0  0  0
  187.3620  178.3330  141.7800 C   0  0  2  0  0  3  0  0  0  0  0  0
  184.7980  178.5990  141.5880 C   0  0  0  0  0  0  0  0  0  0  0  0
  180.4210  179.5070  142.0360 N   0  0  0  0  0  0  0  0  0  0  0  0
  187.5740  178.5730  148.0140 C   0  0  0  0  0  2  0  0  0  0  0  0
  188.0800  177.9140  145.3620 C   0  0  2  0  0  3  0  0  0  0  0  0
  181.0770  179.3080  143.1790 N   0  0  0  0  0  0  0  0  0  0  0  0
  186.3780  177.9520  147.2680 C   0  0  0  0  0  2  0  0  0  0  0  0
  188.9800  176.5230  147.3300 C   0  0  1  0  0  3  0  0  0  0  0  0
  186.1980  178.4060  139.5800 C   0  0  0  0  0  3  0  0  0  0  0  0
  186.1120  178.4050  140.9230 C   0  0  0  0  0  0  0  0  0  0  0  0
  183.6490  178.8780  140.8090 C   0  0  0  0  0  3  0  0  0  0  0  0
  185.6190  177.4650  144.9970 O   0  0  0  0  0  0  0  0  0  0  0  0
  183.3000  178.7840  145.0260 O   0  0  0  0  0  1  0  0  0  0  0  0
  180.8440  179.5380  139.6070 C   0  0  0  0  0  1  0  0  0  0  0  0
  184.6920  178.5060  143.0150 C   0  0  0  0  0  0  0  0  0  0  0  0
  182.4500  179.0810  141.4770 C   0  0  0  0  0  0  0  0  0  0  0  0
  190.2880  175.8780  147.7470 C   0  0  0  0  0  2  0  0  0  0  0  0
  191.4670  176.6790  147.2210 C   0  0  0  0  0  3  0  0  0  0  0  0
  192.6540  176.5440  148.1540 C   0  0  0  0  0  1  0  0  0  0  0  0
  191.8510  176.1610  145.8510 C   0  0  0  0  0  1  0  0  0  0  0  0
  1 16  1  6  0  0  0
  2 27  1  6  0  0  0
  2 24  1  0  0  0  0
  3 11  1  0  0  0  0
  4 21  1  0  0  0  0
  4  3  1  0  0  0  0
  5 25  1  0  0  0  0
  6 18  1  0  0  0  0
  6  5  2  0  0  0  0
  7 19  1  1  0  0  0
  8 17  1  0  0  0  0
  9 28  1  0  0  0  0
  9 15  1  0  0  0  0
 10 20  1  0  0  0  0
 10  1  1  0  0  0  0
 11 13  1  0  0  0  0
 12  2  1  0  0  0  0
 12  8  1  0  0  0  0
 13 12  1  0  0  0  0
 14 27  2  0  0  0  0
 15 18  2  0  0  0  0
 17  7  1  0  0  0  0
 17 10  1  0  0  0  0
 19 16  1  0  0  0  0
 20 29  1  0  0  0  0
 20  1  1  0  0  0  0
 21 22  2  0  0  0  0
 22 14  1  0  0  0  0
 22 13  1  0  0  0  0
 23 28  2  0  0  0  0
 23 14  1  0  0  0  0
 24  7  1  0  0  0  0
 26  9  1  0  0  0  0
 27  5  1  0  0  0  0
 28  6  1  0  0  0  0
 30 29  1  0  0  0  0
 30 31  1  0  0  0  0
 32 30  1  0  0  0  0
M  END
>  <MODEL>
1

>  <REMARK>
 VINA RESULT:     -10.2      0.000      0.000
  Name = 
  2 active torsions:
  status: ('A' for Active; 'I' for Inactive)
    1  A    between atoms: C_20  and  C_29
    2  A    between atoms: C_29  and  C_30
                            x       y       z     vdW  Elec       q    Type
                         _______ _______ _______ _____ _____    ______ ____

>  <TORSDO>
F 2

$$$$
=
 OpenBabel11122410473D

 32 38  0  0  1  0  0  0  0  0999 V2000
  182.2190  178.4190  139.9230 C   0  0  1  0  0  3  0  0  0  0  0  0
  186.3500  178.0990  142.6470 C   0  0  2  0  0  3  0  0  0  0  0  0
  190.1800  177.0700  139.5820 C   0  0  0  0  0  2  0  0  0  0  0  0
  191.1780  177.4090  140.6820 C   0  0  0  0  0  2  0  0  0  0  0  0
  186.7500  177.8580  145.1530 C   0  0  0  0  0  0  0  0  0  0  0  0
  187.6370  177.6370  146.2000 C   0  0  0  0  0  0  0  0  0  0  0  0
  184.3440  179.0650  141.9170 C   0  0  1  0  0  3  0  0  0  0  0  0
  186.1110  178.6370  140.1800 C   0  0  0  0  0  2  0  0  0  0  0  0
  189.5250  177.2370  147.1900 N   0  0  0  0  0  0  0  0  0  0  0  0
  183.6730  178.5860  139.4720 C   0  0  2  0  0  3  0  0  0  0  0  0
  188.9500  177.9470  139.7480 C   0  0  0  0  0  2  0  0  0  0  0  0
  187.0910  178.5370  141.3650 C   0  0  2  0  0  3  0  0  0  0  0  0
  188.2540  177.5940  141.0680 C   0  0  2  0  0  3  0  0  0  0  0  0
  188.6690  177.6270  143.6190 C   0  0  0  0  0  0  0  0  0  0  0  0
  188.5610  177.3250  148.1000 N   0  0  0  0  0  0  0  0  0  0  0  0
  182.0380  178.0410  141.4150 C   0  0  0  0  0  2  0  0  0  0  0  0
  184.6810  178.3260  140.6040 C   0  0  2  0  0  3  0  0  0  0  0  0
  187.3860  177.5700  147.5220 N   0  0  0  0  0  0  0  0  0  0  0  0
  182.9570  178.7160  142.4500 C   0  0  0  0  0  2  0  0  0  0  0  0
  182.7860  179.8100  139.6940 C   0  0  1  0  0  3  0  0  0  0  0  0
  190.5380  177.4150  142.0420 C   0  0  0  0  0  3  0  0  0  0  0  0
  189.2180  177.5800  142.2390 C   0  0  0  0  0  0  0  0  0  0  0  0
  189.5240  177.4050  144.7250 C   0  0  0  0  0  3  0  0  0  0  0  0
  185.3290  179.0310  142.9430 O   0  0  0  0  0  0  0  0  0  0  0  0
  185.3930  178.0210  145.4120 O   0  0  0  0  0  1  0  0  0  0  0  0
  190.9210  176.9650  147.4820 C   0  0  0  0  0  1  0  0  0  0  0  0
  187.2760  177.8950  143.8310 C   0  0  0  0  0  0  0  0  0  0  0  0
  188.9600  177.4300  145.9930 C   0  0  0  0  0  0  0  0  0  0  0  0
  182.3110  180.3310  138.3510 C   0  0  0  0  0  2  0  0  0  0  0  0
  181.4710  181.5830  138.5350 C   0  0  0  0  0  3  0  0  0  0  0  0
  180.9120  182.0420  137.2020 C   0  0  0  0  0  1  0  0  0  0  0  0
  180.3240  181.2820  139.4770 C   0  0  0  0  0  1  0  0  0  0  0  0
  1 16  1  1  0  0  0
  2 24  1  1  0  0  0
  2 27  1  0  0  0  0
  3 11  1  0  0  0  0
  3  4  1  0  0  0  0
  4 21  1  0  0  0  0
  5 25  1  0  0  0  0
  5  6  1  0  0  0  0
  6 18  1  0  0  0  0
  7 19  1  1  0  0  0
  7 24  1  0  0  0  0
  8 17  1  0  0  0  0
  8 12  1  0  0  0  0
  9 26  1  0  0  0  0
  9 15  1  0  0  0  0
 10 20  1  0  0  0  0
 10  1  1  0  0  0  0
 10 17  1  0  0  0  0
 11 13  1  0  0  0  0
 12  2  1  0  0  0  0
 13 12  1  0  0  0  0
 13 22  1  0  0  0  0
 14 27  1  0  0  0  0
 14 23  2  0  0  0  0
 16 19  1  0  0  0  0
 17  7  1  0  0  0  0
 18 15  2  0  0  0  0
 20  1  1  0  0  0  0
 21 22  2  0  0  0  0
 22 14  1  0  0  0  0
 23 28  1  0  0  0  0
 27  5  2  0  0  0  0
 28  6  2  0  0  0  0
 28  9  1  0  0  0  0
 29 30  1  0  0  0  0
 29 20  1  0  0  0  0
 30 32  1  0  0  0  0
 31 30  1  0  0  0  0
M  END
>  <MODEL>
2

>  <REMARK>
 VINA RESULT:     -10.0      3.099      8.051
  Name = 
  2 active torsions:
  status: ('A' for Active; 'I' for Inactive)
    1  A    between atoms: C_20  and  C_29
    2  A    between atoms: C_29  and  C_30
                            x       y       z     vdW  Elec       q    Type
                         _______ _______ _______ _____ _____    ______ ____

>  <TORSDO>
F 2

$$$$
=
 OpenBabel11122410473D

 32 38  0  0  1  0  0  0  0  0999 V2000
  180.6720  178.4680  141.6800 C   0  0  1  0  0  3  0  0  0  0  0  0
  185.2380  178.2820  143.6050 C   0  0  2  0  0  3  0  0  0  0  0  0
  188.4840  177.4530  139.8760 C   0  0  0  0  0  2  0  0  0  0  0  0
  189.6520  177.8180  140.7840 C   0  0  0  0  0  2  0  0  0  0  0  0
  186.0950  178.0240  145.9910 C   0  0  0  0  0  0  0  0  0  0  0  0
  187.1660  177.8260  146.8550 C   0  0  0  0  0  0  0  0  0  0  0  0
  183.0970  179.1740  143.2690 C   0  0  1  0  0  3  0  0  0  0  0  0
  184.5350  178.8430  141.2330 C   0  0  0  0  0  2  0  0  0  0  0  0
  189.2160  177.4910  147.4800 N   0  0  0  0  0  0  0  0  0  0  0  0
  182.0120  178.7010  140.9770 C   0  0  2  0  0  3  0  0  0  0  0  0
  187.2720  178.2760  140.2800 C   0  0  0  0  0  2  0  0  0  0  0  0
  185.7160  178.7670  142.2190 C   0  0  2  0  0  3  0  0  0  0  0  0
  186.8420  177.8770  141.6970 C   0  0  2  0  0  3  0  0  0  0  0  0
  187.7110  177.8930  144.1310 C   0  0  0  0  0  0  0  0  0  0  0  0
  188.4310  177.5270  148.5510 N   0  0  0  0  0  0  0  0  0  0  0  0
  180.7790  178.0630  143.1720 C   0  0  0  0  0  2  0  0  0  0  0  0
  183.2180  178.4680  141.9020 C   0  0  2  0  0  3  0  0  0  0  0  0
  187.1620  177.7300  148.1990 N   0  0  0  0  0  0  0  0  0  0  0  0
  181.8450  178.7620  144.0380 C   0  0  0  0  0  2  0  0  0  0  0  0
  181.1350  179.8840  141.3820 C   0  0  1  0  0  3  0  0  0  0  0  0
  189.2700  177.7790  142.2380 C   0  0  0  0  0  3  0  0  0  0  0  0
  188.0010  177.8870  142.6740 C   0  0  0  0  0  0  0  0  0  0  0  0
  188.7610  177.6920  145.0590 C   0  0  0  0  0  3  0  0  0  0  0  0
  184.2530  179.1670  144.1000 O   0  0  0  0  0  0  0  0  0  0  0  0
  184.8030  178.1280  146.4950 O   0  0  0  0  0  1  0  0  0  0  0  0
  190.6510  177.2720  147.5080 C   0  0  0  0  0  1  0  0  0  0  0  0
  186.3710  178.1000  144.5970 C   0  0  0  0  0  0  0  0  0  0  0  0
  188.4360  177.6760  146.4080 C   0  0  0  0  0  0  0  0  0  0  0  0
  180.4040  180.4040  140.1580 C   0  0  0  0  0  2  0  0  0  0  0  0
  181.2730  180.2640  138.9210 C   0  0  0  0  0  3  0  0  0  0  0  0
  180.4910  179.6110  137.7980 C   0  0  0  0  0  1  0  0  0  0  0  0
  181.7310  181.6360  138.4740 C   0  0  0  0  0  1  0  0  0  0  0  0
  1 16  1  1  0  0  0
  2 24  1  1  0  0  0
  2 27  1  0  0  0  0
  3 11  1  0  0  0  0
  3  4  1  0  0  0  0
  4 21  1  0  0  0  0
  5 25  1  0  0  0  0
  5  6  1  0  0  0  0
  6 18  1  0  0  0  0
  7 19  1  1  0  0  0
  7 24  1  0  0  0  0
  8 17  1  0  0  0  0
  8 12  1  0  0  0  0
  9 26  1  0  0  0  0
  9 15  1  0  0  0  0
 10 20  1  0  0  0  0
 10  1  1  0  0  0  0
 10 17  1  0  0  0  0
 11 13  1  0  0  0  0
 12  2  1  0  0  0  0
 13 12  1  0  0  0  0
 13 22  1  0  0  0  0
 14 27  1  0  0  0  0
 14 23  2  0  0  0  0
 16 19  1  0  0  0  0
 17  7  1  0  0  0  0
 18 15  2  0  0  0  0
 20  1  1  0  0  0  0
 21 22  2  0  0  0  0
 22 14  1  0  0  0  0
 23 28  1  0  0  0  0
 27  5  2  0  0  0  0
 28  6  2  0  0  0  0
 28  9  1  0  0  0  0
 29 20  1  0  0  0  0
 30 29  1  0  0  0  0
 31 30  1  0  0  0  0
 32 30  1  0  0  0  0
M  END
>  <MODEL>
3

>  <REMARK>
 VINA RESULT:      -9.9      2.984      7.858
  Name = 
  2 active torsions:
  status: ('A' for Active; 'I' for Inactive)
    1  A    between atoms: C_20  and  C_29
    2  A    between atoms: C_29  and  C_30
                            x       y       z     vdW  Elec       q    Type
                         _______ _______ _______ _____ _____    ______ ____

>  <TORSDO>
F 2

$$$$
=
 OpenBabel11122410473D

 32 38  0  0  1  0  0  0  0  0999 V2000
  187.6310  178.9380  136.8300 C   0  0  1  0  0  3  0  0  0  0  0  0
  187.9550  178.0540  141.6980 C   0  0  2  0  0  3  0  0  0  0  0  0
  183.6150  179.3770  143.8280 C   0  0  0  0  0  2  0  0  0  0  0  0
  184.0000  178.6500  145.1110 C   0  0  0  0  0  2  0  0  0  0  0  0
  189.9300  177.5910  143.2400 C   0  0  0  0  0  0  0  0  0  0  0  0
  190.4190  177.4280  144.5310 C   0  0  0  0  0  0  0  0  0  0  0  0
  188.1660  177.5530  139.4190 C   0  0  1  0  0  3  0  0  0  0  0  0
  185.8810  178.2020  140.2440 C   0  0  0  0  0  2  0  0  0  0  0  0
  190.3920  177.3320  146.6980 N   0  0  0  0  0  0  0  0  0  0  0  0
  186.4970  178.7220  137.8360 C   0  0  2  0  0  3  0  0  0  0  0  0
  184.2200  178.6400  142.6460 C   0  0  0  0  0  2  0  0  0  0  0  0
  186.4210  177.8770  141.6500 C   0  0  2  0  0  3  0  0  0  0  0  0
  185.7490  178.7200  142.7310 C   0  0  2  0  0  3  0  0  0  0  0  0
  187.7100  177.9810  144.2430 C   0  0  0  0  0  0  0  0  0  0  0  0
  191.6310  177.1280  146.2650 N   0  0  0  0  0  0  0  0  0  0  0  0
  189.0550  178.9370  137.4400 C   0  0  0  0  0  2  0  0  0  0  0  0
  187.0050  178.5600  139.2780 C   0  0  2  0  0  3  0  0  0  0  0  0
  191.6800  177.1810  144.9340 N   0  0  0  0  0  0  0  0  0  0  0  0
  189.3670  177.9140  138.5490 C   0  0  0  0  0  2  0  0  0  0  0  0
  186.9220  177.5960  136.8950 C   0  0  1  0  0  3  0  0  0  0  0  0
  185.4750  178.3700  145.1800 C   0  0  0  0  0  3  0  0  0  0  0  0
  186.2710  178.3170  144.0970 C   0  0  0  0  0  0  0  0  0  0  0  0
  188.2650  177.8070  145.5340 C   0  0  0  0  0  3  0  0  0  0  0  0
  188.5570  177.2040  140.7420 O   0  0  0  0  0  0  0  0  0  0  0  0
  190.7980  177.5280  142.1540 O   0  0  0  0  0  1  0  0  0  0  0  0
  189.9930  177.3530  148.0940 C   0  0  0  0  0  1  0  0  0  0  0  0
  188.5380  177.8340  143.0810 C   0  0  0  0  0  0  0  0  0  0  0  0
  189.6200  177.5240  145.6220 C   0  0  0  0  0  0  0  0  0  0  0  0
  185.9270  177.4990  135.7540 C   0  0  0  0  0  2  0  0  0  0  0  0
  185.0710  176.2530  135.9000 C   0  0  0  0  0  3  0  0  0  0  0  0
  185.7340  175.2670  136.8420 C   0  0  0  0  0  1  0  0  0  0  0  0
  183.7170  176.6390  136.4590 C   0  0  0  0  0  1  0  0  0  0  0  0
  1 20  1  0  0  0  0
  1 16  1  1  0  0  0
  1 10  1  0  0  0  0
  2 24  1  6  0  0  0
  2 27  1  0  0  0  0
  3  4  1  0  0  0  0
  4 21  1  0  0  0  0
  5  6  1  0  0  0  0
  6 18  1  0  0  0  0
  6 28  2  0  0  0  0
  7 19  1  1  0  0  0
  7 24  1  0  0  0  0
  8 12  1  0  0  0  0
  9 26  1  0  0  0  0
 10 17  1  0  0  0  0
 11 13  1  0  0  0  0
 11  3  1  0  0  0  0
 12  2  1  0  0  0  0
 12 13  1  0  0  0  0
 13 22  1  0  0  0  0
 14 23  2  0  0  0  0
 15  9  1  0  0  0  0
 16 19  1  0  0  0  0
 17  7  1  0  0  0  0
 17  8  1  0  0  0  0
 18 15  2  0  0  0  0
 20 10  1  0  0  0  0
 22 14  1  0  0  0  0
 22 21  2  0  0  0  0
 23 28  1  0  0  0  0
 25  5  1  0  0  0  0
 27  5  2  0  0  0  0
 27 14  1  0  0  0  0
 28  9  1  0  0  0  0
 29 30  1  0  0  0  0
 29 20  1  0  0  0  0
 30 32  1  0  0  0  0
 30 31  1  0  0  0  0
M  END
>  <MODEL>
4

>  <REMARK>
 VINA RESULT:      -9.6      4.014      8.596
  Name = 
  2 active torsions:
  status: ('A' for Active; 'I' for Inactive)
    1  A    between atoms: C_20  and  C_29
    2  A    between atoms: C_29  and  C_30
                            x       y       z     vdW  Elec       q    Type
                         _______ _______ _______ _____ _____    ______ ____

>  <TORSDO>
F 2

$$$$
=
 OpenBabel11122410473D

 32 38  0  0  1  0  0  0  0  0999 V2000
  189.2640  175.9340  137.0170 C   0  0  1  0  0  3  0  0  0  0  0  0
  188.2610  177.2650  141.6870 C   0  0  2  0  0  3  0  0  0  0  0  0
  191.9830  175.6330  144.6210 C   0  0  0  0  0  2  0  0  0  0  0  0
  191.4900  176.5070  145.7680 C   0  0  0  0  0  2  0  0  0  0  0  0
  186.1360  178.0860  142.8280 C   0  0  0  0  0  0  0  0  0  0  0  0
  185.4670  178.4150  144.0010 C   0  0  0  0  0  0  0  0  0  0  0  0
  188.4940  177.5890  139.3780 C   0  0  1  0  0  3  0  0  0  0  0  0
  190.5090  176.7520  140.6280 C   0  0  0  0  0  2  0  0  0  0  0  0
  185.1480  178.6930  146.1290 N   0  0  0  0  0  0  0  0  0  0  0  0
  190.2360  176.1020  138.1890 C   0  0  2  0  0  3  0  0  0  0  0  0
  191.6810  176.3320  143.3060 C   0  0  0  0  0  2  0  0  0  0  0  0
  189.7920  177.2580  141.8950 C   0  0  2  0  0  3  0  0  0  0  0  0
  190.1620  176.4380  143.1290 C   0  0  2  0  0  3  0  0  0  0  0  0
  188.0910  177.5270  144.2260 C   0  0  0  0  0  0  0  0  0  0  0  0
  184.0350  179.0030  145.4740 N   0  0  0  0  0  0  0  0  0  0  0  0
  187.7710  176.1540  137.3690 C   0  0  0  0  0  2  0  0  0  0  0  0
  189.5230  176.4450  139.5070 C   0  0  2  0  0  3  0  0  0  0  0  0
  184.1990  178.8410  144.1610 N   0  0  0  0  0  0  0  0  0  0  0  0
  187.4160  177.2980  138.3370 C   0  0  0  0  0  2  0  0  0  0  0  0
  190.1210  177.1850  137.1170 C   0  0  1  0  0  3  0  0  0  0  0  0
  190.0720  176.9630  145.5610 C   0  0  0  0  0  3  0  0  0  0  0  0
  189.4790  177.0140  144.3540 C   0  0  0  0  0  0  0  0  0  0  0  0
  187.3580  177.8750  145.3870 C   0  0  0  0  0  3  0  0  0  0  0  0
  187.9400  178.0940  140.5870 O   0  0  0  0  0  0  0  0  0  0  0  0
  185.4740  178.1560  141.6060 O   0  0  0  0  0  1  0  0  0  0  0  0
  185.3060  178.7460  147.5720 C   0  0  0  0  0  1  0  0  0  0  0  0
  187.4920  177.6690  142.9300 C   0  0  0  0  0  0  0  0  0  0  0  0
  186.0550  178.3210  145.2180 C   0  0  0  0  0  0  0  0  0  0  0  0
  191.2950  177.0670  136.1630 C   0  0  0  0  0  2  0  0  0  0  0  0
  192.1650  175.8800  136.5360 C   0  0  0  0  0  3  0  0  0  0  0  0
  192.3510  174.9670  135.3410 C   0  0  0  0  0  1  0  0  0  0  0  0
  193.5200  176.3780  136.9950 C   0  0  0  0  0  1  0  0  0  0  0  0
  1 20  1  0  0  0  0
  1 16  1  1  0  0  0
  1 10  1  0  0  0  0
  2 24  1  6  0  0  0
  2 12  1  0  0  0  0
  2 27  1  0  0  0  0
  3  4  1  0  0  0  0
  5 27  2  0  0  0  0
  5  6  1  0  0  0  0
  6 18  1  0  0  0  0
  6 28  2  0  0  0  0
  7 19  1  6  0  0  0
  7 17  1  0  0  0  0
  7 24  1  0  0  0  0
  8 12  1  0  0  0  0
  9 26  1  0  0  0  0
 10 17  1  0  0  0  0
 11  3  1  0  0  0  0
 12 13  1  0  0  0  0
 13 11  1  0  0  0  0
 13 22  1  0  0  0  0
 14 22  1  0  0  0  0
 14 23  2  0  0  0  0
 15  9  1  0  0  0  0
 16 19  1  0  0  0  0
 17  8  1  0  0  0  0
 18 15  2  0  0  0  0
 20 10  1  0  0  0  0
 21  4  1  0  0  0  0
 22 21  2  0  0  0  0
 25  5  1  0  0  0  0
 27 14  1  0  0  0  0
 28 23  1  0  0  0  0
 28  9  1  0  0  0  0
 29 30  1  0  0  0  0
 29 20  1  0  0  0  0
 30 32  1  0  0  0  0
 31 30  1  0  0  0  0
M  END
>  <MODEL>
5

>  <REMARK>
 VINA RESULT:      -9.5      3.022      7.177
  Name = 
  2 active torsions:
  status: ('A' for Active; 'I' for Inactive)
    1  A    between atoms: C_20  and  C_29
    2  A    between atoms: C_29  and  C_30
                            x       y       z     vdW  Elec       q    Type
                         _______ _______ _______ _____ _____    ______ ____

>  <TORSDO>
F 2

$$$$
=
 OpenBabel11122410473D

 32 38  0  0  1  0  0  0  0  0999 V2000
  181.3120  180.1280  139.5700 C   0  0  1  0  0  3  0  0  0  0  0  0
  185.5750  178.5270  141.5310 C   0  0  2  0  0  3  0  0  0  0  0  0
  185.1820  178.7280  146.5240 C   0  0  0  0  0  2  0  0  0  0  0  0
  186.4370  177.8770  146.6780 C   0  0  0  0  0  2  0  0  0  0  0  0
  187.8970  178.1610  140.5470 C   0  0  0  0  0  0  0  0  0  0  0  0
  189.2420  177.8740  140.7480 C   0  0  0  0  0  0  0  0  0  0  0  0
  183.7220  178.4490  140.0990 C   0  0  1  0  0  3  0  0  0  0  0  0
  183.2600  178.5570  142.5690 C   0  0  0  0  0  2  0  0  0  0  0  0
  191.0660  177.4220  141.8310 N   0  0  0  0  0  0  0  0  0  0  0  0
  181.5620  179.5610  140.9700 C   0  0  2  0  0  3  0  0  0  0  0  0
  184.4550  178.3070  145.2580 C   0  0  0  0  0  2  0  0  0  0  0  0
  184.7220  178.1020  142.7470 C   0  0  2  0  0  3  0  0  0  0  0  0
  185.3320  178.6310  144.0430 C   0  0  2  0  0  3  0  0  0  0  0  0
  187.6080  177.9980  142.9920 C   0  0  0  0  0  0  0  0  0  0  0  0
  191.3360  177.5040  140.5330 N   0  0  0  0  0  0  0  0  0  0  0  0
  182.5770  180.2690  138.6860 C   0  0  0  0  0  2  0  0  0  0  0  0
  183.0460  179.2540  141.2310 C   0  0  2  0  0  3  0  0  0  0  0  0
  190.2330  177.7820  139.8390 N   0  0  0  0  0  0  0  0  0  0  0  0
  183.6300  179.1460  138.7450 C   0  0  0  0  0  2  0  0  0  0  0  0
  180.9260  178.6930  139.8860 C   0  0  1  0  0  3  0  0  0  0  0  0
  187.2540  177.8430  145.4160 C   0  0  0  0  0  3  0  0  0  0  0  0
  186.7460  178.1050  144.1980 C   0  0  0  0  0  0  0  0  0  0  0  0
  188.9870  177.7120  143.1350 C   0  0  0  0  0  3  0  0  0  0  0  0
  185.0330  177.9600  140.3550 O   0  0  0  0  0  0  0  0  0  0  0  0
  187.4250  178.4240  139.2650 O   0  0  0  0  0  1  0  0  0  0  0  0
  192.0460  177.1450  142.8670 C   0  0  0  0  0  1  0  0  0  0  0  0
  187.0450  178.1860  141.6860 C   0  0  0  0  0  0  0  0  0  0  0  0
  189.7560  177.6520  141.9810 C   0  0  0  0  0  0  0  0  0  0  0  0
  179.4300  178.6160  140.1240 C   0  0  0  0  0  2  0  0  0  0  0  0
  178.9310  177.1970  139.9130 C   0  0  0  0  0  3  0  0  0  0  0  0
  179.2960  176.7120  138.5240 C   0  0  0  0  0  1  0  0  0  0  0  0
  179.5670  176.2860  140.9410 C   0  0  0  0  0  1  0  0  0  0  0  0
  1 16  1  6  0  0  0
  1 20  1  0  0  0  0
  1 10  1  0  0  0  0
  2 24  1  6  0  0  0
  2 27  1  0  0  0  0
  2 12  1  0  0  0  0
  3  4  1  0  0  0  0
  5  6  2  0  0  0  0
  5 27  1  0  0  0  0
  6 28  1  0  0  0  0
  7 19  1  6  0  0  0
  7 24  1  0  0  0  0
  7 17  1  0  0  0  0
  8 12  1  0  0  0  0
  9 28  1  0  0  0  0
  9 26  1  0  0  0  0
 10 17  1  0  0  0  0
 11  3  1  0  0  0  0
 12 13  1  0  0  0  0
 13 22  1  0  0  0  0
 13 11  1  0  0  0  0
 14 23  1  0  0  0  0
 14 22  1  0  0  0  0
 15  9  1  0  0  0  0
 16 19  1  0  0  0  0
 17  8  1  0  0  0  0
 18 15  2  0  0  0  0
 18  6  1  0  0  0  0
 20 29  1  0  0  0  0
 20 10  1  0  0  0  0
 21  4  1  0  0  0  0
 22 21  2  0  0  0  0
 25  5  1  0  0  0  0
 27 14  2  0  0  0  0
 28 23  2  0  0  0  0
 30 29  1  0  0  0  0
 30 32  1  0  0  0  0
 31 30  1  0  0  0  0
M  END
>  <MODEL>
6

>  <REMARK>
 VINA RESULT:      -9.4      3.765      8.759
  Name = 
  2 active torsions:
  status: ('A' for Active; 'I' for Inactive)
    1  A    between atoms: C_20  and  C_29
    2  A    between atoms: C_29  and  C_30
                            x       y       z     vdW  Elec       q    Type
                         _______ _______ _______ _____ _____    ______ ____

>  <TORSDO>
F 2

$$$$
=
 OpenBabel11122410473D

 32 38  0  0  1  0  0  0  0  0999 V2000
  190.5650  176.3750  139.3810 C   0  0  1  0  0  3  0  0  0  0  0  0
  186.5920  177.9760  141.8780 C   0  0  2  0  0  3  0  0  0  0  0  0
  187.4720  177.3890  146.7770 C   0  0  0  0  0  2  0  0  0  0  0  0
  186.2770  178.2700  147.1190 C   0  0  0  0  0  2  0  0  0  0  0  0
  184.2010  178.4980  141.1660 C   0  0  0  0  0  0  0  0  0  0  0  0
  182.8960  178.8170  141.5230 C   0  0  0  0  0  0  0  0  0  0  0  0
  188.2950  178.0940  140.2720 C   0  0  1  0  0  3  0  0  0  0  0  0
  188.9950  177.7860  142.6680 C   0  0  0  0  0  2  0  0  0  0  0  0
  181.2110  179.2510  142.8170 N   0  0  0  0  0  0  0  0  0  0  0  0
  190.4800  176.8450  140.8360 C   0  0  2  0  0  3  0  0  0  0  0  0
  188.0860  177.8770  145.4760 C   0  0  0  0  0  2  0  0  0  0  0  0
  187.5800  178.2780  143.0260 C   0  0  2  0  0  3  0  0  0  0  0  0
  187.0790  177.6760  144.3370 C   0  0  2  0  0  3  0  0  0  0  0  0
  184.7400  178.4660  143.5730 C   0  0  0  0  0  0  0  0  0  0  0  0
  180.8100  179.2760  141.5520 N   0  0  0  0  0  0  0  0  0  0  0  0
  189.2130  176.3460  138.6240 C   0  0  0  0  0  2  0  0  0  0  0  0
  189.0440  177.1840  141.2690 C   0  0  2  0  0  3  0  0  0  0  0  0
  181.8250  179.0110  140.7300 N   0  0  0  0  0  0  0  0  0  0  0  0
  188.2210  177.4980  138.8700 C   0  0  0  0  0  2  0  0  0  0  0  0
  191.0420  177.7680  139.7560 C   0  0  1  0  0  3  0  0  0  0  0  0
  185.3400  178.4270  145.9530 C   0  0  0  0  0  3  0  0  0  0  0  0
  185.7120  178.2400  144.6740 C   0  0  0  0  0  0  0  0  0  0  0  0
  183.3950  178.7900  143.8770 C   0  0  0  0  0  3  0  0  0  0  0  0
  187.0370  178.6100  140.6950 O   0  0  0  0  0  0  0  0  0  0  0  0
  184.5310  178.3140  139.8270 O   0  0  0  0  0  1  0  0  0  0  0  0
  180.3530  179.4840  143.9660 C   0  0  0  0  0  1  0  0  0  0  0  0
  185.1600  178.3570  142.2070 C   0  0  0  0  0  0  0  0  0  0  0  0
  182.5180  178.9630  142.8160 C   0  0  0  0  0  0  0  0  0  0  0  0
  192.5560  177.7730  139.8440 C   0  0  0  0  0  2  0  0  0  0  0  0
  193.1300  176.5260  139.1950 C   0  0  0  0  0  3  0  0  0  0  0  0
  193.3360  176.7530  137.7100 C   0  0  0  0  0  1  0  0  0  0  0  0
  194.4620  176.1970  139.8360 C   0  0  0  0  0  1  0  0  0  0  0  0
  1 16  1  6  0  0  0
  1 20  1  0  0  0  0
  1 10  1  0  0  0  0
  2 24  1  6  0  0  0
  2 27  1  0  0  0  0
  2 12  1  0  0  0  0
  3  4  1  0  0  0  0
  5  6  2  0  0  0  0
  5 27  1  0  0  0  0
  6 28  1  0  0  0  0
  7 19  1  6  0  0  0
  7 24  1  0  0  0  0
  7 17  1  0  0  0  0
  8 12  1  0  0  0  0
  9 26  1  0  0  0  0
 10 17  1  0  0  0  0
 11  3  1  0  0  0  0
 12 13  1  0  0  0  0
 13 22  1  0  0  0  0
 13 11  1  0  0  0  0
 14 23  1  0  0  0  0
 14 22  1  0  0  0  0
 15  9  1  0  0  0  0
 16 19  1  0  0  0  0
 17  8  1  0  0  0  0
 18  6  1  0  0  0  0
 18 15  2  0  0  0  0
 20 29  1  0  0  0  0
 20 10  1  0  0  0  0
 21  4  1  0  0  0  0
 22 21  2  0  0  0  0
 25  5  1  0  0  0  0
 27 14  2  0  0  0  0
 28  9  1  0  0  0  0
 28 23  2  0  0  0  0
 30 32  1  0  0  0  0
 30 29  1  0  0  0  0
 31 30  1  0  0  0  0
M  END
>  <MODEL>
7

>  <REMARK>
 VINA RESULT:      -9.1      2.508      5.597
  Name = 
  2 active torsions:
  status: ('A' for Active; 'I' for Inactive)
    1  A    between atoms: C_20  and  C_29
    2  A    between atoms: C_29  and  C_30
                            x       y       z     vdW  Elec       q    Type
                         _______ _______ _______ _____ _____    ______ ____

>  <TORSDO>
F 2

$$$$
=
 OpenBabel11122410473D

 32 38  0  0  1  0  0  0  0  0999 V2000
  180.6180  178.6040  140.4230 C   0  0  1  0  0  3  0  0  0  0  0  0
  185.2020  178.3260  142.2910 C   0  0  2  0  0  3  0  0  0  0  0  0
  188.3970  177.5350  138.5110 C   0  0  0  0  0  2  0  0  0  0  0  0
  189.5790  177.8680  139.4130 C   0  0  0  0  0  2  0  0  0  0  0  0
  186.0830  178.0100  144.6620 C   0  0  0  0  0  0  0  0  0  0  0  0
  187.1610  177.7820  145.5100 C   0  0  0  0  0  0  0  0  0  0  0  0
  183.0690  179.2500  141.9980 C   0  0  1  0  0  3  0  0  0  0  0  0
  184.4800  178.9430  139.9390 C   0  0  0  0  0  2  0  0  0  0  0  0
  189.2130  177.4110  146.1040 N   0  0  0  0  0  0  0  0  0  0  0  0
  181.9530  178.8360  139.7090 C   0  0  2  0  0  3  0  0  0  0  0  0
  187.1990  178.3630  138.9450 C   0  0  0  0  0  2  0  0  0  0  0  0
  185.6710  178.8340  140.9100 C   0  0  2  0  0  3  0  0  0  0  0  0
  186.7800  177.9410  140.3580 C   0  0  2  0  0  3  0  0  0  0  0  0
  187.6770  177.8980  142.7810 C   0  0  0  0  0  0  0  0  0  0  0  0
  188.4410  177.4350  147.1850 N   0  0  0  0  0  0  0  0  0  0  0  0
  180.7370  178.1680  141.9050 C   0  0  0  0  0  2  0  0  0  0  0  0
  183.1660  178.5700  140.6160 C   0  0  2  0  0  3  0  0  0  0  0  0
  187.1710  177.6600  146.8520 N   0  0  0  0  0  0  0  0  0  0  0  0
  181.8200  178.8370  142.7720 C   0  0  0  0  0  2  0  0  0  0  0  0
  181.0940  180.0210  140.1470 C   0  0  1  0  0  3  0  0  0  0  0  0
  189.2130  177.8050  140.8690 C   0  0  0  0  0  3  0  0  0  0  0  0
  187.9510  177.9180  141.3220 C   0  0  0  0  0  0  0  0  0  0  0  0
  188.7340  177.6660  143.6940 C   0  0  0  0  0  3  0  0  0  0  0  0
  184.2340  179.2130  142.8150 O   0  0  0  0  0  0  0  0  0  0  0  0
  184.7980  178.1190  145.1830 O   0  0  0  0  0  1  0  0  0  0  0  0
  190.6470  177.1760  146.1130 C   0  0  0  0  0  1  0  0  0  0  0  0
  186.3440  178.1120  143.2670 C   0  0  0  0  0  0  0  0  0  0  0  0
  188.4240  177.6270  145.0460 C   0  0  0  0  0  0  0  0  0  0  0  0
  180.3560  180.5730  138.9430 C   0  0  0  0  0  2  0  0  0  0  0  0
  181.3410  181.0660  137.8970 C   0  0  0  0  0  3  0  0  0  0  0  0
  180.7690  180.8790  136.5050 C   0  0  0  0  0  1  0  0  0  0  0  0
  181.6170  182.5380  138.1260 C   0  0  0  0  0  1  0  0  0  0  0  0
  1 16  1  1  0  0  0
  2 24  1  1  0  0  0
  2 27  1  0  0  0  0
  3 11  1  0  0  0  0
  3  4  1  0  0  0  0
  4 21  1  0  0  0  0
  5 25  1  0  0  0  0
  5  6  1  0  0  0  0
  6 18  1  0  0  0  0
  7 19  1  1  0  0  0
  7 24  1  0  0  0  0
  8 17  1  0  0  0  0
  8 12  1  0  0  0  0
  9 26  1  0  0  0  0
  9 15  1  0  0  0  0
 10 20  1  0  0  0  0
 10  1  1  0  0  0  0
 10 17  1  0  0  0  0
 11 13  1  0  0  0  0
 12  2  1  0  0  0  0
 13 12  1  0  0  0  0
 13 22  1  0  0  0  0
 14 27  1  0  0  0  0
 14 23  2  0  0  0  0
 16 19  1  0  0  0  0
 17  7  1  0  0  0  0
 18 15  2  0  0  0  0
 20  1  1  0  0  0  0
 21 22  2  0  0  0  0
 22 14  1  0  0  0  0
 23 28  1  0  0  0  0
 27  5  2  0  0  0  0
 28  6  2  0  0  0  0
 28  9  1  0  0  0  0
 29 20  1  0  0  0  0
 30 32  1  0  0  0  0
 30 29  1  0  0  0  0
 31 30  1  0  0  0  0
M  END
>  <MODEL>
8

>  <REMARK>
 VINA RESULT:      -8.9      2.875      8.053
  Name = 
  2 active torsions:
  status: ('A' for Active; 'I' for Inactive)
    1  A    between atoms: C_20  and  C_29
    2  A    between atoms: C_29  and  C_30
                            x       y       z     vdW  Elec       q    Type
                         _______ _______ _______ _____ _____    ______ ____

>  <TORSDO>
F 2

$$$$
=
 OpenBabel11122410473D

 32 38  0  0  1  0  0  0  0  0999 V2000
  188.5540  176.8290  138.3520 C   0  0  1  0  0  3  0  0  0  0  0  0
  184.9010  178.3520  141.3380 C   0  0  2  0  0  3  0  0  0  0  0  0
  186.3570  177.6600  146.0840 C   0  0  0  0  0  2  0  0  0  0  0  0
  185.2080  178.5270  146.5850 C   0  0  0  0  0  2  0  0  0  0  0  0
  182.4410  178.8760  140.9270 C   0  0  0  0  0  0  0  0  0  0  0  0
  181.1860  179.1800  141.4430 C   0  0  0  0  0  0  0  0  0  0  0  0
  186.4000  178.5150  139.5460 C   0  0  1  0  0  3  0  0  0  0  0  0
  187.3810  178.1570  141.8340 C   0  0  0  0  0  2  0  0  0  0  0  0
  179.6650  179.5760  142.9380 N   0  0  0  0  0  0  0  0  0  0  0  0
  188.6410  177.2660  139.8170 C   0  0  2  0  0  3  0  0  0  0  0  0
  186.8110  178.1800  144.7310 C   0  0  0  0  0  2  0  0  0  0  0  0
  186.0170  178.6330  142.3680 C   0  0  2  0  0  3  0  0  0  0  0  0
  185.6770  178.0000  143.7150 C   0  0  2  0  0  3  0  0  0  0  0  0
  183.2610  178.7940  143.2520 C   0  0  0  0  0  0  0  0  0  0  0  0
  179.1170  179.6270  141.7290 N   0  0  0  0  0  0  0  0  0  0  0  0
  187.1220  176.8100  137.7600 C   0  0  0  0  0  2  0  0  0  0  0  0
  187.2660  177.5870  140.4250 C   0  0  2  0  0  3  0  0  0  0  0  0
  180.0280  179.3860  140.7870 N   0  0  0  0  0  0  0  0  0  0  0  0
  186.1620  177.9500  138.1480 C   0  0  0  0  0  2  0  0  0  0  0  0
  189.0680  178.2160  138.7000 C   0  0  1  0  0  3  0  0  0  0  0  0
  184.1400  178.7050  145.5430 C   0  0  0  0  0  3  0  0  0  0  0  0
  184.3570  178.5480  144.2240 C   0  0  0  0  0  0  0  0  0  0  0  0
  181.9610  179.1030  143.7200 C   0  0  0  0  0  3  0  0  0  0  0  0
  185.2010  179.0150  140.1260 O   0  0  0  0  0  0  0  0  0  0  0  0
  182.6100  178.7250  139.5540 O   0  0  0  0  0  1  0  0  0  0  0  0
  178.9490  179.7780  144.1850 C   0  0  0  0  0  1  0  0  0  0  0  0
  183.5170  178.7170  141.8430 C   0  0  0  0  0  0  0  0  0  0  0  0
  180.9640  179.2950  142.7750 C   0  0  0  0  0  0  0  0  0  0  0  0
  190.5820  178.2270  138.6080 C   0  0  0  0  0  2  0  0  0  0  0  0
  191.1660  177.0120  139.3070 C   0  0  0  0  0  3  0  0  0  0  0  0
  192.1300  176.2890  138.3870 C   0  0  0  0  0  1  0  0  0  0  0  0
  191.9060  177.4580  140.5500 C   0  0  0  0  0  1  0  0  0  0  0  0
  1 16  1  6  0  0  0
  1 20  1  0  0  0  0
  1 10  1  0  0  0  0
  2 24  1  6  0  0  0
  2 27  1  0  0  0  0
  2 12  1  0  0  0  0
  3  4  1  0  0  0  0
  5  6  2  0  0  0  0
  5 27  1  0  0  0  0
  6 28  1  0  0  0  0
  7 19  1  6  0  0  0
  7 24  1  0  0  0  0
  7 17  1  0  0  0  0
  8 12  1  0  0  0  0
  9 26  1  0  0  0  0
 10 17  1  0  0  0  0
 11  3  1  0  0  0  0
 12 13  1  0  0  0  0
 13 22  1  0  0  0  0
 13 11  1  0  0  0  0
 14 23  1  0  0  0  0
 14 22  1  0  0  0  0
 15  9  1  0  0  0  0
 16 19  1  0  0  0  0
 17  8  1  0  0  0  0
 18  6  1  0  0  0  0
 18 15  2  0  0  0  0
 20 10  1  0  0  0  0
 21  4  1  0  0  0  0
 22 21  2  0  0  0  0
 25  5  1  0  0  0  0
 27 14  2  0  0  0  0
 28  9  1  0  0  0  0
 28 23  2  0  0  0  0
 29 20  1  0  0  0  0
 29 30  1  0  0  0  0
 30 32  1  0  0  0  0
 31 30  1  0  0  0  0
M  END
>  <MODEL>
9

>  <REMARK>
 VINA RESULT:      -8.9      2.747      5.817
  Name = 
  2 active torsions:
  status: ('A' for Active; 'I' for Inactive)
    1  A    between atoms: C_20  and  C_29
    2  A    between atoms: C_29  and  C_30
                            x       y       z     vdW  Elec       q    Type
                         _______ _______ _______ _____ _____    ______ ____

>  <TORSDO>
F 2

$$$$
