=
 OpenBabel11122410373D

 32 37  0  0  1  0  0  0  0  0999 V2000
  188.8550  178.3780  147.5890 C   0  0  0  0  0  3  0  0  0  0  0  0
  185.3240  178.0610  143.5220 C   0  0  1  0  0  3  0  0  0  0  0  0
  187.9380  178.2960  139.3390 C   0  0  0  0  0  3  0  0  0  0  0  0
  186.7700  178.3450  138.5810 C   0  0  0  0  0  3  0  0  0  0  0  0
  182.8330  178.7840  143.4440 C   0  0  0  0  0  0  0  0  0  0  0  0
  181.7010  179.1280  142.5830 C   0  0  0  0  0  0  0  0  0  0  0  0
  186.4910  177.5250  145.6730 C   0  0  1  0  0  3  0  0  0  0  0  0
  187.7540  177.4670  143.4790 C   0  0  0  0  0  2  0  0  0  0  0  0
  180.6400  179.6980  140.7780 C   0  0  0  0  0  0  0  0  0  0  0  0
  188.9830  176.8460  145.5560 C   0  0  0  0  0  2  0  0  0  0  0  0
  187.8700  178.2850  140.6970 N   0  0  0  0  0  0  0  0  0  0  0  0
  186.6840  178.3730  142.8730 C   0  0  1  0  0  3  0  0  0  0  0  0
  186.6800  178.3100  141.3630 C   0  0  0  0  0  0  0  0  0  0  0  0
  184.1450  178.3760  141.3290 C   0  0  2  0  0  3  0  0  0  0  0  0
  179.7780  179.7470  141.8210 N   0  0  0  0  0  0  0  0  0  0  0  0
  187.5650  178.7320  147.6500 C   0  0  0  0  0  3  0  0  0  0  0  0
  187.8630  177.7210  144.9800 C   0  0  2  0  0  3  0  0  0  0  0  0
  180.4300  179.4020  142.9300 N   0  0  0  0  0  2  0  0  0  0  0  0
  186.4810  177.7950  147.1870 C   0  0  0  0  0  2  0  0  0  0  0  0
  189.2650  177.0280  147.0560 C   0  0  1  0  0  3  0  0  0  0  0  0
  185.5390  178.3940  139.2320 C   0  0  0  0  0  3  0  0  0  0  0  0
  185.4780  178.4100  140.6310 C   0  0  0  0  0  0  0  0  0  0  0  0
  183.1000  179.0850  140.5760 N   0  0  0  0  0  2  0  0  0  0  0  0
  185.4320  178.4030  145.0080 C   0  0  0  0  0  2  0  0  0  0  0  0
  182.6560  178.5370  144.6670 O   0  0  0  0  0  0  0  0  0  0  0  0
  180.2820  180.0130  139.3690 C   0  0  0  0  0  1  0  0  0  0  0  0
  184.2190  178.8500  142.8080 C   0  0  2  0  0  3  0  0  0  0  0  0
  181.8610  179.3010  141.2480 C   0  0  0  0  0  0  0  0  0  0  0  0
  190.7380  176.7690  147.3240 C   0  0  0  0  0  2  0  0  0  0  0  0
  191.5170  176.7680  146.0530 C   0  0  0  0  0  0  0  0  0  0  0  0
  191.7620  177.9620  145.3870 O   0  0  0  0  0  0  0  0  0  0  0  0
  191.9790  175.6890  145.5970 O   0  0  0  0  0  1  0  0  0  0  0  0
  1 16  2  0  0  0  0
  2 24  1  1  0  0  0
  3 11  1  0  0  0  0
  4 21  1  0  0  0  0
  4  3  2  0  0  0  0
  5 25  2  0  0  0  0
  6 18  1  0  0  0  0
  6  5  1  0  0  0  0
  7 24  1  6  0  0  0
  7 19  1  0  0  0  0
  9 28  1  0  0  0  0
  9 15  2  0  0  0  0
 10 20  1  0  0  0  0
 11 13  2  0  0  0  0
 12  8  1  1  0  0  0
 12  2  1  0  0  0  0
 13 12  1  0  0  0  0
 14 23  1  6  0  0  0
 14 27  1  0  0  0  0
 15 18  1  0  0  0  0
 17  8  1  6  0  0  0
 17 10  1  0  0  0  0
 17  7  1  0  0  0  0
 19 16  1  0  0  0  0
 20 29  1  6  0  0  0
 20  1  1  0  0  0  0
 21 22  2  0  0  0  0
 22 14  1  0  0  0  0
 22 13  1  0  0  0  0
 23 28  1  0  0  0  0
 26  9  1  0  0  0  0
 27  5  1  1  0  0  0
 27  2  1  0  0  0  0
 28  6  2  0  0  0  0
 30 29  1  0  0  0  0
 31 30  2  0  0  0  0
 32 30  1  0  0  0  0
M  END
>  <MODEL>
1

>  <REMARK>
 VINA RESULT:     -10.4      0.000      0.000
  Name = 
  2 active torsions:
  status: ('A' for Active; 'I' for Inactive)
    1  A    between atoms: C_20  and  C_29
    2  A    between atoms: C_29  and  C_30
                            x       y       z     vdW  Elec       q    Type
                         _______ _______ _______ _____ _____    ______ ____

>  <TORSDO>
F 2

$$$$
=
 OpenBabel11122410373D

 32 37  0  0  1  0  0  0  0  0999 V2000
  191.1160  175.7820  137.2310 C   0  0  0  0  0  3  0  0  0  0  0  0
  188.9990  177.7310  141.7950 C   0  0  1  0  0  3  0  0  0  0  0  0
  191.8790  176.1660  145.4880 C   0  0  0  0  0  3  0  0  0  0  0  0
  190.9960  176.6870  146.4330 C   0  0  0  0  0  3  0  0  0  0  0  0
  186.5340  178.3300  142.3410 C   0  0  0  0  0  0  0  0  0  0  0  0
  185.5570  178.5750  143.4030 C   0  0  0  0  0  0  0  0  0  0  0  0
  189.8640  177.6570  139.4450 C   0  0  1  0  0  3  0  0  0  0  0  0
  191.3710  177.0470  141.3860 C   0  0  0  0  0  2  0  0  0  0  0  0
  184.7020  178.5730  145.3980 C   0  0  0  0  0  0  0  0  0  0  0  0
  192.3440  177.0160  139.0920 C   0  0  0  0  0  2  0  0  0  0  0  0
  191.5780  176.2320  144.1630 N   0  0  0  0  0  0  0  0  0  0  0  0
  190.1250  176.7770  142.2290 C   0  0  1  0  0  3  0  0  0  0  0  0
  190.4290  176.8090  143.7090 C   0  0  0  0  0  0  0  0  0  0  0  0
  188.2390  178.0020  144.1710 C   0  0  2  0  0  3  0  0  0  0  0  0
  183.7530  178.9740  144.5200 N   0  0  0  0  0  0  0  0  0  0  0  0
  189.8310  176.1110  137.4130 C   0  0  0  0  0  3  0  0  0  0  0  0
  191.0650  176.7980  139.9120 C   0  0  2  0  0  3  0  0  0  0  0  0
  184.2750  178.9700  143.2950 N   0  0  0  0  0  0  0  0  0  0  0  0
  189.4470  177.4530  137.9790 C   0  0  0  0  0  2  0  0  0  0  0  0
  192.2210  176.7440  137.5850 C   0  0  1  0  0  3  0  0  0  0  0  0
  189.8030  177.2620  146.0010 C   0  0  0  0  0  3  0  0  0  0  0  0
  189.4880  177.3030  144.6380 C   0  0  0  0  0  0  0  0  0  0  0  0
  187.1380  177.8890  145.1400 N   0  0  0  0  0  0  0  0  0  0  0  0
  188.6520  177.4050  140.3420 C   0  0  0  0  0  2  0  0  0  0  0  0
  186.2800  178.6540  141.1510 O   0  0  0  0  0  0  0  0  0  0  0  0
  184.5000  178.4510  146.8660 C   0  0  0  0  0  1  0  0  0  0  0  0
  187.8010  177.5780  142.7410 C   0  0  2  0  0  3  0  0  0  0  0  0
  185.8530  178.3230  144.7010 C   0  0  0  0  0  0  0  0  0  0  0  0
  193.5560  176.2460  137.0550 C   0  0  0  0  0  2  0  0  0  0  0  0
  194.0600  175.1050  137.8720 C   0  0  0  0  0  0  0  0  0  0  0  0
  193.5510  173.8290  137.6710 O   0  0  0  0  0  0  0  0  0  0  0  0
  194.9670  175.2920  138.7250 O   0  0  0  0  0  1  0  0  0  0  0  0
  1 16  2  0  0  0  0
  1 20  1  0  0  0  0
  2 24  1  6  0  0  0
  2 12  1  0  0  0  0
  2 27  1  0  0  0  0
  3  4  1  0  0  0  0
  5  6  1  0  0  0  0
  6 28  1  0  0  0  0
  7 19  1  6  0  0  0
  7 17  1  0  0  0  0
  7 24  1  0  0  0  0
  9 26  1  0  0  0  0
 11  3  2  0  0  0  0
 12  8  1  6  0  0  0
 12 13  1  0  0  0  0
 13 11  1  0  0  0  0
 13 22  2  0  0  0  0
 14 22  1  1  0  0  0
 14 23  1  0  0  0  0
 15  9  2  0  0  0  0
 16 19  1  0  0  0  0
 17 10  1  6  0  0  0
 17  8  1  0  0  0  0
 18  6  2  0  0  0  0
 18 15  1  0  0  0  0
 20 29  1  1  0  0  0
 20 10  1  0  0  0  0
 21  4  2  0  0  0  0
 22 21  1  0  0  0  0
 25  5  2  0  0  0  0
 27  5  1  6  0  0  0
 27 14  1  0  0  0  0
 28 23  2  0  0  0  0
 28  9  1  0  0  0  0
 29 30  1  0  0  0  0
 30 32  1  0  0  0  0
 31 30  2  0  0  0  0
M  END
>  <MODEL>
2

>  <REMARK>
 VINA RESULT:     -10.3      3.799      7.037
  Name = 
  2 active torsions:
  status: ('A' for Active; 'I' for Inactive)
    1  A    between atoms: C_20  and  C_29
    2  A    between atoms: C_29  and  C_30
                            x       y       z     vdW  Elec       q    Type
                         _______ _______ _______ _____ _____    ______ ____

>  <TORSDO>
F 2

$$$$
=
 OpenBabel11122410373D

 32 37  0  0  1  0  0  0  0  0999 V2000
  192.0920  174.7950  146.0850 C   0  0  0  0  0  3  0  0  0  0  0  0
  188.4180  177.7350  143.4460 C   0  0  1  0  0  3  0  0  0  0  0  0
  184.5560  178.2530  146.4790 C   0  0  0  0  0  3  0  0  0  0  0  0
  183.8150  178.8720  145.4740 C   0  0  0  0  0  3  0  0  0  0  0  0
  187.9990  177.9410  140.8930 C   0  0  0  0  0  0  0  0  0  0  0  0
  187.0460  178.3300  139.8520 C   0  0  0  0  0  0  0  0  0  0  0  0
  190.6280  177.0170  144.3810 C   0  0  1  0  0  3  0  0  0  0  0  0
  188.6740  177.4820  145.9220 C   0  0  0  0  0  2  0  0  0  0  0  0
  185.1410  178.8550  138.9560 C   0  0  0  0  0  0  0  0  0  0  0  0
  190.8520  176.8460  146.9510 C   0  0  0  0  0  2  0  0  0  0  0  0
  185.8010  177.7760  146.2130 N   0  0  0  0  0  0  0  0  0  0  0  0
  187.7290  177.2670  144.7400 C   0  0  1  0  0  3  0  0  0  0  0  0
  186.3730  177.8890  144.9810 C   0  0  0  0  0  0  0  0  0  0  0  0
  186.2570  178.6640  142.5690 C   0  0  2  0  0  3  0  0  0  0  0  0
  186.0560  178.7000  137.9700 N   0  0  0  0  0  0  0  0  0  0  0  0
  191.9760  174.8810  144.7540 C   0  0  0  0  0  3  0  0  0  0  0  0
  189.9470  176.6630  145.7260 C   0  0  2  0  0  3  0  0  0  0  0  0
  187.2240  178.3730  138.5190 N   0  0  0  0  0  0  0  0  0  0  0  0
  191.9050  176.2190  144.0670 C   0  0  0  0  0  2  0  0  0  0  0  0
  192.1570  176.0350  146.9400 C   0  0  1  0  0  3  0  0  0  0  0  0
  184.3630  178.9830  144.1970 C   0  0  0  0  0  3  0  0  0  0  0  0
  185.6350  178.4650  143.9250 C   0  0  0  0  0  0  0  0  0  0  0  0
  185.2590  178.6680  141.4900 N   0  0  0  0  0  0  0  0  0  0  0  0
  189.6420  176.8460  143.2260 C   0  0  0  0  0  2  0  0  0  0  0  0
  189.2120  177.7550  140.6130 O   0  0  0  0  0  0  0  0  0  0  0  0
  183.7170  179.2230  138.7380 C   0  0  0  0  0  1  0  0  0  0  0  0
  187.4210  177.6740  142.2810 C   0  0  2  0  0  3  0  0  0  0  0  0
  185.7590  178.6280  140.1550 C   0  0  0  0  0  0  0  0  0  0  0  0
  192.5410  175.6830  148.3680 C   0  0  0  0  0  2  0  0  0  0  0  0
  193.0210  176.8900  149.1010 C   0  0  0  0  0  0  0  0  0  0  0  0
  194.3060  176.9180  149.6260 O   0  0  0  0  0  1  0  0  0  0  0  0
  192.2720  177.8950  149.2180 O   0  0  0  0  0  0  0  0  0  0  0  0
  1 20  1  0  0  0  0
  2 24  1  6  0  0  0
  2 12  1  0  0  0  0
  4  3  2  0  0  0  0
  6 28  1  0  0  0  0
  6  5  1  0  0  0  0
  7 24  1  6  0  0  0
  7 17  1  0  0  0  0
  9 28  1  0  0  0  0
 11  3  1  0  0  0  0
 12 13  1  0  0  0  0
 12  8  1  1  0  0  0
 13 11  2  0  0  0  0
 14 23  1  6  0  0  0
 14 22  1  0  0  0  0
 15 18  1  0  0  0  0
 15  9  2  0  0  0  0
 16  1  2  0  0  0  0
 17  8  1  1  0  0  0
 17 10  1  0  0  0  0
 18  6  2  0  0  0  0
 19  7  1  0  0  0  0
 19 16  1  0  0  0  0
 20 10  1  0  0  0  0
 20 29  1  1  0  0  0
 21  4  1  0  0  0  0
 22 21  2  0  0  0  0
 22 13  1  0  0  0  0
 25  5  2  0  0  0  0
 26  9  1  0  0  0  0
 27  5  1  6  0  0  0
 27 14  1  0  0  0  0
 27  2  1  0  0  0  0
 28 23  2  0  0  0  0
 29 30  1  0  0  0  0
 30 32  2  0  0  0  0
 30 31  1  0  0  0  0
M  END
>  <MODEL>
3

>  <REMARK>
 VINA RESULT:     -10.3      2.753      4.971
  Name = 
  2 active torsions:
  status: ('A' for Active; 'I' for Inactive)
    1  A    between atoms: C_20  and  C_29
    2  A    between atoms: C_29  and  C_30
                            x       y       z     vdW  Elec       q    Type
                         _______ _______ _______ _____ _____    ______ ____

>  <TORSDO>
F 2

$$$$
=
 OpenBabel11122410373D

 32 37  0  0  1  0  0  0  0  0999 V2000
  189.7370  177.9420  146.1420 C   0  0  0  0  0  3  0  0  0  0  0  0
  186.3850  177.8810  141.9140 C   0  0  1  0  0  3  0  0  0  0  0  0
  189.1690  178.4490  137.8760 C   0  0  0  0  0  3  0  0  0  0  0  0
  188.0330  178.5390  137.0730 C   0  0  0  0  0  3  0  0  0  0  0  0
  183.8890  178.5790  141.7830 C   0  0  0  0  0  0  0  0  0  0  0  0
  182.7890  178.9720  140.9010 C   0  0  0  0  0  0  0  0  0  0  0  0
  187.4690  177.2040  144.0690 C   0  0  1  0  0  3  0  0  0  0  0  0
  188.8230  177.3190  141.9330 C   0  0  0  0  0  2  0  0  0  0  0  0
  181.7960  179.6580  139.0970 C   0  0  0  0  0  0  0  0  0  0  0  0
  189.9730  176.5630  144.0110 C   0  0  0  0  0  2  0  0  0  0  0  0
  189.0430  178.3390  139.2250 N   0  0  0  0  0  0  0  0  0  0  0  0
  187.7660  178.2550  141.3490 C   0  0  1  0  0  3  0  0  0  0  0  0
  187.8260  178.3010  139.8400 C   0  0  0  0  0  0  0  0  0  0  0  0
  185.2950  178.3400  139.7010 C   0  0  2  0  0  3  0  0  0  0  0  0
  180.8910  179.6220  140.1030 N   0  0  0  0  0  0  0  0  0  0  0  0
  188.4410  178.2760  146.1730 C   0  0  0  0  0  3  0  0  0  0  0  0
  188.8650  177.4650  143.4520 C   0  0  2  0  0  3  0  0  0  0  0  0
  181.5010  179.2050  141.2120 N   0  0  0  0  0  2  0  0  0  0  0  0
  187.3910  177.3630  145.5970 C   0  0  0  0  0  2  0  0  0  0  0  0
  190.1880  176.6400  145.5300 C   0  0  1  0  0  3  0  0  0  0  0  0
  186.7750  178.5270  137.6730 C   0  0  0  0  0  3  0  0  0  0  0  0
  186.6550  178.4400  139.0650 C   0  0  0  0  0  0  0  0  0  0  0  0
  184.2720  179.0900  138.9570 N   0  0  0  0  0  2  0  0  0  0  0  0
  186.4250  178.1150  143.4240 C   0  0  0  0  0  2  0  0  0  0  0  0
  183.6640  178.2420  142.9750 O   0  0  0  0  0  0  0  0  0  0  0  0
  181.4940  180.0720  137.7010 C   0  0  0  0  0  1  0  0  0  0  0  0
  185.2990  178.7070  141.2120 C   0  0  2  0  0  3  0  0  0  0  0  0
  183.0030  179.2430  139.5900 C   0  0  0  0  0  0  0  0  0  0  0  0
  191.6530  176.3790  145.8430 C   0  0  0  0  0  2  0  0  0  0  0  0
  191.8430  176.0890  147.2930 C   0  0  0  0  0  0  0  0  0  0  0  0
  192.0890  177.1270  148.1820 O   0  0  0  0  0  1  0  0  0  0  0  0
  191.7510  174.9080  147.7180 O   0  0  0  0  0  0  0  0  0  0  0  0
  1 16  2  0  0  0  0
  2 24  1  1  0  0  0
  3 11  1  0  0  0  0
  4 21  1  0  0  0  0
  4  3  2  0  0  0  0
  5 25  2  0  0  0  0
  6 18  1  0  0  0  0
  6  5  1  0  0  0  0
  7 24  1  6  0  0  0
  7 19  1  0  0  0  0
  9 28  1  0  0  0  0
  9 15  2  0  0  0  0
 10 20  1  0  0  0  0
 11 13  2  0  0  0  0
 12  2  1  0  0  0  0
 12  8  1  6  0  0  0
 13 12  1  0  0  0  0
 14 23  1  6  0  0  0
 14 27  1  0  0  0  0
 15 18  1  0  0  0  0
 17  8  1  6  0  0  0
 17 10  1  0  0  0  0
 17  7  1  0  0  0  0
 19 16  1  0  0  0  0
 20 29  1  6  0  0  0
 20  1  1  0  0  0  0
 21 22  2  0  0  0  0
 22 14  1  0  0  0  0
 22 13  1  0  0  0  0
 23 28  1  0  0  0  0
 26  9  1  0  0  0  0
 27  5  1  1  0  0  0
 27  2  1  0  0  0  0
 28  6  2  0  0  0  0
 29 30  1  0  0  0  0
 30 32  2  0  0  0  0
 30 31  1  0  0  0  0
M  END
>  <MODEL>
4

>  <REMARK>
 VINA RESULT:     -10.0      1.514      1.969
  Name = 
  2 active torsions:
  status: ('A' for Active; 'I' for Inactive)
    1  A    between atoms: C_20  and  C_29
    2  A    between atoms: C_29  and  C_30
                            x       y       z     vdW  Elec       q    Type
                         _______ _______ _______ _____ _____    ______ ____

>  <TORSDO>
F 2

$$$$
=
 OpenBabel11122410373D

 32 37  0  0  1  0  0  0  0  0999 V2000
  182.0710  178.1630  140.1300 C   0  0  0  0  0  3  0  0  0  0  0  0
  186.7570  178.3330  142.7990 C   0  0  1  0  0  3  0  0  0  0  0  0
  190.3110  177.3760  139.5070 C   0  0  0  0  0  3  0  0  0  0  0  0
  191.2730  177.3480  140.5150 C   0  0  0  0  0  3  0  0  0  0  0  0
  187.2460  177.8380  145.2990 C   0  0  0  0  0  0  0  0  0  0  0  0
  188.2730  177.5030  146.2860 C   0  0  0  0  0  0  0  0  0  0  0  0
  184.4820  179.0030  141.9920 C   0  0  1  0  0  3  0  0  0  0  0  0
  186.3840  178.6910  140.3500 C   0  0  0  0  0  2  0  0  0  0  0  0
  190.1870  176.8290  147.0560 C   0  0  0  0  0  0  0  0  0  0  0  0
  184.1770  179.4310  139.4600 C   0  0  0  0  0  2  0  0  0  0  0  0
  188.9990  177.5500  139.8210 N   0  0  0  0  0  0  0  0  0  0  0  0
  187.0960  177.8230  141.3870 C   0  0  1  0  0  3  0  0  0  0  0  0
  188.5770  177.7120  141.1080 C   0  0  0  0  0  0  0  0  0  0  0  0
  189.0960  177.8770  143.5840 C   0  0  2  0  0  3  0  0  0  0  0  0
  189.3310  176.9810  148.0940 N   0  0  0  0  0  0  0  0  0  0  0  0
  182.2270  177.9390  141.4400 C   0  0  0  0  0  3  0  0  0  0  0  0
  184.8730  178.6030  140.5480 C   0  0  2  0  0  3  0  0  0  0  0  0
  188.1540  177.3890  147.6210 N   0  0  0  0  0  2  0  0  0  0  0  0
  182.9790  178.9120  142.3090 C   0  0  0  0  0  2  0  0  0  0  0  0
  182.6420  179.3980  139.4800 C   0  0  1  0  0  3  0  0  0  0  0  0
  190.8710  177.4880  141.8410 C   0  0  0  0  0  3  0  0  0  0  0  0
  189.5160  177.6390  142.1590 C   0  0  0  0  0  0  0  0  0  0  0  0
  189.9660  177.1850  144.5470 N   0  0  0  0  0  2  0  0  0  0  0  0
  185.2520  178.1550  143.0040 C   0  0  0  0  0  2  0  0  0  0  0  0
  186.1110  178.2400  145.6680 O   0  0  0  0  0  0  0  0  0  0  0  0
  191.6010  176.3870  147.1830 C   0  0  0  0  0  1  0  0  0  0  0  0
  187.5930  177.5720  143.8360 C   0  0  2  0  0  3  0  0  0  0  0  0
  189.5290  177.1630  145.9040 C   0  0  0  0  0  0  0  0  0  0  0  0
  182.1180  179.5490  138.0610 C   0  0  0  0  0  2  0  0  0  0  0  0
  181.2060  180.7240  137.9540 C   0  0  0  0  0  0  0  0  0  0  0  0
  180.8200  181.4100  139.0980 O   0  0  0  0  0  1  0  0  0  0  0  0
  180.8080  181.1130  136.8250 O   0  0  0  0  0  0  0  0  0  0  0  0
  1 16  2  0  0  0  0
  2 24  1  1  0  0  0
  2 27  1  0  0  0  0
  3 11  2  0  0  0  0
  3  4  1  0  0  0  0
  4 21  2  0  0  0  0
  5 25  2  0  0  0  0
  5  6  1  0  0  0  0
  6 18  1  0  0  0  0
  7 19  1  6  0  0  0
  7 24  1  0  0  0  0
  8 17  1  0  0  0  0
  9 26  1  0  0  0  0
  9 15  2  0  0  0  0
 10 20  1  0  0  0  0
 11 13  1  0  0  0  0
 12  8  1  6  0  0  0
 12  2  1  0  0  0  0
 13 12  1  0  0  0  0
 13 22  2  0  0  0  0
 14 22  1  6  0  0  0
 14 27  1  0  0  0  0
 14 23  1  0  0  0  0
 16 19  1  0  0  0  0
 17 10  1  6  0  0  0
 17  7  1  0  0  0  0
 18 15  1  0  0  0  0
 20 29  1  6  0  0  0
 20  1  1  0  0  0  0
 21 22  1  0  0  0  0
 23 28  1  0  0  0  0
 27  5  1  1  0  0  0
 28  6  2  0  0  0  0
 28  9  1  0  0  0  0
 30 29  1  0  0  0  0
 30 31  1  0  0  0  0
 32 30  2  0  0  0  0
M  END
>  <MODEL>
5

>  <REMARK>
 VINA RESULT:     -10.0      3.309      8.216
  Name = 
  2 active torsions:
  status: ('A' for Active; 'I' for Inactive)
    1  A    between atoms: C_20  and  C_29
    2  A    between atoms: C_29  and  C_30
                            x       y       z     vdW  Elec       q    Type
                         _______ _______ _______ _____ _____    ______ ____

>  <TORSDO>
F 2

$$$$
=
 OpenBabel11122410373D

 32 37  0  0  1  0  0  0  0  0999 V2000
  188.5500  178.9970  136.9180 C   0  0  0  0  0  3  0  0  0  0  0  0
  187.6390  177.6970  142.0750 C   0  0  1  0  0  3  0  0  0  0  0  0
  183.1020  179.3070  143.1740 C   0  0  0  0  0  3  0  0  0  0  0  0
  183.2770  178.9650  144.5140 C   0  0  0  0  0  3  0  0  0  0  0  0
  189.3310  177.3970  144.0200 C   0  0  0  0  0  0  0  0  0  0  0  0
  189.5060  177.3490  145.4720 C   0  0  0  0  0  0  0  0  0  0  0  0
  188.3140  177.4670  139.6730 C   0  0  1  0  0  3  0  0  0  0  0  0
  185.9400  178.1030  140.2830 C   0  0  0  0  0  2  0  0  0  0  0  0
  189.0280  177.6200  147.5720 C   0  0  0  0  0  0  0  0  0  0  0  0
  186.4960  177.8260  137.8700 C   0  0  0  0  0  2  0  0  0  0  0  0
  184.1240  179.1480  142.2910 N   0  0  0  0  0  0  0  0  0  0  0  0
  186.4480  178.5720  141.6460 C   0  0  1  0  0  3  0  0  0  0  0  0
  185.3360  178.6470  142.6660 C   0  0  0  0  0  0  0  0  0  0  0  0
  186.8680  177.7240  144.4630 C   0  0  2  0  0  3  0  0  0  0  0  0
  190.3220  177.2360  147.4680 N   0  0  0  0  0  0  0  0  0  0  0  0
  189.4920  178.8140  137.8510 C   0  0  0  0  0  3  0  0  0  0  0  0
  187.0460  178.2430  139.2400 C   0  0  2  0  0  3  0  0  0  0  0  0
  190.6170  177.0740  146.1790 N   0  0  0  0  0  0  0  0  0  0  0  0
  189.5060  177.5750  138.7070 C   0  0  0  0  0  2  0  0  0  0  0  0
  187.4720  177.9680  136.6910 C   0  0  1  0  0  3  0  0  0  0  0  0
  184.5110  178.4730  144.9330 C   0  0  0  0  0  3  0  0  0  0  0  0
  185.5660  178.3370  144.0240 C   0  0  0  0  0  0  0  0  0  0  0  0
  187.1890  178.0350  145.8640 N   0  0  0  0  0  0  0  0  0  0  0  0
  188.7630  177.9190  141.0630 C   0  0  0  0  0  2  0  0  0  0  0  0
  190.2420  176.9910  143.2520 O   0  0  0  0  0  0  0  0  0  0  0  0
  188.3280  177.8970  148.8540 C   0  0  0  0  0  1  0  0  0  0  0  0
  188.0510  178.0540  143.5090 C   0  0  2  0  0  3  0  0  0  0  0  0
  188.4980  177.6900  146.3130 C   0  0  0  0  0  0  0  0  0  0  0  0
  186.6880  178.2800  135.4270 C   0  0  0  0  0  2  0  0  0  0  0  0
  185.9540  177.0740  134.9470 C   0  0  0  0  0  0  0  0  0  0  0  0
  186.6160  175.8600  134.8240 O   0  0  0  0  0  1  0  0  0  0  0  0
  184.7260  177.1490  134.6800 O   0  0  0  0  0  0  0  0  0  0  0  0
  1 16  2  0  0  0  0
  2 24  1  6  0  0  0
  2 27  1  0  0  0  0
  3  4  1  0  0  0  0
  4 21  2  0  0  0  0
  5  6  1  0  0  0  0
  6 18  2  0  0  0  0
  6 28  1  0  0  0  0
  7 19  1  6  0  0  0
  7 24  1  0  0  0  0
  9 26  1  0  0  0  0
 11 13  1  0  0  0  0
 11  3  2  0  0  0  0
 12  8  1  6  0  0  0
 12  2  1  0  0  0  0
 12 13  1  0  0  0  0
 13 22  2  0  0  0  0
 14 22  1  6  0  0  0
 14 23  1  0  0  0  0
 15  9  2  0  0  0  0
 16 19  1  0  0  0  0
 17 10  1  6  0  0  0
 17  7  1  0  0  0  0
 17  8  1  0  0  0  0
 18 15  1  0  0  0  0
 20 29  1  6  0  0  0
 20  1  1  0  0  0  0
 20 10  1  0  0  0  0
 22 21  1  0  0  0  0
 23 28  2  0  0  0  0
 25  5  2  0  0  0  0
 27  5  1  1  0  0  0
 27 14  1  0  0  0  0
 28  9  1  0  0  0  0
 30 29  1  0  0  0  0
 31 30  1  0  0  0  0
 32 30  2  0  0  0  0
M  END
>  <MODEL>
6

>  <REMARK>
 VINA RESULT:      -9.9      3.635      8.403
  Name = 
  2 active torsions:
  status: ('A' for Active; 'I' for Inactive)
    1  A    between atoms: C_20  and  C_29
    2  A    between atoms: C_29  and  C_30
                            x       y       z     vdW  Elec       q    Type
                         _______ _______ _______ _____ _____    ______ ____

>  <TORSDO>
F 2

$$$$
=
 OpenBabel11122410373D

 32 37  0  0  1  0  0  0  0  0999 V2000
  181.4670  180.6440  139.1930 C   0  0  0  0  0  3  0  0  0  0  0  0
  185.5600  178.2520  141.7700 C   0  0  1  0  0  3  0  0  0  0  0  0
  184.6200  178.6280  146.6030 C   0  0  0  0  0  3  0  0  0  0  0  0
  185.8670  178.0900  146.9150 C   0  0  0  0  0  3  0  0  0  0  0  0
  188.0300  177.9650  141.0270 C   0  0  0  0  0  0  0  0  0  0  0  0
  189.3980  177.6880  141.4650 C   0  0  0  0  0  0  0  0  0  0  0  0
  183.7060  178.6180  140.1250 C   0  0  1  0  0  3  0  0  0  0  0  0
  183.2310  178.6100  142.6120 C   0  0  0  0  0  2  0  0  0  0  0  0
  191.0740  177.4590  142.8250 C   0  0  0  0  0  0  0  0  0  0  0  0
  181.3100  178.9080  141.0520 C   0  0  0  0  0  2  0  0  0  0  0  0
  184.2800  178.8570  145.3060 N   0  0  0  0  0  0  0  0  0  0  0  0
  184.7060  178.9170  142.8640 C   0  0  1  0  0  3  0  0  0  0  0  0
  185.1220  178.5640  144.2740 C   0  0  0  0  0  0  0  0  0  0  0  0
  187.3430  177.6730  143.4380 C   0  0  2  0  0  3  0  0  0  0  0  0
  191.5340  177.3850  141.5530 N   0  0  0  0  0  0  0  0  0  0  0  0
  182.7080  180.4970  138.7130 C   0  0  0  0  0  3  0  0  0  0  0  0
  182.8070  179.1730  141.2570 C   0  0  2  0  0  3  0  0  0  0  0  0
  190.5070  177.5300  140.7180 N   0  0  0  0  0  0  0  0  0  0  0  0
  183.3870  179.1530  138.7180 C   0  0  0  0  0  2  0  0  0  0  0  0
  180.7080  179.4690  139.7550 C   0  0  1  0  0  3  0  0  0  0  0  0
  186.7590  177.8030  145.8830 C   0  0  0  0  0  3  0  0  0  0  0  0
  186.4120  178.0660  144.5530 C   0  0  0  0  0  0  0  0  0  0  0  0
  188.7580  177.7810  143.8250 N   0  0  0  0  0  0  0  0  0  0  0  0
  185.1780  178.8910  140.4350 C   0  0  0  0  0  2  0  0  0  0  0  0
  187.7250  177.9110  139.8070 O   0  0  0  0  0  0  0  0  0  0  0  0
  191.9230  177.3390  144.0400 C   0  0  0  0  0  1  0  0  0  0  0  0
  187.0480  178.4180  142.1050 C   0  0  2  0  0  3  0  0  0  0  0  0
  189.7200  177.6460  142.7810 C   0  0  0  0  0  0  0  0  0  0  0  0
  179.2520  179.8350  139.9950 C   0  0  0  0  0  2  0  0  0  0  0  0
  179.1420  181.1660  140.6590 C   0  0  0  0  0  0  0  0  0  0  0  0
  178.9310  182.3070  139.8970 O   0  0  0  0  0  0  0  0  0  0  0  0
  179.2120  181.2530  141.9130 O   0  0  0  0  0  1  0  0  0  0  0  0
  1 20  1  0  0  0  0
  2 24  1  6  0  0  0
  2 27  1  0  0  0  0
  2 12  1  0  0  0  0
  3  4  1  0  0  0  0
  5  6  1  0  0  0  0
  6 28  1  0  0  0  0
  7 19  1  6  0  0  0
  7 24  1  0  0  0  0
  7 17  1  0  0  0  0
  9 26  1  0  0  0  0
 11  3  2  0  0  0  0
 12  8  1  6  0  0  0
 12 13  1  0  0  0  0
 13 22  2  0  0  0  0
 13 11  1  0  0  0  0
 14 23  1  1  0  0  0
 14 22  1  0  0  0  0
 15  9  2  0  0  0  0
 16 19  1  0  0  0  0
 16  1  2  0  0  0  0
 17 10  1  6  0  0  0
 17  8  1  0  0  0  0
 18  6  2  0  0  0  0
 18 15  1  0  0  0  0
 20 29  1  1  0  0  0
 20 10  1  0  0  0  0
 21  4  2  0  0  0  0
 22 21  1  0  0  0  0
 25  5  2  0  0  0  0
 27  5  1  6  0  0  0
 27 14  1  0  0  0  0
 28  9  1  0  0  0  0
 28 23  2  0  0  0  0
 29 30  1  0  0  0  0
 30 32  1  0  0  0  0
 31 30  2  0  0  0  0
M  END
>  <MODEL>
7

>  <REMARK>
 VINA RESULT:      -9.7      2.978      8.918
  Name = 
  2 active torsions:
  status: ('A' for Active; 'I' for Inactive)
    1  A    between atoms: C_20  and  C_29
    2  A    between atoms: C_29  and  C_30
                            x       y       z     vdW  Elec       q    Type
                         _______ _______ _______ _____ _____    ______ ____

>  <TORSDO>
F 2

$$$$
=
 OpenBabel11122410373D

 32 37  0  0  1  0  0  0  0  0999 V2000
  180.3650  178.2460  141.7250 C   0  0  0  0  0  3  0  0  0  0  0  0
  185.3900  178.6020  143.6570 C   0  0  1  0  0  3  0  0  0  0  0  0
  188.4410  177.8750  139.8430 C   0  0  0  0  0  3  0  0  0  0  0  0
  189.5460  177.8770  140.6930 C   0  0  0  0  0  3  0  0  0  0  0  0
  186.2760  178.0910  146.0420 C   0  0  0  0  0  0  0  0  0  0  0  0
  187.4560  177.7900  146.8540 C   0  0  0  0  0  0  0  0  0  0  0  0
  182.9900  179.1730  143.2200 C   0  0  1  0  0  3  0  0  0  0  0  0
  184.6320  178.9810  141.3030 C   0  0  0  0  0  2  0  0  0  0  0  0
  189.4940  177.1990  147.3090 C   0  0  0  0  0  0  0  0  0  0  0  0
  182.2840  179.6270  140.7750 C   0  0  0  0  0  2  0  0  0  0  0  0
  187.1860  177.9790  140.3570 N   0  0  0  0  0  0  0  0  0  0  0  0
  185.5330  178.1330  142.1990 C   0  0  1  0  0  3  0  0  0  0  0  0
  186.9580  178.0990  141.6960 C   0  0  0  0  0  0  0  0  0  0  0  0
  187.8400  178.2480  144.0680 C   0  0  2  0  0  3  0  0  0  0  0  0
  188.8000  177.2920  148.4680 N   0  0  0  0  0  0  0  0  0  0  0  0
  180.7290  178.0080  142.9910 C   0  0  0  0  0  3  0  0  0  0  0  0
  183.1750  178.8160  141.7250 C   0  0  2  0  0  3  0  0  0  0  0  0
  187.5480  177.6500  148.1890 N   0  0  0  0  0  2  0  0  0  0  0  0
  181.5590  179.0030  143.7590 C   0  0  0  0  0  2  0  0  0  0  0  0
  180.7720  179.5180  141.0260 C   0  0  1  0  0  3  0  0  0  0  0  0
  189.3450  177.9760  142.0680 C   0  0  0  0  0  3  0  0  0  0  0  0
  188.0480  178.0550  142.5900 C   0  0  0  0  0  0  0  0  0  0  0  0
  188.8770  177.5850  144.8720 N   0  0  0  0  0  2  0  0  0  0  0  0
  183.9440  178.3480  144.0830 C   0  0  0  0  0  2  0  0  0  0  0  0
  185.1930  178.4310  146.5880 O   0  0  0  0  0  0  0  0  0  0  0  0
  190.9300  176.8250  147.2100 C   0  0  0  0  0  1  0  0  0  0  0  0
  186.4080  177.8660  144.5380 C   0  0  2  0  0  3  0  0  0  0  0  0
  188.6530  177.5190  146.2790 C   0  0  0  0  0  0  0  0  0  0  0  0
  180.0330  179.6670  139.7060 C   0  0  0  0  0  2  0  0  0  0  0  0
  179.9480  181.1000  139.3040 C   0  0  0  0  0  0  0  0  0  0  0  0
  179.1930  181.9900  140.0570 O   0  0  0  0  0  1  0  0  0  0  0  0
  180.5840  181.5110  138.2980 O   0  0  0  0  0  0  0  0  0  0  0  0
  1 16  2  0  0  0  0
  2 24  1  1  0  0  0
  2 27  1  0  0  0  0
  3 11  2  0  0  0  0
  3  4  1  0  0  0  0
  4 21  2  0  0  0  0
  5 25  2  0  0  0  0
  5  6  1  0  0  0  0
  6 18  1  0  0  0  0
  7 19  1  1  0  0  0
  7 24  1  0  0  0  0
  8 17  1  0  0  0  0
  9 15  2  0  0  0  0
 10 20  1  0  0  0  0
 11 13  1  0  0  0  0
 12  8  1  6  0  0  0
 12  2  1  0  0  0  0
 13 12  1  0  0  0  0
 13 22  2  0  0  0  0
 14 22  1  6  0  0  0
 14 27  1  0  0  0  0
 14 23  1  0  0  0  0
 16 19  1  0  0  0  0
 17 10  1  6  0  0  0
 17  7  1  0  0  0  0
 18 15  1  0  0  0  0
 20 29  1  6  0  0  0
 20  1  1  0  0  0  0
 21 22  1  0  0  0  0
 23 28  1  0  0  0  0
 26  9  1  0  0  0  0
 27  5  1  1  0  0  0
 28  6  2  0  0  0  0
 28  9  1  0  0  0  0
 30 29  1  0  0  0  0
 30 31  1  0  0  0  0
 32 30  2  0  0  0  0
M  END
>  <MODEL>
8

>  <REMARK>
 VINA RESULT:      -9.3      2.955      8.086
  Name = 
  2 active torsions:
  status: ('A' for Active; 'I' for Inactive)
    1  A    between atoms: C_20  and  C_29
    2  A    between atoms: C_29  and  C_30
                            x       y       z     vdW  Elec       q    Type
                         _______ _______ _______ _____ _____    ______ ____

>  <TORSDO>
F 2

$$$$
=
 OpenBabel11122410373D

 32 37  0  0  1  0  0  0  0  0999 V2000
  186.8070  177.2640  144.5640 C   0  0  0  0  0  3  0  0  0  0  0  0
  189.3820  177.6210  139.8360 C   0  0  1  0  0  3  0  0  0  0  0  0
  185.9220  177.5240  136.3140 C   0  0  0  0  0  3  0  0  0  0  0  0
  186.8970  177.4750  135.3200 C   0  0  0  0  0  3  0  0  0  0  0  0
  191.7830  176.8620  139.2070 C   0  0  0  0  0  0  0  0  0  0  0  0
  192.6940  176.5210  138.1150 C   0  0  0  0  0  0  0  0  0  0  0  0
  188.7180  178.1240  142.1980 C   0  0  1  0  0  3  0  0  0  0  0  0
  187.0120  178.2530  140.3320 C   0  0  0  0  0  2  0  0  0  0  0  0
  193.3290  175.9780  136.1120 C   0  0  0  0  0  0  0  0  0  0  0  0
  186.2730  178.8440  142.6370 C   0  0  0  0  0  2  0  0  0  0  0  0
  186.2820  177.5020  137.6250 N   0  0  0  0  0  0  0  0  0  0  0  0
  187.9080  177.3450  139.4910 C   0  0  1  0  0  3  0  0  0  0  0  0
  187.5870  177.4440  138.0170 C   0  0  0  0  0  0  0  0  0  0  0  0
  190.0520  177.3400  137.4340 C   0  0  2  0  0  3  0  0  0  0  0  0
  194.3950  175.8920  136.9430 N   0  0  0  0  0  0  0  0  0  0  0  0
  188.0720  176.8880  144.3380 C   0  0  0  0  0  3  0  0  0  0  0  0
  187.2250  177.9650  141.8150 C   0  0  2  0  0  3  0  0  0  0  0  0
  194.0050  176.2200  138.1730 N   0  0  0  0  0  2  0  0  0  0  0  0
  189.0490  177.8190  143.6690 C   0  0  0  0  0  2  0  0  0  0  0  0
  186.3190  178.6310  144.1580 C   0  0  1  0  0  3  0  0  0  0  0  0
  188.2380  177.3910  135.6890 C   0  0  0  0  0  3  0  0  0  0  0  0
  188.6000  177.3420  137.0400 C   0  0  0  0  0  0  0  0  0  0  0  0
  190.8960  176.6330  136.4590 N   0  0  0  0  0  2  0  0  0  0  0  0
  189.5910  177.2460  141.3030 C   0  0  0  0  0  2  0  0  0  0  0  0
  192.2240  177.0780  140.3670 O   0  0  0  0  0  0  0  0  0  0  0  0
  193.3680  175.6900  134.6540 C   0  0  0  0  0  1  0  0  0  0  0  0
  190.2910  176.8320  138.8840 C   0  0  2  0  0  3  0  0  0  0  0  0
  192.2460  176.3820  136.8430 C   0  0  0  0  0  0  0  0  0  0  0  0
  184.9440  178.9060  144.7440 C   0  0  0  0  0  2  0  0  0  0  0  0
  184.9980  178.9380  146.2340 C   0  0  0  0  0  0  0  0  0  0  0  0
  185.9230  179.7500  146.8770 O   0  0  0  0  0  0  0  0  0  0  0  0
  184.1870  178.2530  146.9100 O   0  0  0  0  0  1  0  0  0  0  0  0
  2 24  1  1  0  0  0
  3 11  1  0  0  0  0
  4 21  1  0  0  0  0
  4  3  2  0  0  0  0
  5 25  2  0  0  0  0
  6 18  1  0  0  0  0
  6  5  1  0  0  0  0
  7 24  1  6  0  0  0
  7 19  1  0  0  0  0
  9 28  1  0  0  0  0
  9 15  2  0  0  0  0
 10 20  1  0  0  0  0
 11 13  2  0  0  0  0
 12  2  1  0  0  0  0
 12  8  1  1  0  0  0
 13 12  1  0  0  0  0
 14 23  1  6  0  0  0
 14 27  1  0  0  0  0
 15 18  1  0  0  0  0
 16  1  2  0  0  0  0
 17  8  1  6  0  0  0
 17  7  1  0  0  0  0
 17 10  1  0  0  0  0
 19 16  1  0  0  0  0
 20  1  1  0  0  0  0
 20 29  1  6  0  0  0
 21 22  2  0  0  0  0
 22 14  1  0  0  0  0
 22 13  1  0  0  0  0
 23 28  1  0  0  0  0
 26  9  1  0  0  0  0
 27  5  1  1  0  0  0
 27  2  1  0  0  0  0
 28  6  2  0  0  0  0
 29 30  1  0  0  0  0
 30 31  2  0  0  0  0
 30 32  1  0  0  0  0
M  END
>  <MODEL>
9

>  <REMARK>
 VINA RESULT:      -9.1      3.788      8.034
  Name = 
  2 active torsions:
  status: ('A' for Active; 'I' for Inactive)
    1  A    between atoms: C_20  and  C_29
    2  A    between atoms: C_29  and  C_30
                            x       y       z     vdW  Elec       q    Type
                         _______ _______ _______ _____ _____    ______ ____

>  <TORSDO>
F 2

$$$$
