=
 OpenBabel11122411503D

 28 32  0  0  1  0  0  0  0  0999 V2000
  180.9380  178.5410  142.2890 C   0  0  0  0  0  0  0  0  0  0  0  0
  180.7040  181.2760  139.4950 O   0  0  0  0  0  0  0  0  0  0  0  0
  179.8870  175.2110  137.3540 C   0  0  0  0  0  1  0  0  0  0  0  0
  183.6350  178.9090  142.9560 C   0  0  0  0  0  3  0  0  0  0  0  0
  182.1560  175.7560  137.4840 C   0  0  1  0  0  3  0  0  0  0  0  0
  179.4980  178.2730  141.9880 C   0  0  0  0  0  2  0  0  0  0  0  0
  182.9140  181.8640  138.5890 O   0  0  0  0  0  0  0  0  0  0  0  0
  181.7770  180.8850  138.5190 S   0  0  0  0  0  0  0  0  0  0  0  0
  181.0190  179.6400  136.1990 C   0  0  0  0  0  0  0  0  0  0  0  0
  182.3890  179.2570  138.8780 C   0  0  2  0  0  3  0  0  0  0  0  0
  179.1670  174.6940  141.7620 O   0  0  0  0  0  0  0  0  0  0  0  0
  181.7770  177.0480  139.3510 C   0  0  2  0  0  3  0  0  0  0  0  0
  181.6320  178.5540  136.5680 N   0  0  0  0  0  0  0  0  0  0  0  0
  181.1370  180.8610  136.9240 N   0  0  0  0  0  2  0  0  0  0  0  0
  179.2850  175.8850  141.3700 C   0  0  0  0  0  0  0  0  0  0  0  0
  181.9080  178.6010  141.2670 C   0  0  0  0  0  0  0  0  0  0  0  0
  181.0660  175.0920  138.2090 N   0  0  0  0  0  0  0  0  0  0  0  0
  180.1640  179.5970  135.0640 N   0  0  0  0  0  1  0  0  0  0  0  0
  179.4900  176.1550  139.9150 C   0  0  0  0  0  2  0  0  0  0  0  0
  183.2580  178.7710  141.6190 C   0  0  0  0  0  3  0  0  0  0  0  0
  181.3250  178.6780  143.6270 C   0  0  0  0  0  3  0  0  0  0  0  0
  182.6660  178.8680  143.9600 C   0  0  0  0  0  3  0  0  0  0  0  0
  179.1900  176.9200  142.3030 O   0  0  0  0  0  0  0  0  0  0  0  0
  182.4310  177.0180  138.2230 C   0  0  2  0  0  3  0  0  0  0  0  0
  180.9310  175.8330  139.4930 C   0  0  2  0  0  3  0  0  0  0  0  0
  182.6250  178.3780  137.6400 C   0  0  2  0  0  3  0  0  0  0  0  0
  183.3900  174.8730  137.4970 C   0  0  0  0  0  1  0  0  0  0  0  0
  181.5090  178.4360  139.8230 C   0  0  1  0  0  3  0  0  0  0  0  0
  1 21  1  0  0  0  0
  3 17  1  0  0  0  0
  4 22  1  0  0  0  0
  5 27  1  1  0  0  0
  5 17  1  0  0  0  0
  5 24  1  0  0  0  0
  6  1  1  0  0  0  0
  6 23  1  0  0  0  0
  8  7  2  0  0  0  0
  8  2  2  0  0  0  0
  9 13  2  0  0  0  0
  9 14  1  0  0  0  0
 10  8  1  6  0  0  0
 10 28  1  0  0  0  0
 12 25  1  0  0  0  0
 12 28  1  0  0  0  0
 13 26  1  0  0  0  0
 14  8  1  0  0  0  0
 15 11  2  0  0  0  0
 15 23  1  0  0  0  0
 16 20  1  0  0  0  0
 16  1  2  0  0  0  0
 17 25  1  0  0  0  0
 18  9  1  0  0  0  0
 19 15  1  0  0  0  0
 20  4  2  0  0  0  0
 21 22  2  0  0  0  0
 24 12  1  0  0  0  0
 25 19  1  0  0  0  0
 26 24  1  0  0  0  0
 26 10  1  0  0  0  0
 28 16  1  0  0  0  0
M  END
>  <MODEL>
1

>  <REMARK>
 VINA RESULT:      -6.4      0.000      0.000
  Name = 
  0 active torsions:
  status: ('A' for Active; 'I' for Inactive)
                            x       y       z     vdW  Elec       q    Type
                         _______ _______ _______ _____ _____    ______ ____

>  <TORSDO>
F 0

$$$$
=
 OpenBabel11122411503D

 28 32  0  0  1  0  0  0  0  0999 V2000
  182.2240  178.6420  140.0410 C   0  0  0  0  0  0  0  0  0  0  0  0
  182.0930  175.0270  138.5420 O   0  0  0  0  0  0  0  0  0  0  0  0
  188.0910  177.2910  139.5050 C   0  0  0  0  0  1  0  0  0  0  0  0
  181.0840  179.9960  137.8670 C   0  0  0  0  0  3  0  0  0  0  0  0
  187.2440  178.0090  137.4480 C   0  0  1  0  0  3  0  0  0  0  0  0
  182.8480  178.0010  141.2380 C   0  0  0  0  0  2  0  0  0  0  0  0
  181.9070  175.0480  136.0890 O   0  0  0  0  0  0  0  0  0  0  0  0
  182.8540  175.1450  137.2510 S   0  0  0  0  0  0  0  0  0  0  0  0
  185.4180  174.1850  137.1730 C   0  0  0  0  0  0  0  0  0  0  0  0
  183.7150  176.6950  137.1710 C   0  0  2  0  0  3  0  0  0  0  0  0
  185.6800  180.0470  142.1140 O   0  0  0  0  0  0  0  0  0  0  0  0
  185.1240  178.1600  138.3330 C   0  0  2  0  0  3  0  0  0  0  0  0
  185.8750  175.3900  136.9920 N   0  0  0  0  0  0  0  0  0  0  0  0
  184.0240  173.8910  137.1450 N   0  0  0  0  0  2  0  0  0  0  0  0
  185.0440  179.0800  141.6170 C   0  0  0  0  0  0  0  0  0  0  0  0
  182.6980  178.3940  138.7370 C   0  0  0  0  0  0  0  0  0  0  0  0
  187.4280  178.4150  138.8480 N   0  0  0  0  0  0  0  0  0  0  0  0
  186.3350  173.1350  137.4550 N   0  0  0  0  0  1  0  0  0  0  0  0
  185.7720  178.0900  140.7660 C   0  0  0  0  0  2  0  0  0  0  0  0
  182.1260  179.0920  137.6580 C   0  0  0  0  0  3  0  0  0  0  0  0
  181.1790  179.5520  140.2410 C   0  0  0  0  0  3  0  0  0  0  0  0
  180.6060  180.2220  139.1590 C   0  0  0  0  0  3  0  0  0  0  0  0
  183.6830  178.9430  141.9010 O   0  0  0  0  0  0  0  0  0  0  0  0
  185.7860  177.7660  137.2800 C   0  0  2  0  0  3  0  0  0  0  0  0
  186.0580  178.6690  139.3720 C   0  0  2  0  0  3  0  0  0  0  0  0
  185.1400  176.6040  136.6030 C   0  0  2  0  0  3  0  0  0  0  0  0
  187.6880  179.1320  136.5290 C   0  0  0  0  0  1  0  0  0  0  0  0
  183.8360  177.4310  138.5070 C   0  0  1  0  0  3  0  0  0  0  0  0
  1 21  1  0  0  0  0
  1  6  1  0  0  0  0
  4 22  1  0  0  0  0
  5 27  1  6  0  0  0
  5 17  1  0  0  0  0
  6 23  1  0  0  0  0
  7  8  2  0  0  0  0
  8  2  2  0  0  0  0
  9 18  1  0  0  0  0
 10  8  1  1  0  0  0
 10 28  1  0  0  0  0
 12 28  1  0  0  0  0
 12 25  1  0  0  0  0
 13  9  2  0  0  0  0
 14  9  1  0  0  0  0
 14  8  1  0  0  0  0
 15 23  1  0  0  0  0
 15 11  2  0  0  0  0
 16  1  2  0  0  0  0
 17 25  1  0  0  0  0
 17  3  1  0  0  0  0
 19 15  1  0  0  0  0
 20  4  2  0  0  0  0
 20 16  1  0  0  0  0
 22 21  2  0  0  0  0
 24  5  1  0  0  0  0
 24 12  1  0  0  0  0
 25 19  1  0  0  0  0
 26 13  1  0  0  0  0
 26 10  1  0  0  0  0
 26 24  1  0  0  0  0
 28 16  1  0  0  0  0
M  END
>  <MODEL>
2

>  <REMARK>
 VINA RESULT:      -5.2      3.748      5.794
  Name = 
  0 active torsions:
  status: ('A' for Active; 'I' for Inactive)
                            x       y       z     vdW  Elec       q    Type
                         _______ _______ _______ _____ _____    ______ ____

>  <TORSDO>
F 0

$$$$
=
 OpenBabel11122411503D

 28 32  0  0  1  0  0  0  0  0999 V2000
  189.1000  174.4430  136.5340 C   0  0  0  0  0  0  0  0  0  0  0  0
  189.0030  177.0070  139.4930 O   0  0  0  0  0  0  0  0  0  0  0  0
  183.1610  175.0350  137.4920 C   0  0  0  0  0  1  0  0  0  0  0  0
  190.1950  176.1440  134.5940 C   0  0  0  0  0  3  0  0  0  0  0  0
  183.9410  176.8070  136.1830 C   0  0  1  0  0  3  0  0  0  0  0  0
  188.5050  173.4740  137.5040 C   0  0  0  0  0  2  0  0  0  0  0  0
  189.0750  179.3350  138.7030 O   0  0  0  0  0  0  0  0  0  0  0  0
  188.1890  178.1490  138.9530 S   0  0  0  0  0  0  0  0  0  0  0  0
  185.5850  178.3760  139.7710 C   0  0  0  0  0  0  0  0  0  0  0  0
  187.3930  177.6880  137.4340 C   0  0  2  0  0  3  0  0  0  0  0  0
  185.8090  171.8370  135.7660 O   0  0  0  0  0  0  0  0  0  0  0  0
  186.1050  176.0450  136.3760 C   0  0  2  0  0  3  0  0  0  0  0  0
  185.1730  178.1410  138.5590 N   0  0  0  0  0  0  0  0  0  0  0  0
  186.9610  178.5750  140.0780 N   0  0  0  0  0  2  0  0  0  0  0  0
  186.3780  172.6480  136.5430 C   0  0  0  0  0  0  0  0  0  0  0  0
  188.5550  175.7300  136.3450 C   0  0  0  0  0  0  0  0  0  0  0  0
  183.8410  175.3430  136.2360 N   0  0  0  0  0  0  0  0  0  0  0  0
  184.6370  178.3840  140.8310 N   0  0  0  0  0  1  0  0  0  0  0  0
  185.5690  173.7230  137.1930 C   0  0  0  0  0  2  0  0  0  0  0  0
  189.1050  176.5650  135.3580 C   0  0  0  0  0  3  0  0  0  0  0  0
  190.1910  174.0290  135.7620 C   0  0  0  0  0  3  0  0  0  0  0  0
  190.7420  174.8770  134.8000 C   0  0  0  0  0  3  0  0  0  0  0  0
  187.7440  172.5010  136.7990 O   0  0  0  0  0  0  0  0  0  0  0  0
  185.3780  177.1280  136.3990 C   0  0  2  0  0  3  0  0  0  0  0  0
  185.2430  174.8460  136.1960 C   0  0  2  0  0  3  0  0  0  0  0  0
  185.9400  178.1720  137.3040 C   0  0  2  0  0  3  0  0  0  0  0  0
  183.5040  177.3000  134.8160 C   0  0  0  0  0  1  0  0  0  0  0  0
  187.3670  176.1840  137.1560 C   0  0  1  0  0  3  0  0  0  0  0  0
  1  6  1  0  0  0  0
  4 22  2  0  0  0  0
  4 20  1  0  0  0  0
  5 27  1  6  0  0  0
  5 17  1  0  0  0  0
  5 24  1  0  0  0  0
  7  8  2  0  0  0  0
  8  2  2  0  0  0  0
  8 14  1  0  0  0  0
  9 14  1  0  0  0  0
  9 18  1  0  0  0  0
 10  8  1  1  0  0  0
 11 15  2  0  0  0  0
 12 24  1  0  0  0  0
 12 28  1  0  0  0  0
 13  9  2  0  0  0  0
 15 23  1  0  0  0  0
 15 19  1  0  0  0  0
 16  1  1  0  0  0  0
 16 28  1  0  0  0  0
 17  3  1  0  0  0  0
 20 16  2  0  0  0  0
 21  1  2  0  0  0  0
 22 21  1  0  0  0  0
 23  6  1  0  0  0  0
 24 26  1  0  0  0  0
 25 17  1  0  0  0  0
 25 12  1  0  0  0  0
 25 19  1  0  0  0  0
 26 10  1  0  0  0  0
 26 13  1  0  0  0  0
 28 10  1  0  0  0  0
M  END
>  <MODEL>
3

>  <REMARK>
 VINA RESULT:      -5.2      5.554      7.849
  Name = 
  0 active torsions:
  status: ('A' for Active; 'I' for Inactive)
                            x       y       z     vdW  Elec       q    Type
                         _______ _______ _______ _____ _____    ______ ____

>  <TORSDO>
F 0

$$$$
=
 OpenBabel11122411503D

 28 32  0  0  1  0  0  0  0  0999 V2000
  180.6750  180.5200  138.5490 C   0  0  0  0  0  0  0  0  0  0  0  0
  184.5550  180.5080  139.0870 O   0  0  0  0  0  0  0  0  0  0  0  0
  182.4800  176.3140  134.5990 C   0  0  0  0  0  1  0  0  0  0  0  0
  179.9380  179.5730  141.0820 C   0  0  0  0  0  3  0  0  0  0  0  0
  182.3340  175.3900  136.7410 C   0  0  1  0  0  3  0  0  0  0  0  0
  180.9820  181.0180  137.1730 C   0  0  0  0  0  2  0  0  0  0  0  0
  185.2290  179.0230  140.9280 O   0  0  0  0  0  0  0  0  0  0  0  0
  184.8600  179.0880  139.4730 S   0  0  0  0  0  0  0  0  0  0  0  0
  185.9560  177.4430  137.5780 C   0  0  0  0  0  0  0  0  0  0  0  0
  183.4540  178.0430  139.1830 C   0  0  2  0  0  3  0  0  0  0  0  0
  178.9470  179.0770  134.9230 O   0  0  0  0  0  0  0  0  0  0  0  0
  181.8060  177.4470  137.6320 C   0  0  2  0  0  3  0  0  0  0  0  0
  184.8850  176.7050  137.5830 N   0  0  0  0  0  0  0  0  0  0  0  0
  186.1600  178.4890  138.5220 N   0  0  0  0  0  2  0  0  0  0  0  0
  179.9760  179.4390  135.5530 C   0  0  0  0  0  0  0  0  0  0  0  0
  181.3170  179.3840  139.0840 C   0  0  0  0  0  0  0  0  0  0  0  0
  181.5540  176.0810  135.7060 N   0  0  0  0  0  0  0  0  0  0  0  0
  186.9340  177.2310  136.5670 N   0  0  0  0  0  1  0  0  0  0  0  0
  181.2110  178.6010  135.4740 C   0  0  0  0  0  2  0  0  0  0  0  0
  180.9260  178.9130  140.3490 C   0  0  0  0  0  3  0  0  0  0  0  0
  179.6840  181.1740  139.2900 C   0  0  0  0  0  3  0  0  0  0  0  0
  179.3200  180.7080  140.5540 C   0  0  0  0  0  3  0  0  0  0  0  0
  179.9420  180.6300  136.2830 O   0  0  0  0  0  0  0  0  0  0  0  0
  182.5260  176.3780  137.8370 C   0  0  2  0  0  3  0  0  0  0  0  0
  181.0770  177.3400  136.3400 C   0  0  2  0  0  3  0  0  0  0  0  0
  183.7920  176.6770  138.5680 C   0  0  2  0  0  3  0  0  0  0  0  0
  181.5530  174.1960  137.2560 C   0  0  0  0  0  1  0  0  0  0  0  0
  182.3730  178.6570  138.2900 C   0  0  1  0  0  3  0  0  0  0  0  0
  1 16  2  0  0  0  0
  1 21  1  0  0  0  0
  2  8  2  0  0  0  0
  3 17  1  0  0  0  0
  5 27  1  1  0  0  0
  5 24  1  0  0  0  0
  6  1  1  0  0  0  0
  8  7  2  0  0  0  0
  9 13  2  0  0  0  0
  9 14  1  0  0  0  0
 10  8  1  6  0  0  0
 11 15  2  0  0  0  0
 12 24  1  0  0  0  0
 12 28  1  0  0  0  0
 13 26  1  0  0  0  0
 14  8  1  0  0  0  0
 15 23  1  0  0  0  0
 16 20  1  0  0  0  0
 17 25  1  0  0  0  0
 17  5  1  0  0  0  0
 18  9  1  0  0  0  0
 19 15  1  0  0  0  0
 19 25  1  0  0  0  0
 20  4  2  0  0  0  0
 21 22  2  0  0  0  0
 22  4  1  0  0  0  0
 23  6  1  0  0  0  0
 24 26  1  0  0  0  0
 25 12  1  0  0  0  0
 26 10  1  0  0  0  0
 28 16  1  0  0  0  0
 28 10  1  0  0  0  0
M  END
>  <MODEL>
4

>  <REMARK>
 VINA RESULT:      -5.2      3.153      4.485
  Name = 
  0 active torsions:
  status: ('A' for Active; 'I' for Inactive)
                            x       y       z     vdW  Elec       q    Type
                         _______ _______ _______ _____ _____    ______ ____

>  <TORSDO>
F 0

$$$$
=
 OpenBabel11122411503D

 28 32  0  0  1  0  0  0  0  0999 V2000
  190.3090  173.7350  136.5000 C   0  0  0  0  0  0  0  0  0  0  0  0
  190.5680  175.6970  139.8790 O   0  0  0  0  0  0  0  0  0  0  0  0
  185.0280  176.6730  136.6560 C   0  0  0  0  0  1  0  0  0  0  0  0
  192.3860  175.0390  135.1420 C   0  0  0  0  0  3  0  0  0  0  0  0
  186.7130  178.0950  135.8780 C   0  0  1  0  0  3  0  0  0  0  0  0
  189.1810  172.9970  137.1460 C   0  0  0  0  0  2  0  0  0  0  0  0
  191.7230  177.8530  139.6110 O   0  0  0  0  0  0  0  0  0  0  0  0
  190.4110  177.1360  139.4720 S   0  0  0  0  0  0  0  0  0  0  0  0
  187.9940  178.3440  139.9190 C   0  0  0  0  0  0  0  0  0  0  0  0
  189.8590  177.2540  137.7890 C   0  0  2  0  0  3  0  0  0  0  0  0
  186.5210  172.8990  134.7200 O   0  0  0  0  0  0  0  0  0  0  0  0
  188.3010  176.4650  136.2300 C   0  0  2  0  0  3  0  0  0  0  0  0
  187.8050  178.4640  138.6370 N   0  0  0  0  0  0  0  0  0  0  0  0
  189.2320  177.8980  140.4630 N   0  0  0  0  0  2  0  0  0  0  0  0
  187.1740  173.2850  135.7250 C   0  0  0  0  0  0  0  0  0  0  0  0
  190.3690  175.1440  136.5030 C   0  0  0  0  0  0  0  0  0  0  0  0
  186.0370  176.8190  135.6090 N   0  0  0  0  0  0  0  0  0  0  0  0
  186.9150  178.6210  140.8030 N   0  0  0  0  0  1  0  0  0  0  0  0
  186.7280  174.5110  136.4560 C   0  0  0  0  0  2  0  0  0  0  0  0
  191.4090  175.7830  135.8050 C   0  0  0  0  0  3  0  0  0  0  0  0
  191.2920  172.9970  135.8310 C   0  0  0  0  0  3  0  0  0  0  0  0
  192.3310  173.6440  135.1600 C   0  0  0  0  0  3  0  0  0  0  0  0
  188.2770  172.5390  136.1470 O   0  0  0  0  0  0  0  0  0  0  0  0
  188.0720  177.7420  136.3690 C   0  0  2  0  0  3  0  0  0  0  0  0
  187.1010  175.7810  135.6770 C   0  0  2  0  0  3  0  0  0  0  0  0
  188.7820  178.3230  137.5460 C   0  0  2  0  0  3  0  0  0  0  0  0
  186.8210  178.8950  134.5940 C   0  0  0  0  0  1  0  0  0  0  0  0
  189.3070  175.9530  137.2020 C   0  0  1  0  0  3  0  0  0  0  0  0
  1 16  1  0  0  0  0
  1  6  1  0  0  0  0
  4 22  2  0  0  0  0
  4 20  1  0  0  0  0
  5 27  1  6  0  0  0
  5 24  1  0  0  0  0
  8  7  2  0  0  0  0
  8  2  2  0  0  0  0
  8 14  1  0  0  0  0
  9 14  1  0  0  0  0
  9 18  1  0  0  0  0
 10  8  1  1  0  0  0
 11 15  2  0  0  0  0
 12 24  1  0  0  0  0
 12 28  1  0  0  0  0
 13  9  2  0  0  0  0
 15 23  1  0  0  0  0
 15 19  1  0  0  0  0
 16 28  1  0  0  0  0
 17 25  1  0  0  0  0
 17  5  1  0  0  0  0
 17  3  1  0  0  0  0
 20 16  2  0  0  0  0
 21  1  2  0  0  0  0
 22 21  1  0  0  0  0
 23  6  1  0  0  0  0
 24 26  1  0  0  0  0
 25 12  1  0  0  0  0
 25 19  1  0  0  0  0
 26 10  1  0  0  0  0
 26 13  1  0  0  0  0
 28 10  1  0  0  0  0
M  END
>  <MODEL>
5

>  <REMARK>
 VINA RESULT:      -5.0      7.200      9.432
  Name = 
  0 active torsions:
  status: ('A' for Active; 'I' for Inactive)
                            x       y       z     vdW  Elec       q    Type
                         _______ _______ _______ _____ _____    ______ ____

>  <TORSDO>
F 0

$$$$
=
 OpenBabel11122411503D

 28 32  0  0  1  0  0  0  0  0999 V2000
  181.6890  177.7140  137.2750 C   0  0  0  0  0  0  0  0  0  0  0  0
  182.3000  173.8480  137.3930 O   0  0  0  0  0  0  0  0  0  0  0  0
  187.6530  177.4110  138.2170 C   0  0  0  0  0  1  0  0  0  0  0  0
  180.8890  177.8900  134.5940 C   0  0  0  0  0  3  0  0  0  0  0  0
  187.1850  177.1140  135.9460 C   0  0  1  0  0  3  0  0  0  0  0  0
  182.1150  177.7110  138.7070 C   0  0  0  0  0  2  0  0  0  0  0  0
  182.6380  172.8950  135.1510 O   0  0  0  0  0  0  0  0  0  0  0  0
  183.2990  173.6070  136.2960 S   0  0  0  0  0  0  0  0  0  0  0  0
  185.9150  173.2010  137.0000 C   0  0  0  0  0  0  0  0  0  0  0  0
  183.9720  175.1440  135.7140 C   0  0  2  0  0  3  0  0  0  0  0  0
  184.4390  180.4370  139.0740 O   0  0  0  0  0  0  0  0  0  0  0  0
  184.9220  177.1810  136.3660 C   0  0  2  0  0  3  0  0  0  0  0  0
  186.2570  174.3090  136.4100 N   0  0  0  0  0  0  0  0  0  0  0  0
  184.6020  172.6580  136.8890 N   0  0  0  0  0  2  0  0  0  0  0  0
  184.0400  179.2520  138.9300 C   0  0  0  0  0  0  0  0  0  0  0  0
  182.4560  177.0830  136.2740 C   0  0  0  0  0  0  0  0  0  0  0  0
  187.0180  178.0500  137.0660 N   0  0  0  0  0  0  0  0  0  0  0  0
  186.8650  172.5350  137.8210 N   0  0  0  0  0  1  0  0  0  0  0  0
  185.0420  178.1720  138.6790 C   0  0  0  0  0  2  0  0  0  0  0  0
  182.0500  177.1930  134.9320 C   0  0  0  0  0  3  0  0  0  0  0  0
  180.5280  178.4130  136.9260 C   0  0  0  0  0  3  0  0  0  0  0  0
  180.1240  178.4960  135.5920 C   0  0  0  0  0  3  0  0  0  0  0  0
  182.6750  178.9750  139.0410 O   0  0  0  0  0  0  0  0  0  0  0  0
  185.8340  176.5500  135.6790 C   0  0  2  0  0  3  0  0  0  0  0  0
  185.5490  178.2180  137.2300 C   0  0  2  0  0  3  0  0  0  0  0  0
  185.4860  175.1170  135.4520 C   0  0  2  0  0  3  0  0  0  0  0  0
  187.6810  177.8630  134.7240 C   0  0  0  0  0  1  0  0  0  0  0  0
  183.7200  176.3420  136.6310 C   0  0  1  0  0  3  0  0  0  0  0  0
  1  6  1  0  0  0  0
  4 20  2  0  0  0  0
  4 22  1  0  0  0  0
  5 27  1  6  0  0  0
  5 17  1  0  0  0  0
  6 23  1  0  0  0  0
  7  8  2  0  0  0  0
  8 14  1  0  0  0  0
  8  2  2  0  0  0  0
  9 18  1  0  0  0  0
 10  8  1  1  0  0  0
 10 28  1  0  0  0  0
 12 28  1  0  0  0  0
 12 25  1  0  0  0  0
 13  9  2  0  0  0  0
 14  9  1  0  0  0  0
 15 23  1  0  0  0  0
 15 11  2  0  0  0  0
 16 28  1  0  0  0  0
 16  1  2  0  0  0  0
 17 25  1  0  0  0  0
 17  3  1  0  0  0  0
 19 15  1  0  0  0  0
 20 16  1  0  0  0  0
 21  1  1  0  0  0  0
 22 21  2  0  0  0  0
 24  5  1  0  0  0  0
 24 12  1  0  0  0  0
 25 19  1  0  0  0  0
 26 24  1  0  0  0  0
 26 10  1  0  0  0  0
 26 13  1  0  0  0  0
M  END
>  <MODEL>
6

>  <REMARK>
 VINA RESULT:      -4.9      4.031      6.846
  Name = 
  0 active torsions:
  status: ('A' for Active; 'I' for Inactive)
                            x       y       z     vdW  Elec       q    Type
                         _______ _______ _______ _____ _____    ______ ____

>  <TORSDO>
F 0

$$$$
=
 OpenBabel11122411503D

 28 32  0  0  1  0  0  0  0  0999 V2000
  182.6050  176.4280  138.1680 C   0  0  0  0  0  0  0  0  0  0  0  0
  184.5680  173.0490  137.9090 O   0  0  0  0  0  0  0  0  0  0  0  0
  188.3450  178.3170  137.9950 C   0  0  0  0  0  1  0  0  0  0  0  0
  181.2930  176.2960  135.6940 C   0  0  0  0  0  3  0  0  0  0  0  0
  187.5860  177.8660  135.8320 C   0  0  1  0  0  3  0  0  0  0  0  0
  183.2720  176.5820  139.4970 C   0  0  0  0  0  2  0  0  0  0  0  0
  184.7840  172.2800  135.5820 O   0  0  0  0  0  0  0  0  0  0  0  0
  185.3540  173.1860  136.6350 S   0  0  0  0  0  0  0  0  0  0  0  0
  188.0260  173.7610  136.8260 C   0  0  0  0  0  0  0  0  0  0  0  0
  185.3080  174.8620  136.0480 C   0  0  2  0  0  3  0  0  0  0  0  0
  184.4930  179.9680  139.6240 O   0  0  0  0  0  0  0  0  0  0  0  0
  185.5750  177.1060  136.6570 C   0  0  2  0  0  3  0  0  0  0  0  0
  187.8290  174.9160  136.2620 N   0  0  0  0  0  0  0  0  0  0  0  0
  186.9990  172.7770  136.9170 N   0  0  0  0  0  2  0  0  0  0  0  0
  184.5240  178.7180  139.4730 C   0  0  0  0  0  0  0  0  0  0  0  0
  183.3380  176.1170  137.0040 C   0  0  0  0  0  0  0  0  0  0  0  0
  187.3150  178.6790  137.0240 N   0  0  0  0  0  0  0  0  0  0  0  0
  189.2910  173.4880  137.4140 N   0  0  0  0  0  1  0  0  0  0  0  0
  185.7770  178.0760  138.9720 C   0  0  0  0  0  2  0  0  0  0  0  0
  182.6690  176.0690  135.7690 C   0  0  0  0  0  3  0  0  0  0  0  0
  181.2270  176.6560  138.0830 C   0  0  0  0  0  3  0  0  0  0  0  0
  180.5710  176.5850  136.8530 C   0  0  0  0  0  3  0  0  0  0  0  0
  183.3970  177.9640  139.8090 O   0  0  0  0  0  0  0  0  0  0  0  0
  186.5010  176.8490  135.7740 C   0  0  2  0  0  3  0  0  0  0  0  0
  185.9440  178.3010  137.4620 C   0  0  2  0  0  3  0  0  0  0  0  0
  186.6510  175.3870  135.5160 C   0  0  2  0  0  3  0  0  0  0  0  0
  187.5350  178.7420  134.5940 C   0  0  0  0  0  1  0  0  0  0  0  0
  184.8270  175.8880  137.0760 C   0  0  1  0  0  3  0  0  0  0  0  0
  1  6  1  0  0  0  0
  4 20  2  0  0  0  0
  4 22  1  0  0  0  0
  5 27  1  6  0  0  0
  5 17  1  0  0  0  0
  6 23  1  0  0  0  0
  7  8  2  0  0  0  0
  8 14  1  0  0  0  0
  8  2  2  0  0  0  0
  9 14  1  0  0  0  0
  9 18  1  0  0  0  0
 10  8  1  1  0  0  0
 10 28  1  0  0  0  0
 12 28  1  0  0  0  0
 12 25  1  0  0  0  0
 13  9  2  0  0  0  0
 15 11  2  0  0  0  0
 15 23  1  0  0  0  0
 16 28  1  0  0  0  0
 16  1  2  0  0  0  0
 17 25  1  0  0  0  0
 17  3  1  0  0  0  0
 19 15  1  0  0  0  0
 20 16  1  0  0  0  0
 21  1  1  0  0  0  0
 22 21  2  0  0  0  0
 24  5  1  0  0  0  0
 24 12  1  0  0  0  0
 25 19  1  0  0  0  0
 26 24  1  0  0  0  0
 26 10  1  0  0  0  0
 26 13  1  0  0  0  0
M  END
>  <MODEL>
7

>  <REMARK>
 VINA RESULT:      -4.7      4.744      7.206
  Name = 
  0 active torsions:
  status: ('A' for Active; 'I' for Inactive)
                            x       y       z     vdW  Elec       q    Type
                         _______ _______ _______ _____ _____    ______ ____

>  <TORSDO>
F 0

$$$$
=
 OpenBabel11122411503D

 28 32  0  0  1  0  0  0  0  0999 V2000
  186.7960  175.6980  136.5740 C   0  0  0  0  0  0  0  0  0  0  0  0
  188.2310  176.9070  140.0110 O   0  0  0  0  0  0  0  0  0  0  0  0
  181.7560  176.6920  139.7610 C   0  0  0  0  0  1  0  0  0  0  0  0
  187.6910  177.8460  135.0120 C   0  0  0  0  0  3  0  0  0  0  0  0
  182.5620  178.7050  138.8890 C   0  0  1  0  0  3  0  0  0  0  0  0
  186.2730  174.5220  137.3350 C   0  0  0  0  0  2  0  0  0  0  0  0
  188.6800  179.3260  140.0270 O   0  0  0  0  0  0  0  0  0  0  0  0
  187.6250  178.2700  140.1950 S   0  0  0  0  0  0  0  0  0  0  0  0
  185.5210  178.5230  141.9310 C   0  0  0  0  0  0  0  0  0  0  0  0
  186.3330  178.5460  139.0080 C   0  0  2  0  0  3  0  0  0  0  0  0
  182.8610  174.0730  136.2760 O   0  0  0  0  0  0  0  0  0  0  0  0
  184.4110  177.6350  138.0300 C   0  0  2  0  0  3  0  0  0  0  0  0
  184.7310  178.8340  140.9450 N   0  0  0  0  0  0  0  0  0  0  0  0
  186.9290  178.3960  141.7610 N   0  0  0  0  0  2  0  0  0  0  0  0
  183.8210  174.4350  137.0060 C   0  0  0  0  0  0  0  0  0  0  0  0
  186.5760  177.0200  137.0130 C   0  0  0  0  0  0  0  0  0  0  0  0
  182.1020  177.3630  138.5100 N   0  0  0  0  0  0  0  0  0  0  0  0
  184.9560  178.2530  143.2070 N   0  0  0  0  0  1  0  0  0  0  0  0
  183.5440  175.2770  138.2090 C   0  0  0  0  0  2  0  0  0  0  0  0
  187.0180  178.0870  136.2110 C   0  0  0  0  0  3  0  0  0  0  0  0
  187.4700  175.4660  135.3690 C   0  0  0  0  0  3  0  0  0  0  0  0
  187.9220  176.5350  134.5940 C   0  0  0  0  0  3  0  0  0  0  0  0
  185.1140  174.0130  136.6870 O   0  0  0  0  0  0  0  0  0  0  0  0
  184.0320  178.7150  138.6570 C   0  0  2  0  0  3  0  0  0  0  0  0
  183.2510  176.7300  137.8080 C   0  0  2  0  0  3  0  0  0  0  0  0
  185.0840  179.2400  139.5750 C   0  0  2  0  0  3  0  0  0  0  0  0
  181.8950  179.7420  138.0060 C   0  0  0  0  0  1  0  0  0  0  0  0
  185.8340  177.2860  138.2980 C   0  0  1  0  0  3  0  0  0  0  0  0
  1 16  1  0  0  0  0
  1  6  1  0  0  0  0
  2  8  2  0  0  0  0
  4 20  1  0  0  0  0
  5 27  1  6  0  0  0
  7  8  2  0  0  0  0
  8 14  1  0  0  0  0
  9 18  1  0  0  0  0
 10 26  1  0  0  0  0
 10  8  1  1  0  0  0
 11 15  2  0  0  0  0
 12 28  1  0  0  0  0
 12 24  1  0  0  0  0
 13  9  2  0  0  0  0
 14  9  1  0  0  0  0
 15 19  1  0  0  0  0
 16 28  1  0  0  0  0
 17  5  1  0  0  0  0
 17  3  1  0  0  0  0
 20 16  2  0  0  0  0
 21  1  2  0  0  0  0
 22  4  2  0  0  0  0
 22 21  1  0  0  0  0
 23 15  1  0  0  0  0
 23  6  1  0  0  0  0
 24  5  1  0  0  0  0
 24 26  1  0  0  0  0
 25 12  1  0  0  0  0
 25 19  1  0  0  0  0
 25 17  1  0  0  0  0
 26 13  1  0  0  0  0
 28 10  1  0  0  0  0
M  END
>  <MODEL>
8

>  <REMARK>
 VINA RESULT:      -4.6      4.553      6.730
  Name = 
  0 active torsions:
  status: ('A' for Active; 'I' for Inactive)
                            x       y       z     vdW  Elec       q    Type
                         _______ _______ _______ _____ _____    ______ ____

>  <TORSDO>
F 0

$$$$
=
 OpenBabel11122411503D

 28 32  0  0  1  0  0  0  0  0999 V2000
  189.8260  177.1500  138.5040 C   0  0  0  0  0  0  0  0  0  0  0  0
  188.9460  173.6310  137.0270 O   0  0  0  0  0  0  0  0  0  0  0  0
  195.3050  174.7870  137.5350 C   0  0  0  0  0  1  0  0  0  0  0  0
  188.7870  178.7080  136.4190 C   0  0  0  0  0  3  0  0  0  0  0  0
  194.4490  175.6670  135.5460 C   0  0  1  0  0  3  0  0  0  0  0  0
  190.4140  176.3950  139.6530 C   0  0  0  0  0  2  0  0  0  0  0  0
  188.5860  173.7130  134.5950 O   0  0  0  0  0  0  0  0  0  0  0  0
  189.6180  173.6270  135.6830 S   0  0  0  0  0  0  0  0  0  0  0  0
  191.9580  172.2300  135.4150 C   0  0  0  0  0  0  0  0  0  0  0  0
  190.7330  175.0020  135.5350 C   0  0  2  0  0  3  0  0  0  0  0  0
  193.6200  177.8970  140.3110 O   0  0  0  0  0  0  0  0  0  0  0  0
  192.4610  176.1800  136.5860 C   0  0  2  0  0  3  0  0  0  0  0  0
  192.6070  173.3360  135.1990 N   0  0  0  0  0  0  0  0  0  0  0  0
  190.5360  172.1880  135.4920 N   0  0  0  0  0  2  0  0  0  0  0  0
  192.7880  177.0630  139.8650 C   0  0  0  0  0  0  0  0  0  0  0  0
  190.1520  176.8360  137.1690 C   0  0  0  0  0  0  0  0  0  0  0  0
  194.8050  176.0180  136.9270 N   0  0  0  0  0  0  0  0  0  0  0  0
  192.6930  171.0310  135.6300 N   0  0  0  0  0  1  0  0  0  0  0  0
  193.2640  175.9700  138.9640 C   0  0  0  0  0  2  0  0  0  0  0  0
  189.6350  177.6360  136.1350 C   0  0  0  0  0  3  0  0  0  0  0  0
  188.9770  178.2280  138.7800 C   0  0  0  0  0  3  0  0  0  0  0  0
  188.4540  179.0010  137.7430 C   0  0  0  0  0  3  0  0  0  0  0  0
  191.4490  177.1660  140.2500 O   0  0  0  0  0  0  0  0  0  0  0  0
  192.9630  175.6870  135.4870 C   0  0  2  0  0  3  0  0  0  0  0  0
  193.5450  176.5050  137.5510 C   0  0  2  0  0  3  0  0  0  0  0  0
  192.0720  174.6660  134.8630 C   0  0  2  0  0  3  0  0  0  0  0  0
  195.0160  176.7030  134.5940 C   0  0  0  0  0  1  0  0  0  0  0  0
  191.0800  175.6900  136.8570 C   0  0  1  0  0  3  0  0  0  0  0  0
  1 21  1  0  0  0  0
  1  6  1  0  0  0  0
  4 22  1  0  0  0  0
  5 27  1  6  0  0  0
  5 17  1  0  0  0  0
  6 23  1  0  0  0  0
  7  8  2  0  0  0  0
  8  2  2  0  0  0  0
  9 14  1  0  0  0  0
  9 18  1  0  0  0  0
 10  8  1  1  0  0  0
 10 28  1  0  0  0  0
 12 28  1  0  0  0  0
 12 25  1  0  0  0  0
 13  9  2  0  0  0  0
 14  8  1  0  0  0  0
 15 23  1  0  0  0  0
 15 11  2  0  0  0  0
 16  1  2  0  0  0  0
 17  3  1  0  0  0  0
 17 25  1  0  0  0  0
 19 15  1  0  0  0  0
 20  4  2  0  0  0  0
 20 16  1  0  0  0  0
 22 21  2  0  0  0  0
 24  5  1  0  0  0  0
 24 12  1  0  0  0  0
 25 19  1  0  0  0  0
 26 13  1  0  0  0  0
 26 24  1  0  0  0  0
 26 10  1  0  0  0  0
 28 16  1  0  0  0  0
M  END
>  <MODEL>
9

>  <REMARK>
 VINA RESULT:      -4.6      9.758     11.809
  Name = 
  0 active torsions:
  status: ('A' for Active; 'I' for Inactive)
                            x       y       z     vdW  Elec       q    Type
                         _______ _______ _______ _____ _____    ______ ____

>  <TORSDO>
F 0

$$$$
