=
 OpenBabel11122412053D

 34 40  0  0  1  0  0  0  0  0999 V2000
  182.1720  178.8500  143.5430 C   0  0  0  0  0  0  0  0  0  0  0  0
  183.7910  178.6280  145.4790 C   0  0  0  0  0  3  0  0  0  0  0  0
  180.4730  176.4760  137.9590 C   0  0  2  0  0  3  0  0  0  0  0  0
  180.7520  178.5970  141.6200 C   0  0  0  0  0  0  0  0  0  0  0  0
  181.8380  178.2390  139.2960 C   0  0  2  0  0  3  0  0  0  0  0  0
  181.8760  178.2530  136.7640 C   0  0  0  0  0  1  0  0  0  0  0  0
  180.7010  175.4310  137.0640 O   0  0  0  0  0  1  0  0  0  0  0  0
  179.0530  178.5930  138.1790 C   0  0  0  0  0  2  0  0  0  0  0  0
  184.6430  179.1430  143.2620 C   0  0  2  0  0  3  0  0  0  0  0  0
  187.5080  177.8590  142.4270 C   0  0  0  0  0  2  0  0  0  0  0  0
  182.9900  177.6370  140.1020 C   0  0  0  0  0  2  0  0  0  0  0  0
  179.3620  178.6170  139.6410 C   0  0  0  0  0  3  0  0  0  0  0  0
  184.5450  178.2980  141.9660 C   0  0  1  0  0  3  0  0  0  0  0  0
  185.3050  178.6450  145.5750 C   0  0  0  0  0  3  0  0  0  0  0  0
  180.5850  178.4260  140.1580 C   0  0  0  0  0  0  0  0  0  0  0  0
  179.1620  177.1860  137.5990 C   0  0  0  0  0  2  0  0  0  0  0  0
  186.6700  177.6000  143.6920 C   0  0  2  0  0  3  0  0  0  0  0  0
  182.0380  178.6120  142.1750 C   0  0  0  0  0  0  0  0  0  0  0  0
  181.6960  177.4020  138.0120 C   0  0  2  0  0  3  0  0  0  0  0  0
  183.1990  178.3470  141.3640 N   0  0  0  0  0  0  0  0  0  0  0  0
  179.8260  178.9710  143.7720 C   0  0  0  0  0  3  0  0  0  0  0  0
  186.9900  178.9850  141.5290 C   0  0  0  0  0  2  0  0  0  0  0  0
  179.6740  178.7750  142.4350 N   0  0  0  0  0  0  0  0  0  0  0  0
  185.6110  178.7010  140.9340 C   0  0  0  0  0  2  0  0  0  0  0  0
  185.8600  178.8310  144.1570 C   0  0  1  0  0  3  0  0  0  0  0  0
  181.0680  179.0110  144.3190 N   0  0  0  0  0  0  0  0  0  0  0  0
  183.4820  178.9270  144.0990 N   0  0  0  0  0  0  0  0  0  0  0  0
  187.5550  177.1280  144.7470 N   0  0  0  0  0  2  0  0  0  0  0  0
  188.9150  177.2780  144.2580 C   0  0  0  0  0  2  0  0  0  0  0  0
  190.0180  177.1260  147.7180 N   0  0  0  0  0  2  0  0  0  0  0  0
  190.9760  176.7530  145.5440 C   0  0  0  0  0  2  0  0  0  0  0  0
  189.8280  177.7100  145.3900 C   0  0  2  0  0  3  0  0  0  0  0  0
  191.2490  176.7530  147.0290 C   0  0  0  0  0  2  0  0  0  0  0  0
  189.0940  177.6270  146.7070 C   0  0  0  0  0  2  0  0  0  0  0  0
  1 27  1  0  0  0  0
  1 26  1  0  0  0  0
  2 14  2  0  0  0  0
  3  7  1  6  0  0  0
  3 19  1  0  0  0  0
  4 18  1  0  0  0  0
  4 23  2  0  0  0  0
  5 11  1  1  0  0  0
  5 15  1  0  0  0  0
  8 12  1  0  0  0  0
  9 27  1  1  0  0  0
  9 25  1  0  0  0  0
 10 17  1  0  0  0  0
 11 20  1  0  0  0  0
 12 15  2  0  0  0  0
 13 24  1  6  0  0  0
 13  9  1  0  0  0  0
 15  4  1  0  0  0  0
 16  3  1  0  0  0  0
 16  8  1  0  0  0  0
 17 25  1  0  0  0  0
 17 28  1  1  0  0  0
 18  1  2  0  0  0  0
 19  6  1  6  0  0  0
 19  5  1  0  0  0  0
 20 13  1  0  0  0  0
 20 18  1  0  0  0  0
 21 26  2  0  0  0  0
 22 10  1  0  0  0  0
 23 21  1  0  0  0  0
 24 22  1  0  0  0  0
 25 14  1  1  0  0  0
 27  2  1  0  0  0  0
 29 28  1  0  0  0  0
 31 33  1  0  0  0  0
 32 29  1  6  0  0  0
 32 31  1  0  0  0  0
 32 34  1  0  0  0  0
 33 30  1  0  0  0  0
 34 30  1  0  0  0  0
M  END
>  <MODEL>
1

>  <REMARK>
 VINA RESULT:      -8.7      0.000      0.000
  Name = 
  3 active torsions:
  status: ('A' for Active; 'I' for Inactive)
    1  A    between atoms: C_17  and  N_28
    2  A    between atoms: N_28  and  C_29
    3  A    between atoms: C_29  and  C_32
                            x       y       z     vdW  Elec       q    Type
                         _______ _______ _______ _____ _____    ______ ____

>  <TORSDO>
F 3

$$$$
=
 OpenBabel11122412053D

 34 40  0  0  1  0  0  0  0  0999 V2000
  187.8730  177.9820  138.6210 C   0  0  0  0  0  0  0  0  0  0  0  0
  186.3400  178.4300  140.5870 C   0  0  0  0  0  3  0  0  0  0  0  0
  192.0130  173.9280  136.1460 C   0  0  2  0  0  3  0  0  0  0  0  0
  189.2930  177.0930  136.8980 C   0  0  0  0  0  0  0  0  0  0  0  0
  191.5770  176.0650  137.5600 C   0  0  2  0  0  3  0  0  0  0  0  0
  193.9480  175.2900  137.1220 C   0  0  0  0  0  1  0  0  0  0  0  0
  192.5820  172.6640  136.3030 O   0  0  0  0  0  1  0  0  0  0  0  0
  192.1440  175.9580  134.5940 C   0  0  0  0  0  2  0  0  0  0  0  0
  188.7360  178.2570  140.9560 C   0  0  2  0  0  3  0  0  0  0  0  0
  189.7260  176.8760  143.7250 C   0  0  0  0  0  2  0  0  0  0  0  0
  190.8860  175.7850  138.8950 C   0  0  0  0  0  2  0  0  0  0  0  0
  190.8540  176.4480  135.1670 C   0  0  0  0  0  3  0  0  0  0  0  0
  189.6710  177.0470  140.6990 C   0  0  1  0  0  3  0  0  0  0  0  0
  186.5700  178.5280  142.0840 C   0  0  0  0  0  3  0  0  0  0  0  0
  190.5690  176.4690  136.4780 C   0  0  0  0  0  0  0  0  0  0  0  0
  192.2880  174.4440  134.7290 C   0  0  0  0  0  2  0  0  0  0  0  0
  188.2960  176.9960  143.1680 C   0  0  2  0  0  3  0  0  0  0  0  0
  189.0490  177.3240  138.2580 C   0  0  0  0  0  0  0  0  0  0  0  0
  192.4940  174.8660  137.2620 C   0  0  2  0  0  3  0  0  0  0  0  0
  189.9660  176.8590  139.2670 N   0  0  0  0  0  0  0  0  0  0  0  0
  187.2090  178.0870  136.3590 C   0  0  0  0  0  3  0  0  0  0  0  0
  190.7900  177.6470  142.9410 C   0  0  0  0  0  2  0  0  0  0  0  0
  188.3630  177.4790  135.9790 N   0  0  0  0  0  0  0  0  0  0  0  0
  190.9740  177.1440  141.5090 C   0  0  0  0  0  2  0  0  0  0  0  0
  188.0620  178.2820  142.3430 C   0  0  1  0  0  3  0  0  0  0  0  0
  186.9680  178.3390  137.6720 N   0  0  0  0  0  0  0  0  0  0  0  0
  187.6500  178.2730  139.9980 N   0  0  0  0  0  0  0  0  0  0  0  0
  187.3560  176.9070  144.2750 N   0  0  0  0  0  2  0  0  0  0  0  0
  187.6900  177.9770  145.2010 C   0  0  0  0  0  2  0  0  0  0  0  0
  189.3820  177.8780  148.4170 N   0  0  0  0  0  2  0  0  0  0  0  0
  187.1480  178.2530  147.6110 C   0  0  0  0  0  2  0  0  0  0  0  0
  187.8740  177.4130  146.5980 C   0  0  2  0  0  3  0  0  0  0  0  0
  188.0160  178.1640  148.8430 C   0  0  0  0  0  2  0  0  0  0  0  0
  189.3250  177.5080  147.0070 C   0  0  0  0  0  2  0  0  0  0  0  0
  1 27  1  0  0  0  0
  2 14  2  0  0  0  0
  3  7  1  1  0  0  0
  3 19  1  0  0  0  0
  4 18  2  0  0  0  0
  5 11  1  1  0  0  0
  8 16  1  0  0  0  0
  8 12  1  0  0  0  0
  9 27  1  6  0  0  0
  9 25  1  0  0  0  0
 11 20  1  0  0  0  0
 12 15  2  0  0  0  0
 13  9  1  0  0  0  0
 13 24  1  1  0  0  0
 15  4  1  0  0  0  0
 15  5  1  0  0  0  0
 16  3  1  0  0  0  0
 17 10  1  0  0  0  0
 17 28  1  1  0  0  0
 18  1  1  0  0  0  0
 18 20  1  0  0  0  0
 19  6  1  6  0  0  0
 19  5  1  0  0  0  0
 20 13  1  0  0  0  0
 21 26  1  0  0  0  0
 22 10  1  0  0  0  0
 23 21  2  0  0  0  0
 23  4  1  0  0  0  0
 24 22  1  0  0  0  0
 25 14  1  6  0  0  0
 25 17  1  0  0  0  0
 26  1  2  0  0  0  0
 27  2  1  0  0  0  0
 28 29  1  0  0  0  0
 30 33  1  0  0  0  0
 31 33  1  0  0  0  0
 32 29  1  6  0  0  0
 32 34  1  0  0  0  0
 32 31  1  0  0  0  0
 34 30  1  0  0  0  0
M  END
>  <MODEL>
2

>  <REMARK>
 VINA RESULT:      -8.7      5.403      8.086
  Name = 
  3 active torsions:
  status: ('A' for Active; 'I' for Inactive)
    1  A    between atoms: C_17  and  N_28
    2  A    between atoms: N_28  and  C_29
    3  A    between atoms: C_29  and  C_32
                            x       y       z     vdW  Elec       q    Type
                         _______ _______ _______ _____ _____    ______ ____

>  <TORSDO>
F 3

$$$$
=
 OpenBabel11122412053D

 34 40  0  0  1  0  0  0  0  0999 V2000
  188.1690  177.9600  138.1830 C   0  0  0  0  0  0  0  0  0  0  0  0
  186.4780  178.4850  139.9950 C   0  0  0  0  0  3  0  0  0  0  0  0
  192.4190  173.7650  136.1710 C   0  0  2  0  0  3  0  0  0  0  0  0
  189.7150  177.0030  136.6120 C   0  0  0  0  0  0  0  0  0  0  0  0
  191.9080  175.9440  137.4950 C   0  0  2  0  0  3  0  0  0  0  0  0
  194.2900  175.1110  137.2860 C   0  0  0  0  0  1  0  0  0  0  0  0
  192.9440  172.4950  136.4050 O   0  0  0  0  0  1  0  0  0  0  0  0
  192.7320  175.7560  134.5940 C   0  0  0  0  0  2  0  0  0  0  0  0
  188.8280  178.2720  140.5780 C   0  0  2  0  0  3  0  0  0  0  0  0
  189.5390  176.9360  143.4530 C   0  0  0  0  0  2  0  0  0  0  0  0
  191.0960  175.7090  138.7690 C   0  0  0  0  0  2  0  0  0  0  0  0
  191.4070  176.2850  135.0400 C   0  0  0  0  0  3  0  0  0  0  0  0
  189.7550  177.0370  140.4320 C   0  0  1  0  0  3  0  0  0  0  0  0
  186.5780  178.6140  141.5040 C   0  0  0  0  0  3  0  0  0  0  0  0
  191.0090  176.3420  136.3200 C   0  0  0  0  0  0  0  0  0  0  0  0
  192.8290  174.2430  134.7730 C   0  0  0  0  0  2  0  0  0  0  0  0
  188.1670  177.0720  142.7690 C   0  0  2  0  0  3  0  0  0  0  0  0
  189.3570  177.2700  137.9390 C   0  0  0  0  0  0  0  0  0  0  0  0
  192.8200  174.7200  137.3050 C   0  0  2  0  0  3  0  0  0  0  0  0
  190.1710  176.8110  139.0350 N   0  0  0  0  0  0  0  0  0  0  0  0
  187.7080  178.0260  135.8690 C   0  0  0  0  0  3  0  0  0  0  0  0
  190.6850  177.6670  142.7500 C   0  0  0  0  0  2  0  0  0  0  0  0
  188.8780  177.3860  135.6060 N   0  0  0  0  0  0  0  0  0  0  0  0
  190.9830  177.1270  141.3520 C   0  0  0  0  0  2  0  0  0  0  0  0
  188.0350  178.3430  141.9000 C   0  0  1  0  0  3  0  0  0  0  0  0
  187.3590  178.3130  137.1500 N   0  0  0  0  0  0  0  0  0  0  0  0
  187.8320  178.2880  139.5280 N   0  0  0  0  0  0  0  0  0  0  0  0
  187.1310  177.0280  143.7910 N   0  0  0  0  0  2  0  0  0  0  0  0
  187.7340  177.5020  145.0260 C   0  0  0  0  0  2  0  0  0  0  0  0
  184.3990  178.6850  145.8580 N   0  0  0  0  0  2  0  0  0  0  0  0
  186.3400  177.9050  147.0430 C   0  0  0  0  0  2  0  0  0  0  0  0
  186.7940  178.4650  145.7250 C   0  0  2  0  0  3  0  0  0  0  0  0
  184.9310  178.4250  147.1920 C   0  0  0  0  0  2  0  0  0  0  0  0
  185.5210  178.6170  144.9270 C   0  0  0  0  0  2  0  0  0  0  0  0
  1 27  1  0  0  0  0
  2 14  2  0  0  0  0
  3  7  1  1  0  0  0
  3 19  1  0  0  0  0
  4 18  2  0  0  0  0
  5 11  1  1  0  0  0
  8 16  1  0  0  0  0
  8 12  1  0  0  0  0
  9 27  1  6  0  0  0
  9 25  1  0  0  0  0
 11 20  1  0  0  0  0
 12 15  2  0  0  0  0
 13  9  1  0  0  0  0
 13 24  1  1  0  0  0
 15  4  1  0  0  0  0
 15  5  1  0  0  0  0
 16  3  1  0  0  0  0
 17 10  1  0  0  0  0
 17 28  1  1  0  0  0
 18  1  1  0  0  0  0
 18 20  1  0  0  0  0
 19  6  1  6  0  0  0
 19  5  1  0  0  0  0
 20 13  1  0  0  0  0
 21 26  1  0  0  0  0
 22 10  1  0  0  0  0
 23 21  2  0  0  0  0
 23  4  1  0  0  0  0
 24 22  1  0  0  0  0
 25 14  1  6  0  0  0
 25 17  1  0  0  0  0
 26  1  2  0  0  0  0
 27  2  1  0  0  0  0
 28 29  1  0  0  0  0
 30 33  1  0  0  0  0
 31 33  1  0  0  0  0
 32 29  1  6  0  0  0
 32 31  1  0  0  0  0
 34 32  1  0  0  0  0
 34 30  1  0  0  0  0
M  END
>  <MODEL>
3

>  <REMARK>
 VINA RESULT:      -8.4      5.671      8.590
  Name = 
  3 active torsions:
  status: ('A' for Active; 'I' for Inactive)
    1  A    between atoms: C_17  and  N_28
    2  A    between atoms: N_28  and  C_29
    3  A    between atoms: C_29  and  C_32
                            x       y       z     vdW  Elec       q    Type
                         _______ _______ _______ _____ _____    ______ ____

>  <TORSDO>
F 3

$$$$
=
 OpenBabel11122412053D

 34 40  0  0  1  0  0  0  0  0999 V2000
  183.4940  178.7130  143.9150 C   0  0  0  0  0  0  0  0  0  0  0  0
  181.3710  179.6760  142.9220 C   0  0  0  0  0  3  0  0  0  0  0  0
  189.7840  178.6600  143.5410 C   0  0  2  0  0  3  0  0  0  0  0  0
  185.7190  178.1890  144.6550 C   0  0  0  0  0  0  0  0  0  0  0  0
  187.5150  177.5670  142.8950 C   0  0  2  0  0  3  0  0  0  0  0  0
  189.6920  176.5350  142.1160 C   0  0  0  0  0  1  0  0  0  0  0  0
  190.8790  179.2530  142.9130 O   0  0  0  0  0  1  0  0  0  0  0  0
  189.2580  176.8290  145.2500 C   0  0  0  0  0  2  0  0  0  0  0  0
  182.8210  178.3010  141.5380 C   0  0  2  0  0  3  0  0  0  0  0  0
  183.0930  179.1030  138.4020 C   0  0  0  0  0  2  0  0  0  0  0  0
  186.6660  178.4280  141.9580 C   0  0  0  0  0  2  0  0  0  0  0  0
  187.8810  177.3910  145.3900 C   0  0  0  0  0  3  0  0  0  0  0  0
  184.2950  178.5540  141.1300 C   0  0  1  0  0  3  0  0  0  0  0  0
  180.7870  179.6790  141.5210 C   0  0  0  0  0  3  0  0  0  0  0  0
  187.1060  177.7600  144.3590 C   0  0  0  0  0  0  0  0  0  0  0  0
  190.2560  177.8820  144.7750 C   0  0  0  0  0  2  0  0  0  0  0  0
  182.3670  179.8600  139.5290 C   0  0  2  0  0  3  0  0  0  0  0  0
  184.8130  178.3820  143.6050 C   0  0  0  0  0  0  0  0  0  0  0  0
  188.9890  177.8180  142.5330 C   0  0  2  0  0  3  0  0  0  0  0  0
  185.2370  178.2840  142.2320 N   0  0  0  0  0  0  0  0  0  0  0  0
  184.0160  178.7250  146.2170 C   0  0  0  0  0  3  0  0  0  0  0  0
  183.6160  177.7180  138.7890 C   0  0  0  0  0  2  0  0  0  0  0  0
  185.2980  178.3680  145.9390 N   0  0  0  0  0  0  0  0  0  0  0  0
  184.6900  177.7560  139.8760 C   0  0  0  0  0  2  0  0  0  0  0  0
  181.7650  178.9310  140.6070 C   0  0  1  0  0  3  0  0  0  0  0  0
  183.1200  178.8930  145.2090 N   0  0  0  0  0  0  0  0  0  0  0  0
  182.5550  178.8500  142.8510 N   0  0  0  0  0  0  0  0  0  0  0  0
  181.3420  180.7060  138.9360 N   0  0  0  0  0  2  0  0  0  0  0  0
  182.0200  181.8650  138.3770 C   0  0  0  0  0  2  0  0  0  0  0  0
  181.2190  184.5660  136.0810 N   0  0  0  0  0  2  0  0  0  0  0  0
  180.7680  182.2110  136.2590 C   0  0  0  0  0  2  0  0  0  0  0  0
  181.0250  182.7420  137.6410 C   0  0  2  0  0  3  0  0  0  0  0  0
  180.5340  183.4530  135.4320 C   0  0  0  0  0  2  0  0  0  0  0  0
  181.6160  184.1130  137.4100 C   0  0  0  0  0  2  0  0  0  0  0  0
  1 26  1  0  0  0  0
  3  7  1  6  0  0  0
  3 16  1  0  0  0  0
  4 23  2  0  0  0  0
  5 11  1  6  0  0  0
  5 15  1  0  0  0  0
  8 12  1  0  0  0  0
  9 27  1  1  0  0  0
 10 22  1  0  0  0  0
 10 17  1  0  0  0  0
 11 20  1  0  0  0  0
 13 24  1  6  0  0  0
 13  9  1  0  0  0  0
 13 20  1  0  0  0  0
 14  2  2  0  0  0  0
 15  4  1  0  0  0  0
 15 12  2  0  0  0  0
 16  8  1  0  0  0  0
 17 28  1  6  0  0  0
 17 25  1  0  0  0  0
 18  1  2  0  0  0  0
 18  4  1  0  0  0  0
 19  6  1  1  0  0  0
 19  5  1  0  0  0  0
 19  3  1  0  0  0  0
 20 18  1  0  0  0  0
 22 24  1  0  0  0  0
 23 21  1  0  0  0  0
 25 14  1  1  0  0  0
 25  9  1  0  0  0  0
 26 21  2  0  0  0  0
 27  2  1  0  0  0  0
 27  1  1  0  0  0  0
 29 28  1  0  0  0  0
 30 34  1  0  0  0  0
 31 32  1  0  0  0  0
 32 29  1  6  0  0  0
 33 30  1  0  0  0  0
 33 31  1  0  0  0  0
 34 32  1  0  0  0  0
M  END
>  <MODEL>
4

>  <REMARK>
 VINA RESULT:      -8.4      3.472      8.810
  Name = 
  3 active torsions:
  status: ('A' for Active; 'I' for Inactive)
    1  A    between atoms: C_17  and  N_28
    2  A    between atoms: N_28  and  C_29
    3  A    between atoms: C_29  and  C_32
                            x       y       z     vdW  Elec       q    Type
                         _______ _______ _______ _____ _____    ______ ____

>  <TORSDO>
F 3

$$$$
=
 OpenBabel11122412053D

 34 40  0  0  1  0  0  0  0  0999 V2000
  187.8710  178.1600  141.4100 C   0  0  0  0  0  0  0  0  0  0  0  0
  185.9410  178.2530  139.7720 C   0  0  0  0  0  3  0  0  0  0  0  0
  189.7680  175.9700  147.0050 C   0  0  2  0  0  3  0  0  0  0  0  0
  189.4730  177.6790  143.1360 C   0  0  0  0  0  0  0  0  0  0  0  0
  188.7590  177.9210  145.6140 C   0  0  2  0  0  3  0  0  0  0  0  0
  189.1760  178.2100  148.0950 C   0  0  0  0  0  1  0  0  0  0  0  0
  189.4080  175.1470  148.0730 O   0  0  0  0  0  1  0  0  0  0  0  0
  191.6790  177.5040  146.2710 C   0  0  0  0  0  2  0  0  0  0  0  0
  185.6820  179.2350  141.9790 C   0  0  2  0  0  3  0  0  0  0  0  0
  182.7630  179.0030  143.3860 C   0  0  0  0  0  2  0  0  0  0  0  0
  187.3590  177.6280  145.0750 C   0  0  0  0  0  2  0  0  0  0  0  0
  191.1360  177.4710  144.8790 C   0  0  0  0  0  3  0  0  0  0  0  0
  185.7580  178.5420  143.3640 C   0  0  1  0  0  3  0  0  0  0  0  0
  184.5050  178.7310  139.8830 C   0  0  0  0  0  3  0  0  0  0  0  0
  189.8390  177.6170  144.5700 C   0  0  0  0  0  0  0  0  0  0  0  0
  191.2700  176.2690  147.0690 C   0  0  0  0  0  2  0  0  0  0  0  0
  183.2510  178.3660  142.0720 C   0  0  2  0  0  3  0  0  0  0  0  0
  188.1690  178.0360  142.7670 C   0  0  0  0  0  0  0  0  0  0  0  0
  188.8770  177.2200  146.9790 C   0  0  2  0  0  3  0  0  0  0  0  0
  187.1440  178.2320  143.7610 N   0  0  0  0  0  0  0  0  0  0  0  0
  190.0710  177.5190  140.8460 C   0  0  0  0  0  3  0  0  0  0  0  0
  183.7360  179.9980  144.0210 C   0  0  0  0  0  2  0  0  0  0  0  0
  190.3940  177.4260  142.1630 N   0  0  0  0  0  0  0  0  0  0  0  0
  185.0560  179.3620  144.4580 C   0  0  0  0  0  2  0  0  0  0  0  0
  184.2880  179.2270  141.3180 C   0  0  1  0  0  3  0  0  0  0  0  0
  188.8170  177.8870  140.4740 N   0  0  0  0  0  0  0  0  0  0  0  0
  186.5630  178.5830  141.0340 N   0  0  0  0  0  0  0  0  0  0  0  0
  182.0950  178.0850  141.2330 N   0  0  0  0  0  2  0  0  0  0  0  0
  180.9260  178.5710  141.9470 C   0  0  0  0  0  2  0  0  0  0  0  0
  179.3060  181.6210  140.8120 N   0  0  0  0  0  2  0  0  0  0  0  0
  180.8130  179.9820  139.9050 C   0  0  0  0  0  2  0  0  0  0  0  0
  180.0160  179.3270  140.9970 C   0  0  2  0  0  3  0  0  0  0  0  0
  180.0520  181.2530  139.6130 C   0  0  0  0  0  2  0  0  0  0  0  0
  179.3570  180.4790  141.7190 C   0  0  0  0  0  2  0  0  0  0  0  0
  1 18  1  0  0  0  0
  2 14  2  0  0  0  0
  2 27  1  0  0  0  0
  3 16  1  0  0  0  0
  3  7  1  1  0  0  0
  4 15  1  0  0  0  0
  5 11  1  6  0  0  0
  5 19  1  0  0  0  0
  8 16  1  0  0  0  0
  9 27  1  6  0  0  0
  9 13  1  0  0  0  0
 10 22  1  0  0  0  0
 12  8  1  0  0  0  0
 13 20  1  0  0  0  0
 13 24  1  1  0  0  0
 15 12  2  0  0  0  0
 15  5  1  0  0  0  0
 17 28  1  6  0  0  0
 17 10  1  0  0  0  0
 18  4  2  0  0  0  0
 18 20  1  0  0  0  0
 19  3  1  0  0  0  0
 19  6  1  1  0  0  0
 20 11  1  0  0  0  0
 21 23  2  0  0  0  0
 22 24  1  0  0  0  0
 23  4  1  0  0  0  0
 25 14  1  6  0  0  0
 25  9  1  0  0  0  0
 25 17  1  0  0  0  0
 26 21  1  0  0  0  0
 26  1  2  0  0  0  0
 27  1  1  0  0  0  0
 28 29  1  0  0  0  0
 30 34  1  0  0  0  0
 31 32  1  0  0  0  0
 32 34  1  0  0  0  0
 32 29  1  1  0  0  0
 33 31  1  0  0  0  0
 33 30  1  0  0  0  0
M  END
>  <MODEL>
5

>  <REMARK>
 VINA RESULT:      -7.9      3.242      9.545
  Name = 
  3 active torsions:
  status: ('A' for Active; 'I' for Inactive)
    1  A    between atoms: C_17  and  N_28
    2  A    between atoms: N_28  and  C_29
    3  A    between atoms: C_29  and  C_32
                            x       y       z     vdW  Elec       q    Type
                         _______ _______ _______ _____ _____    ______ ____

>  <TORSDO>
F 3

$$$$
=
 OpenBabel11122412053D

 34 40  0  0  1  0  0  0  0  0999 V2000
  184.4380  178.5860  143.7190 C   0  0  0  0  0  0  0  0  0  0  0  0
  186.5240  177.8220  144.9380 C   0  0  0  0  0  3  0  0  0  0  0  0
  180.7090  177.5360  138.7490 C   0  0  2  0  0  3  0  0  0  0  0  0
  182.4660  178.8620  142.3750 C   0  0  0  0  0  0  0  0  0  0  0  0
  182.6930  178.8520  139.7940 C   0  0  2  0  0  3  0  0  0  0  0  0
  181.9370  179.3550  137.4310 C   0  0  0  0  0  1  0  0  0  0  0  0
  180.4720  176.6670  137.6840 O   0  0  0  0  0  1  0  0  0  0  0  0
  179.7950  179.7060  139.7510 C   0  0  0  0  0  2  0  0  0  0  0  0
  186.7090  178.6670  142.6670 C   0  0  2  0  0  3  0  0  0  0  0  0
  188.9180  177.2790  140.7310 C   0  0  0  0  0  2  0  0  0  0  0  0
  183.9260  177.9880  140.0640 C   0  0  0  0  0  2  0  0  0  0  0  0
  180.5470  179.4120  141.0080 C   0  0  0  0  0  3  0  0  0  0  0  0
  186.0730  178.1060  141.3690 C   0  0  1  0  0  3  0  0  0  0  0  0
  187.9730  177.6620  144.5180 C   0  0  0  0  0  3  0  0  0  0  0  0
  181.8220  178.9970  141.0470 C   0  0  0  0  0  0  0  0  0  0  0  0
  179.4860  178.4350  138.9640 C   0  0  0  0  0  2  0  0  0  0  0  0
  188.4890  176.8680  142.1510 C   0  0  2  0  0  3  0  0  0  0  0  0
  183.8450  178.6330  142.4570 C   0  0  0  0  0  0  0  0  0  0  0  0
  182.0210  178.3010  138.5240 C   0  0  2  0  0  3  0  0  0  0  0  0
  184.6330  178.4120  141.2720 N   0  0  0  0  0  0  0  0  0  0  0  0
  182.3350  178.9030  144.7420 C   0  0  0  0  0  3  0  0  0  0  0  0
  188.3350  178.6060  140.2400 C   0  0  0  0  0  2  0  0  0  0  0  0
  181.7420  178.9890  143.5230 N   0  0  0  0  0  0  0  0  0  0  0  0
  186.8110  178.5890  140.1100 C   0  0  0  0  0  2  0  0  0  0  0  0
  188.0780  178.0620  143.0410 C   0  0  1  0  0  3  0  0  0  0  0  0
  183.6760  178.7060  144.8380 N   0  0  0  0  0  0  0  0  0  0  0  0
  185.8500  178.4150  143.8050 N   0  0  0  0  0  0  0  0  0  0  0  0
  189.5710  176.1090  142.7620 N   0  0  0  0  0  2  0  0  0  0  0  0
  190.8130  176.7650  142.3870 C   0  0  0  0  0  2  0  0  0  0  0  0
  191.6850  177.3580  145.8660 N   0  0  0  0  0  2  0  0  0  0  0  0
  191.5900  175.4800  144.3670 C   0  0  0  0  0  2  0  0  0  0  0  0
  191.7910  176.7220  143.5450 C   0  0  2  0  0  3  0  0  0  0  0  0
  191.9170  175.9210  145.7730 C   0  0  0  0  0  2  0  0  0  0  0  0
  191.5080  177.8540  144.5040 C   0  0  0  0  0  2  0  0  0  0  0  0
  1 27  1  0  0  0  0
  1 26  1  0  0  0  0
  3  7  1  6  0  0  0
  3 16  1  0  0  0  0
  4 18  1  0  0  0  0
  4 23  2  0  0  0  0
  5 11  1  1  0  0  0
  5 15  1  0  0  0  0
  8 12  1  0  0  0  0
  9 25  1  0  0  0  0
  9 27  1  1  0  0  0
 10 17  1  0  0  0  0
 11 20  1  0  0  0  0
 12 15  2  0  0  0  0
 13 24  1  6  0  0  0
 13  9  1  0  0  0  0
 14  2  2  0  0  0  0
 15  4  1  0  0  0  0
 16  8  1  0  0  0  0
 17 28  1  1  0  0  0
 17 25  1  0  0  0  0
 18  1  2  0  0  0  0
 19  6  1  6  0  0  0
 19  3  1  0  0  0  0
 19  5  1  0  0  0  0
 20 13  1  0  0  0  0
 20 18  1  0  0  0  0
 21 26  2  0  0  0  0
 22 10  1  0  0  0  0
 23 21  1  0  0  0  0
 24 22  1  0  0  0  0
 25 14  1  1  0  0  0
 27  2  1  0  0  0  0
 29 28  1  0  0  0  0
 31 33  1  0  0  0  0
 32 29  1  6  0  0  0
 32 31  1  0  0  0  0
 32 34  1  0  0  0  0
 33 30  1  0  0  0  0
 34 30  1  0  0  0  0
M  END
>  <MODEL>
6

>  <REMARK>
 VINA RESULT:      -7.7      1.519      2.171
  Name = 
  3 active torsions:
  status: ('A' for Active; 'I' for Inactive)
    1  A    between atoms: C_17  and  N_28
    2  A    between atoms: N_28  and  C_29
    3  A    between atoms: C_29  and  C_32
                            x       y       z     vdW  Elec       q    Type
                         _______ _______ _______ _____ _____    ______ ____

>  <TORSDO>
F 3

$$$$
=
 OpenBabel11122412053D

 34 40  0  0  1  0  0  0  0  0999 V2000
  188.3710  178.0570  141.3170 C   0  0  0  0  0  0  0  0  0  0  0  0
  186.6190  178.0800  139.4880 C   0  0  0  0  0  3  0  0  0  0  0  0
  189.7690  175.9120  147.0750 C   0  0  2  0  0  3  0  0  0  0  0  0
  189.8050  177.6320  143.1990 C   0  0  0  0  0  0  0  0  0  0  0  0
  188.8290  177.8280  145.5900 C   0  0  2  0  0  3  0  0  0  0  0  0
  188.9740  178.1180  148.1020 C   0  0  0  0  0  1  0  0  0  0  0  0
  189.3350  175.0680  148.0970 O   0  0  0  0  0  1  0  0  0  0  0  0
  191.6800  177.5290  146.5450 C   0  0  0  0  0  2  0  0  0  0  0  0
  186.0920  179.0360  141.6590 C   0  0  2  0  0  3  0  0  0  0  0  0
  183.0560  178.6730  142.7540 C   0  0  0  0  0  2  0  0  0  0  0  0
  187.5050  177.4800  144.9080 C   0  0  0  0  0  2  0  0  0  0  0  0
  191.2860  177.4830  145.1050 C   0  0  0  0  0  3  0  0  0  0  0  0
  186.0540  178.3380  143.0420 C   0  0  1  0  0  3  0  0  0  0  0  0
  185.1610  178.4970  139.4500 C   0  0  0  0  0  3  0  0  0  0  0  0
  190.0230  177.5760  144.6630 C   0  0  0  0  0  0  0  0  0  0  0  0
  191.2430  176.2730  147.2950 C   0  0  0  0  0  2  0  0  0  0  0  0
  183.7030  178.0660  141.4970 C   0  0  2  0  0  3  0  0  0  0  0  0
  188.5330  177.9360  142.6980 C   0  0  0  0  0  0  0  0  0  0  0  0
  188.8340  177.1240  146.9590 C   0  0  2  0  0  3  0  0  0  0  0  0
  187.4030  178.0830  143.5800 N   0  0  0  0  0  0  0  0  0  0  0  0
  190.6430  177.5120  140.9830 C   0  0  0  0  0  3  0  0  0  0  0  0
  183.9150  179.7040  143.4890 C   0  0  0  0  0  2  0  0  0  0  0  0
  190.8320  177.4240  142.3270 N   0  0  0  0  0  0  0  0  0  0  0  0
  185.2080  179.1210  144.0590 C   0  0  0  0  0  2  0  0  0  0  0  0
  184.7760  178.9750  140.8560 C   0  0  1  0  0  3  0  0  0  0  0  0
  189.4210  177.8300  140.4840 N   0  0  0  0  0  0  0  0  0  0  0  0
  187.0930  178.4280  140.8080 N   0  0  0  0  0  0  0  0  0  0  0  0
  182.6540  177.7420  140.5420 N   0  0  0  0  0  2  0  0  0  0  0  0
  181.6610  178.8010  140.6310 C   0  0  0  0  0  2  0  0  0  0  0  0
  179.5130  176.2070  139.2620 N   0  0  0  0  0  2  0  0  0  0  0  0
  179.7170  177.4180  141.3290 C   0  0  0  0  0  2  0  0  0  0  0  0
  180.2980  178.2660  140.2330 C   0  0  2  0  0  3  0  0  0  0  0  0
  178.9310  176.3620  140.5910 C   0  0  0  0  0  2  0  0  0  0  0  0
  180.4340  177.3210  139.0630 C   0  0  0  0  0  2  0  0  0  0  0  0
  1 18  1  0  0  0  0
  2 27  1  0  0  0  0
  3 16  1  0  0  0  0
  3  7  1  1  0  0  0
  4 15  1  0  0  0  0
  5 11  1  6  0  0  0
  5 19  1  0  0  0  0
  8 16  1  0  0  0  0
  9 27  1  6  0  0  0
  9 13  1  0  0  0  0
 10 22  1  0  0  0  0
 12  8  1  0  0  0  0
 13 20  1  0  0  0  0
 13 24  1  1  0  0  0
 14  2  2  0  0  0  0
 15 12  2  0  0  0  0
 15  5  1  0  0  0  0
 17 28  1  6  0  0  0
 17 10  1  0  0  0  0
 18  4  2  0  0  0  0
 18 20  1  0  0  0  0
 19  3  1  0  0  0  0
 19  6  1  1  0  0  0
 20 11  1  0  0  0  0
 21 23  2  0  0  0  0
 22 24  1  0  0  0  0
 23  4  1  0  0  0  0
 25 14  1  6  0  0  0
 25 17  1  0  0  0  0
 25  9  1  0  0  0  0
 26 21  1  0  0  0  0
 26  1  2  0  0  0  0
 27  1  1  0  0  0  0
 28 29  1  0  0  0  0
 30 33  1  0  0  0  0
 32 29  1  1  0  0  0
 32 31  1  0  0  0  0
 33 31  1  0  0  0  0
 34 30  1  0  0  0  0
 34 32  1  0  0  0  0
M  END
>  <MODEL>
7

>  <REMARK>
 VINA RESULT:      -7.6      3.109      9.647
  Name = 
  3 active torsions:
  status: ('A' for Active; 'I' for Inactive)
    1  A    between atoms: C_17  and  N_28
    2  A    between atoms: N_28  and  C_29
    3  A    between atoms: C_29  and  C_32
                            x       y       z     vdW  Elec       q    Type
                         _______ _______ _______ _____ _____    ______ ____

>  <TORSDO>
F 3

$$$$
=
 OpenBabel11122412053D

 34 40  0  0  1  0  0  0  0  0999 V2000
  186.2970  178.4220  141.5740 C   0  0  0  0  0  0  0  0  0  0  0  0
  188.6860  177.6490  141.9100 C   0  0  0  0  0  3  0  0  0  0  0  0
  180.9620  177.4000  138.3810 C   0  0  2  0  0  3  0  0  0  0  0  0
  183.9630  178.7070  141.0770 C   0  0  0  0  0  0  0  0  0  0  0  0
  183.1970  178.7080  138.6020 C   0  0  2  0  0  3  0  0  0  0  0  0
  181.6040  179.2240  136.7030 C   0  0  0  0  0  1  0  0  0  0  0  0
  180.3360  176.5370  137.4820 O   0  0  0  0  0  1  0  0  0  0  0  0
  180.5010  179.5670  139.6620 C   0  0  0  0  0  2  0  0  0  0  0  0
  188.0010  178.5050  139.7410 C   0  0  2  0  0  3  0  0  0  0  0  0
  189.3080  177.1230  137.1080 C   0  0  0  0  0  2  0  0  0  0  0  0
  184.4380  177.8410  138.3830 C   0  0  0  0  0  2  0  0  0  0  0  0
  181.6720  179.2660  140.5400 C   0  0  0  0  0  3  0  0  0  0  0  0
  186.9190  177.9510  138.7780 C   0  0  1  0  0  3  0  0  0  0  0  0
  189.8690  177.4890  140.9720 C   0  0  0  0  0  3  0  0  0  0  0  0
  182.8660  178.8490  140.0920 C   0  0  0  0  0  0  0  0  0  0  0  0
  179.9140  178.3000  139.0460 C   0  0  0  0  0  2  0  0  0  0  0  0
  189.4480  176.7050  138.5830 C   0  0  2  0  0  3  0  0  0  0  0  0
  185.2700  178.4760  140.6310 C   0  0  0  0  0  0  0  0  0  0  0  0
  182.0930  178.1640  137.6790 C   0  0  2  0  0  3  0  0  0  0  0  0
  185.5510  178.2590  139.2340 N   0  0  0  0  0  0  0  0  0  0  0  0
  184.7390  178.7380  143.3180 C   0  0  0  0  0  3  0  0  0  0  0  0
  188.5870  178.4520  136.8800 C   0  0  0  0  0  2  0  0  0  0  0  0
  183.7280  178.8300  142.4140 N   0  0  0  0  0  0  0  0  0  0  0  0
  187.1280  178.4380  137.3350 C   0  0  0  0  0  2  0  0  0  0  0  0
  189.4080  177.8960  139.5670 C   0  0  1  0  0  3  0  0  0  0  0  0
  186.0150  178.5380  142.8980 N   0  0  0  0  0  0  0  0  0  0  0  0
  187.6360  178.2490  141.1180 N   0  0  0  0  0  0  0  0  0  0  0  0
  190.6780  175.9420  138.7360 N   0  0  0  0  0  2  0  0  0  0  0  0
  190.9440  175.3060  137.4560 C   0  0  0  0  0  2  0  0  0  0  0  0
  194.4150  175.7500  138.4430 N   0  0  0  0  0  2  0  0  0  0  0  0
  193.0920  174.0600  137.3580 C   0  0  0  0  0  2  0  0  0  0  0  0
  192.4250  175.3880  137.1360 C   0  0  2  0  0  3  0  0  0  0  0  0
  194.4780  174.4270  137.8310 C   0  0  0  0  0  2  0  0  0  0  0  0
  193.1140  176.3180  138.1060 C   0  0  0  0  0  2  0  0  0  0  0  0
  1 26  1  0  0  0  0
  3  7  1  6  0  0  0
  3 16  1  0  0  0  0
  4 23  2  0  0  0  0
  5 11  1  1  0  0  0
  5 15  1  0  0  0  0
  8 12  1  0  0  0  0
  9 27  1  1  0  0  0
 10 17  1  0  0  0  0
 11 20  1  0  0  0  0
 13 24  1  6  0  0  0
 13 20  1  0  0  0  0
 13  9  1  0  0  0  0
 14  2  2  0  0  0  0
 15 12  2  0  0  0  0
 15  4  1  0  0  0  0
 16  8  1  0  0  0  0
 17 28  1  6  0  0  0
 17 25  1  0  0  0  0
 18  4  1  0  0  0  0
 18  1  2  0  0  0  0
 19  6  1  1  0  0  0
 19  3  1  0  0  0  0
 19  5  1  0  0  0  0
 20 18  1  0  0  0  0
 22 10  1  0  0  0  0
 22 24  1  0  0  0  0
 23 21  1  0  0  0  0
 25  9  1  0  0  0  0
 25 14  1  1  0  0  0
 26 21  2  0  0  0  0
 27  1  1  0  0  0  0
 27  2  1  0  0  0  0
 29 28  1  0  0  0  0
 31 33  1  0  0  0  0
 32 31  1  0  0  0  0
 32 29  1  1  0  0  0
 32 34  1  0  0  0  0
 33 30  1  0  0  0  0
 34 30  1  0  0  0  0
M  END
>  <MODEL>
8

>  <REMARK>
 VINA RESULT:      -7.4      4.243      5.435
  Name = 
  3 active torsions:
  status: ('A' for Active; 'I' for Inactive)
    1  A    between atoms: C_17  and  N_28
    2  A    between atoms: N_28  and  C_29
    3  A    between atoms: C_29  and  C_32
                            x       y       z     vdW  Elec       q    Type
                         _______ _______ _______ _____ _____    ______ ____

>  <TORSDO>
F 3

$$$$
=
 OpenBabel11122412053D

 34 40  0  0  1  0  0  0  0  0999 V2000
  187.1280  177.9360  142.4830 C   0  0  0  0  0  0  0  0  0  0  0  0
  189.4830  177.0840  142.1040 C   0  0  0  0  0  3  0  0  0  0  0  0
  181.1330  177.4980  140.5930 C   0  0  2  0  0  3  0  0  0  0  0  0
  184.7610  178.3310  142.6240 C   0  0  0  0  0  0  0  0  0  0  0  0
  183.4220  178.7210  140.4410 C   0  0  2  0  0  3  0  0  0  0  0  0
  181.4460  179.5450  139.0880 C   0  0  0  0  0  1  0  0  0  0  0  0
  180.2640  176.7910  139.7620 O   0  0  0  0  0  1  0  0  0  0  0  0
  181.1110  179.4520  142.2460 C   0  0  0  0  0  2  0  0  0  0  0  0
  188.3400  178.2700  140.3170 C   0  0  2  0  0  3  0  0  0  0  0  0
  188.8980  177.2830  137.2730 C   0  0  0  0  0  2  0  0  0  0  0  0
  184.5240  177.8780  139.8000 C   0  0  0  0  0  2  0  0  0  0  0  0
  182.4420  179.0030  142.7550 C   0  0  0  0  0  3  0  0  0  0  0  0
  187.0300  177.8860  139.5820 C   0  0  1  0  0  3  0  0  0  0  0  0
  190.3940  177.0490  140.8900 C   0  0  0  0  0  3  0  0  0  0  0  0
  183.4680  178.6390  141.9710 C   0  0  0  0  0  0  0  0  0  0  0  0
  180.3250  178.3030  141.6180 C   0  0  0  0  0  2  0  0  0  0  0  0
  189.3670  176.6440  138.5920 C   0  0  2  0  0  3  0  0  0  0  0  0
  185.9080  178.1500  141.8400 C   0  0  0  0  0  0  0  0  0  0  0  0
  182.1000  178.3420  139.7510 C   0  0  2  0  0  3  0  0  0  0  0  0
  185.8310  178.1430  140.4010 N   0  0  0  0  0  0  0  0  0  0  0  0
  186.0560  178.0080  144.5850 C   0  0  0  0  0  3  0  0  0  0  0  0
  188.2140  178.6440  137.4230 C   0  0  0  0  0  2  0  0  0  0  0  0
  184.8630  178.2530  143.9810 N   0  0  0  0  0  0  0  0  0  0  0  0
  186.9100  178.5840  138.2180 C   0  0  0  0  0  2  0  0  0  0  0  0
  189.6290  177.6720  139.7160 C   0  0  1  0  0  3  0  0  0  0  0  0
  187.1810  177.8540  143.8380 N   0  0  0  0  0  0  0  0  0  0  0  0
  188.3060  177.8130  141.6910 N   0  0  0  0  0  0  0  0  0  0  0  0
  190.5560  175.8470  138.3260 N   0  0  0  0  0  2  0  0  0  0  0  0
  190.9670  176.1420  136.9630 C   0  0  0  0  0  2  0  0  0  0  0  0
  194.2900  175.6280  138.3460 N   0  0  0  0  0  2  0  0  0  0  0  0
  192.7700  174.4320  136.9170 C   0  0  0  0  0  2  0  0  0  0  0  0
  192.4560  175.8980  136.8080 C   0  0  2  0  0  3  0  0  0  0  0  0
  194.1290  174.4010  137.5720 C   0  0  0  0  0  2  0  0  0  0  0  0
  193.2070  176.5260  137.9580 C   0  0  0  0  0  2  0  0  0  0  0  0
  1 26  1  0  0  0  0
  3  7  1  6  0  0  0
  3 16  1  0  0  0  0
  4 23  2  0  0  0  0
  5 11  1  6  0  0  0
  5 15  1  0  0  0  0
  8 12  1  0  0  0  0
  9 27  1  1  0  0  0
 10 22  1  0  0  0  0
 10 17  1  0  0  0  0
 11 20  1  0  0  0  0
 13 24  1  6  0  0  0
 13  9  1  0  0  0  0
 13 20  1  0  0  0  0
 14  2  2  0  0  0  0
 15  4  1  0  0  0  0
 15 12  2  0  0  0  0
 16  8  1  0  0  0  0
 17 28  1  6  0  0  0
 17 25  1  0  0  0  0
 18  1  2  0  0  0  0
 18  4  1  0  0  0  0
 19  6  1  1  0  0  0
 19  5  1  0  0  0  0
 19  3  1  0  0  0  0
 20 18  1  0  0  0  0
 22 24  1  0  0  0  0
 23 21  1  0  0  0  0
 25  9  1  0  0  0  0
 25 14  1  1  0  0  0
 26 21  2  0  0  0  0
 27  2  1  0  0  0  0
 27  1  1  0  0  0  0
 29 28  1  0  0  0  0
 31 33  1  0  0  0  0
 32 31  1  0  0  0  0
 32 29  1  1  0  0  0
 32 34  1  0  0  0  0
 33 30  1  0  0  0  0
 34 30  1  0  0  0  0
M  END
>  <MODEL>
9

>  <REMARK>
 VINA RESULT:      -7.2      4.206      5.827
  Name = 
  3 active torsions:
  status: ('A' for Active; 'I' for Inactive)
    1  A    between atoms: C_17  and  N_28
    2  A    between atoms: N_28  and  C_29
    3  A    between atoms: C_29  and  C_32
                            x       y       z     vdW  Elec       q    Type
                         _______ _______ _______ _____ _____    ______ ____

>  <TORSDO>
F 3

$$$$
