=
 OpenBabel11122411563D

 28 32  0  0  1  0  0  0  0  0999 V2000
  181.2540  178.7280  142.1540 C   0  0  0  0  0  0  0  0  0  0  0  0
  180.5950  181.3360  139.4520 O   0  0  0  0  0  0  0  0  0  0  0  0
  179.1080  175.2590  137.2960 O   0  0  0  0  0  0  0  0  0  0  0  0
  184.0420  178.8690  142.4110 C   0  0  0  0  0  3  0  0  0  0  0  0
  181.4190  175.9480  137.0180 C   0  0  2  0  0  3  0  0  0  0  0  0
  179.7680  178.5820  142.0770 C   0  0  0  0  0  2  0  0  0  0  0  0
  182.8480  181.9280  138.6770 O   0  0  0  0  0  0  0  0  0  0  0  0
  181.6640  181.0350  138.4400 S   0  0  0  0  0  0  0  0  0  0  0  0
  180.6750  180.2010  136.0360 C   0  0  0  0  0  0  0  0  0  0  0  0
  182.1970  179.3260  138.5660 C   0  0  2  0  0  3  0  0  0  0  0  0
  178.9310  175.0890  141.3680 O   0  0  0  0  0  0  0  0  0  0  0  0
  181.4930  177.0830  139.1880 C   0  0  2  0  0  3  0  0  0  0  0  0
  180.6970  178.8190  136.5990 C   0  0  0  0  0  2  0  0  0  0  0  0
  181.0470  181.3090  136.8500 N   0  0  0  0  0  2  0  0  0  0  0  0
  179.1010  176.3170  141.1550 C   0  0  0  0  0  0  0  0  0  0  0  0
  182.0640  178.6950  141.0020 C   0  0  0  0  0  0  0  0  0  0  0  0
  180.1210  175.8720  137.7250 C   0  0  0  0  0  0  0  0  0  0  0  0
  180.1740  180.4070  134.8660 N   0  0  0  0  0  2  0  0  0  0  0  0
  178.9710  176.8460  139.7650 C   0  0  0  0  0  2  0  0  0  0  0  0
  183.4610  178.7520  141.1460 C   0  0  0  0  0  3  0  0  0  0  0  0
  181.8440  178.8410  143.4190 C   0  0  0  0  0  3  0  0  0  0  0  0
  183.2330  178.9180  143.5470 C   0  0  0  0  0  3  0  0  0  0  0  0
  179.4020  177.1840  142.2510 N   0  0  0  0  0  2  0  0  0  0  0  0
  182.1510  177.0660  137.7980 C   0  0  2  0  0  3  0  0  0  0  0  0
  180.1580  176.5290  138.9800 N   0  0  0  0  0  0  0  0  0  0  0  0
  182.0450  178.5170  137.2800 C   0  0  2  0  0  3  0  0  0  0  0  0
  181.2990  176.1600  135.5150 C   0  0  0  0  0  1  0  0  0  0  0  0
  181.4480  178.5420  139.6360 C   0  0  1  0  0  3  0  0  0  0  0  0
  1 21  1  0  0  0  0
  3 17  2  0  0  0  0
  4 22  1  0  0  0  0
  5 27  1  6  0  0  0
  5 17  1  0  0  0  0
  5 24  1  0  0  0  0
  6  1  1  0  0  0  0
  6 23  1  0  0  0  0
  8  7  2  0  0  0  0
  8  2  2  0  0  0  0
  9 13  1  0  0  0  0
  9 14  1  0  0  0  0
 10  8  1  6  0  0  0
 10 28  1  0  0  0  0
 12 25  1  6  0  0  0
 12 28  1  0  0  0  0
 13 26  1  0  0  0  0
 14  8  1  0  0  0  0
 15 11  2  0  0  0  0
 15 23  1  0  0  0  0
 16 20  1  0  0  0  0
 16  1  2  0  0  0  0
 17 25  1  0  0  0  0
 18  9  2  0  0  0  0
 19 15  1  0  0  0  0
 20  4  2  0  0  0  0
 21 22  2  0  0  0  0
 24 12  1  0  0  0  0
 25 19  1  0  0  0  0
 26 24  1  0  0  0  0
 26 10  1  0  0  0  0
 28 16  1  0  0  0  0
M  END
>  <MODEL>
1

>  <REMARK>
 VINA RESULT:      -6.4      0.000      0.000
  Name = 
  0 active torsions:
  status: ('A' for Active; 'I' for Inactive)
                            x       y       z     vdW  Elec       q    Type
                         _______ _______ _______ _____ _____    ______ ____

>  <TORSDO>
F 0

$$$$
=
 OpenBabel11122411563D

 28 32  0  0  1  0  0  0  0  0999 V2000
  180.6260  179.4260  142.3290 C   0  0  0  0  0  0  0  0  0  0  0  0
  180.3490  176.1050  140.4770 O   0  0  0  0  0  0  0  0  0  0  0  0
  186.6200  178.2120  140.6430 O   0  0  0  0  0  0  0  0  0  0  0  0
  179.2080  181.1440  140.6280 C   0  0  0  0  0  3  0  0  0  0  0  0
  185.2700  179.0410  138.8030 C   0  0  2  0  0  3  0  0  0  0  0  0
  181.4050  178.5830  143.2880 C   0  0  0  0  0  2  0  0  0  0  0  0
  179.3510  176.7400  138.3250 O   0  0  0  0  0  0  0  0  0  0  0  0
  180.6410  176.4980  139.0570 S   0  0  0  0  0  0  0  0  0  0  0  0
  182.9170  175.3630  138.0660 C   0  0  0  0  0  0  0  0  0  0  0  0
  181.6250  177.9980  139.0000 C   0  0  2  0  0  3  0  0  0  0  0  0
  184.7290  180.0430  143.7590 O   0  0  0  0  0  0  0  0  0  0  0  0
  183.2760  179.3170  140.2020 C   0  0  2  0  0  3  0  0  0  0  0  0
  183.6490  176.5340  138.6310 C   0  0  0  0  0  2  0  0  0  0  0  0
  181.5150  175.2300  138.2750 N   0  0  0  0  0  2  0  0  0  0  0  0
  183.8500  179.2470  143.3390 C   0  0  0  0  0  0  0  0  0  0  0  0
  180.9000  179.4230  140.9460 C   0  0  0  0  0  0  0  0  0  0  0  0
  185.5130  178.6190  140.2010 C   0  0  0  0  0  0  0  0  0  0  0  0
  183.5780  174.3990  137.5210 N   0  0  0  0  0  2  0  0  0  0  0  0
  184.2260  178.1980  142.3460 C   0  0  0  0  0  2  0  0  0  0  0  0
  180.1920  180.3000  140.1070 C   0  0  0  0  0  3  0  0  0  0  0  0
  179.6420  180.2790  142.8430 C   0  0  0  0  0  3  0  0  0  0  0  0
  178.9310  181.1300  141.9950 C   0  0  0  0  0  3  0  0  0  0  0  0
  182.5130  179.3550  143.8320 N   0  0  0  0  0  2  0  0  0  0  0  0
  183.7250  179.1050  138.7460 C   0  0  2  0  0  3  0  0  0  0  0  0
  184.3620  178.7740  141.0130 N   0  0  0  0  0  0  0  0  0  0  0  0
  182.9540  177.8570  138.2610 C   0  0  2  0  0  3  0  0  0  0  0  0
  185.9360  178.1540  137.7600 C   0  0  0  0  0  1  0  0  0  0  0  0
  181.9770  178.5360  140.3810 C   0  0  1  0  0  3  0  0  0  0  0  0
  1 21  1  0  0  0  0
  1  6  1  0  0  0  0
  4 22  1  0  0  0  0
  5 27  1  6  0  0  0
  5 17  1  0  0  0  0
  6 23  1  0  0  0  0
  7  8  2  0  0  0  0
  8  2  2  0  0  0  0
  9 14  1  0  0  0  0
  9 13  1  0  0  0  0
 10  8  1  1  0  0  0
 10 28  1  0  0  0  0
 12 28  1  0  0  0  0
 12 25  1  1  0  0  0
 14  8  1  0  0  0  0
 15 11  2  0  0  0  0
 15 23  1  0  0  0  0
 16  1  2  0  0  0  0
 17  3  2  0  0  0  0
 17 25  1  0  0  0  0
 18  9  2  0  0  0  0
 19 15  1  0  0  0  0
 20  4  2  0  0  0  0
 20 16  1  0  0  0  0
 22 21  2  0  0  0  0
 24  5  1  0  0  0  0
 24 12  1  0  0  0  0
 25 19  1  0  0  0  0
 26 13  1  0  0  0  0
 26 24  1  0  0  0  0
 26 10  1  0  0  0  0
 28 16  1  0  0  0  0
M  END
>  <MODEL>
2

>  <REMARK>
 VINA RESULT:      -6.1      3.043      4.997
  Name = 
  0 active torsions:
  status: ('A' for Active; 'I' for Inactive)
                            x       y       z     vdW  Elec       q    Type
                         _______ _______ _______ _____ _____    ______ ____

>  <TORSDO>
F 0

$$$$
=
 OpenBabel11122411563D

 28 32  0  0  1  0  0  0  0  0999 V2000
  181.6880  177.3250  136.3930 C   0  0  0  0  0  0  0  0  0  0  0  0
  184.5680  178.0470  138.7850 O   0  0  0  0  0  0  0  0  0  0  0  0
  179.3430  175.6080  142.0310 O   0  0  0  0  0  0  0  0  0  0  0  0
  181.0100  179.9030  135.5270 C   0  0  0  0  0  3  0  0  0  0  0  0
  179.3640  178.0140  141.7090 C   0  0  2  0  0  3  0  0  0  0  0  0
  181.9780  175.9170  136.8070 C   0  0  0  0  0  2  0  0  0  0  0  0
  184.5490  180.4960  138.9690 O   0  0  0  0  0  0  0  0  0  0  0  0
  184.0500  179.2150  139.5760 S   0  0  0  0  0  0  0  0  0  0  0  0
  183.7130  178.6630  142.2280 C   0  0  0  0  0  0  0  0  0  0  0  0
  182.2560  179.2390  139.5760 C   0  0  2  0  0  3  0  0  0  0  0  0
  178.9310  174.4020  138.1570 O   0  0  0  0  0  0  0  0  0  0  0  0
  180.2680  177.8470  139.4370 C   0  0  2  0  0  3  0  0  0  0  0  0
  182.3440  178.1870  141.8710 C   0  0  0  0  0  2  0  0  0  0  0  0
  184.6060  179.0990  141.2070 N   0  0  0  0  0  2  0  0  0  0  0  0
  180.0720  174.9320  138.1550 C   0  0  0  0  0  0  0  0  0  0  0  0
  181.5110  178.3550  137.3380 C   0  0  0  0  0  0  0  0  0  0  0  0
  179.6090  176.6080  141.3140 C   0  0  0  0  0  0  0  0  0  0  0  0
  184.1390  178.5350  143.4380 N   0  0  0  0  0  2  0  0  0  0  0  0
  180.7160  175.2870  139.4540 C   0  0  0  0  0  2  0  0  0  0  0  0
  181.1570  179.6400  136.8910 C   0  0  0  0  0  3  0  0  0  0  0  0
  181.5340  177.5960  135.0280 C   0  0  0  0  0  3  0  0  0  0  0  0
  181.2030  178.8820  134.5960 C   0  0  0  0  0  3  0  0  0  0  0  0
  180.7330  175.1700  136.9110 N   0  0  0  0  0  2  0  0  0  0  0  0
  180.1660  178.7970  140.6430 C   0  0  2  0  0  3  0  0  0  0  0  0
  180.1340  176.5070  140.0020 N   0  0  0  0  0  0  0  0  0  0  0  0
  181.6210  179.2010  140.9650 C   0  0  2  0  0  3  0  0  0  0  0  0
  179.7110  178.3240  143.1590 C   0  0  0  0  0  1  0  0  0  0  0  0
  181.6410  178.0740  138.8120 C   0  0  1  0  0  3  0  0  0  0  0  0
  1  6  1  0  0  0  0
  1 16  1  0  0  0  0
  2  8  2  0  0  0  0
  4 20  1  0  0  0  0
  5 27  1  1  0  0  0
  6 23  1  0  0  0  0
  7  8  2  0  0  0  0
  8 14  1  0  0  0  0
  9 18  2  0  0  0  0
 10  8  1  1  0  0  0
 10 26  1  0  0  0  0
 12 25  1  1  0  0  0
 12 24  1  0  0  0  0
 13  9  1  0  0  0  0
 14  9  1  0  0  0  0
 15 11  2  0  0  0  0
 15 19  1  0  0  0  0
 16 28  1  0  0  0  0
 17  5  1  0  0  0  0
 17  3  2  0  0  0  0
 19 25  1  0  0  0  0
 20 16  2  0  0  0  0
 21  1  2  0  0  0  0
 22 21  1  0  0  0  0
 22  4  2  0  0  0  0
 23 15  1  0  0  0  0
 24 26  1  0  0  0  0
 24  5  1  0  0  0  0
 25 17  1  0  0  0  0
 26 13  1  0  0  0  0
 28 12  1  0  0  0  0
 28 10  1  0  0  0  0
M  END
>  <MODEL>
3

>  <REMARK>
 VINA RESULT:      -6.0      2.156      5.375
  Name = 
  0 active torsions:
  status: ('A' for Active; 'I' for Inactive)
                            x       y       z     vdW  Elec       q    Type
                         _______ _______ _______ _____ _____    ______ ____

>  <TORSDO>
F 0

$$$$
=
 OpenBabel11122411563D

 28 32  0  0  1  0  0  0  0  0999 V2000
  182.5010  176.5610  137.5720 C   0  0  0  0  0  0  0  0  0  0  0  0
  184.7150  173.4820  137.9690 O   0  0  0  0  0  0  0  0  0  0  0  0
  188.3300  179.0240  138.0140 O   0  0  0  0  0  0  0  0  0  0  0  0
  181.5180  176.2210  134.9690 C   0  0  0  0  0  3  0  0  0  0  0  0
  187.8680  178.0760  135.8270 C   0  0  2  0  0  3  0  0  0  0  0  0
  182.9830  176.8240  138.9630 C   0  0  0  0  0  2  0  0  0  0  0  0
  184.7560  172.5210  135.7090 O   0  0  0  0  0  0  0  0  0  0  0  0
  185.4590  173.4440  136.6640 S   0  0  0  0  0  0  0  0  0  0  0  0
  188.1510  173.8000  136.9410 C   0  0  0  0  0  0  0  0  0  0  0  0
  185.5390  175.0800  135.9290 C   0  0  2  0  0  3  0  0  0  0  0  0
  184.5560  180.1280  139.0940 O   0  0  0  0  0  0  0  0  0  0  0  0
  185.5710  177.4600  136.4200 C   0  0  2  0  0  3  0  0  0  0  0  0
  187.8840  175.2650  136.8460 C   0  0  0  0  0  2  0  0  0  0  0  0
  187.0670  172.8760  136.9320 N   0  0  0  0  0  2  0  0  0  0  0  0
  184.4710  178.8730  139.0610 C   0  0  0  0  0  0  0  0  0  0  0  0
  183.3920  176.2560  136.5230 C   0  0  0  0  0  0  0  0  0  0  0  0
  187.5450  178.4310  137.2270 C   0  0  0  0  0  0  0  0  0  0  0  0
  189.3470  173.3830  137.1840 N   0  0  0  0  0  2  0  0  0  0  0  0
  185.7170  178.0580  138.9450 C   0  0  0  0  0  2  0  0  0  0  0  0
  182.8870  176.1020  135.2200 C   0  0  0  0  0  3  0  0  0  0  0  0
  181.1310  176.6820  137.3110 C   0  0  0  0  0  3  0  0  0  0  0  0
  180.6400  176.5060  136.0160 C   0  0  0  0  0  3  0  0  0  0  0  0
  183.1870  178.2530  139.1500 N   0  0  0  0  0  2  0  0  0  0  0  0
  186.7220  177.1010  135.4650 C   0  0  2  0  0  3  0  0  0  0  0  0
  186.2190  178.0750  137.5750 N   0  0  0  0  0  0  0  0  0  0  0  0
  186.9550  175.5870  135.6620 C   0  0  2  0  0  3  0  0  0  0  0  0
  189.2800  177.5420  135.6280 C   0  0  0  0  0  1  0  0  0  0  0  0
  184.8720  176.1520  136.7800 C   0  0  1  0  0  3  0  0  0  0  0  0
  1  6  1  0  0  0  0
  4 20  2  0  0  0  0
  4 22  1  0  0  0  0
  5 27  1  1  0  0  0
  5 17  1  0  0  0  0
  6 23  1  0  0  0  0
  7  8  2  0  0  0  0
  8 14  1  0  0  0  0
  8  2  2  0  0  0  0
  9 18  2  0  0  0  0
 10  8  1  1  0  0  0
 10 28  1  0  0  0  0
 12 28  1  0  0  0  0
 12 25  1  1  0  0  0
 13  9  1  0  0  0  0
 14  9  1  0  0  0  0
 15 11  2  0  0  0  0
 15 23  1  0  0  0  0
 16 28  1  0  0  0  0
 16  1  2  0  0  0  0
 17 25  1  0  0  0  0
 17  3  2  0  0  0  0
 19 15  1  0  0  0  0
 20 16  1  0  0  0  0
 21  1  1  0  0  0  0
 22 21  2  0  0  0  0
 24 26  1  0  0  0  0
 24  5  1  0  0  0  0
 24 12  1  0  0  0  0
 25 19  1  0  0  0  0
 26 10  1  0  0  0  0
 26 13  1  0  0  0  0
M  END
>  <MODEL>
4

>  <REMARK>
 VINA RESULT:      -5.8      5.146      7.571
  Name = 
  0 active torsions:
  status: ('A' for Active; 'I' for Inactive)
                            x       y       z     vdW  Elec       q    Type
                         _______ _______ _______ _____ _____    ______ ____

>  <TORSDO>
F 0

$$$$
=
 OpenBabel11122411563D

 28 32  0  0  1  0  0  0  0  0999 V2000
  189.8700  174.5690  136.3400 C   0  0  0  0  0  0  0  0  0  0  0  0
  188.6290  176.9070  139.0840 O   0  0  0  0  0  0  0  0  0  0  0  0
  183.5600  174.1890  135.8120 O   0  0  0  0  0  0  0  0  0  0  0  0
  191.1310  176.3620  134.5940 C   0  0  0  0  0  3  0  0  0  0  0  0
  184.4670  176.2290  134.8580 C   0  0  2  0  0  3  0  0  0  0  0  0
  189.2130  173.5450  137.2100 C   0  0  0  0  0  2  0  0  0  0  0  0
  189.0670  179.1410  138.1630 O   0  0  0  0  0  0  0  0  0  0  0  0
  188.0450  178.0480  138.3010 S   0  0  0  0  0  0  0  0  0  0  0  0
  185.3530  178.3360  138.6510 C   0  0  0  0  0  0  0  0  0  0  0  0
  187.5530  177.5100  136.6610 C   0  0  2  0  0  3  0  0  0  0  0  0
  186.7380  171.6960  135.2460 O   0  0  0  0  0  0  0  0  0  0  0  0
  186.7830  175.6050  135.3610 C   0  0  2  0  0  3  0  0  0  0  0  0
  185.1860  177.3670  137.5280 C   0  0  0  0  0  2  0  0  0  0  0  0
  186.6560  178.6620  139.1240 N   0  0  0  0  0  2  0  0  0  0  0  0
  187.1880  172.5230  136.0800 C   0  0  0  0  0  0  0  0  0  0  0  0
  189.2020  175.7450  135.9440 C   0  0  0  0  0  0  0  0  0  0  0  0
  184.5490  174.9230  135.5510 C   0  0  0  0  0  0  0  0  0  0  0  0
  184.3150  178.7580  139.2900 N   0  0  0  0  0  2  0  0  0  0  0  0
  186.2510  173.4730  136.7490 C   0  0  0  0  0  2  0  0  0  0  0  0
  189.8400  176.6290  135.0570 C   0  0  0  0  0  3  0  0  0  0  0  0
  191.1620  174.3070  135.8670 C   0  0  0  0  0  3  0  0  0  0  0  0
  191.7930  175.2040  135.0020 C   0  0  0  0  0  3  0  0  0  0  0  0
  188.5850  172.5260  136.3810 N   0  0  0  0  0  2  0  0  0  0  0  0
  185.8750  176.8200  135.1090 C   0  0  2  0  0  3  0  0  0  0  0  0
  185.8860  174.5600  135.8460 N   0  0  0  0  0  0  0  0  0  0  0  0
  186.0800  177.7410  136.3320 C   0  0  2  0  0  3  0  0  0  0  0  0
  183.2960  177.0970  135.3000 C   0  0  0  0  0  1  0  0  0  0  0  0
  187.8010  176.0270  136.4180 C   0  0  1  0  0  3  0  0  0  0  0  0
  1  6  1  0  0  0  0
  4 22  2  0  0  0  0
  4 20  1  0  0  0  0
  5 24  1  0  0  0  0
  5 27  1  1  0  0  0
  5 17  1  0  0  0  0
  7  8  2  0  0  0  0
  8  2  2  0  0  0  0
  8 14  1  0  0  0  0
  9 14  1  0  0  0  0
  9 18  2  0  0  0  0
 10  8  1  1  0  0  0
 11 15  2  0  0  0  0
 12 25  1  1  0  0  0
 12 28  1  0  0  0  0
 13  9  1  0  0  0  0
 15 23  1  0  0  0  0
 15 19  1  0  0  0  0
 16  1  1  0  0  0  0
 16 28  1  0  0  0  0
 17  3  2  0  0  0  0
 17 25  1  0  0  0  0
 20 16  2  0  0  0  0
 21  1  2  0  0  0  0
 22 21  1  0  0  0  0
 23  6  1  0  0  0  0
 24 12  1  0  0  0  0
 24 26  1  0  0  0  0
 25 19  1  0  0  0  0
 26 10  1  0  0  0  0
 26 13  1  0  0  0  0
 28 10  1  0  0  0  0
M  END
>  <MODEL>
5

>  <REMARK>
 VINA RESULT:      -5.6      6.699      8.264
  Name = 
  0 active torsions:
  status: ('A' for Active; 'I' for Inactive)
                            x       y       z     vdW  Elec       q    Type
                         _______ _______ _______ _____ _____    ______ ____

>  <TORSDO>
F 0

$$$$
=
 OpenBabel11122411563D

 28 32  0  0  1  0  0  0  0  0999 V2000
  188.8820  174.5600  136.4500 C   0  0  0  0  0  0  0  0  0  0  0  0
  188.5090  176.7890  139.5200 O   0  0  0  0  0  0  0  0  0  0  0  0
  182.5940  174.9620  137.1830 O   0  0  0  0  0  0  0  0  0  0  0  0
  190.0070  176.3350  134.5940 C   0  0  0  0  0  3  0  0  0  0  0  0
  183.5590  176.9550  136.1880 C   0  0  2  0  0  3  0  0  0  0  0  0
  188.2780  173.5510  137.3730 C   0  0  0  0  0  2  0  0  0  0  0  0
  189.0490  179.0270  138.6640 O   0  0  0  0  0  0  0  0  0  0  0  0
  187.9380  178.0520  138.9390 S   0  0  0  0  0  0  0  0  0  0  0  0
  185.4250  178.6200  139.8420 C   0  0  0  0  0  0  0  0  0  0  0  0
  187.0740  177.7130  137.4040 C   0  0  2  0  0  3  0  0  0  0  0  0
  185.2510  172.1730  135.8420 O   0  0  0  0  0  0  0  0  0  0  0  0
  185.8270  176.0260  136.1760 C   0  0  2  0  0  3  0  0  0  0  0  0
  184.9210  177.7740  138.7200 C   0  0  0  0  0  2  0  0  0  0  0  0
  186.8260  178.7520  140.0600 N   0  0  0  0  0  2  0  0  0  0  0  0
  185.9570  172.8690  136.6160 C   0  0  0  0  0  0  0  0  0  0  0  0
  188.3100  175.8350  136.2670 C   0  0  0  0  0  0  0  0  0  0  0  0
  183.6020  175.5950  136.7720 C   0  0  0  0  0  0  0  0  0  0  0  0
  184.5950  179.1050  140.7000 N   0  0  0  0  0  2  0  0  0  0  0  0
  185.2980  173.8620  137.5140 C   0  0  0  0  0  2  0  0  0  0  0  0
  188.8750  176.7100  135.3230 C   0  0  0  0  0  3  0  0  0  0  0  0
  190.0140  174.1910  135.7120 C   0  0  0  0  0  3  0  0  0  0  0  0
  190.5780  175.0770  134.7920 C   0  0  0  0  0  3  0  0  0  0  0  0
  187.3740  172.6850  136.6290 N   0  0  0  0  0  2  0  0  0  0  0  0
  185.0530  177.3560  136.1840 C   0  0  2  0  0  3  0  0  0  0  0  0
  184.9120  175.0550  136.7690 N   0  0  0  0  0  0  0  0  0  0  0  0
  185.6080  178.1410  137.3930 C   0  0  2  0  0  3  0  0  0  0  0  0
  182.6180  177.9130  136.9060 C   0  0  0  0  0  1  0  0  0  0  0  0
  187.0750  176.2370  137.0290 C   0  0  1  0  0  3  0  0  0  0  0  0
  1  6  1  0  0  0  0
  4 22  2  0  0  0  0
  4 20  1  0  0  0  0
  5 17  1  0  0  0  0
  5 27  1  1  0  0  0
  7  8  2  0  0  0  0
  8  2  2  0  0  0  0
  8 14  1  0  0  0  0
  9 14  1  0  0  0  0
  9 18  2  0  0  0  0
 10  8  1  1  0  0  0
 11 15  2  0  0  0  0
 12 24  1  0  0  0  0
 12 25  1  1  0  0  0
 12 28  1  0  0  0  0
 13  9  1  0  0  0  0
 15 23  1  0  0  0  0
 15 19  1  0  0  0  0
 16  1  1  0  0  0  0
 16 28  1  0  0  0  0
 17  3  2  0  0  0  0
 20 16  2  0  0  0  0
 21  1  2  0  0  0  0
 22 21  1  0  0  0  0
 23  6  1  0  0  0  0
 24  5  1  0  0  0  0
 24 26  1  0  0  0  0
 25 17  1  0  0  0  0
 25 19  1  0  0  0  0
 26 10  1  0  0  0  0
 26 13  1  0  0  0  0
 28 10  1  0  0  0  0
M  END
>  <MODEL>
6

>  <REMARK>
 VINA RESULT:      -5.2      5.951      7.627
  Name = 
  0 active torsions:
  status: ('A' for Active; 'I' for Inactive)
                            x       y       z     vdW  Elec       q    Type
                         _______ _______ _______ _____ _____    ______ ____

>  <TORSDO>
F 0

$$$$
=
 OpenBabel11122411563D

 28 32  0  0  1  0  0  0  0  0999 V2000
  181.3910  177.6690  137.2830 C   0  0  0  0  0  0  0  0  0  0  0  0
  182.5720  174.0770  137.7660 O   0  0  0  0  0  0  0  0  0  0  0  0
  187.6150  178.3240  138.3230 O   0  0  0  0  0  0  0  0  0  0  0  0
  180.6020  177.6510  134.5940 C   0  0  0  0  0  3  0  0  0  0  0  0
  187.1060  177.5690  136.0720 C   0  0  2  0  0  3  0  0  0  0  0  0
  181.7950  177.7700  138.7190 C   0  0  0  0  0  2  0  0  0  0  0  0
  182.5460  173.1620  135.4870 O   0  0  0  0  0  0  0  0  0  0  0  0
  183.3930  173.8340  136.5310 S   0  0  0  0  0  0  0  0  0  0  0  0
  186.0340  173.3880  137.0580 C   0  0  0  0  0  0  0  0  0  0  0  0
  184.0120  175.3800  135.8640 C   0  0  2  0  0  3  0  0  0  0  0  0
  184.2360  180.4720  139.1030 O   0  0  0  0  0  0  0  0  0  0  0  0
  184.6850  177.6450  136.4390 C   0  0  2  0  0  3  0  0  0  0  0  0
  186.2130  174.8680  136.9900 C   0  0  0  0  0  2  0  0  0  0  0  0
  184.7350  172.8190  136.9210 N   0  0  0  0  0  2  0  0  0  0  0  0
  183.7960  179.2960  139.0200 C   0  0  0  0  0  0  0  0  0  0  0  0
  182.2510  177.1260  136.3070 C   0  0  0  0  0  0  0  0  0  0  0  0
  186.7700  177.9920  137.4500 C   0  0  0  0  0  0  0  0  0  0  0  0
  187.0290  172.6380  137.3910 N   0  0  0  0  0  2  0  0  0  0  0  0
  184.7580  178.1550  138.9850 C   0  0  0  0  0  2  0  0  0  0  0  0
  181.8480  177.1360  134.9600 C   0  0  0  0  0  3  0  0  0  0  0  0
  180.1460  178.1870  136.9060 C   0  0  0  0  0  3  0  0  0  0  0  0
  179.7500  178.1720  135.5670 C   0  0  0  0  0  3  0  0  0  0  0  0
  182.3850  179.0770  138.9730 N   0  0  0  0  0  2  0  0  0  0  0  0
  185.7670  176.9730  135.5770 C   0  0  2  0  0  3  0  0  0  0  0  0
  185.3700  178.0350  137.6670 N   0  0  0  0  0  0  0  0  0  0  0  0
  185.5320  175.4550  135.7400 C   0  0  2  0  0  3  0  0  0  0  0  0
  188.3160  176.6480  135.9810 C   0  0  0  0  0  1  0  0  0  0  0  0
  183.6060  176.5940  136.6900 C   0  0  1  0  0  3  0  0  0  0  0  0
  1  6  1  0  0  0  0
  4 20  2  0  0  0  0
  4 22  1  0  0  0  0
  5 27  1  1  0  0  0
  5 17  1  0  0  0  0
  6 23  1  0  0  0  0
  7  8  2  0  0  0  0
  8 14  1  0  0  0  0
  8  2  2  0  0  0  0
  9 18  2  0  0  0  0
 10  8  1  1  0  0  0
 10 28  1  0  0  0  0
 12 28  1  0  0  0  0
 12 25  1  1  0  0  0
 13  9  1  0  0  0  0
 14  9  1  0  0  0  0
 15 11  2  0  0  0  0
 16 28  1  0  0  0  0
 16  1  2  0  0  0  0
 17 25  1  0  0  0  0
 17  3  2  0  0  0  0
 19 15  1  0  0  0  0
 20 16  1  0  0  0  0
 21  1  1  0  0  0  0
 22 21  2  0  0  0  0
 23 15  1  0  0  0  0
 24 26  1  0  0  0  0
 24  5  1  0  0  0  0
 24 12  1  0  0  0  0
 25 19  1  0  0  0  0
 26 10  1  0  0  0  0
 26 13  1  0  0  0  0
M  END
>  <MODEL>
7

>  <REMARK>
 VINA RESULT:      -5.1      4.211      6.919
  Name = 
  0 active torsions:
  status: ('A' for Active; 'I' for Inactive)
                            x       y       z     vdW  Elec       q    Type
                         _______ _______ _______ _____ _____    ______ ____

>  <TORSDO>
F 0

$$$$
=
 OpenBabel11122411563D

 28 32  0  0  1  0  0  0  0  0999 V2000
  183.6950  175.9650  135.7740 C   0  0  0  0  0  0  0  0  0  0  0  0
  181.0620  178.7200  135.8740 O   0  0  0  0  0  0  0  0  0  0  0  0
  185.4370  179.4420  140.7850 O   0  0  0  0  0  0  0  0  0  0  0  0
  182.1590  173.6910  136.3450 C   0  0  0  0  0  3  0  0  0  0  0  0
  183.5470  177.9920  141.2520 C   0  0  2  0  0  3  0  0  0  0  0  0
  184.5900  177.1240  135.4710 C   0  0  0  0  0  2  0  0  0  0  0  0
  179.0730  177.5700  136.7400 O   0  0  0  0  0  0  0  0  0  0  0  0
  180.2810  178.3810  137.1120 S   0  0  0  0  0  0  0  0  0  0  0  0
  180.4590  180.2860  139.0590 C   0  0  0  0  0  0  0  0  0  0  0  0
  181.2840  177.4300  138.2560 C   0  0  2  0  0  3  0  0  0  0  0  0
  187.3100  177.2250  137.9200 O   0  0  0  0  0  0  0  0  0  0  0  0
  183.5590  177.0130  139.0060 C   0  0  2  0  0  3  0  0  0  0  0  0
  181.6820  179.5730  139.5310 C   0  0  0  0  0  2  0  0  0  0  0  0
  179.7770  179.8370  137.8930 N   0  0  0  0  0  2  0  0  0  0  0  0
  186.2350  177.5480  137.3520 C   0  0  0  0  0  0  0  0  0  0  0  0
  182.8050  175.9800  136.8670 C   0  0  0  0  0  0  0  0  0  0  0  0
  184.6050  178.5790  140.4000 C   0  0  0  0  0  0  0  0  0  0  0  0
  180.1110  181.3950  139.6180 N   0  0  0  0  0  2  0  0  0  0  0  0
  185.3580  178.5810  137.9780 C   0  0  0  0  0  2  0  0  0  0  0  0
  182.0510  174.8280  137.1500 C   0  0  0  0  0  3  0  0  0  0  0  0
  183.8000  174.8200  134.9750 C   0  0  0  0  0  3  0  0  0  0  0  0
  183.0300  173.6890  135.2560 C   0  0  0  0  0  3  0  0  0  0  0  0
  185.8820  176.9290  136.1140 N   0  0  0  0  0  2  0  0  0  0  0  0
  182.6450  177.2850  140.2130 C   0  0  2  0  0  3  0  0  0  0  0  0
  184.6140  178.0170  139.0990 N   0  0  0  0  0  0  0  0  0  0  0  0
  181.4360  178.0570  139.6410 C   0  0  2  0  0  3  0  0  0  0  0  0
  182.8490  178.9950  142.1600 C   0  0  0  0  0  1  0  0  0  0  0  0
  182.7020  177.1910  137.7550 C   0  0  1  0  0  3  0  0  0  0  0  0
  1 16  1  0  0  0  0
  2  8  2  0  0  0  0
  4 20  1  0  0  0  0
  5 27  1  6  0  0  0
  6  1  1  0  0  0  0
  6 23  1  0  0  0  0
  7  8  2  0  0  0  0
  8 14  1  0  0  0  0
  9 13  1  0  0  0  0
  9 18  2  0  0  0  0
 10  8  1  6  0  0  0
 10 26  1  0  0  0  0
 12 25  1  6  0  0  0
 12 24  1  0  0  0  0
 13 26  1  0  0  0  0
 14  9  1  0  0  0  0
 15 11  2  0  0  0  0
 15 19  1  0  0  0  0
 16 20  2  0  0  0  0
 16 28  1  0  0  0  0
 17  3  2  0  0  0  0
 17  5  1  0  0  0  0
 19 25  1  0  0  0  0
 21 22  1  0  0  0  0
 21  1  2  0  0  0  0
 22  4  2  0  0  0  0
 23 15  1  0  0  0  0
 24  5  1  0  0  0  0
 25 17  1  0  0  0  0
 26 24  1  0  0  0  0
 28 10  1  0  0  0  0
 28 12  1  0  0  0  0
M  END
>  <MODEL>
8

>  <REMARK>
 VINA RESULT:      -5.1      3.047      6.175
  Name = 
  0 active torsions:
  status: ('A' for Active; 'I' for Inactive)
                            x       y       z     vdW  Elec       q    Type
                         _______ _______ _______ _____ _____    ______ ____

>  <TORSDO>
F 0

$$$$
=
 OpenBabel11122411563D

 28 32  0  0  1  0  0  0  0  0999 V2000
  191.7960  174.4910  137.2680 C   0  0  0  0  0  0  0  0  0  0  0  0
  190.5600  175.7800  140.6360 O   0  0  0  0  0  0  0  0  0  0  0  0
  186.0170  176.7320  135.9210 O   0  0  0  0  0  0  0  0  0  0  0  0
  193.9290  176.2320  136.7420 C   0  0  0  0  0  3  0  0  0  0  0  0
  187.6780  178.4860  136.1640 C   0  0  2  0  0  3  0  0  0  0  0  0
  190.6720  173.5260  137.4650 C   0  0  0  0  0  2  0  0  0  0  0  0
  191.8330  177.8570  140.9490 O   0  0  0  0  0  0  0  0  0  0  0  0
  190.5500  177.2690  140.4330 S   0  0  0  0  0  0  0  0  0  0  0  0
  188.0540  178.3640  140.5740 C   0  0  0  0  0  0  0  0  0  0  0  0
  190.3910  177.6720  138.6920 C   0  0  2  0  0  3  0  0  0  0  0  0
  188.4070  173.7060  134.5940 O   0  0  0  0  0  0  0  0  0  0  0  0
  189.5030  176.9010  136.5640 C   0  0  2  0  0  3  0  0  0  0  0  0
  187.9350  178.0770  139.1150 C   0  0  0  0  0  2  0  0  0  0  0  0
  189.2180  177.9600  141.2880 N   0  0  0  0  0  2  0  0  0  0  0  0
  188.8260  173.8870  135.7660 C   0  0  0  0  0  0  0  0  0  0  0  0
  191.6140  175.8820  137.4090 C   0  0  0  0  0  0  0  0  0  0  0  0
  187.2030  177.0840  136.1550 C   0  0  0  0  0  0  0  0  0  0  0  0
  187.0430  178.8400  141.2170 N   0  0  0  0  0  2  0  0  0  0  0  0
  188.0450  174.7540  136.6970 C   0  0  0  0  0  2  0  0  0  0  0  0
  192.6880  176.7440  137.1290 C   0  0  0  0  0  3  0  0  0  0  0  0
  193.0430  173.9870  136.8750 C   0  0  0  0  0  3  0  0  0  0  0  0
  194.1070  174.8540  136.6200 C   0  0  0  0  0  3  0  0  0  0  0  0
  190.0330  173.2480  136.1860 N   0  0  0  0  0  2  0  0  0  0  0  0
  189.0720  178.3550  136.8220 C   0  0  2  0  0  3  0  0  0  0  0  0
  188.2550  176.1640  136.3870 N   0  0  0  0  0  0  0  0  0  0  0  0
  189.1860  178.5470  138.3500 C   0  0  2  0  0  3  0  0  0  0  0  0
  186.7200  179.4640  136.8320 C   0  0  0  0  0  1  0  0  0  0  0  0
  190.2730  176.4430  137.8000 C   0  0  1  0  0  3  0  0  0  0  0  0
  1 16  1  0  0  0  0
  1  6  1  0  0  0  0
  3 17  2  0  0  0  0
  4 20  1  0  0  0  0
  5 24  1  0  0  0  0
  5 27  1  1  0  0  0
  8  2  2  0  0  0  0
  8  7  2  0  0  0  0
  8 14  1  0  0  0  0
  9 18  2  0  0  0  0
  9 14  1  0  0  0  0
 10  8  1  1  0  0  0
 11 15  2  0  0  0  0
 12 25  1  1  0  0  0
 12 24  1  0  0  0  0
 12 28  1  0  0  0  0
 13  9  1  0  0  0  0
 15 23  1  0  0  0  0
 15 19  1  0  0  0  0
 16 28  1  0  0  0  0
 17  5  1  0  0  0  0
 17 25  1  0  0  0  0
 20 16  2  0  0  0  0
 21  1  2  0  0  0  0
 22  4  2  0  0  0  0
 22 21  1  0  0  0  0
 23  6  1  0  0  0  0
 24 26  1  0  0  0  0
 25 19  1  0  0  0  0
 26 10  1  0  0  0  0
 26 13  1  0  0  0  0
 28 10  1  0  0  0  0
M  END
>  <MODEL>
9

>  <REMARK>
 VINA RESULT:      -5.0      8.582     10.051
  Name = 
  0 active torsions:
  status: ('A' for Active; 'I' for Inactive)
                            x       y       z     vdW  Elec       q    Type
                         _______ _______ _______ _____ _____    ______ ____

>  <TORSDO>
F 0

$$$$
