=
 OpenBabel11122410413D

 32 38  0  0  1  0  0  0  0  0999 V2000
  181.5520  179.9000  139.6980 C   0  0  1  0  0  3  0  0  0  0  0  0
  185.8490  178.1560  142.0560 C   0  0  0  0  0  0  0  0  0  0  0  0
  184.9350  178.8080  146.8980 C   0  0  0  0  0  2  0  0  0  0  0  0
  185.9450  177.7140  147.1890 C   0  0  0  0  0  2  0  0  0  0  0  0
  188.2240  177.5380  141.3380 C   0  0  0  0  0  0  0  0  0  0  0  0
  189.5260  177.0500  141.7910 C   0  0  1  0  0  3  0  0  0  0  0  0
  184.1930  179.0960  140.4090 C   0  0  2  0  0  3  0  0  0  0  0  0
  183.5370  178.9580  142.7830 C   0  0  0  0  0  2  0  0  0  0  0  0
  191.1290  176.6270  143.2990 C   0  0  0  0  0  0  0  0  0  0  0  0
  181.7560  179.3180  141.0520 C   0  0  2  0  0  3  0  0  0  0  0  0
  184.3000  178.5550  145.5370 C   0  0  0  0  0  2  0  0  0  0  0  0
  184.9230  178.4300  143.0970 C   0  0  0  0  0  0  0  0  0  0  0  0
  185.3190  178.3200  144.4420 C   0  0  0  0  0  0  0  0  0  0  0  0
  187.5370  177.5960  143.7380 C   0  0  0  0  0  0  0  0  0  0  0  0
  191.6580  177.1900  142.2640 N   0  0  0  0  0  0  0  0  0  0  0  0
  182.6580  179.9250  138.7890 O   0  0  0  0  0  0  0  0  0  0  0  0
  183.1030  178.6590  141.3570 C   0  0  1  0  0  3  0  0  0  0  0  0
  190.6520  177.4900  141.3400 N   0  0  0  0  0  2  0  0  0  0  0  0
  183.6370  178.9370  139.0170 C   0  0  0  0  0  2  0  0  0  0  0  0
  181.0860  178.5340  139.9910 N   0  0  0  0  0  0  0  0  0  0  0  0
  187.0950  177.8220  146.1950 C   0  0  0  0  0  2  0  0  0  0  0  0
  186.6240  177.8850  144.7620 C   0  0  0  0  0  0  0  0  0  0  0  0
  188.8640  177.1460  144.0810 N   0  0  0  0  0  2  0  0  0  0  0  0
  185.3910  178.1860  140.6140 C   0  0  0  0  0  2  0  0  0  0  0  0
  188.0580  177.8500  140.1290 O   0  0  0  0  0  0  0  0  0  0  0  0
  191.9280  176.1650  144.4660 C   0  0  0  0  0  1  0  0  0  0  0  0
  187.1660  177.7460  142.3750 C   0  0  0  0  0  0  0  0  0  0  0  0
  189.6680  176.4050  143.1170 C   0  0  1  0  0  3  0  0  0  0  0  0
  179.6580  178.6270  140.2430 C   0  0  0  0  0  2  0  0  0  0  0  0
  179.2810  177.6950  141.3400 C   0  0  0  0  0  0  0  0  0  0  0  0
  179.2780  176.2910  141.1120 N   0  0  0  0  0  1  0  0  0  0  0  0
  178.9310  178.1500  142.4610 O   0  0  0  0  0  0  0  0  0  0  0  0
  1 16  1  6  0  0  0
  1 20  1  0  0  0  0
  1 10  1  0  0  0  0
  2 27  2  0  0  0  0
  2 12  1  0  0  0  0
  3  4  1  0  0  0  0
  5 27  1  0  0  0  0
  6  5  1  1  0  0  0
  6 28  1  0  0  0  0
  7 19  1  6  0  0  0
  7 24  1  0  0  0  0
  7 17  1  0  0  0  0
  8 12  1  0  0  0  0
  9 26  1  0  0  0  0
 10 20  1  6  0  0  0
 10 17  1  0  0  0  0
 11  3  1  0  0  0  0
 12 13  2  0  0  0  0
 13 22  1  0  0  0  0
 13 11  1  0  0  0  0
 14 23  1  0  0  0  0
 14 22  2  0  0  0  0
 15  9  2  0  0  0  0
 16 19  1  0  0  0  0
 17  8  1  1  0  0  0
 18  6  1  0  0  0  0
 18 15  1  0  0  0  0
 20 29  1  0  0  0  0
 21  4  1  0  0  0  0
 22 21  1  0  0  0  0
 24  2  1  0  0  0  0
 25  5  2  0  0  0  0
 27 14  1  0  0  0  0
 28  9  1  1  0  0  0
 28 23  1  0  0  0  0
 29 30  1  0  0  0  0
 30 32  2  0  0  0  0
 31 30  1  0  0  0  0
M  END
>  <MODEL>
1

>  <REMARK>
 VINA RESULT:      -9.5      0.000      0.000
  Name = 
  2 active torsions:
  status: ('A' for Active; 'I' for Inactive)
    1  A    between atoms: N_20  and  C_29
    2  A    between atoms: C_29  and  C_30
                            x       y       z     vdW  Elec       q    Type
                         _______ _______ _______ _____ _____    ______ ____

>  <TORSDO>
F 2

$$$$
=
 OpenBabel11122410413D

 32 38  0  0  1  0  0  0  0  0999 V2000
  188.1280  178.4900  137.2490 C   0  0  1  0  0  3  0  0  0  0  0  0
  187.6050  177.9670  142.3990 C   0  0  0  0  0  0  0  0  0  0  0  0
  182.9790  179.5360  143.3210 C   0  0  0  0  0  2  0  0  0  0  0  0
  182.9950  178.6950  144.5840 C   0  0  0  0  0  2  0  0  0  0  0  0
  189.1700  177.5620  144.3790 C   0  0  0  0  0  0  0  0  0  0  0  0
  189.2500  177.3850  145.8290 C   0  0  1  0  0  3  0  0  0  0  0  0
  188.5040  178.2620  140.0660 C   0  0  2  0  0  3  0  0  0  0  0  0
  186.0830  178.5600  140.4360 C   0  0  0  0  0  2  0  0  0  0  0  0
  188.5260  177.5490  147.9420 C   0  0  0  0  0  0  0  0  0  0  0  0
  186.9220  178.2600  138.0900 C   0  0  2  0  0  3  0  0  0  0  0  0
  183.8890  178.8950  142.2820 C   0  0  0  0  0  2  0  0  0  0  0  0
  186.3180  178.3260  141.9150 C   0  0  0  0  0  0  0  0  0  0  0  0
  185.2690  178.5770  142.8180 C   0  0  0  0  0  0  0  0  0  0  0  0
  186.7400  178.0500  144.6870 C   0  0  0  0  0  0  0  0  0  0  0  0
  189.7550  177.9400  147.8840 N   0  0  0  0  0  0  0  0  0  0  0  0
  189.4150  178.4750  137.8770 O   0  0  0  0  0  0  0  0  0  0  0  0
  187.1310  177.8910  139.5610 C   0  0  1  0  0  3  0  0  0  0  0  0
  190.1950  177.8750  146.5590 N   0  0  0  0  0  2  0  0  0  0  0  0
  189.4890  177.7190  139.0630 C   0  0  0  0  0  2  0  0  0  0  0  0
  187.4760  177.1700  137.2570 N   0  0  0  0  0  0  0  0  0  0  0  0
  184.3880  178.7480  145.1990 C   0  0  0  0  0  2  0  0  0  0  0  0
  185.4780  178.4210  144.2060 C   0  0  0  0  0  0  0  0  0  0  0  0
  186.9350  177.8880  146.1080 N   0  0  0  0  0  2  0  0  0  0  0  0
  188.7020  177.6070  141.4210 C   0  0  0  0  0  2  0  0  0  0  0  0
  190.2250  177.5700  143.6900 O   0  0  0  0  0  0  0  0  0  0  0  0
  187.7580  177.4800  149.2150 C   0  0  0  0  0  1  0  0  0  0  0  0
  187.8220  177.8370  143.7920 C   0  0  0  0  0  0  0  0  0  0  0  0
  188.0350  177.0790  146.6180 C   0  0  1  0  0  3  0  0  0  0  0  0
  186.6560  177.1040  136.0590 C   0  0  0  0  0  2  0  0  0  0  0  0
  185.3410  176.4860  136.3840 C   0  0  0  0  0  0  0  0  0  0  0  0
  184.1350  177.1600  136.0460 N   0  0  0  0  0  1  0  0  0  0  0  0
  185.2970  175.3830  136.9900 O   0  0  0  0  0  0  0  0  0  0  0  0
  1 20  1  0  0  0  0
  1 16  1  1  0  0  0
  1 10  1  0  0  0  0
  2 27  1  0  0  0  0
  3  4  1  0  0  0  0
  4 21  1  0  0  0  0
  6  5  1  6  0  0  0
  6 18  1  0  0  0  0
  6 28  1  0  0  0  0
  7 19  1  6  0  0  0
  7 24  1  0  0  0  0
  8 12  1  0  0  0  0
  9 26  1  0  0  0  0
 10 20  1  6  0  0  0
 10 17  1  0  0  0  0
 11 13  1  0  0  0  0
 11  3  1  0  0  0  0
 12  2  2  0  0  0  0
 12 13  1  0  0  0  0
 13 22  2  0  0  0  0
 14 23  1  0  0  0  0
 15  9  2  0  0  0  0
 16 19  1  0  0  0  0
 17  7  1  0  0  0  0
 17  8  1  1  0  0  0
 18 15  1  0  0  0  0
 22 14  1  0  0  0  0
 22 21  1  0  0  0  0
 24  2  1  0  0  0  0
 25  5  2  0  0  0  0
 27  5  1  0  0  0  0
 27 14  2  0  0  0  0
 28 23  1  6  0  0  0
 28  9  1  0  0  0  0
 29 30  1  0  0  0  0
 29 20  1  0  0  0  0
 30 32  2  0  0  0  0
 31 30  1  0  0  0  0
M  END
>  <MODEL>
2

>  <REMARK>
 VINA RESULT:      -9.4      3.337      5.052
  Name = 
  2 active torsions:
  status: ('A' for Active; 'I' for Inactive)
    1  A    between atoms: N_20  and  C_29
    2  A    between atoms: C_29  and  C_30
                            x       y       z     vdW  Elec       q    Type
                         _______ _______ _______ _____ _____    ______ ____

>  <TORSDO>
F 2

$$$$
=
 OpenBabel11122410413D

 32 38  0  0  1  0  0  0  0  0999 V2000
  182.2590  178.8690  139.9450 C   0  0  1  0  0  3  0  0  0  0  0  0
  186.5440  178.1100  142.7960 C   0  0  0  0  0  0  0  0  0  0  0  0
  190.0600  177.0290  139.4530 C   0  0  0  0  0  2  0  0  0  0  0  0
  191.0950  177.5030  140.4560 C   0  0  0  0  0  2  0  0  0  0  0  0
  187.0720  177.7620  145.2740 C   0  0  0  0  0  0  0  0  0  0  0  0
  188.1340  177.5440  146.2550 C   0  0  1  0  0  3  0  0  0  0  0  0
  184.1690  178.3040  141.9850 C   0  0  2  0  0  3  0  0  0  0  0  0
  185.9810  178.2670  140.3110 C   0  0  0  0  0  2  0  0  0  0  0  0
  190.1820  176.9440  146.9390 C   0  0  0  0  0  0  0  0  0  0  0  0
  183.6990  179.0420  139.6100 C   0  0  2  0  0  3  0  0  0  0  0  0
  188.7560  177.7810  139.6850 C   0  0  0  0  0  2  0  0  0  0  0  0
  186.9710  178.0750  141.4420 C   0  0  0  0  0  0  0  0  0  0  0  0
  188.3040  177.7500  141.1300 C   0  0  0  0  0  0  0  0  0  0  0  0
  188.8230  177.5610  143.5040 C   0  0  0  0  0  0  0  0  0  0  0  0
  189.3010  176.4110  147.7180 N   0  0  0  0  0  0  0  0  0  0  0  0
  181.9030  178.5380  141.2920 O   0  0  0  0  0  0  0  0  0  0  0  0
  184.7150  178.9840  140.7530 C   0  0  1  0  0  3  0  0  0  0  0  0
  188.0220  176.7530  147.2690 N   0  0  0  0  0  2  0  0  0  0  0  0
  182.8340  178.9430  142.2690 C   0  0  0  0  0  2  0  0  0  0  0  0
  182.8300  180.2210  139.8230 N   0  0  0  0  0  0  0  0  0  0  0  0
  190.6530  177.0960  141.8560 C   0  0  0  0  0  2  0  0  0  0  0  0
  189.2340  177.5100  142.1650 C   0  0  0  0  0  0  0  0  0  0  0  0
  189.7870  177.3200  144.5490 N   0  0  0  0  0  2  0  0  0  0  0  0
  185.1350  178.5510  143.1300 C   0  0  0  0  0  2  0  0  0  0  0  0
  185.8690  177.7830  145.6470 O   0  0  0  0  0  0  0  0  0  0  0  0
  191.6470  176.7890  147.1490 C   0  0  0  0  0  1  0  0  0  0  0  0
  187.4700  177.8420  143.8340 C   0  0  0  0  0  0  0  0  0  0  0  0
  189.5490  177.8050  145.9030 C   0  0  1  0  0  3  0  0  0  0  0  0
  182.4630  180.7100  138.5050 C   0  0  0  0  0  2  0  0  0  0  0  0
  181.2970  181.6280  138.6170 C   0  0  0  0  0  0  0  0  0  0  0  0
  181.1810  182.7400  137.7380 N   0  0  0  0  0  1  0  0  0  0  0  0
  180.4310  181.4390  139.5110 O   0  0  0  0  0  0  0  0  0  0  0  0
  1 16  1  1  0  0  0
  2 24  1  0  0  0  0
  2 27  1  0  0  0  0
  3 11  1  0  0  0  0
  3  4  1  0  0  0  0
  4 21  1  0  0  0  0
  5 25  2  0  0  0  0
  6  5  1  6  0  0  0
  6 18  1  0  0  0  0
  7 19  1  1  0  0  0
  7 24  1  0  0  0  0
  8 12  1  0  0  0  0
  9 26  1  0  0  0  0
  9 15  2  0  0  0  0
 10 20  1  1  0  0  0
 10  1  1  0  0  0  0
 10 17  1  0  0  0  0
 11 13  1  0  0  0  0
 12  2  2  0  0  0  0
 13 12  1  0  0  0  0
 13 22  2  0  0  0  0
 14 27  2  0  0  0  0
 14 23  1  0  0  0  0
 16 19  1  0  0  0  0
 17  8  1  6  0  0  0
 17  7  1  0  0  0  0
 18 15  1  0  0  0  0
 20  1  1  0  0  0  0
 21 22  1  0  0  0  0
 22 14  1  0  0  0  0
 27  5  1  0  0  0  0
 28 23  1  6  0  0  0
 28  6  1  0  0  0  0
 28  9  1  0  0  0  0
 29 30  1  0  0  0  0
 29 20  1  0  0  0  0
 30 32  2  0  0  0  0
 31 30  1  0  0  0  0
M  END
>  <MODEL>
3

>  <REMARK>
 VINA RESULT:      -9.1      2.325      4.521
  Name = 
  2 active torsions:
  status: ('A' for Active; 'I' for Inactive)
    1  A    between atoms: N_20  and  C_29
    2  A    between atoms: C_29  and  C_30
                            x       y       z     vdW  Elec       q    Type
                         _______ _______ _______ _____ _____    ______ ____

>  <TORSDO>
F 2

$$$$
=
 OpenBabel11122410413D

 32 38  0  0  1  0  0  0  0  0999 V2000
  189.6310  177.8780  147.7280 C   0  0  1  0  0  3  0  0  0  0  0  0
  186.0200  178.2300  143.9990 C   0  0  0  0  0  0  0  0  0  0  0  0
  188.6420  178.6280  139.7950 C   0  0  0  0  0  2  0  0  0  0  0  0
  187.4400  178.0820  139.0480 C   0  0  0  0  0  2  0  0  0  0  0  0
  183.5000  178.6530  143.9070 C   0  0  0  0  0  0  0  0  0  0  0  0
  182.3370  178.7860  143.0300 C   0  0  1  0  0  3  0  0  0  0  0  0
  187.2760  178.3050  146.1800 C   0  0  2  0  0  3  0  0  0  0  0  0
  188.5610  177.9990  144.0970 C   0  0  0  0  0  2  0  0  0  0  0  0
  181.2850  179.1480  141.0860 C   0  0  0  0  0  0  0  0  0  0  0  0
  189.6700  177.4940  146.2910 C   0  0  2  0  0  3  0  0  0  0  0  0
  188.6450  178.0720  141.2130 C   0  0  0  0  0  2  0  0  0  0  0  0
  187.2650  178.1250  143.3220 C   0  0  0  0  0  0  0  0  0  0  0  0
  187.3200  178.2500  141.9220 C   0  0  0  0  0  0  0  0  0  0  0  0
  184.8980  178.5110  141.8420 C   0  0  0  0  0  0  0  0  0  0  0  0
  180.7120  179.8400  142.0130 N   0  0  0  0  0  0  0  0  0  0  0  0
  188.3910  178.3340  148.2830 O   0  0  0  0  0  0  0  0  0  0  0  0
  188.3530  177.4850  145.5130 C   0  0  1  0  0  3  0  0  0  0  0  0
  181.3920  179.6450  143.2190 N   0  0  0  0  0  2  0  0  0  0  0  0
  187.2370  177.8680  147.6220 C   0  0  0  0  0  2  0  0  0  0  0  0
  189.5930  176.4570  147.3440 N   0  0  0  0  0  0  0  0  0  0  0  0
  186.1690  178.6280  139.6840 C   0  0  0  0  0  2  0  0  0  0  0  0
  186.1310  178.4250  141.1810 C   0  0  0  0  0  0  0  0  0  0  0  0
  183.6920  178.6840  141.0690 N   0  0  0  0  0  2  0  0  0  0  0  0
  185.9560  178.0010  145.4940 C   0  0  0  0  0  2  0  0  0  0  0  0
  183.3700  178.8150  145.1490 O   0  0  0  0  0  0  0  0  0  0  0  0
  180.7970  179.1180  139.6800 C   0  0  0  0  0  1  0  0  0  0  0  0
  184.8310  178.4330  143.2590 C   0  0  0  0  0  0  0  0  0  0  0  0
  182.3960  178.3180  141.6260 C   0  0  1  0  0  3  0  0  0  0  0  0
  190.9400  175.9430  147.5200 C   0  0  0  0  0  2  0  0  0  0  0  0
  191.6990  176.0750  146.2470 C   0  0  0  0  0  0  0  0  0  0  0  0
  192.0550  174.9130  145.5070 N   0  0  0  0  0  1  0  0  0  0  0  0
  192.0560  177.2120  145.8410 O   0  0  0  0  0  0  0  0  0  0  0  0
  1 16  1  6  0  0  0
  2 24  1  0  0  0  0
  3 11  1  0  0  0  0
  4 21  1  0  0  0  0
  4  3  1  0  0  0  0
  5 25  2  0  0  0  0
  6 18  1  6  0  0  0
  6  5  1  0  0  0  0
  7 24  1  6  0  0  0
  7 19  1  0  0  0  0
  9 28  1  0  0  0  0
  9 15  2  0  0  0  0
 10 20  1  1  0  0  0
 10  1  1  0  0  0  0
 11 13  1  0  0  0  0
 12  2  1  0  0  0  0
 12  8  1  0  0  0  0
 13 12  2  0  0  0  0
 14 27  1  0  0  0  0
 15 18  1  0  0  0  0
 17  8  1  6  0  0  0
 17  7  1  0  0  0  0
 17 10  1  0  0  0  0
 19 16  1  0  0  0  0
 20 29  1  0  0  0  0
 20  1  1  0  0  0  0
 21 22  1  0  0  0  0
 22 14  2  0  0  0  0
 22 13  1  0  0  0  0
 23 14  1  0  0  0  0
 26  9  1  0  0  0  0
 27  5  1  0  0  0  0
 27  2  2  0  0  0  0
 28 23  1  6  0  0  0
 28  6  1  0  0  0  0
 30 29  1  0  0  0  0
 31 30  1  0  0  0  0
 32 30  2  0  0  0  0
M  END
>  <MODEL>
4

>  <REMARK>
 VINA RESULT:      -8.9      2.812      8.719
  Name = 
  2 active torsions:
  status: ('A' for Active; 'I' for Inactive)
    1  A    between atoms: N_20  and  C_29
    2  A    between atoms: C_29  and  C_30
                            x       y       z     vdW  Elec       q    Type
                         _______ _______ _______ _____ _____    ______ ____

>  <TORSDO>
F 2

$$$$
=
 OpenBabel11122410413D

 32 38  0  0  1  0  0  0  0  0999 V2000
  181.0220  178.9160  140.0560 C   0  0  1  0  0  3  0  0  0  0  0  0
  185.6720  178.3320  142.3150 C   0  0  0  0  0  0  0  0  0  0  0  0
  188.7560  177.3810  138.5340 C   0  0  0  0  0  2  0  0  0  0  0  0
  189.8940  177.8970  139.3930 C   0  0  0  0  0  2  0  0  0  0  0  0
  186.5360  178.0110  144.7000 C   0  0  0  0  0  0  0  0  0  0  0  0
  187.7260  177.8370  145.5320 C   0  0  1  0  0  3  0  0  0  0  0  0
  183.2050  178.4310  141.8250 C   0  0  2  0  0  3  0  0  0  0  0  0
  184.7800  178.4610  139.9270 C   0  0  0  0  0  2  0  0  0  0  0  0
  189.8670  177.3180  145.9390 C   0  0  0  0  0  0  0  0  0  0  0  0
  182.3980  179.1450  139.5350 C   0  0  2  0  0  3  0  0  0  0  0  0
  187.4650  178.0820  138.9390 C   0  0  0  0  0  2  0  0  0  0  0  0
  185.9180  178.3110  140.9160 C   0  0  0  0  0  0  0  0  0  0  0  0
  187.2100  178.0380  140.4300 C   0  0  0  0  0  0  0  0  0  0  0  0
  188.0440  177.8740  142.7140 C   0  0  0  0  0  0  0  0  0  0  0  0
  189.1190  176.7530  146.8260 N   0  0  0  0  0  0  0  0  0  0  0  0
  180.8610  178.5750  141.4380 O   0  0  0  0  0  0  0  0  0  0  0  0
  183.5570  179.1290  140.5340 C   0  0  1  0  0  3  0  0  0  0  0  0
  187.7800  177.0440  146.5500 N   0  0  0  0  0  2  0  0  0  0  0  0
  181.8950  179.0180  142.2850 C   0  0  0  0  0  2  0  0  0  0  0  0
  181.5190  180.2890  139.8640 N   0  0  0  0  0  0  0  0  0  0  0  0
  189.6580  177.4770  140.8380 C   0  0  0  0  0  2  0  0  0  0  0  0
  188.2770  177.8360  141.3330 C   0  0  0  0  0  0  0  0  0  0  0  0
  189.1460  177.6730  143.6220 N   0  0  0  0  0  2  0  0  0  0  0  0
  184.3040  178.7180  142.8330 C   0  0  0  0  0  2  0  0  0  0  0  0
  185.3930  177.9860  145.2290 O   0  0  0  0  0  0  0  0  0  0  0  0
  191.3520  177.2210  145.9520 C   0  0  0  0  0  1  0  0  0  0  0  0
  186.7360  178.1030  143.2210 C   0  0  0  0  0  0  0  0  0  0  0  0
  189.0710  178.1520  144.9980 C   0  0  1  0  0  3  0  0  0  0  0  0
  180.9620  180.7610  138.6070 C   0  0  0  0  0  2  0  0  0  0  0  0
  181.4460  182.1410  138.3300 C   0  0  0  0  0  0  0  0  0  0  0  0
  180.5790  183.0890  137.7190 N   0  0  0  0  0  1  0  0  0  0  0  0
  182.6330  182.4590  138.6040 O   0  0  0  0  0  0  0  0  0  0  0  0
  1 16  1  1  0  0  0
  2 24  1  0  0  0  0
  2 27  1  0  0  0  0
  3 11  1  0  0  0  0
  3  4  1  0  0  0  0
  4 21  1  0  0  0  0
  5 25  2  0  0  0  0
  6  5  1  6  0  0  0
  6 18  1  0  0  0  0
  7 19  1  1  0  0  0
  7 24  1  0  0  0  0
  8 12  1  0  0  0  0
  9 26  1  0  0  0  0
  9 15  2  0  0  0  0
 10 20  1  1  0  0  0
 10  1  1  0  0  0  0
 10 17  1  0  0  0  0
 11 13  1  0  0  0  0
 12  2  2  0  0  0  0
 13 12  1  0  0  0  0
 13 22  2  0  0  0  0
 14 27  2  0  0  0  0
 14 23  1  0  0  0  0
 16 19  1  0  0  0  0
 17  8  1  6  0  0  0
 17  7  1  0  0  0  0
 18 15  1  0  0  0  0
 20  1  1  0  0  0  0
 21 22  1  0  0  0  0
 22 14  1  0  0  0  0
 27  5  1  0  0  0  0
 28 23  1  6  0  0  0
 28  6  1  0  0  0  0
 28  9  1  0  0  0  0
 29 20  1  0  0  0  0
 30 32  2  0  0  0  0
 30 29  1  0  0  0  0
 31 30  1  0  0  0  0
M  END
>  <MODEL>
5

>  <REMARK>
 VINA RESULT:      -8.6      2.157      4.494
  Name = 
  2 active torsions:
  status: ('A' for Active; 'I' for Inactive)
    1  A    between atoms: N_20  and  C_29
    2  A    between atoms: C_29  and  C_30
                            x       y       z     vdW  Elec       q    Type
                         _______ _______ _______ _____ _____    ______ ____

>  <TORSDO>
F 2

$$$$
=
 OpenBabel11122410413D

 32 38  0  0  1  0  0  0  0  0999 V2000
  184.9730  178.9290  137.6450 C   0  0  1  0  0  3  0  0  0  0  0  0
  187.3050  177.8950  142.1790 C   0  0  0  0  0  0  0  0  0  0  0  0
  183.9160  179.1210  145.6020 C   0  0  0  0  0  2  0  0  0  0  0  0
  184.6050  178.1670  146.5600 C   0  0  0  0  0  2  0  0  0  0  0  0
  189.6890  177.3880  142.9540 C   0  0  0  0  0  0  0  0  0  0  0  0
  190.5360  177.0800  144.1040 C   0  0  1  0  0  3  0  0  0  0  0  0
  186.8060  178.4560  139.7760 C   0  0  2  0  0  3  0  0  0  0  0  0
  184.9690  178.5890  141.4170 C   0  0  0  0  0  2  0  0  0  0  0  0
  191.0660  177.0050  146.2800 C   0  0  0  0  0  0  0  0  0  0  0  0
  184.4100  178.5560  138.9710 C   0  0  2  0  0  3  0  0  0  0  0  0
  184.1180  178.6310  144.1750 C   0  0  0  0  0  2  0  0  0  0  0  0
  185.9630  178.2280  142.5030 C   0  0  0  0  0  0  0  0  0  0  0  0
  185.5670  178.3370  143.8490 C   0  0  0  0  0  0  0  0  0  0  0  0
  187.8110  177.7150  144.5680 C   0  0  0  0  0  0  0  0  0  0  0  0
  192.0720  177.4640  145.6140 N   0  0  0  0  0  0  0  0  0  0  0  0
  186.3960  178.9230  137.4780 O   0  0  0  0  0  0  0  0  0  0  0  0
  185.3760  178.0620  140.0500 C   0  0  1  0  0  3  0  0  0  0  0  0
  191.7290  177.5490  144.2620 N   0  0  0  0  0  2  0  0  0  0  0  0
  187.0930  178.0630  138.3500 C   0  0  0  0  0  2  0  0  0  0  0  0
  184.4200  177.5810  137.8580 N   0  0  0  0  0  0  0  0  0  0  0  0
  186.1090  178.2360  146.3330 C   0  0  0  0  0  2  0  0  0  0  0  0
  186.4900  178.0620  144.8820 C   0  0  0  0  0  0  0  0  0  0  0  0
  188.7400  177.4310  145.6340 N   0  0  0  0  0  2  0  0  0  0  0  0
  187.7000  177.6880  140.7330 C   0  0  0  0  0  2  0  0  0  0  0  0
  190.2050  177.5170  141.8120 O   0  0  0  0  0  0  0  0  0  0  0  0
  191.1050  176.7750  147.7500 C   0  0  0  0  0  1  0  0  0  0  0  0
  188.2380  177.6460  143.2140 C   0  0  0  0  0  0  0  0  0  0  0  0
  189.9360  176.6370  145.3840 C   0  0  1  0  0  3  0  0  0  0  0  0
  183.0830  177.5850  137.2890 C   0  0  0  0  0  2  0  0  0  0  0  0
  182.2850  176.4730  137.8730 C   0  0  0  0  0  0  0  0  0  0  0  0
  182.9370  175.2970  138.3370 N   0  0  0  0  0  1  0  0  0  0  0  0
  181.0310  176.5580  137.9260 O   0  0  0  0  0  0  0  0  0  0  0  0
  1 16  1  1  0  0  0
  1 20  1  0  0  0  0
  1 10  1  0  0  0  0
  2 12  2  0  0  0  0
  2 27  1  0  0  0  0
  3  4  1  0  0  0  0
  5 27  1  0  0  0  0
  6  5  1  1  0  0  0
  6 18  1  0  0  0  0
  6 28  1  0  0  0  0
  7 19  1  6  0  0  0
  7 17  1  0  0  0  0
  7 24  1  0  0  0  0
  8 12  1  0  0  0  0
  9 26  1  0  0  0  0
 10 20  1  6  0  0  0
 10 17  1  0  0  0  0
 11  3  1  0  0  0  0
 12 13  1  0  0  0  0
 13 11  1  0  0  0  0
 13 22  2  0  0  0  0
 14 22  1  0  0  0  0
 14 23  1  0  0  0  0
 15  9  2  0  0  0  0
 16 19  1  0  0  0  0
 17  8  1  1  0  0  0
 18 15  1  0  0  0  0
 21  4  1  0  0  0  0
 22 21  1  0  0  0  0
 24  2  1  0  0  0  0
 25  5  2  0  0  0  0
 27 14  2  0  0  0  0
 28 23  1  1  0  0  0
 28  9  1  0  0  0  0
 29 20  1  0  0  0  0
 29 30  1  0  0  0  0
 30 32  2  0  0  0  0
 30 31  1  0  0  0  0
M  END
>  <MODEL>
6

>  <REMARK>
 VINA RESULT:      -8.5      2.423      2.942
  Name = 
  2 active torsions:
  status: ('A' for Active; 'I' for Inactive)
    1  A    between atoms: N_20  and  C_29
    2  A    between atoms: C_29  and  C_30
                            x       y       z     vdW  Elec       q    Type
                         _______ _______ _______ _____ _____    ______ ____

>  <TORSDO>
F 2

$$$$
=
 OpenBabel11122410413D

 32 38  0  0  1  0  0  0  0  0999 V2000
  189.9950  176.4890  147.0080 C   0  0  1  0  0  3  0  0  0  0  0  0
  188.7650  177.6420  142.0860 C   0  0  0  0  0  0  0  0  0  0  0  0
  183.8330  178.2530  142.1700 C   0  0  0  0  0  2  0  0  0  0  0  0
  183.9650  179.1180  140.9310 C   0  0  0  0  0  2  0  0  0  0  0  0
  189.9390  177.5270  139.8170 C   0  0  0  0  0  0  0  0  0  0  0  0
  189.8060  177.7830  138.3830 C   0  0  1  0  0  3  0  0  0  0  0  0
  189.8810  176.7890  144.1750 C   0  0  2  0  0  3  0  0  0  0  0  0
  187.5470  177.5700  144.3280 C   0  0  0  0  0  2  0  0  0  0  0  0
  188.6890  178.1290  136.4720 C   0  0  0  0  0  0  0  0  0  0  0  0
  188.8680  177.2790  146.4410 C   0  0  2  0  0  3  0  0  0  0  0  0
  185.1120  178.3550  142.9920 C   0  0  0  0  0  2  0  0  0  0  0  0
  187.5700  177.8160  142.8330 C   0  0  0  0  0  0  0  0  0  0  0  0
  186.3620  178.1110  142.1740 C   0  0  0  0  0  0  0  0  0  0  0  0
  187.5260  178.1360  140.0330 C   0  0  0  0  0  0  0  0  0  0  0  0
  189.6170  177.2540  136.2690 N   0  0  0  0  0  0  0  0  0  0  0  0
  191.0160  176.0170  146.1210 O   0  0  0  0  0  0  0  0  0  0  0  0
  188.9270  177.6560  144.9600 C   0  0  1  0  0  3  0  0  0  0  0  0
  190.2880  177.0090  137.4700 N   0  0  0  0  0  2  0  0  0  0  0  0
  191.1770  176.7760  144.9440 C   0  0  0  0  0  2  0  0  0  0  0  0
  189.9850  177.9560  147.1360 N   0  0  0  0  0  0  0  0  0  0  0  0
  185.0520  178.5400  140.0350 C   0  0  0  0  0  2  0  0  0  0  0  0
  186.3460  178.2880  140.7730 C   0  0  0  0  0  0  0  0  0  0  0  0
  187.4940  178.3270  138.6040 N   0  0  0  0  0  2  0  0  0  0  0  0
  190.0770  177.4180  142.8070 C   0  0  0  0  0  2  0  0  0  0  0  0
  190.9980  177.0150  140.2670 O   0  0  0  0  0  0  0  0  0  0  0  0
  187.7960  178.6280  135.3920 C   0  0  0  0  0  1  0  0  0  0  0  0
  188.7450  177.7930  140.6780 C   0  0  0  0  0  0  0  0  0  0  0  0
  188.7140  178.6410  137.8700 C   0  0  1  0  0  3  0  0  0  0  0  0
  189.5210  178.2530  148.4800 C   0  0  0  0  0  2  0  0  0  0  0  0
  188.0450  178.0770  148.5520 C   0  0  0  0  0  0  0  0  0  0  0  0
  187.1860  179.0040  147.8990 N   0  0  0  0  0  1  0  0  0  0  0  0
  187.5550  177.1280  149.2190 O   0  0  0  0  0  0  0  0  0  0  0  0
  1 16  1  6  0  0  0
  1 20  1  0  0  0  0
  2 24  1  0  0  0  0
  2 12  1  0  0  0  0
  3 11  1  0  0  0  0
  4  3  1  0  0  0  0
  5 25  2  0  0  0  0
  5 27  1  0  0  0  0
  6 18  1  6  0  0  0
  6  5  1  0  0  0  0
  7 24  1  6  0  0  0
  7 19  1  0  0  0  0
  7 17  1  0  0  0  0
 10  1  1  0  0  0  0
 10 20  1  1  0  0  0
 12  8  1  0  0  0  0
 13 12  2  0  0  0  0
 13 11  1  0  0  0  0
 14 27  1  0  0  0  0
 14 22  2  0  0  0  0
 15  9  2  0  0  0  0
 15 18  1  0  0  0  0
 17  8  1  6  0  0  0
 17 10  1  0  0  0  0
 19 16  1  0  0  0  0
 20 29  1  0  0  0  0
 21 22  1  0  0  0  0
 21  4  1  0  0  0  0
 22 13  1  0  0  0  0
 23 14  1  0  0  0  0
 26  9  1  0  0  0  0
 27  2  2  0  0  0  0
 28  9  1  6  0  0  0
 28  6  1  0  0  0  0
 28 23  1  0  0  0  0
 29 30  1  0  0  0  0
 30 32  2  0  0  0  0
 31 30  1  0  0  0  0
M  END
>  <MODEL>
7

>  <REMARK>
 VINA RESULT:      -8.4      3.888      7.398
  Name = 
  2 active torsions:
  status: ('A' for Active; 'I' for Inactive)
    1  A    between atoms: N_20  and  C_29
    2  A    between atoms: C_29  and  C_30
                            x       y       z     vdW  Elec       q    Type
                         _______ _______ _______ _____ _____    ______ ____

>  <TORSDO>
F 2

$$$$
=
 OpenBabel11122410413D

 32 38  0  0  1  0  0  0  0  0999 V2000
  190.3060  177.8450  146.3710 C   0  0  1  0  0  3  0  0  0  0  0  0
  186.3360  178.1520  143.0220 C   0  0  0  0  0  0  0  0  0  0  0  0
  188.5180  178.7100  138.5910 C   0  0  0  0  0  2  0  0  0  0  0  0
  187.2650  178.1400  137.9540 C   0  0  0  0  0  2  0  0  0  0  0  0
  183.8080  178.4970  143.1860 C   0  0  0  0  0  0  0  0  0  0  0  0
  182.5610  178.6100  142.4310 C   0  0  1  0  0  3  0  0  0  0  0  0
  187.7980  178.2270  145.0710 C   0  0  2  0  0  3  0  0  0  0  0  0
  188.8800  177.9990  142.8660 C   0  0  0  0  0  2  0  0  0  0  0  0
  181.3120  178.9750  140.6070 C   0  0  0  0  0  0  0  0  0  0  0  0
  190.2140  177.4890  144.9290 C   0  0  2  0  0  3  0  0  0  0  0  0
  188.6770  178.1280  139.9900 C   0  0  0  0  0  2  0  0  0  0  0  0
  187.5100  178.0990  142.2250 C   0  0  0  0  0  0  0  0  0  0  0  0
  187.4230  178.2510  140.8290 C   0  0  0  0  0  0  0  0  0  0  0  0
  184.9990  178.4380  140.9920 C   0  0  0  0  0  0  0  0  0  0  0  0
  180.8130  179.6310  141.6010 N   0  0  0  0  0  0  0  0  0  0  0  0
  189.1140  178.2520  147.0540 O   0  0  0  0  0  0  0  0  0  0  0  0
  188.8270  177.4530  144.2840 C   0  0  1  0  0  3  0  0  0  0  0  0
  181.6140  179.4350  142.7300 N   0  0  0  0  0  2  0  0  0  0  0  0
  187.9150  177.7620  146.5000 C   0  0  0  0  0  2  0  0  0  0  0  0
  190.2720  176.4310  145.9620 N   0  0  0  0  0  0  0  0  0  0  0  0
  186.0470  178.6340  138.7230 C   0  0  0  0  0  2  0  0  0  0  0  0
  186.1620  178.4030  140.2110 C   0  0  0  0  0  0  0  0  0  0  0  0
  183.7180  178.5870  140.3450 N   0  0  0  0  0  2  0  0  0  0  0  0
  186.4260  177.8940  144.5110 C   0  0  0  0  0  2  0  0  0  0  0  0
  183.7960  178.6320  144.4390 O   0  0  0  0  0  0  0  0  0  0  0  0
  180.6890  178.9560  139.2560 C   0  0  0  0  0  1  0  0  0  0  0  0
  185.0740  178.3320  142.4070 C   0  0  0  0  0  0  0  0  0  0  0  0
  182.4940  178.1700  141.0190 C   0  0  1  0  0  3  0  0  0  0  0  0
  191.6440  175.9560  145.9940 C   0  0  0  0  0  2  0  0  0  0  0  0
  192.0120  175.5760  147.3850 C   0  0  0  0  0  0  0  0  0  0  0  0
  193.2920  175.9190  147.9010 N   0  0  0  0  0  1  0  0  0  0  0  0
  191.2040  174.9200  148.0930 O   0  0  0  0  0  0  0  0  0  0  0  0
  1 16  1  1  0  0  0
  2 24  1  0  0  0  0
  3 11  1  0  0  0  0
  4  3  1  0  0  0  0
  4 21  1  0  0  0  0
  5 25  2  0  0  0  0
  6 18  1  6  0  0  0
  6  5  1  0  0  0  0
  7 24  1  6  0  0  0
  7 19  1  0  0  0  0
  9 28  1  0  0  0  0
  9 15  2  0  0  0  0
 10 20  1  1  0  0  0
 10  1  1  0  0  0  0
 11 13  1  0  0  0  0
 12  8  1  0  0  0  0
 12  2  2  0  0  0  0
 13 12  1  0  0  0  0
 14 27  2  0  0  0  0
 15 18  1  0  0  0  0
 17  8  1  6  0  0  0
 17 10  1  0  0  0  0
 17  7  1  0  0  0  0
 19 16  1  0  0  0  0
 20 29  1  0  0  0  0
 20  1  1  0  0  0  0
 21 22  1  0  0  0  0
 22 13  2  0  0  0  0
 22 14  1  0  0  0  0
 23 14  1  0  0  0  0
 26  9  1  0  0  0  0
 27  2  1  0  0  0  0
 27  5  1  0  0  0  0
 28 23  1  6  0  0  0
 28  6  1  0  0  0  0
 29 30  1  0  0  0  0
 30 31  1  0  0  0  0
 30 32  2  0  0  0  0
M  END
>  <MODEL>
8

>  <REMARK>
 VINA RESULT:      -8.3      2.996      8.864
  Name = 
  2 active torsions:
  status: ('A' for Active; 'I' for Inactive)
    1  A    between atoms: N_20  and  C_29
    2  A    between atoms: C_29  and  C_30
                            x       y       z     vdW  Elec       q    Type
                         _______ _______ _______ _____ _____    ______ ____

>  <TORSDO>
F 2

$$$$
=
 OpenBabel11122410413D

 32 38  0  0  1  0  0  0  0  0999 V2000
  191.6620  175.6930  147.4640 C   0  0  1  0  0  3  0  0  0  0  0  0
  189.0140  177.2340  143.2590 C   0  0  0  0  0  0  0  0  0  0  0  0
  184.5700  178.5720  145.0380 C   0  0  0  0  0  2  0  0  0  0  0  0
  184.4020  179.4620  143.8200 C   0  0  0  0  0  2  0  0  0  0  0  0
  189.3050  177.0460  140.7260 C   0  0  0  0  0  0  0  0  0  0  0  0
  188.7300  177.3820  139.4240 C   0  0  1  0  0  3  0  0  0  0  0  0
  190.6320  176.1320  144.8430 C   0  0  2  0  0  3  0  0  0  0  0  0
  188.6430  177.2470  145.7850 C   0  0  0  0  0  2  0  0  0  0  0  0
  187.0940  177.9760  138.0130 C   0  0  0  0  0  0  0  0  0  0  0  0
  190.5470  176.6680  147.3140 C   0  0  2  0  0  3  0  0  0  0  0  0
  186.0520  178.4460  145.3650 C   0  0  0  0  0  2  0  0  0  0  0  0
  188.1900  177.5520  144.3710 C   0  0  0  0  0  0  0  0  0  0  0  0
  186.8910  178.0540  144.1680 C   0  0  0  0  0  0  0  0  0  0  0  0
  187.2390  177.9990  141.7570 C   0  0  0  0  0  0  0  0  0  0  0  0
  187.7470  176.9820  137.5110 N   0  0  0  0  0  0  0  0  0  0  0  0
  192.2300  175.1140  146.2840 O   0  0  0  0  0  0  0  0  0  0  0  0
  190.1520  177.0960  145.9000 C   0  0  1  0  0  3  0  0  0  0  0  0
  188.7430  176.5850  138.4080 N   0  0  0  0  0  2  0  0  0  0  0  0
  192.0940  175.8910  145.1160 C   0  0  0  0  0  2  0  0  0  0  0  0
  191.9260  177.1380  147.5730 N   0  0  0  0  0  0  0  0  0  0  0  0
  185.0110  178.7680  142.6090 C   0  0  0  0  0  2  0  0  0  0  0  0
  186.4230  178.2930  142.8570 C   0  0  0  0  0  0  0  0  0  0  0  0
  186.7490  178.2550  140.4250 N   0  0  0  0  0  2  0  0  0  0  0  0
  190.4420  176.7850  143.4850 C   0  0  0  0  0  2  0  0  0  0  0  0
  190.3610  176.3620  140.7870 O   0  0  0  0  0  0  0  0  0  0  0  0
  185.9740  178.6500  137.3030 C   0  0  0  0  0  1  0  0  0  0  0  0
  188.5360  177.4490  141.9440 C   0  0  0  0  0  0  0  0  0  0  0  0
  187.6760  178.4160  139.3110 C   0  0  1  0  0  3  0  0  0  0  0  0
  192.0030  177.4410  148.9910 C   0  0  0  0  0  2  0  0  0  0  0  0
  193.1760  176.7490  149.5910 C   0  0  0  0  0  0  0  0  0  0  0  0
  194.3260  177.4960  149.9690 N   0  0  0  0  0  1  0  0  0  0  0  0
  193.1650  175.4980  149.7310 O   0  0  0  0  0  0  0  0  0  0  0  0
  1 16  1  6  0  0  0
  1 20  1  0  0  0  0
  2 24  1  0  0  0  0
  2 12  1  0  0  0  0
  3 11  1  0  0  0  0
  4  3  1  0  0  0  0
  5 25  2  0  0  0  0
  5 27  1  0  0  0  0
  6 18  1  1  0  0  0
  6  5  1  0  0  0  0
  7 24  1  6  0  0  0
  7 19  1  0  0  0  0
  7 17  1  0  0  0  0
 10  1  1  0  0  0  0
 10 20  1  1  0  0  0
 12  8  1  0  0  0  0
 13 12  2  0  0  0  0
 13 11  1  0  0  0  0
 14 27  1  0  0  0  0
 14 22  2  0  0  0  0
 15  9  2  0  0  0  0
 15 18  1  0  0  0  0
 17  8  1  1  0  0  0
 17 10  1  0  0  0  0
 19 16  1  0  0  0  0
 20 29  1  0  0  0  0
 21 22  1  0  0  0  0
 21  4  1  0  0  0  0
 22 13  1  0  0  0  0
 23 14  1  0  0  0  0
 26  9  1  0  0  0  0
 27  2  2  0  0  0  0
 28  9  1  6  0  0  0
 28  6  1  0  0  0  0
 28 23  1  0  0  0  0
 29 30  1  0  0  0  0
 30 32  2  0  0  0  0
 30 31  1  0  0  0  0
M  END
>  <MODEL>
9

>  <REMARK>
 VINA RESULT:      -8.0      4.021      8.614
  Name = 
  2 active torsions:
  status: ('A' for Active; 'I' for Inactive)
    1  A    between atoms: N_20  and  C_29
    2  A    between atoms: C_29  and  C_30
                            x       y       z     vdW  Elec       q    Type
                         _______ _______ _______ _____ _____    ______ ____

>  <TORSDO>
F 2

$$$$
