=
 OpenBabel11122411533D

 28 31  0  0  1  0  0  0  0  0999 V2000
  180.7390  179.2770  142.6570 C   0  0  0  0  0  0  0  0  0  0  0  0
  179.4260  176.5650  140.4090 O   0  0  0  0  0  0  0  0  0  0  0  0
  179.4510  180.8260  140.7110 C   0  0  0  0  0  3  0  0  0  0  0  0
  181.5090  178.5680  143.7300 C   0  0  0  0  0  2  0  0  0  0  0  0
  180.0900  177.8870  138.4300 O   0  0  0  0  0  0  0  0  0  0  0  0
  180.4820  176.7730  139.3610 S   0  0  0  0  0  0  0  0  0  0  0  0
  182.0230  175.3970  137.5760 C   0  0  2  0  0  3  0  0  0  0  0  0
  182.0280  177.0560  140.0900 N   0  0  1  0  0  0  0  0  0  0  0  0
  185.1940  179.2510  144.6690 C   0  0  0  0  0  1  0  0  0  0  0  0
  183.5450  178.9060  140.5510 C   0  0  2  0  0  3  0  0  0  0  0  0
  183.2540  175.8320  138.3880 C   0  0  0  0  0  2  0  0  0  0  0  0
  180.7390  175.2810  138.4150 C   0  0  0  0  0  2  0  0  0  0  0  0
  184.0260  178.5450  143.9970 C   0  0  2  0  0  3  0  0  0  0  0  0
  181.0960  179.1400  141.3010 C   0  0  0  0  0  0  0  0  0  0  0  0
  182.2830  174.1790  136.9530 O   0  0  0  0  0  1  0  0  0  0  0  0
  184.3610  178.0930  142.6950 O   0  0  0  0  0  0  0  0  0  0  0  0
  180.4710  179.9460  140.3390 C   0  0  0  0  0  3  0  0  0  0  0  0
  179.7230  180.1660  143.0230 C   0  0  0  0  0  3  0  0  0  0  0  0
  179.0710  180.9290  142.0510 C   0  0  0  0  0  3  0  0  0  0  0  0
  182.7440  179.3820  144.0900 C   0  0  0  0  0  2  0  0  0  0  0  0
  184.1880  177.9170  139.5860 C   0  0  1  0  0  3  0  0  0  0  0  0
  184.3940  179.1870  141.8030 C   0  0  1  0  0  3  0  0  0  0  0  0
  182.9830  177.1980  139.0090 C   0  0  2  0  0  3  0  0  0  0  0  0
  182.2370  178.2350  140.9370 C   0  0  1  0  0  3  0  0  0  0  0  0
  186.4570  178.3830  141.8760 C   0  0  0  0  0  1  0  0  0  0  0  0
  185.7150  179.4880  141.4560 O   0  0  0  0  0  0  0  0  0  0  0  0
  184.9320  178.6750  138.4990 C   0  0  0  0  0  2  0  0  0  0  0  0
  186.2540  178.0000  138.1920 C   0  0  0  0  0  1  0  0  0  0  0  0
  1 18  1  0  0  0  0
  1  4  1  0  0  0  0
  3 19  1  0  0  0  0
  4 20  1  0  0  0  0
  5  6  2  0  0  0  0
  6  2  2  0  0  0  0
  7 15  1  1  0  0  0
  7 11  1  0  0  0  0
  7 12  1  0  0  0  0
  8  6  1  6  0  0  0
  8 24  1  0  0  0  0
 10 24  1  0  0  0  0
 10 22  1  0  0  0  0
 11 23  1  0  0  0  0
 12  6  1  0  0  0  0
 13 20  1  0  0  0  0
 13  9  1  0  0  0  0
 14  1  2  0  0  0  0
 16 13  1  0  0  0  0
 17  3  2  0  0  0  0
 17 14  1  0  0  0  0
 19 18  2  0  0  0  0
 21 10  1  0  0  0  0
 22 16  1  0  0  0  0
 23 21  1  0  0  0  0
 23  8  1  0  0  0  0
 24 14  1  0  0  0  0
 26 22  1  0  0  0  0
 26 25  1  0  0  0  0
 27 21  1  0  0  0  0
 28 27  1  0  0  0  0
M  END
>  <MODEL>
1

>  <REMARK>
 VINA RESULT:      -6.8      0.000      0.000
  Name = 
  2 active torsions:
  status: ('A' for Active; 'I' for Inactive)
    1  A    between atoms: C_5  and  C_24
    2  A    between atoms: O_17  and  C_25
                            x       y       z     vdW  Elec       q    Type
                         _______ _______ _______ _____ _____    ______ ____

>  <TORSDO>
F 2

$$$$
=
 OpenBabel11122411533D

 28 31  0  0  1  0  0  0  0  0999 V2000
  185.1660  175.6240  136.0120 C   0  0  0  0  0  0  0  0  0  0  0  0
  181.6770  177.0150  135.8440 O   0  0  0  0  0  0  0  0  0  0  0  0
  183.8090  173.7550  137.5970 C   0  0  0  0  0  3  0  0  0  0  0  0
  186.0150  176.5820  135.2320 C   0  0  0  0  0  2  0  0  0  0  0  0
  181.3870  176.5740  138.2580 O   0  0  0  0  0  0  0  0  0  0  0  0
  181.7310  177.6090  137.2240 S   0  0  0  0  0  0  0  0  0  0  0  0
  180.8880  179.7770  138.6530 C   0  0  2  0  0  3  0  0  0  0  0  0
  183.2770  178.3320  137.5230 N   0  0  1  0  0  0  0  0  0  0  0  0
  189.1820  178.3560  136.5550 C   0  0  0  0  0  1  0  0  0  0  0  0
  185.3360  177.8590  138.7360 C   0  0  2  0  0  3  0  0  0  0  0  0
  182.3640  180.1760  138.8140 C   0  0  0  0  0  2  0  0  0  0  0  0
  180.6000  178.9820  137.3670 C   0  0  0  0  0  2  0  0  0  0  0  0
  187.7140  178.1940  136.1920 C   0  0  2  0  0  3  0  0  0  0  0  0
  184.4370  176.0550  137.1380 C   0  0  0  0  0  0  0  0  0  0  0  0
  180.0910  180.9190  138.6810 O   0  0  0  0  0  1  0  0  0  0  0  0
  186.8650  178.8480  137.1220 O   0  0  0  0  0  0  0  0  0  0  0  0
  183.7920  175.1080  137.9450 C   0  0  0  0  0  3  0  0  0  0  0  0
  185.1840  174.2670  135.6730 C   0  0  0  0  0  3  0  0  0  0  0  0
  184.4970  173.3360  136.4560 C   0  0  0  0  0  3  0  0  0  0  0  0
  187.3700  176.7260  135.9120 C   0  0  0  0  0  2  0  0  0  0  0  0
  184.6540  179.0960  139.3070 C   0  0  1  0  0  3  0  0  0  0  0  0
  186.7970  178.0980  138.3160 C   0  0  1  0  0  3  0  0  0  0  0  0
  183.2190  178.9140  138.8500 C   0  0  2  0  0  3  0  0  0  0  0  0
  184.4880  177.5040  137.5260 C   0  0  1  0  0  3  0  0  0  0  0  0
  188.2480  177.7280  139.9490 C   0  0  0  0  0  1  0  0  0  0  0  0
  187.5120  178.7400  139.3320 O   0  0  0  0  0  0  0  0  0  0  0  0
  184.7400  179.0720  140.8250 C   0  0  0  0  0  2  0  0  0  0  0  0
  183.8350  177.9950  141.3900 C   0  0  0  0  0  1  0  0  0  0  0  0
  1 14  1  0  0  0  0
  2  6  2  0  0  0  0
  3 17  1  0  0  0  0
  4 20  1  0  0  0  0
  4  1  1  0  0  0  0
  6 12  1  0  0  0  0
  6  5  2  0  0  0  0
  7 15  1  6  0  0  0
  7 11  1  0  0  0  0
  8  6  1  1  0  0  0
  8 24  1  0  0  0  0
  8 23  1  0  0  0  0
 10 21  1  0  0  0  0
 11 23  1  0  0  0  0
 12  7  1  0  0  0  0
 13  9  1  0  0  0  0
 13 16  1  0  0  0  0
 14 24  1  0  0  0  0
 14 17  2  0  0  0  0
 16 22  1  0  0  0  0
 18  1  2  0  0  0  0
 18 19  1  0  0  0  0
 19  3  2  0  0  0  0
 20 13  1  0  0  0  0
 21 27  1  0  0  0  0
 22 10  1  0  0  0  0
 22 26  1  0  0  0  0
 23 21  1  0  0  0  0
 24 10  1  0  0  0  0
 26 25  1  0  0  0  0
 27 28  1  0  0  0  0
M  END
>  <MODEL>
2

>  <REMARK>
 VINA RESULT:      -6.3      2.719      6.267
  Name = 
  2 active torsions:
  status: ('A' for Active; 'I' for Inactive)
    1  A    between atoms: C_5  and  C_24
    2  A    between atoms: O_17  and  C_25
                            x       y       z     vdW  Elec       q    Type
                         _______ _______ _______ _____ _____    ______ ____

>  <TORSDO>
F 2

$$$$
=
 OpenBabel11122411533D

 28 31  0  0  1  0  0  0  0  0999 V2000
  185.7790  174.7700  135.8220 C   0  0  0  0  0  0  0  0  0  0  0  0
  182.1510  175.4210  135.0800 O   0  0  0  0  0  0  0  0  0  0  0  0
  184.5790  172.9310  137.5610 C   0  0  0  0  0  3  0  0  0  0  0  0
  186.5410  175.7470  134.9780 C   0  0  0  0  0  2  0  0  0  0  0  0
  181.6370  175.2960  137.4930 O   0  0  0  0  0  0  0  0  0  0  0  0
  181.9240  176.2130  136.3370 S   0  0  0  0  0  0  0  0  0  0  0  0
  180.5400  178.3660  137.2870 C   0  0  2  0  0  3  0  0  0  0  0  0
  183.2690  177.2570  136.6590 N   0  0  1  0  0  0  0  0  0  0  0  0
  189.1540  178.2750  136.2840 C   0  0  0  0  0  1  0  0  0  0  0  0
  185.2070  177.3750  138.1310 C   0  0  2  0  0  3  0  0  0  0  0  0
  181.8910  179.0610  137.5220 C   0  0  0  0  0  2  0  0  0  0  0  0
  180.5610  177.3480  136.1340 C   0  0  0  0  0  2  0  0  0  0  0  0
  187.7950  177.7810  135.8120 C   0  0  2  0  0  3  0  0  0  0  0  0
  184.8490  175.2150  136.7820 C   0  0  0  0  0  0  0  0  0  0  0  0
  179.5590  179.3240  137.0430 O   0  0  0  0  0  1  0  0  0  0  0  0
  186.7340  178.3900  136.5290 O   0  0  0  0  0  0  0  0  0  0  0  0
  184.2810  174.2920  137.6710 C   0  0  0  0  0  3  0  0  0  0  0  0
  186.0770  173.4060  135.7220 C   0  0  0  0  0  3  0  0  0  0  0  0
  185.4690  172.4870  136.5810 C   0  0  0  0  0  3  0  0  0  0  0  0
  187.7510  176.2490  135.7530 C   0  0  0  0  0  2  0  0  0  0  0  0
  184.2520  178.5280  138.4130 C   0  0  1  0  0  3  0  0  0  0  0  0
  186.6450  177.8270  137.8210 C   0  0  1  0  0  3  0  0  0  0  0  0
  182.9410  178.0070  137.8550 C   0  0  2  0  0  3  0  0  0  0  0  0
  184.5960  176.6880  136.9210 C   0  0  1  0  0  3  0  0  0  0  0  0
  187.9100  177.9880  139.6330 C   0  0  0  0  0  1  0  0  0  0  0  0
  187.1020  178.7390  138.7780 O   0  0  0  0  0  0  0  0  0  0  0  0
  184.1470  178.7480  139.9140 C   0  0  0  0  0  2  0  0  0  0  0  0
  183.3610  177.6230  140.5600 C   0  0  0  0  0  1  0  0  0  0  0  0
  1 14  1  0  0  0  0
  2  6  2  0  0  0  0
  3 17  1  0  0  0  0
  4 20  1  0  0  0  0
  4  1  1  0  0  0  0
  6  5  2  0  0  0  0
  7 15  1  6  0  0  0
  7 11  1  0  0  0  0
  8  6  1  1  0  0  0
  8 24  1  0  0  0  0
  8 23  1  0  0  0  0
 10 21  1  0  0  0  0
 11 23  1  0  0  0  0
 12  6  1  0  0  0  0
 12  7  1  0  0  0  0
 13  9  1  0  0  0  0
 13 16  1  0  0  0  0
 14 24  1  0  0  0  0
 14 17  2  0  0  0  0
 16 22  1  0  0  0  0
 18  1  2  0  0  0  0
 18 19  1  0  0  0  0
 19  3  2  0  0  0  0
 20 13  1  0  0  0  0
 21 27  1  0  0  0  0
 22 10  1  0  0  0  0
 22 26  1  0  0  0  0
 23 21  1  0  0  0  0
 24 10  1  0  0  0  0
 26 25  1  0  0  0  0
 27 28  1  0  0  0  0
M  END
>  <MODEL>
3

>  <REMARK>
 VINA RESULT:      -5.8      3.226      6.648
  Name = 
  2 active torsions:
  status: ('A' for Active; 'I' for Inactive)
    1  A    between atoms: C_5  and  C_24
    2  A    between atoms: O_17  and  C_25
                            x       y       z     vdW  Elec       q    Type
                         _______ _______ _______ _____ _____    ______ ____

>  <TORSDO>
F 2

$$$$
=
 OpenBabel11122411533D

 28 31  0  0  1  0  0  0  0  0999 V2000
  188.9400  177.8310  137.4530 C   0  0  0  0  0  0  0  0  0  0  0  0
  192.2850  176.3770  136.5400 O   0  0  0  0  0  0  0  0  0  0  0  0
  189.8380  177.0260  139.9810 C   0  0  0  0  0  3  0  0  0  0  0  0
  188.3220  178.2570  136.1550 C   0  0  0  0  0  2  0  0  0  0  0  0
  191.8800  174.4850  138.0770 O   0  0  0  0  0  0  0  0  0  0  0  0
  191.8170  174.9540  136.6490 S   0  0  0  0  0  0  0  0  0  0  0  0
  192.1460  172.5010  135.4970 C   0  0  2  0  0  3  0  0  0  0  0  0
  190.2290  174.7720  135.9800 N   0  0  1  0  0  0  0  0  0  0  0  0
  184.8560  177.1530  134.8540 C   0  0  0  0  0  1  0  0  0  0  0  0
  187.9230  174.5310  136.7280 C   0  0  2  0  0  3  0  0  0  0  0  0
  190.6750  172.5710  135.0560 C   0  0  0  0  0  2  0  0  0  0  0  0
  192.8170  173.8780  135.6340 C   0  0  0  0  0  2  0  0  0  0  0  0
  186.3700  177.1410  134.9920 C   0  0  2  0  0  3  0  0  0  0  0  0
  189.2990  176.4870  137.6760 C   0  0  0  0  0  0  0  0  0  0  0  0
  192.8660  171.7220  134.5940 O   0  0  0  0  0  1  0  0  0  0  0  0
  186.8950  175.8240  134.9410 O   0  0  0  0  0  0  0  0  0  0  0  0
  189.7130  176.0870  138.9540 C   0  0  0  0  0  3  0  0  0  0  0  0
  189.0610  178.7640  138.4880 C   0  0  0  0  0  3  0  0  0  0  0  0
  189.5210  178.3660  139.7460 C   0  0  0  0  0  3  0  0  0  0  0  0
  186.8250  177.9810  136.1920 C   0  0  0  0  0  2  0  0  0  0  0  0
  188.3750  173.2830  135.9800 C   0  0  1  0  0  3  0  0  0  0  0  0
  186.6390  175.1600  136.1610 C   0  0  1  0  0  3  0  0  0  0  0  0
  189.8850  173.3690  136.0880 C   0  0  2  0  0  3  0  0  0  0  0  0
  189.0940  175.4870  136.5740 C   0  0  1  0  0  3  0  0  0  0  0  0
  184.8940  174.2340  137.1640 C   0  0  0  0  0  1  0  0  0  0  0  0
  185.6420  174.1960  135.9860 O   0  0  0  0  0  0  0  0  0  0  0  0
  187.8550  172.0450  136.6930 C   0  0  0  0  0  2  0  0  0  0  0  0
  187.3060  171.0480  135.6920 C   0  0  0  0  0  1  0  0  0  0  0  0
  1 14  2  0  0  0  0
  1 18  1  0  0  0  0
  2  6  2  0  0  0  0
  4 20  1  0  0  0  0
  4  1  1  0  0  0  0
  6  5  2  0  0  0  0
  7 15  1  6  0  0  0
  7 12  1  0  0  0  0
  8 23  1  0  0  0  0
  8 24  1  0  0  0  0
  8  6  1  1  0  0  0
  9 13  1  0  0  0  0
 11  7  1  0  0  0  0
 11 23  1  0  0  0  0
 12  6  1  0  0  0  0
 13 20  1  0  0  0  0
 14 17  1  0  0  0  0
 16 13  1  0  0  0  0
 16 22  1  0  0  0  0
 17  3  2  0  0  0  0
 18 19  2  0  0  0  0
 19  3  1  0  0  0  0
 21 23  1  0  0  0  0
 21 27  1  0  0  0  0
 21 10  1  0  0  0  0
 22 10  1  0  0  0  0
 24 10  1  0  0  0  0
 24 14  1  0  0  0  0
 26 22  1  0  0  0  0
 26 25  1  0  0  0  0
 28 27  1  0  0  0  0
M  END
>  <MODEL>
4

>  <REMARK>
 VINA RESULT:      -5.6      6.973      9.692
  Name = 
  2 active torsions:
  status: ('A' for Active; 'I' for Inactive)
    1  A    between atoms: C_5  and  C_24
    2  A    between atoms: O_17  and  C_25
                            x       y       z     vdW  Elec       q    Type
                         _______ _______ _______ _____ _____    ______ ____

>  <TORSDO>
F 2

$$$$
=
 OpenBabel11122411533D

 28 31  0  0  1  0  0  0  0  0999 V2000
  181.3160  179.5380  137.7510 C   0  0  0  0  0  0  0  0  0  0  0  0
  178.9310  176.7440  136.9520 O   0  0  0  0  0  0  0  0  0  0  0  0
  180.8380  180.0540  135.0400 C   0  0  0  0  0  3  0  0  0  0  0  0
  181.6970  179.3390  139.1870 C   0  0  0  0  0  2  0  0  0  0  0  0
  180.1030  176.3580  134.8120 O   0  0  0  0  0  0  0  0  0  0  0  0
  179.9660  175.9180  136.2430 S   0  0  0  0  0  0  0  0  0  0  0  0
  180.7340  173.3270  135.8520 C   0  0  2  0  0  3  0  0  0  0  0  0
  181.4810  175.9730  137.0820 N   0  0  1  0  0  0  0  0  0  0  0  0
  185.3080  179.0240  140.5240 C   0  0  0  0  0  1  0  0  0  0  0  0
  183.6610  177.0450  136.8960 C   0  0  2  0  0  3  0  0  0  0  0  0
  182.0340  173.6570  136.6040 C   0  0  0  0  0  2  0  0  0  0  0  0
  179.5340  174.1860  136.2860 C   0  0  0  0  0  2  0  0  0  0  0  0
  183.9460  178.5510  140.0410 C   0  0  2  0  0  3  0  0  0  0  0  0
  181.5700  178.5390  136.7900 C   0  0  0  0  0  0  0  0  0  0  0  0
  180.4260  171.9790  136.0220 O   0  0  0  0  0  1  0  0  0  0  0  0
  184.0420  177.3580  139.2790 O   0  0  0  0  0  0  0  0  0  0  0  0
  181.3620  178.8200  135.4330 C   0  0  0  0  0  3  0  0  0  0  0  0
  180.7980  180.7740  137.3500 C   0  0  0  0  0  3  0  0  0  0  0  0
  180.5470  181.0270  135.9990 C   0  0  0  0  0  3  0  0  0  0  0  0
  183.1660  179.6920  139.3750 C   0  0  0  0  0  2  0  0  0  0  0  0
  183.7970  175.5330  136.7620 C   0  0  1  0  0  3  0  0  0  0  0  0
  184.5510  177.6500  137.9950 C   0  0  1  0  0  3  0  0  0  0  0  0
  182.3960  175.1170  136.3550 C   0  0  2  0  0  3  0  0  0  0  0  0
  182.1930  177.2470  137.2330 C   0  0  1  0  0  3  0  0  0  0  0  0
  186.5580  178.2330  137.2600 C   0  0  0  0  0  1  0  0  0  0  0  0
  185.8680  177.1920  137.8830 O   0  0  0  0  0  0  0  0  0  0  0  0
  184.7950  175.2060  135.6640 C   0  0  0  0  0  2  0  0  0  0  0  0
  184.7760  176.2800  134.5940 C   0  0  0  0  0  1  0  0  0  0  0  0
  1  4  1  0  0  0  0
  3 17  2  0  0  0  0
  3 19  1  0  0  0  0
  4 20  1  0  0  0  0
  5  6  2  0  0  0  0
  6 12  1  0  0  0  0
  6  2  2  0  0  0  0
  7 15  1  1  0  0  0
  7 12  1  0  0  0  0
  7 11  1  0  0  0  0
  8  6  1  6  0  0  0
  8 24  1  0  0  0  0
 10 24  1  0  0  0  0
 10 22  1  0  0  0  0
 13  9  1  0  0  0  0
 14 24  1  0  0  0  0
 14  1  2  0  0  0  0
 16 13  1  0  0  0  0
 17 14  1  0  0  0  0
 18  1  1  0  0  0  0
 19 18  2  0  0  0  0
 20 13  1  0  0  0  0
 21 10  1  0  0  0  0
 22 16  1  0  0  0  0
 23 11  1  0  0  0  0
 23 21  1  0  0  0  0
 23  8  1  0  0  0  0
 25 26  1  0  0  0  0
 26 22  1  0  0  0  0
 27 21  1  0  0  0  0
 28 27  1  0  0  0  0
M  END
>  <MODEL>
5

>  <REMARK>
 VINA RESULT:      -5.0      2.932      4.238
  Name = 
  2 active torsions:
  status: ('A' for Active; 'I' for Inactive)
    1  A    between atoms: C_5  and  C_24
    2  A    between atoms: O_17  and  C_25
                            x       y       z     vdW  Elec       q    Type
                         _______ _______ _______ _____ _____    ______ ____

>  <TORSDO>
F 2

$$$$
=
 OpenBabel11122411533D

 28 31  0  0  1  0  0  0  0  0999 V2000
  181.6170  177.2220  136.4320 C   0  0  0  0  0  0  0  0  0  0  0  0
  184.8240  178.5560  137.8720 O   0  0  0  0  0  0  0  0  0  0  0  0
  181.1880  179.9740  136.1350 C   0  0  0  0  0  3  0  0  0  0  0  0
  181.7000  175.7340  136.5840 C   0  0  0  0  0  2  0  0  0  0  0  0
  183.5580  180.3190  139.0530 O   0  0  0  0  0  0  0  0  0  0  0  0
  184.1960  178.9630  139.1750 S   0  0  0  0  0  0  0  0  0  0  0  0
  184.7200  179.1000  141.8510 C   0  0  2  0  0  3  0  0  0  0  0  0
  183.0670  177.7650  139.7170 N   0  0  1  0  0  0  0  0  0  0  0  0
  179.0820  173.5130  138.3570 C   0  0  0  0  0  1  0  0  0  0  0  0
  180.6590  177.4070  139.8220 C   0  0  2  0  0  3  0  0  0  0  0  0
  183.6220  178.0460  142.0640 C   0  0  0  0  0  2  0  0  0  0  0  0
  185.4130  179.0020  140.4810 C   0  0  0  0  0  2  0  0  0  0  0  0
  180.3620  174.3200  138.2020 C   0  0  2  0  0  3  0  0  0  0  0  0
  181.6800  178.0690  137.5570 C   0  0  0  0  0  0  0  0  0  0  0  0
  185.6730  178.9910  142.8610 O   0  0  0  0  0  1  0  0  0  0  0  0
  180.6970  175.0110  139.3950 O   0  0  0  0  0  0  0  0  0  0  0  0
  181.4290  179.4390  137.4030 C   0  0  0  0  0  3  0  0  0  0  0  0
  181.3690  177.7650  135.1660 C   0  0  0  0  0  3  0  0  0  0  0  0
  181.1670  179.1390  135.0160 C   0  0  0  0  0  3  0  0  0  0  0  0
  180.3250  175.1830  136.9350 C   0  0  0  0  0  2  0  0  0  0  0  0
  181.2500  177.4750  141.2250 C   0  0  1  0  0  3  0  0  0  0  0  0
  179.8480  176.1270  139.5560 C   0  0  1  0  0  3  0  0  0  0  0  0
  182.5510  178.2200  140.9920 C   0  0  2  0  0  3  0  0  0  0  0  0
  181.8770  177.4600  138.9140 C   0  0  1  0  0  3  0  0  0  0  0  0
  179.4190  174.7670  141.2510 C   0  0  0  0  0  1  0  0  0  0  0  0
  178.9310  175.8910  140.5850 O   0  0  0  0  0  0  0  0  0  0  0  0
  180.3270  178.2760  142.1290 C   0  0  0  0  0  2  0  0  0  0  0  0
  180.0590  179.6450  141.5330 C   0  0  0  0  0  1  0  0  0  0  0  0
  1  4  1  0  0  0  0
  1 14  1  0  0  0  0
  2  6  2  0  0  0  0
  3 17  1  0  0  0  0
  4 20  1  0  0  0  0
  5  6  2  0  0  0  0
  6 12  1  0  0  0  0
  7 11  1  0  0  0  0
  7 15  1  1  0  0  0
  8  6  1  6  0  0  0
  8 23  1  0  0  0  0
 10 21  1  0  0  0  0
 12  7  1  0  0  0  0
 13  9  1  0  0  0  0
 13 16  1  0  0  0  0
 14 24  1  0  0  0  0
 16 22  1  0  0  0  0
 17 14  2  0  0  0  0
 18  1  2  0  0  0  0
 19 18  1  0  0  0  0
 19  3  2  0  0  0  0
 20 13  1  0  0  0  0
 21 27  1  0  0  0  0
 22 10  1  0  0  0  0
 22 26  1  0  0  0  0
 23 21  1  0  0  0  0
 23 11  1  0  0  0  0
 24  8  1  0  0  0  0
 24 10  1  0  0  0  0
 26 25  1  0  0  0  0
 28 27  1  0  0  0  0
M  END
>  <MODEL>
6

>  <REMARK>
 VINA RESULT:      -5.0      2.413      6.229
  Name = 
  2 active torsions:
  status: ('A' for Active; 'I' for Inactive)
    1  A    between atoms: C_5  and  C_24
    2  A    between atoms: O_17  and  C_25
                            x       y       z     vdW  Elec       q    Type
                         _______ _______ _______ _____ _____    ______ ____

>  <TORSDO>
F 2

$$$$
=
 OpenBabel11122411533D

 28 31  0  0  1  0  0  0  0  0999 V2000
  184.7480  175.2150  136.3200 C   0  0  0  0  0  0  0  0  0  0  0  0
  183.6680  177.4630  139.1330 O   0  0  0  0  0  0  0  0  0  0  0  0
  183.8570  177.4360  134.8650 C   0  0  0  0  0  3  0  0  0  0  0  0
  185.2050  173.9470  136.9760 C   0  0  0  0  0  2  0  0  0  0  0  0
  181.6460  178.0860  137.8550 O   0  0  0  0  0  0  0  0  0  0  0  0
  182.2030  177.1940  138.9300 S   0  0  0  0  0  0  0  0  0  0  0  0
  179.8740  176.8800  140.3190 C   0  0  2  0  0  3  0  0  0  0  0  0
  181.9260  175.5190  138.5850 N   0  0  1  0  0  0  0  0  0  0  0  0
  183.8850  170.4060  136.1690 C   0  0  0  0  0  1  0  0  0  0  0  0
  181.4280  174.0800  136.6830 C   0  0  2  0  0  3  0  0  0  0  0  0
  179.8420  175.4230  139.8280 C   0  0  0  0  0  2  0  0  0  0  0  0
  181.2940  177.4590  140.4430 C   0  0  0  0  0  2  0  0  0  0  0  0
  184.0000  171.7210  136.9250 C   0  0  2  0  0  3  0  0  0  0  0  0
  183.4300  175.6830  136.4890 C   0  0  0  0  0  0  0  0  0  0  0  0
  179.2270  176.9710  141.5490 O   0  0  0  0  0  1  0  0  0  0  0  0
  182.7420  172.1640  137.4080 O   0  0  0  0  0  0  0  0  0  0  0  0
  182.9830  176.7720  135.7300 C   0  0  0  0  0  3  0  0  0  0  0  0
  185.6160  175.8800  135.4470 C   0  0  0  0  0  3  0  0  0  0  0  0
  185.1760  176.9960  134.7310 C   0  0  0  0  0  3  0  0  0  0  0  0
  184.7940  172.7570  136.1190 C   0  0  0  0  0  2  0  0  0  0  0  0
  180.2790  174.0580  137.6840 C   0  0  1  0  0  3  0  0  0  0  0  0
  181.9760  172.6840  136.3420 C   0  0  1  0  0  3  0  0  0  0  0  0
  180.4930  175.3490  138.4510 C   0  0  2  0  0  3  0  0  0  0  0  0
  182.4940  174.9130  137.3750 C   0  0  1  0  0  3  0  0  0  0  0  0
  180.9080  171.7830  134.6230 C   0  0  0  0  0  1  0  0  0  0  0  0
  180.9400  171.8030  136.0180 O   0  0  0  0  0  0  0  0  0  0  0  0
  178.9540  174.0880  136.9400 C   0  0  0  0  0  2  0  0  0  0  0  0
  178.9630  175.1800  135.8870 C   0  0  0  0  0  1  0  0  0  0  0  0
  1 14  1  0  0  0  0
  1  4  1  0  0  0  0
  3 17  1  0  0  0  0
  5  6  2  0  0  0  0
  6  2  2  0  0  0  0
  6 12  1  0  0  0  0
  7 12  1  0  0  0  0
  7 15  1  1  0  0  0
  8  6  1  6  0  0  0
  9 13  1  0  0  0  0
 10 24  1  0  0  0  0
 10 21  1  0  0  0  0
 11  7  1  0  0  0  0
 13 16  1  0  0  0  0
 14 24  1  0  0  0  0
 17 14  2  0  0  0  0
 18  1  2  0  0  0  0
 19  3  2  0  0  0  0
 19 18  1  0  0  0  0
 20 13  1  0  0  0  0
 20  4  1  0  0  0  0
 21 23  1  0  0  0  0
 22 10  1  0  0  0  0
 22 16  1  0  0  0  0
 23  8  1  0  0  0  0
 23 11  1  0  0  0  0
 24  8  1  0  0  0  0
 25 26  1  0  0  0  0
 26 22  1  0  0  0  0
 27 21  1  0  0  0  0
 28 27  1  0  0  0  0
M  END
>  <MODEL>
7

>  <REMARK>
 VINA RESULT:      -4.9      3.275      7.556
  Name = 
  2 active torsions:
  status: ('A' for Active; 'I' for Inactive)
    1  A    between atoms: C_5  and  C_24
    2  A    between atoms: O_17  and  C_25
                            x       y       z     vdW  Elec       q    Type
                         _______ _______ _______ _____ _____    ______ ____

>  <TORSDO>
F 2

$$$$
=
 OpenBabel11122411533D

 28 31  0  0  1  0  0  0  0  0999 V2000
  187.9190  177.6550  137.5940 C   0  0  0  0  0  0  0  0  0  0  0  0
  185.6420  174.7840  136.7510 O   0  0  0  0  0  0  0  0  0  0  0  0
  187.3980  178.2100  134.8980 C   0  0  0  0  0  3  0  0  0  0  0  0
  188.3200  177.4400  139.0220 C   0  0  0  0  0  2  0  0  0  0  0  0
  186.8110  174.4930  134.5930 O   0  0  0  0  0  0  0  0  0  0  0  0
  186.7040  174.0170  136.0150 S   0  0  0  0  0  0  0  0  0  0  0  0
  187.5730  171.4680  135.5610 C   0  0  2  0  0  3  0  0  0  0  0  0
  188.2220  174.1140  136.8440 N   0  0  1  0  0  0  0  0  0  0  0  0
  191.9520  177.2430  140.3240 C   0  0  0  0  0  1  0  0  0  0  0  0
  190.3550  175.2780  136.6650 C   0  0  2  0  0  3  0  0  0  0  0  0
  188.8640  171.8340  136.3110 C   0  0  0  0  0  2  0  0  0  0  0  0
  186.3420  172.2680  136.0230 C   0  0  0  0  0  2  0  0  0  0  0  0
  190.6070  176.7260  139.8400 C   0  0  2  0  0  3  0  0  0  0  0  0
  188.2050  176.6880  136.6090 C   0  0  0  0  0  0  0  0  0  0  0  0
  187.3210  170.1060  135.7040 O   0  0  0  0  0  1  0  0  0  0  0  0
  190.7440  175.5540  139.0520 O   0  0  0  0  0  0  0  0  0  0  0  0
  187.9740  176.9900  135.2600 C   0  0  0  0  0  3  0  0  0  0  0  0
  187.3480  178.8770  137.2230 C   0  0  0  0  0  3  0  0  0  0  0  0
  187.0760  179.1490  135.8800 C   0  0  0  0  0  3  0  0  0  0  0  0
  189.7760  177.8480  139.2060 C   0  0  0  0  0  2  0  0  0  0  0  0
  190.5510  173.7760  136.4970 C   0  0  1  0  0  3  0  0  0  0  0  0
  191.2300  175.8940  137.7710 C   0  0  1  0  0  3  0  0  0  0  0  0
  189.1650  173.3120  136.0910 C   0  0  2  0  0  3  0  0  0  0  0  0
  188.8830  175.4130  137.0180 C   0  0  1  0  0  3  0  0  0  0  0  0
  193.1610  176.4830  136.8580 C   0  0  0  0  0  1  0  0  0  0  0  0
  192.5630  175.4930  137.6380 O   0  0  0  0  0  0  0  0  0  0  0  0
  191.5530  173.5140  135.3840 C   0  0  0  0  0  2  0  0  0  0  0  0
  192.4210  172.3180  135.7230 C   0  0  0  0  0  1  0  0  0  0  0  0
  1  4  1  0  0  0  0
  3 17  2  0  0  0  0
  3 19  1  0  0  0  0
  4 20  1  0  0  0  0
  5  6  2  0  0  0  0
  6 12  1  0  0  0  0
  6  2  2  0  0  0  0
  7 15  1  1  0  0  0
  7 12  1  0  0  0  0
  7 11  1  0  0  0  0
  8  6  1  6  0  0  0
  8 24  1  0  0  0  0
 10 24  1  0  0  0  0
 10 22  1  0  0  0  0
 13  9  1  0  0  0  0
 14 24  1  0  0  0  0
 14  1  2  0  0  0  0
 16 13  1  0  0  0  0
 17 14  1  0  0  0  0
 18  1  1  0  0  0  0
 19 18  2  0  0  0  0
 20 13  1  0  0  0  0
 21 10  1  0  0  0  0
 22 16  1  0  0  0  0
 23 11  1  0  0  0  0
 23 21  1  0  0  0  0
 23  8  1  0  0  0  0
 25 26  1  0  0  0  0
 26 22  1  0  0  0  0
 27 28  1  0  0  0  0
 27 21  1  0  0  0  0
M  END
>  <MODEL>
8

>  <REMARK>
 VINA RESULT:      -4.9      6.686      8.402
  Name = 
  2 active torsions:
  status: ('A' for Active; 'I' for Inactive)
    1  A    between atoms: C_5  and  C_24
    2  A    between atoms: O_17  and  C_25
                            x       y       z     vdW  Elec       q    Type
                         _______ _______ _______ _____ _____    ______ ____

>  <TORSDO>
F 2

$$$$
=
 OpenBabel11122411533D

 28 31  0  0  1  0  0  0  0  0999 V2000
  179.9130  180.7390  139.6250 C   0  0  0  0  0  0  0  0  0  0  0  0
  180.4510  178.2960  136.8180 O   0  0  0  0  0  0  0  0  0  0  0  0
  181.8220  182.1280  138.1170 C   0  0  0  0  0  3  0  0  0  0  0  0
  178.9330  180.0780  140.5470 C   0  0  0  0  0  2  0  0  0  0  0  0
  182.8850  178.7050  136.9320 O   0  0  0  0  0  0  0  0  0  0  0  0
  181.7620  177.7990  137.3570 S   0  0  0  0  0  0  0  0  0  0  0  0
  183.2580  175.5260  137.5850 C   0  0  2  0  0  3  0  0  0  0  0  0
  181.6940  177.6220  139.0790 N   0  0  1  0  0  0  0  0  0  0  0  0
  179.4740  179.4630  144.3220 C   0  0  0  0  0  1  0  0  0  0  0  0
  182.4510  178.7740  141.0890 C   0  0  2  0  0  3  0  0  0  0  0  0
  183.0810  175.6290  139.1080 C   0  0  0  0  0  2  0  0  0  0  0  0
  182.0960  176.1410  136.7860 C   0  0  0  0  0  2  0  0  0  0  0  0
  179.4430  179.1320  142.8380 C   0  0  2  0  0  3  0  0  0  0  0  0
  181.1530  180.1370  139.3350 C   0  0  0  0  0  0  0  0  0  0  0  0
  183.4150  174.1910  137.2220 O   0  0  0  0  0  1  0  0  0  0  0  0
  180.5090  178.2730  142.4670 O   0  0  0  0  0  0  0  0  0  0  0  0
  182.1150  180.8540  138.6110 C   0  0  0  0  0  3  0  0  0  0  0  0
  179.6290  182.0180  139.1330 C   0  0  0  0  0  3  0  0  0  0  0  0
  180.5760  182.7050  138.3700 C   0  0  0  0  0  3  0  0  0  0  0  0
  179.2980  180.4010  141.9890 C   0  0  0  0  0  2  0  0  0  0  0  0
  183.1090  177.4040  140.9800 C   0  0  1  0  0  3  0  0  0  0  0  0
  181.7170  179.0020  142.4210 C   0  0  1  0  0  3  0  0  0  0  0  0
  182.9790  177.0990  139.4990 C   0  0  2  0  0  3  0  0  0  0  0  0
  181.4660  178.7950  139.9310 C   0  0  1  0  0  3  0  0  0  0  0  0
  183.2180  179.8310  143.8240 C   0  0  0  0  0  1  0  0  0  0  0  0
  182.5290  178.6590  143.5070 O   0  0  0  0  0  0  0  0  0  0  0  0
  184.5720  177.5070  141.3800 C   0  0  0  0  0  2  0  0  0  0  0  0
  185.2000  178.7470  140.7750 C   0  0  0  0  0  1  0  0  0  0  0  0
  1  4  1  0  0  0  0
  2  6  2  0  0  0  0
  3 19  2  0  0  0  0
  3 17  1  0  0  0  0
  4 20  1  0  0  0  0
  5  6  2  0  0  0  0
  7 15  1  1  0  0  0
  7 11  1  0  0  0  0
  8  6  1  6  0  0  0
  8 23  1  0  0  0  0
  8 24  1  0  0  0  0
 10 22  1  0  0  0  0
 11 23  1  0  0  0  0
 12  6  1  0  0  0  0
 12  7  1  0  0  0  0
 13  9  1  0  0  0  0
 14  1  1  0  0  0  0
 14 24  1  0  0  0  0
 16 13  1  0  0  0  0
 17 14  2  0  0  0  0
 18  1  2  0  0  0  0
 19 18  1  0  0  0  0
 20 13  1  0  0  0  0
 21 10  1  0  0  0  0
 21 27  1  0  0  0  0
 22 16  1  0  0  0  0
 22 26  1  0  0  0  0
 23 21  1  0  0  0  0
 24 10  1  0  0  0  0
 26 25  1  0  0  0  0
 28 27  1  0  0  0  0
M  END
>  <MODEL>
9

>  <REMARK>
 VINA RESULT:      -4.8      1.779      3.222
  Name = 
  2 active torsions:
  status: ('A' for Active; 'I' for Inactive)
    1  A    between atoms: C_5  and  C_24
    2  A    between atoms: O_17  and  C_25
                            x       y       z     vdW  Elec       q    Type
                         _______ _______ _______ _____ _____    ______ ____

>  <TORSDO>
F 2

$$$$
