=
 OpenBabel11122412043D

 34 41  0  0  1  0  0  0  0  0999 V2000
  186.9320  178.2860  140.4870 C   0  0  0  0  0  0  0  0  0  0  0  0
  189.2980  177.6150  139.8450 C   0  0  0  0  0  2  0  0  0  0  0  0
  180.7740  179.7280  138.6240 C   0  0  2  0  0  3  0  0  0  0  0  0
  184.5580  178.5720  140.9510 C   0  0  0  0  0  0  0  0  0  0  0  0
  182.8620  178.4120  139.0730 N   0  0  1  0  0  0  0  0  0  0  0  0
  182.4400  180.8520  138.6050 C   0  0  0  0  0  2  0  0  0  0  0  0
  181.0990  181.0440  138.9970 O   0  0  0  0  0  0  0  0  0  0  0  0
  180.7920  179.2290  141.1540 C   0  0  0  0  0  2  0  0  0  0  0  0
  187.7980  178.4160  138.1180 C   0  0  2  0  0  3  0  0  0  0  0  0
  187.8010  176.5040  135.4640 C   0  0  0  0  0  2  0  0  0  0  0  0
  183.9820  177.8210  138.3240 C   0  0  0  0  0  2  0  0  0  0  0  0
  182.0650  178.4290  141.3910 C   0  0  0  0  0  2  0  0  0  0  0  0
  186.3980  177.9470  137.6730 C   0  0  1  0  0  3  0  0  0  0  0  0
  190.0280  177.5060  138.5170 C   0  0  0  0  0  2  0  0  0  0  0  0
  183.1640  178.8930  140.4460 C   0  0  1  0  0  3  0  0  0  0  0  0
  180.1750  178.9170  139.7910 C   0  0  0  0  0  2  0  0  0  0  0  0
  188.6310  176.3650  136.7520 C   0  0  1  0  0  3  0  0  0  0  0  0
  185.6110  178.4580  140.0300 C   0  0  0  0  0  0  0  0  0  0  0  0
  182.1980  179.4080  138.2090 C   0  0  2  0  0  3  0  0  0  0  0  0
  185.3000  178.5540  138.5610 C   0  0  2  0  0  3  0  0  0  0  0  0
  186.1410  178.3280  142.7780 C   0  0  0  0  0  3  0  0  0  0  0  0
  187.2280  177.9040  135.2270 C   0  0  0  0  0  2  0  0  0  0  0  0
  184.8340  178.5250  142.3250 C   0  0  0  0  0  3  0  0  0  0  0  0
  186.1070  178.2720  136.2000 C   0  0  0  0  0  2  0  0  0  0  0  0
  188.9800  177.7120  137.4290 C   0  0  1  0  0  3  0  0  0  0  0  0
  187.1870  178.2060  141.8620 C   0  0  0  0  0  3  0  0  0  0  0  0
  187.9970  178.1750  139.5360 N   0  0  0  0  0  0  0  0  0  0  0  0
  187.9880  175.4950  137.6400 O   0  0  0  0  0  0  0  0  0  0  0  0
  187.3320  174.5650  136.8310 C   0  0  0  0  0  2  0  0  0  0  0  0
  184.5550  173.3410  135.7040 O   0  0  0  0  0  0  0  0  0  0  0  0
  185.7550  172.8560  137.6780 C   0  0  0  0  0  2  0  0  0  0  0  0
  185.9330  174.3130  137.3650 C   0  0  2  0  0  3  0  0  0  0  0  0
  184.6500  172.4130  136.7500 C   0  0  0  0  0  2  0  0  0  0  0  0
  184.9240  174.5710  136.2690 C   0  0  0  0  0  2  0  0  0  0  0  0
  1 26  1  0  0  0  0
  3  7  1  0  0  0  0
  3 16  1  1  0  0  0
  4 23  2  0  0  0  0
  5 11  1  6  0  0  0
  5 15  1  0  0  0  0
  6  7  1  0  0  0  0
  8 12  1  0  0  0  0
  9 27  1  1  0  0  0
 10 17  1  0  0  0  0
 13 24  1  6  0  0  0
 13  9  1  0  0  0  0
 13 20  1  0  0  0  0
 14  2  1  0  0  0  0
 15  4  1  0  0  0  0
 15 12  1  1  0  0  0
 16  8  1  0  0  0  0
 17 25  1  0  0  0  0
 17 28  1  1  0  0  0
 18  1  2  0  0  0  0
 18  4  1  0  0  0  0
 19  6  1  1  0  0  0
 19  3  1  0  0  0  0
 19  5  1  0  0  0  0
 20 11  1  1  0  0  0
 20 18  1  0  0  0  0
 22 10  1  0  0  0  0
 22 24  1  0  0  0  0
 23 21  1  0  0  0  0
 25  9  1  0  0  0  0
 25 14  1  1  0  0  0
 26 21  2  0  0  0  0
 27  2  1  0  0  0  0
 27  1  1  0  0  0  0
 29 28  1  0  0  0  0
 30 34  1  0  0  0  0
 30 33  1  0  0  0  0
 32 29  1  6  0  0  0
 32 31  1  0  0  0  0
 33 31  1  0  0  0  0
 34 32  1  0  0  0  0
M  END
>  <MODEL>
1

>  <REMARK>
 VINA RESULT:      -6.8      0.000      0.000
  Name = 
  3 active torsions:
  status: ('A' for Active; 'I' for Inactive)
    1  A    between atoms: C_17  and  O_28
    2  A    between atoms: O_28  and  C_29
    3  A    between atoms: C_29  and  C_32
                            x       y       z     vdW  Elec       q    Type
                         _______ _______ _______ _____ _____    ______ ____

>  <TORSDO>
F 3

$$$$
=
 OpenBabel11122412043D

 34 41  0  0  1  0  0  0  0  0999 V2000
  187.3090  178.2010  139.7980 C   0  0  0  0  0  0  0  0  0  0  0  0
  185.2130  178.8500  138.5150 C   0  0  0  0  0  2  0  0  0  0  0  0
  190.2630  177.0820  145.5860 C   0  0  2  0  0  3  0  0  0  0  0  0
  189.1050  177.2590  141.1480 C   0  0  0  0  0  0  0  0  0  0  0  0
  188.7400  176.7950  143.6130 N   0  0  1  0  0  0  0  0  0  0  0  0
  189.8470  178.8090  144.6450 C   0  0  0  0  0  2  0  0  0  0  0  0
  190.9620  178.2730  145.3200 O   0  0  0  0  0  0  0  0  0  0  0  0
  191.6980  176.0660  143.6980 C   0  0  0  0  0  2  0  0  0  0  0  0
  185.3020  179.2640  140.9010 C   0  0  2  0  0  3  0  0  0  0  0  0
  182.6080  178.2470  142.4550 C   0  0  0  0  0  2  0  0  0  0  0  0
  187.3200  176.9710  143.2750 C   0  0  0  0  0  2  0  0  0  0  0  0
  190.7460  175.9010  142.5230 C   0  0  0  0  0  2  0  0  0  0  0  0
  185.5750  178.3300  142.0980 C   0  0  1  0  0  3  0  0  0  0  0  0
  183.8610  179.4000  138.9350 C   0  0  0  0  0  2  0  0  0  0  0  0
  189.7160  177.0210  142.5150 C   0  0  1  0  0  3  0  0  0  0  0  0
  190.9900  175.8390  145.0330 C   0  0  0  0  0  2  0  0  0  0  0  0
  182.9270  178.2020  140.9500 C   0  0  1  0  0  3  0  0  0  0  0  0
  187.8380  177.8560  141.0560 C   0  0  0  0  0  0  0  0  0  0  0  0
  189.0230  177.5520  144.8480 C   0  0  2  0  0  3  0  0  0  0  0  0
  187.0830  178.1440  142.3250 C   0  0  2  0  0  3  0  0  0  0  0  0
  189.3060  177.3380  138.7270 C   0  0  0  0  0  3  0  0  0  0  0  0
  183.4510  179.2460  143.2510 C   0  0  0  0  0  2  0  0  0  0  0  0
  189.8410  177.0210  139.9770 C   0  0  0  0  0  3  0  0  0  0  0  0
  184.9150  178.8230  143.3950 C   0  0  0  0  0  2  0  0  0  0  0  0
  183.8310  179.3580  140.4590 C   0  0  1  0  0  3  0  0  0  0  0  0
  188.0420  177.9240  138.6370 C   0  0  0  0  0  3  0  0  0  0  0  0
  186.0170  178.8130  139.7210 N   0  0  0  0  0  0  0  0  0  0  0  0
  183.4650  176.9530  140.6160 O   0  0  0  0  0  0  0  0  0  0  0  0
  182.3950  176.2200  140.1000 C   0  0  0  0  0  2  0  0  0  0  0  0
  183.1080  174.2420  137.6370 O   0  0  0  0  0  0  0  0  0  0  0  0
  181.2040  175.5840  138.0250 C   0  0  0  0  0  2  0  0  0  0  0  0
  182.4030  176.2950  138.5830 C   0  0  2  0  0  3  0  0  0  0  0  0
  181.7910  174.4600  137.2060 C   0  0  0  0  0  2  0  0  0  0  0  0
  183.5730  175.5010  138.0470 C   0  0  0  0  0  2  0  0  0  0  0  0
  1 18  1  0  0  0  0
  2 14  1  0  0  0  0
  2 27  1  0  0  0  0
  3 16  1  6  0  0  0
  4 15  1  0  0  0  0
  5 11  1  6  0  0  0
  5 19  1  0  0  0  0
  6  7  1  0  0  0  0
  7  3  1  0  0  0  0
  8 16  1  0  0  0  0
  9 27  1  6  0  0  0
  9 13  1  0  0  0  0
 10 22  1  0  0  0  0
 12  8  1  0  0  0  0
 13 20  1  0  0  0  0
 13 24  1  1  0  0  0
 15 12  1  6  0  0  0
 15  5  1  0  0  0  0
 17 28  1  1  0  0  0
 17 10  1  0  0  0  0
 18  4  2  0  0  0  0
 18 20  1  0  0  0  0
 19  6  1  6  0  0  0
 19  3  1  0  0  0  0
 20 11  1  1  0  0  0
 21 23  2  0  0  0  0
 22 24  1  0  0  0  0
 23  4  1  0  0  0  0
 25 14  1  6  0  0  0
 25  9  1  0  0  0  0
 25 17  1  0  0  0  0
 26 21  1  0  0  0  0
 26  1  2  0  0  0  0
 27  1  1  0  0  0  0
 29 28  1  0  0  0  0
 30 34  1  0  0  0  0
 31 32  1  0  0  0  0
 32 29  1  1  0  0  0
 33 30  1  0  0  0  0
 33 31  1  0  0  0  0
 34 32  1  0  0  0  0
M  END
>  <MODEL>
2

>  <REMARK>
 VINA RESULT:      -6.8      3.059      6.992
  Name = 
  3 active torsions:
  status: ('A' for Active; 'I' for Inactive)
    1  A    between atoms: C_17  and  O_28
    2  A    between atoms: O_28  and  C_29
    3  A    between atoms: C_29  and  C_32
                            x       y       z     vdW  Elec       q    Type
                         _______ _______ _______ _____ _____    ______ ____

>  <TORSDO>
F 3

$$$$
=
 OpenBabel11122412043D

 34 41  0  0  1  0  0  0  0  0999 V2000
  185.2720  178.5390  140.1750 C   0  0  0  0  0  0  0  0  0  0  0  0
  187.0050  177.8980  138.4290 C   0  0  0  0  0  2  0  0  0  0  0  0
  178.9310  179.2690  141.8270 C   0  0  2  0  0  3  0  0  0  0  0  0
  183.4930  178.7690  141.8230 C   0  0  0  0  0  0  0  0  0  0  0  0
  181.1050  178.1770  141.2150 N   0  0  1  0  0  0  0  0  0  0  0  0
  180.1480  180.4640  140.7640 C   0  0  0  0  0  2  0  0  0  0  0  0
  179.2080  180.6480  141.7990 O   0  0  0  0  0  0  0  0  0  0  0  0
  180.3610  179.2370  143.9730 C   0  0  0  0  0  2  0  0  0  0  0  0
  184.7200  178.2880  137.7230 C   0  0  2  0  0  3  0  0  0  0  0  0
  183.5920  175.9310  135.7540 C   0  0  0  0  0  2  0  0  0  0  0  0
  181.7280  177.5250  140.0540 C   0  0  0  0  0  2  0  0  0  0  0  0
  181.6660  178.5670  143.5690 C   0  0  0  0  0  2  0  0  0  0  0  0
  183.3820  177.6680  138.1770 C   0  0  1  0  0  3  0  0  0  0  0  0
  186.9260  177.5920  136.9430 C   0  0  0  0  0  2  0  0  0  0  0  0
  182.0150  178.9140  142.1290 C   0  0  1  0  0  3  0  0  0  0  0  0
  179.1680  178.6500  143.2200 C   0  0  0  0  0  2  0  0  0  0  0  0
  184.9890  176.0740  136.3830 C   0  0  1  0  0  3  0  0  0  0  0  0
  183.9020  178.5500  140.4980 C   0  0  0  0  0  0  0  0  0  0  0  0
  179.9470  178.9610  140.7430 C   0  0  2  0  0  3  0  0  0  0  0  0
  182.8480  178.3620  139.4410 C   0  0  2  0  0  3  0  0  0  0  0  0
  185.8200  178.9490  142.5000 C   0  0  0  0  0  3  0  0  0  0  0  0
  182.7850  177.2300  135.7020 C   0  0  0  0  0  2  0  0  0  0  0  0
  184.4600  178.9860  142.8160 C   0  0  0  0  0  3  0  0  0  0  0  0
  182.3100  177.7040  137.0770 C   0  0  0  0  0  2  0  0  0  0  0  0
  185.4430  177.5390  136.5900 C   0  0  1  0  0  3  0  0  0  0  0  0
  186.2250  178.7230  141.1830 C   0  0  0  0  0  3  0  0  0  0  0  0
  185.6730  178.3180  138.8170 N   0  0  0  0  0  0  0  0  0  0  0  0
  185.0500  175.3440  137.5760 O   0  0  0  0  0  0  0  0  0  0  0  0
  184.1740  174.2730  137.3940 C   0  0  0  0  0  2  0  0  0  0  0  0
  185.1100  171.7100  135.6510 O   0  0  0  0  0  0  0  0  0  0  0  0
  186.3190  173.0590  137.1650 C   0  0  0  0  0  2  0  0  0  0  0  0
  184.9010  172.9630  137.6480 C   0  0  2  0  0  3  0  0  0  0  0  0
  186.4100  172.0110  136.0820 C   0  0  0  0  0  2  0  0  0  0  0  0
  184.2990  171.8800  136.7830 C   0  0  0  0  0  2  0  0  0  0  0  0
  1 18  2  0  0  0  0
  1 26  1  0  0  0  0
  2 27  1  0  0  0  0
  3 16  1  1  0  0  0
  4 15  1  0  0  0  0
  4 23  2  0  0  0  0
  5 11  1  6  0  0  0
  5 15  1  0  0  0  0
  6  7  1  0  0  0  0
  7  3  1  0  0  0  0
  9 13  1  0  0  0  0
  9 27  1  1  0  0  0
 10 17  1  0  0  0  0
 12  8  1  0  0  0  0
 13 24  1  6  0  0  0
 13 20  1  0  0  0  0
 14  2  1  0  0  0  0
 15 12  1  1  0  0  0
 16  8  1  0  0  0  0
 17 25  1  0  0  0  0
 17 28  1  1  0  0  0
 18  4  1  0  0  0  0
 19  6  1  1  0  0  0
 19  5  1  0  0  0  0
 19  3  1  0  0  0  0
 20 11  1  1  0  0  0
 20 18  1  0  0  0  0
 21 23  1  0  0  0  0
 22 10  1  0  0  0  0
 22 24  1  0  0  0  0
 25 14  1  1  0  0  0
 25  9  1  0  0  0  0
 26 21  2  0  0  0  0
 27  1  1  0  0  0  0
 29 28  1  0  0  0  0
 30 33  1  0  0  0  0
 30 34  1  0  0  0  0
 31 32  1  0  0  0  0
 32 29  1  6  0  0  0
 33 31  1  0  0  0  0
 34 32  1  0  0  0  0
M  END
>  <MODEL>
3

>  <REMARK>
 VINA RESULT:      -6.5      1.767      2.835
  Name = 
  3 active torsions:
  status: ('A' for Active; 'I' for Inactive)
    1  A    between atoms: C_17  and  O_28
    2  A    between atoms: O_28  and  C_29
    3  A    between atoms: C_29  and  C_32
                            x       y       z     vdW  Elec       q    Type
                         _______ _______ _______ _____ _____    ______ ____

>  <TORSDO>
F 3

$$$$
=
 OpenBabel11122412043D

 34 41  0  0  1  0  0  0  0  0999 V2000
  186.5540  178.6190  141.1740 C   0  0  0  0  0  0  0  0  0  0  0  0
  185.2350  178.8740  139.0160 C   0  0  0  0  0  2  0  0  0  0  0  0
  186.5750  178.1000  147.7470 C   0  0  2  0  0  3  0  0  0  0  0  0
  187.6250  178.0230  143.2790 C   0  0  0  0  0  0  0  0  0  0  0  0
  186.2200  177.5280  145.3300 N   0  0  1  0  0  0  0  0  0  0  0  0
  186.3950  179.7170  146.5660 C   0  0  0  0  0  2  0  0  0  0  0  0
  187.1290  179.3930  147.7250 O   0  0  0  0  0  0  0  0  0  0  0  0
  188.8630  177.3320  146.8340 C   0  0  0  0  0  2  0  0  0  0  0  0
  184.1290  179.3240  141.1260 C   0  0  2  0  0  3  0  0  0  0  0  0
  181.2100  177.8650  141.3510 C   0  0  0  0  0  2  0  0  0  0  0  0
  185.1170  177.4480  144.3620 C   0  0  0  0  0  2  0  0  0  0  0  0
  188.6120  176.9900  145.3740 C   0  0  0  0  0  2  0  0  0  0  0  0
  183.9460  178.4650  142.3940 C   0  0  1  0  0  3  0  0  0  0  0  0
  183.7780  179.1830  138.7140 C   0  0  0  0  0  2  0  0  0  0  0  0
  187.5500  177.9110  144.7900 C   0  0  1  0  0  3  0  0  0  0  0  0
  187.6540  176.9990  147.7080 C   0  0  0  0  0  2  0  0  0  0  0  0
  182.2010  177.8600  140.1740 C   0  0  1  0  0  3  0  0  0  0  0  0
  186.4760  178.3860  142.5600 C   0  0  0  0  0  0  0  0  0  0  0  0
  185.7730  178.3360  146.4810 C   0  0  2  0  0  3  0  0  0  0  0  0
  185.1800  178.5500  143.3070 C   0  0  2  0  0  3  0  0  0  0  0  0
  188.9240  178.1100  141.2270 C   0  0  0  0  0  3  0  0  0  0  0  0
  181.4190  179.0050  142.3510 C   0  0  0  0  0  2  0  0  0  0  0  0
  188.8500  177.9050  142.6060 C   0  0  0  0  0  3  0  0  0  0  0  0
  182.6890  178.8490  143.1900 C   0  0  0  0  0  2  0  0  0  0  0  0
  183.0430  179.1520  140.0500 C   0  0  1  0  0  3  0  0  0  0  0  0
  187.7780  178.4630  140.5120 C   0  0  0  0  0  3  0  0  0  0  0  0
  185.3730  178.9930  140.4550 N   0  0  0  0  0  0  0  0  0  0  0  0
  183.0130  176.7220  140.2410 O   0  0  0  0  0  0  0  0  0  0  0  0
  182.2610  175.7000  139.6590 C   0  0  0  0  0  2  0  0  0  0  0  0
  183.9160  174.0730  137.4020 O   0  0  0  0  0  0  0  0  0  0  0  0
  181.6250  174.6320  137.5190 C   0  0  0  0  0  2  0  0  0  0  0  0
  182.4140  175.7430  138.1490 C   0  0  2  0  0  3  0  0  0  0  0  0
  182.6680  173.7850  136.8310 C   0  0  0  0  0  2  0  0  0  0  0  0
  183.8450  175.4220  137.7800 C   0  0  0  0  0  2  0  0  0  0  0  0
  1 18  1  0  0  0  0
  2 27  1  0  0  0  0
  3 16  1  6  0  0  0
  4 15  1  0  0  0  0
  5 11  1  6  0  0  0
  5 19  1  0  0  0  0
  6  7  1  0  0  0  0
  7  3  1  0  0  0  0
  8 16  1  0  0  0  0
  9 27  1  6  0  0  0
  9 13  1  0  0  0  0
 10 22  1  0  0  0  0
 12  8  1  0  0  0  0
 13 24  1  1  0  0  0
 13 20  1  0  0  0  0
 14  2  1  0  0  0  0
 15  5  1  0  0  0  0
 15 12  1  6  0  0  0
 17 28  1  1  0  0  0
 17 10  1  0  0  0  0
 18  4  2  0  0  0  0
 18 20  1  0  0  0  0
 19  6  1  6  0  0  0
 19  3  1  0  0  0  0
 20 11  1  1  0  0  0
 21 23  2  0  0  0  0
 22 24  1  0  0  0  0
 23  4  1  0  0  0  0
 25 14  1  6  0  0  0
 25 17  1  0  0  0  0
 25  9  1  0  0  0  0
 26  1  2  0  0  0  0
 26 21  1  0  0  0  0
 27  1  1  0  0  0  0
 29 28  1  0  0  0  0
 30 34  1  0  0  0  0
 31 32  1  0  0  0  0
 32 29  1  1  0  0  0
 33 30  1  0  0  0  0
 33 31  1  0  0  0  0
 34 32  1  0  0  0  0
M  END
>  <MODEL>
4

>  <REMARK>
 VINA RESULT:      -6.5      3.359      6.527
  Name = 
  3 active torsions:
  status: ('A' for Active; 'I' for Inactive)
    1  A    between atoms: C_17  and  O_28
    2  A    between atoms: O_28  and  C_29
    3  A    between atoms: C_29  and  C_32
                            x       y       z     vdW  Elec       q    Type
                         _______ _______ _______ _____ _____    ______ ____

>  <TORSDO>
F 3

$$$$
=
 OpenBabel11122412043D

 34 41  0  0  1  0  0  0  0  0999 V2000
  183.9400  178.5010  141.0680 C   0  0  0  0  0  0  0  0  0  0  0  0
  181.4950  179.0060  141.5460 C   0  0  0  0  0  2  0  0  0  0  0  0
  188.6380  176.9860  136.6980 C   0  0  2  0  0  3  0  0  0  0  0  0
  186.2740  178.3530  140.3870 C   0  0  0  0  0  0  0  0  0  0  0  0
  186.8840  178.2910  137.9270 N   0  0  1  0  0  0  0  0  0  0  0  0
  187.2650  175.8230  137.5930 C   0  0  0  0  0  2  0  0  0  0  0  0
  188.6460  175.7270  137.3260 O   0  0  0  0  0  0  0  0  0  0  0  0
  189.7480  177.8400  138.8650 C   0  0  0  0  0  2  0  0  0  0  0  0
  182.0910  178.0100  139.4190 C   0  0  2  0  0  3  0  0  0  0  0  0
  180.6840  179.5230  136.8830 C   0  0  0  0  0  2  0  0  0  0  0  0
  185.4960  178.7370  137.7330 C   0  0  0  0  0  2  0  0  0  0  0  0
  188.6620  178.6280  139.5810 C   0  0  0  0  0  2  0  0  0  0  0  0
  183.0770  178.4510  138.3170 C   0  0  1  0  0  3  0  0  0  0  0  0
  180.2260  178.9040  140.7160 C   0  0  0  0  0  2  0  0  0  0  0  0
  187.2980  178.0030  139.3250 C   0  0  1  0  0  3  0  0  0  0  0  0
  189.6320  177.9710  137.3470 C   0  0  0  0  0  2  0  0  0  0  0  0
  180.5350  179.8210  138.3850 C   0  0  1  0  0  3  0  0  0  0  0  0
  184.9080  178.3040  140.0660 C   0  0  0  0  0  0  0  0  0  0  0  0
  187.1620  177.2020  136.9710 C   0  0  2  0  0  3  0  0  0  0  0  0
  184.5120  178.0080  138.6450 C   0  0  2  0  0  3  0  0  0  0  0  0
  185.7020  178.8090  142.7040 C   0  0  0  0  0  3  0  0  0  0  0  0
  181.2080  178.1210  136.5630 C   0  0  0  0  0  2  0  0  0  0  0  0
  186.6620  178.5870  141.7140 C   0  0  0  0  0  3  0  0  0  0  0  0
  182.6810  177.9280  136.9270 C   0  0  0  0  0  2  0  0  0  0  0  0
  180.6650  178.5740  139.2930 C   0  0  1  0  0  3  0  0  0  0  0  0
  184.3440  178.7690  142.3820 C   0  0  0  0  0  3  0  0  0  0  0  0
  182.5500  178.4450  140.7250 N   0  0  0  0  0  0  0  0  0  0  0  0
  181.4330  180.8260  138.7620 O   0  0  0  0  0  0  0  0  0  0  0  0
  181.5340  181.6620  137.6480 C   0  0  0  0  0  2  0  0  0  0  0  0
  181.5560  184.6280  136.3480 O   0  0  0  0  0  0  0  0  0  0  0  0
  179.7530  183.2780  137.0610 C   0  0  0  0  0  2  0  0  0  0  0  0
  180.9240  183.0170  137.9640 C   0  0  2  0  0  3  0  0  0  0  0  0
  180.1600  184.5030  136.2770 C   0  0  0  0  0  2  0  0  0  0  0  0
  181.9080  184.1070  137.6020 C   0  0  0  0  0  2  0  0  0  0  0  0
  1 26  1  0  0  0  0
  3 19  1  0  0  0  0
  3  7  1  0  0  0  0
  3 16  1  1  0  0  0
  4 23  2  0  0  0  0
  5 11  1  1  0  0  0
  5 15  1  0  0  0  0
  7  6  1  0  0  0  0
  8 12  1  0  0  0  0
  9 27  1  1  0  0  0
 10 17  1  0  0  0  0
 13 24  1  6  0  0  0
 13 20  1  0  0  0  0
 13  9  1  0  0  0  0
 14  2  1  0  0  0  0
 15 12  1  1  0  0  0
 15  4  1  0  0  0  0
 16  8  1  0  0  0  0
 17 28  1  1  0  0  0
 17 25  1  0  0  0  0
 18  4  1  0  0  0  0
 18  1  2  0  0  0  0
 19  6  1  1  0  0  0
 19  5  1  0  0  0  0
 20 11  1  6  0  0  0
 20 18  1  0  0  0  0
 22 10  1  0  0  0  0
 22 24  1  0  0  0  0
 23 21  1  0  0  0  0
 25  9  1  0  0  0  0
 25 14  1  1  0  0  0
 26 21  2  0  0  0  0
 27  1  1  0  0  0  0
 27  2  1  0  0  0  0
 29 28  1  0  0  0  0
 30 34  1  0  0  0  0
 31 32  1  0  0  0  0
 32 29  1  6  0  0  0
 33 30  1  0  0  0  0
 33 31  1  0  0  0  0
 34 32  1  0  0  0  0
M  END
>  <MODEL>
5

>  <REMARK>
 VINA RESULT:      -6.4      1.869      7.396
  Name = 
  3 active torsions:
  status: ('A' for Active; 'I' for Inactive)
    1  A    between atoms: C_17  and  O_28
    2  A    between atoms: O_28  and  C_29
    3  A    between atoms: C_29  and  C_32
                            x       y       z     vdW  Elec       q    Type
                         _______ _______ _______ _____ _____    ______ ____

>  <TORSDO>
F 3

$$$$
=
 OpenBabel11122412043D

 34 41  0  0  1  0  0  0  0  0999 V2000
  187.9060  178.0450  140.0950 C   0  0  0  0  0  0  0  0  0  0  0  0
  187.9630  177.8930  137.5590 C   0  0  0  0  0  2  0  0  0  0  0  0
  184.4240  178.9840  145.6150 C   0  0  2  0  0  3  0  0  0  0  0  0
  187.6120  177.8680  142.5070 C   0  0  0  0  0  0  0  0  0  0  0  0
  185.2870  177.9150  143.5160 N   0  0  1  0  0  0  0  0  0  0  0  0
  185.1530  180.3090  144.2910 C   0  0  0  0  0  2  0  0  0  0  0  0
  185.1130  180.2080  145.6960 O   0  0  0  0  0  0  0  0  0  0  0  0
  186.6890  177.9090  146.2210 C   0  0  0  0  0  2  0  0  0  0  0  0
  186.0150  178.8550  138.6310 C   0  0  2  0  0  3  0  0  0  0  0  0
  183.2090  177.6460  137.4610 C   0  0  0  0  0  2  0  0  0  0  0  0
  184.8520  177.6850  142.1300 C   0  0  0  0  0  2  0  0  0  0  0  0
  187.1810  177.2680  144.9330 C   0  0  0  0  0  2  0  0  0  0  0  0
  185.0600  178.3080  139.7120 C   0  0  1  0  0  3  0  0  0  0  0  0
  186.9500  178.2070  136.4710 C   0  0  0  0  0  2  0  0  0  0  0  0
  186.7460  178.0960  143.7310 C   0  0  1  0  0  3  0  0  0  0  0  0
  185.1670  177.8430  146.3390 C   0  0  0  0  0  2  0  0  0  0  0  0
  184.6510  177.3270  137.0270 C   0  0  1  0  0  3  0  0  0  0  0  0
  187.0820  178.1280  141.2340 C   0  0  0  0  0  0  0  0  0  0  0  0
  184.4470  178.9800  144.0980 C   0  0  2  0  0  3  0  0  0  0  0  0
  185.6340  178.5230  141.1220 C   0  0  2  0  0  3  0  0  0  0  0  0
  189.7810  177.4300  141.5040 C   0  0  0  0  0  3  0  0  0  0  0  0
  183.0530  178.9640  138.2220 C   0  0  0  0  0  2  0  0  0  0  0  0
  188.9690  177.5380  142.6350 C   0  0  0  0  0  3  0  0  0  0  0  0
  183.6560  178.9260  139.6280 C   0  0  0  0  0  2  0  0  0  0  0  0
  185.6340  178.5120  137.1800 C   0  0  1  0  0  3  0  0  0  0  0  0
  189.2510  177.6800  140.2370 C   0  0  0  0  0  3  0  0  0  0  0  0
  187.3510  178.3160  138.8030 N   0  0  0  0  0  0  0  0  0  0  0  0
  185.1090  176.1890  137.7000 O   0  0  0  0  0  0  0  0  0  0  0  0
  184.7940  175.1170  136.8630 C   0  0  0  0  0  2  0  0  0  0  0  0
  182.9880  172.5140  136.1960 O   0  0  0  0  0  0  0  0  0  0  0  0
  184.8380  172.7680  137.6420 C   0  0  0  0  0  2  0  0  0  0  0  0
  184.0540  174.0480  137.6490 C   0  0  2  0  0  3  0  0  0  0  0  0
  183.9320  171.7870  136.9360 C   0  0  0  0  0  2  0  0  0  0  0  0
  182.7750  173.6910  136.9280 C   0  0  0  0  0  2  0  0  0  0  0  0
  1 26  2  0  0  0  0
  1 18  1  0  0  0  0
  2 27  1  0  0  0  0
  3  7  1  0  0  0  0
  3 16  1  1  0  0  0
  4 23  1  0  0  0  0
  4 15  1  0  0  0  0
  5 11  1  6  0  0  0
  5 15  1  0  0  0  0
  5 19  1  0  0  0  0
  6  7  1  0  0  0  0
  8 16  1  0  0  0  0
  9 27  1  1  0  0  0
  9 13  1  0  0  0  0
 10 22  1  0  0  0  0
 12  8  1  0  0  0  0
 13 24  1  1  0  0  0
 13 20  1  0  0  0  0
 14  2  1  0  0  0  0
 15 12  1  1  0  0  0
 17 25  1  0  0  0  0
 17 10  1  0  0  0  0
 17 28  1  1  0  0  0
 18  4  2  0  0  0  0
 19  6  1  1  0  0  0
 19  3  1  0  0  0  0
 20 18  1  0  0  0  0
 20 11  1  1  0  0  0
 21 23  2  0  0  0  0
 22 24  1  0  0  0  0
 25 14  1  6  0  0  0
 25  9  1  0  0  0  0
 26 21  1  0  0  0  0
 27  1  1  0  0  0  0
 29 28  1  0  0  0  0
 30 34  1  0  0  0  0
 30 33  1  0  0  0  0
 31 32  1  0  0  0  0
 32 29  1  6  0  0  0
 33 31  1  0  0  0  0
 34 32  1  0  0  0  0
M  END
>  <MODEL>
6

>  <REMARK>
 VINA RESULT:      -6.1      2.337      4.435
  Name = 
  3 active torsions:
  status: ('A' for Active; 'I' for Inactive)
    1  A    between atoms: C_17  and  O_28
    2  A    between atoms: O_28  and  C_29
    3  A    between atoms: C_29  and  C_32
                            x       y       z     vdW  Elec       q    Type
                         _______ _______ _______ _____ _____    ______ ____

>  <TORSDO>
F 3

$$$$
=
 OpenBabel11122412043D

 34 41  0  0  1  0  0  0  0  0999 V2000
  185.8060  177.0860  136.9160 C   0  0  0  0  0  0  0  0  0  0  0  0
  187.5520  178.8940  137.2960 C   0  0  0  0  0  2  0  0  0  0  0  0
  184.3990  170.7270  135.8940 C   0  0  2  0  0  3  0  0  0  0  0  0
  184.2620  175.2030  136.9010 C   0  0  0  0  0  0  0  0  0  0  0  0
  185.1420  172.8290  137.0420 N   0  0  1  0  0  0  0  0  0  0  0  0
  185.0440  172.1410  134.6200 C   0  0  0  0  0  2  0  0  0  0  0  0
  184.0540  171.1380  134.5940 O   0  0  0  0  0  0  0  0  0  0  0  0
  182.2530  171.9560  136.6260 C   0  0  0  0  0  2  0  0  0  0  0  0
  188.2680  176.7270  136.4800 C   0  0  2  0  0  3  0  0  0  0  0  0
  190.8410  175.5520  138.1240 C   0  0  0  0  0  2  0  0  0  0  0  0
  186.3940  173.4850  137.4510 C   0  0  0  0  0  2  0  0  0  0  0  0
  182.7380  173.2200  137.3200 C   0  0  0  0  0  2  0  0  0  0  0  0
  188.0680  175.3020  137.0360 C   0  0  1  0  0  3  0  0  0  0  0  0
  189.0690  178.9150  137.2090 C   0  0  0  0  0  2  0  0  0  0  0  0
  184.0170  173.7240  136.6670 C   0  0  1  0  0  3  0  0  0  0  0  0
  183.2020  170.7820  136.8640 C   0  0  0  0  0  2  0  0  0  0  0  0
  190.1150  176.8970  138.3050 C   0  0  1  0  0  3  0  0  0  0  0  0
  185.5720  175.7010  136.8270 C   0  0  0  0  0  0  0  0  0  0  0  0
  185.4640  171.7980  136.0360 C   0  0  2  0  0  3  0  0  0  0  0  0
  186.7030  174.7300  136.6230 C   0  0  2  0  0  3  0  0  0  0  0  0
  183.4250  177.4690  137.1660 C   0  0  0  0  0  3  0  0  0  0  0  0
  190.6040  174.8810  136.7690 C   0  0  0  0  0  2  0  0  0  0  0  0
  183.1920  176.0970  137.0520 C   0  0  0  0  0  3  0  0  0  0  0  0
  189.1840  174.3380  136.6030 C   0  0  0  0  0  2  0  0  0  0  0  0
  189.5110  177.4700  137.0010 C   0  0  1  0  0  3  0  0  0  0  0  0
  184.7300  177.9620  137.1010 C   0  0  0  0  0  3  0  0  0  0  0  0
  187.1490  177.5800  136.8350 N   0  0  0  0  0  0  0  0  0  0  0  0
  189.1490  176.7830  139.3120 O   0  0  0  0  0  0  0  0  0  0  0  0
  189.6190  177.5740  140.3620 C   0  0  0  0  0  2  0  0  0  0  0  0
  190.4270  178.0380  143.4630 O   0  0  0  0  0  0  0  0  0  0  0  0
  188.7070  176.7340  142.5040 C   0  0  0  0  0  2  0  0  0  0  0  0
  189.8900  176.7080  141.5790 C   0  0  2  0  0  3  0  0  0  0  0  0
  189.2480  177.3460  143.7740 C   0  0  0  0  0  2  0  0  0  0  0  0
  191.0000  177.3260  142.3980 C   0  0  0  0  0  2  0  0  0  0  0  0
  1 26  1  0  0  0  0
  3 19  1  0  0  0  0
  3 16  1  1  0  0  0
  4 23  2  0  0  0  0
  5 11  1  6  0  0  0
  7  6  1  0  0  0  0
  7  3  1  0  0  0  0
  8 16  1  0  0  0  0
  8 12  1  0  0  0  0
  9 27  1  1  0  0  0
  9 25  1  0  0  0  0
  9 13  1  0  0  0  0
 10 17  1  0  0  0  0
 13 24  1  6  0  0  0
 14  2  1  0  0  0  0
 15  4  1  0  0  0  0
 15  5  1  0  0  0  0
 15 12  1  1  0  0  0
 17 28  1  1  0  0  0
 18  4  1  0  0  0  0
 18  1  2  0  0  0  0
 19  6  1  6  0  0  0
 19  5  1  0  0  0  0
 20 18  1  0  0  0  0
 20 13  1  0  0  0  0
 20 11  1  1  0  0  0
 22 10  1  0  0  0  0
 23 21  1  0  0  0  0
 24 22  1  0  0  0  0
 25 14  1  1  0  0  0
 25 17  1  0  0  0  0
 26 21  2  0  0  0  0
 27  1  1  0  0  0  0
 27  2  1  0  0  0  0
 28 29  1  0  0  0  0
 30 33  1  0  0  0  0
 31 33  1  0  0  0  0
 32 29  1  6  0  0  0
 32 34  1  0  0  0  0
 32 31  1  0  0  0  0
 34 30  1  0  0  0  0
M  END
>  <MODEL>
7

>  <REMARK>
 VINA RESULT:      -6.0      3.105      6.463
  Name = 
  3 active torsions:
  status: ('A' for Active; 'I' for Inactive)
    1  A    between atoms: C_17  and  O_28
    2  A    between atoms: O_28  and  C_29
    3  A    between atoms: C_29  and  C_32
                            x       y       z     vdW  Elec       q    Type
                         _______ _______ _______ _____ _____    ______ ____

>  <TORSDO>
F 3

$$$$
=
 OpenBabel11122412043D

 34 41  0  0  1  0  0  0  0  0999 V2000
  183.3060  175.0330  137.6640 C   0  0  0  0  0  0  0  0  0  0  0  0
  180.9040  175.1310  138.4900 C   0  0  0  0  0  2  0  0  0  0  0  0
  188.7990  178.2210  135.8960 C   0  0  2  0  0  3  0  0  0  0  0  0
  185.7010  175.1070  137.2260 C   0  0  0  0  0  0  0  0  0  0  0  0
  186.9490  177.3120  137.3240 N   0  0  1  0  0  0  0  0  0  0  0  0
  187.1020  177.8810  134.8750 C   0  0  0  0  0  2  0  0  0  0  0  0
  188.4810  177.7960  134.5940 O   0  0  0  0  0  0  0  0  0  0  0  0
  189.3690  175.7450  136.3390 C   0  0  0  0  0  2  0  0  0  0  0  0
  181.9340  177.1530  137.6380 C   0  0  2  0  0  3  0  0  0  0  0  0
  181.4690  179.7260  139.6050 C   0  0  0  0  0  2  0  0  0  0  0  0
  185.7320  177.7900  137.9980 C   0  0  0  0  0  2  0  0  0  0  0  0
  188.2340  175.2270  137.2080 C   0  0  0  0  0  2  0  0  0  0  0  0
  183.2290  177.8920  138.0320 C   0  0  1  0  0  3  0  0  0  0  0  0
  179.9080  176.2640  138.6720 C   0  0  0  0  0  2  0  0  0  0  0  0
  186.9260  175.9090  136.8320 C   0  0  1  0  0  3  0  0  0  0  0  0
  189.6900  177.2080  136.6430 C   0  0  0  0  0  2  0  0  0  0  0  0
  180.9530  178.2850  139.7660 C   0  0  1  0  0  3  0  0  0  0  0  0
  184.4800  175.7710  137.4230 C   0  0  0  0  0  0  0  0  0  0  0  0
  187.3420  178.3090  136.3100 C   0  0  2  0  0  3  0  0  0  0  0  0
  184.4550  177.2730  137.3410 C   0  0  2  0  0  3  0  0  0  0  0  0
  184.5770  172.9730  137.5240 C   0  0  0  0  0  3  0  0  0  0  0  0
  181.8860  180.0950  138.1790 C   0  0  0  0  0  2  0  0  0  0  0  0
  185.7370  173.7050  137.2590 C   0  0  0  0  0  3  0  0  0  0  0  0
  183.1680  179.3960  137.7230 C   0  0  0  0  0  2  0  0  0  0  0  0
  180.6760  177.5590  138.4270 C   0  0  1  0  0  3  0  0  0  0  0  0
  183.3650  173.6350  137.7290 C   0  0  0  0  0  3  0  0  0  0  0  0
  182.0670  175.7250  137.8600 N   0  0  0  0  0  0  0  0  0  0  0  0
  181.8300  177.5540  140.5750 O   0  0  0  0  0  0  0  0  0  0  0  0
  182.3140  178.4690  141.5110 C   0  0  0  0  0  2  0  0  0  0  0  0
  185.2400  179.7720  141.9880 O   0  0  0  0  0  0  0  0  0  0  0  0
  183.8690  178.5060  143.4360 C   0  0  0  0  0  2  0  0  0  0  0  0
  183.6630  178.0070  142.0350 C   0  0  2  0  0  3  0  0  0  0  0  0
  185.0800  179.4020  143.3320 C   0  0  0  0  0  2  0  0  0  0  0  0
  184.7640  178.6800  141.2480 C   0  0  0  0  0  2  0  0  0  0  0  0
  1 26  1  0  0  0  0
  1 27  1  0  0  0  0
  2 14  1  0  0  0  0
  3 19  1  0  0  0  0
  3 16  1  1  0  0  0
  4 23  2  0  0  0  0
  4 18  1  0  0  0  0
  5 11  1  6  0  0  0
  7  6  1  0  0  0  0
  7  3  1  0  0  0  0
  8 16  1  0  0  0  0
  8 12  1  0  0  0  0
  9 27  1  1  0  0  0
  9 13  1  0  0  0  0
  9 25  1  0  0  0  0
 10 17  1  0  0  0  0
 13 24  1  6  0  0  0
 15 12  1  1  0  0  0
 15  4  1  0  0  0  0
 15  5  1  0  0  0  0
 17 28  1  6  0  0  0
 18  1  2  0  0  0  0
 19  6  1  6  0  0  0
 19  5  1  0  0  0  0
 20 18  1  0  0  0  0
 20 11  1  1  0  0  0
 20 13  1  0  0  0  0
 21 26  2  0  0  0  0
 22 10  1  0  0  0  0
 23 21  1  0  0  0  0
 24 22  1  0  0  0  0
 25 14  1  1  0  0  0
 25 17  1  0  0  0  0
 27  2  1  0  0  0  0
 28 29  1  0  0  0  0
 30 33  1  0  0  0  0
 32 29  1  6  0  0  0
 32 31  1  0  0  0  0
 33 31  1  0  0  0  0
 34 30  1  0  0  0  0
 34 32  1  0  0  0  0
M  END
>  <MODEL>
8

>  <REMARK>
 VINA RESULT:      -5.7      2.062      7.247
  Name = 
  3 active torsions:
  status: ('A' for Active; 'I' for Inactive)
    1  A    between atoms: C_17  and  O_28
    2  A    between atoms: O_28  and  C_29
    3  A    between atoms: C_29  and  C_32
                            x       y       z     vdW  Elec       q    Type
                         _______ _______ _______ _____ _____    ______ ____

>  <TORSDO>
F 3

$$$$
=
 OpenBabel11122412043D

 34 41  0  0  1  0  0  0  0  0999 V2000
  187.9550  177.0950  138.3490 C   0  0  0  0  0  0  0  0  0  0  0  0
  186.9120  178.4890  140.2010 C   0  0  0  0  0  2  0  0  0  0  0  0
  193.2620  174.0630  135.8760 C   0  0  2  0  0  3  0  0  0  0  0  0
  189.0090  175.4810  136.8590 C   0  0  0  0  0  0  0  0  0  0  0  0
  191.3230  174.5860  137.3790 N   0  0  1  0  0  0  0  0  0  0  0  0
  192.7360  176.0020  135.8470 C   0  0  0  0  0  2  0  0  0  0  0  0
  193.2420  175.0820  134.9060 O   0  0  0  0  0  0  0  0  0  0  0  0
  191.1530  173.1760  134.6830 C   0  0  0  0  0  2  0  0  0  0  0  0
  189.3270  178.3350  140.0690 C   0  0  2  0  0  3  0  0  0  0  0  0
  190.7050  177.6700  142.9610 C   0  0  0  0  0  2  0  0  0  0  0  0
  191.0760  175.1640  138.7080 C   0  0  0  0  0  2  0  0  0  0  0  0
  190.0010  173.5040  135.6200 C   0  0  0  0  0  2  0  0  0  0  0  0
  190.2810  177.1230  140.0530 C   0  0  1  0  0  3  0  0  0  0  0  0
  187.4850  179.2380  141.3930 C   0  0  0  0  0  2  0  0  0  0  0  0
  190.2710  174.8100  136.3530 C   0  0  1  0  0  3  0  0  0  0  0  0
  192.4280  172.8360  135.4540 C   0  0  0  0  0  2  0  0  0  0  0  0
  189.2170  177.8820  142.6290 C   0  0  1  0  0  3  0  0  0  0  0  0
  189.0900  176.3670  137.9450 C   0  0  0  0  0  0  0  0  0  0  0  0
  192.6840  174.9640  136.9510 C   0  0  2  0  0  3  0  0  0  0  0  0
  190.4150  176.5390  138.6380 C   0  0  2  0  0  3  0  0  0  0  0  0
  186.6590  176.0410  136.5920 C   0  0  0  0  0  3  0  0  0  0  0  0
  191.6740  178.2390  141.9220 C   0  0  0  0  0  2  0  0  0  0  0  0
  187.7920  175.3390  136.1760 C   0  0  0  0  0  3  0  0  0  0  0  0
  191.6750  177.4610  140.6050 C   0  0  0  0  0  2  0  0  0  0  0  0
  188.9630  178.8700  141.4650 C   0  0  1  0  0  3  0  0  0  0  0  0
  186.7400  176.9150  137.6780 C   0  0  0  0  0  3  0  0  0  0  0  0
  188.0550  177.9980  139.4570 N   0  0  0  0  0  0  0  0  0  0  0  0
  188.6020  176.6460  142.3970 O   0  0  0  0  0  0  0  0  0  0  0  0
  187.9300  176.3440  143.5830 C   0  0  0  0  0  2  0  0  0  0  0  0
  186.0570  177.3830  146.0110 O   0  0  0  0  0  0  0  0  0  0  0  0
  188.4090  177.3250  145.8040 C   0  0  0  0  0  2  0  0  0  0  0  0
  187.8230  177.5880  144.4470 C   0  0  2  0  0  3  0  0  0  0  0  0
  187.2450  177.5040  146.7480 C   0  0  0  0  0  2  0  0  0  0  0  0
  186.3660  177.8750  144.7340 C   0  0  0  0  0  2  0  0  0  0  0  0
  1 27  1  0  0  0  0
  2 14  1  0  0  0  0
  3 16  1  6  0  0  0
  3 19  1  0  0  0  0
  4 18  2  0  0  0  0
  5 11  1  1  0  0  0
  7  6  1  0  0  0  0
  7  3  1  0  0  0  0
  8 16  1  0  0  0  0
  8 12  1  0  0  0  0
  9 27  1  1  0  0  0
  9 25  1  0  0  0  0
 13  9  1  0  0  0  0
 13 24  1  6  0  0  0
 15 12  1  1  0  0  0
 15  4  1  0  0  0  0
 15  5  1  0  0  0  0
 17 28  1  6  0  0  0
 17 10  1  0  0  0  0
 18  1  1  0  0  0  0
 18 20  1  0  0  0  0
 19  6  1  6  0  0  0
 19  5  1  0  0  0  0
 20 11  1  1  0  0  0
 20 13  1  0  0  0  0
 21 26  1  0  0  0  0
 22 10  1  0  0  0  0
 23 21  2  0  0  0  0
 23  4  1  0  0  0  0
 24 22  1  0  0  0  0
 25 14  1  6  0  0  0
 25 17  1  0  0  0  0
 26  1  2  0  0  0  0
 27  2  1  0  0  0  0
 28 29  1  0  0  0  0
 30 33  1  0  0  0  0
 31 33  1  0  0  0  0
 32 29  1  6  0  0  0
 32 34  1  0  0  0  0
 32 31  1  0  0  0  0
 34 30  1  0  0  0  0
M  END
>  <MODEL>
9

>  <REMARK>
 VINA RESULT:      -5.7      3.938      8.562
  Name = 
  3 active torsions:
  status: ('A' for Active; 'I' for Inactive)
    1  A    between atoms: C_17  and  O_28
    2  A    between atoms: O_28  and  C_29
    3  A    between atoms: C_29  and  C_32
                            x       y       z     vdW  Elec       q    Type
                         _______ _______ _______ _____ _____    ______ ____

>  <TORSDO>
F 3

$$$$
