=
 OpenBabel11122410383D

 32 37  0  0  1  0  0  0  0  0999 V2000
  191.1410  175.3990  137.1350 C   0  0  0  0  0  2  0  0  0  0  0  0
  188.9420  177.8860  141.5050 C   0  0  1  0  0  3  0  0  0  0  0  0
  191.5790  176.6240  145.4920 C   0  0  0  0  0  3  0  0  0  0  0  0
  190.5220  177.0040  146.3200 C   0  0  0  0  0  3  0  0  0  0  0  0
  186.4640  178.4920  141.8650 C   0  0  0  0  0  0  0  0  0  0  0  0
  185.3810  178.6060  142.7320 C   0  0  0  0  0  0  0  0  0  0  0  0
  189.9020  177.5970  139.2020 C   0  0  1  0  0  3  0  0  0  0  0  0
  191.2590  176.9710  141.2380 C   0  0  0  0  0  2  0  0  0  0  0  0
  184.2530  178.5570  144.6960 N   0  0  0  0  0  0  0  0  0  0  0  0
  192.3140  176.7030  138.9990 C   0  0  0  0  0  2  0  0  0  0  0  0
  191.4070  176.6080  144.1070 C   0  0  0  0  0  3  0  0  0  0  0  0
  189.9620  176.8660  142.0460 C   0  0  1  0  0  3  0  0  0  0  0  0
  190.1860  176.9940  143.5310 C   0  0  0  0  0  0  0  0  0  0  0  0
  187.8070  177.7390  143.7780 C   0  0  0  0  0  0  0  0  0  0  0  0
  183.3340  179.0950  143.6920 C   0  0  0  0  0  3  0  0  0  0  0  0
  189.6830  175.8530  137.3350 C   0  0  0  0  0  2  0  0  0  0  0  0
  190.9910  176.6580  139.7690 C   0  0  2  0  0  3  0  0  0  0  0  0
  184.0830  179.0960  142.4270 N   0  0  0  0  0  0  0  0  0  0  0  0
  189.5380  177.3250  137.7360 C   0  0  0  0  0  2  0  0  0  0  0  0
  192.1880  176.4650  137.4920 C   0  0  1  0  0  3  0  0  0  0  0  0
  189.2950  177.3630  145.7610 C   0  0  0  0  0  3  0  0  0  0  0  0
  189.1110  177.3540  144.3680 C   0  0  0  0  0  0  0  0  0  0  0  0
  186.6830  177.8910  144.6170 C   0  0  0  0  0  3  0  0  0  0  0  0
  188.6380  177.5090  140.0530 C   0  0  0  0  0  2  0  0  0  0  0  0
  186.3180  178.8910  140.5410 O   0  0  0  0  0  1  0  0  0  0  0  0
  184.0500  178.6360  146.1310 C   0  0  0  0  0  1  0  0  0  0  0  0
  187.6950  177.9910  142.3750 C   0  0  0  0  0  0  0  0  0  0  0  0
  185.4840  178.3030  144.0490 C   0  0  0  0  0  0  0  0  0  0  0  0
  193.5480  176.0860  136.9300 C   0  0  0  0  0  2  0  0  0  0  0  0
  194.1640  174.9910  137.7330 C   0  0  0  0  0  0  0  0  0  0  0  0
  193.7720  173.8050  137.5830 O   0  0  0  0  0  0  0  0  0  0  0  0
  195.1890  175.2760  138.6250 O   0  0  0  0  0  1  0  0  0  0  0  0
  1 16  1  0  0  0  0
  1 20  1  0  0  0  0
  2 24  1  6  0  0  0
  2 12  1  0  0  0  0
  2 27  1  0  0  0  0
  3  4  1  0  0  0  0
  5 27  2  0  0  0  0
  5  6  1  0  0  0  0
  6 28  2  0  0  0  0
  7 19  1  6  0  0  0
  7 17  1  0  0  0  0
  7 24  1  0  0  0  0
  9 26  1  0  0  0  0
 11  3  2  0  0  0  0
 12  8  1  6  0  0  0
 12 13  1  0  0  0  0
 13 11  1  0  0  0  0
 13 22  2  0  0  0  0
 14 22  1  0  0  0  0
 14 23  2  0  0  0  0
 15  9  1  0  0  0  0
 16 19  1  0  0  0  0
 17 10  1  6  0  0  0
 17  8  1  0  0  0  0
 18  6  1  0  0  0  0
 18 15  2  0  0  0  0
 20 29  1  1  0  0  0
 20 10  1  0  0  0  0
 21  4  2  0  0  0  0
 22 21  1  0  0  0  0
 25  5  1  0  0  0  0
 27 14  1  0  0  0  0
 28 23  1  0  0  0  0
 28  9  1  0  0  0  0
 29 30  1  0  0  0  0
 30 32  1  0  0  0  0
 31 30  2  0  0  0  0
M  END
>  <MODEL>
1

>  <REMARK>
 VINA RESULT:     -11.1      0.000      0.000
  Name = 
  2 active torsions:
  status: ('A' for Active; 'I' for Inactive)
    1  A    between atoms: C_20  and  C_29
    2  A    between atoms: C_29  and  C_30
                            x       y       z     vdW  Elec       q    Type
                         _______ _______ _______ _____ _____    ______ ____

>  <TORSDO>
F 2

$$$$
=
 OpenBabel11122410383D

 32 37  0  0  1  0  0  0  0  0999 V2000
  191.0610  175.9630  138.4240 C   0  0  0  0  0  2  0  0  0  0  0  0
  187.1260  178.4800  141.3050 C   0  0  1  0  0  3  0  0  0  0  0  0
  187.9060  177.5820  146.1040 C   0  0  0  0  0  3  0  0  0  0  0  0
  186.5840  177.9230  146.3890 C   0  0  0  0  0  3  0  0  0  0  0  0
  184.7000  178.9280  140.5610 C   0  0  0  0  0  0  0  0  0  0  0  0
  183.3490  179.0040  140.8910 C   0  0  0  0  0  0  0  0  0  0  0  0
  188.9740  178.1590  139.6340 C   0  0  1  0  0  3  0  0  0  0  0  0
  189.3810  177.7190  142.0880 C   0  0  0  0  0  2  0  0  0  0  0  0
  181.5070  178.9630  142.2070 N   0  0  0  0  0  0  0  0  0  0  0  0
  191.2870  177.4260  140.5130 C   0  0  0  0  0  2  0  0  0  0  0  0
  188.3310  177.4930  144.7770 C   0  0  0  0  0  3  0  0  0  0  0  0
  187.8700  177.5590  142.2890 C   0  0  1  0  0  3  0  0  0  0  0  0
  187.4460  177.7670  143.7210 C   0  0  0  0  0  0  0  0  0  0  0  0
  185.1520  178.3550  142.9060 C   0  0  0  0  0  0  0  0  0  0  0  0
  181.0690  179.3910  140.8770 C   0  0  0  0  0  3  0  0  0  0  0  0
  189.6340  176.3230  137.9690 C   0  0  0  0  0  2  0  0  0  0  0  0
  189.7660  177.3240  140.6650 C   0  0  2  0  0  3  0  0  0  0  0  0
  182.2780  179.3880  140.0410 N   0  0  0  0  0  0  0  0  0  0  0  0
  189.2690  177.7980  138.1710 C   0  0  0  0  0  2  0  0  0  0  0  0
  191.8130  177.1140  139.1090 C   0  0  1  0  0  3  0  0  0  0  0  0
  185.6880  178.1710  145.3490 C   0  0  0  0  0  3  0  0  0  0  0  0
  186.1050  178.0880  144.0090 C   0  0  0  0  0  0  0  0  0  0  0  0
  183.7740  178.4650  143.1900 C   0  0  0  0  0  3  0  0  0  0  0  0
  187.4750  178.0200  139.8870 C   0  0  0  0  0  2  0  0  0  0  0  0
  185.1040  179.2570  139.2720 O   0  0  0  0  0  1  0  0  0  0  0  0
  180.7180  179.0900  143.4200 C   0  0  0  0  0  1  0  0  0  0  0  0
  185.6260  178.5370  141.5690 C   0  0  0  0  0  0  0  0  0  0  0  0
  182.9060  178.7670  142.1480 C   0  0  0  0  0  0  0  0  0  0  0  0
  193.2990  176.8060  139.1900 C   0  0  0  0  0  2  0  0  0  0  0  0
  193.7580  176.0910  137.9660 C   0  0  0  0  0  0  0  0  0  0  0  0
  193.9480  176.7310  136.8980 O   0  0  0  0  0  0  0  0  0  0  0  0
  194.0040  174.7250  138.0090 O   0  0  0  0  0  1  0  0  0  0  0  0
  1 20  1  0  0  0  0
  2 24  1  6  0  0  0
  2 27  1  0  0  0  0
  2 12  1  0  0  0  0
  3  4  1  0  0  0  0
  5  6  2  0  0  0  0
  5 27  1  0  0  0  0
  6 28  1  0  0  0  0
  7 19  1  6  0  0  0
  7 24  1  0  0  0  0
  7 17  1  0  0  0  0
  9 26  1  0  0  0  0
 11  3  2  0  0  0  0
 12  8  1  1  0  0  0
 12 13  1  0  0  0  0
 13 22  2  0  0  0  0
 13 11  1  0  0  0  0
 14 23  1  0  0  0  0
 14 22  1  0  0  0  0
 15  9  1  0  0  0  0
 16 19  1  0  0  0  0
 16  1  1  0  0  0  0
 17 10  1  1  0  0  0
 17  8  1  0  0  0  0
 18 15  2  0  0  0  0
 18  6  1  0  0  0  0
 20 29  1  1  0  0  0
 20 10  1  0  0  0  0
 21  4  2  0  0  0  0
 22 21  1  0  0  0  0
 25  5  1  0  0  0  0
 27 14  2  0  0  0  0
 28  9  1  0  0  0  0
 28 23  2  0  0  0  0
 30 32  1  0  0  0  0
 30 29  1  0  0  0  0
 31 30  2  0  0  0  0
M  END
>  <MODEL>
2

>  <REMARK>
 VINA RESULT:     -11.0      1.621      2.660
  Name = 
  2 active torsions:
  status: ('A' for Active; 'I' for Inactive)
    1  A    between atoms: C_20  and  C_29
    2  A    between atoms: C_29  and  C_30
                            x       y       z     vdW  Elec       q    Type
                         _______ _______ _______ _____ _____    ______ ____

>  <TORSDO>
F 2

$$$$
=
 OpenBabel11122410383D

 32 37  0  0  1  0  0  0  0  0999 V2000
  192.0650  174.6570  146.2720 C   0  0  0  0  0  2  0  0  0  0  0  0
  188.5080  177.9200  143.6600 C   0  0  1  0  0  3  0  0  0  0  0  0
  184.5610  178.5480  146.5690 C   0  0  0  0  0  3  0  0  0  0  0  0
  183.8060  178.9540  145.4680 C   0  0  0  0  0  3  0  0  0  0  0  0
  188.1480  178.1040  141.1150 C   0  0  0  0  0  0  0  0  0  0  0  0
  187.2710  178.2700  140.0470 C   0  0  0  0  0  0  0  0  0  0  0  0
  190.6810  177.1080  144.6240 C   0  0  1  0  0  3  0  0  0  0  0  0
  188.6720  177.4470  146.1150 C   0  0  0  0  0  2  0  0  0  0  0  0
  185.3020  178.6280  138.9870 N   0  0  0  0  0  0  0  0  0  0  0  0
  190.7980  176.6940  147.1680 C   0  0  0  0  0  2  0  0  0  0  0  0
  185.8540  178.0560  146.3830 C   0  0  0  0  0  3  0  0  0  0  0  0
  187.7660  177.3500  144.8840 C   0  0  1  0  0  3  0  0  0  0  0  0
  186.4170  177.9870  145.0980 C   0  0  0  0  0  0  0  0  0  0  0  0
  186.2150  178.2830  142.6190 C   0  0  0  0  0  0  0  0  0  0  0  0
  186.3420  178.6230  137.9580 C   0  0  0  0  0  3  0  0  0  0  0  0
  191.8940  174.8520  144.7550 C   0  0  0  0  0  2  0  0  0  0  0  0
  189.9450  176.6350  145.8970 C   0  0  2  0  0  3  0  0  0  0  0  0
  187.6030  178.3690  138.6700 N   0  0  0  0  0  0  0  0  0  0  0  0
  191.9560  176.3150  144.3030 C   0  0  0  0  0  2  0  0  0  0  0  0
  192.1430  175.9670  147.0710 C   0  0  1  0  0  3  0  0  0  0  0  0
  184.3430  178.8640  144.1840 C   0  0  0  0  0  3  0  0  0  0  0  0
  185.6450  178.3740  143.9840 C   0  0  0  0  0  0  0  0  0  0  0  0
  185.3730  178.4690  141.5020 C   0  0  0  0  0  3  0  0  0  0  0  0
  189.7430  177.0470  143.4210 C   0  0  0  0  0  2  0  0  0  0  0  0
  189.5140  178.0220  140.8660 O   0  0  0  0  0  1  0  0  0  0  0  0
  183.9490  179.1190  138.7950 C   0  0  0  0  0  1  0  0  0  0  0  0
  187.6120  178.0470  142.4340 C   0  0  0  0  0  0  0  0  0  0  0  0
  185.9390  178.4310  140.2340 C   0  0  0  0  0  0  0  0  0  0  0  0
  192.6710  175.7070  148.4720 C   0  0  0  0  0  2  0  0  0  0  0  0
  193.0470  176.9840  149.1410 C   0  0  0  0  0  0  0  0  0  0  0  0
  192.2140  177.9250  149.2140 O   0  0  0  0  0  0  0  0  0  0  0  0
  194.3060  177.1280  149.7090 O   0  0  0  0  0  1  0  0  0  0  0  0
  1 20  1  0  0  0  0
  2 24  1  6  0  0  0
  2 12  1  0  0  0  0
  4  3  2  0  0  0  0
  5 27  1  0  0  0  0
  6 28  1  0  0  0  0
  6  5  2  0  0  0  0
  7 24  1  6  0  0  0
  7 17  1  0  0  0  0
  9 28  1  0  0  0  0
 11  3  1  0  0  0  0
 12 13  1  0  0  0  0
 12  8  1  1  0  0  0
 13 11  2  0  0  0  0
 14 22  1  0  0  0  0
 15 18  2  0  0  0  0
 15  9  1  0  0  0  0
 16  1  1  0  0  0  0
 17  8  1  1  0  0  0
 17 10  1  0  0  0  0
 18  6  1  0  0  0  0
 19  7  1  0  0  0  0
 19 16  1  0  0  0  0
 20 10  1  0  0  0  0
 20 29  1  1  0  0  0
 21  4  1  0  0  0  0
 22 21  2  0  0  0  0
 22 13  1  0  0  0  0
 23 14  1  0  0  0  0
 25  5  1  0  0  0  0
 26  9  1  0  0  0  0
 27 14  2  0  0  0  0
 27  2  1  0  0  0  0
 28 23  2  0  0  0  0
 29 30  1  0  0  0  0
 30 31  2  0  0  0  0
 30 32  1  0  0  0  0
M  END
>  <MODEL>
3

>  <REMARK>
 VINA RESULT:     -10.5      3.569      6.740
  Name = 
  2 active torsions:
  status: ('A' for Active; 'I' for Inactive)
    1  A    between atoms: C_20  and  C_29
    2  A    between atoms: C_29  and  C_30
                            x       y       z     vdW  Elec       q    Type
                         _______ _______ _______ _____ _____    ______ ____

>  <TORSDO>
F 2

$$$$
=
 OpenBabel11122410383D

 32 37  0  0  1  0  0  0  0  0999 V2000
  179.7450  178.0580  142.0870 C   0  0  0  0  0  2  0  0  0  0  0  0
  184.9470  178.8310  143.6560 C   0  0  1  0  0  3  0  0  0  0  0  0
  187.8660  178.1430  139.7250 C   0  0  0  0  0  3  0  0  0  0  0  0
  188.9650  177.9560  140.5650 C   0  0  0  0  0  3  0  0  0  0  0  0
  185.9560  178.3610  145.9800 C   0  0  0  0  0  0  0  0  0  0  0  0
  187.0330  177.9160  146.7400 C   0  0  0  0  0  0  0  0  0  0  0  0
  182.4940  179.2750  143.3540 C   0  0  1  0  0  3  0  0  0  0  0  0
  183.9860  178.9440  141.3440 C   0  0  0  0  0  2  0  0  0  0  0  0
  189.1200  177.1490  147.1740 N   0  0  0  0  0  0  0  0  0  0  0  0
  181.5780  179.4340  140.9470 C   0  0  0  0  0  2  0  0  0  0  0  0
  186.5860  178.2600  140.2690 C   0  0  0  0  0  3  0  0  0  0  0  0
  185.0000  178.2250  142.2400 C   0  0  1  0  0  3  0  0  0  0  0  0
  186.3910  178.2160  141.6590 C   0  0  0  0  0  0  0  0  0  0  0  0
  187.3050  177.9270  143.9740 C   0  0  0  0  0  0  0  0  0  0  0  0
  188.4910  177.4220  148.4670 C   0  0  0  0  0  3  0  0  0  0  0  0
  180.3510  177.8720  143.4910 C   0  0  0  0  0  2  0  0  0  0  0  0
  182.5760  178.7660  141.8980 C   0  0  2  0  0  3  0  0  0  0  0  0
  187.1350  177.8980  148.1570 N   0  0  0  0  0  0  0  0  0  0  0  0
  181.1150  179.0960  144.0070 C   0  0  0  0  0  2  0  0  0  0  0  0
  180.1190  179.3850  141.4100 C   0  0  1  0  0  3  0  0  0  0  0  0
  188.7800  177.8820  141.9460 C   0  0  0  0  0  3  0  0  0  0  0  0
  187.4970  178.0020  142.5060 C   0  0  0  0  0  0  0  0  0  0  0  0
  188.3730  177.5050  144.7930 C   0  0  0  0  0  3  0  0  0  0  0  0
  183.5450  178.5780  144.2150 C   0  0  0  0  0  2  0  0  0  0  0  0
  184.8280  178.8570  146.6240 O   0  0  0  0  0  1  0  0  0  0  0  0
  190.5420  176.9350  146.9730 C   0  0  0  0  0  1  0  0  0  0  0  0
  186.0600  178.3140  144.5600 C   0  0  0  0  0  0  0  0  0  0  0  0
  188.1860  177.4920  146.1700 C   0  0  0  0  0  0  0  0  0  0  0  0
  179.2090  179.6530  140.2230 C   0  0  0  0  0  2  0  0  0  0  0  0
  179.2890  181.0830  139.8080 C   0  0  0  0  0  0  0  0  0  0  0  0
  178.9380  181.9900  140.6060 O   0  0  0  0  0  1  0  0  0  0  0  0
  179.7750  181.4150  138.5510 O   0  0  0  0  0  0  0  0  0  0  0  0
  1 16  1  0  0  0  0
  2 24  1  1  0  0  0
  2 27  1  0  0  0  0
  3 11  2  0  0  0  0
  3  4  1  0  0  0  0
  4 21  2  0  0  0  0
  5 25  1  0  0  0  0
  5  6  1  0  0  0  0
  6 18  1  0  0  0  0
  7 19  1  1  0  0  0
  7 24  1  0  0  0  0
  8 17  1  0  0  0  0
  9 15  1  0  0  0  0
 10 20  1  0  0  0  0
 11 13  1  0  0  0  0
 12  8  1  6  0  0  0
 12  2  1  0  0  0  0
 13 12  1  0  0  0  0
 13 22  2  0  0  0  0
 14 27  1  0  0  0  0
 14 23  2  0  0  0  0
 16 19  1  0  0  0  0
 17 10  1  6  0  0  0
 17  7  1  0  0  0  0
 18 15  2  0  0  0  0
 20 29  1  6  0  0  0
 20  1  1  0  0  0  0
 21 22  1  0  0  0  0
 22 14  1  0  0  0  0
 23 28  1  0  0  0  0
 26  9  1  0  0  0  0
 27  5  2  0  0  0  0
 28  6  2  0  0  0  0
 28  9  1  0  0  0  0
 30 29  1  0  0  0  0
 30 31  1  0  0  0  0
 32 30  2  0  0  0  0
M  END
>  <MODEL>
4

>  <REMARK>
 VINA RESULT:     -10.5      4.625      8.851
  Name = 
  2 active torsions:
  status: ('A' for Active; 'I' for Inactive)
    1  A    between atoms: C_20  and  C_29
    2  A    between atoms: C_29  and  C_30
                            x       y       z     vdW  Elec       q    Type
                         _______ _______ _______ _____ _____    ______ ____

>  <TORSDO>
F 2

$$$$
=
 OpenBabel11122410383D

 32 37  0  0  1  0  0  0  0  0999 V2000
  188.6770  179.0740  137.1070 C   0  0  0  0  0  2  0  0  0  0  0  0
  187.5070  177.4870  142.2290 C   0  0  1  0  0  3  0  0  0  0  0  0
  182.9780  179.1190  143.3570 C   0  0  0  0  0  3  0  0  0  0  0  0
  183.2540  178.9630  144.7160 C   0  0  0  0  0  3  0  0  0  0  0  0
  189.1670  177.1560  144.1710 C   0  0  0  0  0  0  0  0  0  0  0  0
  189.4450  177.2700  145.5300 C   0  0  0  0  0  0  0  0  0  0  0  0
  188.2420  177.3340  139.8320 C   0  0  1  0  0  3  0  0  0  0  0  0
  185.9220  178.1490  140.4050 C   0  0  0  0  0  2  0  0  0  0  0  0
  189.0660  177.7170  147.7180 N   0  0  0  0  0  0  0  0  0  0  0  0
  186.5430  177.9780  138.0000 C   0  0  0  0  0  2  0  0  0  0  0  0
  183.9930  178.9360  142.4160 C   0  0  0  0  0  3  0  0  0  0  0  0
  186.4100  178.4880  141.8170 C   0  0  1  0  0  3  0  0  0  0  0  0
  185.2880  178.5710  142.8200 C   0  0  0  0  0  0  0  0  0  0  0  0
  186.9390  178.0780  144.6380 C   0  0  0  0  0  0  0  0  0  0  0  0
  190.3960  177.1110  147.6330 C   0  0  0  0  0  3  0  0  0  0  0  0
  189.6580  178.7810  138.2580 C   0  0  0  0  0  2  0  0  0  0  0  0
  187.0740  178.2530  139.4100 C   0  0  2  0  0  3  0  0  0  0  0  0
  190.6230  176.8510  146.2040 N   0  0  0  0  0  0  0  0  0  0  0  0
  189.4660  177.4060  138.9070 C   0  0  0  0  0  2  0  0  0  0  0  0
  187.6080  177.9900  136.9000 C   0  0  1  0  0  3  0  0  0  0  0  0
  184.5420  178.6280  145.1320 C   0  0  0  0  0  3  0  0  0  0  0  0
  185.5720  178.4370  144.1930 C   0  0  0  0  0  0  0  0  0  0  0  0
  187.2660  178.1530  146.0080 C   0  0  0  0  0  3  0  0  0  0  0  0
  188.6780  177.6590  141.2580 C   0  0  0  0  0  2  0  0  0  0  0  0
  190.1090  176.5710  143.3320 O   0  0  0  0  0  1  0  0  0  0  0  0
  188.3060  177.8780  148.9450 C   0  0  0  0  0  1  0  0  0  0  0  0
  187.9100  177.6230  143.6920 C   0  0  0  0  0  0  0  0  0  0  0  0
  188.5380  177.7620  146.4080 C   0  0  0  0  0  0  0  0  0  0  0  0
  186.9300  178.1610  135.5510 C   0  0  0  0  0  2  0  0  0  0  0  0
  186.0840  176.9770  135.2300 C   0  0  0  0  0  0  0  0  0  0  0  0
  184.8630  177.1290  134.9680 O   0  0  0  0  0  0  0  0  0  0  0  0
  186.6480  175.7090  135.1940 O   0  0  0  0  0  1  0  0  0  0  0  0
  1 16  1  0  0  0  0
  2 24  1  6  0  0  0
  2 27  1  0  0  0  0
  3  4  1  0  0  0  0
  4 21  2  0  0  0  0
  5  6  1  0  0  0  0
  6 18  1  0  0  0  0
  6 28  2  0  0  0  0
  7 19  1  6  0  0  0
  7 24  1  0  0  0  0
  9 26  1  0  0  0  0
 11 13  1  0  0  0  0
 11  3  2  0  0  0  0
 12  8  1  6  0  0  0
 12  2  1  0  0  0  0
 12 13  1  0  0  0  0
 13 22  2  0  0  0  0
 14 23  2  0  0  0  0
 15  9  1  0  0  0  0
 16 19  1  0  0  0  0
 17 10  1  6  0  0  0
 17  7  1  0  0  0  0
 17  8  1  0  0  0  0
 18 15  2  0  0  0  0
 20 29  1  6  0  0  0
 20  1  1  0  0  0  0
 20 10  1  0  0  0  0
 22 14  1  0  0  0  0
 22 21  1  0  0  0  0
 23 28  1  0  0  0  0
 25  5  1  0  0  0  0
 27  5  2  0  0  0  0
 27 14  1  0  0  0  0
 28  9  1  0  0  0  0
 30 29  1  0  0  0  0
 31 30  2  0  0  0  0
 32 30  1  0  0  0  0
M  END
>  <MODEL>
5

>  <REMARK>
 VINA RESULT:     -10.4      3.240      5.650
  Name = 
  2 active torsions:
  status: ('A' for Active; 'I' for Inactive)
    1  A    between atoms: C_20  and  C_29
    2  A    between atoms: C_29  and  C_30
                            x       y       z     vdW  Elec       q    Type
                         _______ _______ _______ _____ _____    ______ ____

>  <TORSDO>
F 2

$$$$
=
 OpenBabel11122410383D

 32 37  0  0  1  0  0  0  0  0999 V2000
  188.5820  178.6280  147.5060 C   0  0  0  0  0  2  0  0  0  0  0  0
  185.7820  177.8780  142.8450 C   0  0  1  0  0  3  0  0  0  0  0  0
  188.9940  177.9280  139.0870 C   0  0  0  0  0  3  0  0  0  0  0  0
  187.9540  178.1840  138.1930 C   0  0  0  0  0  3  0  0  0  0  0  0
  183.3630  178.6150  142.3490 C   0  0  0  0  0  0  0  0  0  0  0  0
  182.4360  179.1170  141.4410 C   0  0  0  0  0  0  0  0  0  0  0  0
  186.5810  177.4890  145.1950 C   0  0  1  0  0  3  0  0  0  0  0  0
  188.2210  177.4940  143.2740 C   0  0  0  0  0  2  0  0  0  0  0  0
  181.6330  179.8570  139.4570 N   0  0  0  0  0  0  0  0  0  0  0  0
  189.0970  177.0450  145.5610 C   0  0  0  0  0  2  0  0  0  0  0  0
  188.7470  177.9320  140.4610 C   0  0  0  0  0  3  0  0  0  0  0  0
  187.2110  178.2880  142.4400 C   0  0  1  0  0  3  0  0  0  0  0  0
  187.4550  178.1680  140.9560 C   0  0  0  0  0  0  0  0  0  0  0  0
  185.0450  178.7280  140.5630 C   0  0  0  0  0  0  0  0  0  0  0  0
  180.4940  179.7820  140.3740 C   0  0  0  0  0  3  0  0  0  0  0  0
  187.1100  178.9770  147.2160 C   0  0  0  0  0  2  0  0  0  0  0  0
  188.0310  177.7960  144.7570 C   0  0  2  0  0  3  0  0  0  0  0  0
  181.0470  179.3200  141.6560 N   0  0  0  0  0  0  0  0  0  0  0  0
  186.2880  177.8050  146.6680 C   0  0  0  0  0  2  0  0  0  0  0  0
  188.9890  177.2090  147.0800 C   0  0  1  0  0  3  0  0  0  0  0  0
  186.6710  178.4480  138.6740 C   0  0  0  0  0  3  0  0  0  0  0  0
  186.4090  178.4510  140.0550 C   0  0  0  0  0  0  0  0  0  0  0  0
  184.0600  179.2150  139.6780 C   0  0  0  0  0  3  0  0  0  0  0  0
  185.5940  178.2540  144.3170 C   0  0  0  0  0  2  0  0  0  0  0  0
  182.9390  178.2510  143.6230 O   0  0  0  0  0  1  0  0  0  0  0  0
  181.5280  179.9890  138.0150 C   0  0  0  0  0  1  0  0  0  0  0  0
  184.7170  178.4690  141.9300 C   0  0  0  0  0  0  0  0  0  0  0  0
  182.7750  179.4180  140.1640 C   0  0  0  0  0  0  0  0  0  0  0  0
  190.3120  176.8200  147.7190 C   0  0  0  0  0  2  0  0  0  0  0  0
  191.3780  176.6830  146.6860 C   0  0  0  0  0  0  0  0  0  0  0  0
  191.6810  177.6660  145.9610 O   0  0  0  0  0  0  0  0  0  0  0  0
  192.0560  175.4800  146.5410 O   0  0  0  0  0  1  0  0  0  0  0  0
  2 24  1  1  0  0  0
  3 11  1  0  0  0  0
  4 21  1  0  0  0  0
  4  3  2  0  0  0  0
  5 25  1  0  0  0  0
  6 18  1  0  0  0  0
  6  5  2  0  0  0  0
  7 24  1  6  0  0  0
  7 19  1  0  0  0  0
  9 28  1  0  0  0  0
  9 15  1  0  0  0  0
 10 20  1  0  0  0  0
 11 13  2  0  0  0  0
 12  2  1  0  0  0  0
 12  8  1  1  0  0  0
 13 12  1  0  0  0  0
 14 27  2  0  0  0  0
 15 18  2  0  0  0  0
 16  1  1  0  0  0  0
 17  8  1  6  0  0  0
 17  7  1  0  0  0  0
 17 10  1  0  0  0  0
 19 16  1  0  0  0  0
 20  1  1  0  0  0  0
 20 29  1  1  0  0  0
 21 22  2  0  0  0  0
 22 14  1  0  0  0  0
 22 13  1  0  0  0  0
 23 28  2  0  0  0  0
 23 14  1  0  0  0  0
 26  9  1  0  0  0  0
 27  5  1  0  0  0  0
 27  2  1  0  0  0  0
 28  6  1  0  0  0  0
 30 29  1  0  0  0  0
 31 30  2  0  0  0  0
 32 30  1  0  0  0  0
M  END
>  <MODEL>
6

>  <REMARK>
 VINA RESULT:      -9.6      3.422      6.899
  Name = 
  2 active torsions:
  status: ('A' for Active; 'I' for Inactive)
    1  A    between atoms: C_20  and  C_29
    2  A    between atoms: C_29  and  C_30
                            x       y       z     vdW  Elec       q    Type
                         _______ _______ _______ _____ _____    ______ ____

>  <TORSDO>
F 2

$$$$
=
 OpenBabel11122410383D

 32 37  0  0  1  0  0  0  0  0999 V2000
  181.4970  177.9500  139.9780 C   0  0  0  0  0  2  0  0  0  0  0  0
  186.2020  178.6290  142.7200 C   0  0  1  0  0  3  0  0  0  0  0  0
  189.9430  177.6820  139.6300 C   0  0  0  0  0  3  0  0  0  0  0  0
  190.8010  177.4970  140.7150 C   0  0  0  0  0  3  0  0  0  0  0  0
  186.6080  178.2290  145.2330 C   0  0  0  0  0  0  0  0  0  0  0  0
  187.4540  177.7840  146.2450 C   0  0  0  0  0  0  0  0  0  0  0  0
  183.9100  179.1350  141.8250 C   0  0  1  0  0  3  0  0  0  0  0  0
  185.8240  178.6720  140.2440 C   0  0  0  0  0  2  0  0  0  0  0  0
  189.3440  176.9710  147.1920 N   0  0  0  0  0  0  0  0  0  0  0  0
  183.6020  179.2190  139.2640 C   0  0  0  0  0  2  0  0  0  0  0  0
  188.5760  177.8620  139.8470 C   0  0  0  0  0  3  0  0  0  0  0  0
  186.5650  177.9610  141.3810 C   0  0  1  0  0  3  0  0  0  0  0  0
  188.0540  177.8840  141.1510 C   0  0  0  0  0  0  0  0  0  0  0  0
  188.3770  177.6670  143.6250 C   0  0  0  0  0  0  0  0  0  0  0  0
  188.4370  177.3190  148.2870 C   0  0  0  0  0  3  0  0  0  0  0  0
  181.7420  177.8060  141.4920 C   0  0  0  0  0  2  0  0  0  0  0  0
  184.3170  178.5610  140.4490 C   0  0  2  0  0  3  0  0  0  0  0  0
  187.2140  177.8230  147.6440 N   0  0  0  0  0  0  0  0  0  0  0  0
  182.4100  179.0270  142.1340 C   0  0  0  0  0  2  0  0  0  0  0  0
  182.0740  179.2350  139.3660 C   0  0  1  0  0  3  0  0  0  0  0  0
  190.2900  177.4890  142.0130 C   0  0  0  0  0  3  0  0  0  0  0  0
  188.9160  177.6730  142.2450 C   0  0  0  0  0  0  0  0  0  0  0  0
  189.2010  177.2480  144.6910 C   0  0  0  0  0  3  0  0  0  0  0  0
  184.6970  178.4440  142.9350 C   0  0  0  0  0  2  0  0  0  0  0  0
  185.3800  178.7860  145.5710 O   0  0  0  0  0  1  0  0  0  0  0  0
  190.7630  176.7050  147.3450 C   0  0  0  0  0  1  0  0  0  0  0  0
  187.0450  178.1170  143.8820 C   0  0  0  0  0  0  0  0  0  0  0  0
  188.6920  177.3000  145.9820 C   0  0  0  0  0  0  0  0  0  0  0  0
  181.4850  179.4790  137.9860 C   0  0  0  0  0  2  0  0  0  0  0  0
  180.9780  180.8760  137.8680 C   0  0  0  0  0  0  0  0  0  0  0  0
  180.7900  181.3830  136.7310 O   0  0  0  0  0  0  0  0  0  0  0  0
  180.6860  181.6090  139.0110 O   0  0  0  0  0  1  0  0  0  0  0  0
  1 16  1  0  0  0  0
  2 24  1  1  0  0  0
  2 27  1  0  0  0  0
  3 11  2  0  0  0  0
  3  4  1  0  0  0  0
  4 21  2  0  0  0  0
  5 25  1  0  0  0  0
  5  6  1  0  0  0  0
  6 18  1  0  0  0  0
  7 19  1  1  0  0  0
  7 24  1  0  0  0  0
  8 17  1  0  0  0  0
  9 26  1  0  0  0  0
  9 15  1  0  0  0  0
 10 20  1  0  0  0  0
 11 13  1  0  0  0  0
 12  8  1  6  0  0  0
 12  2  1  0  0  0  0
 13 12  1  0  0  0  0
 13 22  2  0  0  0  0
 14 27  1  0  0  0  0
 14 23  2  0  0  0  0
 16 19  1  0  0  0  0
 17 10  1  6  0  0  0
 17  7  1  0  0  0  0
 18 15  2  0  0  0  0
 20 29  1  6  0  0  0
 20  1  1  0  0  0  0
 21 22  1  0  0  0  0
 22 14  1  0  0  0  0
 23 28  1  0  0  0  0
 27  5  2  0  0  0  0
 28  6  2  0  0  0  0
 28  9  1  0  0  0  0
 30 29  1  0  0  0  0
 30 32  1  0  0  0  0
 31 30  2  0  0  0  0
M  END
>  <MODEL>
7

>  <REMARK>
 VINA RESULT:      -9.5      4.046      7.626
  Name = 
  2 active torsions:
  status: ('A' for Active; 'I' for Inactive)
    1  A    between atoms: C_20  and  C_29
    2  A    between atoms: C_29  and  C_30
                            x       y       z     vdW  Elec       q    Type
                         _______ _______ _______ _____ _____    ______ ____

>  <TORSDO>
F 2

$$$$
=
 OpenBabel11122410383D

 32 37  0  0  1  0  0  0  0  0999 V2000
  181.9330  180.6670  139.0870 C   0  0  0  0  0  2  0  0  0  0  0  0
  185.7330  178.0240  142.0340 C   0  0  1  0  0  3  0  0  0  0  0  0
  184.5530  178.4490  146.8170 C   0  0  0  0  0  3  0  0  0  0  0  0
  185.8630  178.1260  147.1750 C   0  0  0  0  0  3  0  0  0  0  0  0
  188.2250  177.7260  141.4480 C   0  0  0  0  0  0  0  0  0  0  0  0
  189.5470  177.6640  141.8770 C   0  0  0  0  0  0  0  0  0  0  0  0
  184.0070  178.4380  140.2580 C   0  0  1  0  0  3  0  0  0  0  0  0
  183.3960  178.6360  142.7000 C   0  0  0  0  0  2  0  0  0  0  0  0
  191.2810  177.6430  143.3340 N   0  0  0  0  0  0  0  0  0  0  0  0
  181.6060  179.0110  141.0120 C   0  0  0  0  0  2  0  0  0  0  0  0
  184.2280  178.6460  145.4740 C   0  0  0  0  0  3  0  0  0  0  0  0
  184.8790  178.8260  143.0350 C   0  0  1  0  0  3  0  0  0  0  0  0
  185.2010  178.5000  144.4710 C   0  0  0  0  0  0  0  0  0  0  0  0
  187.5730  178.0650  143.7920 C   0  0  0  0  0  0  0  0  0  0  0  0
  191.8360  177.3540  142.0100 C   0  0  0  0  0  3  0  0  0  0  0  0
  183.4030  180.3980  138.7170 C   0  0  0  0  0  2  0  0  0  0  0  0
  183.1050  179.1480  141.2930 C   0  0  2  0  0  3  0  0  0  0  0  0
  190.6950  177.3950  141.0840 N   0  0  0  0  0  0  0  0  0  0  0  0
  183.8100  178.9230  138.8140 C   0  0  0  0  0  2  0  0  0  0  0  0
  181.1760  179.4340  139.6040 C   0  0  1  0  0  3  0  0  0  0  0  0
  186.8440  178.0050  146.1910 C   0  0  0  0  0  3  0  0  0  0  0  0
  186.5280  178.1970  144.8350 C   0  0  0  0  0  0  0  0  0  0  0  0
  188.9280  177.9730  144.1740 C   0  0  0  0  0  3  0  0  0  0  0  0
  185.4750  178.6010  140.6400 C   0  0  0  0  0  2  0  0  0  0  0  0
  187.9330  177.5040  140.1070 O   0  0  0  0  0  1  0  0  0  0  0  0
  191.9790  177.4290  144.5890 C   0  0  0  0  0  1  0  0  0  0  0  0
  187.2090  177.9920  142.4110 C   0  0  0  0  0  0  0  0  0  0  0  0
  189.8840  177.7970  143.1820 C   0  0  0  0  0  0  0  0  0  0  0  0
  179.6780  179.6850  139.5940 C   0  0  0  0  0  2  0  0  0  0  0  0
  179.3640  181.0340  140.1450 C   0  0  0  0  0  0  0  0  0  0  0  0
  178.9380  181.9410  139.3840 O   0  0  0  0  0  0  0  0  0  0  0  0
  179.5160  181.2820  141.5030 O   0  0  0  0  0  1  0  0  0  0  0  0
  1 20  1  0  0  0  0
  2 24  1  6  0  0  0
  2 27  1  0  0  0  0
  2 12  1  0  0  0  0
  3  4  1  0  0  0  0
  5  6  2  0  0  0  0
  5 27  1  0  0  0  0
  6 28  1  0  0  0  0
  7 19  1  6  0  0  0
  7 24  1  0  0  0  0
  7 17  1  0  0  0  0
  9 26  1  0  0  0  0
 11  3  2  0  0  0  0
 12  8  1  6  0  0  0
 12 13  1  0  0  0  0
 13 22  2  0  0  0  0
 13 11  1  0  0  0  0
 14 23  1  0  0  0  0
 14 22  1  0  0  0  0
 15  9  1  0  0  0  0
 16 19  1  0  0  0  0
 16  1  1  0  0  0  0
 17 10  1  6  0  0  0
 17  8  1  0  0  0  0
 18  6  1  0  0  0  0
 18 15  2  0  0  0  0
 20 29  1  1  0  0  0
 20 10  1  0  0  0  0
 21  4  2  0  0  0  0
 22 21  1  0  0  0  0
 25  5  1  0  0  0  0
 27 14  2  0  0  0  0
 28  9  1  0  0  0  0
 28 23  2  0  0  0  0
 29 30  1  0  0  0  0
 30 32  1  0  0  0  0
 31 30  2  0  0  0  0
M  END
>  <MODEL>
8

>  <REMARK>
 VINA RESULT:      -9.3      3.602      8.349
  Name = 
  2 active torsions:
  status: ('A' for Active; 'I' for Inactive)
    1  A    between atoms: C_20  and  C_29
    2  A    between atoms: C_29  and  C_30
                            x       y       z     vdW  Elec       q    Type
                         _______ _______ _______ _____ _____    ______ ____

>  <TORSDO>
F 2

$$$$
=
 OpenBabel11122410383D

 32 37  0  0  1  0  0  0  0  0999 V2000
  187.1050  179.0400  147.4070 C   0  0  0  0  0  2  0  0  0  0  0  0
  184.7940  178.1680  142.5070 C   0  0  1  0  0  3  0  0  0  0  0  0
  188.3840  178.0110  139.1100 C   0  0  0  0  0  3  0  0  0  0  0  0
  187.4500  178.2540  138.1030 C   0  0  0  0  0  3  0  0  0  0  0  0
  182.4590  178.9340  141.7310 C   0  0  0  0  0  0  0  0  0  0  0  0
  181.6450  179.4190  140.7120 C   0  0  0  0  0  0  0  0  0  0  0  0
  185.3320  177.8540  144.9400 C   0  0  1  0  0  3  0  0  0  0  0  0
  187.1650  177.7530  143.2050 C   0  0  0  0  0  2  0  0  0  0  0  0
  181.0730  180.0980  138.6290 N   0  0  0  0  0  0  0  0  0  0  0  0
  187.7840  177.3740  145.5860 C   0  0  0  0  0  2  0  0  0  0  0  0
  187.9940  178.0730  140.4490 C   0  0  0  0  0  3  0  0  0  0  0  0
  186.2670  178.5340  142.2400 C   0  0  1  0  0  3  0  0  0  0  0  0
  186.6630  178.3530  140.7970 C   0  0  0  0  0  0  0  0  0  0  0  0
  184.3220  178.9450  140.1300 C   0  0  0  0  0  0  0  0  0  0  0  0
  179.8420  180.0810  139.4220 C   0  0  0  0  0  3  0  0  0  0  0  0
  185.6810  179.4070  146.9510 C   0  0  0  0  0  2  0  0  0  0  0  0
  186.8270  178.1160  144.6480 C   0  0  2  0  0  3  0  0  0  0  0  0
  180.2460  179.6570  140.7710 N   0  0  0  0  0  0  0  0  0  0  0  0
  184.8930  178.2310  146.3620 C   0  0  0  0  0  2  0  0  0  0  0  0
  187.5210  177.5990  147.0780 C   0  0  1  0  0  3  0  0  0  0  0  0
  186.1300  178.5610  138.4350 C   0  0  0  0  0  3  0  0  0  0  0  0
  185.7250  178.6220  139.7800 C   0  0  0  0  0  0  0  0  0  0  0  0
  183.4470  179.4170  139.1280 C   0  0  0  0  0  3  0  0  0  0  0  0
  184.4610  178.6040  143.9360 C   0  0  0  0  0  2  0  0  0  0  0  0
  181.8950  178.6280  142.9640 O   0  0  0  0  0  1  0  0  0  0  0  0
  181.1230  180.1780  137.1800 C   0  0  0  0  0  1  0  0  0  0  0  0
  183.8450  178.7450  141.4630 C   0  0  0  0  0  0  0  0  0  0  0  0
  182.1230  179.6640  139.4680 C   0  0  0  0  0  0  0  0  0  0  0  0
  188.7600  177.2080  147.8670 C   0  0  0  0  0  2  0  0  0  0  0  0
  189.9520  177.1340  146.9760 C   0  0  0  0  0  0  0  0  0  0  0  0
  190.7670  176.1810  147.0940 O   0  0  0  0  0  1  0  0  0  0  0  0
  190.1510  178.0990  145.9980 O   0  0  0  0  0  0  0  0  0  0  0  0
  2 24  1  1  0  0  0
  3 11  1  0  0  0  0
  4 21  1  0  0  0  0
  4  3  2  0  0  0  0
  5 25  1  0  0  0  0
  6 18  1  0  0  0  0
  6  5  2  0  0  0  0
  7 24  1  6  0  0  0
  7 19  1  0  0  0  0
  9 15  1  0  0  0  0
  9 28  1  0  0  0  0
 10 20  1  0  0  0  0
 11 13  2  0  0  0  0
 12  2  1  0  0  0  0
 12  8  1  1  0  0  0
 13 12  1  0  0  0  0
 14 27  2  0  0  0  0
 15 18  2  0  0  0  0
 16  1  1  0  0  0  0
 17  8  1  6  0  0  0
 17  7  1  0  0  0  0
 17 10  1  0  0  0  0
 19 16  1  0  0  0  0
 20  1  1  0  0  0  0
 20 29  1  1  0  0  0
 21 22  2  0  0  0  0
 22 14  1  0  0  0  0
 22 13  1  0  0  0  0
 23 28  2  0  0  0  0
 23 14  1  0  0  0  0
 26  9  1  0  0  0  0
 27  5  1  0  0  0  0
 27  2  1  0  0  0  0
 28  6  1  0  0  0  0
 30 31  1  0  0  0  0
 30 29  1  0  0  0  0
 32 30  2  0  0  0  0
M  END
>  <MODEL>
9

>  <REMARK>
 VINA RESULT:      -9.3      3.898      7.528
  Name = 
  2 active torsions:
  status: ('A' for Active; 'I' for Inactive)
    1  A    between atoms: C_20  and  C_29
    2  A    between atoms: C_29  and  C_30
                            x       y       z     vdW  Elec       q    Type
                         _______ _______ _______ _____ _____    ______ ____

>  <TORSDO>
F 2

$$$$
