=
 OpenBabel11122411553D

 28 32  0  0  1  0  0  0  0  0999 V2000
  180.1570  178.0620  141.9560 C   0  0  0  0  0  0  0  0  0  0  0  0
  180.5010  180.8110  139.4860 O   0  0  0  0  0  0  0  0  0  0  0  0
  181.6790  174.2760  137.1060 O   0  0  0  0  0  0  0  0  0  0  0  0
  182.3160  179.0080  143.4740 C   0  0  0  0  0  3  0  0  0  0  0  0
  183.5340  175.6660  137.8150 C   0  0  2  0  0  3  0  0  0  0  0  0
  178.9970  177.4880  141.2080 C   0  0  0  0  0  2  0  0  0  0  0  0
  182.6580  181.6490  138.6480 O   0  0  0  0  0  0  0  0  0  0  0  0
  181.6910  180.4990  138.6240 S   0  0  0  0  0  0  0  0  0  0  0  0
  181.4540  178.9490  136.3830 C   0  0  0  0  0  0  0  0  0  0  0  0
  182.5100  179.0290  139.1920 C   0  0  2  0  0  3  0  0  0  0  0  0
  179.6190  173.9280  140.6220 O   0  0  0  0  0  0  0  0  0  0  0  0
  182.2590  176.6670  139.6630 C   0  0  2  0  0  3  0  0  0  0  0  0
  182.2850  178.0880  136.8950 N   0  0  0  0  0  0  0  0  0  0  0  0
  181.1870  180.2030  137.0070 N   0  0  0  0  0  2  0  0  0  0  0  0
  179.5230  175.1550  140.3660 C   0  0  0  0  0  0  0  0  0  0  0  0
  181.3980  178.3050  141.3320 C   0  0  0  0  0  0  0  0  0  0  0  0
  182.1490  175.1490  137.8830 C   0  0  0  0  0  0  0  0  0  0  0  0
  180.7490  178.6070  135.1960 N   0  0  0  0  0  1  0  0  0  0  0  0
  179.9510  175.6610  139.0280 C   0  0  0  0  0  2  0  0  0  0  0  0
  182.4760  178.7650  142.1080 C   0  0  0  0  0  3  0  0  0  0  0  0
  180.0080  178.3040  143.3270 C   0  0  0  0  0  3  0  0  0  0  0  0
  181.0810  178.7810  144.0820 C   0  0  0  0  0  3  0  0  0  0  0  0
  178.9900  176.0390  141.3550 N   0  0  0  0  0  2  0  0  0  0  0  0
  183.4620  176.9090  138.7320 C   0  0  2  0  0  3  0  0  0  0  0  0
  181.4060  175.7260  138.9420 N   0  0  0  0  0  0  0  0  0  0  0  0
  183.1740  178.2650  138.0590 C   0  0  2  0  0  3  0  0  0  0  0  0
  183.9090  175.9760  136.5050 O   0  0  0  0  0  1  0  0  0  0  0  0
  181.5850  178.0230  139.8630 C   0  0  1  0  0  3  0  0  0  0  0  0
  1 21  1  0  0  0  0
  3 17  2  0  0  0  0
  4 22  1  0  0  0  0
  5 27  1  6  0  0  0
  5 17  1  0  0  0  0
  5 24  1  0  0  0  0
  6 23  1  0  0  0  0
  6  1  1  0  0  0  0
  8  7  2  0  0  0  0
  8  2  2  0  0  0  0
  9 13  2  0  0  0  0
  9 14  1  0  0  0  0
 10  8  1  6  0  0  0
 10 28  1  0  0  0  0
 12 25  1  6  0  0  0
 12 28  1  0  0  0  0
 13 26  1  0  0  0  0
 14  8  1  0  0  0  0
 15 11  2  0  0  0  0
 15 23  1  0  0  0  0
 16  1  2  0  0  0  0
 16 20  1  0  0  0  0
 17 25  1  0  0  0  0
 18  9  1  0  0  0  0
 19 15  1  0  0  0  0
 20  4  2  0  0  0  0
 21 22  2  0  0  0  0
 24 12  1  0  0  0  0
 25 19  1  0  0  0  0
 26 24  1  0  0  0  0
 26 10  1  0  0  0  0
 28 16  1  0  0  0  0
M  END
>  <MODEL>
1

>  <REMARK>
 VINA RESULT:      -6.4      0.000      0.000
  Name = 
  0 active torsions:
  status: ('A' for Active; 'I' for Inactive)
                            x       y       z     vdW  Elec       q    Type
                         _______ _______ _______ _____ _____    ______ ____

>  <TORSDO>
F 0

$$$$
=
 OpenBabel11122411553D

 28 32  0  0  1  0  0  0  0  0999 V2000
  180.5710  180.7700  138.2100 C   0  0  0  0  0  0  0  0  0  0  0  0
  184.1760  180.5600  139.0680 O   0  0  0  0  0  0  0  0  0  0  0  0
  181.5590  175.2980  135.1670 O   0  0  0  0  0  0  0  0  0  0  0  0
  179.8060  180.5370  140.8970 C   0  0  0  0  0  3  0  0  0  0  0  0
  181.7240  175.0640  137.5740 C   0  0  2  0  0  3  0  0  0  0  0  0
  180.8890  180.8980  136.7550 C   0  0  0  0  0  2  0  0  0  0  0  0
  185.1040  179.0270  140.7550 O   0  0  0  0  0  0  0  0  0  0  0  0
  184.4830  179.1250  139.3910 S   0  0  0  0  0  0  0  0  0  0  0  0
  185.1760  177.3470  137.4320 C   0  0  0  0  0  0  0  0  0  0  0  0
  183.0040  178.1420  139.3450 C   0  0  2  0  0  3  0  0  0  0  0  0
  178.9330  178.4220  134.8980 O   0  0  0  0  0  0  0  0  0  0  0  0
  181.1380  177.4160  137.9830 C   0  0  2  0  0  3  0  0  0  0  0  0
  184.1360  176.6220  137.7270 N   0  0  0  0  0  0  0  0  0  0  0  0
  185.5580  178.4740  138.2170 N   0  0  0  0  0  2  0  0  0  0  0  0
  179.9370  178.9510  135.4400 C   0  0  0  0  0  0  0  0  0  0  0  0
  181.0550  179.6950  138.9850 C   0  0  0  0  0  0  0  0  0  0  0  0
  181.4930  175.8090  136.3170 C   0  0  0  0  0  0  0  0  0  0  0  0
  185.9220  177.0400  136.2610 N   0  0  0  0  0  1  0  0  0  0  0  0
  181.2210  178.1900  135.5070 C   0  0  0  0  0  2  0  0  0  0  0  0
  180.6520  179.5840  140.3270 C   0  0  0  0  0  3  0  0  0  0  0  0
  179.7190  181.7180  138.7890 C   0  0  0  0  0  3  0  0  0  0  0  0
  179.3420  181.6060  140.1290 C   0  0  0  0  0  3  0  0  0  0  0  0
  179.8350  180.2760  135.9670 N   0  0  0  0  0  2  0  0  0  0  0  0
  181.8560  176.2050  138.6090 C   0  0  2  0  0  3  0  0  0  0  0  0
  181.1610  177.1670  136.5440 N   0  0  0  0  0  0  0  0  0  0  0  0
  183.2780  176.7080  138.9240 C   0  0  2  0  0  3  0  0  0  0  0  0
  182.8640  174.2600  137.5000 O   0  0  0  0  0  1  0  0  0  0  0  0
  181.9510  178.6500  138.3710 C   0  0  1  0  0  3  0  0  0  0  0  0
  1 21  2  0  0  0  0
  1 16  1  0  0  0  0
  2  8  2  0  0  0  0
  3 17  2  0  0  0  0
  5 27  1  6  0  0  0
  5 24  1  0  0  0  0
  6  1  1  0  0  0  0
  8  7  2  0  0  0  0
  9 13  2  0  0  0  0
  9 14  1  0  0  0  0
 10  8  1  6  0  0  0
 11 15  2  0  0  0  0
 12 25  1  6  0  0  0
 12 28  1  0  0  0  0
 12 24  1  0  0  0  0
 13 26  1  0  0  0  0
 14  8  1  0  0  0  0
 15 19  1  0  0  0  0
 15 23  1  0  0  0  0
 16 20  2  0  0  0  0
 17 25  1  0  0  0  0
 17  5  1  0  0  0  0
 18  9  1  0  0  0  0
 19 25  1  0  0  0  0
 20  4  1  0  0  0  0
 21 22  1  0  0  0  0
 22  4  2  0  0  0  0
 23  6  1  0  0  0  0
 24 26  1  0  0  0  0
 26 10  1  0  0  0  0
 28 16  1  0  0  0  0
 28 10  1  0  0  0  0
M  END
>  <MODEL>
2

>  <REMARK>
 VINA RESULT:      -5.5      2.588      4.072
  Name = 
  0 active torsions:
  status: ('A' for Active; 'I' for Inactive)
                            x       y       z     vdW  Elec       q    Type
                         _______ _______ _______ _____ _____    ______ ____

>  <TORSDO>
F 0

$$$$
=
 OpenBabel11122411553D

 28 32  0  0  1  0  0  0  0  0999 V2000
  185.5300  175.7300  136.9480 C   0  0  0  0  0  0  0  0  0  0  0  0
  182.7060  175.2160  134.5940 O   0  0  0  0  0  0  0  0  0  0  0  0
  181.3780  179.1650  140.2850 O   0  0  0  0  0  0  0  0  0  0  0  0
  185.6340  173.0030  137.5910 C   0  0  0  0  0  3  0  0  0  0  0  0
  180.8440  176.8000  140.2920 C   0  0  2  0  0  3  0  0  0  0  0  0
  185.5430  177.1980  136.6650 C   0  0  0  0  0  2  0  0  0  0  0  0
  180.8070  173.7120  135.0280 O   0  0  0  0  0  0  0  0  0  0  0  0
  181.4650  175.0060  135.4140 S   0  0  0  0  0  0  0  0  0  0  0  0
  179.9510  177.1210  136.2610 C   0  0  0  0  0  0  0  0  0  0  0  0
  181.8550  174.9760  137.1470 C   0  0  2  0  0  3  0  0  0  0  0  0
  185.4410  179.0120  139.8430 O   0  0  0  0  0  0  0  0  0  0  0  0
  182.8390  176.2030  138.9870 C   0  0  2  0  0  3  0  0  0  0  0  0
  180.1680  176.7760  137.4970 N   0  0  0  0  0  0  0  0  0  0  0  0
  180.3690  176.3080  135.1670 N   0  0  0  0  0  2  0  0  0  0  0  0
  185.0260  178.5330  138.7570 C   0  0  0  0  0  0  0  0  0  0  0  0
  184.3610  175.0660  137.3750 C   0  0  0  0  0  0  0  0  0  0  0  0
  181.6550  177.9860  139.9380 C   0  0  0  0  0  0  0  0  0  0  0  0
  179.3280  178.3700  135.9920 N   0  0  0  0  0  1  0  0  0  0  0  0
  183.5750  178.6270  138.4200 C   0  0  0  0  0  2  0  0  0  0  0  0
  184.4320  173.7020  137.7070 C   0  0  0  0  0  3  0  0  0  0  0  0
  186.7320  175.0210  136.8380 C   0  0  0  0  0  3  0  0  0  0  0  0
  186.7840  173.6620  137.1520 C   0  0  0  0  0  3  0  0  0  0  0  0
  185.9560  177.9220  137.8590 N   0  0  0  0  0  2  0  0  0  0  0  0
  181.4240  175.7170  139.3550 C   0  0  2  0  0  3  0  0  0  0  0  0
  182.8040  177.6500  139.1800 N   0  0  0  0  0  0  0  0  0  0  0  0
  180.7160  175.5030  138.0030 C   0  0  2  0  0  3  0  0  0  0  0  0
  179.4790  177.0240  140.0880 O   0  0  0  0  0  1  0  0  0  0  0  0
  183.0640  175.8190  137.5260 C   0  0  1  0  0  3  0  0  0  0  0  0
  1 16  1  0  0  0  0
  2  8  2  0  0  0  0
  4 20  1  0  0  0  0
  5 27  1  6  0  0  0
  6  1  1  0  0  0  0
  6 23  1  0  0  0  0
  7  8  2  0  0  0  0
  9 13  2  0  0  0  0
 10  8  1  6  0  0  0
 10 28  1  0  0  0  0
 10 26  1  0  0  0  0
 12 25  1  6  0  0  0
 12 24  1  0  0  0  0
 13 26  1  0  0  0  0
 14  8  1  0  0  0  0
 14  9  1  0  0  0  0
 15 11  2  0  0  0  0
 16 28  1  0  0  0  0
 16 20  2  0  0  0  0
 17  3  2  0  0  0  0
 17  5  1  0  0  0  0
 18  9  1  0  0  0  0
 19 15  1  0  0  0  0
 19 25  1  0  0  0  0
 21  1  2  0  0  0  0
 21 22  1  0  0  0  0
 22  4  2  0  0  0  0
 23 15  1  0  0  0  0
 24  5  1  0  0  0  0
 25 17  1  0  0  0  0
 26 24  1  0  0  0  0
 28 12  1  0  0  0  0
M  END
>  <MODEL>
3

>  <REMARK>
 VINA RESULT:      -5.3      2.624      6.134
  Name = 
  0 active torsions:
  status: ('A' for Active; 'I' for Inactive)
                            x       y       z     vdW  Elec       q    Type
                         _______ _______ _______ _____ _____    ______ ____

>  <TORSDO>
F 0

$$$$
=
 OpenBabel11122411553D

 28 32  0  0  1  0  0  0  0  0999 V2000
  182.6250  176.2710  138.2690 C   0  0  0  0  0  0  0  0  0  0  0  0
  184.6190  173.1780  137.7860 O   0  0  0  0  0  0  0  0  0  0  0  0
  188.0470  179.2890  136.9790 O   0  0  0  0  0  0  0  0  0  0  0  0
  181.0020  175.7020  136.0550 C   0  0  0  0  0  3  0  0  0  0  0  0
  187.1460  178.1350  135.0470 C   0  0  2  0  0  3  0  0  0  0  0  0
  183.4420  176.6520  139.4620 C   0  0  0  0  0  2  0  0  0  0  0  0
  185.3370  172.3300  135.5890 O   0  0  0  0  0  0  0  0  0  0  0  0
  185.5360  173.4070  136.6180 S   0  0  0  0  0  0  0  0  0  0  0  0
  187.9960  174.5560  136.9500 C   0  0  0  0  0  0  0  0  0  0  0  0
  185.2260  174.9930  135.8790 C   0  0  2  0  0  3  0  0  0  0  0  0
  184.6080  180.0970  139.0390 O   0  0  0  0  0  0  0  0  0  0  0  0
  185.1430  177.3830  136.2570 C   0  0  2  0  0  3  0  0  0  0  0  0
  187.6420  175.5320  136.1650 N   0  0  0  0  0  0  0  0  0  0  0  0
  187.1730  173.4080  137.1450 N   0  0  0  0  0  2  0  0  0  0  0  0
  184.6590  178.8410  139.0690 C   0  0  0  0  0  0  0  0  0  0  0  0
  183.2180  175.9960  137.0190 C   0  0  0  0  0  0  0  0  0  0  0  0
  187.1440  178.5810  136.4580 C   0  0  0  0  0  0  0  0  0  0  0  0
  189.2130  174.6610  137.6780 N   0  0  0  0  0  1  0  0  0  0  0  0
  185.9030  178.1470  138.6190 C   0  0  0  0  0  2  0  0  0  0  0  0
  182.3910  175.7270  135.9150 C   0  0  0  0  0  3  0  0  0  0  0  0
  181.2310  176.2480  138.3990 C   0  0  0  0  0  3  0  0  0  0  0  0
  180.4230  175.9590  137.2970 C   0  0  0  0  0  3  0  0  0  0  0  0
  183.5330  178.1030  139.5490 N   0  0  0  0  0  2  0  0  0  0  0  0
  186.0380  177.0570  135.0470 C   0  0  2  0  0  3  0  0  0  0  0  0
  185.9960  178.1470  137.1630 N   0  0  0  0  0  0  0  0  0  0  0  0
  186.4770  175.5960  135.2620 C   0  0  2  0  0  3  0  0  0  0  0  0
  188.3930  177.6350  134.6610 O   0  0  0  0  0  1  0  0  0  0  0  0
  184.7150  176.0430  136.8540 C   0  0  1  0  0  3  0  0  0  0  0  0
  1 21  1  0  0  0  0
  1  6  1  0  0  0  0
  4 22  1  0  0  0  0
  5 27  1  1  0  0  0
  5 17  1  0  0  0  0
  6 23  1  0  0  0  0
  7  8  2  0  0  0  0
  8 14  1  0  0  0  0
  8  2  2  0  0  0  0
  9 14  1  0  0  0  0
  9 18  1  0  0  0  0
 10  8  1  1  0  0  0
 10 28  1  0  0  0  0
 11 15  2  0  0  0  0
 12 28  1  0  0  0  0
 12 25  1  1  0  0  0
 13  9  2  0  0  0  0
 15 23  1  0  0  0  0
 16  1  2  0  0  0  0
 17  3  2  0  0  0  0
 17 25  1  0  0  0  0
 19 15  1  0  0  0  0
 20  4  2  0  0  0  0
 20 16  1  0  0  0  0
 22 21  2  0  0  0  0
 24  5  1  0  0  0  0
 24 26  1  0  0  0  0
 24 12  1  0  0  0  0
 25 19  1  0  0  0  0
 26 10  1  0  0  0  0
 26 13  1  0  0  0  0
 28 16  1  0  0  0  0
M  END
>  <MODEL>
4

>  <REMARK>
 VINA RESULT:      -5.2      4.048      6.777
  Name = 
  0 active torsions:
  status: ('A' for Active; 'I' for Inactive)
                            x       y       z     vdW  Elec       q    Type
                         _______ _______ _______ _____ _____    ______ ____

>  <TORSDO>
F 0

$$$$
=
 OpenBabel11122411553D

 28 32  0  0  1  0  0  0  0  0999 V2000
  185.5970  176.9200  137.4710 C   0  0  0  0  0  0  0  0  0  0  0  0
  183.0130  177.4850  134.8660 O   0  0  0  0  0  0  0  0  0  0  0  0
  181.3150  179.3780  141.4450 O   0  0  0  0  0  0  0  0  0  0  0  0
  185.4810  174.1380  137.1390 C   0  0  0  0  0  3  0  0  0  0  0  0
  180.6520  177.2080  140.5930 C   0  0  2  0  0  3  0  0  0  0  0  0
  185.7230  178.3900  137.7130 C   0  0  0  0  0  2  0  0  0  0  0  0
  180.9980  176.0980  134.6020 O   0  0  0  0  0  0  0  0  0  0  0  0
  181.6830  177.1210  135.4620 S   0  0  0  0  0  0  0  0  0  0  0  0
  180.2090  178.9500  136.8630 C   0  0  0  0  0  0  0  0  0  0  0  0
  181.8860  176.4720  137.1030 C   0  0  2  0  0  3  0  0  0  0  0  0
  185.3870  179.0240  141.3040 O   0  0  0  0  0  0  0  0  0  0  0  0
  182.7370  176.9120  139.3260 C   0  0  2  0  0  3  0  0  0  0  0  0
  180.2750  178.1900  137.9170 N   0  0  0  0  0  0  0  0  0  0  0  0
  180.6930  178.5220  135.5920 N   0  0  0  0  0  2  0  0  0  0  0  0
  185.0640  178.9790  140.0890 C   0  0  0  0  0  0  0  0  0  0  0  0
  184.3540  176.2580  137.5470 C   0  0  0  0  0  0  0  0  0  0  0  0
  181.5610  178.3660  140.7360 C   0  0  0  0  0  0  0  0  0  0  0  0
  179.6890  180.2670  136.9930 N   0  0  0  0  0  1  0  0  0  0  0  0
  183.6630  179.3100  139.6910 C   0  0  0  0  0  2  0  0  0  0  0  0
  184.3140  174.8610  137.3930 C   0  0  0  0  0  3  0  0  0  0  0  0
  186.7630  176.1870  137.2190 C   0  0  0  0  0  3  0  0  0  0  0  0
  186.7050  174.8020  137.0480 C   0  0  0  0  0  3  0  0  0  0  0  0
  186.0470  178.6280  139.1130 N   0  0  0  0  0  2  0  0  0  0  0  0
  181.2670  176.4580  139.3890 C   0  0  2  0  0  3  0  0  0  0  0  0
  182.7630  178.2060  140.0030 N   0  0  0  0  0  0  0  0  0  0  0  0
  180.6940  176.7780  137.9950 C   0  0  2  0  0  3  0  0  0  0  0  0
  179.3310  177.6070  140.3710 O   0  0  0  0  0  1  0  0  0  0  0  0
  183.0930  177.0270  137.8450 C   0  0  1  0  0  3  0  0  0  0  0  0
  1 16  1  0  0  0  0
  1  6  1  0  0  0  0
  2  8  2  0  0  0  0
  4 20  1  0  0  0  0
  5 27  1  6  0  0  0
  5 17  1  0  0  0  0
  6 23  1  0  0  0  0
  7  8  2  0  0  0  0
  8 14  1  0  0  0  0
  9 18  1  0  0  0  0
  9 13  2  0  0  0  0
 10  8  1  6  0  0  0
 10 28  1  0  0  0  0
 10 26  1  0  0  0  0
 12 24  1  0  0  0  0
 12 25  1  1  0  0  0
 13 26  1  0  0  0  0
 14  9  1  0  0  0  0
 15 11  2  0  0  0  0
 16 28  1  0  0  0  0
 17  3  2  0  0  0  0
 19 25  1  0  0  0  0
 19 15  1  0  0  0  0
 20 16  2  0  0  0  0
 21  1  2  0  0  0  0
 22  4  2  0  0  0  0
 22 21  1  0  0  0  0
 23 15  1  0  0  0  0
 24  5  1  0  0  0  0
 25 17  1  0  0  0  0
 26 24  1  0  0  0  0
 28 12  1  0  0  0  0
M  END
>  <MODEL>
5

>  <REMARK>
 VINA RESULT:      -5.2      2.526      5.737
  Name = 
  0 active torsions:
  status: ('A' for Active; 'I' for Inactive)
                            x       y       z     vdW  Elec       q    Type
                         _______ _______ _______ _____ _____    ______ ____

>  <TORSDO>
F 0

$$$$
=
 OpenBabel11122411553D

 28 32  0  0  1  0  0  0  0  0999 V2000
  190.3590  173.8980  136.7080 C   0  0  0  0  0  0  0  0  0  0  0  0
  191.0120  175.6280  139.9270 O   0  0  0  0  0  0  0  0  0  0  0  0
  185.4410  177.8670  136.2250 O   0  0  0  0  0  0  0  0  0  0  0  0
  192.7650  174.8160  135.6010 C   0  0  0  0  0  3  0  0  0  0  0  0
  187.5730  179.0030  136.0230 C   0  0  2  0  0  3  0  0  0  0  0  0
  189.0580  173.3660  137.2190 C   0  0  0  0  0  2  0  0  0  0  0  0
  191.9700  177.8880  140.1070 O   0  0  0  0  0  0  0  0  0  0  0  0
  190.7570  177.0930  139.7140 S   0  0  0  0  0  0  0  0  0  0  0  0
  188.2560  178.1580  140.0190 C   0  0  0  0  0  0  0  0  0  0  0  0
  190.3630  177.4210  138.0130 C   0  0  2  0  0  3  0  0  0  0  0  0
  186.4280  174.1640  134.7990 O   0  0  0  0  0  0  0  0  0  0  0  0
  188.8590  176.9140  136.1850 C   0  0  2  0  0  3  0  0  0  0  0  0
  188.2690  178.5360  138.7740 N   0  0  0  0  0  0  0  0  0  0  0  0
  189.4060  177.5990  140.6500 N   0  0  0  0  0  2  0  0  0  0  0  0
  187.1150  174.2470  135.8490 C   0  0  0  0  0  0  0  0  0  0  0  0
  190.6560  175.2770  136.7260 C   0  0  0  0  0  0  0  0  0  0  0  0
  186.6990  177.8210  136.1940 C   0  0  0  0  0  0  0  0  0  0  0  0
  187.0440  178.2530  140.7570 N   0  0  0  0  0  1  0  0  0  0  0  0
  186.8650  175.3700  136.8010 C   0  0  0  0  0  2  0  0  0  0  0  0
  191.8600  175.7230  136.1540 C   0  0  0  0  0  3  0  0  0  0  0  0
  191.2700  172.9960  136.1470 C   0  0  0  0  0  3  0  0  0  0  0  0
  192.4720  173.4520  135.6010 C   0  0  0  0  0  3  0  0  0  0  0  0
  188.1100  173.2570  136.1190 N   0  0  0  0  0  2  0  0  0  0  0  0
  188.9620  178.4370  136.3950 C   0  0  2  0  0  3  0  0  0  0  0  0
  187.4340  176.6140  136.2940 N   0  0  0  0  0  0  0  0  0  0  0  0
  189.4220  178.6040  137.8560 C   0  0  2  0  0  3  0  0  0  0  0  0
  187.1790  180.0640  136.8440 O   0  0  0  0  0  1  0  0  0  0  0  0
  189.6750  176.2650  137.3010 C   0  0  1  0  0  3  0  0  0  0  0  0
  1 16  1  0  0  0  0
  1  6  1  0  0  0  0
  4 22  2  0  0  0  0
  4 20  1  0  0  0  0
  5 17  1  0  0  0  0
  5 24  1  0  0  0  0
  5 27  1  1  0  0  0
  8  2  2  0  0  0  0
  8  7  2  0  0  0  0
  8 14  1  0  0  0  0
  9 14  1  0  0  0  0
  9 18  1  0  0  0  0
 10  8  1  1  0  0  0
 11 15  2  0  0  0  0
 12 25  1  1  0  0  0
 12 24  1  0  0  0  0
 12 28  1  0  0  0  0
 13  9  2  0  0  0  0
 15 23  1  0  0  0  0
 15 19  1  0  0  0  0
 16 28  1  0  0  0  0
 17  3  2  0  0  0  0
 17 25  1  0  0  0  0
 20 16  2  0  0  0  0
 21  1  2  0  0  0  0
 22 21  1  0  0  0  0
 23  6  1  0  0  0  0
 24 26  1  0  0  0  0
 25 19  1  0  0  0  0
 26 10  1  0  0  0  0
 26 13  1  0  0  0  0
 28 10  1  0  0  0  0
M  END
>  <MODEL>
6

>  <REMARK>
 VINA RESULT:      -5.0      6.725      9.479
  Name = 
  0 active torsions:
  status: ('A' for Active; 'I' for Inactive)
                            x       y       z     vdW  Elec       q    Type
                         _______ _______ _______ _____ _____    ______ ____

>  <TORSDO>
F 0

$$$$
=
 OpenBabel11122411553D

 28 32  0  0  1  0  0  0  0  0999 V2000
  180.6580  175.3710  137.5940 C   0  0  0  0  0  0  0  0  0  0  0  0
  178.9310  178.4840  138.6420 O   0  0  0  0  0  0  0  0  0  0  0  0
  185.9560  178.8130  138.1020 O   0  0  0  0  0  0  0  0  0  0  0  0
  179.8680  174.0190  139.9190 C   0  0  0  0  0  3  0  0  0  0  0  0
  184.9190  178.3840  140.2510 C   0  0  2  0  0  3  0  0  0  0  0  0
  181.1240  176.0150  136.3280 C   0  0  0  0  0  2  0  0  0  0  0  0
  178.9330  179.3520  140.9460 O   0  0  0  0  0  0  0  0  0  0  0  0
  179.7650  179.1260  139.7150 S   0  0  0  0  0  0  0  0  0  0  0  0
  181.7970  180.8470  139.0920 C   0  0  0  0  0  0  0  0  0  0  0  0
  181.1570  178.1020  140.1250 C   0  0  2  0  0  3  0  0  0  0  0  0
  184.7370  175.5160  136.0110 O   0  0  0  0  0  0  0  0  0  0  0  0
  183.1380  177.0020  139.2720 C   0  0  2  0  0  3  0  0  0  0  0  0
  182.6460  180.0480  139.6720 N   0  0  0  0  0  0  0  0  0  0  0  0
  180.3900  180.6270  139.1560 N   0  0  0  0  0  2  0  0  0  0  0  0
  183.6550  176.1170  136.2360 C   0  0  0  0  0  0  0  0  0  0  0  0
  180.9230  175.9390  138.8570 C   0  0  0  0  0  0  0  0  0  0  0  0
  185.0370  178.2810  138.7790 C   0  0  0  0  0  0  0  0  0  0  0  0
  182.2900  181.9390  138.3270 N   0  0  0  0  0  1  0  0  0  0  0  0
  183.6870  177.5050  136.7850 C   0  0  0  0  0  2  0  0  0  0  0  0
  180.5340  175.2430  140.0150 C   0  0  0  0  0  3  0  0  0  0  0  0
  179.9950  174.1410  137.5080 C   0  0  0  0  0  3  0  0  0  0  0  0
  179.5960  173.4700  138.6660 C   0  0  0  0  0  3  0  0  0  0  0  0
  182.4170  175.4640  135.9460 N   0  0  0  0  0  2  0  0  0  0  0  0
  183.4840  177.8650  140.4990 C   0  0  2  0  0  3  0  0  0  0  0  0
  184.0100  177.4910  138.2070 N   0  0  0  0  0  0  0  0  0  0  0  0
  182.3590  178.9160  140.5730 C   0  0  2  0  0  3  0  0  0  0  0  0
  185.1100  179.6940  140.6970 O   0  0  0  0  0  1  0  0  0  0  0  0
  181.6610  177.2480  138.9700 C   0  0  1  0  0  3  0  0  0  0  0  0
  1 16  1  0  0  0  0
  2  8  2  0  0  0  0
  3 17  2  0  0  0  0
  4 20  1  0  0  0  0
  5 24  1  0  0  0  0
  5 27  1  6  0  0  0
  6  1  1  0  0  0  0
  8  7  2  0  0  0  0
  9 14  1  0  0  0  0
  9 13  2  0  0  0  0
 10  8  1  6  0  0  0
 10 26  1  0  0  0  0
 11 15  2  0  0  0  0
 12 25  1  6  0  0  0
 12 24  1  0  0  0  0
 13 26  1  0  0  0  0
 14  8  1  0  0  0  0
 15 19  1  0  0  0  0
 16 28  1  0  0  0  0
 16 20  2  0  0  0  0
 17  5  1  0  0  0  0
 18  9  1  0  0  0  0
 19 25  1  0  0  0  0
 21  1  2  0  0  0  0
 21 22  1  0  0  0  0
 22  4  2  0  0  0  0
 23 15  1  0  0  0  0
 23  6  1  0  0  0  0
 24 26  1  0  0  0  0
 25 17  1  0  0  0  0
 28 12  1  0  0  0  0
 28 10  1  0  0  0  0
M  END
>  <MODEL>
7

>  <REMARK>
 VINA RESULT:      -5.0      2.650      4.701
  Name = 
  0 active torsions:
  status: ('A' for Active; 'I' for Inactive)
                            x       y       z     vdW  Elec       q    Type
                         _______ _______ _______ _____ _____    ______ ____

>  <TORSDO>
F 0

$$$$
=
 OpenBabel11122411553D

 28 32  0  0  1  0  0  0  0  0999 V2000
  184.1920  175.9780  135.5440 C   0  0  0  0  0  0  0  0  0  0  0  0
  181.2040  178.1450  135.1470 O   0  0  0  0  0  0  0  0  0  0  0  0
  185.3200  179.4500  140.7250 O   0  0  0  0  0  0  0  0  0  0  0  0
  182.6170  173.6930  135.9400 C   0  0  0  0  0  3  0  0  0  0  0  0
  183.3610  178.0420  140.9600 C   0  0  2  0  0  3  0  0  0  0  0  0
  185.1060  177.1440  135.3430 C   0  0  0  0  0  2  0  0  0  0  0  0
  179.1720  177.9550  136.5220 O   0  0  0  0  0  0  0  0  0  0  0  0
  180.6180  178.3630  136.5130 S   0  0  0  0  0  0  0  0  0  0  0  0
  181.4830  180.4000  138.1200 C   0  0  0  0  0  0  0  0  0  0  0  0
  181.5030  177.4230  137.7340 C   0  0  2  0  0  3  0  0  0  0  0  0
  187.5250  177.2300  138.0910 O   0  0  0  0  0  0  0  0  0  0  0  0
  183.6630  177.0130  138.7480 C   0  0  2  0  0  3  0  0  0  0  0  0
  181.8540  179.5310  139.0160 N   0  0  0  0  0  0  0  0  0  0  0  0
  180.7540  180.0190  136.9560 N   0  0  0  0  0  2  0  0  0  0  0  0
  186.5210  177.5550  137.4060 C   0  0  0  0  0  0  0  0  0  0  0  0
  183.1840  175.9860  136.5300 C   0  0  0  0  0  0  0  0  0  0  0  0
  184.5400  178.5830  140.2480 C   0  0  0  0  0  0  0  0  0  0  0  0
  181.8640  181.7610  138.2800 N   0  0  0  0  0  1  0  0  0  0  0  0
  185.5700  178.5770  137.9370 C   0  0  0  0  0  2  0  0  0  0  0  0
  182.4120  174.8270  136.7270 C   0  0  0  0  0  3  0  0  0  0  0  0
  184.3940  174.8340  134.7620 C   0  0  0  0  0  3  0  0  0  0  0  0
  183.6060  173.6970  134.9560 C   0  0  0  0  0  3  0  0  0  0  0  0
  186.3200  176.9530  136.1250 N   0  0  0  0  0  2  0  0  0  0  0  0
  182.6050  177.3110  139.8280 C   0  0  2  0  0  3  0  0  0  0  0  0
  184.7170  178.0000  138.9700 N   0  0  0  0  0  0  0  0  0  0  0  0
  181.5030  178.1000  139.0940 C   0  0  2  0  0  3  0  0  0  0  0  0
  182.6040  179.0540  141.5570 O   0  0  0  0  0  1  0  0  0  0  0  0
  182.9710  177.1980  137.3990 C   0  0  1  0  0  3  0  0  0  0  0  0
  1 16  1  0  0  0  0
  2  8  2  0  0  0  0
  4 20  1  0  0  0  0
  5 27  1  6  0  0  0
  6  1  1  0  0  0  0
  6 23  1  0  0  0  0
  8  7  2  0  0  0  0
  8 14  1  0  0  0  0
  9 18  1  0  0  0  0
  9 13  2  0  0  0  0
 10  8  1  6  0  0  0
 10 26  1  0  0  0  0
 12 25  1  6  0  0  0
 12 24  1  0  0  0  0
 13 26  1  0  0  0  0
 14  9  1  0  0  0  0
 15 19  1  0  0  0  0
 15 11  2  0  0  0  0
 16 20  2  0  0  0  0
 16 28  1  0  0  0  0
 17  3  2  0  0  0  0
 17  5  1  0  0  0  0
 19 25  1  0  0  0  0
 21 22  1  0  0  0  0
 21  1  2  0  0  0  0
 22  4  2  0  0  0  0
 23 15  1  0  0  0  0
 24  5  1  0  0  0  0
 25 17  1  0  0  0  0
 26 24  1  0  0  0  0
 28 10  1  0  0  0  0
 28 12  1  0  0  0  0
M  END
>  <MODEL>
8

>  <REMARK>
 VINA RESULT:      -4.9      3.032      6.121
  Name = 
  0 active torsions:
  status: ('A' for Active; 'I' for Inactive)
                            x       y       z     vdW  Elec       q    Type
                         _______ _______ _______ _____ _____    ______ ____

>  <TORSDO>
F 0

$$$$
=
 OpenBabel11122411553D

 28 32  0  0  1  0  0  0  0  0999 V2000
  181.1340  178.2960  137.2330 C   0  0  0  0  0  0  0  0  0  0  0  0
  180.9620  174.6240  136.7220 O   0  0  0  0  0  0  0  0  0  0  0  0
  187.3390  177.3170  138.0750 O   0  0  0  0  0  0  0  0  0  0  0  0
  180.3390  178.8110  134.5940 C   0  0  0  0  0  3  0  0  0  0  0  0
  186.6410  176.9310  135.7860 C   0  0  2  0  0  3  0  0  0  0  0  0
  181.5630  178.1130  138.6530 C   0  0  0  0  0  2  0  0  0  0  0  0
  181.7300  173.4790  134.6830 O   0  0  0  0  0  0  0  0  0  0  0  0
  182.1640  174.2220  135.9150 S   0  0  0  0  0  0  0  0  0  0  0  0
  184.5440  173.6180  137.1190 C   0  0  0  0  0  0  0  0  0  0  0  0
  183.1070  175.6500  135.4400 C   0  0  2  0  0  3  0  0  0  0  0  0
  184.5800  180.1030  139.2380 O   0  0  0  0  0  0  0  0  0  0  0  0
  184.3170  177.5910  136.2360 C   0  0  2  0  0  3  0  0  0  0  0  0
  185.1140  174.5930  136.4710 N   0  0  0  0  0  0  0  0  0  0  0  0
  183.1990  173.2240  136.8570 N   0  0  0  0  0  2  0  0  0  0  0  0
  183.8740  179.0820  139.0370 C   0  0  0  0  0  0  0  0  0  0  0  0
  181.8280  177.6950  136.1630 C   0  0  0  0  0  0  0  0  0  0  0  0
  186.4310  177.3070  137.2020 C   0  0  0  0  0  0  0  0  0  0  0  0
  185.2640  172.9640  138.1560 N   0  0  0  0  0  1  0  0  0  0  0  0
  184.5380  177.7630  138.8170 C   0  0  0  0  0  2  0  0  0  0  0  0
  181.4270  177.9740  134.8450 C   0  0  0  0  0  3  0  0  0  0  0  0
  180.0460  179.1390  136.9720 C   0  0  0  0  0  3  0  0  0  0  0  0
  179.6460  179.3910  135.6580 C   0  0  0  0  0  3  0  0  0  0  0  0
  182.4490  179.2020  139.0400 N   0  0  0  0  0  2  0  0  0  0  0  0
  185.1920  176.7640  135.2760 C   0  0  2  0  0  3  0  0  0  0  0  0
  185.0920  177.6820  137.4700 N   0  0  0  0  0  0  0  0  0  0  0  0
  184.5910  175.3450  135.3160 C   0  0  2  0  0  3  0  0  0  0  0  0
  187.4000  175.7640  135.6650 O   0  0  0  0  0  1  0  0  0  0  0  0
  183.0180  176.8080  136.4240 C   0  0  1  0  0  3  0  0  0  0  0  0
  1  6  1  0  0  0  0
  4 20  2  0  0  0  0
  4 22  1  0  0  0  0
  5 27  1  1  0  0  0
  5 17  1  0  0  0  0
  6 23  1  0  0  0  0
  7  8  2  0  0  0  0
  8  2  2  0  0  0  0
  8 14  1  0  0  0  0
  9 18  1  0  0  0  0
 10  8  1  1  0  0  0
 10 28  1  0  0  0  0
 12 28  1  0  0  0  0
 12 25  1  1  0  0  0
 13  9  2  0  0  0  0
 14  9  1  0  0  0  0
 15 23  1  0  0  0  0
 15 11  2  0  0  0  0
 16 28  1  0  0  0  0
 16  1  2  0  0  0  0
 17 25  1  0  0  0  0
 17  3  2  0  0  0  0
 19 15  1  0  0  0  0
 20 16  1  0  0  0  0
 21  1  1  0  0  0  0
 22 21  2  0  0  0  0
 24 26  1  0  0  0  0
 24  5  1  0  0  0  0
 24 12  1  0  0  0  0
 25 19  1  0  0  0  0
 26 10  1  0  0  0  0
 26 13  1  0  0  0  0
M  END
>  <MODEL>
9

>  <REMARK>
 VINA RESULT:      -4.8      3.475      6.045
  Name = 
  0 active torsions:
  status: ('A' for Active; 'I' for Inactive)
                            x       y       z     vdW  Elec       q    Type
                         _______ _______ _______ _____ _____    ______ ____

>  <TORSDO>
F 0

$$$$
