=
 OpenBabel11122410223D

 30 35  0  0  1  0  0  0  0  0999 V2000
  189.2920  177.3470  143.2760 C   0  0  1  0  0  3  0  0  0  0  0  0
  191.3190  176.6290  144.6630 C   0  0  0  0  0  0  0  0  0  0  0  0
  187.0790  177.7470  146.8610 N   0  0  0  0  0  2  0  0  0  0  0  0
  188.0200  178.1970  143.4410 C   0  0  1  0  0  3  0  0  0  0  0  0
  190.1720  177.9930  142.3820 O   0  0  0  0  0  0  0  0  0  0  0  0
  187.6450  178.5430  139.7210 N   0  0  0  0  0  1  0  0  0  0  0  0
  184.9130  177.8990  142.5640 C   0  0  1  0  0  3  0  0  0  0  0  0
  188.2910  178.7390  141.0140 C   0  0  2  0  0  3  0  0  0  0  0  0
  184.6990  178.0280  144.0620 C   0  0  2  0  0  3  0  0  0  0  0  0
  185.7990  178.2270  146.3440 C   0  0  1  0  0  3  0  0  0  0  0  0
  189.6090  177.9440  141.0850 C   0  0  2  0  0  3  0  0  0  0  0  0
  187.3870  178.3850  142.1200 N   0  0  0  0  0  0  0  0  0  0  0  0
  191.8990  176.3120  145.8950 C   0  0  0  0  0  3  0  0  0  0  0  0
  183.6030  179.0590  144.1900 C   0  0  0  0  0  2  0  0  0  0  0  0
  183.5590  178.2580  141.9780 C   0  0  0  0  0  2  0  0  0  0  0  0
  192.0990  176.5380  143.5160 O   0  0  0  0  0  1  0  0  0  0  0  0
  187.7990  177.3470  145.7260 N   0  0  0  0  0  0  0  0  0  0  0  0
  191.1410  176.3570  147.0650 C   0  0  0  0  0  3  0  0  0  0  0  0
  189.9650  177.0260  144.5990 C   0  0  0  0  0  0  0  0  0  0  0  0
  187.1040  177.5280  144.4700 C   0  0  1  0  0  3  0  0  0  0  0  0
  185.4430  179.5420  147.0100 C   0  0  0  0  0  1  0  0  0  0  0  0
  185.9520  178.4270  144.8400 C   0  0  1  0  0  3  0  0  0  0  0  0
  182.7930  178.9990  142.9790 N   0  0  0  0  0  2  0  0  0  0  0  0
  185.7240  179.9220  141.5330 O   0  0  0  0  0  0  0  0  0  0  0  0
  189.7920  176.7030  147.0080 C   0  0  0  0  0  3  0  0  0  0  0  0
  189.1940  177.0180  145.7820 C   0  0  0  0  0  0  0  0  0  0  0  0
  186.0080  178.7980  142.0310 C   0  0  0  0  0  0  0  0  0  0  0  0
  189.4980  176.5100  140.5420 C   0  0  0  0  0  2  0  0  0  0  0  0
  191.6030  177.0380  139.5490 O   0  0  0  0  0  1  0  0  0  0  0  0
  190.4320  176.3020  139.3630 C   0  0  0  0  0  2  0  0  0  0  0  0
  1  5  1  6  0  0  0
  1  4  1  0  0  0  0
  1 19  1  0  0  0  0
  2 13  1  0  0  0  0
  4 12  1  6  0  0  0
  4 20  1  0  0  0  0
  7 15  1  6  0  0  0
  7  9  1  0  0  0  0
  8  6  1  6  0  0  0
  8 11  1  0  0  0  0
  8 12  1  0  0  0  0
  9 14  1  6  0  0  0
  9 22  1  0  0  0  0
 10  3  1  0  0  0  0
 10 21  1  1  0  0  0
 11 28  1  1  0  0  0
 11  5  1  0  0  0  0
 13 18  2  0  0  0  0
 15 23  1  0  0  0  0
 16  2  1  0  0  0  0
 17 26  1  0  0  0  0
 17  3  1  0  0  0  0
 19  2  2  0  0  0  0
 19 26  1  0  0  0  0
 20 22  1  0  0  0  0
 20 17  1  1  0  0  0
 22 10  1  0  0  0  0
 23 14  1  0  0  0  0
 24 27  2  0  0  0  0
 25 18  1  0  0  0  0
 26 25  2  0  0  0  0
 27 12  1  0  0  0  0
 27  7  1  0  0  0  0
 30 29  1  0  0  0  0
 30 28  1  0  0  0  0
M  END
>  <MODEL>
1

>  <REMARK>
 VINA RESULT:      -9.8      0.000      0.000
  Name = 
  2 active torsions:
  status: ('A' for Active; 'I' for Inactive)
    1  A    between atoms: C_11  and  C_28
    2  A    between atoms: C_28  and  C_30
                            x       y       z     vdW  Elec       q    Type
                         _______ _______ _______ _____ _____    ______ ____

>  <TORSDO>
F 2

$$$$
=
 OpenBabel11122410223D

 30 35  0  0  1  0  0  0  0  0999 V2000
  188.7750  177.8620  141.7410 C   0  0  1  0  0  3  0  0  0  0  0  0
  189.9680  177.7010  139.4820 C   0  0  0  0  0  0  0  0  0  0  0  0
  185.1360  178.5190  139.6830 N   0  0  0  0  0  2  0  0  0  0  0  0
  187.3720  177.6270  142.3260 C   0  0  1  0  0  3  0  0  0  0  0  0
  189.6600  176.8840  142.2420 O   0  0  0  0  0  0  0  0  0  0  0  0
  188.7570  177.3730  145.8080 N   0  0  0  0  0  1  0  0  0  0  0  0
  185.4630  179.1750  144.4410 C   0  0  1  0  0  3  0  0  0  0  0  0
  188.5620  176.9590  144.4230 C   0  0  2  0  0  3  0  0  0  0  0  0
  184.5170  179.1870  143.2530 C   0  0  2  0  0  3  0  0  0  0  0  0
  184.1980  178.6050  140.8000 C   0  0  1  0  0  3  0  0  0  0  0  0
  189.8660  177.1300  143.6200 C   0  0  2  0  0  3  0  0  0  0  0  0
  187.4450  177.6870  143.8000 N   0  0  0  0  0  0  0  0  0  0  0  0
  189.9450  177.7780  138.0870 C   0  0  0  0  0  3  0  0  0  0  0  0
  183.2020  178.7140  143.8250 C   0  0  0  0  0  2  0  0  0  0  0  0
  184.5460  179.4020  145.6310 C   0  0  0  0  0  2  0  0  0  0  0  0
  191.1750  177.4270  140.1150 O   0  0  0  0  0  1  0  0  0  0  0  0
  186.4060  178.5500  140.2750 N   0  0  0  0  0  0  0  0  0  0  0  0
  188.7620  178.0850  137.4150 C   0  0  0  0  0  3  0  0  0  0  0  0
  188.7830  177.9060  140.2230 C   0  0  0  0  0  0  0  0  0  0  0  0
  186.4020  178.6440  141.7190 C   0  0  1  0  0  3  0  0  0  0  0  0
  183.0970  177.5780  140.6210 C   0  0  0  0  0  1  0  0  0  0  0  0
  184.9750  178.3200  142.0810 C   0  0  1  0  0  3  0  0  0  0  0  0
  183.1760  179.0750  145.2380 N   0  0  0  0  0  2  0  0  0  0  0  0
  185.8410  176.9730  145.3460 O   0  0  0  0  0  0  0  0  0  0  0  0
  187.5960  178.3340  138.1370 C   0  0  0  0  0  3  0  0  0  0  0  0
  187.6020  178.2660  139.5360 C   0  0  0  0  0  0  0  0  0  0  0  0
  186.2460  177.8870  144.5760 C   0  0  0  0  0  0  0  0  0  0  0  0
  190.5830  178.4640  143.8810 C   0  0  0  0  0  2  0  0  0  0  0  0
  191.9220  177.4030  145.5490 O   0  0  0  0  0  1  0  0  0  0  0  0
  191.9810  178.2300  144.4270 C   0  0  0  0  0  2  0  0  0  0  0  0
  1 19  1  6  0  0  0
  1  5  1  0  0  0  0
  1  4  1  0  0  0  0
  2 16  1  0  0  0  0
  2 19  1  0  0  0  0
  3 17  1  0  0  0  0
  3 10  1  0  0  0  0
  4 12  1  1  0  0  0
  5 11  1  0  0  0  0
  7 27  1  0  0  0  0
  7 15  1  1  0  0  0
  8  6  1  1  0  0  0
  9 14  1  1  0  0  0
  9  7  1  0  0  0  0
 10 21  1  6  0  0  0
 10 22  1  0  0  0  0
 11 28  1  6  0  0  0
 11  8  1  0  0  0  0
 12  8  1  0  0  0  0
 12 27  1  0  0  0  0
 13  2  2  0  0  0  0
 14 23  1  0  0  0  0
 18 13  1  0  0  0  0
 18 25  2  0  0  0  0
 20 17  1  6  0  0  0
 20 22  1  0  0  0  0
 20  4  1  0  0  0  0
 22  9  1  0  0  0  0
 23 15  1  0  0  0  0
 25 26  1  0  0  0  0
 26 19  2  0  0  0  0
 26 17  1  0  0  0  0
 27 24  2  0  0  0  0
 28 30  1  0  0  0  0
 30 29  1  0  0  0  0
M  END
>  <MODEL>
2

>  <REMARK>
 VINA RESULT:      -9.1      1.828      5.059
  Name = 
  2 active torsions:
  status: ('A' for Active; 'I' for Inactive)
    1  A    between atoms: C_11  and  C_28
    2  A    between atoms: C_28  and  C_30
                            x       y       z     vdW  Elec       q    Type
                         _______ _______ _______ _____ _____    ______ ____

>  <TORSDO>
F 2

$$$$
=
 OpenBabel11122410223D

 30 35  0  0  1  0  0  0  0  0999 V2000
  188.7570  177.5820  141.4630 C   0  0  1  0  0  3  0  0  0  0  0  0
  190.9560  177.0640  142.6680 C   0  0  0  0  0  0  0  0  0  0  0  0
  186.8840  178.0080  145.2340 N   0  0  0  0  0  2  0  0  0  0  0  0
  187.4530  178.3540  141.7220 C   0  0  1  0  0  3  0  0  0  0  0  0
  189.4990  178.2400  140.4600 O   0  0  0  0  0  0  0  0  0  0  0  0
  186.6910  178.4960  138.0470 N   0  0  0  0  0  1  0  0  0  0  0  0
  184.3020  177.8130  141.1750 C   0  0  1  0  0  3  0  0  0  0  0  0
  187.4450  178.7950  139.2590 C   0  0  2  0  0  3  0  0  0  0  0  0
  184.2280  177.9990  142.6810 C   0  0  2  0  0  3  0  0  0  0  0  0
  185.5300  178.3790  144.8300 C   0  0  1  0  0  3  0  0  0  0  0  0
  188.8170  178.0920  139.2290 C   0  0  2  0  0  3  0  0  0  0  0  0
  186.6810  178.4370  140.4640 N   0  0  0  0  0  0  0  0  0  0  0  0
  191.6750  176.8450  143.8460 C   0  0  0  0  0  3  0  0  0  0  0  0
  183.0810  178.9610  142.8760 C   0  0  0  0  0  2  0  0  0  0  0  0
  182.8750  178.0550  140.7140 C   0  0  0  0  0  2  0  0  0  0  0  0
  191.6240  176.9690  141.4520 O   0  0  0  0  0  1  0  0  0  0  0  0
  187.5160  177.6020  144.0500 N   0  0  0  0  0  0  0  0  0  0  0  0
  191.0340  176.8970  145.0840 C   0  0  0  0  0  3  0  0  0  0  0  0
  189.5780  177.3690  142.7240 C   0  0  0  0  0  0  0  0  0  0  0  0
  186.6900  177.6770  142.8640 C   0  0  1  0  0  3  0  0  0  0  0  0
  185.1500  179.6980  145.4730 C   0  0  0  0  0  1  0  0  0  0  0  0
  185.5210  178.5160  143.3110 C   0  0  1  0  0  3  0  0  0  0  0  0
  182.1620  178.7910  141.7560 N   0  0  0  0  0  2  0  0  0  0  0  0
  184.8660  179.8330  139.9850 O   0  0  0  0  0  0  0  0  0  0  0  0
  189.6650  177.1510  145.1500 C   0  0  0  0  0  3  0  0  0  0  0  0
  188.9290  177.3680  143.9780 C   0  0  0  0  0  0  0  0  0  0  0  0
  185.2750  178.7550  140.4980 C   0  0  0  0  0  0  0  0  0  0  0  0
  188.7520  176.6300  138.7600 C   0  0  0  0  0  2  0  0  0  0  0  0
  190.7910  175.3930  138.6520 O   0  0  0  0  0  1  0  0  0  0  0  0
  189.9760  176.2700  137.9360 C   0  0  0  0  0  2  0  0  0  0  0  0
  1  5  1  6  0  0  0
  1  4  1  0  0  0  0
  1 19  1  0  0  0  0
  2 19  2  0  0  0  0
  2 13  1  0  0  0  0
  4 12  1  6  0  0  0
  4 20  1  0  0  0  0
  7 15  1  6  0  0  0
  7  9  1  0  0  0  0
  8  6  1  6  0  0  0
  8 12  1  0  0  0  0
  9 14  1  6  0  0  0
  9 22  1  0  0  0  0
 10  3  1  0  0  0  0
 10 21  1  1  0  0  0
 11 28  1  1  0  0  0
 11  8  1  0  0  0  0
 11  5  1  0  0  0  0
 12 27  1  0  0  0  0
 13 18  2  0  0  0  0
 15 23  1  0  0  0  0
 16  2  1  0  0  0  0
 17  3  1  0  0  0  0
 18 25  1  0  0  0  0
 19 26  1  0  0  0  0
 20 22  1  0  0  0  0
 20 17  1  1  0  0  0
 22 10  1  0  0  0  0
 23 14  1  0  0  0  0
 24 27  2  0  0  0  0
 26 17  1  0  0  0  0
 26 25  2  0  0  0  0
 27  7  1  0  0  0  0
 30 29  1  0  0  0  0
 30 28  1  0  0  0  0
M  END
>  <MODEL>
3

>  <REMARK>
 VINA RESULT:      -9.1      1.448      1.800
  Name = 
  2 active torsions:
  status: ('A' for Active; 'I' for Inactive)
    1  A    between atoms: C_11  and  C_28
    2  A    between atoms: C_28  and  C_30
                            x       y       z     vdW  Elec       q    Type
                         _______ _______ _______ _____ _____    ______ ____

>  <TORSDO>
F 2

$$$$
=
 OpenBabel11122410223D

 30 35  0  0  1  0  0  0  0  0999 V2000
  186.4520  178.2980  140.6340 C   0  0  1  0  0  3  0  0  0  0  0  0
  187.2900  178.3270  138.2160 C   0  0  0  0  0  0  0  0  0  0  0  0
  190.4370  177.6930  141.9250 N   0  0  0  0  0  2  0  0  0  0  0  0
  186.9830  178.6070  142.0450 C   0  0  1  0  0  3  0  0  0  0  0  0
  185.4860  179.2620  140.2770 O   0  0  0  0  0  0  0  0  0  0  0  0
  183.4930  178.9470  143.3920 N   0  0  0  0  0  1  0  0  0  0  0  0
  186.7320  177.2130  144.9620 C   0  0  1  0  0  3  0  0  0  0  0  0
  184.6400  179.3130  142.5680 C   0  0  2  0  0  3  0  0  0  0  0  0
  188.2460  177.1890  144.8440 C   0  0  2  0  0  3  0  0  0  0  0  0
  190.2600  177.6850  143.3760 C   0  0  1  0  0  3  0  0  0  0  0  0
  184.3370  179.0630  141.0780 C   0  0  2  0  0  3  0  0  0  0  0  0
  185.8550  178.6020  142.9990 N   0  0  0  0  0  0  0  0  0  0  0  0
  188.3260  178.1960  137.2860 C   0  0  0  0  0  3  0  0  0  0  0  0
  188.7270  177.7320  146.1690 C   0  0  0  0  0  2  0  0  0  0  0  0
  186.4870  177.0670  146.4540 C   0  0  0  0  0  2  0  0  0  0  0  0
  186.0050  178.5810  137.7510 O   0  0  0  0  0  1  0  0  0  0  0  0
  189.1370  177.6390  141.4030 N   0  0  0  0  0  0  0  0  0  0  0  0
  189.6230  177.9060  137.7100 C   0  0  0  0  0  3  0  0  0  0  0  0
  187.5570  178.1940  139.5970 C   0  0  0  0  0  0  0  0  0  0  0  0
  188.0840  177.6020  142.3940 C   0  0  1  0  0  3  0  0  0  0  0  0
  191.1460  178.7440  144.0020 C   0  0  0  0  0  1  0  0  0  0  0  0
  188.7940  177.9920  143.6650 C   0  0  1  0  0  3  0  0  0  0  0  0
  187.7100  177.4270  147.1690 N   0  0  0  0  0  2  0  0  0  0  0  0
  185.8220  179.4340  145.1850 O   0  0  0  0  0  0  0  0  0  0  0  0
  189.8890  177.7280  139.0660 C   0  0  0  0  0  3  0  0  0  0  0  0
  188.8630  177.8500  140.0110 C   0  0  0  0  0  0  0  0  0  0  0  0
  186.1040  178.4760  144.4140 C   0  0  0  0  0  0  0  0  0  0  0  0
  183.6510  177.7150  140.8040 C   0  0  0  0  0  2  0  0  0  0  0  0
  181.7670  179.1100  140.3530 O   0  0  0  0  0  1  0  0  0  0  0  0
  182.3790  177.9080  139.9970 C   0  0  0  0  0  2  0  0  0  0  0  0
  1 19  1  6  0  0  0
  1  4  1  0  0  0  0
  2 19  1  0  0  0  0
  3 10  1  0  0  0  0
  4 20  1  0  0  0  0
  4 12  1  1  0  0  0
  5  1  1  0  0  0  0
  5 11  1  0  0  0  0
  7 15  1  1  0  0  0
  8 12  1  0  0  0  0
  8  6  1  1  0  0  0
  9  7  1  0  0  0  0
  9 14  1  1  0  0  0
 10 22  1  0  0  0  0
 10 21  1  1  0  0  0
 11 28  1  1  0  0  0
 11  8  1  0  0  0  0
 12 27  1  0  0  0  0
 13 18  1  0  0  0  0
 13  2  2  0  0  0  0
 14 23  1  0  0  0  0
 15 23  1  0  0  0  0
 16  2  1  0  0  0  0
 17  3  1  0  0  0  0
 18 25  2  0  0  0  0
 19 26  2  0  0  0  0
 20 17  1  6  0  0  0
 20 22  1  0  0  0  0
 22  9  1  0  0  0  0
 25 26  1  0  0  0  0
 26 17  1  0  0  0  0
 27  7  1  0  0  0  0
 27 24  2  0  0  0  0
 30 29  1  0  0  0  0
 30 28  1  0  0  0  0
M  END
>  <MODEL>
4

>  <REMARK>
 VINA RESULT:      -9.0      2.512      5.975
  Name = 
  2 active torsions:
  status: ('A' for Active; 'I' for Inactive)
    1  A    between atoms: C_11  and  C_28
    2  A    between atoms: C_28  and  C_30
                            x       y       z     vdW  Elec       q    Type
                         _______ _______ _______ _____ _____    ______ ____

>  <TORSDO>
F 2

$$$$
=
 OpenBabel11122410223D

 30 35  0  0  1  0  0  0  0  0999 V2000
  187.2330  178.2570  140.5970 C   0  0  1  0  0  3  0  0  0  0  0  0
  184.8480  178.7170  139.7930 C   0  0  0  0  0  0  0  0  0  0  0  0
  185.8050  178.2570  144.5810 N   0  0  0  0  0  2  0  0  0  0  0  0
  187.9430  177.5970  141.7930 C   0  0  1  0  0  3  0  0  0  0  0  0
  187.4380  177.4730  139.4420 O   0  0  0  0  0  0  0  0  0  0  0  0
  191.1200  177.2190  139.8260 N   0  0  0  0  0  1  0  0  0  0  0  0
  190.5230  178.3070  143.6240 C   0  0  1  0  0  3  0  0  0  0  0  0
  189.7210  176.9660  140.1490 C   0  0  2  0  0  3  0  0  0  0  0  0
  189.4860  178.2450  144.7320 C   0  0  2  0  0  3  0  0  0  0  0  0
  187.0310  177.9490  145.3140 C   0  0  1  0  0  3  0  0  0  0  0  0
  188.7990  177.5690  139.0710 C   0  0  2  0  0  3  0  0  0  0  0  0
  189.3830  177.4690  141.4900 N   0  0  0  0  0  0  0  0  0  0  0  0
  183.5020  178.9790  140.0640 C   0  0  0  0  0  3  0  0  0  0  0  0
  190.1300  177.3820  145.7910 C   0  0  0  0  0  2  0  0  0  0  0  0
  191.8410  178.1270  144.3570 C   0  0  0  0  0  2  0  0  0  0  0  0
  185.2640  178.6710  138.4670 O   0  0  0  0  0  1  0  0  0  0  0  0
  186.2260  178.5240  143.2710 N   0  0  0  0  0  0  0  0  0  0  0  0
  183.0520  179.0690  141.3810 C   0  0  0  0  0  3  0  0  0  0  0  0
  185.7580  178.5120  140.8530 C   0  0  0  0  0  0  0  0  0  0  0  0
  187.6530  178.4130  143.0560 C   0  0  1  0  0  3  0  0  0  0  0  0
  186.8160  176.7130  146.1660 C   0  0  0  0  0  1  0  0  0  0  0  0
  188.1320  177.6930  144.2900 C   0  0  1  0  0  3  0  0  0  0  0  0
  191.5760  177.5250  145.6630 N   0  0  0  0  0  2  0  0  0  0  0  0
  190.9720  176.1660  142.6090 O   0  0  0  0  0  0  0  0  0  0  0  0
  183.9490  178.9130  142.4360 C   0  0  0  0  0  3  0  0  0  0  0  0
  185.3020  178.6560  142.1820 C   0  0  0  0  0  0  0  0  0  0  0  0
  190.3290  177.2510  142.5570 C   0  0  0  0  0  0  0  0  0  0  0  0
  189.1970  178.9910  138.6430 C   0  0  0  0  0  2  0  0  0  0  0  0
  187.7710  179.4670  136.7890 O   0  0  0  0  0  1  0  0  0  0  0  0
  189.0860  179.1550  137.1380 C   0  0  0  0  0  2  0  0  0  0  0  0
  1  5  1  6  0  0  0
  1 19  1  0  0  0  0
  1  4  1  0  0  0  0
  2 13  2  0  0  0  0
  2 19  1  0  0  0  0
  3 10  1  0  0  0  0
  4 12  1  6  0  0  0
  4 20  1  0  0  0  0
  7 15  1  1  0  0  0
  7  9  1  0  0  0  0
  8  6  1  6  0  0  0
  8 12  1  0  0  0  0
  9 14  1  1  0  0  0
 10 21  1  6  0  0  0
 11 28  1  1  0  0  0
 11  5  1  0  0  0  0
 11  8  1  0  0  0  0
 12 27  1  0  0  0  0
 13 18  1  0  0  0  0
 15 23  1  0  0  0  0
 16  2  1  0  0  0  0
 17  3  1  0  0  0  0
 18 25  2  0  0  0  0
 19 26  2  0  0  0  0
 20 17  1  1  0  0  0
 20 22  1  0  0  0  0
 22  9  1  0  0  0  0
 22 10  1  0  0  0  0
 23 14  1  0  0  0  0
 26 25  1  0  0  0  0
 26 17  1  0  0  0  0
 27 24  2  0  0  0  0
 27  7  1  0  0  0  0
 29 30  1  0  0  0  0
 30 28  1  0  0  0  0
M  END
>  <MODEL>
5

>  <REMARK>
 VINA RESULT:      -8.1      2.271      5.688
  Name = 
  2 active torsions:
  status: ('A' for Active; 'I' for Inactive)
    1  A    between atoms: C_11  and  C_28
    2  A    between atoms: C_28  and  C_30
                            x       y       z     vdW  Elec       q    Type
                         _______ _______ _______ _____ _____    ______ ____

>  <TORSDO>
F 2

$$$$
=
 OpenBabel11122410223D

 30 35  0  0  1  0  0  0  0  0999 V2000
  187.4190  177.9000  142.6930 C   0  0  1  0  0  3  0  0  0  0  0  0
  186.3520  178.1590  145.0050 C   0  0  0  0  0  0  0  0  0  0  0  0
  183.7190  178.9860  140.9500 N   0  0  0  0  0  2  0  0  0  0  0  0
  187.2400  178.4530  141.2690 C   0  0  1  0  0  3  0  0  0  0  0  0
  188.6300  178.3840  143.2340 O   0  0  0  0  0  0  0  0  0  0  0  0
  190.7280  177.4310  140.3250 N   0  0  0  0  0  1  0  0  0  0  0  0
  187.3040  177.1980  138.2790 C   0  0  1  0  0  3  0  0  0  0  0  0
  189.7190  178.1890  141.0550 C   0  0  2  0  0  3  0  0  0  0  0  0
  185.8990  177.7740  138.2390 C   0  0  2  0  0  3  0  0  0  0  0  0
  184.0660  178.9690  139.5310 C   0  0  1  0  0  3  0  0  0  0  0  0
  189.7030  177.7770  142.5400 C   0  0  2  0  0  3  0  0  0  0  0  0
  188.3900  178.0390  140.4400 N   0  0  0  0  0  0  0  0  0  0  0  0
  185.2360  178.4120  145.8080 C   0  0  0  0  0  3  0  0  0  0  0  0
  185.8450  178.5180  136.9260 C   0  0  0  0  0  2  0  0  0  0  0  0
  187.6650  177.0290  136.8140 C   0  0  0  0  0  2  0  0  0  0  0  0
  187.5620  177.8600  145.6210 O   0  0  0  0  0  1  0  0  0  0  0  0
  184.8150  178.3970  141.5960 N   0  0  0  0  0  0  0  0  0  0  0  0
  183.9950  178.6800  145.2290 C   0  0  0  0  0  3  0  0  0  0  0  0
  186.2370  178.2010  143.5980 C   0  0  0  0  0  0  0  0  0  0  0  0
  185.8900  177.9850  140.7190 C   0  0  1  0  0  3  0  0  0  0  0  0
  183.7530  180.3180  138.9140 C   0  0  0  0  0  1  0  0  0  0  0  0
  185.5600  178.6780  139.4220 C   0  0  1  0  0  3  0  0  0  0  0  0
  186.7830  177.8760  136.0120 N   0  0  0  0  0  2  0  0  0  0  0  0
  189.0290  178.8810  138.3520 O   0  0  0  0  0  0  0  0  0  0  0  0
  183.8600  178.6800  143.8410 C   0  0  0  0  0  3  0  0  0  0  0  0
  184.9660  178.4230  143.0230 C   0  0  0  0  0  0  0  0  0  0  0  0
  188.2980  178.0830  139.0010 C   0  0  0  0  0  0  0  0  0  0  0  0
  189.7670  176.2580  142.7610 C   0  0  0  0  0  2  0  0  0  0  0  0
  191.6110  176.9900  144.0880 O   0  0  0  0  0  1  0  0  0  0  0  0
  191.0450  175.8680  143.4840 C   0  0  0  0  0  2  0  0  0  0  0  0
  1  5  1  1  0  0  0
  1 19  1  0  0  0  0
  2 16  1  0  0  0  0
  2 13  1  0  0  0  0
  3 17  1  0  0  0  0
  4 12  1  6  0  0  0
  4  1  1  0  0  0  0
  7 15  1  6  0  0  0
  7 27  1  0  0  0  0
  8  6  1  6  0  0  0
  8 11  1  0  0  0  0
  9 14  1  6  0  0  0
  9  7  1  0  0  0  0
  9 22  1  0  0  0  0
 10 21  1  1  0  0  0
 10  3  1  0  0  0  0
 11 28  1  6  0  0  0
 11  5  1  0  0  0  0
 12  8  1  0  0  0  0
 17 26  1  0  0  0  0
 18 13  2  0  0  0  0
 19  2  2  0  0  0  0
 20  4  1  0  0  0  0
 20 17  1  1  0  0  0
 22 10  1  0  0  0  0
 22 20  1  0  0  0  0
 23 15  1  0  0  0  0
 23 14  1  0  0  0  0
 24 27  2  0  0  0  0
 25 18  1  0  0  0  0
 26 19  1  0  0  0  0
 26 25  2  0  0  0  0
 27 12  1  0  0  0  0
 28 30  1  0  0  0  0
 30 29  1  0  0  0  0
M  END
>  <MODEL>
6

>  <REMARK>
 VINA RESULT:      -7.8      2.448      5.279
  Name = 
  2 active torsions:
  status: ('A' for Active; 'I' for Inactive)
    1  A    between atoms: C_11  and  C_28
    2  A    between atoms: C_28  and  C_30
                            x       y       z     vdW  Elec       q    Type
                         _______ _______ _______ _____ _____    ______ ____

>  <TORSDO>
F 2

$$$$
=
 OpenBabel11122410223D

 30 35  0  0  1  0  0  0  0  0999 V2000
  187.4460  177.7330  139.4940 C   0  0  1  0  0  3  0  0  0  0  0  0
  188.9200  177.3260  137.4420 C   0  0  0  0  0  0  0  0  0  0  0  0
  190.8580  177.2300  141.9470 N   0  0  0  0  0  2  0  0  0  0  0  0
  187.5870  178.2590  140.9330 C   0  0  1  0  0  3  0  0  0  0  0  0
  186.6950  178.6530  138.7320 O   0  0  0  0  0  0  0  0  0  0  0  0
  183.8990  178.9310  141.1570 N   0  0  0  0  0  1  0  0  0  0  0  0
  186.4310  177.3870  143.8350 C   0  0  1  0  0  3  0  0  0  0  0  0
  185.2540  179.1170  140.6500 C   0  0  2  0  0  3  0  0  0  0  0  0
  187.9120  177.2950  144.1590 C   0  0  2  0  0  3  0  0  0  0  0  0
  190.2860  177.4730  143.2700 C   0  0  1  0  0  3  0  0  0  0  0  0
  185.3570  178.6280  139.1920 C   0  0  2  0  0  3  0  0  0  0  0  0
  186.2430  178.4500  141.5130 N   0  0  0  0  0  0  0  0  0  0  0  0
  190.1590  177.0070  136.8790 C   0  0  0  0  0  3  0  0  0  0  0  0
  188.0480  178.0390  145.4670 C   0  0  0  0  0  2  0  0  0  0  0  0
  185.7720  177.5030  145.1980 C   0  0  0  0  0  2  0  0  0  0  0  0
  187.8380  177.5380  136.5960 O   0  0  0  0  0  1  0  0  0  0  0  0
  189.7530  177.1290  141.0900 N   0  0  0  0  0  0  0  0  0  0  0  0
  191.2620  176.7530  137.6950 C   0  0  0  0  0  3  0  0  0  0  0  0
  188.7830  177.4210  138.8450 C   0  0  0  0  0  0  0  0  0  0  0  0
  188.4670  177.2940  141.7320 C   0  0  1  0  0  3  0  0  0  0  0  0
  191.0430  178.5940  143.9540 C   0  0  0  0  0  1  0  0  0  0  0  0
  188.8250  177.8700  143.0780 C   0  0  1  0  0  3  0  0  0  0  0  0
  186.7740  177.9400  146.1690 N   0  0  0  0  0  2  0  0  0  0  0  0
  185.6710  179.6410  143.4450 O   0  0  0  0  0  0  0  0  0  0  0  0
  191.1270  176.7980  139.0810 C   0  0  0  0  0  3  0  0  0  0  0  0
  189.8920  177.1100  139.6620 C   0  0  0  0  0  0  0  0  0  0  0  0
  186.0800  178.5580  142.9430 C   0  0  0  0  0  0  0  0  0  0  0  0
  184.6710  177.2750  138.9430 C   0  0  0  0  0  2  0  0  0  0  0  0
  184.6740  176.2930  136.7670 O   0  0  0  0  0  1  0  0  0  0  0  0
  184.0300  177.2380  137.5670 C   0  0  0  0  0  2  0  0  0  0  0  0
  1  5  1  6  0  0  0
  1  4  1  0  0  0  0
  2 19  1  0  0  0  0
  3 10  1  0  0  0  0
  4 12  1  1  0  0  0
  4 20  1  0  0  0  0
  5 11  1  0  0  0  0
  7  9  1  0  0  0  0
  7 15  1  1  0  0  0
  8  6  1  1  0  0  0
  8 12  1  0  0  0  0
  9 14  1  1  0  0  0
 10 21  1  6  0  0  0
 11 28  1  1  0  0  0
 11  8  1  0  0  0  0
 12 27  1  0  0  0  0
 13  2  2  0  0  0  0
 13 18  1  0  0  0  0
 14 23  1  0  0  0  0
 15 23  1  0  0  0  0
 16  2  1  0  0  0  0
 17  3  1  0  0  0  0
 18 25  2  0  0  0  0
 19  1  1  0  0  0  0
 19 26  2  0  0  0  0
 20 17  1  6  0  0  0
 20 22  1  0  0  0  0
 22 10  1  0  0  0  0
 22  9  1  0  0  0  0
 25 26  1  0  0  0  0
 26 17  1  0  0  0  0
 27 24  2  0  0  0  0
 27  7  1  0  0  0  0
 29 30  1  0  0  0  0
 30 28  1  0  0  0  0
M  END
>  <MODEL>
7

>  <REMARK>
 VINA RESULT:      -7.5      2.529      5.492
  Name = 
  2 active torsions:
  status: ('A' for Active; 'I' for Inactive)
    1  A    between atoms: C_11  and  C_28
    2  A    between atoms: C_28  and  C_30
                            x       y       z     vdW  Elec       q    Type
                         _______ _______ _______ _____ _____    ______ ____

>  <TORSDO>
F 2

$$$$
=
 OpenBabel11122410223D

 30 35  0  0  1  0  0  0  0  0999 V2000
  186.4660  178.1460  142.2560 C   0  0  1  0  0  3  0  0  0  0  0  0
  186.1900  178.4430  144.7830 C   0  0  0  0  0  0  0  0  0  0  0  0
  182.2980  178.7280  141.8120 N   0  0  0  0  0  2  0  0  0  0  0  0
  185.7670  178.5840  140.9580 C   0  0  1  0  0  3  0  0  0  0  0  0
  187.7200  178.7870  142.3500 O   0  0  0  0  0  0  0  0  0  0  0  0
  188.8500  177.8680  138.9360 N   0  0  0  0  0  1  0  0  0  0  0  0
  184.9990  177.1490  138.1520 C   0  0  1  0  0  3  0  0  0  0  0  0
  188.0520  178.5640  139.9400 C   0  0  2  0  0  3  0  0  0  0  0  0
  183.6000  177.5730  138.5650 C   0  0  2  0  0  3  0  0  0  0  0  0
  182.1620  178.6540  140.3590 C   0  0  1  0  0  3  0  0  0  0  0  0
  188.5720  178.2500  141.3560 C   0  0  2  0  0  3  0  0  0  0  0  0
  186.6240  178.2370  139.8050 N   0  0  0  0  0  0  0  0  0  0  0  0
  185.3760  178.6320  145.9040 C   0  0  0  0  0  3  0  0  0  0  0  0
  183.0320  178.2200  137.3240 C   0  0  0  0  0  2  0  0  0  0  0  0
  184.8780  176.9240  136.6550 C   0  0  0  0  0  2  0  0  0  0  0  0
  187.5620  178.3120  144.9690 O   0  0  0  0  0  1  0  0  0  0  0  0
  183.6070  178.2990  142.0740 N   0  0  0  0  0  0  0  0  0  0  0  0
  183.9920  178.7330  145.7620 C   0  0  0  0  0  3  0  0  0  0  0  0
  185.6180  178.3820  143.4930 C   0  0  0  0  0  0  0  0  0  0  0  0
  184.3770  177.9440  140.9010 C   0  0  1  0  0  3  0  0  0  0  0  0
  181.5060  179.9210  139.8440 C   0  0  0  0  0  1  0  0  0  0  0  0
  183.5610  178.5130  139.7680 C   0  0  1  0  0  3  0  0  0  0  0  0
  183.6890  177.6210  136.1690 N   0  0  0  0  0  2  0  0  0  0  0  0
  186.4400  179.0020  137.6020 O   0  0  0  0  0  0  0  0  0  0  0  0
  183.4120  178.6280  144.5000 C   0  0  0  0  0  3  0  0  0  0  0  0
  184.2120  178.4330  143.3670 C   0  0  0  0  0  0  0  0  0  0  0  0
  186.0610  178.1770  138.4780 C   0  0  0  0  0  0  0  0  0  0  0  0
  188.8850  176.7630  141.5850 C   0  0  0  0  0  2  0  0  0  0  0  0
  190.2340  175.2510  142.8470 O   0  0  0  0  0  1  0  0  0  0  0  0
  189.8250  176.5820  142.7640 C   0  0  0  0  0  2  0  0  0  0  0  0
  1  5  1  1  0  0  0
  1 19  1  0  0  0  0
  2 16  1  0  0  0  0
  2 13  1  0  0  0  0
  3 17  1  0  0  0  0
  4 12  1  6  0  0  0
  4  1  1  0  0  0  0
  7 15  1  6  0  0  0
  7 27  1  0  0  0  0
  7  9  1  0  0  0  0
  8  6  1  6  0  0  0
  8 11  1  0  0  0  0
  9 14  1  6  0  0  0
  9 22  1  0  0  0  0
 10 21  1  6  0  0  0
 10  3  1  0  0  0  0
 11 28  1  1  0  0  0
 11  5  1  0  0  0  0
 12  8  1  0  0  0  0
 17 26  1  0  0  0  0
 18 13  2  0  0  0  0
 19  2  2  0  0  0  0
 20  4  1  0  0  0  0
 20 17  1  1  0  0  0
 22 10  1  0  0  0  0
 22 20  1  0  0  0  0
 23 15  1  0  0  0  0
 23 14  1  0  0  0  0
 24 27  2  0  0  0  0
 25 18  1  0  0  0  0
 26 19  1  0  0  0  0
 26 25  2  0  0  0  0
 27 12  1  0  0  0  0
 28 30  1  0  0  0  0
 30 29  1  0  0  0  0
M  END
>  <MODEL>
8

>  <REMARK>
 VINA RESULT:      -7.5      2.640      5.148
  Name = 
  2 active torsions:
  status: ('A' for Active; 'I' for Inactive)
    1  A    between atoms: C_11  and  C_28
    2  A    between atoms: C_28  and  C_30
                            x       y       z     vdW  Elec       q    Type
                         _______ _______ _______ _____ _____    ______ ____

>  <TORSDO>
F 2

$$$$
=
 OpenBabel11122410223D

 30 35  0  0  1  0  0  0  0  0999 V2000
  186.9240  178.0970  142.7310 C   0  0  1  0  0  3  0  0  0  0  0  0
  184.4830  178.8010  142.4180 C   0  0  0  0  0  0  0  0  0  0  0  0
  186.2910  178.0460  146.9150 N   0  0  0  0  0  2  0  0  0  0  0  0
  187.7830  177.3250  143.7470 C   0  0  1  0  0  3  0  0  0  0  0  0
  186.8270  177.3500  141.5370 O   0  0  0  0  0  0  0  0  0  0  0  0
  190.4740  176.7550  141.1900 N   0  0  0  0  0  1  0  0  0  0  0  0
  190.7220  177.7210  145.0590 C   0  0  1  0  0  3  0  0  0  0  0  0
  189.1450  176.6120  141.7720 C   0  0  2  0  0  3  0  0  0  0  0  0
  189.9150  177.7020  146.3460 C   0  0  2  0  0  3  0  0  0  0  0  0
  187.5990  177.5980  147.3870 C   0  0  1  0  0  3  0  0  0  0  0  0
  188.0960  177.3420  140.9110 C   0  0  2  0  0  3  0  0  0  0  0  0
  189.1200  177.0830  143.1670 N   0  0  0  0  0  0  0  0  0  0  0  0
  183.2450  179.1690  142.9540 C   0  0  0  0  0  3  0  0  0  0  0  0
  190.6640  176.7390  147.2350 C   0  0  0  0  0  2  0  0  0  0  0  0
  192.1320  177.3930  145.5160 C   0  0  0  0  0  2  0  0  0  0  0  0
  184.6310  178.7770  141.0360 O   0  0  0  0  0  1  0  0  0  0  0  0
  186.4770  178.3330  145.5550 N   0  0  0  0  0  0  0  0  0  0  0  0
  183.0660  179.2390  144.3350 C   0  0  0  0  0  3  0  0  0  0  0  0
  185.5560  178.4690  143.2750 C   0  0  0  0  0  0  0  0  0  0  0  0
  187.8190  178.1050  145.0630 C   0  0  1  0  0  3  0  0  0  0  0  0
  187.4350  176.3490  148.2310 C   0  0  0  0  0  1  0  0  0  0  0  0
  188.4550  177.2920  146.1620 C   0  0  1  0  0  3  0  0  0  0  0  0
  192.0650  176.7590  146.8320 N   0  0  0  0  0  2  0  0  0  0  0  0
  190.7620  175.5960  143.9200 O   0  0  0  0  0  0  0  0  0  0  0  0
  184.1300  178.9580  145.1910 C   0  0  0  0  0  3  0  0  0  0  0  0
  185.3790  178.5940  144.6710 C   0  0  0  0  0  0  0  0  0  0  0  0
  190.2270  176.7350  144.0220 C   0  0  0  0  0  0  0  0  0  0  0  0
  188.5380  178.7410  140.4520 C   0  0  0  0  0  2  0  0  0  0  0  0
  187.6680  178.5550  138.2360 O   0  0  0  0  0  1  0  0  0  0  0  0
  188.8420  178.7520  138.9640 C   0  0  0  0  0  2  0  0  0  0  0  0
  1  5  1  6  0  0  0
  1 19  1  0  0  0  0
  1  4  1  0  0  0  0
  2 13  2  0  0  0  0
  2 19  1  0  0  0  0
  3 10  1  0  0  0  0
  4 12  1  6  0  0  0
  4 20  1  0  0  0  0
  7 15  1  1  0  0  0
  7  9  1  0  0  0  0
  8  6  1  6  0  0  0
  8 12  1  0  0  0  0
  9 14  1  1  0  0  0
 10 21  1  1  0  0  0
 11 28  1  1  0  0  0
 11  5  1  0  0  0  0
 11  8  1  0  0  0  0
 12 27  1  0  0  0  0
 13 18  1  0  0  0  0
 15 23  1  0  0  0  0
 16  2  1  0  0  0  0
 17  3  1  0  0  0  0
 18 25  2  0  0  0  0
 19 26  2  0  0  0  0
 20 17  1  1  0  0  0
 20 22  1  0  0  0  0
 22  9  1  0  0  0  0
 22 10  1  0  0  0  0
 23 14  1  0  0  0  0
 24 27  2  0  0  0  0
 26 25  1  0  0  0  0
 26 17  1  0  0  0  0
 27  7  1  0  0  0  0
 29 30  1  0  0  0  0
 30 28  1  0  0  0  0
M  END
>  <MODEL>
9

>  <REMARK>
 VINA RESULT:      -7.4      1.935      5.475
  Name = 
  2 active torsions:
  status: ('A' for Active; 'I' for Inactive)
    1  A    between atoms: C_11  and  C_28
    2  A    between atoms: C_28  and  C_30
                            x       y       z     vdW  Elec       q    Type
                         _______ _______ _______ _____ _____    ______ ____

>  <TORSDO>
F 2

$$$$
