=
 OpenBabel11122411253D

 37 43  0  0  1  0  0  0  0  0999 V2000
  180.4980  179.5630  138.0850 C   0  0  0  0  0  2  0  0  0  0  0  0
  180.5410  178.8540  143.2370 C   0  0  0  0  0  0  0  0  0  0  0  0
  183.6800  178.6110  140.4800 C   0  0  0  0  0  0  0  0  0  0  0  0
  179.5600  179.6980  136.8860 C   0  0  2  0  0  3  0  0  0  0  0  0
  183.0200  176.0490  137.9430 C   0  0  0  0  0  2  0  0  0  0  0  0
  182.9790  178.9490  142.7640 C   0  0  0  0  0  0  0  0  0  0  0  0
  183.0000  178.3230  139.1720 C   0  0  1  0  0  3  0  0  0  0  0  0
  181.3580  178.1800  135.7450 C   0  0  2  0  0  3  0  0  0  0  0  0
  182.7060  178.7310  141.4300 C   0  0  0  0  0  0  0  0  0  0  0  0
  183.7030  177.3940  138.1620 C   0  0  1  0  0  3  0  0  0  0  0  0
  184.3140  179.1260  143.1520 C   0  0  0  0  0  3  0  0  0  0  0  0
  180.1140  179.0730  135.5940 C   0  0  0  0  0  2  0  0  0  0  0  0
  181.4170  178.4190  140.9670 N   0  0  0  0  0  0  0  0  0  0  0  0
  180.0130  180.2590  143.0070 C   0  0  0  0  0  1  0  0  0  0  0  0
  186.1640  178.5440  139.8710 C   0  0  0  0  0  2  0  0  0  0  0  0
  185.3370  179.0430  142.1830 C   0  0  0  0  0  3  0  0  0  0  0  0
  180.3890  178.0320  141.9330 C   0  0  0  0  0  2  0  0  0  0  0  0
  181.1230  176.9580  136.5330 N   0  0  1  0  0  0  0  0  0  0  0  0
  182.2700  176.0390  136.6070 C   0  0  0  0  0  2  0  0  0  0  0  0
  185.0340  178.7850  140.8290 C   0  0  0  0  0  0  0  0  0  0  0  0
  181.5990  177.8440  139.6390 C   0  0  1  0  0  3  0  0  0  0  0  0
  181.9130  178.9270  143.6740 O   0  0  0  0  0  0  0  0  0  0  0  0
  185.2310  177.3240  138.2600 C   0  0  2  0  0  3  0  0  0  0  0  0
  179.7130  178.2030  144.3230 C   0  0  0  0  0  1  0  0  0  0  0  0
  180.2180  176.9970  137.6960 C   0  0  0  0  0  2  0  0  0  0  0  0
  182.4490  178.9030  136.1910 F   0  0  0  0  0  0  0  0  0  0  0  0
  180.4520  178.1540  138.6860 C   0  0  2  0  0  3  0  0  0  0  0  0
  185.7450  178.5980  138.5360 O   0  0  0  0  0  0  0  0  0  0  0  0
  185.6110  177.4420  135.7660 C   0  0  0  0  0  3  0  0  0  0  0  0
  185.8320  176.7970  136.9930 C   0  0  0  0  0  0  0  0  0  0  0  0
  186.6100  175.6350  137.0360 C   0  0  0  0  0  3  0  0  0  0  0  0
  187.9210  173.9960  135.9060 F   0  0  0  0  0  0  0  0  0  0  0  0
  186.9470  175.7660  134.6410 C   0  0  0  0  0  3  0  0  0  0  0  0
  187.1670  175.1210  135.8610 C   0  0  0  0  0  0  0  0  0  0  0  0
  186.1680  176.9260  134.5940 C   0  0  0  0  0  3  0  0  0  0  0  0
  180.4740  181.9270  136.5320 N   0  0  0  0  0  1  0  0  0  0  0  0
  179.2440  181.1600  136.6300 C   0  0  0  0  0  2  0  0  0  0  0  0
  1 27  1  0  0  0  0
  2 22  1  0  0  0  0
  2 24  1  0  0  0  0
  3 20  2  0  0  0  0
  3  9  1  0  0  0  0
  4 37  1  6  0  0  0
  4  1  1  0  0  0  0
  6 11  1  0  0  0  0
  6 22  1  0  0  0  0
  7 21  1  0  0  0  0
  7  3  1  1  0  0  0
  8 26  1  1  0  0  0
  8 18  1  0  0  0  0
  9  6  2  0  0  0  0
 10  5  1  1  0  0  0
 10 23  1  0  0  0  0
 10  7  1  0  0  0  0
 12  8  1  0  0  0  0
 12  4  1  0  0  0  0
 13  9  1  0  0  0  0
 13 17  1  0  0  0  0
 14  2  1  0  0  0  0
 15 20  1  0  0  0  0
 16 11  2  0  0  0  0
 17  2  1  0  0  0  0
 18 19  1  1  0  0  0
 18 25  1  0  0  0  0
 19  5  1  0  0  0  0
 20 16  1  0  0  0  0
 21 13  1  1  0  0  0
 23 30  1  6  0  0  0
 23 28  1  0  0  0  0
 27 25  1  6  0  0  0
 27 21  1  0  0  0  0
 28 15  1  0  0  0  0
 29 30  1  0  0  0  0
 30 31  2  0  0  0  0
 33 34  2  0  0  0  0
 34 32  1  0  0  0  0
 34 31  1  0  0  0  0
 35 33  1  0  0  0  0
 35 29  2  0  0  0  0
 36 37  1  0  0  0  0
M  END
>  <MODEL>
1

>  <REMARK>
 VINA RESULT:      -6.5      0.000      0.000
  Name = 
  2 active torsions:
  status: ('A' for Active; 'I' for Inactive)
    1  A    between atoms: C_4  and  C_37
    2  A    between atoms: C_23  and  C_30
                            x       y       z     vdW  Elec       q    Type
                         _______ _______ _______ _____ _____    ______ ____

>  <TORSDO>
F 2

$$$$
=
 OpenBabel11122411253D

 37 43  0  0  1  0  0  0  0  0999 V2000
  189.1370  173.8270  136.2180 C   0  0  0  0  0  2  0  0  0  0  0  0
  193.9660  175.7540  136.1020 C   0  0  0  0  0  0  0  0  0  0  0  0
  190.8010  176.6280  138.6970 C   0  0  0  0  0  0  0  0  0  0  0  0
  188.1390  173.0020  135.4050 C   0  0  2  0  0  3  0  0  0  0  0  0
  187.9040  177.9230  136.8640 C   0  0  0  0  0  2  0  0  0  0  0  0
  193.1810  176.6060  138.3010 C   0  0  0  0  0  0  0  0  0  0  0  0
  189.5720  176.2540  137.9180 C   0  0  1  0  0  3  0  0  0  0  0  0
  186.4610  174.8070  136.2790 C   0  0  2  0  0  3  0  0  0  0  0  0
  191.8830  176.3420  137.9150 C   0  0  0  0  0  0  0  0  0  0  0  0
  188.3000  177.1100  138.0890 C   0  0  1  0  0  3  0  0  0  0  0  0
  193.4040  177.1280  139.5820 C   0  0  0  0  0  3  0  0  0  0  0  0
  186.6790  173.4580  135.5720 C   0  0  0  0  0  2  0  0  0  0  0  0
  191.5540  175.9390  136.6100 N   0  0  0  0  0  0  0  0  0  0  0  0
  194.1130  174.2510  136.2620 C   0  0  0  0  0  1  0  0  0  0  0  0
  189.8440  177.6060  140.8590 C   0  0  0  0  0  2  0  0  0  0  0  0
  192.3030  177.3990  140.4240 C   0  0  0  0  0  3  0  0  0  0  0  0
  192.5530  176.0720  135.5510 C   0  0  0  0  0  2  0  0  0  0  0  0
  187.0010  175.9620  135.5410 N   0  0  1  0  0  0  0  0  0  0  0  0
  186.7160  177.2720  136.1480 C   0  0  0  0  0  2  0  0  0  0  0  0
  190.9830  177.1500  139.9930 C   0  0  0  0  0  0  0  0  0  0  0  0
  190.1230  176.1820  136.4680 C   0  0  1  0  0  3  0  0  0  0  0  0
  194.2080  176.3930  137.3710 O   0  0  0  0  0  0  0  0  0  0  0  0
  188.1630  177.8540  139.4210 C   0  0  2  0  0  3  0  0  0  0  0  0
  194.9980  176.2330  135.1040 C   0  0  0  0  0  1  0  0  0  0  0  0
  188.2620  175.8300  134.7900 C   0  0  0  0  0  2  0  0  0  0  0  0
  186.8880  174.7640  137.5930 F   0  0  0  0  0  0  0  0  0  0  0  0
  189.4290  175.1770  135.5560 C   0  0  2  0  0  3  0  0  0  0  0  0
  188.6240  177.0440  140.4660 O   0  0  0  0  0  0  0  0  0  0  0  0
  185.8000  178.2710  138.6350 C   0  0  0  0  0  3  0  0  0  0  0  0
  186.7410  178.2530  139.6760 C   0  0  0  0  0  0  0  0  0  0  0  0
  186.3550  178.6280  140.9670 C   0  0  0  0  0  3  0  0  0  0  0  0
  184.6660  179.3780  142.4710 F   0  0  0  0  0  0  0  0  0  0  0  0
  184.1000  179.0320  140.1820 C   0  0  0  0  0  3  0  0  0  0  0  0
  185.0360  179.0160  141.2190 C   0  0  0  0  0  0  0  0  0  0  0  0
  184.4820  178.6600  138.8900 C   0  0  0  0  0  3  0  0  0  0  0  0
  187.0550  170.8230  135.3420 N   0  0  0  0  0  1  0  0  0  0  0  0
  188.2440  171.5350  135.7780 C   0  0  0  0  0  2  0  0  0  0  0  0
  2 14  1  0  0  0  0
  2 22  1  0  0  0  0
  3 20  1  0  0  0  0
  4 12  1  0  0  0  0
  4 37  1  1  0  0  0
  4  1  1  0  0  0  0
  6 11  2  0  0  0  0
  7 10  1  0  0  0  0
  7  3  1  1  0  0  0
  8 26  1  1  0  0  0
  9  6  1  0  0  0  0
  9  3  2  0  0  0  0
 10  5  1  6  0  0  0
 10 23  1  0  0  0  0
 11 16  1  0  0  0  0
 12  8  1  0  0  0  0
 13  9  1  0  0  0  0
 17  2  1  0  0  0  0
 17 13  1  0  0  0  0
 18 25  1  1  0  0  0
 18 19  1  0  0  0  0
 18  8  1  0  0  0  0
 19  5  1  0  0  0  0
 20 16  2  0  0  0  0
 20 15  1  0  0  0  0
 21 13  1  1  0  0  0
 21  7  1  0  0  0  0
 22  6  1  0  0  0  0
 23 30  1  1  0  0  0
 23 28  1  0  0  0  0
 24  2  1  0  0  0  0
 27 25  1  1  0  0  0
 27  1  1  0  0  0  0
 27 21  1  0  0  0  0
 28 15  1  0  0  0  0
 29 35  2  0  0  0  0
 29 30  1  0  0  0  0
 30 31  2  0  0  0  0
 31 34  1  0  0  0  0
 33 34  2  0  0  0  0
 34 32  1  0  0  0  0
 35 33  1  0  0  0  0
 36 37  1  0  0  0  0
M  END
>  <MODEL>
2

>  <REMARK>
 VINA RESULT:      -6.2      4.819      9.406
  Name = 
  2 active torsions:
  status: ('A' for Active; 'I' for Inactive)
    1  A    between atoms: C_4  and  C_37
    2  A    between atoms: C_23  and  C_30
                            x       y       z     vdW  Elec       q    Type
                         _______ _______ _______ _____ _____    ______ ____

>  <TORSDO>
F 2

$$$$
=
 OpenBabel11122411253D

 37 43  0  0  1  0  0  0  0  0999 V2000
  187.1060  177.5040  139.1320 C   0  0  0  0  0  2  0  0  0  0  0  0
  182.5020  176.5280  136.9210 C   0  0  0  0  0  0  0  0  0  0  0  0
  185.9840  174.2070  136.9790 C   0  0  0  0  0  0  0  0  0  0  0  0
  187.9320  178.6170  139.7770 C   0  0  2  0  0  3  0  0  0  0  0  0
  188.7910  175.9930  135.4440 C   0  0  0  0  0  2  0  0  0  0  0  0
  183.5850  174.2990  136.7350 C   0  0  0  0  0  0  0  0  0  0  0  0
  187.0850  175.2010  137.2160 C   0  0  1  0  0  3  0  0  0  0  0  0
  189.8580  177.5260  138.3850 C   0  0  2  0  0  3  0  0  0  0  0  0
  184.8050  174.8960  136.9750 C   0  0  0  0  0  0  0  0  0  0  0  0
  188.4450  174.9760  136.5240 C   0  0  1  0  0  3  0  0  0  0  0  0
  183.5450  172.9090  136.5570 C   0  0  0  0  0  3  0  0  0  0  0  0
  189.4390  178.5210  139.4810 C   0  0  0  0  0  2  0  0  0  0  0  0
  184.9590  176.2910  137.0400 N   0  0  0  0  0  0  0  0  0  0  0  0
  182.2260  176.7390  138.4000 C   0  0  0  0  0  1  0  0  0  0  0  0
  187.2460  172.0030  136.6730 C   0  0  0  0  0  2  0  0  0  0  0  0
  184.7470  172.1690  136.5930 C   0  0  0  0  0  3  0  0  0  0  0  0
  183.8750  177.1500  136.5650 C   0  0  0  0  0  2  0  0  0  0  0  0
  189.3610  177.8730  137.0420 N   0  0  1  0  0  0  0  0  0  0  0  0
  189.8320  176.9920  135.9610 C   0  0  0  0  0  2  0  0  0  0  0  0
  185.9860  172.8090  136.8070 C   0  0  0  0  0  0  0  0  0  0  0  0
  186.3850  176.5420  136.8650 C   0  0  1  0  0  3  0  0  0  0  0  0
  182.4530  175.1170  136.6250 O   0  0  0  0  0  0  0  0  0  0  0  0
  188.7880  173.5260  136.1680 C   0  0  2  0  0  3  0  0  0  0  0  0
  181.4250  177.2350  136.1270 C   0  0  0  0  0  1  0  0  0  0  0  0
  188.0220  178.4700  136.8860 C   0  0  0  0  0  2  0  0  0  0  0  0
  189.5640  176.2230  138.7440 F   0  0  0  0  0  0  0  0  0  0  0  0
  186.8820  177.7580  137.6380 C   0  0  2  0  0  3  0  0  0  0  0  0
  188.3590  172.6730  137.1930 O   0  0  0  0  0  0  0  0  0  0  0  0
  190.7500  172.7620  134.7740 C   0  0  0  0  0  3  0  0  0  0  0  0
  190.2600  173.3550  135.9480 C   0  0  0  0  0  0  0  0  0  0  0  0
  191.1550  173.7800  136.9360 C   0  0  0  0  0  3  0  0  0  0  0  0
  193.3950  174.0280  137.7120 F   0  0  0  0  0  0  0  0  0  0  0  0
  193.0170  173.0250  135.5830 C   0  0  0  0  0  3  0  0  0  0  0  0
  192.5310  173.6150  136.7530 C   0  0  0  0  0  0  0  0  0  0  0  0
  192.1260  172.5980  134.5940 C   0  0  0  0  0  3  0  0  0  0  0  0
  188.4390  177.5080  141.8850 N   0  0  0  0  0  1  0  0  0  0  0  0
  187.7240  178.6190  141.2810 C   0  0  0  0  0  2  0  0  0  0  0  0
  1  4  1  0  0  0  0
  2 14  1  0  0  0  0
  4 37  1  1  0  0  0
  5 19  1  0  0  0  0
  6  9  2  0  0  0  0
  7  3  1  6  0  0  0
  8 26  1  1  0  0  0
  8 12  1  0  0  0  0
  9  3  1  0  0  0  0
  9 13  1  0  0  0  0
 10  5  1  6  0  0  0
 10  7  1  0  0  0  0
 11 16  2  0  0  0  0
 11  6  1  0  0  0  0
 12  4  1  0  0  0  0
 15 20  1  0  0  0  0
 15 28  1  0  0  0  0
 16 20  1  0  0  0  0
 17  2  1  0  0  0  0
 17 13  1  0  0  0  0
 18 19  1  6  0  0  0
 18  8  1  0  0  0  0
 20  3  2  0  0  0  0
 21 13  1  1  0  0  0
 21  7  1  0  0  0  0
 21 27  1  0  0  0  0
 22  6  1  0  0  0  0
 22  2  1  0  0  0  0
 23 30  1  1  0  0  0
 23 10  1  0  0  0  0
 23 28  1  0  0  0  0
 24  2  1  0  0  0  0
 25 18  1  0  0  0  0
 27 25  1  6  0  0  0
 27  1  1  0  0  0  0
 29 30  1  0  0  0  0
 30 31  2  0  0  0  0
 33 34  2  0  0  0  0
 34 31  1  0  0  0  0
 34 32  1  0  0  0  0
 35 29  2  0  0  0  0
 35 33  1  0  0  0  0
 37 36  1  0  0  0  0
M  END
>  <MODEL>
3

>  <REMARK>
 VINA RESULT:      -6.2      3.914      7.351
  Name = 
  2 active torsions:
  status: ('A' for Active; 'I' for Inactive)
    1  A    between atoms: C_4  and  C_37
    2  A    between atoms: C_23  and  C_30
                            x       y       z     vdW  Elec       q    Type
                         _______ _______ _______ _____ _____    ______ ____

>  <TORSDO>
F 2

$$$$
=
 OpenBabel11122411253D

 37 43  0  0  1  0  0  0  0  0999 V2000
  183.5660  175.6820  137.9310 C   0  0  0  0  0  2  0  0  0  0  0  0
  188.1970  178.0060  137.4920 C   0  0  0  0  0  0  0  0  0  0  0  0
  185.4390  178.1170  140.6370 C   0  0  0  0  0  0  0  0  0  0  0  0
  182.4990  174.9360  137.1280 C   0  0  2  0  0  3  0  0  0  0  0  0
  182.2180  179.4700  139.5290 C   0  0  0  0  0  2  0  0  0  0  0  0
  187.7230  178.3730  139.9040 C   0  0  0  0  0  0  0  0  0  0  0  0
  184.1250  177.7870  139.9880 C   0  0  1  0  0  3  0  0  0  0  0  0
  180.8810  176.4000  138.5680 C   0  0  2  0  0  3  0  0  0  0  0  0
  186.3980  178.0720  139.6670 C   0  0  0  0  0  0  0  0  0  0  0  0
  182.8500  178.4840  140.5030 C   0  0  1  0  0  3  0  0  0  0  0  0
  188.1160  178.6690  141.2160 C   0  0  0  0  0  3  0  0  0  0  0  0
  181.0610  175.2270  137.5900 C   0  0  0  0  0  2  0  0  0  0  0  0
  185.8890  177.8870  138.3700 N   0  0  0  0  0  0  0  0  0  0  0  0
  188.4530  176.5170  137.3350 C   0  0  0  0  0  1  0  0  0  0  0  0
  184.7830  178.5990  143.0630 C   0  0  0  0  0  2  0  0  0  0  0  0
  187.1490  178.6870  142.2440 C   0  0  0  0  0  3  0  0  0  0  0  0
  186.6990  178.2960  137.2230 C   0  0  0  0  0  2  0  0  0  0  0  0
  181.2300  177.7130  137.9970 N   0  0  1  0  0  0  0  0  0  0  0  0
  180.9710  178.8610  138.8810 C   0  0  0  0  0  2  0  0  0  0  0  0
  185.7940  178.4080  141.9690 C   0  0  0  0  0  0  0  0  0  0  0  0
  184.4430  178.0280  138.4860 C   0  0  1  0  0  3  0  0  0  0  0  0
  188.6000  178.4220  138.8120 O   0  0  0  0  0  0  0  0  0  0  0  0
  182.8830  178.9590  141.9600 C   0  0  2  0  0  3  0  0  0  0  0  0
  189.0280  178.7460  136.4670 C   0  0  0  0  0  1  0  0  0  0  0  0
  182.3630  177.8280  137.0600 C   0  0  0  0  0  2  0  0  0  0  0  0
  181.5140  176.1560  139.7740 F   0  0  0  0  0  0  0  0  0  0  0  0
  183.6710  177.1500  137.5080 C   0  0  2  0  0  3  0  0  0  0  0  0
  183.5500  178.0140  142.7500 O   0  0  0  0  0  0  0  0  0  0  0  0
  180.6690  180.1720  141.9460 C   0  0  0  0  0  3  0  0  0  0  0  0
  181.5000  179.1810  142.4900 C   0  0  0  0  0  0  0  0  0  0  0  0
  181.0400  178.3970  143.5540 C   0  0  0  0  0  3  0  0  0  0  0  0
  179.3140  177.8390  145.1000 F   0  0  0  0  0  0  0  0  0  0  0  0
  178.9310  179.5870  143.5260 C   0  0  0  0  0  3  0  0  0  0  0  0
  179.7570  178.6000  144.0700 C   0  0  0  0  0  0  0  0  0  0  0  0
  179.3870  180.3740  142.4640 C   0  0  0  0  0  3  0  0  0  0  0  0
  184.1290  173.1770  137.5510 N   0  0  0  0  0  1  0  0  0  0  0  0
  182.7460  173.4400  137.1920 C   0  0  0  0  0  2  0  0  0  0  0  0
  2 22  1  0  0  0  0
  3 20  1  0  0  0  0
  4 37  1  1  0  0  0
  4 12  1  0  0  0  0
  4  1  1  0  0  0  0
  6 11  2  0  0  0  0
  7 10  1  0  0  0  0
  7  3  1  1  0  0  0
  8 26  1  1  0  0  0
  9  6  1  0  0  0  0
  9  3  2  0  0  0  0
 10  5  1  6  0  0  0
 10 23  1  0  0  0  0
 11 16  1  0  0  0  0
 12  8  1  0  0  0  0
 13  9  1  0  0  0  0
 14  2  1  0  0  0  0
 17  2  1  0  0  0  0
 17 13  1  0  0  0  0
 18 25  1  1  0  0  0
 18  8  1  0  0  0  0
 18 19  1  0  0  0  0
 19  5  1  0  0  0  0
 20 16  2  0  0  0  0
 20 15  1  0  0  0  0
 21 13  1  1  0  0  0
 21  7  1  0  0  0  0
 22  6  1  0  0  0  0
 23 30  1  1  0  0  0
 23 28  1  0  0  0  0
 24  2  1  0  0  0  0
 27 25  1  1  0  0  0
 27  1  1  0  0  0  0
 27 21  1  0  0  0  0
 28 15  1  0  0  0  0
 29 35  2  0  0  0  0
 29 30  1  0  0  0  0
 30 31  2  0  0  0  0
 31 34  1  0  0  0  0
 33 34  2  0  0  0  0
 34 32  1  0  0  0  0
 35 33  1  0  0  0  0
 37 36  1  0  0  0  0
M  END
>  <MODEL>
4

>  <REMARK>
 VINA RESULT:      -5.5      2.601      6.938
  Name = 
  2 active torsions:
  status: ('A' for Active; 'I' for Inactive)
    1  A    between atoms: C_4  and  C_37
    2  A    between atoms: C_23  and  C_30
                            x       y       z     vdW  Elec       q    Type
                         _______ _______ _______ _____ _____    ______ ____

>  <TORSDO>
F 2

$$$$
=
 OpenBabel11122411253D

 37 43  0  0  1  0  0  0  0  0999 V2000
  183.7780  174.6740  136.7180 C   0  0  0  0  0  2  0  0  0  0  0  0
  188.3500  176.9650  135.7740 C   0  0  0  0  0  0  0  0  0  0  0  0
  185.5470  177.7340  138.7840 C   0  0  0  0  0  0  0  0  0  0  0  0
  182.7430  173.7290  136.1060 C   0  0  2  0  0  3  0  0  0  0  0  0
  182.3070  178.6920  137.3630 C   0  0  0  0  0  2  0  0  0  0  0  0
  187.8330  177.8760  138.0270 C   0  0  0  0  0  0  0  0  0  0  0  0
  184.2520  177.2220  138.2210 C   0  0  1  0  0  3  0  0  0  0  0  0
  181.0660  175.4440  137.1470 C   0  0  2  0  0  3  0  0  0  0  0  0
  186.5200  177.4900  137.8580 C   0  0  0  0  0  0  0  0  0  0  0  0
  182.9510  177.9830  138.5480 C   0  0  1  0  0  3  0  0  0  0  0  0
  188.2000  178.4860  139.2350 C   0  0  0  0  0  3  0  0  0  0  0  0
  181.2910  174.0780  136.4750 C   0  0  0  0  0  2  0  0  0  0  0  0
  186.0350  176.9880  136.6390 N   0  0  0  0  0  0  0  0  0  0  0  0
  188.6490  175.4890  135.9760 C   0  0  0  0  0  1  0  0  0  0  0  0
  184.8440  178.7560  141.0220 C   0  0  0  0  0  2  0  0  0  0  0  0
  187.2180  178.7170  140.2230 C   0  0  0  0  0  3  0  0  0  0  0  0
  186.8490  177.1390  135.4340 C   0  0  0  0  0  2  0  0  0  0  0  0
  181.3880  176.5940  136.2840 N   0  0  1  0  0  0  0  0  0  0  0  0
  181.0860  177.9100  136.8690 C   0  0  0  0  0  2  0  0  0  0  0  0
  185.8750  178.3420  140.0120 C   0  0  0  0  0  0  0  0  0  0  0  0
  184.5840  177.1100  136.7080 C   0  0  1  0  0  3  0  0  0  0  0  0
  188.7240  177.6920  136.9620 O   0  0  0  0  0  0  0  0  0  0  0  0
  182.9510  178.7900  139.8510 C   0  0  2  0  0  3  0  0  0  0  0  0
  189.1760  177.4650  134.6090 C   0  0  0  0  0  1  0  0  0  0  0  0
  182.5300  176.5180  135.3550 C   0  0  0  0  0  2  0  0  0  0  0  0
  181.6880  175.5100  138.3800 F   0  0  0  0  0  0  0  0  0  0  0  0
  183.8500  176.0040  135.9600 C   0  0  2  0  0  3  0  0  0  0  0  0
  183.6320  178.0780  140.8480 O   0  0  0  0  0  0  0  0  0  0  0  0
  180.7850  178.1160  140.9590 C   0  0  0  0  0  3  0  0  0  0  0  0
  181.5550  179.0890  140.3040 C   0  0  0  0  0  0  0  0  0  0  0  0
  181.0090  180.3520  140.0520 C   0  0  0  0  0  3  0  0  0  0  0  0
  179.1770  181.8690  140.2100 F   0  0  0  0  0  0  0  0  0  0  0  0
  178.9380  179.6750  141.1090 C   0  0  0  0  0  3  0  0  0  0  0  0
  179.7030  180.6440  140.4550 C   0  0  0  0  0  0  0  0  0  0  0  0
  179.4790  178.4100  141.3610 C   0  0  0  0  0  3  0  0  0  0  0  0
  184.2770  172.2350  137.2640 N   0  0  0  0  0  1  0  0  0  0  0  0
  183.0290  172.2980  136.5230 C   0  0  0  0  0  2  0  0  0  0  0  0
  2 14  1  0  0  0  0
  2 22  1  0  0  0  0
  3 20  1  0  0  0  0
  4 12  1  0  0  0  0
  4 37  1  1  0  0  0
  4  1  1  0  0  0  0
  6 11  2  0  0  0  0
  7 10  1  0  0  0  0
  7  3  1  1  0  0  0
  8 26  1  1  0  0  0
  9  6  1  0  0  0  0
  9  3  2  0  0  0  0
 10  5  1  6  0  0  0
 10 23  1  0  0  0  0
 11 16  1  0  0  0  0
 12  8  1  0  0  0  0
 13  9  1  0  0  0  0
 17  2  1  0  0  0  0
 17 13  1  0  0  0  0
 18 25  1  1  0  0  0
 18 19  1  0  0  0  0
 18  8  1  0  0  0  0
 19  5  1  0  0  0  0
 20 16  2  0  0  0  0
 20 15  1  0  0  0  0
 21 13  1  1  0  0  0
 21  7  1  0  0  0  0
 22  6  1  0  0  0  0
 23 30  1  1  0  0  0
 23 28  1  0  0  0  0
 24  2  1  0  0  0  0
 27 25  1  1  0  0  0
 27 21  1  0  0  0  0
 27  1  1  0  0  0  0
 28 15  1  0  0  0  0
 29 35  1  0  0  0  0
 30 29  2  0  0  0  0
 31 30  1  0  0  0  0
 31 34  2  0  0  0  0
 32 34  1  0  0  0  0
 33 35  2  0  0  0  0
 34 33  1  0  0  0  0
 37 36  1  0  0  0  0
M  END
>  <MODEL>
5

>  <REMARK>
 VINA RESULT:      -5.1      2.520      7.076
  Name = 
  2 active torsions:
  status: ('A' for Active; 'I' for Inactive)
    1  A    between atoms: C_4  and  C_37
    2  A    between atoms: C_23  and  C_30
                            x       y       z     vdW  Elec       q    Type
                         _______ _______ _______ _____ _____    ______ ____

>  <TORSDO>
F 2

$$$$
=
 OpenBabel11122411253D

 37 43  0  0  1  0  0  0  0  0999 V2000
  180.9550  175.2100  136.3880 C   0  0  0  0  0  2  0  0  0  0  0  0
  181.2310  178.2750  140.5790 C   0  0  0  0  0  0  0  0  0  0  0  0
  184.2660  177.0020  137.9950 C   0  0  0  0  0  0  0  0  0  0  0  0
  180.0300  174.2430  135.6490 C   0  0  2  0  0  3  0  0  0  0  0  0
  184.5300  173.3470  137.9610 C   0  0  0  0  0  2  0  0  0  0  0  0
  183.4890  178.6260  139.6020 C   0  0  0  0  0  0  0  0  0  0  0  0
  183.7290  175.7370  137.3900 C   0  0  1  0  0  3  0  0  0  0  0  0
  182.2410  172.8740  135.3780 C   0  0  2  0  0  3  0  0  0  0  0  0
  183.3090  177.4920  138.8370 C   0  0  0  0  0  0  0  0  0  0  0  0
  184.7100  174.5850  137.0920 C   0  0  1  0  0  3  0  0  0  0  0  0
  184.6810  179.3480  139.4560 C   0  0  0  0  0  3  0  0  0  0  0  0
  180.7660  173.0670  134.9840 C   0  0  0  0  0  2  0  0  0  0  0  0
  182.2060  176.6380  139.0050 N   0  0  0  0  0  0  0  0  0  0  0  0
  180.2520  178.9430  139.6290 C   0  0  0  0  0  1  0  0  0  0  0  0
  186.6240  177.1600  137.0130 C   0  0  0  0  0  2  0  0  0  0  0  0
  185.6720  178.8810  138.5660 C   0  0  0  0  0  3  0  0  0  0  0  0
  181.3720  176.7810  140.1970 C   0  0  0  0  0  2  0  0  0  0  0  0
  182.4390  172.5230  136.7950 N   0  0  1  0  0  0  0  0  0  0  0  0
  183.8310  172.2340  137.1720 C   0  0  0  0  0  2  0  0  0  0  0  0
  185.4780  177.7000  137.8190 C   0  0  0  0  0  0  0  0  0  0  0  0
  182.5770  175.3800  138.3690 C   0  0  1  0  0  3  0  0  0  0  0  0
  182.4940  178.9690  140.5270 O   0  0  0  0  0  0  0  0  0  0  0  0
  186.1680  174.9880  136.8490 C   0  0  2  0  0  3  0  0  0  0  0  0
  180.6750  178.3700  141.9830 C   0  0  0  0  0  1  0  0  0  0  0  0
  181.5730  173.1210  137.8270 C   0  0  0  0  0  2  0  0  0  0  0  0
  183.0170  173.9470  134.9790 F   0  0  0  0  0  0  0  0  0  0  0  0
  181.3940  174.6490  137.7450 C   0  0  2  0  0  3  0  0  0  0  0  0
  186.2140  176.1750  136.1070 O   0  0  0  0  0  0  0  0  0  0  0  0
  186.2560  173.0390  135.2450 C   0  0  0  0  0  3  0  0  0  0  0  0
  186.9160  173.9080  136.1280 C   0  0  0  0  0  0  0  0  0  0  0  0
  188.2880  173.7570  136.3530 C   0  0  0  0  0  3  0  0  0  0  0  0
  190.3280  172.6030  135.9200 F   0  0  0  0  0  0  0  0  0  0  0  0
  188.3400  171.8830  134.8210 C   0  0  0  0  0  3  0  0  0  0  0  0
  188.9990  172.7460  135.7000 C   0  0  0  0  0  0  0  0  0  0  0  0
  186.9680  172.0290  134.5940 C   0  0  0  0  0  3  0  0  0  0  0  0
  178.9320  176.3320  135.0500 N   0  0  0  0  0  1  0  0  0  0  0  0
  179.2310  174.9860  134.5940 C   0  0  0  0  0  2  0  0  0  0  0  0
  2 24  1  0  0  0  0
  3  9  1  0  0  0  0
  4 37  1  6  0  0  0
  4  1  1  0  0  0  0
  6 22  1  0  0  0  0
  7  3  1  1  0  0  0
  7 21  1  0  0  0  0
  8 26  1  1  0  0  0
  8 18  1  0  0  0  0
  9 13  1  0  0  0  0
  9  6  2  0  0  0  0
 10  7  1  0  0  0  0
 10  5  1  1  0  0  0
 11  6  1  0  0  0  0
 12  8  1  0  0  0  0
 12  4  1  0  0  0  0
 13 17  1  0  0  0  0
 14  2  1  0  0  0  0
 15 20  1  0  0  0  0
 16 11  2  0  0  0  0
 17  2  1  0  0  0  0
 18 19  1  1  0  0  0
 18 25  1  0  0  0  0
 19  5  1  0  0  0  0
 20  3  2  0  0  0  0
 20 16  1  0  0  0  0
 21 13  1  6  0  0  0
 22  2  1  0  0  0  0
 23 30  1  6  0  0  0
 23 10  1  0  0  0  0
 27  1  1  6  0  0  0
 27 25  1  0  0  0  0
 27 21  1  0  0  0  0
 28 23  1  0  0  0  0
 28 15  1  0  0  0  0
 29 30  1  0  0  0  0
 30 31  2  0  0  0  0
 33 34  2  0  0  0  0
 34 32  1  0  0  0  0
 34 31  1  0  0  0  0
 35 33  1  0  0  0  0
 35 29  2  0  0  0  0
 37 36  1  0  0  0  0
M  END
>  <MODEL>
6

>  <REMARK>
 VINA RESULT:      -4.2      2.572      3.942
  Name = 
  2 active torsions:
  status: ('A' for Active; 'I' for Inactive)
    1  A    between atoms: C_4  and  C_37
    2  A    between atoms: C_23  and  C_30
                            x       y       z     vdW  Elec       q    Type
                         _______ _______ _______ _____ _____    ______ ____

>  <TORSDO>
F 2

$$$$
=
 OpenBabel11122411253D

 37 43  0  0  1  0  0  0  0  0999 V2000
  187.4320  177.2610  141.1880 C   0  0  0  0  0  2  0  0  0  0  0  0
  183.1780  179.1390  138.8600 C   0  0  0  0  0  0  0  0  0  0  0  0
  186.0720  176.4900  137.4040 C   0  0  0  0  0  0  0  0  0  0  0  0
  188.3360  177.4550  142.4050 C   0  0  2  0  0  3  0  0  0  0  0  0
  189.3980  178.0280  137.4110 C   0  0  0  0  0  2  0  0  0  0  0  0
  183.8170  177.3380  137.2710 C   0  0  0  0  0  0  0  0  0  0  0  0
  187.2890  176.7820  138.2340 C   0  0  1  0  0  3  0  0  0  0  0  0
  190.2210  177.0260  140.6450 C   0  0  2  0  0  3  0  0  0  0  0  0
  185.0700  177.3060  137.8460 C   0  0  0  0  0  0  0  0  0  0  0  0
  188.6770  176.6950  137.5670 C   0  0  1  0  0  3  0  0  0  0  0  0
  183.5360  176.4420  136.2310 C   0  0  0  0  0  3  0  0  0  0  0  0
  189.8220  177.1770  142.1230 C   0  0  0  0  0  2  0  0  0  0  0  0
  185.4820  178.2470  138.8040 N   0  0  0  0  0  0  0  0  0  0  0  0
  182.6980  178.4370  140.1190 C   0  0  0  0  0  1  0  0  0  0  0  0
  186.9100  174.7360  135.7400 C   0  0  0  0  0  2  0  0  0  0  0  0
  184.5450  175.5620  135.7790 C   0  0  0  0  0  3  0  0  0  0  0  0
  184.6870  179.4580  138.9990 C   0  0  0  0  0  2  0  0  0  0  0  0
  190.0410  178.2530  139.8500 N   0  0  1  0  0  0  0  0  0  0  0  0
  190.5090  178.1630  138.4580 C   0  0  0  0  0  2  0  0  0  0  0  0
  185.8290  175.5720  136.3630 C   0  0  0  0  0  0  0  0  0  0  0  0
  186.9380  178.1680  138.8400 C   0  0  1  0  0  3  0  0  0  0  0  0
  182.9040  178.3030  137.7170 O   0  0  0  0  0  0  0  0  0  0  0  0
  188.7850  175.7660  136.3540 C   0  0  2  0  0  3  0  0  0  0  0  0
  182.4150  180.4370  138.7150 C   0  0  0  0  0  1  0  0  0  0  0  0
  188.8940  179.1400  140.1170 C   0  0  0  0  0  2  0  0  0  0  0  0
  189.6190  175.9220  140.0680 F   0  0  0  0  0  0  0  0  0  0  0  0
  187.5230  178.4440  140.2190 C   0  0  2  0  0  3  0  0  0  0  0  0
  188.0260  174.6090  136.5750 O   0  0  0  0  0  0  0  0  0  0  0  0
  190.7990  175.6600  134.8350 C   0  0  0  0  0  3  0  0  0  0  0  0
  190.2100  175.3940  136.0810 C   0  0  0  0  0  0  0  0  0  0  0  0
  190.9560  174.7580  137.0780 C   0  0  0  0  0  3  0  0  0  0  0  0
  193.0030  173.7750  137.8040 F   0  0  0  0  0  0  0  0  0  0  0  0
  192.8680  174.6570  135.5940 C   0  0  0  0  0  3  0  0  0  0  0  0
  192.2830  174.3910  136.8360 C   0  0  0  0  0  0  0  0  0  0  0  0
  192.1250  175.2920  134.5940 C   0  0  0  0  0  3  0  0  0  0  0  0
  188.1130  177.2280  144.8200 N   0  0  0  0  0  1  0  0  0  0  0  0
  187.8750  176.5670  143.5470 C   0  0  0  0  0  2  0  0  0  0  0  0
  1  4  1  0  0  0  0
  2 17  1  0  0  0  0
  2 14  1  0  0  0  0
  3  9  1  0  0  0  0
  4 37  1  1  0  0  0
  5 19  1  0  0  0  0
  6 22  1  0  0  0  0
  6  9  2  0  0  0  0
  7  3  1  6  0  0  0
  7 21  1  0  0  0  0
  8 26  1  6  0  0  0
  8 12  1  0  0  0  0
  9 13  1  0  0  0  0
 10  5  1  6  0  0  0
 10  7  1  0  0  0  0
 11  6  1  0  0  0  0
 12  4  1  0  0  0  0
 13 17  1  0  0  0  0
 15 20  1  0  0  0  0
 15 28  1  0  0  0  0
 16 11  2  0  0  0  0
 16 20  1  0  0  0  0
 18 19  1  6  0  0  0
 18 25  1  0  0  0  0
 18  8  1  0  0  0  0
 20  3  2  0  0  0  0
 21 13  1  1  0  0  0
 21 27  1  0  0  0  0
 22  2  1  0  0  0  0
 23 30  1  1  0  0  0
 23 28  1  0  0  0  0
 23 10  1  0  0  0  0
 24  2  1  0  0  0  0
 27 25  1  6  0  0  0
 27  1  1  0  0  0  0
 29 30  1  0  0  0  0
 30 31  2  0  0  0  0
 33 34  2  0  0  0  0
 34 31  1  0  0  0  0
 34 32  1  0  0  0  0
 35 29  2  0  0  0  0
 35 33  1  0  0  0  0
 37 36  1  0  0  0  0
M  END
>  <MODEL>
7

>  <REMARK>
 VINA RESULT:      -4.1      3.750      7.140
  Name = 
  2 active torsions:
  status: ('A' for Active; 'I' for Inactive)
    1  A    between atoms: C_4  and  C_37
    2  A    between atoms: C_23  and  C_30
                            x       y       z     vdW  Elec       q    Type
                         _______ _______ _______ _____ _____    ______ ____

>  <TORSDO>
F 2

$$$$
=
 OpenBabel11122411253D

 37 43  0  0  1  0  0  0  0  0999 V2000
  185.7190  173.9660  136.4160 C   0  0  0  0  0  2  0  0  0  0  0  0
  190.5490  175.8460  135.9870 C   0  0  0  0  0  0  0  0  0  0  0  0
  187.3400  177.2230  138.2940 C   0  0  0  0  0  0  0  0  0  0  0  0
  184.7350  172.9880  135.7740 C   0  0  2  0  0  3  0  0  0  0  0  0
  184.4750  178.1040  136.1860 C   0  0  0  0  0  2  0  0  0  0  0  0
  189.7270  177.1290  137.9510 C   0  0  0  0  0  0  0  0  0  0  0  0
  186.1250  176.6930  137.5880 C   0  0  1  0  0  3  0  0  0  0  0  0
  183.0420  174.9280  136.2300 C   0  0  2  0  0  3  0  0  0  0  0  0
  188.4360  176.7860  137.6060 C   0  0  0  0  0  0  0  0  0  0  0  0
  184.8500  177.5610  137.5590 C   0  0  1  0  0  3  0  0  0  0  0  0
  189.9280  177.9030  139.1010 C   0  0  0  0  0  3  0  0  0  0  0  0
  183.2730  173.4640  135.8190 C   0  0  0  0  0  2  0  0  0  0  0  0
  188.1290  176.1220  136.4060 N   0  0  0  0  0  0  0  0  0  0  0  0
  190.6940  174.4080  136.4550 C   0  0  0  0  0  1  0  0  0  0  0  0
  186.3470  178.6210  140.1920 C   0  0  0  0  0  2  0  0  0  0  0  0
  188.8130  178.3380  139.8510 C   0  0  0  0  0  3  0  0  0  0  0  0
  189.1460  176.0380  135.3590 C   0  0  0  0  0  2  0  0  0  0  0  0
  183.5940  175.9090  135.2800 N   0  0  1  0  0  0  0  0  0  0  0  0
  183.2990  177.3150  135.5990 C   0  0  0  0  0  2  0  0  0  0  0  0
  187.5000  178.0010  139.4580 C   0  0  0  0  0  0  0  0  0  0  0  0
  186.7010  176.3260  136.1940 C   0  0  1  0  0  3  0  0  0  0  0  0
  190.7700  176.7330  137.1020 O   0  0  0  0  0  0  0  0  0  0  0  0
  184.6900  178.5630  138.7070 C   0  0  2  0  0  3  0  0  0  0  0  0
  191.5980  176.1130  134.9300 C   0  0  0  0  0  1  0  0  0  0  0  0
  184.8690  175.6300  134.5940 C   0  0  0  0  0  2  0  0  0  0  0  0
  183.4470  175.1580  137.5320 F   0  0  0  0  0  0  0  0  0  0  0  0
  186.0220  175.1530  135.4960 C   0  0  2  0  0  3  0  0  0  0  0  0
  185.1330  177.9850  139.9040 O   0  0  0  0  0  0  0  0  0  0  0  0
  182.2450  178.0670  139.0990 C   0  0  0  0  0  3  0  0  0  0  0  0
  183.2650  179.0000  138.8500 C   0  0  0  0  0  0  0  0  0  0  0  0
  182.9470  180.3550  138.7180 C   0  0  0  0  0  3  0  0  0  0  0  0
  181.3150  182.0930  138.7060 F   0  0  0  0  0  0  0  0  0  0  0  0
  180.6070  179.8490  139.0830 C   0  0  0  0  0  3  0  0  0  0  0  0
  181.6190  180.7790  138.8350 C   0  0  0  0  0  0  0  0  0  0  0  0
  180.9200  178.4920  139.2140 C   0  0  0  0  0  3  0  0  0  0  0  0
  186.2250  171.3020  136.7050 N   0  0  0  0  0  1  0  0  0  0  0  0
  184.8330  171.6300  136.4430 C   0  0  0  0  0  2  0  0  0  0  0  0
  2 14  1  0  0  0  0
  2 22  1  0  0  0  0
  3 20  1  0  0  0  0
  4 12  1  0  0  0  0
  4  1  1  0  0  0  0
  4 37  1  1  0  0  0
  6 11  2  0  0  0  0
  7  3  1  1  0  0  0
  8 26  1  1  0  0  0
  9  6  1  0  0  0  0
  9  3  2  0  0  0  0
 10  5  1  6  0  0  0
 10  7  1  0  0  0  0
 10 23  1  0  0  0  0
 11 16  1  0  0  0  0
 12  8  1  0  0  0  0
 13  9  1  0  0  0  0
 17  2  1  0  0  0  0
 17 13  1  0  0  0  0
 18 25  1  1  0  0  0
 18 19  1  0  0  0  0
 18  8  1  0  0  0  0
 19  5  1  0  0  0  0
 20 16  2  0  0  0  0
 20 15  1  0  0  0  0
 21 13  1  1  0  0  0
 21  7  1  0  0  0  0
 22  6  1  0  0  0  0
 23 30  1  1  0  0  0
 23 28  1  0  0  0  0
 24  2  1  0  0  0  0
 27 25  1  1  0  0  0
 27 21  1  0  0  0  0
 27  1  1  0  0  0  0
 28 15  1  0  0  0  0
 29 35  1  0  0  0  0
 30 29  2  0  0  0  0
 31 34  2  0  0  0  0
 31 30  1  0  0  0  0
 32 34  1  0  0  0  0
 33 35  2  0  0  0  0
 34 33  1  0  0  0  0
 37 36  1  0  0  0  0
M  END
>  <MODEL>
8

>  <REMARK>
 VINA RESULT:      -4.1      3.079      7.644
  Name = 
  2 active torsions:
  status: ('A' for Active; 'I' for Inactive)
    1  A    between atoms: C_4  and  C_37
    2  A    between atoms: C_23  and  C_30
                            x       y       z     vdW  Elec       q    Type
                         _______ _______ _______ _____ _____    ______ ____

>  <TORSDO>
F 2

$$$$
=
 OpenBabel11122411253D

 37 43  0  0  1  0  0  0  0  0999 V2000
  184.4730  175.9300  137.7800 C   0  0  0  0  0  2  0  0  0  0  0  0
  188.9450  177.6630  135.7700 C   0  0  0  0  0  0  0  0  0  0  0  0
  187.6820  177.5260  139.7570 C   0  0  0  0  0  0  0  0  0  0  0  0
  183.0550  175.5020  137.4000 C   0  0  2  0  0  3  0  0  0  0  0  0
  184.6220  179.4820  140.2460 C   0  0  0  0  0  2  0  0  0  0  0  0
  189.5140  177.6140  138.1880 C   0  0  0  0  0  0  0  0  0  0  0  0
  186.1830  177.5050  139.6690 C   0  0  1  0  0  3  0  0  0  0  0  0
  182.4370  176.8600  139.5470 C   0  0  2  0  0  3  0  0  0  0  0  0
  188.1680  177.5430  138.4810 C   0  0  0  0  0  0  0  0  0  0  0  0
  185.3690  178.2510  140.7450 C   0  0  1  0  0  3  0  0  0  0  0  0
  190.4300  177.5960  139.2490 C   0  0  0  0  0  3  0  0  0  0  0  0
  181.9920  175.8850  138.4430 C   0  0  0  0  0  2  0  0  0  0  0  0
  187.1760  177.6820  137.4960 N   0  0  0  0  0  0  0  0  0  0  0  0
  188.8200  176.2120  135.3380 C   0  0  0  0  0  1  0  0  0  0  0  0
  188.1150  177.6120  142.2780 C   0  0  0  0  0  2  0  0  0  0  0  0
  189.9540  177.5420  140.5770 C   0  0  0  0  0  3  0  0  0  0  0  0
  187.5480  178.1940  136.1780 C   0  0  0  0  0  2  0  0  0  0  0  0
  182.7950  178.2000  139.0500 N   0  0  1  0  0  0  0  0  0  0  0  0
  183.1280  179.1800  140.0970 C   0  0  0  0  0  2  0  0  0  0  0  0
  188.5710  177.5040  140.8510 C   0  0  0  0  0  0  0  0  0  0  0  0
  185.9430  177.9870  138.2120 C   0  0  1  0  0  3  0  0  0  0  0  0
  189.8970  177.7580  136.8480 O   0  0  0  0  0  0  0  0  0  0  0  0
  186.0510  178.4260  142.1060 C   0  0  2  0  0  3  0  0  0  0  0  0
  189.4500  178.4700  134.5940 C   0  0  0  0  0  1  0  0  0  0  0  0
  183.4810  178.3450  137.7530 C   0  0  0  0  0  2  0  0  0  0  0  0
  183.4210  176.3060  140.3460 F   0  0  0  0  0  0  0  0  0  0  0  0
  184.6980  177.4260  137.5370 C   0  0  2  0  0  3  0  0  0  0  0  0
  186.7670  177.2670  142.4290 O   0  0  0  0  0  0  0  0  0  0  0  0
  185.4490  178.8650  144.5180 C   0  0  0  0  0  3  0  0  0  0  0  0
  185.0500  178.7220  143.1800 C   0  0  0  0  0  0  0  0  0  0  0  0
  183.6970  178.8400  142.8430 C   0  0  0  0  0  3  0  0  0  0  0  0
  181.4390  179.2160  143.5060 F   0  0  0  0  0  0  0  0  0  0  0  0
  183.1470  179.2440  145.1670 C   0  0  0  0  0  3  0  0  0  0  0  0
  182.7480  179.1010  143.8360 C   0  0  0  0  0  0  0  0  0  0  0  0
  184.4980  179.1250  145.5080 C   0  0  0  0  0  3  0  0  0  0  0  0
  184.2420  173.3870  137.6170 N   0  0  0  0  0  1  0  0  0  0  0  0
  183.0040  174.0020  137.1700 C   0  0  0  0  0  2  0  0  0  0  0  0
  2 17  1  0  0  0  0
  2 22  1  0  0  0  0
  3 20  1  0  0  0  0
  4 37  1  1  0  0  0
  4  1  1  0  0  0  0
  4 12  1  0  0  0  0
  6  9  1  0  0  0  0
  6 11  2  0  0  0  0
  7  3  1  1  0  0  0
  7 10  1  0  0  0  0
  8 26  1  6  0  0  0
  9  3  2  0  0  0  0
 10  5  1  6  0  0  0
 10 23  1  0  0  0  0
 11 16  1  0  0  0  0
 12  8  1  0  0  0  0
 13  9  1  0  0  0  0
 14  2  1  0  0  0  0
 15 28  1  0  0  0  0
 16 20  2  0  0  0  0
 17 13  1  0  0  0  0
 18 25  1  6  0  0  0
 18  8  1  0  0  0  0
 18 19  1  0  0  0  0
 19  5  1  0  0  0  0
 20 15  1  0  0  0  0
 21 13  1  6  0  0  0
 21  7  1  0  0  0  0
 22  6  1  0  0  0  0
 23 28  1  0  0  0  0
 23 30  1  1  0  0  0
 24  2  1  0  0  0  0
 27 25  1  1  0  0  0
 27  1  1  0  0  0  0
 27 21  1  0  0  0  0
 29 35  1  0  0  0  0
 30 29  2  0  0  0  0
 31 30  1  0  0  0  0
 31 34  2  0  0  0  0
 32 34  1  0  0  0  0
 33 35  2  0  0  0  0
 34 33  1  0  0  0  0
 37 36  1  0  0  0  0
M  END
>  <MODEL>
9

>  <REMARK>
 VINA RESULT:      -3.9      2.976      7.433
  Name = 
  2 active torsions:
  status: ('A' for Active; 'I' for Inactive)
    1  A    between atoms: C_4  and  C_37
    2  A    between atoms: C_23  and  C_30
                            x       y       z     vdW  Elec       q    Type
                         _______ _______ _______ _____ _____    ______ ____

>  <TORSDO>
F 2

$$$$
