=
 OpenBabel11122410363D

 32 37  0  0  1  0  0  0  0  0999 V2000
  191.3800  175.7070  137.7520 C   0  0  0  0  0  2  0  0  0  0  0  0
  189.1370  177.6070  141.9820 C   0  0  0  0  0  0  0  0  0  0  0  0
  191.6940  176.8800  146.0330 N   0  0  0  0  0  0  0  0  0  0  0  0
  190.5990  177.1140  146.8020 C   0  0  0  0  0  3  0  0  0  0  0  0
  186.7090  178.1800  142.1780 C   0  0  0  0  0  0  0  0  0  0  0  0
  185.6420  178.4010  143.0390 C   0  0  0  0  0  0  0  0  0  0  0  0
  190.3650  177.8830  139.8640 N   0  0  1  0  0  0  0  0  0  0  0  0
  191.6200  177.0930  141.8070 C   0  0  0  0  0  2  0  0  0  0  0  0
  184.6080  178.5810  144.9010 C   0  0  0  0  0  0  0  0  0  0  0  0
  192.6820  176.9480  139.5710 C   0  0  0  0  0  2  0  0  0  0  0  0
  191.6360  176.9330  144.6770 C   0  0  0  0  0  3  0  0  0  0  0  0
  190.3590  177.2860  142.6200 C   0  0  0  0  0  0  0  0  0  0  0  0
  190.4300  177.2340  144.0230 C   0  0  0  0  0  0  0  0  0  0  0  0
  188.0620  177.7890  144.1850 C   0  0  0  0  0  0  0  0  0  0  0  0
  183.6760  178.8370  143.9550 N   0  0  0  0  0  0  0  0  0  0  0  0
  190.0610  176.4950  137.7650 C   0  0  0  0  0  2  0  0  0  0  0  0
  191.3440  176.8840  140.3230 C   0  0  2  0  0  3  0  0  0  0  0  0
  184.3250  178.7240  142.7650 C   0  0  0  0  0  3  0  0  0  0  0  0
  190.1590  177.8930  138.4060 C   0  0  0  0  0  2  0  0  0  0  0  0
  192.6000  176.5700  138.0840 C   0  0  1  0  0  3  0  0  0  0  0  0
  189.3770  177.4160  146.2010 C   0  0  0  0  0  3  0  0  0  0  0  0
  189.2820  177.4800  144.8040 C   0  0  0  0  0  0  0  0  0  0  0  0
  186.9530  178.0250  144.9480 N   0  0  0  0  0  0  0  0  0  0  0  0
  189.0780  177.5570  140.4740 C   0  0  0  0  0  2  0  0  0  0  0  0
  186.5100  178.2870  140.8060 O   0  0  0  0  0  1  0  0  0  0  0  0
  184.3320  178.5970  146.3640 C   0  0  0  0  0  1  0  0  0  0  0  0
  187.9720  177.8570  142.7560 C   0  0  0  0  0  0  0  0  0  0  0  0
  185.8010  178.3170  144.3550 N   0  0  0  0  0  0  0  0  0  0  0  0
  193.7680  175.9040  137.7080 O   0  0  0  0  0  0  0  0  0  0  0  0
  194.0270  176.3590  136.0980 P   0  0  0  0  0  0  0  0  0  0  0  0
  193.2250  175.7140  134.9910 O   0  0  0  0  0  0  0  0  0  0  0  0
  195.0630  177.4090  135.7660 O   0  0  0  0  0  0  0  0  0  0  0  0
  1 16  1  0  0  0  0
  1 20  1  0  0  0  0
  2 12  2  0  0  0  0
  2 27  1  0  0  0  0
  3  4  1  0  0  0  0
  5 27  2  0  0  0  0
  5  6  1  0  0  0  0
  6 28  1  0  0  0  0
  7 19  1  6  0  0  0
  7 17  1  0  0  0  0
  7 24  1  0  0  0  0
  8 12  1  0  0  0  0
  9 26  1  0  0  0  0
 11  3  2  0  0  0  0
 12 13  1  0  0  0  0
 13 11  1  0  0  0  0
 13 22  2  0  0  0  0
 14 22  1  0  0  0  0
 14 23  2  0  0  0  0
 15  9  2  0  0  0  0
 16 19  1  0  0  0  0
 17 10  1  6  0  0  0
 17  8  1  0  0  0  0
 18  6  2  0  0  0  0
 18 15  1  0  0  0  0
 20 29  1  1  0  0  0
 20 10  1  0  0  0  0
 21  4  2  0  0  0  0
 22 21  1  0  0  0  0
 24  2  1  0  0  0  0
 25  5  1  0  0  0  0
 27 14  1  0  0  0  0
 28  9  1  0  0  0  0
 28 23  1  0  0  0  0
 30 29  1  0  0  0  0
 31 30  2  0  0  0  0
 32 30  2  0  0  0  0
M  END
>  <MODEL>
1

>  <REMARK>
 VINA RESULT:     -10.1      0.000      0.000
  Name = 
  2 active torsions:
  status: ('A' for Active; 'I' for Inactive)
    1  A    between atoms: C_20  and  O_29
    2  A    between atoms: O_29  and  P_30
                            x       y       z     vdW  Elec       q    Type
                         _______ _______ _______ _____ _____    ______ ____

>  <TORSDO>
F 2

$$$$
=
 OpenBabel11122410363D

 32 37  0  0  1  0  0  0  0  0999 V2000
  188.9520  179.0270  137.4400 C   0  0  0  0  0  2  0  0  0  0  0  0
  187.6640  177.8800  142.2930 C   0  0  0  0  0  0  0  0  0  0  0  0
  183.1280  179.1310  143.4490 N   0  0  0  0  0  0  0  0  0  0  0  0
  183.4130  179.0570  144.7750 C   0  0  0  0  0  3  0  0  0  0  0  0
  189.2950  177.4300  144.1370 C   0  0  0  0  0  0  0  0  0  0  0  0
  189.5000  177.3820  145.5100 C   0  0  0  0  0  0  0  0  0  0  0  0
  188.1370  177.2390  139.9620 N   0  0  1  0  0  0  0  0  0  0  0  0
  185.9740  178.2730  140.4360 C   0  0  0  0  0  2  0  0  0  0  0  0
  189.0170  177.5270  147.5870 C   0  0  0  0  0  0  0  0  0  0  0  0
  186.6800  178.0360  138.0720 C   0  0  0  0  0  2  0  0  0  0  0  0
  184.0670  178.8720  142.5040 C   0  0  0  0  0  3  0  0  0  0  0  0
  186.3560  178.2520  141.9000 C   0  0  0  0  0  0  0  0  0  0  0  0
  185.3750  178.5170  142.8720 C   0  0  0  0  0  0  0  0  0  0  0  0
  186.9860  178.0770  144.6470 C   0  0  0  0  0  0  0  0  0  0  0  0
  190.3200  177.1620  147.5530 N   0  0  0  0  0  0  0  0  0  0  0  0
  189.8640  178.2980  138.4390 C   0  0  0  0  0  2  0  0  0  0  0  0
  187.1810  178.2610  139.5070 C   0  0  2  0  0  3  0  0  0  0  0  0
  190.6360  177.0670  146.2330 C   0  0  0  0  0  3  0  0  0  0  0  0
  189.2580  177.0130  139.0350 C   0  0  0  0  0  2  0  0  0  0  0  0
  187.7580  178.1830  136.9870 C   0  0  1  0  0  3  0  0  0  0  0  0
  184.6970  178.7090  145.1940 C   0  0  0  0  0  3  0  0  0  0  0  0
  185.6910  178.4350  144.2430 C   0  0  0  0  0  0  0  0  0  0  0  0
  187.2850  178.0000  145.9780 N   0  0  0  0  0  0  0  0  0  0  0  0
  188.7130  177.7000  141.2230 C   0  0  0  0  0  2  0  0  0  0  0  0
  190.3460  177.1210  143.2810 O   0  0  0  0  0  1  0  0  0  0  0  0
  188.2490  177.7450  148.8430 C   0  0  0  0  0  1  0  0  0  0  0  0
  187.9960  177.7930  143.6720 C   0  0  0  0  0  0  0  0  0  0  0  0
  188.5130  177.6620  146.3550 N   0  0  0  0  0  0  0  0  0  0  0  0
  187.1910  178.7410  135.8400 O   0  0  0  0  0  0  0  0  0  0  0  0
  186.5400  177.4280  134.9930 P   0  0  0  0  0  0  0  0  0  0  0  0
  185.0820  177.4340  134.5940 O   0  0  0  0  0  0  0  0  0  0  0  0
  187.4150  176.2490  134.6360 O   0  0  0  0  0  0  0  0  0  0  0  0
  1 16  1  0  0  0  0
  2 27  1  0  0  0  0
  3  4  1  0  0  0  0
  4 21  2  0  0  0  0
  5  6  1  0  0  0  0
  6 18  2  0  0  0  0
  6 28  1  0  0  0  0
  7 19  1  6  0  0  0
  7 24  1  0  0  0  0
  8 12  1  0  0  0  0
  9 26  1  0  0  0  0
 11 13  1  0  0  0  0
 11  3  2  0  0  0  0
 12  2  2  0  0  0  0
 12 13  1  0  0  0  0
 13 22  2  0  0  0  0
 14 23  2  0  0  0  0
 15  9  2  0  0  0  0
 16 19  1  0  0  0  0
 17 10  1  6  0  0  0
 17  7  1  0  0  0  0
 17  8  1  0  0  0  0
 18 15  1  0  0  0  0
 20 29  1  6  0  0  0
 20  1  1  0  0  0  0
 20 10  1  0  0  0  0
 22 14  1  0  0  0  0
 22 21  1  0  0  0  0
 23 28  1  0  0  0  0
 24  2  1  0  0  0  0
 25  5  1  0  0  0  0
 27  5  2  0  0  0  0
 27 14  1  0  0  0  0
 28  9  1  0  0  0  0
 30 29  1  0  0  0  0
 31 30  2  0  0  0  0
 32 30  2  0  0  0  0
M  END
>  <MODEL>
2

>  <REMARK>
 VINA RESULT:     -10.1      3.050      5.382
  Name = 
  2 active torsions:
  status: ('A' for Active; 'I' for Inactive)
    1  A    between atoms: C_20  and  O_29
    2  A    between atoms: O_29  and  P_30
                            x       y       z     vdW  Elec       q    Type
                         _______ _______ _______ _____ _____    ______ ____

>  <TORSDO>
F 2

$$$$
=
 OpenBabel11122410363D

 32 37  0  0  1  0  0  0  0  0999 V2000
  189.2360  176.0350  136.8740 C   0  0  0  0  0  2  0  0  0  0  0  0
  188.3800  177.6690  141.6840 C   0  0  0  0  0  0  0  0  0  0  0  0
  191.7990  176.3110  144.8370 N   0  0  0  0  0  0  0  0  0  0  0  0
  190.9720  176.5550  145.8850 C   0  0  0  0  0  3  0  0  0  0  0  0
  186.1620  178.4210  142.5640 C   0  0  0  0  0  0  0  0  0  0  0  0
  185.3830  178.6410  143.6930 C   0  0  0  0  0  0  0  0  0  0  0  0
  189.0430  178.0580  139.3430 N   0  0  1  0  0  0  0  0  0  0  0  0
  190.6620  176.9670  140.8130 C   0  0  0  0  0  2  0  0  0  0  0  0
  184.8910  178.7140  145.7720 C   0  0  0  0  0  0  0  0  0  0  0  0
  191.0900  176.9650  138.3710 C   0  0  0  0  0  2  0  0  0  0  0  0
  191.4000  176.5090  143.5540 C   0  0  0  0  0  3  0  0  0  0  0  0
  189.6830  177.1810  141.9450 C   0  0  0  0  0  0  0  0  0  0  0  0
  190.1060  176.9770  143.2700 C   0  0  0  0  0  0  0  0  0  0  0  0
  187.9360  177.7110  144.1010 C   0  0  0  0  0  0  0  0  0  0  0  0
  183.7790  179.1440  145.1310 N   0  0  0  0  0  0  0  0  0  0  0  0
  188.0590  176.9260  137.3000 C   0  0  0  0  0  2  0  0  0  0  0  0
  189.9920  176.9380  139.4450 C   0  0  2  0  0  3  0  0  0  0  0  0
  184.0840  179.1010  143.8060 C   0  0  0  0  0  3  0  0  0  0  0  0
  188.4700  178.2360  137.9980 C   0  0  0  0  0  2  0  0  0  0  0  0
  190.5870  176.7530  136.9350 C   0  0  1  0  0  3  0  0  0  0  0  0
  189.6770  177.0210  145.6580 C   0  0  0  0  0  3  0  0  0  0  0  0
  189.2330  177.2370  144.3460 C   0  0  0  0  0  0  0  0  0  0  0  0
  187.0930  177.9600  145.1470 N   0  0  0  0  0  0  0  0  0  0  0  0
  187.9290  177.7800  140.2470 C   0  0  0  0  0  2  0  0  0  0  0  0
  185.6290  178.6870  141.3080 O   0  0  0  0  0  1  0  0  0  0  0  0
  185.0050  178.6010  147.2520 C   0  0  0  0  0  1  0  0  0  0  0  0
  187.4880  177.9350  142.7580 C   0  0  0  0  0  0  0  0  0  0  0  0
  185.8660  178.4080  144.9090 N   0  0  0  0  0  0  0  0  0  0  0  0
  191.5380  176.0330  136.2100 O   0  0  0  0  0  0  0  0  0  0  0  0
  191.9050  174.6950  137.1810 P   0  0  0  0  0  0  0  0  0  0  0  0
  190.8580  173.6340  137.4320 O   0  0  0  0  0  0  0  0  0  0  0  0
  193.2780  174.5630  137.7980 O   0  0  0  0  0  0  0  0  0  0  0  0
  1 20  1  0  0  0  0
  1 16  1  0  0  0  0
  2 12  2  0  0  0  0
  2 27  1  0  0  0  0
  3  4  1  0  0  0  0
  5 27  2  0  0  0  0
  5  6  1  0  0  0  0
  6 18  2  0  0  0  0
  6 28  1  0  0  0  0
  7 19  1  6  0  0  0
  7 17  1  0  0  0  0
  7 24  1  0  0  0  0
  8 12  1  0  0  0  0
  9 26  1  0  0  0  0
 11  3  2  0  0  0  0
 12 13  1  0  0  0  0
 13 11  1  0  0  0  0
 13 22  2  0  0  0  0
 14 22  1  0  0  0  0
 14 23  2  0  0  0  0
 15  9  2  0  0  0  0
 16 19  1  0  0  0  0
 17 10  1  6  0  0  0
 17  8  1  0  0  0  0
 18 15  1  0  0  0  0
 20 29  1  6  0  0  0
 20 10  1  0  0  0  0
 21  4  2  0  0  0  0
 22 21  1  0  0  0  0
 24  2  1  0  0  0  0
 25  5  1  0  0  0  0
 27 14  1  0  0  0  0
 28 23  1  0  0  0  0
 28  9  1  0  0  0  0
 29 30  1  0  0  0  0
 30 31  2  0  0  0  0
 30 32  2  0  0  0  0
M  END
>  <MODEL>
3

>  <REMARK>
 VINA RESULT:      -9.9      1.385      1.703
  Name = 
  2 active torsions:
  status: ('A' for Active; 'I' for Inactive)
    1  A    between atoms: C_20  and  O_29
    2  A    between atoms: O_29  and  P_30
                            x       y       z     vdW  Elec       q    Type
                         _______ _______ _______ _____ _____    ______ ____

>  <TORSDO>
F 2

$$$$
=
 OpenBabel11122410363D

 32 37  0  0  1  0  0  0  0  0999 V2000
  190.8890  176.1480  138.6540 C   0  0  0  0  0  2  0  0  0  0  0  0
  187.2000  178.0810  141.6840 C   0  0  0  0  0  0  0  0  0  0  0  0
  188.1220  177.6050  146.4170 N   0  0  0  0  0  0  0  0  0  0  0  0
  186.8160  177.8140  146.7230 C   0  0  0  0  0  3  0  0  0  0  0  0
  184.8510  178.5490  140.9570 C   0  0  0  0  0  0  0  0  0  0  0  0
  183.5370  178.7490  141.3600 C   0  0  0  0  0  0  0  0  0  0  0  0
  189.1070  178.3440  140.1460 N   0  0  1  0  0  0  0  0  0  0  0  0
  189.5900  177.6760  142.4480 C   0  0  0  0  0  2  0  0  0  0  0  0
  181.8900  178.9430  142.7090 C   0  0  0  0  0  0  0  0  0  0  0  0
  191.3980  177.5060  140.7610 C   0  0  0  0  0  2  0  0  0  0  0  0
  188.5620  177.6110  145.1320 C   0  0  0  0  0  3  0  0  0  0  0  0
  188.1140  177.8380  142.7370 C   0  0  0  0  0  0  0  0  0  0  0  0
  187.6690  177.8350  144.0710 C   0  0  0  0  0  0  0  0  0  0  0  0
  185.3900  178.2870  143.3350 C   0  0  0  0  0  0  0  0  0  0  0  0
  181.3600  179.1240  141.4770 N   0  0  0  0  0  0  0  0  0  0  0  0
  189.6320  176.8740  138.1490 C   0  0  0  0  0  2  0  0  0  0  0  0
  189.8810  177.4060  140.9770 C   0  0  2  0  0  3  0  0  0  0  0  0
  182.4030  179.0020  140.6110 C   0  0  0  0  0  3  0  0  0  0  0  0
  189.4470  178.2960  138.7150 C   0  0  0  0  0  2  0  0  0  0  0  0
  191.8770  177.0760  139.3650 C   0  0  1  0  0  3  0  0  0  0  0  0
  185.8890  178.0400  145.7060 C   0  0  0  0  0  3  0  0  0  0  0  0
  186.3090  178.0530  144.3680 C   0  0  0  0  0  0  0  0  0  0  0  0
  184.0730  178.4970  143.6300 N   0  0  0  0  0  0  0  0  0  0  0  0
  187.6970  177.9790  140.2620 C   0  0  0  0  0  2  0  0  0  0  0  0
  185.1640  178.6020  139.6030 O   0  0  0  0  0  1  0  0  0  0  0  0
  181.1000  178.9940  143.9680 C   0  0  0  0  0  1  0  0  0  0  0  0
  185.8260  178.3030  141.9690 C   0  0  0  0  0  0  0  0  0  0  0  0
  183.2070  178.7150  142.6460 N   0  0  0  0  0  0  0  0  0  0  0  0
  193.1210  176.4520  139.4700 O   0  0  0  0  0  0  0  0  0  0  0  0
  193.4600  175.8930  137.9090 P   0  0  0  0  0  0  0  0  0  0  0  0
  193.9270  176.8590  136.8450 O   0  0  0  0  0  0  0  0  0  0  0  0
  193.2950  174.4270  137.5790 O   0  0  0  0  0  0  0  0  0  0  0  0
  1 20  1  0  0  0  0
  2 27  1  0  0  0  0
  2 12  2  0  0  0  0
  3  4  1  0  0  0  0
  5  6  1  0  0  0  0
  5 27  2  0  0  0  0
  6 28  1  0  0  0  0
  7 19  1  6  0  0  0
  7 24  1  0  0  0  0
  7 17  1  0  0  0  0
  8 12  1  0  0  0  0
  9 26  1  0  0  0  0
 11  3  2  0  0  0  0
 12 13  1  0  0  0  0
 13 22  2  0  0  0  0
 13 11  1  0  0  0  0
 14 23  2  0  0  0  0
 14 22  1  0  0  0  0
 15  9  2  0  0  0  0
 16  1  1  0  0  0  0
 16 19  1  0  0  0  0
 17 10  1  1  0  0  0
 17  8  1  0  0  0  0
 18  6  2  0  0  0  0
 18 15  1  0  0  0  0
 20 29  1  1  0  0  0
 20 10  1  0  0  0  0
 21  4  2  0  0  0  0
 22 21  1  0  0  0  0
 24  2  1  0  0  0  0
 25  5  1  0  0  0  0
 27 14  1  0  0  0  0
 28  9  1  0  0  0  0
 28 23  1  0  0  0  0
 30 29  1  0  0  0  0
 31 30  2  0  0  0  0
 32 30  2  0  0  0  0
M  END
>  <MODEL>
4

>  <REMARK>
 VINA RESULT:      -9.6      1.663      2.647
  Name = 
  2 active torsions:
  status: ('A' for Active; 'I' for Inactive)
    1  A    between atoms: C_20  and  O_29
    2  A    between atoms: O_29  and  P_30
                            x       y       z     vdW  Elec       q    Type
                         _______ _______ _______ _____ _____    ______ ____

>  <TORSDO>
F 2

$$$$
=
 OpenBabel11122410363D

 32 37  0  0  1  0  0  0  0  0999 V2000
  191.9430  175.1490  146.1070 C   0  0  0  0  0  2  0  0  0  0  0  0
  188.2240  177.7540  143.6750 C   0  0  0  0  0  0  0  0  0  0  0  0
  184.3380  178.6280  146.4330 N   0  0  0  0  0  0  0  0  0  0  0  0
  183.5790  178.8810  145.3360 C   0  0  0  0  0  3  0  0  0  0  0  0
  188.0030  177.9440  141.1890 C   0  0  0  0  0  0  0  0  0  0  0  0
  187.1530  178.2150  140.1240 C   0  0  0  0  0  0  0  0  0  0  0  0
  190.4260  177.6270  144.7720 N   0  0  1  0  0  0  0  0  0  0  0  0
  188.4450  177.6340  146.2040 C   0  0  0  0  0  2  0  0  0  0  0  0
  185.3350  178.7350  139.1280 C   0  0  0  0  0  0  0  0  0  0  0  0
  190.6340  177.0480  147.2110 C   0  0  0  0  0  2  0  0  0  0  0  0
  185.6490  178.2890  146.3290 C   0  0  0  0  0  3  0  0  0  0  0  0
  187.6200  177.8330  144.9520 C   0  0  0  0  0  0  0  0  0  0  0  0
  186.2650  178.1880  145.0710 C   0  0  0  0  0  0  0  0  0  0  0  0
  186.0760  178.3630  142.6470 C   0  0  0  0  0  0  0  0  0  0  0  0
  186.2400  178.5550  138.1380 N   0  0  0  0  0  0  0  0  0  0  0  0
  192.0410  175.6760  144.6670 C   0  0  0  0  0  2  0  0  0  0  0  0
  189.7910  176.9750  145.9290 C   0  0  2  0  0  3  0  0  0  0  0  0
  187.4020  178.2240  138.7640 C   0  0  0  0  0  3  0  0  0  0  0  0
  191.8120  177.1930  144.5270 C   0  0  0  0  0  2  0  0  0  0  0  0
  191.9520  176.2610  147.1580 C   0  0  1  0  0  3  0  0  0  0  0  0
  184.1420  178.7940  144.0630 C   0  0  0  0  0  3  0  0  0  0  0  0
  185.4930  178.4470  143.9190 C   0  0  0  0  0  0  0  0  0  0  0  0
  185.3220  178.6140  141.5350 N   0  0  0  0  0  0  0  0  0  0  0  0
  189.6530  177.2740  143.5830 C   0  0  0  0  0  2  0  0  0  0  0  0
  189.3330  177.6280  140.9360 O   0  0  0  0  0  1  0  0  0  0  0  0
  183.9150  179.1130  138.8950 C   0  0  0  0  0  1  0  0  0  0  0  0
  187.4580  178.0120  142.5060 C   0  0  0  0  0  0  0  0  0  0  0  0
  185.8800  178.5310  140.3330 N   0  0  0  0  0  0  0  0  0  0  0  0
  192.2240  175.7220  148.4160 O   0  0  0  0  0  0  0  0  0  0  0  0
  193.0320  176.9520  149.2520 P   0  0  0  0  0  0  0  0  0  0  0  0
  192.3330  178.2630  149.5300 O   0  0  0  0  0  0  0  0  0  0  0  0
  194.4540  176.7410  149.7190 O   0  0  0  0  0  0  0  0  0  0  0  0
  1 20  1  0  0  0  0
  2 12  2  0  0  0  0
  4  3  2  0  0  0  0
  5 27  2  0  0  0  0
  6 28  1  0  0  0  0
  6  5  1  0  0  0  0
  7 24  1  6  0  0  0
  7 17  1  0  0  0  0
  9 28  1  0  0  0  0
 11  3  1  0  0  0  0
 12 13  1  0  0  0  0
 12  8  1  0  0  0  0
 13 11  2  0  0  0  0
 14 22  1  0  0  0  0
 15 18  1  0  0  0  0
 15  9  2  0  0  0  0
 16  1  1  0  0  0  0
 17  8  1  1  0  0  0
 17 10  1  0  0  0  0
 18  6  2  0  0  0  0
 19 16  1  0  0  0  0
 19  7  1  0  0  0  0
 20 10  1  0  0  0  0
 20 29  1  1  0  0  0
 21  4  1  0  0  0  0
 22 21  2  0  0  0  0
 22 13  1  0  0  0  0
 23 14  2  0  0  0  0
 24  2  1  0  0  0  0
 25  5  1  0  0  0  0
 26  9  1  0  0  0  0
 27 14  1  0  0  0  0
 27  2  1  0  0  0  0
 28 23  1  0  0  0  0
 29 30  1  0  0  0  0
 30 31  2  0  0  0  0
 30 32  2  0  0  0  0
M  END
>  <MODEL>
5

>  <REMARK>
 VINA RESULT:      -9.6      4.511      6.998
  Name = 
  2 active torsions:
  status: ('A' for Active; 'I' for Inactive)
    1  A    between atoms: C_20  and  O_29
    2  A    between atoms: O_29  and  P_30
                            x       y       z     vdW  Elec       q    Type
                         _______ _______ _______ _____ _____    ______ ____

>  <TORSDO>
F 2

$$$$
=
 OpenBabel11122410363D

 32 37  0  0  1  0  0  0  0  0999 V2000
  180.0540  177.9700  142.4560 C   0  0  0  0  0  2  0  0  0  0  0  0
  185.0290  178.4260  143.7130 C   0  0  0  0  0  0  0  0  0  0  0  0
  188.0340  178.0370  139.9320 N   0  0  0  0  0  0  0  0  0  0  0  0
  189.0850  177.7890  140.7550 C   0  0  0  0  0  3  0  0  0  0  0  0
  185.9530  178.1330  146.0200 C   0  0  0  0  0  0  0  0  0  0  0  0
  187.0810  177.8690  146.7860 C   0  0  0  0  0  0  0  0  0  0  0  0
  182.7890  179.3790  143.3280 N   0  0  1  0  0  0  0  0  0  0  0  0
  184.1240  178.7890  141.3660 C   0  0  0  0  0  2  0  0  0  0  0  0
  189.1340  177.4430  147.2000 C   0  0  0  0  0  0  0  0  0  0  0  0
  181.7200  179.3090  141.0510 C   0  0  0  0  0  2  0  0  0  0  0  0
  186.7850  178.2530  140.4190 C   0  0  0  0  0  3  0  0  0  0  0  0
  185.2490  178.4430  142.3150 C   0  0  0  0  0  0  0  0  0  0  0  0
  186.5400  178.2250  141.8020 C   0  0  0  0  0  0  0  0  0  0  0  0
  187.4130  177.9410  144.0600 C   0  0  0  0  0  0  0  0  0  0  0  0
  188.5350  177.5030  148.4120 N   0  0  0  0  0  0  0  0  0  0  0  0
  180.5760  178.2680  143.8700 C   0  0  0  0  0  2  0  0  0  0  0  0
  182.7490  178.7060  142.0190 C   0  0  2  0  0  3  0  0  0  0  0  0
  187.2270  177.7750  148.1580 C   0  0  0  0  0  3  0  0  0  0  0  0
  181.4710  179.5190  143.9690 C   0  0  0  0  0  2  0  0  0  0  0  0
  180.2560  179.1330  141.4810 C   0  0  1  0  0  3  0  0  0  0  0  0
  188.8960  177.7500  142.1370 C   0  0  0  0  0  3  0  0  0  0  0  0
  187.6190  177.9690  142.6730 C   0  0  0  0  0  0  0  0  0  0  0  0
  188.4630  177.6910  144.8980 N   0  0  0  0  0  0  0  0  0  0  0  0
  183.6130  178.5660  144.2190 C   0  0  0  0  0  2  0  0  0  0  0  0
  184.7360  178.3550  146.6550 O   0  0  0  0  0  1  0  0  0  0  0  0
  190.5830  177.1670  147.0030 C   0  0  0  0  0  1  0  0  0  0  0  0
  186.1070  178.1700  144.6030 C   0  0  0  0  0  0  0  0  0  0  0  0
  188.2610  177.6640  146.2110 N   0  0  0  0  0  0  0  0  0  0  0  0
  179.4570  178.9470  140.3520 O   0  0  0  0  0  0  0  0  0  0  0  0
  179.6190  180.3800  139.4640 P   0  0  0  0  0  0  0  0  0  0  0  0
  179.3050  181.7100  140.1110 O   0  0  0  0  0  0  0  0  0  0  0  0
  180.0770  180.3300  138.0250 O   0  0  0  0  0  0  0  0  0  0  0  0
  1 16  1  0  0  0  0
  2 24  1  0  0  0  0
  2 27  1  0  0  0  0
  3 11  2  0  0  0  0
  3  4  1  0  0  0  0
  4 21  2  0  0  0  0
  5 25  1  0  0  0  0
  5  6  1  0  0  0  0
  6 18  2  0  0  0  0
  7 19  1  1  0  0  0
  7 24  1  0  0  0  0
  8 17  1  0  0  0  0
  8 12  1  0  0  0  0
  9 15  2  0  0  0  0
 10 20  1  0  0  0  0
 11 13  1  0  0  0  0
 12  2  2  0  0  0  0
 13 12  1  0  0  0  0
 13 22  2  0  0  0  0
 14 27  1  0  0  0  0
 14 23  2  0  0  0  0
 16 19  1  0  0  0  0
 17 10  1  6  0  0  0
 17  7  1  0  0  0  0
 18 15  1  0  0  0  0
 20 29  1  6  0  0  0
 20  1  1  0  0  0  0
 21 22  1  0  0  0  0
 22 14  1  0  0  0  0
 23 28  1  0  0  0  0
 26  9  1  0  0  0  0
 27  5  2  0  0  0  0
 28  6  1  0  0  0  0
 28  9  1  0  0  0  0
 30 31  2  0  0  0  0
 30 29  1  0  0  0  0
 32 30  2  0  0  0  0
M  END
>  <MODEL>
6

>  <REMARK>
 VINA RESULT:      -9.5      5.629      8.604
  Name = 
  2 active torsions:
  status: ('A' for Active; 'I' for Inactive)
    1  A    between atoms: C_20  and  O_29
    2  A    between atoms: O_29  and  P_30
                            x       y       z     vdW  Elec       q    Type
                         _______ _______ _______ _____ _____    ______ ____

>  <TORSDO>
F 2

$$$$
=
 OpenBabel11122410363D

 32 37  0  0  1  0  0  0  0  0999 V2000
  182.3520  180.3580  139.0920 C   0  0  0  0  0  2  0  0  0  0  0  0
  185.7960  178.2580  142.2950 C   0  0  0  0  0  0  0  0  0  0  0  0
  184.5560  178.5810  146.9680 N   0  0  0  0  0  0  0  0  0  0  0  0
  185.8350  178.3400  147.3550 C   0  0  0  0  0  3  0  0  0  0  0  0
  188.1820  177.7780  141.7140 C   0  0  0  0  0  0  0  0  0  0  0  0
  189.4630  177.5430  142.1980 C   0  0  0  0  0  0  0  0  0  0  0  0
  183.9960  178.0820  140.6220 N   0  0  1  0  0  0  0  0  0  0  0  0
  183.3650  178.6760  142.9080 C   0  0  0  0  0  2  0  0  0  0  0  0
  191.0100  177.2740  143.6490 C   0  0  0  0  0  0  0  0  0  0  0  0
  181.6800  178.9350  141.1080 C   0  0  0  0  0  2  0  0  0  0  0  0
  184.2060  178.6280  145.6570 C   0  0  0  0  0  3  0  0  0  0  0  0
  184.8150  178.4790  143.2910 C   0  0  0  0  0  0  0  0  0  0  0  0
  185.1660  178.4280  144.6510 C   0  0  0  0  0  0  0  0  0  0  0  0
  187.4840  177.9650  144.0570 C   0  0  0  0  0  0  0  0  0  0  0  0
  191.6210  177.1280  142.4500 N   0  0  0  0  0  0  0  0  0  0  0  0
  183.6310  179.6300  138.6480 C   0  0  0  0  0  2  0  0  0  0  0  0
  183.1800  179.0020  141.4310 C   0  0  2  0  0  3  0  0  0  0  0  0
  190.6430  177.2970  141.5200 C   0  0  0  0  0  3  0  0  0  0  0  0
  183.7570  178.1870  139.1730 C   0  0  0  0  0  2  0  0  0  0  0  0
  181.3050  179.4220  139.7000 C   0  0  1  0  0  3  0  0  0  0  0  0
  186.8270  178.1350  146.3970 C   0  0  0  0  0  3  0  0  0  0  0  0
  186.5000  178.1760  145.0340 C   0  0  0  0  0  0  0  0  0  0  0  0
  188.7750  177.7230  144.4340 N   0  0  0  0  0  0  0  0  0  0  0  0
  185.4000  178.4200  140.8470 C   0  0  0  0  0  2  0  0  0  0  0  0
  187.9640  177.7790  140.3410 O   0  0  0  0  0  1  0  0  0  0  0  0
  191.7110  177.1640  144.9570 C   0  0  0  0  0  1  0  0  0  0  0  0
  187.1440  178.0040  142.6660 C   0  0  0  0  0  0  0  0  0  0  0  0
  189.7030  177.5250  143.5050 N   0  0  0  0  0  0  0  0  0  0  0  0
  180.0650  180.0620  139.7420 O   0  0  0  0  0  0  0  0  0  0  0  0
  179.7020  180.4140  138.1270 P   0  0  0  0  0  0  0  0  0  0  0  0
  179.4350  181.8410  137.7060 O   0  0  0  0  0  0  0  0  0  0  0  0
  179.6430  179.3010  137.1050 O   0  0  0  0  0  0  0  0  0  0  0  0
  1 20  1  0  0  0  0
  2 27  1  0  0  0  0
  2 12  2  0  0  0  0
  3  4  1  0  0  0  0
  5  6  1  0  0  0  0
  5 27  2  0  0  0  0
  6 28  1  0  0  0  0
  7 19  1  6  0  0  0
  7 24  1  0  0  0  0
  7 17  1  0  0  0  0
  8 12  1  0  0  0  0
  9 26  1  0  0  0  0
 11  3  2  0  0  0  0
 12 13  1  0  0  0  0
 13 22  2  0  0  0  0
 13 11  1  0  0  0  0
 14 23  2  0  0  0  0
 14 22  1  0  0  0  0
 15  9  2  0  0  0  0
 16  1  1  0  0  0  0
 16 19  1  0  0  0  0
 17 10  1  6  0  0  0
 17  8  1  0  0  0  0
 18  6  2  0  0  0  0
 18 15  1  0  0  0  0
 20 29  1  1  0  0  0
 20 10  1  0  0  0  0
 21  4  2  0  0  0  0
 22 21  1  0  0  0  0
 24  2  1  0  0  0  0
 25  5  1  0  0  0  0
 27 14  1  0  0  0  0
 28  9  1  0  0  0  0
 28 23  1  0  0  0  0
 30 29  1  0  0  0  0
 31 30  2  0  0  0  0
 32 30  2  0  0  0  0
M  END
>  <MODEL>
7

>  <REMARK>
 VINA RESULT:      -9.5      4.176      8.027
  Name = 
  2 active torsions:
  status: ('A' for Active; 'I' for Inactive)
    1  A    between atoms: C_20  and  O_29
    2  A    between atoms: O_29  and  P_30
                            x       y       z     vdW  Elec       q    Type
                         _______ _______ _______ _____ _____    ______ ____

>  <TORSDO>
F 2

$$$$
=
 OpenBabel11122410363D

 32 37  0  0  1  0  0  0  0  0999 V2000
  189.5950  178.5270  148.2110 C   0  0  0  0  0  2  0  0  0  0  0  0
  186.2300  178.0730  144.3380 C   0  0  0  0  0  0  0  0  0  0  0  0
  188.2960  178.0870  139.9550 N   0  0  0  0  0  0  0  0  0  0  0  0
  187.1090  178.3800  139.3640 C   0  0  0  0  0  3  0  0  0  0  0  0
  183.7770  178.5350  144.5130 C   0  0  0  0  0  0  0  0  0  0  0  0
  182.6080  178.8380  143.8270 C   0  0  0  0  0  0  0  0  0  0  0  0
  187.5090  177.1380  146.2250 N   0  0  1  0  0  0  0  0  0  0  0  0
  188.7060  177.5360  144.1310 C   0  0  0  0  0  2  0  0  0  0  0  0
  181.3530  179.2550  142.1480 C   0  0  0  0  0  0  0  0  0  0  0  0
  190.0220  177.0420  146.1730 C   0  0  0  0  0  2  0  0  0  0  0  0
  188.4030  177.9380  141.3010 C   0  0  0  0  0  3  0  0  0  0  0  0
  187.3800  177.9370  143.5240 C   0  0  0  0  0  0  0  0  0  0  0  0
  187.2780  178.0840  142.1290 C   0  0  0  0  0  0  0  0  0  0  0  0
  184.8910  178.5360  142.3290 C   0  0  0  0  0  0  0  0  0  0  0  0
  180.5330  179.3070  143.2230 N   0  0  0  0  0  0  0  0  0  0  0  0
  188.0800  178.3360  148.3850 C   0  0  0  0  0  2  0  0  0  0  0  0
  188.7390  177.7020  145.6450 C   0  0  2  0  0  3  0  0  0  0  0  0
  181.3240  179.0430  144.2970 C   0  0  0  0  0  3  0  0  0  0  0  0
  187.5130  177.0790  147.6960 C   0  0  0  0  0  2  0  0  0  0  0  0
  190.3010  177.2830  147.6650 C   0  0  1  0  0  3  0  0  0  0  0  0
  185.9620  178.5360  140.1410 C   0  0  0  0  0  3  0  0  0  0  0  0
  186.0370  178.3890  141.5340 C   0  0  0  0  0  0  0  0  0  0  0  0
  183.6920  178.8320  141.7460 N   0  0  0  0  0  0  0  0  0  0  0  0
  186.3980  178.0050  145.8370 C   0  0  0  0  0  2  0  0  0  0  0  0
  183.7360  178.3920  145.8960 O   0  0  0  0  0  1  0  0  0  0  0  0
  180.9020  179.4830  140.7480 C   0  0  0  0  0  1  0  0  0  0  0  0
  184.9730  178.3790  143.7510 C   0  0  0  0  0  0  0  0  0  0  0  0
  182.6110  178.9710  142.5050 N   0  0  0  0  0  0  0  0  0  0  0  0
  191.6770  177.3920  147.8700 O   0  0  0  0  0  0  0  0  0  0  0  0
  192.2680  175.8140  147.6980 P   0  0  0  0  0  0  0  0  0  0  0  0
  192.7730  175.0600  148.9070 O   0  0  0  0  0  0  0  0  0  0  0  0
  192.2910  175.1600  146.3360 O   0  0  0  0  0  0  0  0  0  0  0  0
  1 16  1  0  0  0  0
  2 24  1  0  0  0  0
  3 11  1  0  0  0  0
  4  3  2  0  0  0  0
  4 21  1  0  0  0  0
  5 25  1  0  0  0  0
  6 18  2  0  0  0  0
  6  5  1  0  0  0  0
  7 24  1  1  0  0  0
  7 19  1  0  0  0  0
  9 28  1  0  0  0  0
  9 15  2  0  0  0  0
 10 20  1  0  0  0  0
 11 13  2  0  0  0  0
 12  8  1  0  0  0  0
 12  2  2  0  0  0  0
 13 12  1  0  0  0  0
 14 27  1  0  0  0  0
 15 18  1  0  0  0  0
 17  8  1  6  0  0  0
 17 10  1  0  0  0  0
 17  7  1  0  0  0  0
 19 16  1  0  0  0  0
 20 29  1  6  0  0  0
 20  1  1  0  0  0  0
 21 22  2  0  0  0  0
 22 13  1  0  0  0  0
 22 14  1  0  0  0  0
 23 14  2  0  0  0  0
 23 28  1  0  0  0  0
 26  9  1  0  0  0  0
 27  2  1  0  0  0  0
 27  5  2  0  0  0  0
 28  6  1  0  0  0  0
 30 29  1  0  0  0  0
 30 31  2  0  0  0  0
 32 30  2  0  0  0  0
M  END
>  <MODEL>
8

>  <REMARK>
 VINA RESULT:      -9.4      4.643      7.157
  Name = 
  2 active torsions:
  status: ('A' for Active; 'I' for Inactive)
    1  A    between atoms: C_20  and  O_29
    2  A    between atoms: O_29  and  P_30
                            x       y       z     vdW  Elec       q    Type
                         _______ _______ _______ _____ _____    ______ ____

>  <TORSDO>
F 2

$$$$
=
 OpenBabel11122410363D

 32 37  0  0  1  0  0  0  0  0999 V2000
  188.2670  178.6950  147.7950 C   0  0  0  0  0  2  0  0  0  0  0  0
  186.1710  178.1090  143.1270 C   0  0  0  0  0  0  0  0  0  0  0  0
  189.4220  177.9910  139.5360 N   0  0  0  0  0  0  0  0  0  0  0  0
  188.4600  178.2630  138.6170 C   0  0  0  0  0  3  0  0  0  0  0  0
  183.7760  178.5700  142.5670 C   0  0  0  0  0  0  0  0  0  0  0  0
  182.8590  178.8470  141.5610 C   0  0  0  0  0  0  0  0  0  0  0  0
  186.8390  177.2380  145.3320 N   0  0  1  0  0  0  0  0  0  0  0  0
  188.5960  177.5740  143.6660 C   0  0  0  0  0  2  0  0  0  0  0  0
  182.1490  179.2070  139.5770 C   0  0  0  0  0  0  0  0  0  0  0  0
  189.2590  177.1470  146.0170 C   0  0  0  0  0  2  0  0  0  0  0  0
  189.1320  177.8850  140.8580 C   0  0  0  0  0  3  0  0  0  0  0  0
  187.5070  177.9510  142.6870 C   0  0  0  0  0  0  0  0  0  0  0  0
  187.8160  178.0540  141.3190 C   0  0  0  0  0  0  0  0  0  0  0  0
  185.4770  178.5040  140.8020 C   0  0  0  0  0  0  0  0  0  0  0  0
  181.0520  179.2910  140.3650 N   0  0  0  0  0  0  0  0  0  0  0  0
  186.7650  178.5040  147.5270 C   0  0  0  0  0  2  0  0  0  0  0  0
  188.1890  177.7870  145.1180 C   0  0  2  0  0  3  0  0  0  0  0  0
  181.4950  179.0620  141.6310 C   0  0  0  0  0  3  0  0  0  0  0  0
  186.4150  177.2250  146.7420 C   0  0  0  0  0  2  0  0  0  0  0  0
  189.0930  177.4360  147.5160 C   0  0  1  0  0  3  0  0  0  0  0  0
  187.1380  178.4400  139.0210 C   0  0  0  0  0  3  0  0  0  0  0  0
  186.8030  178.3360  140.3790 C   0  0  0  0  0  0  0  0  0  0  0  0
  184.5010  178.7790  139.8860 N   0  0  0  0  0  0  0  0  0  0  0  0
  185.8950  178.0890  144.6110 C   0  0  0  0  0  2  0  0  0  0  0  0
  183.3340  178.4700  143.8810 O   0  0  0  0  0  1  0  0  0  0  0  0
  182.1260  179.3900  138.1000 C   0  0  0  0  0  1  0  0  0  0  0  0
  185.1400  178.3930  142.1910 C   0  0  0  0  0  0  0  0  0  0  0  0
  183.2470  178.9390  140.2930 N   0  0  0  0  0  0  0  0  0  0  0  0
  190.3500  177.5550  148.1100 O   0  0  0  0  0  0  0  0  0  0  0  0
  191.3670  176.5780  147.1740 P   0  0  0  0  0  0  0  0  0  0  0  0
  191.6710  175.1640  147.6130 O   0  0  0  0  0  0  0  0  0  0  0  0
  191.9730  177.1190  145.8990 O   0  0  0  0  0  0  0  0  0  0  0  0
  2 24  1  0  0  0  0
  3 11  1  0  0  0  0
  4 21  1  0  0  0  0
  4  3  2  0  0  0  0
  5 25  1  0  0  0  0
  6 18  2  0  0  0  0
  6  5  1  0  0  0  0
  7 24  1  6  0  0  0
  7 19  1  0  0  0  0
  9 28  1  0  0  0  0
  9 15  2  0  0  0  0
 10 20  1  0  0  0  0
 11 13  2  0  0  0  0
 12  2  2  0  0  0  0
 12  8  1  0  0  0  0
 13 12  1  0  0  0  0
 14 27  1  0  0  0  0
 15 18  1  0  0  0  0
 16  1  1  0  0  0  0
 17  8  1  6  0  0  0
 17  7  1  0  0  0  0
 17 10  1  0  0  0  0
 19 16  1  0  0  0  0
 20  1  1  0  0  0  0
 20 29  1  6  0  0  0
 21 22  2  0  0  0  0
 22 14  1  0  0  0  0
 22 13  1  0  0  0  0
 23 28  1  0  0  0  0
 23 14  2  0  0  0  0
 26  9  1  0  0  0  0
 27  5  2  0  0  0  0
 27  2  1  0  0  0  0
 28  6  1  0  0  0  0
 30 31  2  0  0  0  0
 30 29  1  0  0  0  0
 32 30  2  0  0  0  0
M  END
>  <MODEL>
9

>  <REMARK>
 VINA RESULT:      -9.4      4.347      7.144
  Name = 
  2 active torsions:
  status: ('A' for Active; 'I' for Inactive)
    1  A    between atoms: C_20  and  O_29
    2  A    between atoms: O_29  and  P_30
                            x       y       z     vdW  Elec       q    Type
                         _______ _______ _______ _____ _____    ______ ____

>  <TORSDO>
F 2

$$$$
