=
 OpenBabel11122411573D

 28 32  0  0  1  0  0  0  0  0999 V2000
  189.4730  178.1130  138.1610 C   0  0  0  0  0  0  0  0  0  0  0  0
  192.2810  175.5930  134.6260 F   0  0  0  0  0  0  0  0  0  0  0  0
  186.5250  174.7290  137.2800 O   0  0  0  0  0  0  0  0  0  0  0  0
  189.9370  176.7260  140.5480 C   0  0  0  0  0  3  0  0  0  0  0  0
  188.6140  173.7550  136.8070 N   0  0  0  0  0  0  0  0  0  0  0  0
  189.1990  178.7660  136.9580 O   0  0  0  0  0  0  0  0  0  0  0  0
  193.7760  176.6000  136.1490 C   0  0  0  0  0  1  0  0  0  0  0  0
  192.8670  175.4180  135.8700 C   0  0  1  0  0  0  0  0  0  0  0  0
  193.1600  173.0320  136.0510 C   0  0  0  0  0  0  0  0  0  0  0  0
  191.7940  175.3230  136.9720 C   0  0  2  0  0  3  0  0  0  0  0  0
  186.4360  177.6670  137.6970 O   0  0  0  0  0  1  0  0  0  0  0  0
  189.6210  175.7280  135.9280 C   0  0  1  0  0  3  0  0  0  0  0  0
  191.8240  172.8980  136.4370 O   0  0  0  0  0  0  0  0  0  0  0  0
  193.6740  174.2040  135.8380 N   0  0  0  0  0  0  0  0  0  0  0  0
  186.8970  178.1280  136.4620 C   0  0  2  0  0  3  0  0  0  0  0  0
  190.2210  176.9260  138.1380 C   0  0  0  0  0  0  0  0  0  0  0  0
  187.7110  174.8370  136.8680 C   0  0  0  0  0  0  0  0  0  0  0  0
  194.0060  171.8200  135.9000 C   0  0  0  0  0  1  0  0  0  0  0  0
  187.4190  176.9780  135.5910 C   0  0  0  0  0  2  0  0  0  0  0  0
  190.4350  176.2300  139.3400 C   0  0  0  0  0  3  0  0  0  0  0  0
  188.9710  178.6060  139.3750 C   0  0  0  0  0  3  0  0  0  0  0  0
  189.2080  177.9160  140.5650 C   0  0  0  0  0  3  0  0  0  0  0  0
  187.9050  179.2650  136.6420 C   0  0  0  0  0  2  0  0  0  0  0  0
  189.7950  174.2010  136.0860 C   0  0  1  0  0  3  0  0  0  0  0  0
  188.2480  176.0370  136.3430 N   0  0  0  0  0  0  0  0  0  0  0  0
  191.0420  173.9890  136.9290 C   0  0  2  0  0  3  0  0  0  0  0  0
  188.2450  172.3610  136.9840 C   0  0  0  0  0  1  0  0  0  0  0  0
  190.7090  176.3860  136.8050 C   0  0  1  0  0  3  0  0  0  0  0  0
  1 21  1  0  0  0  0
  2  8  1  0  0  0  0
  4 22  1  0  0  0  0
  5 17  1  0  0  0  0
  5 27  1  0  0  0  0
  6  1  1  0  0  0  0
  8  7  1  1  0  0  0
  8 10  1  0  0  0  0
  9 13  1  0  0  0  0
 12 24  1  0  0  0  0
 12 25  1  0  0  0  0
 12 28  1  0  0  0  0
 13 26  1  0  0  0  0
 14  8  1  0  0  0  0
 14  9  2  0  0  0  0
 15 23  1  0  0  0  0
 15 11  1  0  0  0  0
 16  1  2  0  0  0  0
 16 20  1  0  0  0  0
 17  3  2  0  0  0  0
 18  9  1  0  0  0  0
 19 25  1  0  0  0  0
 19 15  1  0  0  0  0
 20  4  2  0  0  0  0
 21 22  2  0  0  0  0
 23  6  1  0  0  0  0
 24  5  1  0  0  0  0
 24 26  1  0  0  0  0
 25 17  1  0  0  0  0
 26 10  1  0  0  0  0
 28 10  1  0  0  0  0
 28 16  1  0  0  0  0
M  END
>  <MODEL>
1

>  <REMARK>
 VINA RESULT:      -6.0      0.000      0.000
  Name = 
  0 active torsions:
  status: ('A' for Active; 'I' for Inactive)
                            x       y       z     vdW  Elec       q    Type
                         _______ _______ _______ _____ _____    ______ ____

>  <TORSDO>
F 0

$$$$
=
 OpenBabel11122411573D

 28 32  0  0  1  0  0  0  0  0999 V2000
  180.6020  179.2520  138.1000 C   0  0  0  0  0  0  0  0  0  0  0  0
  184.8290  176.2750  138.0860 F   0  0  0  0  0  0  0  0  0  0  0  0
  181.2400  179.0060  142.6240 O   0  0  0  0  0  0  0  0  0  0  0  0
  181.5790  181.8600  138.3750 C   0  0  0  0  0  3  0  0  0  0  0  0
  183.4130  178.7390  141.7610 N   0  0  0  0  0  0  0  0  0  0  0  0
  180.1150  177.9460  138.0230 O   0  0  0  0  0  0  0  0  0  0  0  0
  184.8670  177.5900  136.1270 C   0  0  0  0  0  1  0  0  0  0  0  0
  185.1670  177.5330  137.6130 C   0  0  1  0  0  0  0  0  0  0  0  0
  187.0810  178.1630  138.9360 C   0  0  0  0  0  0  0  0  0  0  0  0
  184.3610  178.6260  138.3420 C   0  0  2  0  0  3  0  0  0  0  0  0
  178.9710  178.8600  140.7140 O   0  0  0  0  0  1  0  0  0  0  0  0
  182.7690  177.5100  139.8240 C   0  0  1  0  0  3  0  0  0  0  0  0
  186.2330  178.5590  139.9740 O   0  0  0  0  0  0  0  0  0  0  0  0
  186.5970  177.7370  137.8110 N   0  0  0  0  0  0  0  0  0  0  0  0
  179.1210  177.5630  140.2180 C   0  0  2  0  0  3  0  0  0  0  0  0
  181.9720  179.4580  138.3240 C   0  0  0  0  0  0  0  0  0  0  0  0
  182.0110  178.5890  141.7180 C   0  0  0  0  0  0  0  0  0  0  0  0
  188.5530  178.2500  139.1180 C   0  0  0  0  0  1  0  0  0  0  0  0
  180.4360  176.9290  140.6870 C   0  0  0  0  0  2  0  0  0  0  0  0
  182.4490  180.7720  138.4750 C   0  0  0  0  0  3  0  0  0  0  0  0
  179.7300  180.3470  138.0050 C   0  0  0  0  0  3  0  0  0  0  0  0
  180.2200  181.6480  138.1370 C   0  0  0  0  0  3  0  0  0  0  0  0
  178.9350  177.5320  138.6990 C   0  0  0  0  0  2  0  0  0  0  0  0
  183.9790  177.9550  140.6750 C   0  0  1  0  0  3  0  0  0  0  0  0
  181.5680  177.8500  140.5940 N   0  0  0  0  0  0  0  0  0  0  0  0
  184.8420  178.8310  139.7830 C   0  0  2  0  0  3  0  0  0  0  0  0
  184.1610  179.1730  142.9290 C   0  0  0  0  0  1  0  0  0  0  0  0
  182.8850  178.2550  138.4750 C   0  0  1  0  0  3  0  0  0  0  0  0
  1 16  1  0  0  0  0
  4 20  1  0  0  0  0
  5 27  1  0  0  0  0
  6  1  1  0  0  0  0
  6 23  1  0  0  0  0
  8  7  1  6  0  0  0
  8 14  1  0  0  0  0
  8  2  1  0  0  0  0
  8 10  1  0  0  0  0
  9 18  1  0  0  0  0
  9 13  1  0  0  0  0
 10 28  1  0  0  0  0
 10 26  1  0  0  0  0
 12 25  1  0  0  0  0
 12 24  1  0  0  0  0
 14  9  2  0  0  0  0
 15 19  1  0  0  0  0
 15 11  1  0  0  0  0
 16 28  1  0  0  0  0
 16 20  2  0  0  0  0
 17  5  1  0  0  0  0
 17  3  2  0  0  0  0
 21  1  2  0  0  0  0
 21 22  1  0  0  0  0
 22  4  2  0  0  0  0
 23 15  1  0  0  0  0
 24  5  1  0  0  0  0
 25 19  1  0  0  0  0
 25 17  1  0  0  0  0
 26 13  1  0  0  0  0
 26 24  1  0  0  0  0
 28 12  1  0  0  0  0
M  END
>  <MODEL>
2

>  <REMARK>
 VINA RESULT:      -5.9      6.092      8.774
  Name = 
  0 active torsions:
  status: ('A' for Active; 'I' for Inactive)
                            x       y       z     vdW  Elec       q    Type
                         _______ _______ _______ _____ _____    ______ ____

>  <TORSDO>
F 0

$$$$
=
 OpenBabel11122411573D

 28 32  0  0  1  0  0  0  0  0999 V2000
  179.9080  179.3800  137.0480 C   0  0  0  0  0  0  0  0  0  0  0  0
  181.1440  174.7380  138.9630 F   0  0  0  0  0  0  0  0  0  0  0  0
  183.9090  180.5080  138.9570 O   0  0  0  0  0  0  0  0  0  0  0  0
  181.3180  179.5440  134.6360 C   0  0  0  0  0  3  0  0  0  0  0  0
  184.1760  178.2220  138.4640 N   0  0  0  0  0  0  0  0  0  0  0  0
  179.2530  179.3180  138.2800 O   0  0  0  0  0  0  0  0  0  0  0  0
  179.8920  174.3950  136.9930 C   0  0  0  0  0  1  0  0  0  0  0  0
  181.2560  174.6970  137.5820 C   0  0  1  0  0  0  0  0  0  0  0  0
  183.4570  173.7900  137.1990 C   0  0  0  0  0  0  0  0  0  0  0  0
  181.7670  176.0440  137.0340 C   0  0  2  0  0  3  0  0  0  0  0  0
  181.1800  181.6550  138.7340 O   0  0  0  0  0  1  0  0  0  0  0  0
  181.9210  177.5990  138.9130 C   0  0  1  0  0  3  0  0  0  0  0  0
  184.0140  175.0540  137.4090 O   0  0  0  0  0  0  0  0  0  0  0  0
  182.1710  173.6200  137.2220 N   0  0  0  0  0  0  0  0  0  0  0  0
  180.4890  180.8910  139.6760 C   0  0  2  0  0  3  0  0  0  0  0  0
  180.8160  178.3660  136.7070 C   0  0  0  0  0  0  0  0  0  0  0  0
  183.4180  179.3530  138.8330 C   0  0  0  0  0  0  0  0  0  0  0  0
  184.3470  172.6310  136.9300 C   0  0  0  0  0  1  0  0  0  0  0  0
  181.3470  179.7310  140.1980 C   0  0  0  0  0  2  0  0  0  0  0  0
  181.5290  178.4660  135.4990 C   0  0  0  0  0  3  0  0  0  0  0  0
  179.7020  180.4630  136.1810 C   0  0  0  0  0  3  0  0  0  0  0  0
  180.4020  180.5410  134.9760 C   0  0  0  0  0  3  0  0  0  0  0  0
  179.1280  180.4490  139.1320 C   0  0  0  0  0  2  0  0  0  0  0  0
  183.3370  177.0480  138.6360 C   0  0  1  0  0  3  0  0  0  0  0  0
  182.0690  179.0420  139.1290 N   0  0  0  0  0  0  0  0  0  0  0  0
  183.2530  176.2620  137.3370 C   0  0  2  0  0  3  0  0  0  0  0  0
  185.6280  178.1850  138.4050 C   0  0  0  0  0  1  0  0  0  0  0  0
  181.0590  177.2310  137.6850 C   0  0  1  0  0  3  0  0  0  0  0  0
  1  6  1  0  0  0  0
  4 22  2  0  0  0  0
  4 20  1  0  0  0  0
  5 24  1  0  0  0  0
  5 17  1  0  0  0  0
  6 23  1  0  0  0  0
  8  7  1  6  0  0  0
  8  2  1  0  0  0  0
  9 14  2  0  0  0  0
  9 13  1  0  0  0  0
 10 26  1  0  0  0  0
 10  8  1  0  0  0  0
 10 28  1  0  0  0  0
 11 15  1  0  0  0  0
 12 25  1  0  0  0  0
 14  8  1  0  0  0  0
 15 19  1  0  0  0  0
 16  1  1  0  0  0  0
 16 28  1  0  0  0  0
 17  3  2  0  0  0  0
 17 25  1  0  0  0  0
 18  9  1  0  0  0  0
 20 16  2  0  0  0  0
 21  1  2  0  0  0  0
 22 21  1  0  0  0  0
 23 15  1  0  0  0  0
 24 12  1  0  0  0  0
 25 19  1  0  0  0  0
 26 13  1  0  0  0  0
 26 24  1  0  0  0  0
 27  5  1  0  0  0  0
 28 12  1  0  0  0  0
M  END
>  <MODEL>
3

>  <REMARK>
 VINA RESULT:      -5.1      6.342      9.376
  Name = 
  0 active torsions:
  status: ('A' for Active; 'I' for Inactive)
                            x       y       z     vdW  Elec       q    Type
                         _______ _______ _______ _____ _____    ______ ____

>  <TORSDO>
F 0

$$$$
=
 OpenBabel11122411573D

 28 32  0  0  1  0  0  0  0  0999 V2000
  183.3730  177.1360  136.1580 C   0  0  0  0  0  0  0  0  0  0  0  0
  183.9520  177.2210  141.2950 F   0  0  0  0  0  0  0  0  0  0  0  0
  180.1820  174.0360  137.2240 O   0  0  0  0  0  0  0  0  0  0  0  0
  181.1900  178.8190  135.6680 C   0  0  0  0  0  3  0  0  0  0  0  0
  180.2610  175.4030  139.1380 N   0  0  0  0  0  0  0  0  0  0  0  0
  184.4230  176.2520  136.4110 O   0  0  0  0  0  0  0  0  0  0  0  0
  184.4550  179.3770  140.4770 C   0  0  0  0  0  1  0  0  0  0  0  0
  183.3630  178.4090  140.8920 C   0  0  1  0  0  0  0  0  0  0  0  0
  181.4260  178.6160  142.3130 C   0  0  0  0  0  0  0  0  0  0  0  0
  182.4090  178.1710  139.7050 C   0  0  2  0  0  3  0  0  0  0  0  0
  182.3280  174.3740  135.2000 O   0  0  0  0  0  1  0  0  0  0  0  0
  182.6050  175.8230  139.0540 C   0  0  1  0  0  3  0  0  0  0  0  0
  180.7200  177.7470  141.4770 O   0  0  0  0  0  0  0  0  0  0  0  0
  182.6380  178.9770  142.0230 N   0  0  0  0  0  0  0  0  0  0  0  0
  183.4600  174.0570  135.9530 C   0  0  2  0  0  3  0  0  0  0  0  0
  182.6470  177.6620  137.2380 C   0  0  0  0  0  0  0  0  0  0  0  0
  180.8350  174.7670  138.0170 C   0  0  0  0  0  0  0  0  0  0  0  0
  180.7750  179.1470  143.5390 C   0  0  0  0  0  1  0  0  0  0  0  0
  183.1230  173.9110  137.4420 C   0  0  0  0  0  2  0  0  0  0  0  0
  181.5450  178.4940  136.9790 C   0  0  0  0  0  3  0  0  0  0  0  0
  183.0120  177.4610  134.8420 C   0  0  0  0  0  3  0  0  0  0  0  0
  181.9260  178.3050  134.5990 C   0  0  0  0  0  3  0  0  0  0  0  0
  184.5960  175.0460  135.6780 C   0  0  0  0  0  2  0  0  0  0  0  0
  181.3410  175.9700  139.9300 C   0  0  1  0  0  3  0  0  0  0  0  0
  182.2330  174.9670  137.9230 N   0  0  0  0  0  0  0  0  0  0  0  0
  181.1220  177.4600  140.1350 C   0  0  2  0  0  3  0  0  0  0  0  0
  178.9310  175.1260  139.6530 C   0  0  0  0  0  1  0  0  0  0  0  0
  183.0260  177.2540  138.6510 C   0  0  1  0  0  3  0  0  0  0  0  0
  1  6  1  0  0  0  0
  1 16  1  0  0  0  0
  3 17  2  0  0  0  0
  4 20  1  0  0  0  0
  5 27  1  0  0  0  0
  5 24  1  0  0  0  0
  8  7  1  6  0  0  0
  8  2  1  0  0  0  0
  8 14  1  0  0  0  0
  9 18  1  0  0  0  0
 10 26  1  0  0  0  0
 10  8  1  0  0  0  0
 11 15  1  0  0  0  0
 12 24  1  0  0  0  0
 13  9  1  0  0  0  0
 14  9  2  0  0  0  0
 15 19  1  0  0  0  0
 16 28  1  0  0  0  0
 17  5  1  0  0  0  0
 19 25  1  0  0  0  0
 20 16  2  0  0  0  0
 21  1  2  0  0  0  0
 22 21  1  0  0  0  0
 22  4  2  0  0  0  0
 23 15  1  0  0  0  0
 23  6  1  0  0  0  0
 24 26  1  0  0  0  0
 25 17  1  0  0  0  0
 25 12  1  0  0  0  0
 26 13  1  0  0  0  0
 28 12  1  0  0  0  0
 28 10  1  0  0  0  0
M  END
>  <MODEL>
4

>  <REMARK>
 VINA RESULT:      -5.0      6.704      9.531
  Name = 
  0 active torsions:
  status: ('A' for Active; 'I' for Inactive)
                            x       y       z     vdW  Elec       q    Type
                         _______ _______ _______ _____ _____    ______ ____

>  <TORSDO>
F 0

$$$$
=
 OpenBabel11122411573D

 28 32  0  0  1  0  0  0  0  0999 V2000
  184.9510  174.9350  137.1910 C   0  0  0  0  0  0  0  0  0  0  0  0
  181.5890  176.8780  140.6050 F   0  0  0  0  0  0  0  0  0  0  0  0
  181.1910  174.7230  134.5940 O   0  0  0  0  0  0  0  0  0  0  0  0
  185.6290  177.1050  135.5580 C   0  0  0  0  0  3  0  0  0  0  0  0
  180.7330  176.5110  136.0530 N   0  0  0  0  0  0  0  0  0  0  0  0
  184.5650  173.8430  137.9700 O   0  0  0  0  0  0  0  0  0  0  0  0
  183.6870  177.8780  141.0110 C   0  0  0  0  0  1  0  0  0  0  0  0
  182.4240  177.8950  140.1710 C   0  0  1  0  0  0  0  0  0  0  0  0
  180.9130  179.6500  139.5000 C   0  0  0  0  0  0  0  0  0  0  0  0
  182.7910  177.7070  138.6860 C   0  0  2  0  0  3  0  0  0  0  0  0
  183.5380  173.0100  135.2060 O   0  0  0  0  0  1  0  0  0  0  0  0
  181.8350  175.5810  137.9500 C   0  0  1  0  0  3  0  0  0  0  0  0
  180.7190  179.0120  138.2720 O   0  0  0  0  0  0  0  0  0  0  0  0
  181.7460  179.1720  140.3710 N   0  0  0  0  0  0  0  0  0  0  0  0
  183.1860  172.5100  136.4620 C   0  0  2  0  0  3  0  0  0  0  0  0
  184.2820  176.1590  137.3520 C   0  0  0  0  0  0  0  0  0  0  0  0
  181.3110  175.2670  135.7250 C   0  0  0  0  0  0  0  0  0  0  0  0
  180.1700  180.9010  139.8030 C   0  0  0  0  0  1  0  0  0  0  0  0
  181.9350  173.2060  137.0140 C   0  0  0  0  0  2  0  0  0  0  0  0
  184.6220  177.2370  136.5160 C   0  0  0  0  0  3  0  0  0  0  0  0
  185.9590  174.8050  136.2250 C   0  0  0  0  0  3  0  0  0  0  0  0
  186.3010  175.8900  135.4150 C   0  0  0  0  0  3  0  0  0  0  0  0
  184.3790  172.5450  137.4200 C   0  0  0  0  0  2  0  0  0  0  0  0
  180.8920  176.7130  137.4840 C   0  0  1  0  0  3  0  0  0  0  0  0
  181.9670  174.6550  136.8200 N   0  0  0  0  0  0  0  0  0  0  0  0
  181.6140  178.0220  137.7580 C   0  0  2  0  0  3  0  0  0  0  0  0
  179.7550  177.2090  135.2350 C   0  0  0  0  0  1  0  0  0  0  0  0
  183.1590  176.2590  138.3680 C   0  0  1  0  0  3  0  0  0  0  0  0
  1 16  1  0  0  0  0
  1  6  1  0  0  0  0
  3 17  2  0  0  0  0
  4 20  1  0  0  0  0
  5 24  1  0  0  0  0
  8 14  1  0  0  0  0
  8  2  1  0  0  0  0
  8  7  1  1  0  0  0
  9 18  1  0  0  0  0
  9 14  2  0  0  0  0
 10  8  1  0  0  0  0
 11 15  1  0  0  0  0
 12 28  1  0  0  0  0
 13  9  1  0  0  0  0
 15 19  1  0  0  0  0
 15 23  1  0  0  0  0
 16 28  1  0  0  0  0
 17  5  1  0  0  0  0
 17 25  1  0  0  0  0
 20 16  2  0  0  0  0
 21  1  2  0  0  0  0
 22  4  2  0  0  0  0
 22 21  1  0  0  0  0
 23  6  1  0  0  0  0
 24 26  1  0  0  0  0
 24 12  1  0  0  0  0
 25 19  1  0  0  0  0
 25 12  1  0  0  0  0
 26 13  1  0  0  0  0
 26 10  1  0  0  0  0
 27  5  1  0  0  0  0
 28 10  1  0  0  0  0
M  END
>  <MODEL>
5

>  <REMARK>
 VINA RESULT:      -4.6      6.115      9.286
  Name = 
  0 active torsions:
  status: ('A' for Active; 'I' for Inactive)
                            x       y       z     vdW  Elec       q    Type
                         _______ _______ _______ _____ _____    ______ ____

>  <TORSDO>
F 0

$$$$
=
 OpenBabel11122411573D

 28 32  0  0  1  0  0  0  0  0999 V2000
  181.7860  179.5620  138.7520 C   0  0  0  0  0  0  0  0  0  0  0  0
  185.2380  177.0790  135.8110 F   0  0  0  0  0  0  0  0  0  0  0  0
  178.9800  176.4220  136.9660 O   0  0  0  0  0  0  0  0  0  0  0  0
  181.6000  178.0150  141.0780 C   0  0  0  0  0  3  0  0  0  0  0  0
  181.0740  175.3500  136.9310 N   0  0  0  0  0  0  0  0  0  0  0  0
  181.8380  180.2990  137.5680 O   0  0  0  0  0  0  0  0  0  0  0  0
  186.3700  177.9030  137.7100 C   0  0  0  0  0  1  0  0  0  0  0  0
  185.5000  176.7980  137.1430 C   0  0  1  0  0  0  0  0  0  0  0  0
  185.6310  174.3920  137.2200 C   0  0  0  0  0  0  0  0  0  0  0  0
  184.1910  176.7060  137.9510 C   0  0  2  0  0  3  0  0  0  0  0  0
  178.9310  179.3320  137.5550 O   0  0  0  0  0  1  0  0  0  0  0  0
  182.3530  177.3040  136.4550 C   0  0  1  0  0  3  0  0  0  0  0  0
  184.2360  174.3180  137.2700 O   0  0  0  0  0  0  0  0  0  0  0  0
  186.2340  175.5400  137.2170 N   0  0  0  0  0  0  0  0  0  0  0  0
  179.6940  179.8330  136.4990 C   0  0  2  0  0  3  0  0  0  0  0  0
  182.4610  178.3340  138.8230 C   0  0  0  0  0  0  0  0  0  0  0  0
  180.2340  176.4810  136.8540 C   0  0  0  0  0  0  0  0  0  0  0  0
  186.4310  173.1400  137.1880 C   0  0  0  0  0  1  0  0  0  0  0  0
  180.3550  178.7050  135.6970 C   0  0  0  0  0  2  0  0  0  0  0  0
  182.3490  177.5590  139.9900 C   0  0  0  0  0  3  0  0  0  0  0  0
  181.0320  180.0150  139.8450 C   0  0  0  0  0  3  0  0  0  0  0  0
  180.9440  179.2450  141.0060 C   0  0  0  0  0  3  0  0  0  0  0  0
  180.6820  180.8940  136.9910 C   0  0  0  0  0  2  0  0  0  0  0  0
  182.4130  175.7620  136.5430 C   0  0  1  0  0  3  0  0  0  0  0  0
  180.9370  177.6730  136.5560 N   0  0  0  0  0  0  0  0  0  0  0  0
  183.4100  175.4260  137.6390 C   0  0  2  0  0  3  0  0  0  0  0  0
  180.6090  173.9730  136.9180 C   0  0  0  0  0  1  0  0  0  0  0  0
  183.2280  177.8420  137.6080 C   0  0  1  0  0  3  0  0  0  0  0  0
  1 16  2  0  0  0  0
  1 21  1  0  0  0  0
  2  8  1  0  0  0  0
  6  1  1  0  0  0  0
  8 14  1  0  0  0  0
  8  7  1  1  0  0  0
  8 10  1  0  0  0  0
  9 13  1  0  0  0  0
 12 24  1  0  0  0  0
 12 25  1  0  0  0  0
 12 28  1  0  0  0  0
 13 26  1  0  0  0  0
 14  9  2  0  0  0  0
 15 23  1  0  0  0  0
 15 11  1  0  0  0  0
 16 20  1  0  0  0  0
 17  5  1  0  0  0  0
 17  3  2  0  0  0  0
 18  9  1  0  0  0  0
 19 15  1  0  0  0  0
 19 25  1  0  0  0  0
 20  4  2  0  0  0  0
 21 22  2  0  0  0  0
 22  4  1  0  0  0  0
 23  6  1  0  0  0  0
 24  5  1  0  0  0  0
 24 26  1  0  0  0  0
 25 17  1  0  0  0  0
 26 10  1  0  0  0  0
 27  5  1  0  0  0  0
 28 10  1  0  0  0  0
 28 16  1  0  0  0  0
M  END
>  <MODEL>
6

>  <REMARK>
 VINA RESULT:      -4.5      5.721      7.735
  Name = 
  0 active torsions:
  status: ('A' for Active; 'I' for Inactive)
                            x       y       z     vdW  Elec       q    Type
                         _______ _______ _______ _____ _____    ______ ____

>  <TORSDO>
F 0

$$$$
=
 OpenBabel11122411573D

 28 32  0  0  1  0  0  0  0  0999 V2000
  185.1340  176.2920  135.9460 C   0  0  0  0  0  0  0  0  0  0  0  0
  182.3130  180.1280  137.9610 F   0  0  0  0  0  0  0  0  0  0  0  0
  188.0820  177.6430  139.1720 O   0  0  0  0  0  0  0  0  0  0  0  0
  184.6830  174.1170  137.6490 C   0  0  0  0  0  3  0  0  0  0  0  0
  185.9920  178.2370  140.0750 N   0  0  0  0  0  0  0  0  0  0  0  0
  185.4030  177.3950  135.1330 O   0  0  0  0  0  0  0  0  0  0  0  0
  180.8240  178.4750  137.1750 C   0  0  0  0  0  1  0  0  0  0  0  0
  181.7330  178.9180  138.3060 C   0  0  1  0  0  0  0  0  0  0  0  0
  181.4430  179.0650  140.6950 C   0  0  0  0  0  0  0  0  0  0  0  0
  182.8110  177.8440  138.5500 C   0  0  2  0  0  3  0  0  0  0  0  0
  188.1700  176.8260  136.3190 O   0  0  0  0  0  1  0  0  0  0  0  0
  184.9790  178.8320  138.0020 C   0  0  1  0  0  3  0  0  0  0  0  0
  182.7810  178.7070  140.8780 O   0  0  0  0  0  0  0  0  0  0  0  0
  180.9270  179.1130  139.5060 N   0  0  0  0  0  0  0  0  0  0  0  0
  187.7030  177.9840  135.6930 C   0  0  2  0  0  3  0  0  0  0  0  0
  184.3880  176.4750  137.1200 C   0  0  0  0  0  0  0  0  0  0  0  0
  186.8940  178.0310  139.0100 C   0  0  0  0  0  0  0  0  0  0  0  0
  180.5980  179.3780  141.8760 C   0  0  0  0  0  1  0  0  0  0  0  0
  187.1780  179.0030  136.7140 C   0  0  0  0  0  2  0  0  0  0  0  0
  184.1800  175.3790  137.9750 C   0  0  0  0  0  3  0  0  0  0  0  0
  185.6410  175.0250  135.6240 C   0  0  0  0  0  3  0  0  0  0  0  0
  185.4100  173.9390  136.4710 C   0  0  0  0  0  3  0  0  0  0  0  0
  186.6940  177.6450  134.5940 C   0  0  0  0  0  2  0  0  0  0  0  0
  184.8070  178.8840  139.5360 C   0  0  1  0  0  3  0  0  0  0  0  0
  186.3530  178.3840  137.7500 N   0  0  0  0  0  0  0  0  0  0  0  0
  183.5640  178.0730  139.8640 C   0  0  2  0  0  3  0  0  0  0  0  0
  186.3630  178.2550  141.4800 C   0  0  0  0  0  1  0  0  0  0  0  0
  183.8950  177.8670  137.4720 C   0  0  1  0  0  3  0  0  0  0  0  0
  1 16  1  0  0  0  0
  2  8  1  0  0  0  0
  4 20  1  0  0  0  0
  5 27  1  0  0  0  0
  6  1  1  0  0  0  0
  8  7  1  6  0  0  0
  8 10  1  0  0  0  0
  8 14  1  0  0  0  0
  9 13  1  0  0  0  0
  9 18  1  0  0  0  0
 10 26  1  0  0  0  0
 12 24  1  0  0  0  0
 14  9  2  0  0  0  0
 15 11  1  0  0  0  0
 15 19  1  0  0  0  0
 16 28  1  0  0  0  0
 16 20  2  0  0  0  0
 17  3  2  0  0  0  0
 17  5  1  0  0  0  0
 19 25  1  0  0  0  0
 21  1  2  0  0  0  0
 21 22  1  0  0  0  0
 22  4  2  0  0  0  0
 23  6  1  0  0  0  0
 23 15  1  0  0  0  0
 24 26  1  0  0  0  0
 24  5  1  0  0  0  0
 25 12  1  0  0  0  0
 25 17  1  0  0  0  0
 26 13  1  0  0  0  0
 28 12  1  0  0  0  0
 28 10  1  0  0  0  0
M  END
>  <MODEL>
7

>  <REMARK>
 VINA RESULT:      -4.5      4.896      8.392
  Name = 
  0 active torsions:
  status: ('A' for Active; 'I' for Inactive)
                            x       y       z     vdW  Elec       q    Type
                         _______ _______ _______ _____ _____    ______ ____

>  <TORSDO>
F 0

$$$$
=
 OpenBabel11122411573D

 28 32  0  0  1  0  0  0  0  0999 V2000
  186.5090  175.4220  136.6370 C   0  0  0  0  0  0  0  0  0  0  0  0
  183.1860  177.2080  140.1730 F   0  0  0  0  0  0  0  0  0  0  0  0
  182.6270  174.1270  134.5940 O   0  0  0  0  0  0  0  0  0  0  0  0
  186.5700  177.4060  134.6630 C   0  0  0  0  0  3  0  0  0  0  0  0
  181.9680  176.0010  135.8550 N   0  0  0  0  0  0  0  0  0  0  0  0
  186.4310  174.4090  137.5940 O   0  0  0  0  0  0  0  0  0  0  0  0
  185.0700  178.6280  140.1730 C   0  0  0  0  0  1  0  0  0  0  0  0
  183.7520  178.2840  139.5070 C   0  0  1  0  0  0  0  0  0  0  0  0
  181.8590  179.6070  138.8130 C   0  0  0  0  0  0  0  0  0  0  0  0
  183.9980  177.9430  138.0250 C   0  0  2  0  0  3  0  0  0  0  0  0
  185.3190  172.9900  135.1170 O   0  0  0  0  0  1  0  0  0  0  0  0
  183.4200  175.5900  137.6990 C   0  0  1  0  0  3  0  0  0  0  0  0
  181.6750  178.7640  137.7140 O   0  0  0  0  0  0  0  0  0  0  0  0
  182.8550  179.4280  139.6250 N   0  0  0  0  0  0  0  0  0  0  0  0
  185.2030  172.6310  136.4620 C   0  0  2  0  0  3  0  0  0  0  0  0
  185.6280  176.5110  136.7220 C   0  0  0  0  0  0  0  0  0  0  0  0
  182.7480  174.8490  135.6190 C   0  0  0  0  0  0  0  0  0  0  0  0
  180.9140  180.7300  139.0440 C   0  0  0  0  0  1  0  0  0  0  0  0
  183.9000  173.1600  137.0750 C   0  0  0  0  0  2  0  0  0  0  0  0
  185.6580  177.4940  135.7180 C   0  0  0  0  0  3  0  0  0  0  0  0
  187.4210  175.3350  135.5750 C   0  0  0  0  0  3  0  0  0  0  0  0
  187.4540  176.3280  134.5940 C   0  0  0  0  0  3  0  0  0  0  0  0
  186.4550  173.0310  137.2460 C   0  0  0  0  0  2  0  0  0  0  0  0
  182.2270  176.4440  137.2150 C   0  0  1  0  0  3  0  0  0  0  0  0
  183.6210  174.5440  136.6910 N   0  0  0  0  0  0  0  0  0  0  0  0
  182.6940  177.8900  137.2220 C   0  0  2  0  0  3  0  0  0  0  0  0
  180.7920  176.3730  135.0860 C   0  0  0  0  0  1  0  0  0  0  0  0
  184.6160  176.5560  137.8530 C   0  0  1  0  0  3  0  0  0  0  0  0
  1 16  1  0  0  0  0
  1  6  1  0  0  0  0
  3 17  2  0  0  0  0
  4 20  1  0  0  0  0
  5 24  1  0  0  0  0
  8 14  1  0  0  0  0
  8  7  1  1  0  0  0
  8  2  1  0  0  0  0
  9 18  1  0  0  0  0
  9 14  2  0  0  0  0
 10  8  1  0  0  0  0
 11 15  1  0  0  0  0
 12 28  1  0  0  0  0
 13  9  1  0  0  0  0
 15 19  1  0  0  0  0
 15 23  1  0  0  0  0
 16 28  1  0  0  0  0
 17  5  1  0  0  0  0
 17 25  1  0  0  0  0
 20 16  2  0  0  0  0
 21  1  2  0  0  0  0
 22  4  2  0  0  0  0
 22 21  1  0  0  0  0
 23  6  1  0  0  0  0
 24 26  1  0  0  0  0
 24 12  1  0  0  0  0
 25 19  1  0  0  0  0
 25 12  1  0  0  0  0
 26 13  1  0  0  0  0
 26 10  1  0  0  0  0
 27  5  1  0  0  0  0
 28 10  1  0  0  0  0
M  END
>  <MODEL>
8

>  <REMARK>
 VINA RESULT:      -4.5      5.022      8.246
  Name = 
  0 active torsions:
  status: ('A' for Active; 'I' for Inactive)
                            x       y       z     vdW  Elec       q    Type
                         _______ _______ _______ _____ _____    ______ ____

>  <TORSDO>
F 0

$$$$
=
 OpenBabel11122411573D

 28 32  0  0  1  0  0  0  0  0999 V2000
  182.3190  178.0190  137.2010 C   0  0  0  0  0  0  0  0  0  0  0  0
  186.7540  176.8240  134.8260 F   0  0  0  0  0  0  0  0  0  0  0  0
  181.5930  173.5310  136.6860 O   0  0  0  0  0  0  0  0  0  0  0  0
  182.7600  177.3660  139.8860 C   0  0  0  0  0  3  0  0  0  0  0  0
  183.9390  173.6870  136.7800 N   0  0  0  0  0  0  0  0  0  0  0  0
  182.0820  178.2880  135.8510 O   0  0  0  0  0  0  0  0  0  0  0  0
  187.1810  178.6280  136.2850 C   0  0  0  0  0  1  0  0  0  0  0  0
  187.0230  177.1250  136.1520 C   0  0  1  0  0  0  0  0  0  0  0  0
  188.3310  175.2530  136.9260 C   0  0  0  0  0  0  0  0  0  0  0  0
  185.8800  176.6450  137.0660 C   0  0  2  0  0  3  0  0  0  0  0  0
  180.0550  176.0540  136.3890 O   0  0  0  0  0  1  0  0  0  0  0  0
  184.1030  175.7690  135.6330 C   0  0  1  0  0  3  0  0  0  0  0  0
  187.1590  174.5170  137.1210 O   0  0  0  0  0  0  0  0  0  0  0  0
  188.2800  176.4870  136.5280 N   0  0  0  0  0  0  0  0  0  0  0  0
  180.5420  176.5240  135.1670 C   0  0  2  0  0  3  0  0  0  0  0  0
  183.5090  177.3740  137.5700 C   0  0  0  0  0  0  0  0  0  0  0  0
  182.6550  174.1670  136.4480 C   0  0  0  0  0  0  0  0  0  0  0  0
  189.6490  174.6210  137.1940 C   0  0  0  0  0  1  0  0  0  0  0  0
  181.7350  175.6910  134.6790 C   0  0  0  0  0  2  0  0  0  0  0  0
  183.7140  177.0390  138.9190 C   0  0  0  0  0  3  0  0  0  0  0  0
  181.3610  178.3420  138.1730 C   0  0  0  0  0  3  0  0  0  0  0  0
  181.5860  178.0210  139.5140 C   0  0  0  0  0  3  0  0  0  0  0  0
  180.8300  178.0250  135.2320 C   0  0  0  0  0  2  0  0  0  0  0  0
  184.9180  174.5700  136.1670 C   0  0  1  0  0  3  0  0  0  0  0  0
  182.6890  175.3970  135.7480 N   0  0  0  0  0  0  0  0  0  0  0  0
  185.8670  175.1200  137.2190 C   0  0  2  0  0  3  0  0  0  0  0  0
  184.2250  172.3300  137.2170 C   0  0  0  0  0  1  0  0  0  0  0  0
  184.5060  176.9890  136.4910 C   0  0  1  0  0  3  0  0  0  0  0  0
  1 16  2  0  0  0  0
  1 21  1  0  0  0  0
  2  8  1  0  0  0  0
  5 27  1  0  0  0  0
  6  1  1  0  0  0  0
  8  7  1  1  0  0  0
  8 14  1  0  0  0  0
  8 10  1  0  0  0  0
  9 13  1  0  0  0  0
  9 18  1  0  0  0  0
 10 26  1  0  0  0  0
 12 25  1  0  0  0  0
 12 24  1  0  0  0  0
 12 28  1  0  0  0  0
 13 26  1  0  0  0  0
 14  9  2  0  0  0  0
 15 23  1  0  0  0  0
 15 11  1  0  0  0  0
 16 20  1  0  0  0  0
 17  3  2  0  0  0  0
 17  5  1  0  0  0  0
 19 15  1  0  0  0  0
 19 25  1  0  0  0  0
 20  4  2  0  0  0  0
 21 22  2  0  0  0  0
 22  4  1  0  0  0  0
 23  6  1  0  0  0  0
 24  5  1  0  0  0  0
 24 26  1  0  0  0  0
 25 17  1  0  0  0  0
 28 10  1  0  0  0  0
 28 16  1  0  0  0  0
M  END
>  <MODEL>
9

>  <REMARK>
 VINA RESULT:      -4.4      4.352      6.151
  Name = 
  0 active torsions:
  status: ('A' for Active; 'I' for Inactive)
                            x       y       z     vdW  Elec       q    Type
                         _______ _______ _______ _____ _____    ______ ____

>  <TORSDO>
F 0

$$$$
