=
 OpenBabel11122412263D

 34 40  0  0  1  0  0  0  0  0999 V2000
  187.3230  178.1840  139.7630 C   0  0  0  0  0  0  0  0  0  0  0  0
  185.3360  178.9850  138.5710 O   0  0  0  0  0  0  0  0  0  0  0  0
  190.8330  177.3690  145.3020 C   0  0  2  0  0  3  0  0  0  0  0  0
  189.2770  177.6520  141.1280 C   0  0  0  0  0  0  0  0  0  0  0  0
  188.9270  177.8170  143.6240 C   0  0  2  0  0  3  0  0  0  0  0  0
  188.5470  178.0030  146.0950 C   0  0  0  0  0  1  0  0  0  0  0  0
  191.4310  178.7370  145.0000 C   0  0  0  0  0  1  0  0  0  0  0  0
  191.4100  175.6590  143.4980 C   0  0  0  0  0  3  0  0  0  0  0  0
  185.3380  179.1100  140.8830 C   0  0  2  0  0  3  0  0  0  0  0  0
  182.5820  178.9140  142.5120 C   0  0  0  0  0  2  0  0  0  0  0  0
  187.5950  177.4490  143.3380 O   0  0  0  0  0  0  0  0  0  0  0  0
  190.2150  175.8900  142.6120 C   0  0  0  0  0  2  0  0  0  0  0  0
  185.6450  178.2960  142.1420 C   0  0  1  0  0  3  0  0  0  0  0  0
  184.0140  179.3250  138.9430 C   0  0  0  0  0  2  0  0  0  0  0  0
  189.8820  177.3710  142.4820 C   0  0  1  0  0  3  0  0  0  0  0  0
  191.6510  176.2700  144.6710 C   0  0  0  0  0  3  0  0  0  0  0  0
  182.8730  178.4980  141.0720 C   0  0  2  0  0  3  0  0  0  0  0  0
  187.9250  178.0120  141.0290 C   0  0  0  0  0  0  0  0  0  0  0  0
  189.3290  177.2840  145.0100 C   0  0  2  0  0  3  0  0  0  0  0  0
  187.1730  178.3170  142.3170 C   0  0  2  0  0  3  0  0  0  0  0  0
  189.4420  177.6710  138.7050 C   0  0  0  0  0  3  0  0  0  0  0  0
  183.5640  178.2980  143.5010 C   0  0  0  0  0  2  0  0  0  0  0  0
  190.0360  177.4940  139.9600 C   0  0  0  0  0  3  0  0  0  0  0  0
  184.9590  178.8880  143.3620 C   0  0  0  0  0  2  0  0  0  0  0  0
  183.9260  179.4410  140.4720 C   0  0  1  0  0  3  0  0  0  0  0  0
  188.0850  177.9920  138.6050 C   0  0  0  0  0  3  0  0  0  0  0  0
  185.8300  178.3360  139.7020 C   0  0  2  0  0  3  0  0  0  0  0  0
  181.6340  178.5750  140.3130 N   0  0  0  0  0  2  0  0  0  0  0  0
  180.5590  178.2020  141.2160 C   0  0  0  0  0  2  0  0  0  0  0  0
  179.0430  175.0350  140.7820 C   0  0  0  0  0  2  0  0  0  0  0  0
  180.4510  176.4360  139.4870 C   0  0  0  0  0  2  0  0  0  0  0  0
  179.6740  177.1590  140.5600 C   0  0  1  0  0  3  0  0  0  0  0  0
  180.0150  175.0090  139.6270 C   0  0  0  0  0  2  0  0  0  0  0  0
  179.2510  176.2170  141.5090 O   0  0  0  0  0  0  0  0  0  0  0  0
  1 18  1  0  0  0  0
  2 14  1  0  0  0  0
  2 27  1  0  0  0  0
  3  7  1  6  0  0  0
  4 15  1  0  0  0  0
  5 11  1  6  0  0  0
  5 19  1  0  0  0  0
  8 16  2  0  0  0  0
  9 13  1  0  0  0  0
 10 22  1  0  0  0  0
 12  8  1  0  0  0  0
 13 20  1  0  0  0  0
 13 24  1  0  0  0  0
 14 25  1  0  0  0  0
 15 12  1  0  0  0  0
 15  5  1  0  0  0  0
 16  3  1  0  0  0  0
 17 10  1  0  0  0  0
 18  4  2  0  0  0  0
 18 20  1  0  0  0  0
 19  3  1  0  0  0  0
 19  6  1  0  0  0  0
 20 11  1  0  0  0  0
 21 23  2  0  0  0  0
 23  4  1  0  0  0  0
 24 22  1  0  0  0  0
 25  9  1  0  0  0  0
 25 17  1  0  0  0  0
 26 21  1  0  0  0  0
 26  1  2  0  0  0  0
 27  1  1  0  0  0  0
 27  9  1  0  0  0  0
 28 17  1  0  0  0  0
 28 29  1  0  0  0  0
 30 34  1  0  0  0  0
 31 33  1  0  0  0  0
 31 32  1  0  0  0  0
 32 29  1  0  0  0  0
 32 34  1  0  0  0  0
 33 30  1  0  0  0  0
M  END
>  <MODEL>
1

>  <REMARK>
 VINA RESULT:      -9.6      0.000      0.000
  Name = 
  3 active torsions:
  status: ('A' for Active; 'I' for Inactive)
    1  A    between atoms: C_17  and  N_28
    2  A    between atoms: N_28  and  C_29
    3  A    between atoms: C_29  and  C_32
                            x       y       z     vdW  Elec       q    Type
                         _______ _______ _______ _____ _____    ______ ____

>  <TORSDO>
F 3

$$$$
=
 OpenBabel11122412263D

 34 40  0  0  1  0  0  0  0  0999 V2000
  187.4070  178.1480  139.6590 C   0  0  0  0  0  0  0  0  0  0  0  0
  185.4510  178.9260  138.4000 O   0  0  0  0  0  0  0  0  0  0  0  0
  190.7530  177.4060  145.3080 C   0  0  2  0  0  3  0  0  0  0  0  0
  189.3220  177.6410  141.0870 C   0  0  0  0  0  0  0  0  0  0  0  0
  188.8960  177.8270  143.5700 C   0  0  2  0  0  3  0  0  0  0  0  0
  188.4400  178.0330  146.0260 C   0  0  0  0  0  1  0  0  0  0  0  0
  191.3520  178.7750  145.0110 C   0  0  0  0  0  1  0  0  0  0  0  0
  191.3940  175.6820  143.5380 C   0  0  0  0  0  3  0  0  0  0  0  0
  185.3840  179.0720  140.7090 C   0  0  2  0  0  3  0  0  0  0  0  0
  182.5810  178.8740  142.2570 C   0  0  0  0  0  2  0  0  0  0  0  0
  187.5760  177.4480  143.2470 O   0  0  0  0  0  0  0  0  0  0  0  0
  190.2250  175.8980  142.6150 C   0  0  0  0  0  2  0  0  0  0  0  0
  185.6570  178.2720  141.9840 C   0  0  1  0  0  3  0  0  0  0  0  0
  184.1180  179.2610  138.7280 C   0  0  0  0  0  2  0  0  0  0  0  0
  189.8880  177.3760  142.4600 C   0  0  1  0  0  3  0  0  0  0  0  0
  191.5960  176.3060  144.7120 C   0  0  0  0  0  3  0  0  0  0  0  0
  182.9180  178.4470  140.8300 C   0  0  2  0  0  3  0  0  0  0  0  0
  187.9710  177.9910  140.9430 C   0  0  0  0  0  0  0  0  0  0  0  0
  189.2590  177.3090  144.9710 C   0  0  2  0  0  3  0  0  0  0  0  0
  187.1790  178.3040  142.2050 C   0  0  2  0  0  3  0  0  0  0  0  0
  189.5590  177.6380  138.6700 C   0  0  0  0  0  3  0  0  0  0  0  0
  183.5360  178.2730  143.2810 C   0  0  0  0  0  2  0  0  0  0  0  0
  190.1160  177.4770  139.9440 C   0  0  0  0  0  3  0  0  0  0  0  0
  184.9320  178.8710  143.1780 C   0  0  0  0  0  2  0  0  0  0  0  0
  183.9830  179.3910  140.2530 C   0  0  1  0  0  3  0  0  0  0  0  0
  188.2040  177.9500  138.5260 C   0  0  0  0  0  3  0  0  0  0  0  0
  185.9150  178.2900  139.5510 C   0  0  2  0  0  3  0  0  0  0  0  0
  181.7020  178.5090  140.0330 N   0  0  0  0  0  2  0  0  0  0  0  0
  180.9010  179.5980  140.5660 C   0  0  0  0  0  2  0  0  0  0  0  0
  179.8320  180.1640  137.2410 C   0  0  0  0  0  2  0  0  0  0  0  0
  181.0940  181.3670  138.8480 C   0  0  0  0  0  2  0  0  0  0  0  0
  180.1870  180.3130  139.4340 C   0  0  1  0  0  3  0  0  0  0  0  0
  180.8440  181.2770  137.3730 C   0  0  0  0  0  2  0  0  0  0  0  0
  179.8540  179.4030  138.4200 O   0  0  0  0  0  0  0  0  0  0  0  0
  1 18  1  0  0  0  0
  2 14  1  0  0  0  0
  2 27  1  0  0  0  0
  3  7  1  6  0  0  0
  4 15  1  0  0  0  0
  5 11  1  6  0  0  0
  5 19  1  0  0  0  0
  8 16  2  0  0  0  0
  9 13  1  0  0  0  0
 10 22  1  0  0  0  0
 12  8  1  0  0  0  0
 13 20  1  0  0  0  0
 13 24  1  0  0  0  0
 14 25  1  0  0  0  0
 15 12  1  0  0  0  0
 15  5  1  0  0  0  0
 16  3  1  0  0  0  0
 17 10  1  0  0  0  0
 18  4  2  0  0  0  0
 18 20  1  0  0  0  0
 19  3  1  0  0  0  0
 19  6  1  0  0  0  0
 20 11  1  0  0  0  0
 21 23  2  0  0  0  0
 23  4  1  0  0  0  0
 24 22  1  0  0  0  0
 25  9  1  0  0  0  0
 25 17  1  0  0  0  0
 26 21  1  0  0  0  0
 26  1  2  0  0  0  0
 27  1  1  0  0  0  0
 27  9  1  0  0  0  0
 28 29  1  0  0  0  0
 28 17  1  0  0  0  0
 30 33  1  0  0  0  0
 30 34  1  0  0  0  0
 31 32  1  0  0  0  0
 32 29  1  0  0  0  0
 33 31  1  0  0  0  0
 34 32  1  0  0  0  0
M  END
>  <MODEL>
2

>  <REMARK>
 VINA RESULT:      -9.5      1.609      2.061
  Name = 
  3 active torsions:
  status: ('A' for Active; 'I' for Inactive)
    1  A    between atoms: C_17  and  N_28
    2  A    between atoms: N_28  and  C_29
    3  A    between atoms: C_29  and  C_32
                            x       y       z     vdW  Elec       q    Type
                         _______ _______ _______ _____ _____    ______ ____

>  <TORSDO>
F 3

$$$$
=
 OpenBabel11122412263D

 34 40  0  0  1  0  0  0  0  0999 V2000
  182.4280  178.6360  143.8750 C   0  0  0  0  0  0  0  0  0  0  0  0
  183.6830  179.0030  145.9500 O   0  0  0  0  0  0  0  0  0  0  0  0
  182.0830  178.2840  137.2850 C   0  0  2  0  0  3  0  0  0  0  0  0
  181.3570  178.5050  141.6840 C   0  0  0  0  0  0  0  0  0  0  0  0
  182.9360  178.3710  139.7170 C   0  0  2  0  0  3  0  0  0  0  0  0
  184.5330  178.2530  137.7890 C   0  0  0  0  0  1  0  0  0  0  0  0
  181.7920  179.7790  137.3260 C   0  0  0  0  0  1  0  0  0  0  0  0
  180.2610  176.9280  138.4510 C   0  0  0  0  0  3  0  0  0  0  0  0
  184.8680  178.9350  143.9620 C   0  0  2  0  0  3  0  0  0  0  0  0
  187.9090  177.9160  143.9310 C   0  0  0  0  0  2  0  0  0  0  0  0
  183.7980  177.7040  140.6120 O   0  0  0  0  0  0  0  0  0  0  0  0
  180.8670  176.9220  139.8290 C   0  0  0  0  0  2  0  0  0  0  0  0
  185.0320  178.1250  142.6740 C   0  0  1  0  0  3  0  0  0  0  0  0
  185.0490  178.9660  146.3130 C   0  0  0  0  0  2  0  0  0  0  0  0
  181.4600  178.2760  140.1960 C   0  0  1  0  0  3  0  0  0  0  0  0
  180.8070  177.4820  137.3540 C   0  0  0  0  0  3  0  0  0  0  0  0
  186.8420  177.7060  145.0020 C   0  0  2  0  0  3  0  0  0  0  0  0
  182.5190  178.5180  142.4710 C   0  0  0  0  0  0  0  0  0  0  0  0
  183.1580  177.8450  138.2890 C   0  0  2  0  0  3  0  0  0  0  0  0
  183.8630  178.5170  141.7560 C   0  0  2  0  0  3  0  0  0  0  0  0
  180.0150  178.7630  143.6920 C   0  0  0  0  0  3  0  0  0  0  0  0
  187.4320  177.4890  142.5480 C   0  0  0  0  0  2  0  0  0  0  0  0
  180.1060  178.6400  142.3000 C   0  0  0  0  0  3  0  0  0  0  0  0
  186.3620  178.4230  142.0020 C   0  0  0  0  0  2  0  0  0  0  0  0
  185.9160  178.9310  145.0460 C   0  0  1  0  0  3  0  0  0  0  0  0
  181.1700  178.7380  144.4800 C   0  0  0  0  0  3  0  0  0  0  0  0
  183.6710  178.4090  144.6880 C   0  0  2  0  0  3  0  0  0  0  0  0
  187.5060  177.5290  146.2850 N   0  0  0  0  0  2  0  0  0  0  0  0
  188.9030  177.8790  146.0900 C   0  0  0  0  0  2  0  0  0  0  0  0
  191.6740  176.3750  147.6950 C   0  0  0  0  0  2  0  0  0  0  0  0
  190.7910  176.3950  145.4950 C   0  0  0  0  0  2  0  0  0  0  0  0
  189.7890  176.7450  146.5690 C   0  0  1  0  0  3  0  0  0  0  0  0
  192.0550  176.1320  146.2540 C   0  0  0  0  0  2  0  0  0  0  0  0
  190.4920  177.1310  147.7190 O   0  0  0  0  0  0  0  0  0  0  0  0
  1 26  1  0  0  0  0
  1 27  1  0  0  0  0
  2 14  1  0  0  0  0
  3  7  1  1  0  0  0
  3 16  1  0  0  0  0
  3 19  1  0  0  0  0
  4 23  2  0  0  0  0
  4 18  1  0  0  0  0
  5 15  1  0  0  0  0
  5 11  1  1  0  0  0
  6 19  1  0  0  0  0
  8 12  1  0  0  0  0
  9 27  1  0  0  0  0
  9 25  1  0  0  0  0
 10 17  1  0  0  0  0
 11 20  1  0  0  0  0
 12 15  1  0  0  0  0
 13  9  1  0  0  0  0
 15  4  1  0  0  0  0
 16  8  2  0  0  0  0
 17 25  1  0  0  0  0
 17 28  1  0  0  0  0
 18  1  2  0  0  0  0
 19  5  1  0  0  0  0
 20 18  1  0  0  0  0
 20 13  1  0  0  0  0
 21 26  2  0  0  0  0
 22 10  1  0  0  0  0
 23 21  1  0  0  0  0
 24 22  1  0  0  0  0
 24 13  1  0  0  0  0
 25 14  1  0  0  0  0
 27  2  1  0  0  0  0
 29 28  1  0  0  0  0
 29 32  1  0  0  0  0
 30 34  1  0  0  0  0
 31 33  1  0  0  0  0
 31 32  1  0  0  0  0
 32 34  1  0  0  0  0
 33 30  1  0  0  0  0
M  END
>  <MODEL>
3

>  <REMARK>
 VINA RESULT:      -9.4      2.712      9.006
  Name = 
  3 active torsions:
  status: ('A' for Active; 'I' for Inactive)
    1  A    between atoms: C_17  and  N_28
    2  A    between atoms: N_28  and  C_29
    3  A    between atoms: C_29  and  C_32
                            x       y       z     vdW  Elec       q    Type
                         _______ _______ _______ _____ _____    ______ ____

>  <TORSDO>
F 3

$$$$
=
 OpenBabel11122412263D

 34 40  0  0  1  0  0  0  0  0999 V2000
  184.6090  178.4590  144.3990 C   0  0  0  0  0  0  0  0  0  0  0  0
  182.2140  178.7470  143.9560 O   0  0  0  0  0  0  0  0  0  0  0  0
  190.7140  176.8240  142.4700 C   0  0  2  0  0  3  0  0  0  0  0  0
  186.9760  177.9140  144.6530 C   0  0  0  0  0  0  0  0  0  0  0  0
  188.2200  177.4790  142.4980 C   0  0  2  0  0  3  0  0  0  0  0  0
  189.4190  177.0420  140.3400 C   0  0  0  0  0  1  0  0  0  0  0  0
  190.3540  175.4050  142.8910 C   0  0  0  0  0  1  0  0  0  0  0  0
  190.6930  178.4380  144.4470 C   0  0  0  0  0  3  0  0  0  0  0  0
  183.5960  178.2370  142.1690 C   0  0  2  0  0  3  0  0  0  0  0  0
  182.8530  179.2470  139.2160 C   0  0  0  0  0  2  0  0  0  0  0  0
  187.3100  178.3970  141.9310 O   0  0  0  0  0  0  0  0  0  0  0  0
  189.2540  178.8640  144.3440 C   0  0  0  0  0  2  0  0  0  0  0  0
  184.9190  178.6290  141.5080 C   0  0  1  0  0  3  0  0  0  0  0  0
  181.4240  178.9110  142.7950 C   0  0  0  0  0  2  0  0  0  0  0  0
  188.3340  177.6900  144.0340 C   0  0  1  0  0  3  0  0  0  0  0  0
  191.3260  177.5900  143.6170 C   0  0  0  0  0  3  0  0  0  0  0  0
  182.3280  179.7500  140.5590 C   0  0  2  0  0  3  0  0  0  0  0  0
  185.8640  178.1540  143.8310 C   0  0  0  0  0  0  0  0  0  0  0  0
  189.5670  177.5580  141.7610 C   0  0  2  0  0  3  0  0  0  0  0  0
  186.0350  177.9620  142.3300 C   0  0  2  0  0  3  0  0  0  0  0  0
  185.5770  178.2460  146.6100 C   0  0  0  0  0  3  0  0  0  0  0  0
  184.3750  179.2340  139.1590 C   0  0  0  0  0  2  0  0  0  0  0  0
  186.8230  177.9500  146.0450 C   0  0  0  0  0  3  0  0  0  0  0  0
  184.9710  178.1640  140.0620 C   0  0  0  0  0  2  0  0  0  0  0  0
  182.2640  178.5800  141.5520 C   0  0  1  0  0  3  0  0  0  0  0  0
  184.4780  178.5230  145.7910 C   0  0  0  0  0  3  0  0  0  0  0  0
  183.5140  178.9370  143.4880 C   0  0  2  0  0  3  0  0  0  0  0  0
  181.0020  180.3120  140.3520 N   0  0  0  0  0  2  0  0  0  0  0  0
  180.8320  180.4820  138.9190 C   0  0  0  0  0  2  0  0  0  0  0  0
  179.2320  183.0520  137.0880 C   0  0  0  0  0  2  0  0  0  0  0  0
  181.4290  182.6480  137.8840 C   0  0  0  0  0  2  0  0  0  0  0  0
  180.3520  181.8910  138.6220 C   0  0  1  0  0  3  0  0  0  0  0  0
  180.6740  183.4410  136.8610 C   0  0  0  0  0  2  0  0  0  0  0  0
  179.2070  181.8520  137.8140 O   0  0  0  0  0  0  0  0  0  0  0  0
  1 26  1  0  0  0  0
  3  7  1  1  0  0  0
  3 16  1  0  0  0  0
  4 23  2  0  0  0  0
  5 11  1  6  0  0  0
  5 15  1  0  0  0  0
  6 19  1  0  0  0  0
  9 27  1  0  0  0  0
 10 17  1  0  0  0  0
 11 20  1  0  0  0  0
 12  8  1  0  0  0  0
 13  9  1  0  0  0  0
 13 20  1  0  0  0  0
 14  2  1  0  0  0  0
 15 12  1  0  0  0  0
 15  4  1  0  0  0  0
 16  8  2  0  0  0  0
 17 25  1  0  0  0  0
 18  1  2  0  0  0  0
 18  4  1  0  0  0  0
 19  3  1  0  0  0  0
 19  5  1  0  0  0  0
 20 18  1  0  0  0  0
 22 10  1  0  0  0  0
 22 24  1  0  0  0  0
 23 21  1  0  0  0  0
 24 13  1  0  0  0  0
 25  9  1  0  0  0  0
 25 14  1  0  0  0  0
 26 21  2  0  0  0  0
 27  2  1  0  0  0  0
 27  1  1  0  0  0  0
 28 17  1  0  0  0  0
 29 28  1  0  0  0  0
 30 34  1  0  0  0  0
 31 32  1  0  0  0  0
 32 29  1  0  0  0  0
 33 30  1  0  0  0  0
 33 31  1  0  0  0  0
 34 32  1  0  0  0  0
M  END
>  <MODEL>
4

>  <REMARK>
 VINA RESULT:      -9.4      2.663      4.782
  Name = 
  3 active torsions:
  status: ('A' for Active; 'I' for Inactive)
    1  A    between atoms: C_17  and  N_28
    2  A    between atoms: N_28  and  C_29
    3  A    between atoms: C_29  and  C_32
                            x       y       z     vdW  Elec       q    Type
                         _______ _______ _______ _____ _____    ______ ____

>  <TORSDO>
F 3

$$$$
=
 OpenBabel11122412263D

 34 40  0  0  1  0  0  0  0  0999 V2000
  188.2860  177.6790  138.1100 C   0  0  0  0  0  0  0  0  0  0  0  0
  186.8380  178.6280  139.8460 O   0  0  0  0  0  0  0  0  0  0  0  0
  194.1040  175.3100  136.0600 C   0  0  2  0  0  3  0  0  0  0  0  0
  189.9620  176.9120  136.5080 C   0  0  0  0  0  0  0  0  0  0  0  0
  192.1370  176.1190  137.5180 C   0  0  2  0  0  3  0  0  0  0  0  0
  194.2860  175.3510  138.5550 C   0  0  0  0  0  1  0  0  0  0  0  0
  194.4510  176.7530  135.7150 C   0  0  0  0  0  1  0  0  0  0  0  0
  192.1370  174.4480  134.6810 C   0  0  0  0  0  3  0  0  0  0  0  0
  188.9470  177.9050  140.4680 C   0  0  2  0  0  3  0  0  0  0  0  0
  189.4690  176.8210  143.4420 C   0  0  0  0  0  2  0  0  0  0  0  0
  191.3430  175.7320  138.6180 O   0  0  0  0  0  0  0  0  0  0  0  0
  191.0370  174.8490  135.6270 C   0  0  0  0  0  2  0  0  0  0  0  0
  189.9170  176.7300  140.3290 C   0  0  1  0  0  3  0  0  0  0  0  0
  186.8570  178.6590  141.2600 C   0  0  0  0  0  2  0  0  0  0  0  0
  191.2780  176.2290  136.2270 C   0  0  1  0  0  3  0  0  0  0  0  0
  193.4550  174.6150  134.8890 C   0  0  0  0  0  3  0  0  0  0  0  0
  188.1430  176.9920  142.7060 C   0  0  2  0  0  3  0  0  0  0  0  0
  189.5560  177.1280  137.8330 C   0  0  0  0  0  0  0  0  0  0  0  0
  193.3380  175.1680  137.3830 C   0  0  2  0  0  3  0  0  0  0  0  0
  190.5660  176.8580  138.9400 C   0  0  2  0  0  3  0  0  0  0  0  0
  187.8510  177.8280  135.7310 C   0  0  0  0  0  3  0  0  0  0  0  0
  190.4740  176.0030  142.6400 C   0  0  0  0  0  2  0  0  0  0  0  0
  189.1080  177.2750  135.4580 C   0  0  0  0  0  3  0  0  0  0  0  0
  190.9770  176.7570  141.4180 C   0  0  0  0  0  2  0  0  0  0  0  0
  188.2350  178.2010  141.7630 C   0  0  1  0  0  3  0  0  0  0  0  0
  187.4310  178.0080  137.0520 C   0  0  0  0  0  3  0  0  0  0  0  0
  187.8040  177.6730  139.5330 C   0  0  2  0  0  3  0  0  0  0  0  0
  187.0940  177.1990  143.6930 N   0  0  0  0  0  2  0  0  0  0  0  0
  187.7060  177.8640  144.8300 C   0  0  0  0  0  2  0  0  0  0  0  0
  184.9150  178.2540  146.9690 C   0  0  0  0  0  2  0  0  0  0  0  0
  185.4480  178.8690  144.7420 C   0  0  0  0  0  2  0  0  0  0  0  0
  186.6490  178.6130  145.6190 C   0  0  1  0  0  3  0  0  0  0  0  0
  184.2810  178.6420  145.6540 C   0  0  0  0  0  2  0  0  0  0  0  0
  186.2370  177.8520  146.7220 O   0  0  0  0  0  0  0  0  0  0  0  0
  1 27  1  0  0  0  0
  2 14  1  0  0  0  0
  3  7  1  6  0  0  0
  3 19  1  0  0  0  0
  4 18  2  0  0  0  0
  5 11  1  1  0  0  0
  8 16  2  0  0  0  0
  8 12  1  0  0  0  0
  9 25  1  0  0  0  0
 11 20  1  0  0  0  0
 12 15  1  0  0  0  0
 13  9  1  0  0  0  0
 13 24  1  0  0  0  0
 14 25  1  0  0  0  0
 15  4  1  0  0  0  0
 15  5  1  0  0  0  0
 16  3  1  0  0  0  0
 17 10  1  0  0  0  0
 17 28  1  0  0  0  0
 18  1  1  0  0  0  0
 18 20  1  0  0  0  0
 19  5  1  0  0  0  0
 19  6  1  0  0  0  0
 20 13  1  0  0  0  0
 21 26  1  0  0  0  0
 22 10  1  0  0  0  0
 23 21  2  0  0  0  0
 23  4  1  0  0  0  0
 24 22  1  0  0  0  0
 25 17  1  0  0  0  0
 26  1  2  0  0  0  0
 27  2  1  0  0  0  0
 27  9  1  0  0  0  0
 28 29  1  0  0  0  0
 29 32  1  0  0  0  0
 31 32  1  0  0  0  0
 31 33  1  0  0  0  0
 32 34  1  0  0  0  0
 33 30  1  0  0  0  0
 34 30  1  0  0  0  0
M  END
>  <MODEL>
5

>  <REMARK>
 VINA RESULT:      -9.0      3.798      6.812
  Name = 
  3 active torsions:
  status: ('A' for Active; 'I' for Inactive)
    1  A    between atoms: C_17  and  N_28
    2  A    between atoms: N_28  and  C_29
    3  A    between atoms: C_29  and  C_32
                            x       y       z     vdW  Elec       q    Type
                         _______ _______ _______ _____ _____    ______ ____

>  <TORSDO>
F 3

$$$$
=
 OpenBabel11122412263D

 34 40  0  0  1  0  0  0  0  0999 V2000
  184.9520  178.4990  144.2660 C   0  0  0  0  0  0  0  0  0  0  0  0
  182.6020  178.8380  143.6570 O   0  0  0  0  0  0  0  0  0  0  0  0
  191.1240  176.6570  142.7880 C   0  0  2  0  0  3  0  0  0  0  0  0
  187.2810  177.8990  144.6900 C   0  0  0  0  0  0  0  0  0  0  0  0
  188.6530  177.3770  142.6340 C   0  0  2  0  0  3  0  0  0  0  0  0
  189.9800  176.8550  140.5720 C   0  0  0  0  0  1  0  0  0  0  0  0
  190.6980  175.2590  143.2180 C   0  0  0  0  0  1  0  0  0  0  0  0
  191.0180  178.3190  144.7220 C   0  0  0  0  0  3  0  0  0  0  0  0
  184.0840  178.2480  141.9790 C   0  0  2  0  0  3  0  0  0  0  0  0
  183.5660  179.2020  138.9610 C   0  0  0  0  0  2  0  0  0  0  0  0
  187.8090  178.3040  141.9860 O   0  0  0  0  0  0  0  0  0  0  0  0
  189.6010  178.7810  144.5130 C   0  0  0  0  0  2  0  0  0  0  0  0
  185.4580  178.5880  141.3990 C   0  0  1  0  0  3  0  0  0  0  0  0
  181.8950  178.9940  142.4420 C   0  0  0  0  0  2  0  0  0  0  0  0
  188.6710  177.6240  144.1690 C   0  0  1  0  0  3  0  0  0  0  0  0
  191.6800  177.4350  143.9550 C   0  0  0  0  0  3  0  0  0  0  0  0
  182.9680  179.7530  140.2530 C   0  0  2  0  0  3  0  0  0  0  0  0
  186.2340  178.1470  143.7900 C   0  0  0  0  0  0  0  0  0  0  0  0
  190.0480  177.4030  141.9870 C   0  0  2  0  0  3  0  0  0  0  0  0
  186.4980  177.9130  142.3090 C   0  0  2  0  0  3  0  0  0  0  0  0
  185.7660  178.3160  146.5410 C   0  0  0  0  0  3  0  0  0  0  0  0
  185.0880  179.1480  139.0050 C   0  0  0  0  0  2  0  0  0  0  0  0
  187.0380  177.9740  146.0680 C   0  0  0  0  0  3  0  0  0  0  0  0
  185.5930  178.0860  139.9710 C   0  0  0  0  0  2  0  0  0  0  0  0
  182.8050  178.6100  141.2670 C   0  0  1  0  0  3  0  0  0  0  0  0
  184.7320  178.6010  145.6440 C   0  0  0  0  0  3  0  0  0  0  0  0
  183.9350  178.9820  143.2730 C   0  0  2  0  0  3  0  0  0  0  0  0
  181.6750  180.3430  139.9450 N   0  0  0  0  0  2  0  0  0  0  0  0
  181.2500  179.7930  138.6690 C   0  0  0  0  0  2  0  0  0  0  0  0
  178.9330  177.8190  140.4730 C   0  0  0  0  0  2  0  0  0  0  0  0
  180.4420  177.4550  138.6800 C   0  0  0  0  0  2  0  0  0  0  0  0
  180.0420  178.8980  138.8710 C   0  0  1  0  0  3  0  0  0  0  0  0
  179.6840  176.7270  139.7490 C   0  0  0  0  0  2  0  0  0  0  0  0
  179.5390  179.0490  140.1720 O   0  0  0  0  0  0  0  0  0  0  0  0
  1 26  1  0  0  0  0
  3  7  1  1  0  0  0
  3 16  1  0  0  0  0
  4 23  2  0  0  0  0
  5 11  1  6  0  0  0
  5 15  1  0  0  0  0
  6 19  1  0  0  0  0
  9 27  1  0  0  0  0
 10 22  1  0  0  0  0
 10 17  1  0  0  0  0
 11 20  1  0  0  0  0
 12  8  1  0  0  0  0
 13  9  1  0  0  0  0
 13 20  1  0  0  0  0
 14  2  1  0  0  0  0
 15 12  1  0  0  0  0
 15  4  1  0  0  0  0
 16  8  2  0  0  0  0
 17 25  1  0  0  0  0
 18  1  2  0  0  0  0
 18  4  1  0  0  0  0
 19  5  1  0  0  0  0
 19  3  1  0  0  0  0
 20 18  1  0  0  0  0
 22 24  1  0  0  0  0
 23 21  1  0  0  0  0
 24 13  1  0  0  0  0
 25  9  1  0  0  0  0
 25 14  1  0  0  0  0
 26 21  2  0  0  0  0
 27  2  1  0  0  0  0
 27  1  1  0  0  0  0
 28 17  1  0  0  0  0
 29 32  1  0  0  0  0
 29 28  1  0  0  0  0
 31 32  1  0  0  0  0
 31 33  1  0  0  0  0
 32 34  1  0  0  0  0
 33 30  1  0  0  0  0
 34 30  1  0  0  0  0
M  END
>  <MODEL>
6

>  <REMARK>
 VINA RESULT:      -8.9      1.673      3.839
  Name = 
  3 active torsions:
  status: ('A' for Active; 'I' for Inactive)
    1  A    between atoms: C_17  and  N_28
    2  A    between atoms: N_28  and  C_29
    3  A    between atoms: C_29  and  C_32
                            x       y       z     vdW  Elec       q    Type
                         _______ _______ _______ _____ _____    ______ ____

>  <TORSDO>
F 3

$$$$
=
 OpenBabel11122412263D

 34 40  0  0  1  0  0  0  0  0999 V2000
  185.7110  178.3130  145.2170 C   0  0  0  0  0  0  0  0  0  0  0  0
  183.9350  178.5920  143.5500 O   0  0  0  0  0  0  0  0  0  0  0  0
  191.7090  176.1940  147.0080 C   0  0  2  0  0  3  0  0  0  0  0  0
  187.5320  177.7480  146.7430 C   0  0  0  0  0  0  0  0  0  0  0  0
  189.6480  176.9180  145.6380 C   0  0  2  0  0  3  0  0  0  0  0  0
  191.7250  176.0870  144.5090 C   0  0  0  0  0  1  0  0  0  0  0  0
  191.0250  174.8780  147.3560 C   0  0  0  0  0  1  0  0  0  0  0  0
  190.8600  178.1180  148.4540 C   0  0  0  0  0  3  0  0  0  0  0  0
  185.9690  177.7470  142.8370 C   0  0  2  0  0  3  0  0  0  0  0  0
  186.9670  178.2650  139.8330 C   0  0  0  0  0  2  0  0  0  0  0  0
  189.2690  177.7530  144.5660 O   0  0  0  0  0  0  0  0  0  0  0  0
  189.7370  178.5640  147.5570 C   0  0  0  0  0  2  0  0  0  0  0  0
  187.4780  177.9810  142.9250 C   0  0  1  0  0  3  0  0  0  0  0  0
  183.8770  178.5810  142.1370 C   0  0  0  0  0  2  0  0  0  0  0  0
  188.9800  177.3820  146.9630 C   0  0  1  0  0  3  0  0  0  0  0  0
  191.7280  177.1240  148.1960 C   0  0  0  0  0  3  0  0  0  0  0  0
  185.8890  179.0030  140.6230 C   0  0  2  0  0  3  0  0  0  0  0  0
  187.0370  177.8780  145.4370 C   0  0  0  0  0  0  0  0  0  0  0  0
  191.1810  176.8310  145.7150 C   0  0  2  0  0  3  0  0  0  0  0  0
  187.9300  177.4310  144.2880 C   0  0  2  0  0  3  0  0  0  0  0  0
  185.3760  178.4470  147.6130 C   0  0  0  0  0  3  0  0  0  0  0  0
  188.2900  178.1970  140.5860 C   0  0  0  0  0  2  0  0  0  0  0  0
  186.6920  178.0230  147.8300 C   0  0  0  0  0  3  0  0  0  0  0  0
  188.2120  177.2780  141.7950 C   0  0  0  0  0  2  0  0  0  0  0  0
  185.1910  178.0200  141.5750 C   0  0  1  0  0  3  0  0  0  0  0  0
  184.8930  178.6140  146.3110 C   0  0  0  0  0  3  0  0  0  0  0  0
  185.3020  178.6610  143.8140 C   0  0  2  0  0  3  0  0  0  0  0  0
  184.9310  179.5610  139.6810 N   0  0  0  0  0  2  0  0  0  0  0  0
  184.8050  178.6090  138.5900 C   0  0  0  0  0  2  0  0  0  0  0  0
  181.3310  178.5690  139.2600 C   0  0  0  0  0  2  0  0  0  0  0  0
  183.0020  176.9360  138.8560 C   0  0  0  0  0  2  0  0  0  0  0  0
  183.3390  178.3110  138.3340 C   0  0  1  0  0  3  0  0  0  0  0  0
  181.6440  177.1060  139.4670 C   0  0  0  0  0  2  0  0  0  0  0  0
  182.5320  179.2460  138.9970 O   0  0  0  0  0  0  0  0  0  0  0  0
  1 18  2  0  0  0  0
  1 26  1  0  0  0  0
  2 27  1  0  0  0  0
  3  7  1  1  0  0  0
  3 16  1  0  0  0  0
  4 15  1  0  0  0  0
  4 23  2  0  0  0  0
  5 11  1  6  0  0  0
  5 19  1  0  0  0  0
  5 15  1  0  0  0  0
  6 19  1  0  0  0  0
  9 13  1  0  0  0  0
  9 27  1  0  0  0  0
 10 22  1  0  0  0  0
 10 17  1  0  0  0  0
 12  8  1  0  0  0  0
 13 20  1  0  0  0  0
 14  2  1  0  0  0  0
 15 12  1  0  0  0  0
 16  8  2  0  0  0  0
 17 25  1  0  0  0  0
 18  4  1  0  0  0  0
 19  3  1  0  0  0  0
 20 11  1  0  0  0  0
 20 18  1  0  0  0  0
 21 23  1  0  0  0  0
 22 24  1  0  0  0  0
 24 13  1  0  0  0  0
 25 14  1  0  0  0  0
 25  9  1  0  0  0  0
 26 21  2  0  0  0  0
 27  1  1  0  0  0  0
 28 17  1  0  0  0  0
 29 28  1  0  0  0  0
 30 33  1  0  0  0  0
 31 33  1  0  0  0  0
 32 29  1  0  0  0  0
 32 31  1  0  0  0  0
 32 34  1  0  0  0  0
 34 30  1  0  0  0  0
M  END
>  <MODEL>
7

>  <REMARK>
 VINA RESULT:      -8.9      2.036      4.713
  Name = 
  3 active torsions:
  status: ('A' for Active; 'I' for Inactive)
    1  A    between atoms: C_17  and  N_28
    2  A    between atoms: N_28  and  C_29
    3  A    between atoms: C_29  and  C_32
                            x       y       z     vdW  Elec       q    Type
                         _______ _______ _______ _____ _____    ______ ____

>  <TORSDO>
F 3

$$$$
=
 OpenBabel11122412263D

 34 40  0  0  1  0  0  0  0  0999 V2000
  190.8840  177.5860  142.2550 C   0  0  0  0  0  0  0  0  0  0  0  0
  192.5970  177.3500  140.5160 O   0  0  0  0  0  0  0  0  0  0  0  0
  184.6880  178.8640  144.1660 C   0  0  2  0  0  3  0  0  0  0  0  0
  189.0660  178.0650  143.8140 C   0  0  0  0  0  0  0  0  0  0  0  0
  186.7800  178.3000  142.7660 C   0  0  2  0  0  3  0  0  0  0  0  0
  184.5280  178.5380  141.6900 C   0  0  0  0  0  1  0  0  0  0  0  0
  185.1250  180.3210  144.2440 C   0  0  0  0  0  1  0  0  0  0  0  0
  185.9600  177.4000  145.8250 C   0  0  0  0  0  3  0  0  0  0  0  0
  190.4060  177.6810  139.8450 C   0  0  2  0  0  3  0  0  0  0  0  0
  189.3770  176.4860  137.0510 C   0  0  0  0  0  2  0  0  0  0  0  0
  187.2570  177.3760  141.8130 O   0  0  0  0  0  0  0  0  0  0  0  0
  187.1010  177.0170  144.9220 C   0  0  0  0  0  2  0  0  0  0  0  0
  188.9750  177.1970  140.0900 C   0  0  1  0  0  3  0  0  0  0  0  0
  192.5810  177.1300  139.1200 C   0  0  0  0  0  2  0  0  0  0  0  0
  187.5880  178.1970  144.0900 C   0  0  1  0  0  3  0  0  0  0  0  0
  184.9060  178.1630  145.4830 C   0  0  0  0  0  3  0  0  0  0  0  0
  190.6140  176.1000  137.8580 C   0  0  2  0  0  3  0  0  0  0  0  0
  189.5130  177.8050  142.5100 C   0  0  0  0  0  0  0  0  0  0  0  0
  185.2640  178.1200  142.9520 C   0  0  2  0  0  3  0  0  0  0  0  0
  188.4950  177.8820  141.3810 C   0  0  2  0  0  3  0  0  0  0  0  0
  191.3570  177.9250  144.6080 C   0  0  0  0  0  3  0  0  0  0  0  0
  188.1040  176.4420  137.8880 C   0  0  0  0  0  2  0  0  0  0  0  0
  189.9960  178.1360  144.8600 C   0  0  0  0  0  3  0  0  0  0  0  0
  188.0650  177.5530  138.9260 C   0  0  0  0  0  2  0  0  0  0  0  0
  191.1570  177.3410  138.5830 C   0  0  1  0  0  3  0  0  0  0  0  0
  191.7980  177.6280  143.3140 C   0  0  0  0  0  3  0  0  0  0  0  0
  191.2820  177.0820  140.8970 C   0  0  2  0  0  3  0  0  0  0  0  0
  191.6140  175.5710  136.9420 N   0  0  0  0  0  2  0  0  0  0  0  0
  191.7170  174.1460  137.2050 C   0  0  0  0  0  2  0  0  0  0  0  0
  195.2520  174.1740  137.3580 C   0  0  0  0  0  2  0  0  0  0  0  0
  193.6250  174.3050  135.6380 C   0  0  0  0  0  2  0  0  0  0  0  0
  193.1290  173.6710  136.9140 C   0  0  1  0  0  3  0  0  0  0  0  0
  195.0580  174.6300  135.9310 C   0  0  0  0  0  2  0  0  0  0  0  0
  193.9890  174.0440  137.9560 O   0  0  0  0  0  0  0  0  0  0  0  0
  1 18  2  0  0  0  0
  1 26  1  0  0  0  0
  2 27  1  0  0  0  0
  3  7  1  1  0  0  0
  3 16  1  0  0  0  0
  4 15  1  0  0  0  0
  4 23  2  0  0  0  0
  5 11  1  6  0  0  0
  5 19  1  0  0  0  0
  5 15  1  0  0  0  0
  6 19  1  0  0  0  0
  9 13  1  0  0  0  0
  9 27  1  0  0  0  0
 10 17  1  0  0  0  0
 10 22  1  0  0  0  0
 12  8  1  0  0  0  0
 13 20  1  0  0  0  0
 14  2  1  0  0  0  0
 15 12  1  0  0  0  0
 16  8  2  0  0  0  0
 17 25  1  0  0  0  0
 18  4  1  0  0  0  0
 19  3  1  0  0  0  0
 20 11  1  0  0  0  0
 20 18  1  0  0  0  0
 21 23  1  0  0  0  0
 22 24  1  0  0  0  0
 24 13  1  0  0  0  0
 25 14  1  0  0  0  0
 25  9  1  0  0  0  0
 26 21  2  0  0  0  0
 27  1  1  0  0  0  0
 28 29  1  0  0  0  0
 28 17  1  0  0  0  0
 30 34  1  0  0  0  0
 31 33  1  0  0  0  0
 31 32  1  0  0  0  0
 32 29  1  0  0  0  0
 32 34  1  0  0  0  0
 33 30  1  0  0  0  0
M  END
>  <MODEL>
8

>  <REMARK>
 VINA RESULT:      -8.7      3.759      8.300
  Name = 
  3 active torsions:
  status: ('A' for Active; 'I' for Inactive)
    1  A    between atoms: C_17  and  N_28
    2  A    between atoms: N_28  and  C_29
    3  A    between atoms: C_29  and  C_32
                            x       y       z     vdW  Elec       q    Type
                         _______ _______ _______ _____ _____    ______ ____

>  <TORSDO>
F 3

$$$$
=
 OpenBabel11122412263D

 34 40  0  0  1  0  0  0  0  0999 V2000
  187.3200  178.0130  140.2960 C   0  0  0  0  0  0  0  0  0  0  0  0
  189.3570  177.2690  141.4390 O   0  0  0  0  0  0  0  0  0  0  0  0
  180.7960  179.0570  140.1520 C   0  0  2  0  0  3  0  0  0  0  0  0
  185.1440  178.5090  139.3030 C   0  0  0  0  0  0  0  0  0  0  0  0
  183.2140  178.6100  140.9300 C   0  0  2  0  0  3  0  0  0  0  0  0
  181.3210  178.6910  142.5710 C   0  0  0  0  0  1  0  0  0  0  0  0
  180.6830  177.6220  139.6540 C   0  0  0  0  0  1  0  0  0  0  0  0
  182.0770  180.5350  138.5130 C   0  0  0  0  0  3  0  0  0  0  0  0
  187.3970  177.3640  142.6670 C   0  0  2  0  0  3  0  0  0  0  0  0
  187.4950  177.9400  145.8200 C   0  0  0  0  0  2  0  0  0  0  0  0
  184.1790  179.0580  141.8560 O   0  0  0  0  0  0  0  0  0  0  0  0
  183.4530  180.3200  139.0810 C   0  0  0  0  0  2  0  0  0  0  0  0
  186.1990  178.2650  142.9720 C   0  0  1  0  0  3  0  0  0  0  0  0
  189.7350  177.0760  142.7880 C   0  0  0  0  0  2  0  0  0  0  0  0
  183.6870  178.8660  139.4710 C   0  0  1  0  0  3  0  0  0  0  0  0
  180.9340  180.0200  139.0000 C   0  0  0  0  0  3  0  0  0  0  0  0
  188.5730  178.1920  144.7690 C   0  0  2  0  0  3  0  0  0  0  0  0
  185.9350  178.2540  140.4330 C   0  0  0  0  0  0  0  0  0  0  0  0
  181.8480  179.2380  141.2560 C   0  0  2  0  0  3  0  0  0  0  0  0
  185.2360  178.1350  141.7800 C   0  0  2  0  0  3  0  0  0  0  0  0
  187.1040  178.2470  137.8930 C   0  0  0  0  0  3  0  0  0  0  0  0
  186.1580  178.5640  145.4390 C   0  0  0  0  0  2  0  0  0  0  0  0
  185.7330  178.4920  138.0320 C   0  0  0  0  0  3  0  0  0  0  0  0
  185.5110  177.8500  144.2620 C   0  0  0  0  0  2  0  0  0  0  0  0
  188.4840  177.1120  143.6790 C   0  0  1  0  0  3  0  0  0  0  0  0
  187.9000  178.0300  139.0220 C   0  0  0  0  0  3  0  0  0  0  0  0
  188.1620  177.9790  141.5390 C   0  0  2  0  0  3  0  0  0  0  0  0
  189.8720  178.1460  145.4220 N   0  0  0  0  0  2  0  0  0  0  0  0
  189.6280  177.9140  146.8360 C   0  0  0  0  0  2  0  0  0  0  0  0
  192.4450  176.1040  147.9790 C   0  0  0  0  0  2  0  0  0  0  0  0
  190.9960  175.9860  146.1060 C   0  0  0  0  0  2  0  0  0  0  0  0
  190.4090  176.6990  147.3000 C   0  0  1  0  0  3  0  0  0  0  0  0
  192.3610  175.5730  146.5680 C   0  0  0  0  0  2  0  0  0  0  0  0
  191.4610  177.0920  148.1400 O   0  0  0  0  0  0  0  0  0  0  0  0
  1 18  1  0  0  0  0
  1 27  1  0  0  0  0
  2 27  1  0  0  0  0
  2 14  1  0  0  0  0
  3  7  1  6  0  0  0
  3 19  1  0  0  0  0
  4 15  1  0  0  0  0
  4 18  2  0  0  0  0
  5 19  1  0  0  0  0
  5 11  1  1  0  0  0
  8 16  2  0  0  0  0
  8 12  1  0  0  0  0
  9 13  1  0  0  0  0
  9 25  1  0  0  0  0
 12 15  1  0  0  0  0
 13 24  1  0  0  0  0
 14 25  1  0  0  0  0
 15  5  1  0  0  0  0
 16  3  1  0  0  0  0
 17 28  1  0  0  0  0
 17 10  1  0  0  0  0
 18 20  1  0  0  0  0
 19  6  1  0  0  0  0
 20 11  1  0  0  0  0
 20 13  1  0  0  0  0
 21 23  2  0  0  0  0
 21 26  1  0  0  0  0
 22 10  1  0  0  0  0
 23  4  1  0  0  0  0
 24 22  1  0  0  0  0
 25 17  1  0  0  0  0
 26  1  2  0  0  0  0
 27  9  1  0  0  0  0
 28 29  1  0  0  0  0
 29 32  1  0  0  0  0
 30 34  1  0  0  0  0
 31 33  1  0  0  0  0
 31 32  1  0  0  0  0
 32 34  1  0  0  0  0
 33 30  1  0  0  0  0
M  END
>  <MODEL>
9

>  <REMARK>
 VINA RESULT:      -8.7      2.538      8.294
  Name = 
  3 active torsions:
  status: ('A' for Active; 'I' for Inactive)
    1  A    between atoms: C_17  and  N_28
    2  A    between atoms: N_28  and  C_29
    3  A    between atoms: C_29  and  C_32
                            x       y       z     vdW  Elec       q    Type
                         _______ _______ _______ _____ _____    ______ ____

>  <TORSDO>
F 3

$$$$
