=
 OpenBabel11122410253D

 30 35  0  0  1  0  0  0  0  0999 V2000
  188.9290  177.8150  143.5560 C   0  0  1  0  0  3  0  0  0  0  0  0
  191.0550  177.5820  144.9300 C   0  0  2  0  0  3  0  0  0  0  0  0
  187.0510  178.3440  146.7200 N   0  0  0  0  0  2  0  0  0  0  0  0
  187.4390  178.2190  143.5310 C   0  0  1  0  0  3  0  0  0  0  0  0
  189.6670  178.5790  142.6310 O   0  0  0  0  0  0  0  0  0  0  0  0
  187.5470  177.8590  139.7590 O   0  0  0  0  0  1  0  0  0  0  0  0
  184.4430  178.2720  142.7200 C   0  0  1  0  0  3  0  0  0  0  0  0
  187.8970  178.4180  140.9920 C   0  0  2  0  0  3  0  0  0  0  0  0
  184.6020  178.9470  144.0580 C   0  0  1  0  0  3  0  0  0  0  0  0
  185.7500  178.8360  146.2850 C   0  0  2  0  0  3  0  0  0  0  0  0
  189.3550  178.1150  141.3360 C   0  0  2  0  0  3  0  0  0  0  0  0
  186.9010  177.9910  142.0860 C   0  0  2  0  0  3  0  0  0  0  0  0
  191.6200  177.4290  146.3390 C   0  0  0  0  0  2  0  0  0  0  0  0
  183.1870  179.1880  144.4970 C   0  0  0  0  0  2  0  0  0  0  0  0
  183.2030  178.6500  142.1870 O   0  0  0  0  0  0  0  0  0  0  0  0
  191.7500  178.6120  144.2920 O   0  0  0  0  0  1  0  0  0  0  0  0
  187.3180  177.1710  145.8970 C   0  0  1  0  0  3  0  0  0  0  0  0
  190.8830  176.3310  147.0900 C   0  0  0  0  0  2  0  0  0  0  0  0
  189.5420  177.8930  144.9570 C   0  0  2  0  0  3  0  0  0  0  0  0
  186.6160  177.3720  144.5550 C   0  0  1  0  0  3  0  0  0  0  0  0
  184.8120  178.6380  147.2990 O   0  0  0  0  0  1  0  0  0  0  0  0
  185.3400  178.0540  145.0470 C   0  0  2  0  0  3  0  0  0  0  0  0
  182.3560  178.7940  143.2960 C   0  0  0  0  0  2  0  0  0  0  0  0
  185.7200  180.0900  141.7750 O   0  0  0  0  0  1  0  0  0  0  0  0
  189.4130  176.6970  147.1980 C   0  0  0  0  0  2  0  0  0  0  0  0
  188.8070  176.8500  145.8030 C   0  0  1  0  0  3  0  0  0  0  0  0
  185.5700  178.6970  141.7890 C   0  0  2  0  0  3  0  0  0  0  0  0
  189.7570  176.6520  141.1010 C   0  0  0  0  0  2  0  0  0  0  0  0
  191.7460  177.5130  140.1510 F   0  0  0  0  0  0  0  0  0  0  0  0
  190.7630  176.5610  139.9700 C   0  0  0  0  0  2  0  0  0  0  0  0
  1  5  1  6  0  0  0
  1 19  1  0  0  0  0
  2 16  1  1  0  0  0
  2 19  1  0  0  0  0
  2 13  1  0  0  0  0
  4  1  1  0  0  0  0
  4 20  1  0  0  0  0
  6  8  1  0  0  0  0
  7  9  1  0  0  0  0
  8 11  1  0  0  0  0
  8 12  1  0  0  0  0
  9 14  1  0  0  0  0
  9 22  1  0  0  0  0
 10  3  1  0  0  0  0
 10 21  1  0  0  0  0
 11  5  1  0  0  0  0
 12  4  1  0  0  0  0
 13 18  1  0  0  0  0
 15  7  1  0  0  0  0
 15 23  1  0  0  0  0
 17  3  1  0  0  0  0
 18 25  1  0  0  0  0
 19 26  1  0  0  0  0
 20 22  1  0  0  0  0
 20 17  1  0  0  0  0
 22 10  1  0  0  0  0
 23 14  1  0  0  0  0
 24 27  1  0  0  0  0
 26 17  1  0  0  0  0
 26 25  1  0  0  0  0
 27 12  1  0  0  0  0
 27  7  1  0  0  0  0
 28 11  1  0  0  0  0
 30 29  1  0  0  0  0
 30 28  1  0  0  0  0
M  END
>  <MODEL>
1

>  <REMARK>
 VINA RESULT:     -10.4      0.000      0.000
  Name = 
  2 active torsions:
  status: ('A' for Active; 'I' for Inactive)
    1  A    between atoms: C_11  and  C_28
    2  A    between atoms: C_28  and  C_30
                            x       y       z     vdW  Elec       q    Type
                         _______ _______ _______ _____ _____    ______ ____

>  <TORSDO>
F 2

$$$$
=
 OpenBabel11122410253D

 30 35  0  0  1  0  0  0  0  0999 V2000
  186.9800  178.1540  140.9100 C   0  0  1  0  0  3  0  0  0  0  0  0
  188.8310  178.0020  139.1760 C   0  0  2  0  0  3  0  0  0  0  0  0
  189.5670  177.8620  143.5640 N   0  0  0  0  0  2  0  0  0  0  0  0
  186.6080  178.3370  142.3990 C   0  0  1  0  0  3  0  0  0  0  0  0
  186.3890  179.1630  140.1240 O   0  0  0  0  0  0  0  0  0  0  0  0
  182.9890  178.6400  141.3150 O   0  0  0  0  0  1  0  0  0  0  0  0
  185.0390  178.0920  145.0650 C   0  0  1  0  0  3  0  0  0  0  0  0
  184.3300  179.0270  141.3830 C   0  0  2  0  0  3  0  0  0  0  0  0
  186.4450  178.5460  145.3620 C   0  0  1  0  0  3  0  0  0  0  0  0
  188.8660  178.2270  144.7880 C   0  0  2  0  0  3  0  0  0  0  0  0
  185.0110  178.8840  140.0210 C   0  0  2  0  0  3  0  0  0  0  0  0
  185.0560  178.2810  142.5190 C   0  0  2  0  0  3  0  0  0  0  0  0
  190.3090  177.6960  138.9510 C   0  0  0  0  0  2  0  0  0  0  0  0
  186.5170  178.5020  146.8610 C   0  0  0  0  0  2  0  0  0  0  0  0
  184.2460  178.3710  146.1860 O   0  0  0  0  0  0  0  0  0  0  0  0
  188.5380  179.2140  138.5480 O   0  0  0  0  0  1  0  0  0  0  0  0
  188.7030  176.8970  142.8950 C   0  0  1  0  0  3  0  0  0  0  0  0
  190.6910  176.3920  139.6330 C   0  0  0  0  0  2  0  0  0  0  0  0
  188.4920  178.0810  140.6810 C   0  0  2  0  0  3  0  0  0  0  0  0
  187.2600  177.2180  143.2750 C   0  0  1  0  0  3  0  0  0  0  0  0
  189.5580  177.7270  145.8910 O   0  0  0  0  0  1  0  0  0  0  0  0
  187.4740  177.6150  144.7350 C   0  0  2  0  0  3  0  0  0  0  0  0
  185.0970  178.2010  147.2890 C   0  0  0  0  0  2  0  0  0  0  0  0
  184.7070  180.2090  143.9540 O   0  0  0  0  0  1  0  0  0  0  0  0
  190.4470  176.5180  141.1280 C   0  0  0  0  0  2  0  0  0  0  0  0
  188.9710  176.8150  141.3950 C   0  0  1  0  0  3  0  0  0  0  0  0
  184.5050  178.8270  143.8440 C   0  0  2  0  0  3  0  0  0  0  0  0
  184.7090  177.5560  139.3130 C   0  0  0  0  0  2  0  0  0  0  0  0
  186.0230  177.7170  137.3510 F   0  0  0  0  0  0  0  0  0  0  0  0
  184.7210  177.7500  137.8090 C   0  0  0  0  0  2  0  0  0  0  0  0
  1  5  1  6  0  0  0
  1  4  1  0  0  0  0
  2 16  1  6  0  0  0
  2 19  1  0  0  0  0
  3 10  1  0  0  0  0
  4 12  1  0  0  0  0
  4 20  1  0  0  0  0
  6  8  1  0  0  0  0
  7  9  1  0  0  0  0
  7 15  1  0  0  0  0
  8 12  1  0  0  0  0
  9 14  1  0  0  0  0
 10 21  1  0  0  0  0
 11  5  1  0  0  0  0
 11  8  1  0  0  0  0
 12 27  1  0  0  0  0
 13  2  1  0  0  0  0
 13 18  1  0  0  0  0
 14 23  1  0  0  0  0
 15 23  1  0  0  0  0
 17 20  1  0  0  0  0
 17  3  1  0  0  0  0
 18 25  1  0  0  0  0
 19  1  1  0  0  0  0
 19 26  1  0  0  0  0
 20 22  1  0  0  0  0
 22 10  1  0  0  0  0
 22  9  1  0  0  0  0
 25 26  1  0  0  0  0
 26 17  1  0  0  0  0
 27 24  1  0  0  0  0
 27  7  1  0  0  0  0
 28 11  1  0  0  0  0
 29 30  1  0  0  0  0
 30 28  1  0  0  0  0
M  END
>  <MODEL>
2

>  <REMARK>
 VINA RESULT:      -8.9      2.194      4.576
  Name = 
  2 active torsions:
  status: ('A' for Active; 'I' for Inactive)
    1  A    between atoms: C_11  and  C_28
    2  A    between atoms: C_28  and  C_30
                            x       y       z     vdW  Elec       q    Type
                         _______ _______ _______ _____ _____    ______ ____

>  <TORSDO>
F 2

$$$$
=
 OpenBabel11122410253D

 30 35  0  0  1  0  0  0  0  0999 V2000
  187.7130  178.0210  145.1960 C   0  0  1  0  0  3  0  0  0  0  0  0
  185.4980  178.8600  146.1170 C   0  0  2  0  0  3  0  0  0  0  0  0
  186.4980  178.8450  141.7800 N   0  0  0  0  0  2  0  0  0  0  0  0
  188.6570  177.9240  143.9770 C   0  0  1  0  0  3  0  0  0  0  0  0
  188.3520  178.6710  146.2690 O   0  0  0  0  0  0  0  0  0  0  0  0
  191.3000  176.5350  146.3120 O   0  0  0  0  0  1  0  0  0  0  0  0
  190.8150  176.8190  142.0400 C   0  0  1  0  0  3  0  0  0  0  0  0
  190.4230  177.5070  145.8220 C   0  0  2  0  0  3  0  0  0  0  0  0
  190.0040  177.8680  141.3240 C   0  0  1  0  0  3  0  0  0  0  0  0
  187.6920  178.7650  140.9480 C   0  0  2  0  0  3  0  0  0  0  0  0
  189.2950  177.7790  146.8190 C   0  0  2  0  0  3  0  0  0  0  0  0
  189.9270  177.1330  144.4130 C   0  0  2  0  0  3  0  0  0  0  0  0
  184.0830  179.3030  145.7560 C   0  0  0  0  0  2  0  0  0  0  0  0
  190.4920  177.7810  139.9080 C   0  0  0  0  0  2  0  0  0  0  0  0
  192.0050  176.6260  141.3240 O   0  0  0  0  0  0  0  0  0  0  0  0
  186.0510  179.8210  146.9650 O   0  0  0  0  0  1  0  0  0  0  0  0
  186.4990  177.6230  142.5760 C   0  0  1  0  0  3  0  0  0  0  0  0
  183.4370  178.3010  144.8130 C   0  0  0  0  0  2  0  0  0  0  0  0
  186.3750  178.6860  144.8580 C   0  0  2  0  0  3  0  0  0  0  0  0
  187.9520  177.2020  142.7840 C   0  0  1  0  0  3  0  0  0  0  0  0
  187.3220  178.5940  139.6140 O   0  0  0  0  0  1  0  0  0  0  0  0
  188.5120  177.5720  141.4110 C   0  0  2  0  0  3  0  0  0  0  0  0
  191.6590  176.8200  139.9790 C   0  0  0  0  0  2  0  0  0  0  0  0
  191.6310  178.5830  143.4700 O   0  0  0  0  0  1  0  0  0  0  0  0
  184.2550  178.2140  143.5360 C   0  0  0  0  0  2  0  0  0  0  0  0
  185.6790  177.7610  143.8560 C   0  0  1  0  0  3  0  0  0  0  0  0
  191.1200  177.2790  143.4580 C   0  0  2  0  0  3  0  0  0  0  0  0
  188.6640  176.5070  147.4020 C   0  0  0  0  0  2  0  0  0  0  0  0
  188.2830  177.9620  149.2300 F   0  0  0  0  0  0  0  0  0  0  0  0
  187.7710  176.8580  148.5770 C   0  0  0  0  0  2  0  0  0  0  0  0
  1  5  1  1  0  0  0
  2 16  1  1  0  0  0
  3 17  1  0  0  0  0
  4 12  1  0  0  0  0
  4  1  1  0  0  0  0
  5 11  1  0  0  0  0
  7 27  1  0  0  0  0
  8  6  1  0  0  0  0
  8 11  1  0  0  0  0
  9 22  1  0  0  0  0
  9  7  1  0  0  0  0
 10 22  1  0  0  0  0
 10  3  1  0  0  0  0
 11 28  1  0  0  0  0
 12  8  1  0  0  0  0
 13  2  1  0  0  0  0
 14 23  1  0  0  0  0
 14  9  1  0  0  0  0
 15  7  1  0  0  0  0
 17 20  1  0  0  0  0
 17 26  1  0  0  0  0
 18 13  1  0  0  0  0
 19  1  1  0  0  0  0
 19  2  1  0  0  0  0
 20  4  1  0  0  0  0
 21 10  1  0  0  0  0
 22 20  1  0  0  0  0
 23 15  1  0  0  0  0
 25 26  1  0  0  0  0
 25 18  1  0  0  0  0
 26 19  1  0  0  0  0
 27 24  1  0  0  0  0
 27 12  1  0  0  0  0
 28 30  1  0  0  0  0
 30 29  1  0  0  0  0
M  END
>  <MODEL>
3

>  <REMARK>
 VINA RESULT:      -8.3      2.520      6.382
  Name = 
  2 active torsions:
  status: ('A' for Active; 'I' for Inactive)
    1  A    between atoms: C_11  and  C_28
    2  A    between atoms: C_28  and  C_30
                            x       y       z     vdW  Elec       q    Type
                         _______ _______ _______ _____ _____    ______ ____

>  <TORSDO>
F 2

$$$$
=
 OpenBabel11122410253D

 30 35  0  0  1  0  0  0  0  0999 V2000
  187.1980  178.0850  142.1700 C   0  0  1  0  0  3  0  0  0  0  0  0
  188.2600  178.1310  139.8620 C   0  0  2  0  0  3  0  0  0  0  0  0
  190.5860  177.5890  143.6180 N   0  0  0  0  0  2  0  0  0  0  0  0
  187.4160  178.1190  143.6990 C   0  0  1  0  0  3  0  0  0  0  0  0
  186.3750  179.1530  141.7620 O   0  0  0  0  0  0  0  0  0  0  0  0
  183.6610  178.4590  144.0880 O   0  0  0  0  0  1  0  0  0  0  0  0
  186.9580  177.5940  146.7240 C   0  0  1  0  0  3  0  0  0  0  0  0
  184.9370  178.8610  143.6840 C   0  0  2  0  0  3  0  0  0  0  0  0
  188.3820  178.0440  146.5130 C   0  0  1  0  0  3  0  0  0  0  0  0
  190.4030  177.8230  145.0440 C   0  0  2  0  0  3  0  0  0  0  0  0
  185.0540  178.8600  142.1590 C   0  0  2  0  0  3  0  0  0  0  0  0
  186.0210  178.0240  144.3880 C   0  0  2  0  0  3  0  0  0  0  0  0
  189.5390  177.8740  139.0700 C   0  0  0  0  0  2  0  0  0  0  0  0
  189.0100  177.8580  147.8630 C   0  0  0  0  0  2  0  0  0  0  0  0
  186.6500  177.7510  148.0820 O   0  0  0  0  0  0  0  0  0  0  0  0
  187.7760  179.3920  139.5080 O   0  0  0  0  0  1  0  0  0  0  0  0
  189.5160  176.6760  143.2340 C   0  0  1  0  0  3  0  0  0  0  0  0
  190.1240  176.5190  139.4330 C   0  0  0  0  0  2  0  0  0  0  0  0
  188.5120  178.0610  141.3840 C   0  0  2  0  0  3  0  0  0  0  0  0
  188.3280  176.9340  144.1570 C   0  0  1  0  0  3  0  0  0  0  0  0
  191.4490  177.2330  145.7540 O   0  0  0  0  0  1  0  0  0  0  0  0
  189.0820  177.1950  145.4600 C   0  0  2  0  0  3  0  0  0  0  0  0
  187.8490  177.4930  148.7630 C   0  0  0  0  0  2  0  0  0  0  0  0
  186.2750  179.8010  146.0240 O   0  0  0  0  0  1  0  0  0  0  0  0
  190.4610  176.4970  140.9140 C   0  0  0  0  0  2  0  0  0  0  0  0
  189.2000  176.7410  141.7430 C   0  0  1  0  0  3  0  0  0  0  0  0
  186.0190  178.4320  145.8680 C   0  0  2  0  0  3  0  0  0  0  0  0
  184.4830  177.6000  141.4940 C   0  0  0  0  0  2  0  0  0  0  0  0
  182.3100  178.5140  141.2780 F   0  0  0  0  0  0  0  0  0  0  0  0
  183.3530  177.9710  140.5530 C   0  0  0  0  0  2  0  0  0  0  0  0
  1  5  1  6  0  0  0
  1  4  1  0  0  0  0
  2 16  1  1  0  0  0
  2 19  1  0  0  0  0
  3 10  1  0  0  0  0
  4 20  1  0  0  0  0
  4 12  1  0  0  0  0
  5 11  1  0  0  0  0
  7 15  1  0  0  0  0
  8  6  1  0  0  0  0
  8 12  1  0  0  0  0
  9  7  1  0  0  0  0
  9 14  1  0  0  0  0
 10 22  1  0  0  0  0
 10 21  1  0  0  0  0
 11  8  1  0  0  0  0
 12 27  1  0  0  0  0
 13 18  1  0  0  0  0
 13  2  1  0  0  0  0
 14 23  1  0  0  0  0
 15 23  1  0  0  0  0
 17  3  1  0  0  0  0
 17 20  1  0  0  0  0
 18 25  1  0  0  0  0
 19 26  1  0  0  0  0
 19  1  1  0  0  0  0
 20 22  1  0  0  0  0
 22  9  1  0  0  0  0
 25 26  1  0  0  0  0
 26 17  1  0  0  0  0
 27 24  1  0  0  0  0
 27  7  1  0  0  0  0
 28 11  1  0  0  0  0
 30 29  1  0  0  0  0
 30 28  1  0  0  0  0
M  END
>  <MODEL>
4

>  <REMARK>
 VINA RESULT:      -8.3      2.419      5.454
  Name = 
  2 active torsions:
  status: ('A' for Active; 'I' for Inactive)
    1  A    between atoms: C_11  and  C_28
    2  A    between atoms: C_28  and  C_30
                            x       y       z     vdW  Elec       q    Type
                         _______ _______ _______ _____ _____    ______ ____

>  <TORSDO>
F 2

$$$$
=
 OpenBabel11122410253D

 30 35  0  0  1  0  0  0  0  0999 V2000
  188.8720  177.4810  145.2930 C   0  0  1  0  0  3  0  0  0  0  0  0
  187.4490  178.3420  147.2140 C   0  0  2  0  0  3  0  0  0  0  0  0
  186.3510  178.8560  142.9310 N   0  0  0  0  0  2  0  0  0  0  0  0
  189.1360  177.4850  143.7710 C   0  0  1  0  0  3  0  0  0  0  0  0
  190.0080  177.9270  145.9950 O   0  0  0  0  0  0  0  0  0  0  0  0
  192.3480  175.5970  144.4630 O   0  0  0  0  0  1  0  0  0  0  0  0
  190.0110  176.5050  140.9590 C   0  0  1  0  0  3  0  0  0  0  0  0
  191.4780  176.6880  144.5290 C   0  0  2  0  0  3  0  0  0  0  0  0
  189.1050  177.7000  140.8030 C   0  0  1  0  0  3  0  0  0  0  0  0
  187.0130  178.8060  141.6340 C   0  0  2  0  0  3  0  0  0  0  0  0
  190.9740  176.9010  145.9570 C   0  0  2  0  0  3  0  0  0  0  0  0
  190.3500  176.5500  143.4890 C   0  0  2  0  0  3  0  0  0  0  0  0
  186.0950  178.9330  147.5990 C   0  0  0  0  0  2  0  0  0  0  0  0
  188.8780  177.7740  139.3210 C   0  0  0  0  0  2  0  0  0  0  0  0
  190.7080  176.3280  139.7560 O   0  0  0  0  0  0  0  0  0  0  0  0
  188.4470  179.1330  147.7870 O   0  0  0  0  0  1  0  0  0  0  0  0
  186.5580  177.5390  143.5220 C   0  0  1  0  0  3  0  0  0  0  0  0
  184.9670  178.1210  146.9830 C   0  0  0  0  0  2  0  0  0  0  0  0
  187.6250  178.2820  145.6810 C   0  0  2  0  0  3  0  0  0  0  0  0
  187.8770  176.9880  142.9870 C   0  0  1  0  0  3  0  0  0  0  0  0
  186.0580  178.8490  140.6180 O   0  0  0  0  0  1  0  0  0  0  0  0
  187.7930  177.5030  141.5510 C   0  0  2  0  0  3  0  0  0  0  0  0
  189.8140  176.7300  138.7520 C   0  0  0  0  0  2  0  0  0  0  0  0
  191.6090  177.9900  141.9920 O   0  0  0  0  0  1  0  0  0  0  0  0
  185.0940  178.1520  145.4690 C   0  0  0  0  0  2  0  0  0  0  0  0
  186.4370  177.5570  145.0430 C   0  0  1  0  0  3  0  0  0  0  0  0
  190.9850  176.7400  142.1040 C   0  0  2  0  0  3  0  0  0  0  0  0
  190.5190  175.6100  146.6530 C   0  0  0  0  0  2  0  0  0  0  0  0
  192.7600  175.5940  147.4160 F   0  0  0  0  0  0  0  0  0  0  0  0
  191.4700  175.2610  147.7810 C   0  0  0  0  0  2  0  0  0  0  0  0
  1 19  1  0  0  0  0
  1  5  1  1  0  0  0
  2 13  1  0  0  0  0
  2 16  1  1  0  0  0
  3 17  1  0  0  0  0
  4  1  1  0  0  0  0
  6  8  1  0  0  0  0
  7 27  1  0  0  0  0
  8 11  1  0  0  0  0
  9  7  1  0  0  0  0
  9 22  1  0  0  0  0
 10  3  1  0  0  0  0
 11  5  1  0  0  0  0
 11 28  1  0  0  0  0
 12  4  1  0  0  0  0
 12  8  1  0  0  0  0
 14  9  1  0  0  0  0
 15  7  1  0  0  0  0
 17 26  1  0  0  0  0
 18 13  1  0  0  0  0
 19  2  1  0  0  0  0
 20 17  1  0  0  0  0
 20  4  1  0  0  0  0
 21 10  1  0  0  0  0
 22 10  1  0  0  0  0
 22 20  1  0  0  0  0
 23 14  1  0  0  0  0
 23 15  1  0  0  0  0
 24 27  1  0  0  0  0
 25 18  1  0  0  0  0
 26 25  1  0  0  0  0
 26 19  1  0  0  0  0
 27 12  1  0  0  0  0
 28 30  1  0  0  0  0
 29 30  1  0  0  0  0
M  END
>  <MODEL>
5

>  <REMARK>
 VINA RESULT:      -8.2      2.303      5.496
  Name = 
  2 active torsions:
  status: ('A' for Active; 'I' for Inactive)
    1  A    between atoms: C_11  and  C_28
    2  A    between atoms: C_28  and  C_30
                            x       y       z     vdW  Elec       q    Type
                         _______ _______ _______ _____ _____    ______ ____

>  <TORSDO>
F 2

$$$$
=
 OpenBabel11122410253D

 30 35  0  0  1  0  0  0  0  0999 V2000
  188.9140  177.4860  144.0900 C   0  0  1  0  0  3  0  0  0  0  0  0
  189.4610  177.5990  146.5690 C   0  0  2  0  0  3  0  0  0  0  0  0
  185.6490  179.1010  144.8300 N   0  0  0  0  0  2  0  0  0  0  0  0
  187.9790  177.9370  142.9460 C   0  0  1  0  0  3  0  0  0  0  0  0
  190.2430  177.8730  143.8260 O   0  0  0  0  0  0  0  0  0  0  0  0
  190.4310  176.3770  140.5120 O   0  0  0  0  0  1  0  0  0  0  0  0
  186.3990  177.8790  140.2750 C   0  0  1  0  0  3  0  0  0  0  0  0
  190.0180  177.2840  141.4920 C   0  0  2  0  0  3  0  0  0  0  0  0
  185.8120  178.9400  141.1700 C   0  0  1  0  0  3  0  0  0  0  0  0
  185.1390  179.4920  143.5230 C   0  0  2  0  0  3  0  0  0  0  0  0
  190.7480  177.0330  142.8130 C   0  0  2  0  0  3  0  0  0  0  0  0
  188.4840  177.2840  141.6240 C   0  0  2  0  0  3  0  0  0  0  0  0
  188.9000  177.8780  147.9600 C   0  0  0  0  0  2  0  0  0  0  0  0
  184.5840  179.3810  140.4290 C   0  0  0  0  0  2  0  0  0  0  0  0
  185.9680  178.1280  138.9650 O   0  0  0  0  0  0  0  0  0  0  0  0
  190.6410  178.3310  146.4210 O   0  0  0  0  0  1  0  0  0  0  0  0
  186.0700  177.7130  144.6830 C   0  0  1  0  0  3  0  0  0  0  0  0
  187.5990  177.1200  148.1690 C   0  0  0  0  0  2  0  0  0  0  0  0
  188.4510  177.9790  145.4640 C   0  0  2  0  0  3  0  0  0  0  0  0
  186.5040  177.5080  143.2330 C   0  0  1  0  0  3  0  0  0  0  0  0
  183.7590  179.6800  143.5950 O   0  0  0  0  0  1  0  0  0  0  0  0
  185.4550  178.3760  142.5390 C   0  0  2  0  0  3  0  0  0  0  0  0
  184.6790  178.6650  139.0990 C   0  0  0  0  0  2  0  0  0  0  0  0
  188.3980  179.2280  140.1720 O   0  0  0  0  0  1  0  0  0  0  0  0
  186.5800  177.5760  147.1380 C   0  0  0  0  0  2  0  0  0  0  0  0
  187.1040  177.3020  145.7280 C   0  0  1  0  0  3  0  0  0  0  0  0
  187.9180  177.9240  140.3480 C   0  0  2  0  0  3  0  0  0  0  0  0
  190.8050  175.5540  143.2190 C   0  0  0  0  0  2  0  0  0  0  0  0
  191.8470  175.6680  145.3410 F   0  0  0  0  0  0  0  0  0  0  0  0
  192.0550  175.2820  144.0310 C   0  0  0  0  0  2  0  0  0  0  0  0
  1  5  1  6  0  0  0
  1 19  1  0  0  0  0
  2 16  1  6  0  0  0
  2 13  1  0  0  0  0
  4 20  1  0  0  0  0
  4  1  1  0  0  0  0
  6  8  1  0  0  0  0
  7 27  1  0  0  0  0
  7  9  1  0  0  0  0
  8 12  1  0  0  0  0
  8 11  1  0  0  0  0
  9 22  1  0  0  0  0
 10 21  1  0  0  0  0
 10  3  1  0  0  0  0
 11 28  1  0  0  0  0
 11  5  1  0  0  0  0
 12  4  1  0  0  0  0
 13 18  1  0  0  0  0
 14  9  1  0  0  0  0
 15 23  1  0  0  0  0
 15  7  1  0  0  0  0
 17  3  1  0  0  0  0
 17 26  1  0  0  0  0
 19 26  1  0  0  0  0
 19  2  1  0  0  0  0
 20 17  1  0  0  0  0
 22 20  1  0  0  0  0
 22 10  1  0  0  0  0
 23 14  1  0  0  0  0
 24 27  1  0  0  0  0
 25 18  1  0  0  0  0
 26 25  1  0  0  0  0
 27 12  1  0  0  0  0
 28 30  1  0  0  0  0
 30 29  1  0  0  0  0
M  END
>  <MODEL>
6

>  <REMARK>
 VINA RESULT:      -8.2      1.977      3.019
  Name = 
  2 active torsions:
  status: ('A' for Active; 'I' for Inactive)
    1  A    between atoms: C_11  and  C_28
    2  A    between atoms: C_28  and  C_30
                            x       y       z     vdW  Elec       q    Type
                         _______ _______ _______ _____ _____    ______ ____

>  <TORSDO>
F 2

$$$$
=
 OpenBabel11122410253D

 30 35  0  0  1  0  0  0  0  0999 V2000
  187.2110  178.0350  142.2950 C   0  0  1  0  0  3  0  0  0  0  0  0
  187.8830  177.4880  144.6840 C   0  0  2  0  0  3  0  0  0  0  0  0
  190.4800  176.6740  141.1610 N   0  0  0  0  0  2  0  0  0  0  0  0
  187.5160  177.8640  140.7900 C   0  0  1  0  0  3  0  0  0  0  0  0
  185.9220  177.5560  142.5970 O   0  0  0  0  0  0  0  0  0  0  0  0
  184.1810  179.5130  140.0680 O   0  0  0  0  0  1  0  0  0  0  0  0
  187.6700  178.4920  137.7540 C   0  0  1  0  0  3  0  0  0  0  0  0
  185.0210  178.5150  140.5690 C   0  0  2  0  0  3  0  0  0  0  0  0
  188.6280  177.3740  138.0740 C   0  0  1  0  0  3  0  0  0  0  0  0
  190.3310  176.5420  139.7180 C   0  0  2  0  0  3  0  0  0  0  0  0
  184.9850  178.4840  142.0970 C   0  0  2  0  0  3  0  0  0  0  0  0
  186.4400  178.6550  139.9870 C   0  0  2  0  0  3  0  0  0  0  0  0
  189.0340  177.0600  145.5900 C   0  0  0  0  0  2  0  0  0  0  0  0
  189.3800  177.1810  136.7890 C   0  0  0  0  0  2  0  0  0  0  0  0
  187.4470  178.4920  136.3710 O   0  0  0  0  0  0  0  0  0  0  0  0
  186.7870  176.6690  144.9560 O   0  0  0  0  0  1  0  0  0  0  0  0
  190.0090  178.0170  141.4780 C   0  0  1  0  0  3  0  0  0  0  0  0
  190.2660  177.9080  145.3210 C   0  0  0  0  0  2  0  0  0  0  0  0
  188.2710  177.3880  143.1920 C   0  0  2  0  0  3  0  0  0  0  0  0
  188.9460  178.3950  140.4490 C   0  0  1  0  0  3  0  0  0  0  0  0
  191.5900  176.4900  139.1190 O   0  0  0  0  0  1  0  0  0  0  0  0
  189.5700  177.7560  139.2090 C   0  0  2  0  0  3  0  0  0  0  0  0
  188.6620  178.0780  135.8040 C   0  0  0  0  0  2  0  0  0  0  0  0
  185.8820  176.9740  138.3250 O   0  0  0  0  0  1  0  0  0  0  0  0
  190.6970  177.7230  143.8760 C   0  0  0  0  0  2  0  0  0  0  0  0
  189.5720  178.1530  142.9340 C   0  0  1  0  0  3  0  0  0  0  0  0
  186.3600  178.2790  138.5000 C   0  0  2  0  0  3  0  0  0  0  0  0
  185.0920  179.8700  142.7480 C   0  0  0  0  0  2  0  0  0  0  0  0
  185.3940  179.6260  145.0830 F   0  0  0  0  0  0  0  0  0  0  0  0
  184.4370  179.8580  144.1150 C   0  0  0  0  0  2  0  0  0  0  0  0
  1  5  1  6  0  0  0
  1 19  1  0  0  0  0
  2 16  1  6  0  0  0
  2 13  1  0  0  0  0
  3 17  1  0  0  0  0
  4  1  1  0  0  0  0
  6  8  1  0  0  0  0
  7  9  1  0  0  0  0
  7 27  1  0  0  0  0
  8 11  1  0  0  0  0
  9 22  1  0  0  0  0
 10  3  1  0  0  0  0
 11  5  1  0  0  0  0
 11 28  1  0  0  0  0
 12  8  1  0  0  0  0
 12  4  1  0  0  0  0
 14  9  1  0  0  0  0
 15  7  1  0  0  0  0
 17 26  1  0  0  0  0
 18 13  1  0  0  0  0
 19  2  1  0  0  0  0
 20  4  1  0  0  0  0
 20 17  1  0  0  0  0
 21 10  1  0  0  0  0
 22 10  1  0  0  0  0
 22 20  1  0  0  0  0
 23 15  1  0  0  0  0
 23 14  1  0  0  0  0
 24 27  1  0  0  0  0
 25 18  1  0  0  0  0
 26 19  1  0  0  0  0
 26 25  1  0  0  0  0
 27 12  1  0  0  0  0
 28 30  1  0  0  0  0
 30 29  1  0  0  0  0
M  END
>  <MODEL>
7

>  <REMARK>
 VINA RESULT:      -7.5      2.951      5.878
  Name = 
  2 active torsions:
  status: ('A' for Active; 'I' for Inactive)
    1  A    between atoms: C_11  and  C_28
    2  A    between atoms: C_28  and  C_30
                            x       y       z     vdW  Elec       q    Type
                         _______ _______ _______ _____ _____    ______ ____

>  <TORSDO>
F 2

$$$$
=
 OpenBabel11122410253D

 30 35  0  0  1  0  0  0  0  0999 V2000
  187.3240  178.0550  144.1570 C   0  0  1  0  0  3  0  0  0  0  0  0
  189.3240  177.3000  145.5320 C   0  0  2  0  0  3  0  0  0  0  0  0
  189.2800  177.3240  141.0810 N   0  0  0  0  0  2  0  0  0  0  0  0
  186.6600  178.1260  142.7640 C   0  0  1  0  0  3  0  0  0  0  0  0
  186.4980  177.3660  145.0660 O   0  0  0  0  0  0  0  0  0  0  0  0
  183.5180  179.3740  144.4780 O   0  0  0  0  0  1  0  0  0  0  0  0
  184.9230  179.1620  140.4100 C   0  0  1  0  0  3  0  0  0  0  0  0
  184.5220  178.4460  144.1860 C   0  0  2  0  0  3  0  0  0  0  0  0
  185.9150  178.1560  139.8840 C   0  0  1  0  0  3  0  0  0  0  0  0
  188.2910  177.3630  140.0120 C   0  0  2  0  0  3  0  0  0  0  0  0
  185.4200  178.2110  145.4020 C   0  0  2  0  0  3  0  0  0  0  0  0
  185.2930  178.8580  142.9180 C   0  0  2  0  0  3  0  0  0  0  0  0
  190.8020  176.9220  145.4840 C   0  0  0  0  0  2  0  0  0  0  0  0
  185.7400  178.2400  138.3950 C   0  0  0  0  0  2  0  0  0  0  0  0
  183.9080  179.3110  139.4550 O   0  0  0  0  0  0  0  0  0  0  0  0
  188.6440  176.3070  146.2390 O   0  0  0  0  0  1  0  0  0  0  0  0
  189.0540  178.5350  141.8620 C   0  0  1  0  0  3  0  0  0  0  0  0
  191.5900  177.9620  144.7050 C   0  0  0  0  0  2  0  0  0  0  0  0
  188.7310  177.4520  144.1140 C   0  0  2  0  0  3  0  0  0  0  0  0
  187.5740  178.8920  141.7530 C   0  0  1  0  0  3  0  0  0  0  0  0
  188.9310  177.5660  138.7890 O   0  0  0  0  0  1  0  0  0  0  0  0
  187.3380  178.5150  140.2900 C   0  0  2  0  0  3  0  0  0  0  0  0
  184.5440  179.1490  138.2160 C   0  0  0  0  0  2  0  0  0  0  0  0
  183.8970  177.3470  141.6270 O   0  0  0  0  0  1  0  0  0  0  0  0
  191.0630  178.0300  143.2810 C   0  0  0  0  0  2  0  0  0  0  0  0
  189.5850  178.4180  143.2880 C   0  0  1  0  0  3  0  0  0  0  0  0
  184.3410  178.6720  141.7280 C   0  0  2  0  0  3  0  0  0  0  0  0
  185.8550  179.5010  146.1100 C   0  0  0  0  0  2  0  0  0  0  0  0
  187.2860  178.6420  147.7880 F   0  0  0  0  0  0  0  0  0  0  0  0
  186.0580  179.2420  147.5910 C   0  0  0  0  0  2  0  0  0  0  0  0
  1  5  1  1  0  0  0
  2 16  1  6  0  0  0
  3 17  1  0  0  0  0
  4 12  1  0  0  0  0
  4  1  1  0  0  0  0
  5 11  1  0  0  0  0
  7 27  1  0  0  0  0
  8  6  1  0  0  0  0
  8 11  1  0  0  0  0
  9 22  1  0  0  0  0
  9  7  1  0  0  0  0
 10 22  1  0  0  0  0
 10  3  1  0  0  0  0
 11 28  1  0  0  0  0
 12  8  1  0  0  0  0
 13  2  1  0  0  0  0
 14  9  1  0  0  0  0
 15  7  1  0  0  0  0
 17 26  1  0  0  0  0
 18 13  1  0  0  0  0
 19  1  1  0  0  0  0
 19  2  1  0  0  0  0
 20 17  1  0  0  0  0
 20  4  1  0  0  0  0
 21 10  1  0  0  0  0
 22 20  1  0  0  0  0
 23 14  1  0  0  0  0
 23 15  1  0  0  0  0
 24 27  1  0  0  0  0
 25 26  1  0  0  0  0
 25 18  1  0  0  0  0
 26 19  1  0  0  0  0
 27 12  1  0  0  0  0
 28 30  1  0  0  0  0
 30 29  1  0  0  0  0
M  END
>  <MODEL>
8

>  <REMARK>
 VINA RESULT:      -7.5      2.682      5.022
  Name = 
  2 active torsions:
  status: ('A' for Active; 'I' for Inactive)
    1  A    between atoms: C_11  and  C_28
    2  A    between atoms: C_28  and  C_30
                            x       y       z     vdW  Elec       q    Type
                         _______ _______ _______ _____ _____    ______ ____

>  <TORSDO>
F 2

$$$$
=
 OpenBabel11122410253D

 30 35  0  0  1  0  0  0  0  0999 V2000
  188.5380  177.5820  143.0090 C   0  0  1  0  0  3  0  0  0  0  0  0
  190.1610  176.8910  141.1800 C   0  0  2  0  0  3  0  0  0  0  0  0
  185.8940  177.9040  140.4150 N   0  0  0  0  0  2  0  0  0  0  0  0
  187.0700  177.8500  143.4080 C   0  0  1  0  0  3  0  0  0  0  0  0
  189.0970  176.5760  143.8210 O   0  0  0  0  0  0  0  0  0  0  0  0
  188.2400  178.1270  147.0020 O   0  0  0  0  0  1  0  0  0  0  0  0
  184.6190  179.0740  144.8670 C   0  0  1  0  0  3  0  0  0  0  0  0
  188.0140  177.4730  145.7880 C   0  0  2  0  0  3  0  0  0  0  0  0
  184.1510  178.3960  143.6040 C   0  0  1  0  0  3  0  0  0  0  0  0
  184.6570  178.0120  141.1780 C   0  0  2  0  0  3  0  0  0  0  0  0
  189.3340  177.1280  145.0970 C   0  0  2  0  0  3  0  0  0  0  0  0
  187.0470  178.2830  144.9040 C   0  0  2  0  0  3  0  0  0  0  0  0
  190.3740  176.7910  139.6720 C   0  0  0  0  0  2  0  0  0  0  0  0
  182.7030  178.7800  143.5190 C   0  0  0  0  0  2  0  0  0  0  0  0
  183.5070  179.2590  145.6990 O   0  0  0  0  0  0  0  0  0  0  0  0
  190.5030  175.6630  141.7490 O   0  0  0  0  0  1  0  0  0  0  0  0
  186.8140  178.8520  141.0330 C   0  0  1  0  0  3  0  0  0  0  0  0
  189.9950  178.0980  138.9940 C   0  0  0  0  0  2  0  0  0  0  0  0
  188.6990  177.2530  141.5220 C   0  0  2  0  0  3  0  0  0  0  0  0
  186.4450  178.9670  142.5100 C   0  0  1  0  0  3  0  0  0  0  0  0
  183.6660  178.5900  140.3840 O   0  0  0  0  0  1  0  0  0  0  0  0
  184.9240  178.8920  142.3890 C   0  0  2  0  0  3  0  0  0  0  0  0
  182.4320  179.4890  144.8280 C   0  0  0  0  0  2  0  0  0  0  0  0
  185.2220  176.8850  145.6870 O   0  0  0  0  0  1  0  0  0  0  0  0
  188.5270  178.3920  139.2550 C   0  0  0  0  0  2  0  0  0  0  0  0
  188.2750  178.5100  140.7580 C   0  0  1  0  0  3  0  0  0  0  0  0
  185.6610  178.2100  145.5620 C   0  0  2  0  0  3  0  0  0  0  0  0
  190.3470  178.2810  145.0840 C   0  0  0  0  0  2  0  0  0  0  0  0
  192.0290  178.3230  143.4190 F   0  0  0  0  0  0  0  0  0  0  0  0
  191.7080  177.7770  144.6470 C   0  0  0  0  0  2  0  0  0  0  0  0
  1  4  1  0  0  0  0
  1  5  1  1  0  0  0
  2 19  1  0  0  0  0
  2 16  1  1  0  0  0
  3 17  1  0  0  0  0
  3 10  1  0  0  0  0
  4 12  1  0  0  0  0
  5 11  1  0  0  0  0
  7 27  1  0  0  0  0
  7 15  1  0  0  0  0
  8  6  1  0  0  0  0
  9  7  1  0  0  0  0
 10 22  1  0  0  0  0
 11  8  1  0  0  0  0
 12 27  1  0  0  0  0
 12  8  1  0  0  0  0
 13  2  1  0  0  0  0
 14  9  1  0  0  0  0
 14 23  1  0  0  0  0
 17 20  1  0  0  0  0
 18 25  1  0  0  0  0
 18 13  1  0  0  0  0
 19  1  1  0  0  0  0
 20  4  1  0  0  0  0
 21 10  1  0  0  0  0
 22 20  1  0  0  0  0
 22  9  1  0  0  0  0
 23 15  1  0  0  0  0
 25 26  1  0  0  0  0
 26 17  1  0  0  0  0
 26 19  1  0  0  0  0
 27 24  1  0  0  0  0
 28 11  1  0  0  0  0
 29 30  1  0  0  0  0
 30 28  1  0  0  0  0
M  END
>  <MODEL>
9

>  <REMARK>
 VINA RESULT:      -7.4      2.075      4.620
  Name = 
  2 active torsions:
  status: ('A' for Active; 'I' for Inactive)
    1  A    between atoms: C_11  and  C_28
    2  A    between atoms: C_28  and  C_30
                            x       y       z     vdW  Elec       q    Type
                         _______ _______ _______ _____ _____    ______ ____

>  <TORSDO>
F 2

$$$$
