=
 OpenBabel11122412083D

 34 40  0  0  1  0  0  0  0  0999 V2000
  187.4200  178.2400  139.6300 C   0  0  0  0  0  0  0  0  0  0  0  0
  189.7360  177.7500  140.5620 C   0  0  0  0  0  2  0  0  0  0  0  0
  181.2810  179.5720  141.0050 C   0  0  2  0  0  3  0  0  0  0  0  0
  185.1230  178.3220  138.8820 C   0  0  0  0  0  0  0  0  0  0  0  0
  183.3240  178.0820  140.6010 C   0  0  2  0  0  3  0  0  0  0  0  0
  181.0820  177.3280  140.0820 O   0  0  0  0  0  1  0  0  0  0  0  0
  180.1420  179.6440  141.9990 C   0  0  0  0  0  1  0  0  0  0  0  0
  181.7410  179.9020  138.4690 C   0  0  0  0  0  2  0  0  0  0  0  0
  187.7880  177.5810  141.9010 N   0  0  2  0  0  0  0  0  0  0  0  0
  187.8700  177.9610  145.0930 C   0  0  0  0  0  2  0  0  0  0  0  0
  184.1590  178.8480  141.6350 C   0  0  0  0  0  2  0  0  0  0  0  0
  183.2190  179.9190  138.8200 C   0  0  0  0  0  2  0  0  0  0  0  0
  186.6320  178.3300  142.4520 C   0  0  1  0  0  3  0  0  0  0  0  0
  190.2010  177.4630  141.9730 C   0  0  0  0  0  2  0  0  0  0  0  0
  183.6600  178.4970  139.1550 C   0  0  1  0  0  3  0  0  0  0  0  0
  180.8280  180.1710  139.6660 C   0  0  0  0  0  2  0  0  0  0  0  0
  188.9440  178.3020  144.0410 C   0  0  2  0  0  3  0  0  0  0  0  0
  186.0660  178.4510  139.9140 C   0  0  0  0  0  0  0  0  0  0  0  0
  181.8290  178.1390  140.9410 C   0  0  2  0  0  3  0  0  0  0  0  0
  185.6660  178.8250  141.3290 C   0  0  1  0  0  3  0  0  0  0  0  0
  186.9270  177.8450  137.3450 C   0  0  0  0  0  3  0  0  0  0  0  0
  186.8140  176.9590  144.6200 C   0  0  0  0  0  2  0  0  0  0  0  0
  185.5610  178.0240  137.5880 C   0  0  0  0  0  3  0  0  0  0  0  0
  185.8970  177.5240  143.5350 C   0  0  0  0  0  2  0  0  0  0  0  0
  188.9260  177.3550  142.8150 C   0  0  1  0  0  3  0  0  0  0  0  0
  187.8240  177.9520  138.3630 N   0  0  0  0  0  0  0  0  0  0  0  0
  188.3630  178.3220  140.7850 C   0  0  2  0  0  3  0  0  0  0  0  0
  190.2470  178.2920  144.6870 N   0  0  0  0  0  2  0  0  0  0  0  0
  190.0330  177.8870  146.0670 C   0  0  0  0  0  2  0  0  0  0  0  0
  192.5340  175.2710  146.4100 N   0  0  0  0  0  0  0  0  0  0  0  0
  191.5200  176.6610  147.7460 C   0  0  0  0  0  3  0  0  0  0  0  0
  191.0720  176.9020  146.4670 C   0  0  0  0  0  0  0  0  0  0  0  0
  192.4180  175.6610  147.6710 N   0  0  0  0  0  2  0  0  0  0  0  0
  191.7140  176.0090  145.6390 C   0  0  0  0  0  3  0  0  0  0  0  0
  1 18  1  0  0  0  0
  1 27  1  0  0  0  0
  2 27  1  0  0  0  0
  2 14  1  0  0  0  0
  3  7  1  1  0  0  0
  4 15  1  0  0  0  0
  4 18  2  0  0  0  0
  5 19  1  0  0  0  0
  5 11  1  1  0  0  0
  6 19  1  0  0  0  0
  8 12  1  0  0  0  0
  8 16  1  0  0  0  0
  9 13  1  0  0  0  0
  9 25  1  0  0  0  0
 12 15  1  0  0  0  0
 13 24  1  0  0  0  0
 14 25  1  0  0  0  0
 15  5  1  0  0  0  0
 16  3  1  0  0  0  0
 17 28  1  0  0  0  0
 17 10  1  0  0  0  0
 18 20  1  0  0  0  0
 19  3  1  0  0  0  0
 20 11  1  0  0  0  0
 20 13  1  0  0  0  0
 21 23  2  0  0  0  0
 21 26  1  0  0  0  0
 22 10  1  0  0  0  0
 23  4  1  0  0  0  0
 24 22  1  0  0  0  0
 25 17  1  0  0  0  0
 26  1  2  0  0  0  0
 27  9  1  0  0  0  0
 28 29  1  0  0  0  0
 29 32  1  0  0  0  0
 30 33  1  0  0  0  0
 32 31  2  0  0  0  0
 33 31  1  0  0  0  0
 34 30  2  0  0  0  0
 34 32  1  0  0  0  0
M  END
>  <MODEL>
1

>  <REMARK>
 VINA RESULT:      -9.2      0.000      0.000
  Name = 
  3 active torsions:
  status: ('A' for Active; 'I' for Inactive)
    1  A    between atoms: C_17  and  N_28
    2  A    between atoms: N_28  and  C_29
    3  A    between atoms: C_29  and  C_32
                            x       y       z     vdW  Elec       q    Type
                         _______ _______ _______ _____ _____    ______ ____

>  <TORSDO>
F 3

$$$$
=
 OpenBabel11122412083D

 34 40  0  0  1  0  0  0  0  0999 V2000
  184.4940  178.7600  144.6950 C   0  0  0  0  0  0  0  0  0  0  0  0
  182.0250  179.2660  144.3430 C   0  0  0  0  0  2  0  0  0  0  0  0
  190.1600  177.5940  141.8890 C   0  0  2  0  0  3  0  0  0  0  0  0
  186.7410  177.8950  144.8970 C   0  0  0  0  0  0  0  0  0  0  0  0
  187.8480  177.0240  142.8320 C   0  0  2  0  0  3  0  0  0  0  0  0
  189.6650  175.4230  142.8720 O   0  0  0  0  0  1  0  0  0  0  0  0
  190.9710  177.2440  140.6600 C   0  0  0  0  0  1  0  0  0  0  0  0
  190.4670  177.9850  144.4390 C   0  0  0  0  0  2  0  0  0  0  0  0
  183.3810  178.3860  142.6100 N   0  0  2  0  0  0  0  0  0  0  0  0
  182.7200  178.8870  139.5030 C   0  0  0  0  0  2  0  0  0  0  0  0
  187.1700  178.0970  141.9710 C   0  0  0  0  0  2  0  0  0  0  0  0
  189.0790  178.6000  144.4310 C   0  0  0  0  0  2  0  0  0  0  0  0
  184.5770  178.6350  141.7680 C   0  0  1  0  0  3  0  0  0  0  0  0
  181.1710  179.2400  143.0930 C   0  0  0  0  0  2  0  0  0  0  0  0
  188.0480  177.4840  144.2890 C   0  0  1  0  0  3  0  0  0  0  0  0
  191.1090  177.9130  143.0520 C   0  0  0  0  0  2  0  0  0  0  0  0
  182.1430  179.5870  140.7490 C   0  0  2  0  0  3  0  0  0  0  0  0
  185.7150  178.4270  144.1000 C   0  0  0  0  0  0  0  0  0  0  0  0
  189.1220  176.4950  142.1590 C   0  0  2  0  0  3  0  0  0  0  0  0
  185.8910  178.6630  142.6120 C   0  0  1  0  0  3  0  0  0  0  0  0
  185.3040  178.1170  146.8280 C   0  0  0  0  0  3  0  0  0  0  0  0
  183.3730  177.5310  139.7820 C   0  0  0  0  0  2  0  0  0  0  0  0
  186.5330  177.7470  146.2720 C   0  0  0  0  0  3  0  0  0  0  0  0
  184.6620  177.6440  140.5950 C   0  0  0  0  0  2  0  0  0  0  0  0
  182.0690  178.6660  141.9930 C   0  0  1  0  0  3  0  0  0  0  0  0
  184.3130  178.6090  146.0350 N   0  0  0  0  0  0  0  0  0  0  0  0
  183.4200  179.2530  143.7810 C   0  0  2  0  0  3  0  0  0  0  0  0
  180.8300  180.1200  140.4170 N   0  0  0  0  0  2  0  0  0  0  0  0
  180.7830  180.2600  138.9710 C   0  0  0  0  0  2  0  0  0  0  0  0
  179.2490  183.5080  138.4100 N   0  0  0  0  0  0  0  0  0  0  0  0
  181.0820  182.5080  137.7910 C   0  0  0  0  0  3  0  0  0  0  0  0
  180.3900  181.6490  138.6140 C   0  0  0  0  0  0  0  0  0  0  0  0
  180.3560  183.6370  137.6940 N   0  0  0  0  0  0  0  0  0  0  0  0
  179.2320  182.2910  138.9860 C   0  0  0  0  0  2  0  0  0  0  0  0
  1 26  1  0  0  0  0
  3  7  1  6  0  0  0
  3 19  1  0  0  0  0
  3 16  1  0  0  0  0
  4 23  2  0  0  0  0
  5 11  1  6  0  0  0
  5 15  1  0  0  0  0
  9 27  1  0  0  0  0
 10 22  1  0  0  0  0
 10 17  1  0  0  0  0
 11 20  1  0  0  0  0
 12  8  1  0  0  0  0
 13  9  1  0  0  0  0
 13 20  1  0  0  0  0
 14  2  1  0  0  0  0
 15 12  1  0  0  0  0
 15  4  1  0  0  0  0
 16  8  1  0  0  0  0
 17 25  1  0  0  0  0
 18  1  2  0  0  0  0
 18  4  1  0  0  0  0
 19  5  1  0  0  0  0
 19  6  1  0  0  0  0
 20 18  1  0  0  0  0
 22 24  1  0  0  0  0
 23 21  1  0  0  0  0
 24 13  1  0  0  0  0
 25  9  1  0  0  0  0
 25 14  1  0  0  0  0
 26 21  2  0  0  0  0
 27  2  1  0  0  0  0
 27  1  1  0  0  0  0
 28 17  1  0  0  0  0
 29 28  1  0  0  0  0
 30 34  1  0  0  0  0
 31 32  2  0  0  0  0
 32 29  1  0  0  0  0
 32 34  1  0  0  0  0
 33 31  1  0  0  0  0
 33 30  2  0  0  0  0
M  END
>  <MODEL>
2

>  <REMARK>
 VINA RESULT:      -9.0      3.673      9.480
  Name = 
  3 active torsions:
  status: ('A' for Active; 'I' for Inactive)
    1  A    between atoms: C_17  and  N_28
    2  A    between atoms: N_28  and  C_29
    3  A    between atoms: C_29  and  C_32
                            x       y       z     vdW  Elec       q    Type
                         _______ _______ _______ _____ _____    ______ ____

>  <TORSDO>
F 3

$$$$
=
 OpenBabel11122412083D

 34 40  0  0  1  0  0  0  0  0999 V2000
  182.0890  178.8830  143.1330 C   0  0  0  0  0  0  0  0  0  0  0  0
  183.5930  178.9950  145.1820 C   0  0  0  0  0  2  0  0  0  0  0  0
  181.7280  177.6550  136.8320 C   0  0  2  0  0  3  0  0  0  0  0  0
  180.8610  179.1230  141.0650 C   0  0  0  0  0  0  0  0  0  0  0  0
  182.1530  179.0660  138.9260 C   0  0  2  0  0  3  0  0  0  0  0  0
  181.3570  180.0600  136.8650 O   0  0  0  0  0  1  0  0  0  0  0  0
  182.4020  177.4230  135.4970 C   0  0  0  0  0  1  0  0  0  0  0  0
  179.3510  177.9000  137.8520 C   0  0  0  0  0  2  0  0  0  0  0  0
  184.4750  178.9670  142.9830 N   0  0  2  0  0  0  0  0  0  0  0  0
  187.4180  177.8440  142.3370 C   0  0  0  0  0  2  0  0  0  0  0  0
  183.1260  178.0280  139.4980 C   0  0  0  0  0  2  0  0  0  0  0  0
  180.0010  177.7090  139.2110 C   0  0  0  0  0  2  0  0  0  0  0  0
  184.5630  178.1840  141.7260 C   0  0  1  0  0  3  0  0  0  0  0  0
  185.0980  178.9130  145.3180 C   0  0  0  0  0  2  0  0  0  0  0  0
  180.7580  178.9820  139.5760 C   0  0  1  0  0  3  0  0  0  0  0  0
  180.2190  177.4160  136.6880 C   0  0  0  0  0  2  0  0  0  0  0  0
  186.5750  177.6930  143.6180 C   0  0  2  0  0  3  0  0  0  0  0  0
  182.0110  178.6970  141.7480 C   0  0  0  0  0  0  0  0  0  0  0  0
  182.1340  179.0250  137.3920 C   0  0  2  0  0  3  0  0  0  0  0  0
  183.1700  178.0280  141.0360 C   0  0  1  0  0  3  0  0  0  0  0  0
  179.9170  179.8340  143.1740 C   0  0  0  0  0  3  0  0  0  0  0  0
  186.9840  178.9930  141.4240 C   0  0  0  0  0  2  0  0  0  0  0  0
  179.8060  179.6890  141.7870 C   0  0  0  0  0  3  0  0  0  0  0  0
  185.6230  178.7580  140.7720 C   0  0  0  0  0  2  0  0  0  0  0  0
  185.6420  178.9000  143.8860 C   0  0  1  0  0  3  0  0  0  0  0  0
  181.0490  179.4350  143.8170 N   0  0  0  0  0  0  0  0  0  0  0  0
  183.3660  178.4740  143.7890 C   0  0  2  0  0  3  0  0  0  0  0  0
  187.4730  177.4690  144.7410 N   0  0  0  0  0  2  0  0  0  0  0  0
  188.8270  177.5030  144.2150 C   0  0  0  0  0  2  0  0  0  0  0  0
  191.6590  176.9460  146.4250 N   0  0  0  0  0  0  0  0  0  0  0  0
  189.4960  177.0760  146.6450 C   0  0  0  0  0  3  0  0  0  0  0  0
  189.7990  177.2880  145.3190 C   0  0  0  0  0  0  0  0  0  0  0  0
  190.6590  176.8760  147.2920 N   0  0  0  0  0  2  0  0  0  0  0  0
  191.1660  177.1910  145.1970 C   0  0  0  0  0  3  0  0  0  0  0  0
  1 27  1  0  0  0  0
  1 26  1  0  0  0  0
  2 14  1  0  0  0  0
  3  7  1  6  0  0  0
  3 19  1  0  0  0  0
  4 18  1  0  0  0  0
  4 23  2  0  0  0  0
  5 11  1  1  0  0  0
  5 15  1  0  0  0  0
  6 19  1  0  0  0  0
  8 12  1  0  0  0  0
  9 27  1  0  0  0  0
  9 25  1  0  0  0  0
 10 17  1  0  0  0  0
 11 20  1  0  0  0  0
 12 15  1  0  0  0  0
 13  9  1  0  0  0  0
 15  4  1  0  0  0  0
 16  3  1  0  0  0  0
 16  8  1  0  0  0  0
 17 25  1  0  0  0  0
 17 28  1  0  0  0  0
 18  1  2  0  0  0  0
 19  5  1  0  0  0  0
 20 13  1  0  0  0  0
 20 18  1  0  0  0  0
 21 26  2  0  0  0  0
 22 10  1  0  0  0  0
 23 21  1  0  0  0  0
 24 22  1  0  0  0  0
 24 13  1  0  0  0  0
 25 14  1  0  0  0  0
 27  2  1  0  0  0  0
 29 28  1  0  0  0  0
 29 32  1  0  0  0  0
 30 33  1  0  0  0  0
 31 33  1  0  0  0  0
 32 31  2  0  0  0  0
 34 32  1  0  0  0  0
 34 30  2  0  0  0  0
M  END
>  <MODEL>
3

>  <REMARK>
 VINA RESULT:      -8.8      2.410      4.584
  Name = 
  3 active torsions:
  status: ('A' for Active; 'I' for Inactive)
    1  A    between atoms: C_17  and  N_28
    2  A    between atoms: N_28  and  C_29
    3  A    between atoms: C_29  and  C_32
                            x       y       z     vdW  Elec       q    Type
                         _______ _______ _______ _____ _____    ______ ____

>  <TORSDO>
F 3

$$$$
=
 OpenBabel11122412083D

 34 40  0  0  1  0  0  0  0  0999 V2000
  188.3830  177.6690  138.6080 C   0  0  0  0  0  0  0  0  0  0  0  0
  187.0980  178.5350  140.6260 C   0  0  0  0  0  2  0  0  0  0  0  0
  193.5800  174.4940  136.5460 C   0  0  2  0  0  3  0  0  0  0  0  0
  189.8760  177.1510  136.7800 C   0  0  0  0  0  0  0  0  0  0  0  0
  192.2310  176.5220  137.3370 C   0  0  2  0  0  3  0  0  0  0  0  0
  194.0720  176.7520  135.7800 O   0  0  0  0  0  1  0  0  0  0  0  0
  194.9510  173.9060  136.8050 C   0  0  0  0  0  1  0  0  0  0  0  0
  191.9030  174.8650  134.5960 C   0  0  0  0  0  2  0  0  0  0  0  0
  189.3720  177.8850  140.7760 N   0  0  2  0  0  0  0  0  0  0  0  0
  190.6720  176.8450  143.5270 C   0  0  0  0  0  2  0  0  0  0  0  0
  191.7750  175.7950  138.6080 C   0  0  0  0  0  2  0  0  0  0  0  0
  190.8580  175.1620  135.6570 C   0  0  0  0  0  2  0  0  0  0  0  0
  190.3180  176.7540  140.6100 C   0  0  1  0  0  3  0  0  0  0  0  0
  187.4780  178.6170  142.0880 C   0  0  0  0  0  2  0  0  0  0  0  0
  191.1390  176.5400  136.2500 C   0  0  1  0  0  3  0  0  0  0  0  0
  193.1190  174.1070  135.1340 C   0  0  0  0  0  2  0  0  0  0  0  0
  189.1880  177.0410  143.1620 C   0  0  2  0  0  3  0  0  0  0  0  0
  189.5480  177.0510  138.1410 C   0  0  0  0  0  0  0  0  0  0  0  0
  193.5900  175.9980  136.8530 C   0  0  2  0  0  3  0  0  0  0  0  0
  190.4100  176.2820  139.1240 C   0  0  1  0  0  3  0  0  0  0  0  0
  187.8470  178.4150  136.4220 C   0  0  0  0  0  3  0  0  0  0  0  0
  191.6520  177.6110  142.6350 C   0  0  0  0  0  2  0  0  0  0  0  0
  189.0140  177.8320  135.9150 C   0  0  0  0  0  3  0  0  0  0  0  0
  191.6990  177.0780  141.2030 C   0  0  0  0  0  2  0  0  0  0  0  0
  188.9490  178.1950  142.1570 C   0  0  1  0  0  3  0  0  0  0  0  0
  187.5570  178.3270  137.7490 N   0  0  0  0  0  0  0  0  0  0  0  0
  188.1280  177.5870  140.0770 C   0  0  2  0  0  3  0  0  0  0  0  0
  188.4310  177.2510  144.3870 N   0  0  0  0  0  2  0  0  0  0  0  0
  189.3560  177.0660  145.4930 C   0  0  0  0  0  2  0  0  0  0  0  0
  187.2400  178.2160  148.2160 N   0  0  0  0  0  0  0  0  0  0  0  0
  189.3440  177.7110  147.9660 C   0  0  0  0  0  3  0  0  0  0  0  0
  188.7130  177.5000  146.7620 C   0  0  0  0  0  0  0  0  0  0  0  0
  188.4100  178.1450  148.8330 N   0  0  0  0  0  2  0  0  0  0  0  0
  187.3900  177.8330  146.9340 C   0  0  0  0  0  3  0  0  0  0  0  0
  1 27  1  0  0  0  0
  2 14  1  0  0  0  0
  3  7  1  6  0  0  0
  3 19  1  0  0  0  0
  4 18  2  0  0  0  0
  5 11  1  1  0  0  0
  6 19  1  0  0  0  0
  8 16  1  0  0  0  0
  8 12  1  0  0  0  0
  9 25  1  0  0  0  0
 11 20  1  0  0  0  0
 12 15  1  0  0  0  0
 13  9  1  0  0  0  0
 13 24  1  0  0  0  0
 14 25  1  0  0  0  0
 15  4  1  0  0  0  0
 15  5  1  0  0  0  0
 16  3  1  0  0  0  0
 17 10  1  0  0  0  0
 17 28  1  0  0  0  0
 18  1  1  0  0  0  0
 18 20  1  0  0  0  0
 19  5  1  0  0  0  0
 20 13  1  0  0  0  0
 21 26  1  0  0  0  0
 22 10  1  0  0  0  0
 23 21  2  0  0  0  0
 23  4  1  0  0  0  0
 24 22  1  0  0  0  0
 25 17  1  0  0  0  0
 26  1  2  0  0  0  0
 27  2  1  0  0  0  0
 27  9  1  0  0  0  0
 28 29  1  0  0  0  0
 29 32  1  0  0  0  0
 30 33  1  0  0  0  0
 31 33  1  0  0  0  0
 32 34  1  0  0  0  0
 32 31  2  0  0  0  0
 34 30  2  0  0  0  0
M  END
>  <MODEL>
4

>  <REMARK>
 VINA RESULT:      -8.6      4.189      7.338
  Name = 
  3 active torsions:
  status: ('A' for Active; 'I' for Inactive)
    1  A    between atoms: C_17  and  N_28
    2  A    between atoms: N_28  and  C_29
    3  A    between atoms: C_29  and  C_32
                            x       y       z     vdW  Elec       q    Type
                         _______ _______ _______ _____ _____    ______ ____

>  <TORSDO>
F 3

$$$$
=
 OpenBabel11122412083D

 34 40  0  0  1  0  0  0  0  0999 V2000
  188.3770  177.2760  137.3760 C   0  0  0  0  0  0  0  0  0  0  0  0
  186.5390  178.3570  138.7650 C   0  0  0  0  0  2  0  0  0  0  0  0
  194.0060  174.1700  137.4580 C   0  0  2  0  0  3  0  0  0  0  0  0
  190.3510  176.5800  136.1690 C   0  0  0  0  0  0  0  0  0  0  0  0
  192.4480  176.2020  137.4760 C   0  0  2  0  0  3  0  0  0  0  0  0
  194.6610  176.3090  136.4980 O   0  0  0  0  0  1  0  0  0  0  0  0
  195.2500  173.7220  138.1950 C   0  0  0  0  0  1  0  0  0  0  0  0
  192.9710  174.1220  135.0750 C   0  0  0  0  0  2  0  0  0  0  0  0
  188.6790  177.8900  139.6690 N   0  0  2  0  0  0  0  0  0  0  0  0
  189.1310  177.3770  142.8110 C   0  0  0  0  0  2  0  0  0  0  0  0
  191.6510  175.6520  138.6660 C   0  0  0  0  0  2  0  0  0  0  0  0
  191.6550  174.5100  135.7250 C   0  0  0  0  0  2  0  0  0  0  0  0
  189.6520  176.8130  139.9740 C   0  0  1  0  0  3  0  0  0  0  0  0
  186.4700  178.6890  140.2390 C   0  0  0  0  0  2  0  0  0  0  0  0
  191.7240  175.9790  136.1340 C   0  0  1  0  0  3  0  0  0  0  0  0
  193.9880  173.5390  136.0590 C   0  0  0  0  0  2  0  0  0  0  0  0
  187.8160  177.4160  142.0080 C   0  0  2  0  0  3  0  0  0  0  0  0
  189.6380  176.6710  137.3740 C   0  0  0  0  0  0  0  0  0  0  0  0
  193.8980  175.7010  137.4990 C   0  0  2  0  0  3  0  0  0  0  0  0
  190.1860  176.1230  138.6780 C   0  0  1  0  0  3  0  0  0  0  0  0
  188.4940  177.6360  135.0360 C   0  0  0  0  0  3  0  0  0  0  0  0
  190.3150  178.0590  142.1230 C   0  0  0  0  0  2  0  0  0  0  0  0
  189.7690  177.0600  134.9910 C   0  0  0  0  0  3  0  0  0  0  0  0
  190.7920  177.3150  140.8760 C   0  0  0  0  0  2  0  0  0  0  0  0
  187.8630  178.3820  140.7970 C   0  0  1  0  0  3  0  0  0  0  0  0
  187.8280  177.7360  136.2190 N   0  0  0  0  0  0  0  0  0  0  0  0
  187.7020  177.4060  138.7020 C   0  0  2  0  0  3  0  0  0  0  0  0
  186.7290  177.7640  142.9100 N   0  0  0  0  0  2  0  0  0  0  0  0
  187.2280  177.5840  144.2630 C   0  0  0  0  0  2  0  0  0  0  0  0
  185.2150  178.6170  147.1090 N   0  0  0  0  0  0  0  0  0  0  0  0
  184.9730  178.5770  144.9440 C   0  0  0  0  0  3  0  0  0  0  0  0
  186.2300  178.1000  145.2380 C   0  0  0  0  0  0  0  0  0  0  0  0
  184.3830  178.8890  146.1130 N   0  0  0  0  0  0  0  0  0  0  0  0
  186.3620  178.1220  146.6070 C   0  0  0  0  0  2  0  0  0  0  0  0
  1 27  1  0  0  0  0
  2 14  1  0  0  0  0
  3 19  1  0  0  0  0
  3  7  1  6  0  0  0
  4 18  2  0  0  0  0
  5 19  1  0  0  0  0
  5 11  1  1  0  0  0
  6 19  1  0  0  0  0
  8 12  1  0  0  0  0
  8 16  1  0  0  0  0
  9 13  1  0  0  0  0
  9 25  1  0  0  0  0
 11 20  1  0  0  0  0
 12 15  1  0  0  0  0
 13 24  1  0  0  0  0
 14 25  1  0  0  0  0
 15  4  1  0  0  0  0
 15  5  1  0  0  0  0
 16  3  1  0  0  0  0
 17 10  1  0  0  0  0
 17 28  1  0  0  0  0
 18  1  1  0  0  0  0
 18 20  1  0  0  0  0
 20 13  1  0  0  0  0
 21 26  1  0  0  0  0
 22 10  1  0  0  0  0
 23 21  2  0  0  0  0
 23  4  1  0  0  0  0
 24 22  1  0  0  0  0
 25 17  1  0  0  0  0
 26  1  2  0  0  0  0
 27  2  1  0  0  0  0
 27  9  1  0  0  0  0
 28 29  1  0  0  0  0
 29 32  1  0  0  0  0
 31 32  2  0  0  0  0
 31 33  1  0  0  0  0
 32 34  1  0  0  0  0
 33 30  2  0  0  0  0
 34 30  1  0  0  0  0
M  END
>  <MODEL>
5

>  <REMARK>
 VINA RESULT:      -8.4      4.444      7.975
  Name = 
  3 active torsions:
  status: ('A' for Active; 'I' for Inactive)
    1  A    between atoms: C_17  and  N_28
    2  A    between atoms: N_28  and  C_29
    3  A    between atoms: C_29  and  C_32
                            x       y       z     vdW  Elec       q    Type
                         _______ _______ _______ _____ _____    ______ ____

>  <TORSDO>
F 3

$$$$
=
 OpenBabel11122412083D

 34 40  0  0  1  0  0  0  0  0999 V2000
  187.0140  178.2340  140.0110 C   0  0  0  0  0  0  0  0  0  0  0  0
  184.7900  178.8200  138.9220 C   0  0  0  0  0  2  0  0  0  0  0  0
  190.0680  176.8070  145.4870 C   0  0  2  0  0  3  0  0  0  0  0  0
  189.1080  178.0630  141.2050 C   0  0  0  0  0  0  0  0  0  0  0  0
  189.0610  178.3300  143.6900 C   0  0  2  0  0  3  0  0  0  0  0  0
  190.9890  179.0050  144.9920 O   0  0  0  0  0  1  0  0  0  0  0  0
  190.0970  176.7480  146.9990 C   0  0  0  0  0  1  0  0  0  0  0  0
  191.6140  176.3830  143.4420 C   0  0  0  0  0  2  0  0  0  0  0  0
  185.1220  178.9960  141.2620 N   0  0  2  0  0  0  0  0  0  0  0  0
  182.6930  178.7510  143.3540 C   0  0  0  0  0  2  0  0  0  0  0  0
  187.7000  177.6280  143.7770 C   0  0  0  0  0  2  0  0  0  0  0  0
  190.3590  176.4180  142.5870 C   0  0  0  0  0  2  0  0  0  0  0  0
  185.4570  178.2420  142.4940 C   0  0  1  0  0  3  0  0  0  0  0  0
  183.4490  179.1770  139.5250 C   0  0  0  0  0  2  0  0  0  0  0  0
  189.8830  177.8640  142.4730 C   0  0  1  0  0  3  0  0  0  0  0  0
  191.3320  176.1420  144.9260 C   0  0  0  0  0  2  0  0  0  0  0  0
  182.7300  178.3940  141.8560 C   0  0  2  0  0  3  0  0  0  0  0  0
  187.7060  178.0010  141.2050 C   0  0  0  0  0  0  0  0  0  0  0  0
  189.8140  178.2490  145.0250 C   0  0  2  0  0  3  0  0  0  0  0  0
  186.9130  177.6760  142.4560 C   0  0  1  0  0  3  0  0  0  0  0  0
  189.0510  178.5210  138.8320 C   0  0  0  0  0  3  0  0  0  0  0  0
  183.8000  179.7050  143.8070 C   0  0  0  0  0  2  0  0  0  0  0  0
  189.7830  178.3190  140.0070 C   0  0  0  0  0  3  0  0  0  0  0  0
  185.1910  179.0740  143.7590 C   0  0  0  0  0  2  0  0  0  0  0  0
  183.6920  179.2870  141.0340 C   0  0  1  0  0  3  0  0  0  0  0  0
  187.6900  178.4800  138.8560 N   0  0  0  0  0  0  0  0  0  0  0  0
  185.5230  178.2240  140.0920 C   0  0  2  0  0  3  0  0  0  0  0  0
  181.3760  178.4630  141.3270 N   0  0  0  0  0  2  0  0  0  0  0  0
  180.7460  179.6270  141.9270 C   0  0  0  0  0  2  0  0  0  0  0  0
  179.4200  181.1940  138.9270 N   0  0  0  0  0  0  0  0  0  0  0  0
  179.3140  181.5630  141.0710 C   0  0  0  0  0  3  0  0  0  0  0  0
  180.0670  180.4280  140.8750 C   0  0  0  0  0  0  0  0  0  0  0  0
  178.9310  182.0010  139.8570 N   0  0  0  0  0  2  0  0  0  0  0  0
  180.1330  180.2160  139.5170 C   0  0  0  0  0  3  0  0  0  0  0  0
  1 27  1  0  0  0  0
  1 18  1  0  0  0  0
  2 14  1  0  0  0  0
  2 27  1  0  0  0  0
  3  7  1  1  0  0  0
  4 18  2  0  0  0  0
  4 15  1  0  0  0  0
  5 11  1  1  0  0  0
  5 19  1  0  0  0  0
  6 19  1  0  0  0  0
  8 16  1  0  0  0  0
  9 13  1  0  0  0  0
 10 22  1  0  0  0  0
 12  8  1  0  0  0  0
 13 24  1  0  0  0  0
 14 25  1  0  0  0  0
 15 12  1  0  0  0  0
 15  5  1  0  0  0  0
 16  3  1  0  0  0  0
 17 10  1  0  0  0  0
 18 20  1  0  0  0  0
 19  3  1  0  0  0  0
 20 13  1  0  0  0  0
 20 11  1  0  0  0  0
 21 26  1  0  0  0  0
 21 23  2  0  0  0  0
 23  4  1  0  0  0  0
 24 22  1  0  0  0  0
 25  9  1  0  0  0  0
 25 17  1  0  0  0  0
 26  1  2  0  0  0  0
 27  9  1  0  0  0  0
 28 17  1  0  0  0  0
 28 29  1  0  0  0  0
 30 34  2  0  0  0  0
 30 33  1  0  0  0  0
 32 31  2  0  0  0  0
 32 29  1  0  0  0  0
 33 31  1  0  0  0  0
 34 32  1  0  0  0  0
M  END
>  <MODEL>
6

>  <REMARK>
 VINA RESULT:      -8.4      3.472      8.622
  Name = 
  3 active torsions:
  status: ('A' for Active; 'I' for Inactive)
    1  A    between atoms: C_17  and  N_28
    2  A    between atoms: N_28  and  C_29
    3  A    between atoms: C_29  and  C_32
                            x       y       z     vdW  Elec       q    Type
                         _______ _______ _______ _____ _____    ______ ____

>  <TORSDO>
F 3

$$$$
=
 OpenBabel11122412083D

 34 40  0  0  1  0  0  0  0  0999 V2000
  186.9530  178.2520  139.9410 C   0  0  0  0  0  0  0  0  0  0  0  0
  184.7260  178.8930  138.8890 C   0  0  0  0  0  2  0  0  0  0  0  0
  190.0720  176.7960  145.3710 C   0  0  2  0  0  3  0  0  0  0  0  0
  189.0640  178.0320  141.0950 C   0  0  0  0  0  0  0  0  0  0  0  0
  189.0760  178.3280  143.5770 C   0  0  2  0  0  3  0  0  0  0  0  0
  191.0500  178.9590  144.8310 O   0  0  0  0  0  1  0  0  0  0  0  0
  190.1310  176.7530  146.8830 C   0  0  0  0  0  1  0  0  0  0  0  0
  191.5630  176.3020  143.3010 C   0  0  0  0  0  2  0  0  0  0  0  0
  185.1100  179.0860  141.2190 N   0  0  2  0  0  0  0  0  0  0  0  0
  182.7180  178.9380  143.3630 C   0  0  0  0  0  2  0  0  0  0  0  0
  187.6960  177.6690  143.6990 C   0  0  0  0  0  2  0  0  0  0  0  0
  190.2930  176.3650  142.4710 C   0  0  0  0  0  2  0  0  0  0  0  0
  185.4470  178.3360  142.4540 C   0  0  1  0  0  3  0  0  0  0  0  0
  183.4090  179.2980  139.5150 C   0  0  0  0  0  2  0  0  0  0  0  0
  189.8590  177.8230  142.3490 C   0  0  1  0  0  3  0  0  0  0  0  0
  191.3050  176.0860  144.7930 C   0  0  0  0  0  2  0  0  0  0  0  0
  182.7130  178.5630  141.8680 C   0  0  2  0  0  3  0  0  0  0  0  0
  187.6610  178.0120  141.1230 C   0  0  0  0  0  0  0  0  0  0  0  0
  189.8530  178.2390  144.8970 C   0  0  2  0  0  3  0  0  0  0  0  0
  186.8840  177.7260  142.3940 C   0  0  1  0  0  3  0  0  0  0  0  0
  188.9730  178.4650  138.7180 C   0  0  0  0  0  3  0  0  0  0  0  0
  183.8620  179.8640  143.7820 C   0  0  0  0  0  2  0  0  0  0  0  0
  189.7220  178.2530  139.8810 C   0  0  0  0  0  3  0  0  0  0  0  0
  185.2320  179.1900  143.7140 C   0  0  0  0  0  2  0  0  0  0  0  0
  183.6850  179.4180  141.0170 C   0  0  1  0  0  3  0  0  0  0  0  0
  187.6130  178.4640  138.7690 N   0  0  0  0  0  0  0  0  0  0  0  0
  185.4640  178.2890  140.0520 C   0  0  2  0  0  3  0  0  0  0  0  0
  181.3520  178.6680  141.3660 N   0  0  0  0  0  2  0  0  0  0  0  0
  180.8240  177.3150  141.2880 C   0  0  0  0  0  2  0  0  0  0  0  0
  181.7670  175.7490  138.1450 N   0  0  0  0  0  0  0  0  0  0  0  0
  180.2390  177.1540  138.8050 C   0  0  0  0  0  3  0  0  0  0  0  0
  180.9840  176.7940  139.9040 C   0  0  0  0  0  0  0  0  0  0  0  0
  180.7440  176.4910  137.7480 N   0  0  0  0  0  0  0  0  0  0  0  0
  181.9500  175.9170  139.4690 C   0  0  0  0  0  2  0  0  0  0  0  0
  1 27  1  0  0  0  0
  1 18  1  0  0  0  0
  2 14  1  0  0  0  0
  2 27  1  0  0  0  0
  3  7  1  1  0  0  0
  4 18  2  0  0  0  0
  4 15  1  0  0  0  0
  5 11  1  1  0  0  0
  5 19  1  0  0  0  0
  6 19  1  0  0  0  0
  8 16  1  0  0  0  0
  9 13  1  0  0  0  0
 10 22  1  0  0  0  0
 12  8  1  0  0  0  0
 13 24  1  0  0  0  0
 14 25  1  0  0  0  0
 15 12  1  0  0  0  0
 15  5  1  0  0  0  0
 16  3  1  0  0  0  0
 17 10  1  0  0  0  0
 18 20  1  0  0  0  0
 19  3  1  0  0  0  0
 20 13  1  0  0  0  0
 20 11  1  0  0  0  0
 21 26  1  0  0  0  0
 21 23  2  0  0  0  0
 23  4  1  0  0  0  0
 24 22  1  0  0  0  0
 25  9  1  0  0  0  0
 25 17  1  0  0  0  0
 26  1  2  0  0  0  0
 27  9  1  0  0  0  0
 28 17  1  0  0  0  0
 29 28  1  0  0  0  0
 30 34  1  0  0  0  0
 31 32  2  0  0  0  0
 32 29  1  0  0  0  0
 33 30  2  0  0  0  0
 33 31  1  0  0  0  0
 34 32  1  0  0  0  0
M  END
>  <MODEL>
7

>  <REMARK>
 VINA RESULT:      -8.2      3.558      8.241
  Name = 
  3 active torsions:
  status: ('A' for Active; 'I' for Inactive)
    1  A    between atoms: C_17  and  N_28
    2  A    between atoms: N_28  and  C_29
    3  A    between atoms: C_29  and  C_32
                            x       y       z     vdW  Elec       q    Type
                         _______ _______ _______ _____ _____    ______ ____

>  <TORSDO>
F 3

$$$$
=
 OpenBabel11122412083D

 34 40  0  0  1  0  0  0  0  0999 V2000
  185.6610  178.7690  142.8460 C   0  0  0  0  0  0  0  0  0  0  0  0
  185.3170  178.9630  140.3320 C   0  0  0  0  0  2  0  0  0  0  0  0
  189.8520  177.6560  147.5940 C   0  0  2  0  0  3  0  0  0  0  0  0
  186.0260  178.1750  145.1600 C   0  0  0  0  0  0  0  0  0  0  0  0
  188.1790  177.0500  145.7520 C   0  0  2  0  0  3  0  0  0  0  0  0
  188.4580  175.6640  147.7180 O   0  0  0  0  0  1  0  0  0  0  0  0
  191.2040  177.1670  148.0660 C   0  0  0  0  0  1  0  0  0  0  0  0
  187.6010  178.5350  148.5500 C   0  0  0  0  0  2  0  0  0  0  0  0
  187.2320  177.9150  141.2560 N   0  0  2  0  0  0  0  0  0  0  0  0
  190.0300  177.7740  139.6770 C   0  0  0  0  0  2  0  0  0  0  0  0
  188.9400  177.8780  144.7090 C   0  0  0  0  0  2  0  0  0  0  0  0
  187.2770  179.0030  147.1420 C   0  0  0  0  0  2  0  0  0  0  0  0
  188.4240  178.1190  142.1150 C   0  0  1  0  0  3  0  0  0  0  0  0
  186.2310  178.6280  139.1740 C   0  0  0  0  0  2  0  0  0  0  0  0
  186.9350  177.7860  146.2870 C   0  0  1  0  0  3  0  0  0  0  0  0
  189.0920  178.2720  148.7760 C   0  0  0  0  0  2  0  0  0  0  0  0
  188.7840  178.6310  139.3800 C   0  0  2  0  0  3  0  0  0  0  0  0
  186.5430  178.4500  143.8840 C   0  0  0  0  0  0  0  0  0  0  0  0
  189.1210  176.5320  146.8460 C   0  0  2  0  0  3  0  0  0  0  0  0
  188.0320  178.4270  143.5960 C   0  0  1  0  0  3  0  0  0  0  0  0
  183.8040  178.6070  144.3110 C   0  0  0  0  0  3  0  0  0  0  0  0
  189.7660  176.5610  140.5720 C   0  0  0  0  0  2  0  0  0  0  0  0
  184.6470  178.2610  145.3730 C   0  0  0  0  0  3  0  0  0  0  0  0
  189.4080  176.9430  142.0080 C   0  0  0  0  0  2  0  0  0  0  0  0
  187.4550  177.9510  139.7960 C   0  0  1  0  0  3  0  0  0  0  0  0
  184.3220  178.8490  143.0760 N   0  0  0  0  0  0  0  0  0  0  0  0
  186.2670  178.9810  141.4980 C   0  0  2  0  0  3  0  0  0  0  0  0
  188.7760  178.9660  137.9650 N   0  0  0  0  0  2  0  0  0  0  0  0
  189.4300  177.8720  137.2670 C   0  0  0  0  0  2  0  0  0  0  0  0
  186.8370  176.5740  135.0750 N   0  0  0  0  0  0  0  0  0  0  0  0
  188.0520  175.7940  136.7060 C   0  0  0  0  0  3  0  0  0  0  0  0
  188.4250  177.1010  136.4890 C   0  0  0  0  0  0  0  0  0  0  0  0
  187.0820  175.5050  135.8180 N   0  0  0  0  0  2  0  0  0  0  0  0
  187.6410  177.5800  135.4650 C   0  0  0  0  0  3  0  0  0  0  0  0
  1 26  2  0  0  0  0
  1 18  1  0  0  0  0
  2 27  1  0  0  0  0
  3  7  1  1  0  0  0
  3 16  1  0  0  0  0
  4 23  1  0  0  0  0
  4 15  1  0  0  0  0
  5 11  1  6  0  0  0
  5 15  1  0  0  0  0
  5 19  1  0  0  0  0
  8 16  1  0  0  0  0
  9 27  1  0  0  0  0
  9 13  1  0  0  0  0
 10 22  1  0  0  0  0
 12  8  1  0  0  0  0
 13 20  1  0  0  0  0
 14 25  1  0  0  0  0
 14  2  1  0  0  0  0
 15 12  1  0  0  0  0
 17 10  1  0  0  0  0
 17 25  1  0  0  0  0
 18  4  2  0  0  0  0
 19  3  1  0  0  0  0
 19  6  1  0  0  0  0
 20 18  1  0  0  0  0
 20 11  1  0  0  0  0
 21 23  2  0  0  0  0
 22 24  1  0  0  0  0
 24 13  1  0  0  0  0
 25  9  1  0  0  0  0
 26 21  1  0  0  0  0
 27  1  1  0  0  0  0
 28 17  1  0  0  0  0
 29 28  1  0  0  0  0
 30 34  2  0  0  0  0
 30 33  1  0  0  0  0
 32 31  2  0  0  0  0
 32 29  1  0  0  0  0
 33 31  1  0  0  0  0
 34 32  1  0  0  0  0
M  END
>  <MODEL>
8

>  <REMARK>
 VINA RESULT:      -8.0      3.504      8.114
  Name = 
  3 active torsions:
  status: ('A' for Active; 'I' for Inactive)
    1  A    between atoms: C_17  and  N_28
    2  A    between atoms: N_28  and  C_29
    3  A    between atoms: C_29  and  C_32
                            x       y       z     vdW  Elec       q    Type
                         _______ _______ _______ _____ _____    ______ ____

>  <TORSDO>
F 3

$$$$
=
 OpenBabel11122412083D

 34 40  0  0  1  0  0  0  0  0999 V2000
  184.8640  178.5370  144.0780 C   0  0  0  0  0  0  0  0  0  0  0  0
  182.4590  179.0190  143.3990 C   0  0  0  0  0  2  0  0  0  0  0  0
  190.9190  177.7200  142.0760 C   0  0  2  0  0  3  0  0  0  0  0  0
  187.0830  177.7060  144.5490 C   0  0  0  0  0  0  0  0  0  0  0  0
  188.5130  177.0280  142.6140 C   0  0  2  0  0  3  0  0  0  0  0  0
  190.3550  175.4670  142.8030 O   0  0  0  0  0  1  0  0  0  0  0  0
  191.9150  177.4890  140.9600 C   0  0  0  0  0  1  0  0  0  0  0  0
  190.8310  177.9100  144.6660 C   0  0  0  0  0  2  0  0  0  0  0  0
  184.0860  178.3110  141.8270 N   0  0  2  0  0  0  0  0  0  0  0  0
  183.8770  179.0480  138.7040 C   0  0  0  0  0  2  0  0  0  0  0  0
  187.9350  178.1530  141.7460 C   0  0  0  0  0  2  0  0  0  0  0  0
  189.4400  178.4950  144.4970 C   0  0  0  0  0  2  0  0  0  0  0  0
  185.3840  178.6510  141.1960 C   0  0  1  0  0  3  0  0  0  0  0  0
  181.8020  179.0760  142.0370 C   0  0  0  0  0  2  0  0  0  0  0  0
  188.4790  177.3730  144.1160 C   0  0  1  0  0  3  0  0  0  0  0  0
  191.6740  177.9640  143.3900 C   0  0  0  0  0  2  0  0  0  0  0  0
  183.0990  179.6320  139.8990 C   0  0  2  0  0  3  0  0  0  0  0  0
  186.1700  178.2790  143.6500 C   0  0  0  0  0  0  0  0  0  0  0  0
  189.8890  176.5830  142.1020 C   0  0  2  0  0  3  0  0  0  0  0  0
  186.5570  178.6390  142.2280 C   0  0  1  0  0  3  0  0  0  0  0  0
  185.3690  177.7410  146.2530 C   0  0  0  0  0  3  0  0  0  0  0  0
  184.5250  177.6870  138.9730 C   0  0  0  0  0  2  0  0  0  0  0  0
  186.6790  177.4430  145.8620 C   0  0  0  0  0  3  0  0  0  0  0  0
  185.6750  177.7610  139.9770 C   0  0  0  0  0  2  0  0  0  0  0  0
  182.8710  178.6120  141.0430 C   0  0  1  0  0  3  0  0  0  0  0  0
  184.4910  178.2750  145.3610 N   0  0  0  0  0  0  0  0  0  0  0  0
  183.9220  179.0800  143.0540 C   0  0  2  0  0  3  0  0  0  0  0  0
  181.8330  180.1630  139.4150 N   0  0  0  0  0  2  0  0  0  0  0  0
  181.6340  179.6290  138.0780 C   0  0  0  0  0  2  0  0  0  0  0  0
  179.6590  176.6100  137.6290 N   0  0  0  0  0  0  0  0  0  0  0  0
  179.7210  178.2490  139.0620 C   0  0  0  0  0  3  0  0  0  0  0  0
  180.7170  178.4600  138.1360 C   0  0  0  0  0  0  0  0  0  0  0  0
  179.0980  177.1050  138.7220 N   0  0  0  0  0  2  0  0  0  0  0  0
  180.6570  177.4230  137.2340 C   0  0  0  0  0  3  0  0  0  0  0  0
  1 26  1  0  0  0  0
  3  7  1  6  0  0  0
  3 19  1  0  0  0  0
  3 16  1  0  0  0  0
  4 23  2  0  0  0  0
  5 11  1  6  0  0  0
  5 15  1  0  0  0  0
  9 27  1  0  0  0  0
 10 22  1  0  0  0  0
 10 17  1  0  0  0  0
 11 20  1  0  0  0  0
 12  8  1  0  0  0  0
 13  9  1  0  0  0  0
 13 20  1  0  0  0  0
 14  2  1  0  0  0  0
 15 12  1  0  0  0  0
 15  4  1  0  0  0  0
 16  8  1  0  0  0  0
 17 25  1  0  0  0  0
 18  1  2  0  0  0  0
 18  4  1  0  0  0  0
 19  5  1  0  0  0  0
 19  6  1  0  0  0  0
 20 18  1  0  0  0  0
 22 24  1  0  0  0  0
 23 21  1  0  0  0  0
 24 13  1  0  0  0  0
 25  9  1  0  0  0  0
 25 14  1  0  0  0  0
 26 21  2  0  0  0  0
 27  2  1  0  0  0  0
 27  1  1  0  0  0  0
 28 17  1  0  0  0  0
 29 32  1  0  0  0  0
 29 28  1  0  0  0  0
 30 33  1  0  0  0  0
 32 31  2  0  0  0  0
 33 31  1  0  0  0  0
 34 30  2  0  0  0  0
 34 32  1  0  0  0  0
M  END
>  <MODEL>
9

>  <REMARK>
 VINA RESULT:      -8.0      3.358      9.147
  Name = 
  3 active torsions:
  status: ('A' for Active; 'I' for Inactive)
    1  A    between atoms: C_17  and  N_28
    2  A    between atoms: N_28  and  C_29
    3  A    between atoms: C_29  and  C_32
                            x       y       z     vdW  Elec       q    Type
                         _______ _______ _______ _____ _____    ______ ____

>  <TORSDO>
F 3

$$$$
