=
 OpenBabel11122411223D

 37 43  0  0  1  0  0  0  0  0999 V2000
  188.5690  176.4990  138.6110 C   0  0  0  0  0  2  0  0  0  0  0  0
  190.0250  177.4550  143.3740 C   0  0  0  0  0  0  0  0  0  0  0  0
  186.2860  178.4430  141.8550 C   0  0  0  0  0  0  0  0  0  0  0  0
  189.3810  176.2340  137.4180 N   0  0  0  0  0  0  0  0  0  0  0  0
  185.8590  179.3320  138.2020 O   0  0  0  0  0  0  0  0  0  0  0  0
  187.5830  177.7020  143.7380 C   0  0  0  0  0  0  0  0  0  0  0  0
  186.5180  178.5760  140.5010 C   0  0  0  0  0  0  0  0  0  0  0  0
  187.3240  176.7350  135.9390 C   0  0  2  0  0  3  0  0  0  0  0  0
  187.4670  178.0890  142.4240 C   0  0  0  0  0  0  0  0  0  0  0  0
  185.4280  178.9030  139.4850 C   0  0  2  0  0  3  0  0  0  0  0  0
  186.4200  177.6930  144.5290 C   0  0  0  0  0  3  0  0  0  0  0  0
  188.8520  176.8160  136.1650 C   0  0  0  0  0  2  0  0  0  0  0  0
  188.4430  177.9640  141.5290 N   0  0  0  0  0  0  0  0  0  0  0  0
  191.0410  176.4000  143.7550 C   0  0  0  0  0  1  0  0  0  0  0  0
  183.7770  178.5620  141.8900 C   0  0  0  0  0  2  0  0  0  0  0  0
  185.1730  178.0370  143.9450 C   0  0  0  0  0  3  0  0  0  0  0  0
  189.7260  177.3390  141.8530 C   0  0  0  0  0  2  0  0  0  0  0  0
  186.5980  178.0480  136.2610 C   0  0  0  0  0  2  0  0  0  0  0  0
  186.7670  178.3850  137.7280 C   0  0  1  0  0  3  0  0  0  0  0  0
  185.0950  178.4020  142.5800 C   0  0  0  0  0  0  0  0  0  0  0  0
  187.8800  178.2280  140.3230 C   0  0  0  0  0  0  0  0  0  0  0  0
  188.8420  177.2840  144.1860 O   0  0  0  0  0  0  0  0  0  0  0  0
  184.2590  177.8940  139.4320 C   0  0  1  0  0  3  0  0  0  0  0  0
  190.6260  178.8200  143.6530 C   0  0  0  0  0  1  0  0  0  0  0  0
  188.0740  178.8190  137.9910 O   0  0  0  0  0  0  0  0  0  0  0  0
  186.7350  175.6540  136.5720 F   0  0  0  0  0  0  0  0  0  0  0  0
  188.5830  177.9880  139.0070 C   0  0  2  0  0  3  0  0  0  0  0  0
  183.6440  177.5000  140.7930 C   0  0  0  0  0  2  0  0  0  0  0  0
  182.8720  177.5450  137.3830 C   0  0  0  0  0  3  0  0  0  0  0  0
  183.1870  178.3430  138.4870 C   0  0  0  0  0  0  0  0  0  0  0  0
  182.5050  179.5530  138.6880 C   0  0  0  0  0  3  0  0  0  0  0  0
  180.8420  181.1530  137.9890 O   0  0  0  0  0  1  0  0  0  0  0  0
  181.2030  179.1560  136.6860 C   0  0  0  0  0  3  0  0  0  0  0  0
  181.5140  179.9570  137.7880 C   0  0  0  0  0  0  0  0  0  0  0  0
  181.8810  177.9500  136.4820 C   0  0  0  0  0  3  0  0  0  0  0  0
  190.9180  174.3530  137.2790 C   0  0  0  0  0  1  0  0  0  0  0  0
  189.4660  174.7920  137.2450 C   0  0  0  0  0  2  0  0  0  0  0  0
  2 24  1  0  0  0  0
  2 14  1  0  0  0  0
  2 22  1  0  0  0  0
  3  9  2  0  0  0  0
  3 20  1  0  0  0  0
  4  1  1  0  0  0  0
  6 22  1  0  0  0  0
  6 11  2  0  0  0  0
  7  3  1  0  0  0  0
  8 12  1  0  0  0  0
  8 18  1  0  0  0  0
  8 26  1  1  0  0  0
  9  6  1  0  0  0  0
 10  5  1  6  0  0  0
 10  7  1  0  0  0  0
 12  4  1  0  0  0  0
 13 17  1  0  0  0  0
 13  9  1  0  0  0  0
 15 20  1  0  0  0  0
 16 11  1  0  0  0  0
 17  2  1  0  0  0  0
 19 18  1  6  0  0  0
 19 25  1  0  0  0  0
 19  5  1  0  0  0  0
 20 16  2  0  0  0  0
 21  7  2  0  0  0  0
 21 13  1  0  0  0  0
 23 30  1  6  0  0  0
 23 10  1  0  0  0  0
 23 28  1  0  0  0  0
 25 27  1  0  0  0  0
 27  1  1  6  0  0  0
 27 21  1  0  0  0  0
 28 15  1  0  0  0  0
 29 30  1  0  0  0  0
 30 31  2  0  0  0  0
 33 34  2  0  0  0  0
 34 32  1  0  0  0  0
 34 31  1  0  0  0  0
 35 33  1  0  0  0  0
 35 29  2  0  0  0  0
 37 36  1  0  0  0  0
 37  4  1  0  0  0  0
M  END
>  <MODEL>
1

>  <REMARK>
 VINA RESULT:      -9.7      0.000      0.000
  Name = 
  2 active torsions:
  status: ('A' for Active; 'I' for Inactive)
    1  A    between atoms: N_4  and  C_37
    2  A    between atoms: C_23  and  C_30
                            x       y       z     vdW  Elec       q    Type
                         _______ _______ _______ _____ _____    ______ ____

>  <TORSDO>
F 2

$$$$
=
 OpenBabel11122411223D

 37 43  0  0  1  0  0  0  0  0999 V2000
  184.5390  177.3110  138.6560 C   0  0  0  0  0  2  0  0  0  0  0  0
  188.8470  177.1560  135.9850 C   0  0  0  0  0  0  0  0  0  0  0  0
  188.6930  177.7460  140.0950 C   0  0  0  0  0  0  0  0  0  0  0  0
  183.1660  177.5670  138.2070 N   0  0  0  0  0  0  0  0  0  0  0  0
  185.7550  179.5260  141.6820 O   0  0  0  0  0  0  0  0  0  0  0  0
  189.8530  176.7840  138.2220 C   0  0  0  0  0  0  0  0  0  0  0  0
  187.4440  178.3010  140.2900 C   0  0  0  0  0  0  0  0  0  0  0  0
  182.4800  178.0340  140.6530 C   0  0  2  0  0  3  0  0  0  0  0  0
  188.8090  177.4950  138.7660 C   0  0  0  0  0  0  0  0  0  0  0  0
  186.8890  178.6730  141.6610 C   0  0  2  0  0  3  0  0  0  0  0  0
  190.8540  176.3140  139.0910 C   0  0  0  0  0  3  0  0  0  0  0  0
  182.3420  178.3590  139.1460 C   0  0  0  0  0  2  0  0  0  0  0  0
  187.7140  177.8320  138.0890 N   0  0  0  0  0  0  0  0  0  0  0  0
  188.6010  176.2670  134.7850 C   0  0  0  0  0  1  0  0  0  0  0  0
  189.3730  177.3330  142.4780 C   0  0  0  0  0  2  0  0  0  0  0  0
  190.7360  176.5450  140.4860 C   0  0  0  0  0  3  0  0  0  0  0  0
  187.4930  177.4170  136.7030 C   0  0  0  0  0  2  0  0  0  0  0  0
  183.3820  179.0240  141.4010 C   0  0  0  0  0  2  0  0  0  0  0  0
  184.7910  178.9590  140.8480 C   0  0  1  0  0  3  0  0  0  0  0  0
  189.6300  177.2580  141.0060 C   0  0  0  0  0  0  0  0  0  0  0  0
  186.8380  178.3050  139.0100 C   0  0  0  0  0  0  0  0  0  0  0  0
  189.8190  176.5240  136.8470 O   0  0  0  0  0  0  0  0  0  0  0  0
  186.7920  177.5020  142.6660 C   0  0  1  0  0  3  0  0  0  0  0  0
  189.4050  178.4790  135.4940 C   0  0  0  0  0  1  0  0  0  0  0  0
  184.8560  179.5590  139.5830 O   0  0  0  0  0  0  0  0  0  0  0  0
  182.8450  176.7210  140.8970 F   0  0  0  0  0  0  0  0  0  0  0  0
  185.3870  178.5970  138.7020 C   0  0  2  0  0  3  0  0  0  0  0  0
  188.0550  176.6220  142.8020 C   0  0  0  0  0  2  0  0  0  0  0  0
  187.2500  177.9800  145.0760 C   0  0  0  0  0  3  0  0  0  0  0  0
  186.3390  177.9710  144.0140 C   0  0  0  0  0  0  0  0  0  0  0  0
  185.0160  178.3870  144.2300 C   0  0  0  0  0  3  0  0  0  0  0  0
  183.3040  179.2230  145.7100 O   0  0  0  0  0  1  0  0  0  0  0  0
  185.5260  178.8190  146.5570 C   0  0  0  0  0  3  0  0  0  0  0  0
  184.6130  178.8110  145.5000 C   0  0  0  0  0  0  0  0  0  0  0  0
  186.8440  178.4040  146.3460 C   0  0  0  0  0  3  0  0  0  0  0  0
  183.5530  175.1800  137.9430 C   0  0  0  0  0  1  0  0  0  0  0  0
  182.5130  176.2820  138.0060 C   0  0  0  0  0  2  0  0  0  0  0  0
  2 17  1  0  0  0  0
  2 22  1  0  0  0  0
  3  7  1  0  0  0  0
  3 20  1  0  0  0  0
  4  1  1  0  0  0  0
  4 12  1  0  0  0  0
  6  9  1  0  0  0  0
  6 11  2  0  0  0  0
  8 26  1  6  0  0  0
  8 18  1  0  0  0  0
  9  3  2  0  0  0  0
 10  7  1  6  0  0  0
 10  5  1  0  0  0  0
 10 23  1  0  0  0  0
 11 16  1  0  0  0  0
 12  8  1  0  0  0  0
 13  9  1  0  0  0  0
 13 21  1  0  0  0  0
 14  2  1  0  0  0  0
 15 28  1  0  0  0  0
 16 20  2  0  0  0  0
 17 13  1  0  0  0  0
 19 18  1  1  0  0  0
 19  5  1  0  0  0  0
 20 15  1  0  0  0  0
 21  7  2  0  0  0  0
 22  6  1  0  0  0  0
 23 28  1  0  0  0  0
 23 30  1  1  0  0  0
 24  2  1  0  0  0  0
 25 19  1  0  0  0  0
 27  1  1  1  0  0  0
 27 21  1  0  0  0  0
 27 25  1  0  0  0  0
 29 35  1  0  0  0  0
 30 31  1  0  0  0  0
 30 29  2  0  0  0  0
 31 34  2  0  0  0  0
 34 32  1  0  0  0  0
 34 33  1  0  0  0  0
 35 33  2  0  0  0  0
 36 37  1  0  0  0  0
 37  4  1  0  0  0  0
M  END
>  <MODEL>
2

>  <REMARK>
 VINA RESULT:      -9.6      2.314      6.370
  Name = 
  2 active torsions:
  status: ('A' for Active; 'I' for Inactive)
    1  A    between atoms: N_4  and  C_37
    2  A    between atoms: C_23  and  C_30
                            x       y       z     vdW  Elec       q    Type
                         _______ _______ _______ _____ _____    ______ ____

>  <TORSDO>
F 2

$$$$
=
 OpenBabel11122411223D

 37 43  0  0  1  0  0  0  0  0999 V2000
  184.5050  177.3370  138.7720 C   0  0  0  0  0  2  0  0  0  0  0  0
  188.8720  177.2380  136.1940 C   0  0  0  0  0  0  0  0  0  0  0  0
  188.6230  177.7860  140.3050 C   0  0  0  0  0  0  0  0  0  0  0  0
  183.1400  177.5880  138.2950 N   0  0  0  0  0  0  0  0  0  0  0  0
  185.6390  179.5290  141.8450 O   0  0  0  0  0  0  0  0  0  0  0  0
  189.8310  176.8500  138.4490 C   0  0  0  0  0  0  0  0  0  0  0  0
  187.3670  178.3300  140.4790 C   0  0  0  0  0  0  0  0  0  0  0  0
  182.3980  178.0260  140.7300 C   0  0  2  0  0  3  0  0  0  0  0  0
  188.7700  177.5490  138.9770 C   0  0  0  0  0  0  0  0  0  0  0  0
  186.7790  178.6840  141.8420 C   0  0  2  0  0  3  0  0  0  0  0  0
  190.8160  176.3780  139.3350 C   0  0  0  0  0  3  0  0  0  0  0  0
  182.2910  178.3650  139.2240 C   0  0  0  0  0  2  0  0  0  0  0  0
  187.6880  177.8850  138.2800 N   0  0  0  0  0  0  0  0  0  0  0  0
  188.6580  176.3600  134.9800 C   0  0  0  0  0  1  0  0  0  0  0  0
  189.2540  177.3530  142.6980 C   0  0  0  0  0  2  0  0  0  0  0  0
  190.6660  176.5950  140.7300 C   0  0  0  0  0  3  0  0  0  0  0  0
  187.5010  177.4820  136.8850 C   0  0  0  0  0  2  0  0  0  0  0  0
  183.2760  179.0140  141.5070 C   0  0  0  0  0  2  0  0  0  0  0  0
  184.6980  178.9640  140.9850 C   0  0  1  0  0  3  0  0  0  0  0  0
  189.5440  177.2940  141.2320 C   0  0  0  0  0  0  0  0  0  0  0  0
  186.7890  178.3430  139.1860 C   0  0  0  0  0  0  0  0  0  0  0  0
  189.8290  176.6040  137.0710 O   0  0  0  0  0  0  0  0  0  0  0  0
  186.6690  177.5030  142.8320 C   0  0  1  0  0  3  0  0  0  0  0  0
  189.4310  178.5700  135.7300 C   0  0  0  0  0  1  0  0  0  0  0  0
  184.7860  179.5780  139.7280 O   0  0  0  0  0  0  0  0  0  0  0  0
  182.7660  176.7130  140.9690 F   0  0  0  0  0  0  0  0  0  0  0  0
  185.3430  178.6280  138.8490 C   0  0  2  0  0  3  0  0  0  0  0  0
  187.9340  176.6290  142.9870 C   0  0  0  0  0  2  0  0  0  0  0  0
  184.8850  178.4640  144.2950 C   0  0  0  0  0  3  0  0  0  0  0  0
  186.1820  177.9540  144.1750 C   0  0  0  0  0  0  0  0  0  0  0  0
  187.0090  177.8850  145.3060 C   0  0  0  0  0  3  0  0  0  0  0  0
  187.3570  178.2510  147.6650 O   0  0  0  0  0  1  0  0  0  0  0  0
  185.2410  178.8300  146.6630 C   0  0  0  0  0  3  0  0  0  0  0  0
  186.5370  178.3220  146.5470 C   0  0  0  0  0  0  0  0  0  0  0  0
  184.4150  178.9020  145.5370 C   0  0  0  0  0  3  0  0  0  0  0  0
  183.5530  175.2130  137.9680 C   0  0  0  0  0  1  0  0  0  0  0  0
  182.5010  176.3010  138.0670 C   0  0  0  0  0  2  0  0  0  0  0  0
  2 17  1  0  0  0  0
  2 22  1  0  0  0  0
  3  7  1  0  0  0  0
  3 20  1  0  0  0  0
  4  1  1  0  0  0  0
  4 12  1  0  0  0  0
  6  9  1  0  0  0  0
  6 11  2  0  0  0  0
  8 26  1  6  0  0  0
  8 18  1  0  0  0  0
  9  3  2  0  0  0  0
 10  7  1  6  0  0  0
 10  5  1  0  0  0  0
 10 23  1  0  0  0  0
 11 16  1  0  0  0  0
 12  8  1  0  0  0  0
 13  9  1  0  0  0  0
 13 21  1  0  0  0  0
 14  2  1  0  0  0  0
 15 28  1  0  0  0  0
 16 20  2  0  0  0  0
 17 13  1  0  0  0  0
 19 18  1  1  0  0  0
 19  5  1  0  0  0  0
 20 15  1  0  0  0  0
 21  7  2  0  0  0  0
 22  6  1  0  0  0  0
 23 28  1  0  0  0  0
 23 30  1  1  0  0  0
 24  2  1  0  0  0  0
 25 19  1  0  0  0  0
 27  1  1  1  0  0  0
 27 21  1  0  0  0  0
 27 25  1  0  0  0  0
 29 35  1  0  0  0  0
 30 29  2  0  0  0  0
 30 31  1  0  0  0  0
 31 34  2  0  0  0  0
 34 33  1  0  0  0  0
 34 32  1  0  0  0  0
 35 33  2  0  0  0  0
 36 37  1  0  0  0  0
 37  4  1  0  0  0  0
M  END
>  <MODEL>
3

>  <REMARK>
 VINA RESULT:      -9.5      2.202      6.495
  Name = 
  2 active torsions:
  status: ('A' for Active; 'I' for Inactive)
    1  A    between atoms: N_4  and  C_37
    2  A    between atoms: C_23  and  C_30
                            x       y       z     vdW  Elec       q    Type
                         _______ _______ _______ _____ _____    ______ ____

>  <TORSDO>
F 2

$$$$
=
 OpenBabel11122411223D

 37 43  0  0  1  0  0  0  0  0999 V2000
  187.8540  177.4840  141.4720 C   0  0  0  0  0  2  0  0  0  0  0  0
  183.3130  178.7920  139.6310 C   0  0  0  0  0  0  0  0  0  0  0  0
  186.4110  177.2950  137.3010 C   0  0  0  0  0  0  0  0  0  0  0  0
  188.5090  177.8830  142.7230 N   0  0  0  0  0  0  0  0  0  0  0  0
  190.0180  177.9780  138.2140 O   0  0  0  0  0  0  0  0  0  0  0  0
  184.0440  177.4070  137.7060 C   0  0  0  0  0  0  0  0  0  0  0  0
  187.5410  177.6440  138.0130 C   0  0  0  0  0  0  0  0  0  0  0  0
  190.7680  177.0740  141.7680 C   0  0  2  0  0  3  0  0  0  0  0  0
  185.3430  177.7290  138.0190 C   0  0  0  0  0  0  0  0  0  0  0  0
  188.9580  177.2810  137.5790 C   0  0  2  0  0  3  0  0  0  0  0  0
  183.8170  176.6050  136.5730 C   0  0  0  0  0  3  0  0  0  0  0  0
  189.9700  178.0890  142.6210 C   0  0  0  0  0  2  0  0  0  0  0  0
  185.7040  178.3180  139.1570 N   0  0  0  0  0  0  0  0  0  0  0  0
  182.3030  178.5950  140.7410 C   0  0  0  0  0  1  0  0  0  0  0  0
  187.4260  175.7940  135.5620 C   0  0  0  0  0  2  0  0  0  0  0  0
  184.9220  176.1230  135.8240 C   0  0  0  0  0  3  0  0  0  0  0  0
  184.7430  178.6250  140.2170 C   0  0  0  0  0  2  0  0  0  0  0  0
  191.1060  177.6010  140.3680 C   0  0  0  0  0  2  0  0  0  0  0  0
  189.8310  177.8600  139.5910 C   0  0  1  0  0  3  0  0  0  0  0  0
  186.2450  176.4550  136.1990 C   0  0  0  0  0  0  0  0  0  0  0  0
  187.0580  178.2530  139.1970 C   0  0  0  0  0  0  0  0  0  0  0  0
  183.0360  177.8510  138.5700 O   0  0  0  0  0  0  0  0  0  0  0  0
  189.2260  175.7660  137.4270 C   0  0  1  0  0  3  0  0  0  0  0  0
  183.1640  180.2030  139.0930 C   0  0  0  0  0  1  0  0  0  0  0  0
  189.1780  179.0030  140.0740 O   0  0  0  0  0  0  0  0  0  0  0  0
  190.1810  175.8220  141.7180 F   0  0  0  0  0  0  0  0  0  0  0  0
  187.8710  178.6110  140.4200 C   0  0  2  0  0  3  0  0  0  0  0  0
  188.1800  174.9720  136.6130 C   0  0  0  0  0  2  0  0  0  0  0  0
  190.9160  175.8760  135.5890 C   0  0  0  0  0  3  0  0  0  0  0  0
  190.6030  175.5020  136.9000 C   0  0  0  0  0  0  0  0  0  0  0  0
  191.5760  174.8770  137.6950 C   0  0  0  0  0  3  0  0  0  0  0  0
  193.8120  174.0140  137.9680 O   0  0  0  0  0  1  0  0  0  0  0  0
  193.1590  175.0070  135.8690 C   0  0  0  0  0  3  0  0  0  0  0  0
  192.8520  174.6320  137.1790 C   0  0  0  0  0  0  0  0  0  0  0  0
  192.1920  175.6290  135.0730 C   0  0  0  0  0  3  0  0  0  0  0  0
  188.6820  177.3220  145.0840 C   0  0  0  0  0  1  0  0  0  0  0  0
  188.2660  176.8390  143.7070 C   0  0  0  0  0  2  0  0  0  0  0  0
  1  4  1  0  0  0  0
  2 17  1  0  0  0  0
  2 14  1  0  0  0  0
  3  7  1  0  0  0  0
  3  9  1  0  0  0  0
  4 37  1  0  0  0  0
  5 19  1  0  0  0  0
  6  9  2  0  0  0  0
  6 22  1  0  0  0  0
  7 21  2  0  0  0  0
  8 26  1  6  0  0  0
  8 12  1  0  0  0  0
  9 13  1  0  0  0  0
 10  7  1  1  0  0  0
 10  5  1  0  0  0  0
 11  6  1  0  0  0  0
 12  4  1  0  0  0  0
 13 21  1  0  0  0  0
 13 17  1  0  0  0  0
 15 20  1  0  0  0  0
 15 28  1  0  0  0  0
 16 20  1  0  0  0  0
 16 11  2  0  0  0  0
 18  8  1  0  0  0  0
 19 25  1  0  0  0  0
 19 18  1  1  0  0  0
 20  3  2  0  0  0  0
 21 27  1  0  0  0  0
 22  2  1  0  0  0  0
 23 30  1  6  0  0  0
 23 10  1  0  0  0  0
 24  2  1  0  0  0  0
 25 27  1  0  0  0  0
 27  1  1  1  0  0  0
 28 23  1  0  0  0  0
 29 30  1  0  0  0  0
 30 31  2  0  0  0  0
 33 34  2  0  0  0  0
 34 31  1  0  0  0  0
 34 32  1  0  0  0  0
 35 29  2  0  0  0  0
 35 33  1  0  0  0  0
 37 36  1  0  0  0  0
M  END
>  <MODEL>
4

>  <REMARK>
 VINA RESULT:      -7.9      2.336      7.443
  Name = 
  2 active torsions:
  status: ('A' for Active; 'I' for Inactive)
    1  A    between atoms: N_4  and  C_37
    2  A    between atoms: C_23  and  C_30
                            x       y       z     vdW  Elec       q    Type
                         _______ _______ _______ _____ _____    ______ ____

>  <TORSDO>
F 2

$$$$
=
 OpenBabel11122411223D

 37 43  0  0  1  0  0  0  0  0999 V2000
  184.3600  175.3630  136.7660 C   0  0  0  0  0  2  0  0  0  0  0  0
  189.0870  177.1510  137.1910 C   0  0  0  0  0  0  0  0  0  0  0  0
  185.9020  178.4520  139.5210 C   0  0  0  0  0  0  0  0  0  0  0  0
  183.7210  174.6600  135.6480 N   0  0  0  0  0  0  0  0  0  0  0  0
  182.3820  178.4850  138.1370 O   0  0  0  0  0  0  0  0  0  0  0  0
  188.2500  177.9540  139.3840 C   0  0  0  0  0  0  0  0  0  0  0  0
  184.8030  178.2010  138.7260 C   0  0  0  0  0  0  0  0  0  0  0  0
  181.4100  175.1780  136.6780 C   0  0  2  0  0  3  0  0  0  0  0  0
  186.9920  178.0230  138.8350 C   0  0  0  0  0  0  0  0  0  0  0  0
  183.3660  178.4770  139.1590 C   0  0  2  0  0  3  0  0  0  0  0  0
  188.4110  178.3690  140.7190 C   0  0  0  0  0  3  0  0  0  0  0  0
  182.3010  175.0100  135.4250 C   0  0  0  0  0  2  0  0  0  0  0  0
  186.6720  177.4940  137.6570 N   0  0  0  0  0  0  0  0  0  0  0  0
  190.0270  176.0430  136.7690 C   0  0  0  0  0  1  0  0  0  0  0  0
  184.7630  179.0660  141.6740 C   0  0  0  0  0  2  0  0  0  0  0  0
  187.2780  178.7970  141.4610 C   0  0  0  0  0  3  0  0  0  0  0  0
  187.6290  176.7270  136.8580 C   0  0  0  0  0  2  0  0  0  0  0  0
  181.1860  176.6450  137.0640 C   0  0  0  0  0  2  0  0  0  0  0  0
  182.5080  177.2920  137.4250 C   0  0  1  0  0  3  0  0  0  0  0  0
  185.9960  178.8240  140.8630 C   0  0  0  0  0  0  0  0  0  0  0  0
  185.3190  177.5600  137.5740 C   0  0  0  0  0  0  0  0  0  0  0  0
  189.2780  177.4210  138.5980 O   0  0  0  0  0  0  0  0  0  0  0  0
  182.9140  177.7350  140.4370 C   0  0  1  0  0  3  0  0  0  0  0  0
  189.4290  178.3980  136.3960 C   0  0  0  0  0  1  0  0  0  0  0  0
  183.2830  177.5120  136.2780 O   0  0  0  0  0  0  0  0  0  0  0  0
  181.8360  174.4220  137.7570 F   0  0  0  0  0  0  0  0  0  0  0  0
  184.5190  176.8710  136.4920 C   0  0  2  0  0  3  0  0  0  0  0  0
  183.8780  177.8150  141.6420 C   0  0  0  0  0  2  0  0  0  0  0  0
  180.4600  177.2850  140.5780 C   0  0  0  0  0  3  0  0  0  0  0  0
  181.5330  178.1410  140.8490 C   0  0  0  0  0  0  0  0  0  0  0  0
  181.2980  179.3670  141.4900 C   0  0  0  0  0  3  0  0  0  0  0  0
  179.7700  180.9420  142.4910 O   0  0  0  0  0  1  0  0  0  0  0  0
  178.9310  178.8710  141.5840 C   0  0  0  0  0  3  0  0  0  0  0  0
  179.9990  179.7290  141.8570 C   0  0  0  0  0  0  0  0  0  0  0  0
  179.1600  177.6490  140.9440 C   0  0  0  0  0  3  0  0  0  0  0  0
  184.7810  172.9690  137.0390 C   0  0  0  0  0  1  0  0  0  0  0  0
  183.7980  173.2320  135.9150 C   0  0  0  0  0  2  0  0  0  0  0  0
  2 22  1  0  0  0  0
  3 20  1  0  0  0  0
  4 37  1  0  0  0  0
  4  1  1  0  0  0  0
  6 11  2  0  0  0  0
  7 10  1  0  0  0  0
  7  3  1  0  0  0  0
  8 18  1  0  0  0  0
  8 26  1  1  0  0  0
  9  6  1  0  0  0  0
  9  3  2  0  0  0  0
 10  5  1  6  0  0  0
 10 23  1  0  0  0  0
 11 16  1  0  0  0  0
 12  4  1  0  0  0  0
 12  8  1  0  0  0  0
 13  9  1  0  0  0  0
 14  2  1  0  0  0  0
 17  2  1  0  0  0  0
 17 13  1  0  0  0  0
 19 18  1  6  0  0  0
 19  5  1  0  0  0  0
 20 16  2  0  0  0  0
 20 15  1  0  0  0  0
 21 13  1  0  0  0  0
 21  7  2  0  0  0  0
 22  6  1  0  0  0  0
 23 30  1  1  0  0  0
 23 28  1  0  0  0  0
 24  2  1  0  0  0  0
 25 27  1  0  0  0  0
 25 19  1  0  0  0  0
 27  1  1  1  0  0  0
 27 21  1  0  0  0  0
 28 15  1  0  0  0  0
 29 30  2  0  0  0  0
 29 35  1  0  0  0  0
 30 31  1  0  0  0  0
 31 34  2  0  0  0  0
 33 34  1  0  0  0  0
 34 32  1  0  0  0  0
 35 33  2  0  0  0  0
 37 36  1  0  0  0  0
M  END
>  <MODEL>
5

>  <REMARK>
 VINA RESULT:      -7.6      2.823      4.707
  Name = 
  2 active torsions:
  status: ('A' for Active; 'I' for Inactive)
    1  A    between atoms: N_4  and  C_37
    2  A    between atoms: C_23  and  C_30
                            x       y       z     vdW  Elec       q    Type
                         _______ _______ _______ _____ _____    ______ ____

>  <TORSDO>
F 2

$$$$
=
 OpenBabel11122411223D

 37 43  0  0  1  0  0  0  0  0999 V2000
  185.4160  177.8750  142.6400 C   0  0  0  0  0  2  0  0  0  0  0  0
  180.4270  178.7520  142.8770 C   0  0  0  0  0  0  0  0  0  0  0  0
  182.4580  177.8780  139.3590 C   0  0  0  0  0  0  0  0  0  0  0  0
  186.4780  178.2400  143.5840 N   0  0  0  0  0  0  0  0  0  0  0  0
  186.0620  178.9310  138.8970 O   0  0  0  0  0  0  0  0  0  0  0  0
  180.4450  177.6510  140.6540 C   0  0  0  0  0  0  0  0  0  0  0  0
  183.7440  178.3030  139.6210 C   0  0  0  0  0  0  0  0  0  0  0  0
  188.2320  177.8150  141.7360 C   0  0  2  0  0  3  0  0  0  0  0  0
  181.7310  178.1060  140.4830 C   0  0  0  0  0  0  0  0  0  0  0  0
  184.8980  178.1640  138.6320 C   0  0  2  0  0  3  0  0  0  0  0  0
  179.8540  176.9310  139.5990 C   0  0  0  0  0  3  0  0  0  0  0  0
  187.7570  178.6390  142.9560 C   0  0  0  0  0  2  0  0  0  0  0  0
  182.4640  178.6310  141.4620 N   0  0  0  0  0  0  0  0  0  0  0  0
  179.9600  178.3290  144.2530 C   0  0  0  0  0  1  0  0  0  0  0  0
  182.8190  176.6810  137.1810 C   0  0  0  0  0  2  0  0  0  0  0  0
  180.6070  176.6630  138.4260 C   0  0  0  0  0  3  0  0  0  0  0  0
  181.9800  178.7170  142.8400 C   0  0  0  0  0  2  0  0  0  0  0  0
  187.9420  178.5040  140.3970 C   0  0  0  0  0  2  0  0  0  0  0  0
  186.4470  178.6670  140.2120 C   0  0  1  0  0  3  0  0  0  0  0  0
  181.9380  177.1260  138.3050 C   0  0  0  0  0  0  0  0  0  0  0  0
  183.7230  178.7370  140.9690 C   0  0  0  0  0  0  0  0  0  0  0  0
  179.8300  177.8830  141.8890 O   0  0  0  0  0  0  0  0  0  0  0  0
  185.2080  176.7160  138.1890 C   0  0  1  0  0  3  0  0  0  0  0  0
  179.9620  180.1760  142.6300 C   0  0  0  0  0  1  0  0  0  0  0  0
  185.9480  179.6690  141.0550 O   0  0  0  0  0  0  0  0  0  0  0  0
  187.7770  176.5070  141.7490 F   0  0  0  0  0  0  0  0  0  0  0  0
  184.9220  179.0840  141.8220 C   0  0  2  0  0  3  0  0  0  0  0  0
  183.9930  175.8710  137.7420 C   0  0  0  0  0  2  0  0  0  0  0  0
  186.0500  177.2930  135.9080 C   0  0  0  0  0  3  0  0  0  0  0  0
  186.2790  176.6780  137.1430 C   0  0  0  0  0  0  0  0  0  0  0  0
  187.4990  176.0260  137.3800 C   0  0  0  0  0  3  0  0  0  0  0  0
  189.6870  175.3510  136.6220 O   0  0  0  0  0  1  0  0  0  0  0  0
  188.2480  176.6110  135.1530 C   0  0  0  0  0  3  0  0  0  0  0  0
  188.4810  175.9950  136.3850 C   0  0  0  0  0  0  0  0  0  0  0  0
  187.0330  177.2600  134.9130 C   0  0  0  0  0  3  0  0  0  0  0  0
  187.7410  177.4560  145.5100 C   0  0  0  0  0  1  0  0  0  0  0  0
  186.7330  177.0900  144.4380 C   0  0  0  0  0  2  0  0  0  0  0  0
  1  4  1  0  0  0  0
  2 14  1  0  0  0  0
  3  7  1  0  0  0  0
  3  9  1  0  0  0  0
  4 37  1  0  0  0  0
  5 19  1  0  0  0  0
  6 22  1  0  0  0  0
  7 21  2  0  0  0  0
  8 26  1  6  0  0  0
  8 12  1  0  0  0  0
  9  6  2  0  0  0  0
  9 13  1  0  0  0  0
 10  5  1  1  0  0  0
 10  7  1  0  0  0  0
 11  6  1  0  0  0  0
 12  4  1  0  0  0  0
 13 17  1  0  0  0  0
 15 28  1  0  0  0  0
 15 20  1  0  0  0  0
 16 11  2  0  0  0  0
 17  2  1  0  0  0  0
 18  8  1  0  0  0  0
 19 18  1  6  0  0  0
 19 25  1  0  0  0  0
 20 16  1  0  0  0  0
 20  3  2  0  0  0  0
 21 13  1  0  0  0  0
 21 27  1  0  0  0  0
 22  2  1  0  0  0  0
 23 30  1  6  0  0  0
 23 10  1  0  0  0  0
 24  2  1  0  0  0  0
 25 27  1  0  0  0  0
 27  1  1  6  0  0  0
 28 23  1  0  0  0  0
 29 30  1  0  0  0  0
 30 31  2  0  0  0  0
 33 34  2  0  0  0  0
 34 32  1  0  0  0  0
 34 31  1  0  0  0  0
 35 33  1  0  0  0  0
 35 29  2  0  0  0  0
 37 36  1  0  0  0  0
M  END
>  <MODEL>
6

>  <REMARK>
 VINA RESULT:      -7.1      2.582      6.587
  Name = 
  2 active torsions:
  status: ('A' for Active; 'I' for Inactive)
    1  A    between atoms: N_4  and  C_37
    2  A    between atoms: C_23  and  C_30
                            x       y       z     vdW  Elec       q    Type
                         _______ _______ _______ _____ _____    ______ ____

>  <TORSDO>
F 2

$$$$
