=
 OpenBabel11122411343D

 37 42  0  0  1  0  0  0  0  0999 V2000
  184.5450  178.3500  142.2530 C   0  0  0  0  0  0  0  0  0  0  0  0
  186.9980  178.0040  145.5990 C   0  0  0  0  0  0  0  0  0  0  0  0
  190.3760  178.4630  144.8680 C   0  0  0  0  0  2  0  0  0  0  0  0
  184.8150  178.6470  144.7760 C   0  0  0  0  0  0  0  0  0  0  0  0
  188.1030  177.3690  145.0290 C   0  0  0  0  0  0  0  0  0  0  0  0
  186.0500  178.0530  144.6300 C   0  0  0  0  0  0  0  0  0  0  0  0
  189.5250  177.3910  145.5670 C   0  0  2  0  0  3  0  0  0  0  0  0
  184.5130  179.2030  146.0310 C   0  0  0  0  0  3  0  0  0  0  0  0
  186.5210  177.4450  143.5200 C   0  0  0  0  0  0  0  0  0  0  0  0
  185.1260  179.6660  141.7650 C   0  0  0  0  0  1  0  0  0  0  0  0
  187.5550  178.2110  147.9980 N   0  0  0  0  0  2  0  0  0  0  0  0
  185.4620  179.1210  147.0830 C   0  0  0  0  0  3  0  0  0  0  0  0
  185.6710  177.2810  142.2930 C   0  0  0  0  0  2  0  0  0  0  0  0
  190.8160  177.3210  142.8190 C   0  0  1  0  0  3  0  0  0  0  0  0
  190.1790  178.4880  143.4200 N   0  0  0  0  0  2  0  0  0  0  0  0
  186.7140  178.4950  146.8810 C   0  0  0  0  0  0  0  0  0  0  0  0
  187.7780  176.9990  143.7430 N   0  0  0  0  0  0  0  0  0  0  0  0
  183.8440  178.5750  143.6250 C   0  0  0  0  0  2  0  0  0  0  0  0
  189.7180  177.5740  147.0840 C   0  0  1  0  0  3  0  0  0  0  0  0
  183.5010  177.9010  141.2540 C   0  0  0  0  0  1  0  0  0  0  0  0
  190.0140  176.0380  143.0720 C   0  0  0  0  0  2  0  0  0  0  0  0
  188.5220  176.1830  142.7720 C   0  0  0  0  0  2  0  0  0  0  0  0
  188.5510  177.1510  147.9600 C   0  0  0  0  0  2  0  0  0  0  0  0
  191.4510  175.7870  146.8710 C   0  0  0  0  0  3  0  0  0  0  0  0
  190.9820  176.9200  147.5440 C   0  0  0  0  0  0  0  0  0  0  0  0
  191.7030  177.4250  148.6380 C   0  0  0  0  0  3  0  0  0  0  0  0
  193.6420  177.3330  150.2110 C   0  0  0  0  0  1  0  0  0  0  0  0
  193.3440  175.6640  148.3760 C   0  0  0  0  0  3  0  0  0  0  0  0
  192.8820  176.7970  149.0520 C   0  0  0  0  0  0  0  0  0  0  0  0
  192.6290  175.1590  147.2860 C   0  0  0  0  0  3  0  0  0  0  0  0
  191.0300  177.5420  141.3580 C   0  0  0  0  0  0  0  0  0  0  0  0
  189.9000  177.7550  140.5110 N   0  0  0  0  0  2  0  0  0  0  0  0
  192.1970  177.5570  140.8800 O   0  0  0  0  0  0  0  0  0  0  0  0
  189.1460  178.9730  138.6570 O   0  0  0  0  0  1  0  0  0  0  0  0
  190.0190  177.9640  139.0730 C   0  0  2  0  0  3  0  0  0  0  0  0
  191.0080  175.9220  137.9710 C   0  0  0  0  0  1  0  0  0  0  0  0
  189.7310  176.6700  138.3220 C   0  0  0  0  0  2  0  0  0  0  0  0
  1 13  1  0  0  0  0
  1 18  1  0  0  0  0
  2 16  1  0  0  0  0
  4  8  2  0  0  0  0
  5  7  1  0  0  0  0
  5  2  2  0  0  0  0
  6  4  1  0  0  0  0
  6  2  1  0  0  0  0
  7  3  1  6  0  0  0
  7 19  1  0  0  0  0
  8 12  1  0  0  0  0
  9 17  1  0  0  0  0
  9  6  2  0  0  0  0
 10  1  1  0  0  0  0
 13  9  1  0  0  0  0
 14 31  1  6  0  0  0
 14 21  1  0  0  0  0
 14 15  1  0  0  0  0
 15  3  1  0  0  0  0
 16 12  2  0  0  0  0
 16 11  1  0  0  0  0
 17  5  1  0  0  0  0
 18  4  1  0  0  0  0
 19 25  1  1  0  0  0
 19 23  1  0  0  0  0
 20  1  1  0  0  0  0
 22 21  1  0  0  0  0
 22 17  1  0  0  0  0
 23 11  1  0  0  0  0
 24 30  2  0  0  0  0
 24 25  1  0  0  0  0
 25 26  2  0  0  0  0
 26 29  1  0  0  0  0
 28 29  2  0  0  0  0
 29 27  1  0  0  0  0
 30 28  1  0  0  0  0
 32 31  1  0  0  0  0
 33 31  2  0  0  0  0
 35 34  1  6  0  0  0
 35 32  1  0  0  0  0
 36 37  1  0  0  0  0
 37 35  1  0  0  0  0
M  END
>  <MODEL>
1

>  <REMARK>
 VINA RESULT:      -9.4      0.000      0.000
  Name = 
  4 active torsions:
  status: ('A' for Active; 'I' for Inactive)
    1  A    between atoms: C_4  and  N_12
    2  A    between atoms: C_4  and  C_37
    3  A    between atoms: C_8  and  C_18
    4  A    between atoms: C_23  and  C_30
                            x       y       z     vdW  Elec       q    Type
                         _______ _______ _______ _____ _____    ______ ____

>  <TORSDO>
F 4

$$$$
=
 OpenBabel11122411343D

 37 42  0  0  1  0  0  0  0  0999 V2000
  192.0240  176.2710  138.2130 C   0  0  0  0  0  0  0  0  0  0  0  0
  188.2490  177.8010  139.0760 C   0  0  0  0  0  0  0  0  0  0  0  0
  188.0460  179.2220  142.2530 C   0  0  0  0  0  2  0  0  0  0  0  0
  189.8780  177.3490  137.3430 C   0  0  0  0  0  0  0  0  0  0  0  0
  188.1560  177.4740  140.4300 C   0  0  0  0  0  0  0  0  0  0  0  0
  189.3940  177.2260  138.6280 C   0  0  0  0  0  0  0  0  0  0  0  0
  187.2700  178.1600  141.4580 C   0  0  2  0  0  3  0  0  0  0  0  0
  189.1040  178.0900  136.4320 C   0  0  0  0  0  3  0  0  0  0  0  0
  189.9700  176.5420  139.6400 C   0  0  0  0  0  0  0  0  0  0  0  0
  192.7980  177.5120  138.6280 C   0  0  0  0  0  1  0  0  0  0  0  0
  186.0870  178.8670  138.5310 N   0  0  0  0  0  2  0  0  0  0  0  0
  187.8740  178.6590  136.8550 C   0  0  0  0  0  3  0  0  0  0  0  0
  191.2230  175.7400  139.4320 C   0  0  0  0  0  2  0  0  0  0  0  0
  189.2310  177.7850  143.7460 C   0  0  1  0  0  3  0  0  0  0  0  0
  189.3690  178.7620  142.6710 N   0  0  0  0  0  2  0  0  0  0  0  0
  187.4210  178.4980  138.1860 C   0  0  0  0  0  0  0  0  0  0  0  0
  189.2190  176.6630  140.7580 N   0  0  0  0  0  0  0  0  0  0  0  0
  191.1380  176.6080  136.9780 C   0  0  0  0  0  2  0  0  0  0  0  0
  185.9710  178.8230  140.9600 C   0  0  1  0  0  3  0  0  0  0  0  0
  193.0250  175.2120  137.8060 C   0  0  0  0  0  1  0  0  0  0  0  0
  188.7420  176.4280  143.2260 C   0  0  0  0  0  2  0  0  0  0  0  0
  189.5090  175.9310  142.0000 C   0  0  0  0  0  2  0  0  0  0  0  0
  185.3960  178.2740  139.6660 C   0  0  0  0  0  2  0  0  0  0  0  0
  183.5780  178.8540  141.6760 C   0  0  0  0  0  3  0  0  0  0  0  0
  184.9300  178.8300  142.0350 C   0  0  0  0  0  0  0  0  0  0  0  0
  185.2880  178.8120  143.3920 C   0  0  0  0  0  3  0  0  0  0  0  0
  184.6810  178.8030  145.8160 C   0  0  0  0  0  1  0  0  0  0  0  0
  182.9490  178.8460  144.0160 C   0  0  0  0  0  3  0  0  0  0  0  0
  184.2990  178.8200  144.3800 C   0  0  0  0  0  0  0  0  0  0  0  0
  182.5880  178.8630  142.6650 C   0  0  0  0  0  3  0  0  0  0  0  0
  190.5190  177.6440  144.4870 C   0  0  0  0  0  0  0  0  0  0  0  0
  190.6940  176.5420  145.3800 N   0  0  0  0  0  2  0  0  0  0  0  0
  191.4490  178.4780  144.3150 O   0  0  0  0  0  0  0  0  0  0  0  0
  192.4480  175.0740  145.8870 O   0  0  0  0  0  1  0  0  0  0  0  0
  191.9130  176.3370  146.1520 C   0  0  2  0  0  3  0  0  0  0  0  0
  192.7280  175.8760  148.4940 C   0  0  0  0  0  1  0  0  0  0  0  0
  191.6300  176.4920  147.6420 C   0  0  0  0  0  2  0  0  0  0  0  0
  1 10  1  0  0  0  0
  1 13  1  0  0  0  0
  2  5  2  0  0  0  0
  3 15  1  0  0  0  0
  4  6  1  0  0  0  0
  5 17  1  0  0  0  0
  5  7  1  0  0  0  0
  6  2  1  0  0  0  0
  6  9  2  0  0  0  0
  7  3  1  6  0  0  0
  8 12  1  0  0  0  0
  8  4  2  0  0  0  0
  9 17  1  0  0  0  0
 11 23  1  0  0  0  0
 12 16  2  0  0  0  0
 13  9  1  0  0  0  0
 14 31  1  6  0  0  0
 15 14  1  0  0  0  0
 16 11  1  0  0  0  0
 16  2  1  0  0  0  0
 17 22  1  0  0  0  0
 18  4  1  0  0  0  0
 18  1  1  0  0  0  0
 19  7  1  0  0  0  0
 19 25  1  1  0  0  0
 20  1  1  0  0  0  0
 21 14  1  0  0  0  0
 22 21  1  0  0  0  0
 23 19  1  0  0  0  0
 24 25  2  0  0  0  0
 24 30  1  0  0  0  0
 25 26  1  0  0  0  0
 26 29  2  0  0  0  0
 28 29  1  0  0  0  0
 29 27  1  0  0  0  0
 30 28  2  0  0  0  0
 31 32  1  0  0  0  0
 32 35  1  0  0  0  0
 33 31  2  0  0  0  0
 35 34  1  1  0  0  0
 35 37  1  0  0  0  0
 37 36  1  0  0  0  0
M  END
>  <MODEL>
2

>  <REMARK>
 VINA RESULT:      -7.5      2.090      7.900
  Name = 
  4 active torsions:
  status: ('A' for Active; 'I' for Inactive)
    1  A    between atoms: C_4  and  N_12
    2  A    between atoms: C_4  and  C_37
    3  A    between atoms: C_8  and  C_18
    4  A    between atoms: C_23  and  C_30
                            x       y       z     vdW  Elec       q    Type
                         _______ _______ _______ _____ _____    ______ ____

>  <TORSDO>
F 4

$$$$
=
 OpenBabel11122411343D

 37 42  0  0  1  0  0  0  0  0999 V2000
  187.4490  178.0700  137.4430 C   0  0  0  0  0  0  0  0  0  0  0  0
  189.0370  177.4120  141.2350 C   0  0  0  0  0  0  0  0  0  0  0  0
  186.5990  176.7580  143.6400 C   0  0  0  0  0  2  0  0  0  0  0  0
  189.3970  177.2040  138.8510 C   0  0  0  0  0  0  0  0  0  0  0  0
  188.0620  178.0320  142.0200 C   0  0  0  0  0  0  0  0  0  0  0  0
  188.7070  177.6780  139.9460 C   0  0  0  0  0  0  0  0  0  0  0  0
  187.7720  177.7390  143.4840 C   0  0  2  0  0  3  0  0  0  0  0  0
  190.5410  176.4250  139.0990 C   0  0  0  0  0  3  0  0  0  0  0  0
  187.6040  178.4570  139.9240 C   0  0  0  0  0  0  0  0  0  0  0  0
  186.5630  176.8350  137.4250 C   0  0  0  0  0  1  0  0  0  0  0  0
  190.7420  176.6290  142.8440 N   0  0  0  0  0  2  0  0  0  0  0  0
  190.9440  176.1730  140.4360 C   0  0  0  0  0  3  0  0  0  0  0  0
  187.0350  178.9750  138.6350 C   0  0  0  0  0  2  0  0  0  0  0  0
  184.7900  178.2630  143.2390 C   0  0  1  0  0  3  0  0  0  0  0  0
  185.4770  177.0700  142.7570 N   0  0  0  0  0  2  0  0  0  0  0  0
  190.2010  176.6880  141.5250 C   0  0  0  0  0  0  0  0  0  0  0  0
  187.1950  178.7050  141.1890 N   0  0  0  0  0  0  0  0  0  0  0  0
  188.9420  177.6290  137.4780 C   0  0  0  0  0  2  0  0  0  0  0  0
  188.9260  177.2110  144.3550 C   0  0  1  0  0  3  0  0  0  0  0  0
  187.2090  178.8360  136.1600 C   0  0  0  0  0  1  0  0  0  0  0  0
  185.5890  179.5400  142.9480 C   0  0  0  0  0  2  0  0  0  0  0  0
  186.0960  179.6270  141.5080 C   0  0  0  0  0  2  0  0  0  0  0  0
  190.3290  177.5580  143.8850 C   0  0  0  0  0  2  0  0  0  0  0  0
  189.7820  177.3950  146.6950 C   0  0  0  0  0  3  0  0  0  0  0  0
  188.7400  177.6080  145.7860 C   0  0  0  0  0  0  0  0  0  0  0  0
  187.5410  178.1900  146.2270 C   0  0  0  0  0  3  0  0  0  0  0  0
  186.1170  179.1660  148.0330 C   0  0  0  0  0  1  0  0  0  0  0  0
  188.4320  178.3340  148.4730 C   0  0  0  0  0  3  0  0  0  0  0  0
  187.3890  178.5520  147.5680 C   0  0  0  0  0  0  0  0  0  0  0  0
  189.6280  177.7560  148.0380 C   0  0  0  0  0  3  0  0  0  0  0  0
  183.4170  178.3430  142.6570 C   0  0  0  0  0  0  0  0  0  0  0  0
  182.3800  178.9830  143.4020 N   0  0  0  0  0  2  0  0  0  0  0  0
  183.1810  177.8660  141.5140 O   0  0  0  0  0  0  0  0  0  0  0  0
  180.6120  180.4310  142.8840 O   0  0  0  0  0  1  0  0  0  0  0  0
  181.0110  179.0920  142.9140 C   0  0  2  0  0  3  0  0  0  0  0  0
  178.9580  179.1340  144.3790 C   0  0  0  0  0  1  0  0  0  0  0  0
  180.0680  178.2770  143.7910 C   0  0  0  0  0  2  0  0  0  0  0  0
  1 18  1  0  0  0  0
  1 13  1  0  0  0  0
  2 16  1  0  0  0  0
  2  5  2  0  0  0  0
  4  8  2  0  0  0  0
  4  6  1  0  0  0  0
  5  7  1  0  0  0  0
  6  2  1  0  0  0  0
  7  3  1  6  0  0  0
  7 19  1  0  0  0  0
  8 12  1  0  0  0  0
  9  6  2  0  0  0  0
  9 17  1  0  0  0  0
 10  1  1  0  0  0  0
 11 23  1  0  0  0  0
 12 16  2  0  0  0  0
 13  9  1  0  0  0  0
 14 31  1  6  0  0  0
 15 14  1  0  0  0  0
 15  3  1  0  0  0  0
 16 11  1  0  0  0  0
 17 22  1  0  0  0  0
 17  5  1  0  0  0  0
 18  4  1  0  0  0  0
 19 25  1  1  0  0  0
 20  1  1  0  0  0  0
 21 14  1  0  0  0  0
 22 21  1  0  0  0  0
 23 19  1  0  0  0  0
 24 30  1  0  0  0  0
 25 26  1  0  0  0  0
 25 24  2  0  0  0  0
 26 29  2  0  0  0  0
 29 27  1  0  0  0  0
 29 28  1  0  0  0  0
 30 28  2  0  0  0  0
 31 32  1  0  0  0  0
 33 31  2  0  0  0  0
 35 34  1  1  0  0  0
 35 32  1  0  0  0  0
 35 37  1  0  0  0  0
 37 36  1  0  0  0  0
M  END
>  <MODEL>
3

>  <REMARK>
 VINA RESULT:      -7.3      2.962      6.701
  Name = 
  4 active torsions:
  status: ('A' for Active; 'I' for Inactive)
    1  A    between atoms: C_4  and  N_12
    2  A    between atoms: C_4  and  C_37
    3  A    between atoms: C_8  and  C_18
    4  A    between atoms: C_23  and  C_30
                            x       y       z     vdW  Elec       q    Type
                         _______ _______ _______ _____ _____    ______ ____

>  <TORSDO>
F 4

$$$$
=
 OpenBabel11122411343D

 37 42  0  0  1  0  0  0  0  0999 V2000
  188.6900  177.8320  142.6760 C   0  0  0  0  0  0  0  0  0  0  0  0
  184.9250  178.4140  140.9980 C   0  0  0  0  0  0  0  0  0  0  0  0
  184.4970  176.7140  137.9840 C   0  0  0  0  0  2  0  0  0  0  0  0
  186.2000  178.2660  143.0490 C   0  0  0  0  0  0  0  0  0  0  0  0
  185.2640  178.4590  139.6440 C   0  0  0  0  0  0  0  0  0  0  0  0
  186.0980  178.3660  141.6780 C   0  0  0  0  0  0  0  0  0  0  0  0
  184.3350  178.1600  138.4780 C   0  0  2  0  0  3  0  0  0  0  0  0
  185.0020  178.2540  143.7850 C   0  0  0  0  0  3  0  0  0  0  0  0
  187.1210  178.4170  140.7990 C   0  0  0  0  0  0  0  0  0  0  0  0
  188.6830  176.3160  142.5620 C   0  0  0  0  0  1  0  0  0  0  0  0
  182.4840  178.8010  141.0520 N   0  0  0  0  0  2  0  0  0  0  0  0
  183.7600  178.3570  143.1070 C   0  0  0  0  0  3  0  0  0  0  0  0
  188.5500  178.4490  141.2590 C   0  0  0  0  0  2  0  0  0  0  0  0
  186.5190  176.9620  136.7410 C   0  0  1  0  0  3  0  0  0  0  0  0
  185.8950  176.3020  137.8830 N   0  0  0  0  0  2  0  0  0  0  0  0
  183.7110  178.4630  141.6970 C   0  0  0  0  0  0  0  0  0  0  0  0
  186.6360  178.4920  139.5390 N   0  0  0  0  0  0  0  0  0  0  0  0
  187.5740  178.2770  143.6680 C   0  0  0  0  0  2  0  0  0  0  0  0
  182.8280  178.4090  138.6760 C   0  0  1  0  0  3  0  0  0  0  0  0
  190.0280  178.2510  143.2470 C   0  0  0  0  0  1  0  0  0  0  0  0
  186.8040  178.4420  137.0200 C   0  0  0  0  0  2  0  0  0  0  0  0
  187.4950  178.6880  138.3620 C   0  0  0  0  0  2  0  0  0  0  0  0
  182.4550  179.4270  139.7390 C   0  0  0  0  0  2  0  0  0  0  0  0
  182.3040  177.8650  136.2940 C   0  0  0  0  0  3  0  0  0  0  0  0
  182.1660  178.7420  137.3750 C   0  0  0  0  0  0  0  0  0  0  0  0
  181.4120  179.9160  137.2260 C   0  0  0  0  0  3  0  0  0  0  0  0
  180.0060  181.4520  135.8460 C   0  0  0  0  0  1  0  0  0  0  0  0
  180.9460  179.3290  134.9240 C   0  0  0  0  0  3  0  0  0  0  0  0
  180.8030  180.2080  136.0020 C   0  0  0  0  0  0  0  0  0  0  0  0
  181.6960  178.1580  135.0690 C   0  0  0  0  0  3  0  0  0  0  0  0
  187.7650  176.2410  136.3420 C   0  0  0  0  0  0  0  0  0  0  0  0
  188.5910  175.6630  137.3540 N   0  0  0  0  0  2  0  0  0  0  0  0
  188.0750  176.1280  135.1240 O   0  0  0  0  0  0  0  0  0  0  0  0
  189.7210  173.6120  137.4200 O   0  0  0  0  0  1  0  0  0  0  0  0
  189.8300  174.9560  137.0530 C   0  0  2  0  0  3  0  0  0  0  0  0
  190.5560  176.3780  139.0060 C   0  0  0  0  0  1  0  0  0  0  0  0
  191.0030  175.6100  137.7720 C   0  0  0  0  0  2  0  0  0  0  0  0
  1 20  1  0  0  0  0
  1 18  1  0  0  0  0
  2  6  1  0  0  0  0
  2 16  1  0  0  0  0
  4 18  1  0  0  0  0
  4  8  2  0  0  0  0
  5  2  2  0  0  0  0
  6  4  1  0  0  0  0
  7  3  1  1  0  0  0
  7 19  1  0  0  0  0
  7  5  1  0  0  0  0
  9 13  1  0  0  0  0
  9  6  2  0  0  0  0
 10  1  1  0  0  0  0
 11 16  1  0  0  0  0
 12  8  1  0  0  0  0
 13  1  1  0  0  0  0
 14 31  1  1  0  0  0
 14 21  1  0  0  0  0
 14 15  1  0  0  0  0
 15  3  1  0  0  0  0
 16 12  2  0  0  0  0
 17  5  1  0  0  0  0
 17  9  1  0  0  0  0
 19 25  1  6  0  0  0
 19 23  1  0  0  0  0
 21 22  1  0  0  0  0
 22 17  1  0  0  0  0
 23 11  1  0  0  0  0
 24 25  1  0  0  0  0
 26 25  2  0  0  0  0
 27 29  1  0  0  0  0
 28 30  1  0  0  0  0
 28 29  2  0  0  0  0
 29 26  1  0  0  0  0
 30 24  2  0  0  0  0
 31 32  1  0  0  0  0
 33 31  2  0  0  0  0
 35 32  1  0  0  0  0
 35 34  1  1  0  0  0
 35 37  1  0  0  0  0
 37 36  1  0  0  0  0
M  END
>  <MODEL>
4

>  <REMARK>
 VINA RESULT:      -7.1      3.859      9.125
  Name = 
  4 active torsions:
  status: ('A' for Active; 'I' for Inactive)
    1  A    between atoms: C_4  and  N_12
    2  A    between atoms: C_4  and  C_37
    3  A    between atoms: C_8  and  C_18
    4  A    between atoms: C_23  and  C_30
                            x       y       z     vdW  Elec       q    Type
                         _______ _______ _______ _____ _____    ______ ____

>  <TORSDO>
F 4

$$$$
=
 OpenBabel11122411343D

 37 42  0  0  1  0  0  0  0  0999 V2000
  187.7580  178.0360  137.4300 C   0  0  0  0  0  0  0  0  0  0  0  0
  189.2260  177.3830  141.2710 C   0  0  0  0  0  0  0  0  0  0  0  0
  186.7130  176.7440  143.6010 C   0  0  0  0  0  2  0  0  0  0  0  0
  189.6590  177.1670  138.8990 C   0  0  0  0  0  0  0  0  0  0  0  0
  188.2300  178.0090  142.0230 C   0  0  0  0  0  0  0  0  0  0  0  0
  188.9370  177.6470  139.9710 C   0  0  0  0  0  0  0  0  0  0  0  0
  187.8940  177.7210  143.4780 C   0  0  2  0  0  3  0  0  0  0  0  0
  190.7920  176.3850  139.1840 C   0  0  0  0  0  3  0  0  0  0  0  0
  187.8380  178.4300  139.9130 C   0  0  0  0  0  0  0  0  0  0  0  0
  186.8690  176.8040  137.3870 C   0  0  0  0  0  1  0  0  0  0  0  0
  190.8780  176.6000  142.9330 N   0  0  0  0  0  2  0  0  0  0  0  0
  191.1530  176.1360  140.5340 C   0  0  0  0  0  3  0  0  0  0  0  0
  187.3110  178.9460  138.6050 C   0  0  0  0  0  2  0  0  0  0  0  0
  184.9230  178.2540  143.1400 C   0  0  1  0  0  3  0  0  0  0  0  0
  185.6210  177.0570  142.6830 N   0  0  0  0  0  2  0  0  0  0  0  0
  190.3790  176.6570  141.5980 C   0  0  0  0  0  0  0  0  0  0  0  0
  187.3910  178.6820  141.1640 N   0  0  0  0  0  0  0  0  0  0  0  0
  189.2490  177.5900  137.5120 C   0  0  0  0  0  2  0  0  0  0  0  0
  189.0190  177.1920  144.3860 C   0  0  1  0  0  3  0  0  0  0  0  0
  187.5610  178.7990  136.1370 C   0  0  0  0  0  1  0  0  0  0  0  0
  185.7340  179.5270  142.8700 C   0  0  0  0  0  2  0  0  0  0  0  0
  186.2860  179.6090  141.4460 C   0  0  0  0  0  2  0  0  0  0  0  0
  190.4360  177.5330  143.9590 C   0  0  0  0  0  2  0  0  0  0  0  0
  189.8010  177.3750  146.7520 C   0  0  0  0  0  3  0  0  0  0  0  0
  188.7900  177.5940  145.8100 C   0  0  0  0  0  0  0  0  0  0  0  0
  187.5820  178.1840  146.2110 C   0  0  0  0  0  3  0  0  0  0  0  0
  186.1080  179.1740  147.9680 C   0  0  0  0  0  1  0  0  0  0  0  0
  188.4010  178.3280  148.4840 C   0  0  0  0  0  3  0  0  0  0  0  0
  187.3890  178.5500  147.5460 C   0  0  0  0  0  0  0  0  0  0  0  0
  189.6070  177.7410  148.0880 C   0  0  0  0  0  3  0  0  0  0  0  0
  183.5690  178.3370  142.5160 C   0  0  0  0  0  0  0  0  0  0  0  0
  183.4060  177.9520  141.1500 N   0  0  0  0  0  2  0  0  0  0  0  0
  182.5770  178.7260  143.1920 O   0  0  0  0  0  0  0  0  0  0  0  0
  181.8520  176.7960  139.8310 O   0  0  0  0  0  1  0  0  0  0  0  0
  182.1240  178.0150  140.4600 C   0  0  2  0  0  3  0  0  0  0  0  0
  183.5230  179.4590  138.9390 C   0  0  0  0  0  1  0  0  0  0  0  0
  182.1230  179.1490  139.4430 C   0  0  0  0  0  2  0  0  0  0  0  0
  1 18  1  0  0  0  0
  1 13  1  0  0  0  0
  2 16  1  0  0  0  0
  2  5  2  0  0  0  0
  4  8  2  0  0  0  0
  4  6  1  0  0  0  0
  5  7  1  0  0  0  0
  6  2  1  0  0  0  0
  7  3  1  6  0  0  0
  7 19  1  0  0  0  0
  8 12  1  0  0  0  0
  9  6  2  0  0  0  0
  9 17  1  0  0  0  0
 10  1  1  0  0  0  0
 11 23  1  0  0  0  0
 12 16  2  0  0  0  0
 13  9  1  0  0  0  0
 14 31  1  6  0  0  0
 15 14  1  0  0  0  0
 15  3  1  0  0  0  0
 16 11  1  0  0  0  0
 17 22  1  0  0  0  0
 17  5  1  0  0  0  0
 18  4  1  0  0  0  0
 19 25  1  1  0  0  0
 20  1  1  0  0  0  0
 21 14  1  0  0  0  0
 22 21  1  0  0  0  0
 23 19  1  0  0  0  0
 24 30  1  0  0  0  0
 25 26  1  0  0  0  0
 25 24  2  0  0  0  0
 26 29  2  0  0  0  0
 29 27  1  0  0  0  0
 29 28  1  0  0  0  0
 30 28  2  0  0  0  0
 31 33  2  0  0  0  0
 32 31  1  0  0  0  0
 35 34  1  6  0  0  0
 35 32  1  0  0  0  0
 36 37  1  0  0  0  0
 37 35  1  0  0  0  0
M  END
>  <MODEL>
5

>  <REMARK>
 VINA RESULT:      -6.8      2.973      6.174
  Name = 
  4 active torsions:
  status: ('A' for Active; 'I' for Inactive)
    1  A    between atoms: C_4  and  N_12
    2  A    between atoms: C_4  and  C_37
    3  A    between atoms: C_8  and  C_18
    4  A    between atoms: C_23  and  C_30
                            x       y       z     vdW  Elec       q    Type
                         _______ _______ _______ _____ _____    ______ ____

>  <TORSDO>
F 4

$$$$
=
 OpenBabel11122411343D

 37 42  0  0  1  0  0  0  0  0999 V2000
  188.2590  177.5090  147.3340 C   0  0  0  0  0  0  0  0  0  0  0  0
  189.3040  177.7790  143.3140 C   0  0  0  0  0  0  0  0  0  0  0  0
  187.0290  179.6370  141.4350 C   0  0  0  0  0  2  0  0  0  0  0  0
  190.1180  177.5870  145.5840 C   0  0  0  0  0  0  0  0  0  0  0  0
  188.0390  177.7130  142.7260 C   0  0  0  0  0  0  0  0  0  0  0  0
  189.1160  177.5600  144.6390 C   0  0  0  0  0  0  0  0  0  0  0  0
  187.6620  178.2390  141.3500 C   0  0  2  0  0  3  0  0  0  0  0  0
  191.4270  177.8220  145.1280 C   0  0  0  0  0  3  0  0  0  0  0  0
  187.8050  177.3280  144.8670 C   0  0  0  0  0  0  0  0  0  0  0  0
  188.0200  178.9960  147.5380 C   0  0  0  0  0  1  0  0  0  0  0  0
  190.8790  177.9060  141.4130 N   0  0  0  0  0  2  0  0  0  0  0  0
  191.6660  178.0020  143.7400 C   0  0  0  0  0  3  0  0  0  0  0  0
  187.2950  176.9840  146.2360 C   0  0  0  0  0  2  0  0  0  0  0  0
  184.8420  179.0190  142.1630 C   0  0  1  0  0  3  0  0  0  0  0  0
  186.0530  179.7530  142.5160 N   0  0  0  0  0  2  0  0  0  0  0  0
  190.6000  177.9590  142.8110 C   0  0  0  0  0  0  0  0  0  0  0  0
  187.1200  177.4000  143.7030 N   0  0  0  0  0  0  0  0  0  0  0  0
  189.7640  177.2700  147.0140 C   0  0  0  0  0  2  0  0  0  0  0  0
  188.7640  178.3020  140.2770 C   0  0  1  0  0  3  0  0  0  0  0  0
  187.9300  176.8010  148.6320 C   0  0  0  0  0  1  0  0  0  0  0  0
  185.0370  177.5030  142.2800 C   0  0  0  0  0  2  0  0  0  0  0  0
  185.6920  177.0710  143.5930 C   0  0  0  0  0  2  0  0  0  0  0  0
  189.9300  177.3460  140.4610 C   0  0  0  0  0  2  0  0  0  0  0  0
  189.0150  178.3100  137.7910 C   0  0  0  0  0  3  0  0  0  0  0  0
  188.1830  178.1600  138.9050 C   0  0  0  0  0  0  0  0  0  0  0  0
  186.8200  177.8780  138.7210 C   0  0  0  0  0  3  0  0  0  0  0  0
  184.8540  177.4540  137.2390 C   0  0  0  0  0  1  0  0  0  0  0  0
  187.1340  177.9040  136.3210 C   0  0  0  0  0  3  0  0  0  0  0  0
  186.2980  177.7510  137.4310 C   0  0  0  0  0  0  0  0  0  0  0  0
  188.4920  178.1830  136.5000 C   0  0  0  0  0  3  0  0  0  0  0  0
  183.6940  179.4800  143.0000 C   0  0  0  0  0  0  0  0  0  0  0  0
  182.3790  179.0060  142.7030 N   0  0  0  0  0  2  0  0  0  0  0  0
  183.8850  180.2650  143.9690 O   0  0  0  0  0  0  0  0  0  0  0  0
  180.7090  178.3410  144.2060 O   0  0  0  0  0  1  0  0  0  0  0  0
  181.2030  179.4150  143.4600 C   0  0  2  0  0  3  0  0  0  0  0  0
  180.4310  179.6240  141.0680 C   0  0  0  0  0  1  0  0  0  0  0  0
  180.1270  179.9490  142.5220 C   0  0  0  0  0  2  0  0  0  0  0  0
  1 10  1  0  0  0  0
  1 20  1  0  0  0  0
  2  6  1  0  0  0  0
  3 15  1  0  0  0  0
  4 18  1  0  0  0  0
  5  2  2  0  0  0  0
  5 17  1  0  0  0  0
  6  9  2  0  0  0  0
  6  4  1  0  0  0  0
  7  3  1  1  0  0  0
  7  5  1  0  0  0  0
  8  4  2  0  0  0  0
  9 13  1  0  0  0  0
 11 16  1  0  0  0  0
 12  8  1  0  0  0  0
 13  1  1  0  0  0  0
 14 21  1  0  0  0  0
 14 15  1  0  0  0  0
 14 31  1  1  0  0  0
 16  2  1  0  0  0  0
 16 12  2  0  0  0  0
 17  9  1  0  0  0  0
 18  1  1  0  0  0  0
 19 25  1  6  0  0  0
 19 23  1  0  0  0  0
 19  7  1  0  0  0  0
 21 22  1  0  0  0  0
 22 17  1  0  0  0  0
 23 11  1  0  0  0  0
 24 25  1  0  0  0  0
 26 25  2  0  0  0  0
 27 29  1  0  0  0  0
 28 30  1  0  0  0  0
 28 29  2  0  0  0  0
 29 26  1  0  0  0  0
 30 24  2  0  0  0  0
 31 33  2  0  0  0  0
 32 31  1  0  0  0  0
 32 35  1  0  0  0  0
 35 34  1  6  0  0  0
 36 37  1  0  0  0  0
 37 35  1  0  0  0  0
M  END
>  <MODEL>
6

>  <REMARK>
 VINA RESULT:      -6.8      3.065      8.126
  Name = 
  4 active torsions:
  status: ('A' for Active; 'I' for Inactive)
    1  A    between atoms: C_4  and  N_12
    2  A    between atoms: C_4  and  C_37
    3  A    between atoms: C_8  and  C_18
    4  A    between atoms: C_23  and  C_30
                            x       y       z     vdW  Elec       q    Type
                         _______ _______ _______ _____ _____    ______ ____

>  <TORSDO>
F 4

$$$$
=
 OpenBabel11122411343D

 37 42  0  0  1  0  0  0  0  0999 V2000
  187.4330  177.8770  143.4820 C   0  0  0  0  0  0  0  0  0  0  0  0
  183.5830  178.7090  142.1330 C   0  0  0  0  0  0  0  0  0  0  0  0
  182.7590  176.9890  139.2130 C   0  0  0  0  0  2  0  0  0  0  0  0
  185.0260  178.5040  144.0650 C   0  0  0  0  0  0  0  0  0  0  0  0
  183.8000  178.7030  140.7530 C   0  0  0  0  0  0  0  0  0  0  0  0
  184.8060  178.5850  142.7060 C   0  0  0  0  0  0  0  0  0  0  0  0
  182.7490  178.4530  139.6830 C   0  0  2  0  0  3  0  0  0  0  0  0
  183.9020  178.5950  144.9050 C   0  0  0  0  0  3  0  0  0  0  0  0
  185.7470  178.5430  141.7380 C   0  0  0  0  0  0  0  0  0  0  0  0
  187.3050  176.3650  143.4070 C   0  0  0  0  0  1  0  0  0  0  0  0
  181.1920  179.2780  142.3950 N   0  0  0  0  0  2  0  0  0  0  0  0
  182.6140  178.7780  144.3390 C   0  0  0  0  0  3  0  0  0  0  0  0
  187.2100  178.4770  142.0670 C   0  0  0  0  0  2  0  0  0  0  0  0
  184.6720  177.0620  137.7880 C   0  0  1  0  0  3  0  0  0  0  0  0
  184.1090  176.4720  138.9980 N   0  0  0  0  0  2  0  0  0  0  0  0
  182.4450  178.8610  142.9360 C   0  0  0  0  0  0  0  0  0  0  0  0
  185.1550  178.6310  140.5250 N   0  0  0  0  0  0  0  0  0  0  0  0
  186.4480  178.4230  144.5580 C   0  0  0  0  0  2  0  0  0  0  0  0
  181.2890  178.8170  140.0090 C   0  0  1  0  0  3  0  0  0  0  0  0
  188.8440  178.2060  143.9190 C   0  0  0  0  0  1  0  0  0  0  0  0
  185.0880  178.5220  138.0030 C   0  0  0  0  0  2  0  0  0  0  0  0
  185.9150  178.7410  139.2710 C   0  0  0  0  0  2  0  0  0  0  0  0
  181.0880  179.8800  141.0750 C   0  0  0  0  0  2  0  0  0  0  0  0
  179.6420  178.2490  138.2180 C   0  0  0  0  0  3  0  0  0  0  0  0
  180.5370  179.1740  138.7650 C   0  0  0  0  0  0  0  0  0  0  0  0
  180.7150  180.4200  138.1430 C   0  0  0  0  0  3  0  0  0  0  0  0
  180.1960  182.0510  136.3230 C   0  0  0  0  0  1  0  0  0  0  0  0
  179.1130  179.8030  136.4370 C   0  0  0  0  0  3  0  0  0  0  0  0
  180.0040  180.7320  136.9810 C   0  0  0  0  0  0  0  0  0  0  0  0
  178.9310  178.5610  137.0550 C   0  0  0  0  0  3  0  0  0  0  0  0
  185.8210  176.2420  137.2980 C   0  0  0  0  0  0  0  0  0  0  0  0
  187.0980  176.8590  137.1340 N   0  0  0  0  0  2  0  0  0  0  0  0
  185.6680  175.0160  137.0470 O   0  0  0  0  0  0  0  0  0  0  0  0
  188.6580  175.1680  137.5760 O   0  0  0  0  0  1  0  0  0  0  0  0
  188.2670  176.1370  136.6480 C   0  0  2  0  0  3  0  0  0  0  0  0
  189.0030  178.5490  136.6040 C   0  0  0  0  0  1  0  0  0  0  0  0
  189.4130  177.1030  136.3750 C   0  0  0  0  0  2  0  0  0  0  0  0
  1 20  1  0  0  0  0
  1 18  1  0  0  0  0
  2  6  1  0  0  0  0
  2 16  1  0  0  0  0
  4 18  1  0  0  0  0
  4  8  2  0  0  0  0
  5  2  2  0  0  0  0
  6  4  1  0  0  0  0
  7  3  1  1  0  0  0
  7 19  1  0  0  0  0
  7  5  1  0  0  0  0
  9 13  1  0  0  0  0
  9  6  2  0  0  0  0
 10  1  1  0  0  0  0
 11 16  1  0  0  0  0
 12  8  1  0  0  0  0
 13  1  1  0  0  0  0
 14 31  1  1  0  0  0
 14 21  1  0  0  0  0
 14 15  1  0  0  0  0
 15  3  1  0  0  0  0
 16 12  2  0  0  0  0
 17  5  1  0  0  0  0
 17  9  1  0  0  0  0
 19 25  1  6  0  0  0
 19 23  1  0  0  0  0
 21 22  1  0  0  0  0
 22 17  1  0  0  0  0
 23 11  1  0  0  0  0
 24 25  1  0  0  0  0
 26 25  2  0  0  0  0
 27 29  1  0  0  0  0
 28 29  2  0  0  0  0
 28 30  1  0  0  0  0
 29 26  1  0  0  0  0
 30 24  2  0  0  0  0
 32 31  1  0  0  0  0
 33 31  2  0  0  0  0
 35 32  1  0  0  0  0
 35 34  1  1  0  0  0
 37 36  1  0  0  0  0
 37 35  1  0  0  0  0
M  END
>  <MODEL>
7

>  <REMARK>
 VINA RESULT:      -6.8      3.853      9.185
  Name = 
  4 active torsions:
  status: ('A' for Active; 'I' for Inactive)
    1  A    between atoms: C_4  and  N_12
    2  A    between atoms: C_4  and  C_37
    3  A    between atoms: C_8  and  C_18
    4  A    between atoms: C_23  and  C_30
                            x       y       z     vdW  Elec       q    Type
                         _______ _______ _______ _____ _____    ______ ____

>  <TORSDO>
F 4

$$$$
=
 OpenBabel11122411343D

 37 42  0  0  1  0  0  0  0  0999 V2000
  190.9600  176.9220  143.8750 C   0  0  0  0  0  0  0  0  0  0  0  0
  188.4130  177.8620  140.7190 C   0  0  0  0  0  0  0  0  0  0  0  0
  185.6550  179.7530  141.7090 C   0  0  0  0  0  2  0  0  0  0  0  0
  190.6970  177.4220  141.3830 C   0  0  0  0  0  0  0  0  0  0  0  0
  187.1770  177.7650  141.3640 C   0  0  0  0  0  0  0  0  0  0  0  0
  189.3390  177.4380  141.6150 C   0  0  0  0  0  0  0  0  0  0  0  0
  185.8880  178.4460  140.9340 C   0  0  2  0  0  3  0  0  0  0  0  0
  191.1390  177.8390  140.1150 C   0  0  0  0  0  3  0  0  0  0  0  0
  188.7140  177.0570  142.7500 C   0  0  0  0  0  0  0  0  0  0  0  0
  191.0660  178.3360  144.4220 C   0  0  0  0  0  1  0  0  0  0  0  0
  187.8610  178.4040  138.3720 N   0  0  0  0  0  2  0  0  0  0  0  0
  190.1920  178.2370  139.1370 C   0  0  0  0  0  3  0  0  0  0  0  0
  189.4740  176.4740  143.9070 C   0  0  0  0  0  2  0  0  0  0  0  0
  184.8760  178.8390  143.7710 C   0  0  1  0  0  3  0  0  0  0  0  0
  185.9320  179.6220  143.1380 N   0  0  0  0  0  2  0  0  0  0  0  0
  188.8060  178.2310  139.4260 C   0  0  0  0  0  0  0  0  0  0  0  0
  187.3800  177.2320  142.6170 N   0  0  0  0  0  0  0  0  0  0  0  0
  191.6010  176.8710  142.4560 C   0  0  0  0  0  2  0  0  0  0  0  0
  185.7040  178.7630  139.4390 C   0  0  1  0  0  3  0  0  0  0  0  0
  191.7510  176.0090  144.7870 C   0  0  0  0  0  1  0  0  0  0  0  0
  184.9970  177.3460  143.4430 C   0  0  0  0  0  2  0  0  0  0  0  0
  186.4100  176.7920  143.6310 C   0  0  0  0  0  2  0  0  0  0  0  0
  186.4990  177.9020  138.4720 C   0  0  0  0  0  2  0  0  0  0  0  0
  183.5940  177.5480  138.8820 C   0  0  0  0  0  3  0  0  0  0  0  0
  184.2540  178.7670  139.0670 C   0  0  0  0  0  0  0  0  0  0  0  0
  183.5510  179.9700  138.9030 C   0  0  0  0  0  3  0  0  0  0  0  0
  181.4550  181.2260  138.3800 C   0  0  0  0  0  1  0  0  0  0  0  0
  181.5420  178.7290  138.3690 C   0  0  0  0  0  3  0  0  0  0  0  0
  182.1980  179.9500  138.5550 C   0  0  0  0  0  0  0  0  0  0  0  0
  182.2390  177.5280  138.5320 C   0  0  0  0  0  3  0  0  0  0  0  0
  184.8750  179.0670  145.2470 C   0  0  0  0  0  0  0  0  0  0  0  0
  186.1000  178.9480  145.9720 N   0  0  0  0  0  2  0  0  0  0  0  0
  183.8080  179.3780  145.8440 O   0  0  0  0  0  0  0  0  0  0  0  0
  186.0560  180.4950  147.7310 O   0  0  0  0  0  1  0  0  0  0  0  0
  186.1850  179.1400  147.4150 C   0  0  2  0  0  3  0  0  0  0  0  0
  188.0660  177.5000  147.0530 C   0  0  0  0  0  1  0  0  0  0  0  0
  187.5040  178.5940  147.9470 C   0  0  0  0  0  2  0  0  0  0  0  0
  1 13  1  0  0  0  0
  1 10  1  0  0  0  0
  1 20  1  0  0  0  0
  2  5  2  0  0  0  0
  2  6  1  0  0  0  0
  3 15  1  0  0  0  0
  4  6  1  0  0  0  0
  4 18  1  0  0  0  0
  5 17  1  0  0  0  0
  6  9  2  0  0  0  0
  7  5  1  0  0  0  0
  7  3  1  1  0  0  0
  8  4  2  0  0  0  0
  9 13  1  0  0  0  0
 11 23  1  0  0  0  0
 11 16  1  0  0  0  0
 12 16  2  0  0  0  0
 12  8  1  0  0  0  0
 14 31  1  1  0  0  0
 15 14  1  0  0  0  0
 16  2  1  0  0  0  0
 17  9  1  0  0  0  0
 17 22  1  0  0  0  0
 18  1  1  0  0  0  0
 19 25  1  6  0  0  0
 19  7  1  0  0  0  0
 21 22  1  0  0  0  0
 21 14  1  0  0  0  0
 23 19  1  0  0  0  0
 24 25  1  0  0  0  0
 26 25  2  0  0  0  0
 27 29  1  0  0  0  0
 28 30  1  0  0  0  0
 28 29  2  0  0  0  0
 29 26  1  0  0  0  0
 30 24  2  0  0  0  0
 31 33  2  0  0  0  0
 31 32  1  0  0  0  0
 32 35  1  0  0  0  0
 35 34  1  6  0  0  0
 35 37  1  0  0  0  0
 36 37  1  0  0  0  0
M  END
>  <MODEL>
8

>  <REMARK>
 VINA RESULT:      -6.6      3.100      8.990
  Name = 
  4 active torsions:
  status: ('A' for Active; 'I' for Inactive)
    1  A    between atoms: C_4  and  N_12
    2  A    between atoms: C_4  and  C_37
    3  A    between atoms: C_8  and  C_18
    4  A    between atoms: C_23  and  C_30
                            x       y       z     vdW  Elec       q    Type
                         _______ _______ _______ _____ _____    ______ ____

>  <TORSDO>
F 4

$$$$
=
 OpenBabel11122411343D

 37 42  0  0  1  0  0  0  0  0999 V2000
  189.3190  177.4260  142.8090 C   0  0  0  0  0  0  0  0  0  0  0  0
  185.3420  178.4310  143.5220 C   0  0  0  0  0  0  0  0  0  0  0  0
  183.1990  177.4130  140.9660 C   0  0  0  0  0  2  0  0  0  0  0  0
  187.4620  177.8270  144.5180 C   0  0  0  0  0  0  0  0  0  0  0  0
  184.9340  178.7530  142.2250 C   0  0  0  0  0  0  0  0  0  0  0  0
  186.6800  178.2150  143.4530 C   0  0  0  0  0  0  0  0  0  0  0  0
  183.5060  178.7260  141.7030 C   0  0  2  0  0  3  0  0  0  0  0  0
  186.8290  177.6860  145.7650 C   0  0  0  0  0  3  0  0  0  0  0  0
  187.0970  178.4280  142.1860 C   0  0  0  0  0  0  0  0  0  0  0  0
  189.0560  175.9690  142.4660 C   0  0  0  0  0  1  0  0  0  0  0  0
  183.3560  178.8510  144.9320 N   0  0  0  0  0  2  0  0  0  0  0  0
  185.4400  177.9570  145.8830 C   0  0  0  0  0  3  0  0  0  0  0  0
  188.5480  178.3310  141.8110 C   0  0  0  0  0  2  0  0  0  0  0  0
  184.2980  177.8730  138.8980 C   0  0  1  0  0  3  0  0  0  0  0  0
  184.2760  177.0020  140.0690 N   0  0  0  0  0  2  0  0  0  0  0  0
  184.6830  178.3580  144.7560 C   0  0  0  0  0  0  0  0  0  0  0  0
  186.0440  178.7770  141.4120 N   0  0  0  0  0  0  0  0  0  0  0  0
  188.9460  177.6770  144.3010 C   0  0  0  0  0  2  0  0  0  0  0  0
  182.3670  178.9600  142.7120 C   0  0  1  0  0  3  0  0  0  0  0  0
  190.8000  177.6870  142.6390 C   0  0  0  0  0  1  0  0  0  0  0  0
  184.8760  179.2550  139.2260 C   0  0  0  0  0  2  0  0  0  0  0  0
  186.1870  179.1980  140.0100 C   0  0  0  0  0  2  0  0  0  0  0  0
  182.7330  179.7400  143.9630 C   0  0  0  0  0  2  0  0  0  0  0  0
  180.0840  179.9690  142.8200 C   0  0  0  0  0  3  0  0  0  0  0  0
  181.1770  179.5740  142.0420 C   0  0  0  0  0  0  0  0  0  0  0  0
  181.1440  179.7580  140.6510 C   0  0  0  0  0  3  0  0  0  0  0  0
  179.9880  180.5240  138.5730 C   0  0  0  0  0  1  0  0  0  0  0  0
  178.9310  180.7230  140.8270 C   0  0  0  0  0  3  0  0  0  0  0  0
  180.0220  180.3310  140.0460 C   0  0  0  0  0  0  0  0  0  0  0  0
  178.9610  180.5430  142.2130 C   0  0  0  0  0  3  0  0  0  0  0  0
  185.0510  177.2250  137.7830 C   0  0  0  0  0  0  0  0  0  0  0  0
  186.4680  177.3940  137.7070 N   0  0  0  0  0  2  0  0  0  0  0  0
  184.4460  176.5230  136.9280 O   0  0  0  0  0  0  0  0  0  0  0  0
  187.7610  175.5590  137.0390 O   0  0  0  0  0  1  0  0  0  0  0  0
  187.2770  176.8090  136.6450 C   0  0  2  0  0  3  0  0  0  0  0  0
  188.2040  179.1490  136.7970 C   0  0  0  0  0  1  0  0  0  0  0  0
  188.4310  177.7360  136.2840 C   0  0  0  0  0  2  0  0  0  0  0  0
  1 18  1  0  0  0  0
  2 16  1  0  0  0  0
  4  8  2  0  0  0  0
  5  2  2  0  0  0  0
  6  2  1  0  0  0  0
  6  4  1  0  0  0  0
  7  3  1  1  0  0  0
  7  5  1  0  0  0  0
  7 19  1  0  0  0  0
  8 12  1  0  0  0  0
  9  6  2  0  0  0  0
 10  1  1  0  0  0  0
 13  9  1  0  0  0  0
 13  1  1  0  0  0  0
 14 31  1  6  0  0  0
 14 21  1  0  0  0  0
 14 15  1  0  0  0  0
 15  3  1  0  0  0  0
 16 11  1  0  0  0  0
 16 12  2  0  0  0  0
 17  9  1  0  0  0  0
 17  5  1  0  0  0  0
 18  4  1  0  0  0  0
 19 25  1  6  0  0  0
 19 23  1  0  0  0  0
 20  1  1  0  0  0  0
 21 22  1  0  0  0  0
 22 17  1  0  0  0  0
 23 11  1  0  0  0  0
 25 24  2  0  0  0  0
 26 25  1  0  0  0  0
 27 29  1  0  0  0  0
 28 30  2  0  0  0  0
 29 26  2  0  0  0  0
 29 28  1  0  0  0  0
 30 24  1  0  0  0  0
 32 31  1  0  0  0  0
 33 31  2  0  0  0  0
 35 34  1  1  0  0  0
 35 32  1  0  0  0  0
 37 35  1  0  0  0  0
 37 36  1  0  0  0  0
M  END
>  <MODEL>
9

>  <REMARK>
 VINA RESULT:      -6.6      3.394      8.186
  Name = 
  4 active torsions:
  status: ('A' for Active; 'I' for Inactive)
    1  A    between atoms: C_4  and  N_12
    2  A    between atoms: C_4  and  C_37
    3  A    between atoms: C_8  and  C_18
    4  A    between atoms: C_23  and  C_30
                            x       y       z     vdW  Elec       q    Type
                         _______ _______ _______ _____ _____    ______ ____

>  <TORSDO>
F 4

$$$$
