=
 OpenBabel11122410273D

 30 35  0  0  1  0  0  0  0  0999 V2000
  185.9920  178.3970  142.1110 C   0  0  0  0  0  0  0  0  0  0  0  0
  183.5460  178.9450  142.0960 C   0  0  0  0  0  0  0  0  0  0  0  0
  185.9550  177.9010  146.1760 C   0  0  0  0  0  3  0  0  0  0  0  0
  187.1600  178.0090  142.8410 C   0  0  0  0  0  0  0  0  0  0  0  0
  186.0870  178.5830  140.7260 C   0  0  0  0  0  3  0  0  0  0  0  0
  189.5770  177.6930  140.0150 O   0  0  0  0  0  1  0  0  0  0  0  0
  190.1020  177.9430  143.9000 C   0  0  1  0  0  3  0  0  0  0  0  0
  188.4030  177.9370  140.7240 C   0  0  0  0  0  0  0  0  0  0  0  0
  189.4040  177.5880  145.1130 N   0  0  0  0  0  0  0  0  0  0  0  0
  187.2780  177.6450  146.4550 C   0  0  0  0  0  0  0  0  0  0  0  0
  187.2760  178.3740  140.0340 C   0  0  0  0  0  0  0  0  0  0  0  0
  188.3610  177.7330  142.1150 C   0  0  0  0  0  0  0  0  0  0  0  0
  182.3520  179.0960  142.8040 C   0  0  0  0  0  3  0  0  0  0  0  0
  190.3030  177.1890  146.1780 C   0  0  0  0  0  2  0  0  0  0  0  0
  191.5670  177.6360  144.1520 C   0  0  0  0  0  2  0  0  0  0  0  0
  183.5060  179.1520  140.7570 F   0  0  0  0  0  0  0  0  0  0  0  0
  185.8250  178.0620  144.8430 N   0  0  0  0  0  0  0  0  0  0  0  0
  182.3140  178.8980  144.1810 C   0  0  0  0  0  3  0  0  0  0  0  0
  184.7440  178.5820  142.7730 C   0  0  0  0  0  0  0  0  0  0  0  0
  187.0290  177.9010  144.2510 C   0  0  0  0  0  0  0  0  0  0  0  0
  187.8270  177.4690  147.8280 C   0  0  0  0  0  1  0  0  0  0  0  0
  187.9760  177.6610  145.2520 C   0  0  0  0  0  0  0  0  0  0  0  0
  191.7040  177.4230  145.6510 C   0  0  0  0  0  2  0  0  0  0  0  0
  189.4040  175.6430  143.0180 C   0  0  0  0  0  1  0  0  0  0  0  0
  183.4740  178.5460  144.8630 C   0  0  0  0  0  3  0  0  0  0  0  0
  184.6870  178.3850  144.1740 C   0  0  0  0  0  0  0  0  0  0  0  0
  189.5880  177.1290  142.7270 C   0  0  2  0  0  3  0  0  0  0  0  0
  187.3470  178.5810  138.6550 O   0  0  0  0  0  0  0  0  0  0  0  0
  186.2150  177.3570  137.1140 C   0  0  0  0  0  1  0  0  0  0  0  0
  186.2160  178.5970  137.8680 N   0  0  0  0  0  2  0  0  0  0  0  0
  1 19  1  0  0  0  0
  1  4  1  0  0  0  0
  2 19  2  0  0  0  0
  2 13  1  0  0  0  0
  3 10  2  0  0  0  0
  4 20  1  0  0  0  0
  5  1  2  0  0  0  0
  6  8  1  0  0  0  0
  7 15  1  1  0  0  0
  7  9  1  0  0  0  0
  8 12  1  0  0  0  0
  9 22  1  0  0  0  0
  9 14  1  0  0  0  0
 10 21  1  0  0  0  0
 11  8  2  0  0  0  0
 11  5  1  0  0  0  0
 12 27  1  0  0  0  0
 12  4  2  0  0  0  0
 13 18  2  0  0  0  0
 15 23  1  0  0  0  0
 16  2  1  0  0  0  0
 17  3  1  0  0  0  0
 18 25  1  0  0  0  0
 19 26  1  0  0  0  0
 20 17  1  0  0  0  0
 20 22  2  0  0  0  0
 22 10  1  0  0  0  0
 23 14  1  0  0  0  0
 26 17  1  0  0  0  0
 26 25  2  0  0  0  0
 27 24  1  1  0  0  0
 27  7  1  0  0  0  0
 28 11  1  0  0  0  0
 29 30  1  0  0  0  0
 30 28  1  0  0  0  0
M  END
>  <MODEL>
1

>  <REMARK>
 VINA RESULT:     -10.9      0.000      0.000
  Name = 
  2 active torsions:
  status: ('A' for Active; 'I' for Inactive)
    1  A    between atoms: C_11  and  O_28
    2  A    between atoms: O_28  and  N_30
                            x       y       z     vdW  Elec       q    Type
                         _______ _______ _______ _____ _____    ______ ____

>  <TORSDO>
F 2

$$$$
=
 OpenBabel11122410273D

 30 35  0  0  1  0  0  0  0  0999 V2000
  189.5660  176.9390  143.5490 C   0  0  0  0  0  0  0  0  0  0  0  0
  191.4570  176.2310  145.0330 C   0  0  0  0  0  0  0  0  0  0  0  0
  187.2160  177.7980  146.7910 C   0  0  0  0  0  3  0  0  0  0  0  0
  188.2430  177.4680  143.4110 C   0  0  0  0  0  0  0  0  0  0  0  0
  190.2990  176.6340  142.3950 C   0  0  0  0  0  3  0  0  0  0  0  0
  188.0500  177.6840  139.6900 O   0  0  0  0  0  1  0  0  0  0  0  0
  185.2810  177.8230  142.4730 C   0  0  1  0  0  3  0  0  0  0  0  0
  188.5300  177.4290  140.9720 C   0  0  0  0  0  0  0  0  0  0  0  0
  185.1470  178.2400  143.8490 N   0  0  0  0  0  0  0  0  0  0  0  0
  186.0260  178.1650  146.2040 C   0  0  0  0  0  0  0  0  0  0  0  0
  189.7920  176.8580  141.1190 C   0  0  0  0  0  0  0  0  0  0  0  0
  187.7540  177.7550  142.0990 C   0  0  0  0  0  0  0  0  0  0  0  0
  191.9660  176.0660  146.3230 C   0  0  0  0  0  3  0  0  0  0  0  0
  183.8390  178.7940  144.1420 C   0  0  0  0  0  2  0  0  0  0  0  0
  183.9990  178.2480  141.7790 C   0  0  0  0  0  2  0  0  0  0  0  0
  192.2680  175.9010  143.9980 F   0  0  0  0  0  0  0  0  0  0  0  0
  188.0990  177.5090  145.8130 N   0  0  0  0  0  0  0  0  0  0  0  0
  191.1930  176.3860  147.4360 C   0  0  0  0  0  3  0  0  0  0  0  0
  190.1410  176.7330  144.8360 C   0  0  0  0  0  0  0  0  0  0  0  0
  187.5150  177.6940  144.6090 C   0  0  0  0  0  0  0  0  0  0  0  0
  184.7880  178.5010  146.9600 C   0  0  0  0  0  1  0  0  0  0  0  0
  186.1900  178.0860  144.8260 C   0  0  0  0  0  0  0  0  0  0  0  0
  183.0160  178.6050  142.8830 C   0  0  0  0  0  2  0  0  0  0  0  0
  186.6100  179.9830  142.1190 C   0  0  0  0  0  1  0  0  0  0  0  0
  189.9020  176.8740  147.2660 C   0  0  0  0  0  3  0  0  0  0  0  0
  189.3680  177.0520  145.9790 C   0  0  0  0  0  0  0  0  0  0  0  0
  186.4780  178.4920  141.8240 C   0  0  2  0  0  3  0  0  0  0  0  0
  190.5380  176.5310  139.9840 O   0  0  0  0  0  0  0  0  0  0  0  0
  192.2380  176.5620  138.4800 C   0  0  0  0  0  1  0  0  0  0  0  0
  191.7200  177.1750  139.6880 N   0  0  0  0  0  2  0  0  0  0  0  0
  1 19  1  0  0  0  0
  2 13  1  0  0  0  0
  4  1  1  0  0  0  0
  4 20  1  0  0  0  0
  5  1  2  0  0  0  0
  6  8  1  0  0  0  0
  7 15  1  6  0  0  0
  7  9  1  0  0  0  0
  8 11  2  0  0  0  0
  8 12  1  0  0  0  0
  9 14  1  0  0  0  0
  9 22  1  0  0  0  0
 10  3  2  0  0  0  0
 10 21  1  0  0  0  0
 11  5  1  0  0  0  0
 12  4  2  0  0  0  0
 13 18  2  0  0  0  0
 15 23  1  0  0  0  0
 16  2  1  0  0  0  0
 17 26  1  0  0  0  0
 17  3  1  0  0  0  0
 19  2  2  0  0  0  0
 19 26  1  0  0  0  0
 20 22  2  0  0  0  0
 20 17  1  0  0  0  0
 22 10  1  0  0  0  0
 23 14  1  0  0  0  0
 25 18  1  0  0  0  0
 26 25  2  0  0  0  0
 27 12  1  0  0  0  0
 27 24  1  1  0  0  0
 27  7  1  0  0  0  0
 28 11  1  0  0  0  0
 29 30  1  0  0  0  0
 30 28  1  0  0  0  0
M  END
>  <MODEL>
2

>  <REMARK>
 VINA RESULT:     -10.0      2.527      5.637
  Name = 
  2 active torsions:
  status: ('A' for Active; 'I' for Inactive)
    1  A    between atoms: C_11  and  O_28
    2  A    between atoms: O_28  and  N_30
                            x       y       z     vdW  Elec       q    Type
                         _______ _______ _______ _____ _____    ______ ____

>  <TORSDO>
F 2

$$$$
=
 OpenBabel11122410273D

 30 35  0  0  1  0  0  0  0  0999 V2000
  186.7140  177.8900  144.8690 C   0  0  0  0  0  0  0  0  0  0  0  0
  184.2780  178.3570  145.2300 C   0  0  0  0  0  0  0  0  0  0  0  0
  186.3680  178.6650  140.8620 C   0  0  0  0  0  3  0  0  0  0  0  0
  187.8380  177.8370  143.9840 C   0  0  0  0  0  0  0  0  0  0  0  0
  186.8990  177.5770  146.2220 C   0  0  0  0  0  3  0  0  0  0  0  0
  190.5110  176.9550  146.4340 O   0  0  0  0  0  1  0  0  0  0  0  0
  190.3980  176.8110  142.5100 C   0  0  1  0  0  3  0  0  0  0  0  0
  189.2600  177.2500  145.8980 C   0  0  0  0  0  0  0  0  0  0  0  0
  189.7550  177.5040  141.4180 N   0  0  0  0  0  0  0  0  0  0  0  0
  187.6360  178.3960  140.3990 C   0  0  0  0  0  0  0  0  0  0  0  0
  188.1480  177.2460  146.7370 C   0  0  0  0  0  0  0  0  0  0  0  0
  189.1280  177.5590  144.5320 C   0  0  0  0  0  0  0  0  0  0  0  0
  183.0450  178.7440  144.7000 C   0  0  0  0  0  3  0  0  0  0  0  0
  190.5970  177.5940  140.2400 C   0  0  0  0  0  2  0  0  0  0  0  0
  191.8180  176.5310  142.0520 C   0  0  0  0  0  2  0  0  0  0  0  0
  184.3270  178.0820  146.5560 F   0  0  0  0  0  0  0  0  0  0  0  0
  186.3540  178.4690  142.1970 N   0  0  0  0  0  0  0  0  0  0  0  0
  182.9170  179.0450  143.3470 C   0  0  0  0  0  3  0  0  0  0  0  0
  185.4250  178.2650  144.3930 C   0  0  0  0  0  0  0  0  0  0  0  0
  187.5850  178.0940  142.6100 C   0  0  0  0  0  0  0  0  0  0  0  0
  188.0320  178.4430  138.9640 C   0  0  0  0  0  1  0  0  0  0  0  0
  188.4130  178.0140  141.4860 C   0  0  0  0  0  0  0  0  0  0  0  0
  191.8390  176.7840  140.5530 C   0  0  0  0  0  2  0  0  0  0  0  0
  190.8030  179.1260  143.5260 C   0  0  0  0  0  1  0  0  0  0  0  0
  184.0250  178.9580  142.5100 C   0  0  0  0  0  3  0  0  0  0  0  0
  185.2760  178.5740  143.0180 C   0  0  0  0  0  0  0  0  0  0  0  0
  190.4080  177.6710  143.7600 C   0  0  2  0  0  3  0  0  0  0  0  0
  188.3040  176.9240  148.0870 O   0  0  0  0  0  0  0  0  0  0  0  0
  189.4030  178.6180  149.1240 C   0  0  0  0  0  1  0  0  0  0  0  0
  188.1590  177.8730  149.0760 N   0  0  0  0  0  2  0  0  0  0  0  0
  1  5  1  0  0  0  0
  2 16  1  0  0  0  0
  3 17  1  0  0  0  0
  4 12  1  0  0  0  0
  4  1  2  0  0  0  0
  5 11  2  0  0  0  0
  7 15  1  6  0  0  0
  7 27  1  0  0  0  0
  8  6  1  0  0  0  0
  8 11  1  0  0  0  0
  9 22  1  0  0  0  0
  9  7  1  0  0  0  0
 10  3  2  0  0  0  0
 10 22  1  0  0  0  0
 11 28  1  0  0  0  0
 12  8  2  0  0  0  0
 13  2  1  0  0  0  0
 14 23  1  0  0  0  0
 14  9  1  0  0  0  0
 17 20  1  0  0  0  0
 17 26  1  0  0  0  0
 18 13  2  0  0  0  0
 19  1  1  0  0  0  0
 19  2  2  0  0  0  0
 20  4  1  0  0  0  0
 21 10  1  0  0  0  0
 22 20  2  0  0  0  0
 23 15  1  0  0  0  0
 25 26  2  0  0  0  0
 25 18  1  0  0  0  0
 26 19  1  0  0  0  0
 27 24  1  6  0  0  0
 27 12  1  0  0  0  0
 28 30  1  0  0  0  0
 30 29  1  0  0  0  0
M  END
>  <MODEL>
3

>  <REMARK>
 VINA RESULT:      -9.9      2.734      5.413
  Name = 
  2 active torsions:
  status: ('A' for Active; 'I' for Inactive)
    1  A    between atoms: C_11  and  O_28
    2  A    between atoms: O_28  and  N_30
                            x       y       z     vdW  Elec       q    Type
                         _______ _______ _______ _____ _____    ______ ____

>  <TORSDO>
F 2

$$$$
=
 OpenBabel11122410273D

 30 35  0  0  1  0  0  0  0  0999 V2000
  187.1430  178.2750  140.4330 C   0  0  0  0  0  0  0  0  0  0  0  0
  184.8880  178.8050  139.4760 C   0  0  0  0  0  0  0  0  0  0  0  0
  185.5970  178.0750  144.2200 C   0  0  0  0  0  3  0  0  0  0  0  0
  187.9510  177.9480  141.5680 C   0  0  0  0  0  0  0  0  0  0  0  0
  187.7470  178.3610  139.1710 C   0  0  0  0  0  3  0  0  0  0  0  0
  191.2330  177.4420  139.8650 O   0  0  0  0  0  1  0  0  0  0  0  0
  190.2920  177.9770  143.6410 C   0  0  1  0  0  3  0  0  0  0  0  0
  189.8860  177.7300  140.0720 C   0  0  0  0  0  0  0  0  0  0  0  0
  189.1870  177.7060  144.5320 N   0  0  0  0  0  0  0  0  0  0  0  0
  186.7180  177.8480  144.9850 C   0  0  0  0  0  0  0  0  0  0  0  0
  189.1020  178.1090  138.9850 C   0  0  0  0  0  0  0  0  0  0  0  0
  189.3280  177.6270  141.3590 C   0  0  0  0  0  0  0  0  0  0  0  0
  183.5210  179.0010  139.6800 C   0  0  0  0  0  3  0  0  0  0  0  0
  189.6200  177.3910  145.8790 C   0  0  0  0  0  2  0  0  0  0  0  0
  191.5530  177.6970  144.4390 C   0  0  0  0  0  2  0  0  0  0  0  0
  185.3500  178.9150  138.2060 F   0  0  0  0  0  0  0  0  0  0  0  0
  185.9720  178.1380  142.9250 N   0  0  0  0  0  0  0  0  0  0  0  0
  182.9720  178.9030  140.9550 C   0  0  0  0  0  3  0  0  0  0  0  0
  185.7430  178.4990  140.5710 C   0  0  0  0  0  0  0  0  0  0  0  0
  187.3060  177.9420  142.8340 C   0  0  0  0  0  0  0  0  0  0  0  0
  186.7170  177.7750  146.4720 C   0  0  0  0  0  1  0  0  0  0  0  0
  187.8100  177.7810  144.1280 C   0  0  0  0  0  0  0  0  0  0  0  0
  191.1220  177.5950  145.8930 C   0  0  0  0  0  2  0  0  0  0  0  0
  189.9200  175.6140  142.7270 C   0  0  0  0  0  1  0  0  0  0  0  0
  183.7910  178.6090  142.0410 C   0  0  0  0  0  3  0  0  0  0  0  0
  185.1690  178.4050  141.8620 C   0  0  0  0  0  0  0  0  0  0  0  0
  190.2300  177.0760  142.4220 C   0  0  2  0  0  3  0  0  0  0  0  0
  189.6830  178.2150  137.7190 O   0  0  0  0  0  0  0  0  0  0  0  0
  188.7230  177.8000  135.7030 C   0  0  0  0  0  1  0  0  0  0  0  0
  189.5270  177.2300  136.7680 N   0  0  0  0  0  2  0  0  0  0  0  0
  1 19  1  0  0  0  0
  1  4  1  0  0  0  0
  2 13  2  0  0  0  0
  2 19  1  0  0  0  0
  3 10  2  0  0  0  0
  4 20  1  0  0  0  0
  5  1  2  0  0  0  0
  6  8  1  0  0  0  0
  7 15  1  1  0  0  0
  7  9  1  0  0  0  0
  8 12  1  0  0  0  0
  9 14  1  0  0  0  0
 10 21  1  0  0  0  0
 11  5  1  0  0  0  0
 11  8  2  0  0  0  0
 12  4  2  0  0  0  0
 12 27  1  0  0  0  0
 13 18  1  0  0  0  0
 14 23  1  0  0  0  0
 15 23  1  0  0  0  0
 16  2  1  0  0  0  0
 17  3  1  0  0  0  0
 18 25  2  0  0  0  0
 19 26  2  0  0  0  0
 20 17  1  0  0  0  0
 20 22  2  0  0  0  0
 22  9  1  0  0  0  0
 22 10  1  0  0  0  0
 26 25  1  0  0  0  0
 26 17  1  0  0  0  0
 27 24  1  1  0  0  0
 27  7  1  0  0  0  0
 28 11  1  0  0  0  0
 29 30  1  0  0  0  0
 30 28  1  0  0  0  0
M  END
>  <MODEL>
4

>  <REMARK>
 VINA RESULT:      -9.4      1.557      2.094
  Name = 
  2 active torsions:
  status: ('A' for Active; 'I' for Inactive)
    1  A    between atoms: C_11  and  O_28
    2  A    between atoms: O_28  and  N_30
                            x       y       z     vdW  Elec       q    Type
                         _______ _______ _______ _____ _____    ______ ____

>  <TORSDO>
F 2

$$$$
=
 OpenBabel11122410273D

 30 35  0  0  1  0  0  0  0  0999 V2000
  189.9940  177.4910  143.1490 C   0  0  0  0  0  0  0  0  0  0  0  0
  191.5710  177.3210  141.2090 C   0  0  0  0  0  0  0  0  0  0  0  0
  186.8440  178.2560  140.6460 C   0  0  0  0  0  3  0  0  0  0  0  0
  188.6610  177.6750  143.6380 C   0  0  0  0  0  0  0  0  0  0  0  0
  191.0290  177.2690  144.0670 C   0  0  0  0  0  3  0  0  0  0  0  0
  189.2690  177.1910  147.2870 O   0  0  0  0  0  1  0  0  0  0  0  0
  186.2440  178.7360  145.3140 C   0  0  1  0  0  3  0  0  0  0  0  0
  189.4940  177.3090  145.9180 C   0  0  0  0  0  0  0  0  0  0  0  0
  185.5980  178.5880  144.0320 N   0  0  0  0  0  0  0  0  0  0  0  0
  185.8090  178.4660  141.5290 C   0  0  0  0  0  0  0  0  0  0  0  0
  190.7950  177.1920  145.4360 C   0  0  0  0  0  0  0  0  0  0  0  0
  188.4190  177.5310  145.0390 C   0  0  0  0  0  0  0  0  0  0  0  0
  191.7720  177.3480  139.8280 C   0  0  0  0  0  3  0  0  0  0  0  0
  184.1630  178.7890  144.1010 C   0  0  0  0  0  2  0  0  0  0  0  0
  185.1290  178.9310  146.3270 C   0  0  0  0  0  2  0  0  0  0  0  0
  192.6550  177.0950  141.9910 F   0  0  0  0  0  0  0  0  0  0  0  0
  187.9540  177.9640  141.3550 N   0  0  0  0  0  0  0  0  0  0  0  0
  190.7060  177.5720  138.9600 C   0  0  0  0  0  3  0  0  0  0  0  0
  190.2710  177.5190  141.7520 C   0  0  0  0  0  0  0  0  0  0  0  0
  187.6590  177.9670  142.6740 C   0  0  0  0  0  0  0  0  0  0  0  0
  184.4330  178.8700  141.1270 C   0  0  0  0  0  1  0  0  0  0  0  0
  186.3100  178.3080  142.8150 C   0  0  0  0  0  0  0  0  0  0  0  0
  183.8730  179.2260  145.5230 C   0  0  0  0  0  2  0  0  0  0  0  0
  186.3390  176.1780  145.3790 C   0  0  0  0  0  1  0  0  0  0  0  0
  189.4280  177.7730  139.4700 C   0  0  0  0  0  3  0  0  0  0  0  0
  189.1990  177.7480  140.8550 C   0  0  0  0  0  0  0  0  0  0  0  0
  187.0530  177.4980  145.6540 C   0  0  2  0  0  3  0  0  0  0  0  0
  191.8470  176.9840  146.3310 O   0  0  0  0  0  0  0  0  0  0  0  0
  192.6940  175.7840  148.0620 C   0  0  0  0  0  1  0  0  0  0  0  0
  192.2580  175.7160  146.6800 N   0  0  0  0  0  2  0  0  0  0  0  0
  1  4  2  0  0  0  0
  1  5  1  0  0  0  0
  2 19  1  0  0  0  0
  2 16  1  0  0  0  0
  3 17  1  0  0  0  0
  3 10  2  0  0  0  0
  4 12  1  0  0  0  0
  5 11  2  0  0  0  0
  7 27  1  0  0  0  0
  7 15  1  1  0  0  0
  8  6  1  0  0  0  0
  9 14  1  0  0  0  0
  9  7  1  0  0  0  0
 10 22  1  0  0  0  0
 11  8  1  0  0  0  0
 11 28  1  0  0  0  0
 12 27  1  0  0  0  0
 12  8  2  0  0  0  0
 13  2  2  0  0  0  0
 14 23  1  0  0  0  0
 17 20  1  0  0  0  0
 18 25  2  0  0  0  0
 18 13  1  0  0  0  0
 19  1  1  0  0  0  0
 20 22  2  0  0  0  0
 20  4  1  0  0  0  0
 21 10  1  0  0  0  0
 22  9  1  0  0  0  0
 23 15  1  0  0  0  0
 25 26  1  0  0  0  0
 26 17  1  0  0  0  0
 26 19  2  0  0  0  0
 27 24  1  6  0  0  0
 28 30  1  0  0  0  0
 30 29  1  0  0  0  0
M  END
>  <MODEL>
5

>  <REMARK>
 VINA RESULT:      -9.1      3.130      6.866
  Name = 
  2 active torsions:
  status: ('A' for Active; 'I' for Inactive)
    1  A    between atoms: C_11  and  O_28
    2  A    between atoms: O_28  and  N_30
                            x       y       z     vdW  Elec       q    Type
                         _______ _______ _______ _____ _____    ______ ____

>  <TORSDO>
F 2

$$$$
=
 OpenBabel11122410273D

 30 35  0  0  1  0  0  0  0  0999 V2000
  185.9310  178.4000  142.4610 C   0  0  0  0  0  0  0  0  0  0  0  0
  186.7270  178.3120  144.8360 C   0  0  0  0  0  0  0  0  0  0  0  0
  182.0370  178.7630  143.6770 C   0  0  0  0  0  3  0  0  0  0  0  0
  184.8540  178.5430  141.5300 C   0  0  0  0  0  0  0  0  0  0  0  0
  187.2350  178.2440  141.9720 C   0  0  0  0  0  3  0  0  0  0  0  0
  186.7860  178.4990  138.3380 O   0  0  0  0  0  1  0  0  0  0  0  0
  182.9600  178.0320  139.0940 C   0  0  1  0  0  3  0  0  0  0  0  0
  186.4850  178.4520  139.6970 C   0  0  0  0  0  0  0  0  0  0  0  0
  181.9860  178.4700  140.0660 N   0  0  0  0  0  0  0  0  0  0  0  0
  181.3530  178.7620  142.4820 C   0  0  0  0  0  0  0  0  0  0  0  0
  187.5170  178.2530  140.6100 C   0  0  0  0  0  0  0  0  0  0  0  0
  185.1580  178.6160  140.1350 C   0  0  0  0  0  0  0  0  0  0  0  0
  186.4250  178.3600  146.1990 C   0  0  0  0  0  3  0  0  0  0  0  0
  180.6690  178.6630  139.4900 C   0  0  0  0  0  2  0  0  0  0  0  0
  182.2540  178.0560  137.7500 C   0  0  0  0  0  2  0  0  0  0  0  0
  188.0290  178.1590  144.4920 F   0  0  0  0  0  0  0  0  0  0  0  0
  183.3570  178.6720  143.4110 N   0  0  0  0  0  0  0  0  0  0  0  0
  185.1110  178.5180  146.6290 C   0  0  0  0  0  3  0  0  0  0  0  0
  185.6930  178.4270  143.8650 C   0  0  0  0  0  0  0  0  0  0  0  0
  183.5440  178.6270  142.0730 C   0  0  0  0  0  0  0  0  0  0  0  0
  179.8690  178.7900  142.3660 C   0  0  0  0  0  1  0  0  0  0  0  0
  182.2880  178.6570  141.4580 C   0  0  0  0  0  0  0  0  0  0  0  0
  180.7700  178.1910  138.0530 C   0  0  0  0  0  2  0  0  0  0  0  0
  183.8050  180.4480  139.0930 C   0  0  0  0  0  1  0  0  0  0  0  0
  184.0850  178.6280  145.6970 C   0  0  0  0  0  3  0  0  0  0  0  0
  184.3610  178.5860  144.3210 C   0  0  0  0  0  0  0  0  0  0  0  0
  184.1570  178.9640  139.0760 C   0  0  2  0  0  3  0  0  0  0  0  0
  188.8240  178.0810  140.1490 O   0  0  0  0  0  0  0  0  0  0  0  0
  190.8820  177.1280  140.0430 C   0  0  0  0  0  1  0  0  0  0  0  0
  189.7930  177.4910  140.9310 N   0  0  0  0  0  2  0  0  0  0  0  0
  1 19  1  0  0  0  0
  2 13  1  0  0  0  0
  4 20  1  0  0  0  0
  4  1  2  0  0  0  0
  5  1  1  0  0  0  0
  6  8  1  0  0  0  0
  7 15  1  6  0  0  0
  7  9  1  0  0  0  0
  8 12  2  0  0  0  0
  8 11  1  0  0  0  0
  9 22  1  0  0  0  0
 10  3  2  0  0  0  0
 11  5  2  0  0  0  0
 12  4  1  0  0  0  0
 13 18  2  0  0  0  0
 14  9  1  0  0  0  0
 15 23  1  0  0  0  0
 16  2  1  0  0  0  0
 17  3  1  0  0  0  0
 17 26  1  0  0  0  0
 19 26  1  0  0  0  0
 19  2  2  0  0  0  0
 20 17  1  0  0  0  0
 21 10  1  0  0  0  0
 22 20  2  0  0  0  0
 22 10  1  0  0  0  0
 23 14  1  0  0  0  0
 25 18  1  0  0  0  0
 26 25  2  0  0  0  0
 27 24  1  1  0  0  0
 27  7  1  0  0  0  0
 27 12  1  0  0  0  0
 28 11  1  0  0  0  0
 28 30  1  0  0  0  0
 29 30  1  0  0  0  0
M  END
>  <MODEL>
6

>  <REMARK>
 VINA RESULT:      -8.8      2.609      6.218
  Name = 
  2 active torsions:
  status: ('A' for Active; 'I' for Inactive)
    1  A    between atoms: C_11  and  O_28
    2  A    between atoms: O_28  and  N_30
                            x       y       z     vdW  Elec       q    Type
                         _______ _______ _______ _____ _____    ______ ____

>  <TORSDO>
F 2

$$$$
=
 OpenBabel11122410273D

 30 35  0  0  1  0  0  0  0  0999 V2000
  187.5150  177.6820  143.2270 C   0  0  0  0  0  0  0  0  0  0  0  0
  186.3680  177.9910  145.4340 C   0  0  0  0  0  0  0  0  0  0  0  0
  184.2190  179.0470  141.2150 C   0  0  0  0  0  3  0  0  0  0  0  0
  187.4930  177.8100  141.8020 C   0  0  0  0  0  0  0  0  0  0  0  0
  188.6640  177.1730  143.8460 C   0  0  0  0  0  3  0  0  0  0  0  0
  190.9600  176.6690  141.0260 O   0  0  0  0  0  1  0  0  0  0  0  0
  187.7810  177.1240  138.7650 C   0  0  1  0  0  3  0  0  0  0  0  0
  189.8080  176.9930  141.7380 C   0  0  0  0  0  0  0  0  0  0  0  0
  186.5980  177.9500  138.7110 N   0  0  0  0  0  0  0  0  0  0  0  0
  184.5960  178.9030  139.8990 C   0  0  0  0  0  0  0  0  0  0  0  0
  189.7950  176.8160  143.1190 C   0  0  0  0  0  0  0  0  0  0  0  0
  188.6800  177.5020  141.0680 C   0  0  0  0  0  0  0  0  0  0  0  0
  185.2410  178.4060  146.1470 C   0  0  0  0  0  3  0  0  0  0  0  0
  186.1870  178.2530  137.3540 C   0  0  0  0  0  2  0  0  0  0  0  0
  188.2540  176.9730  137.3300 C   0  0  0  0  0  2  0  0  0  0  0  0
  187.4170  177.5180  146.1510 F   0  0  0  0  0  0  0  0  0  0  0  0
  185.2450  178.6490  141.9960 N   0  0  0  0  0  0  0  0  0  0  0  0
  184.1250  178.9050  145.4810 C   0  0  0  0  0  3  0  0  0  0  0  0
  186.3940  178.0750  144.0150 C   0  0  0  0  0  0  0  0  0  0  0  0
  186.2800  178.2640  141.2170 C   0  0  0  0  0  0  0  0  0  0  0  0
  183.7080  179.1850  138.7370 C   0  0  0  0  0  1  0  0  0  0  0  0
  185.8880  178.3900  139.8810 C   0  0  0  0  0  0  0  0  0  0  0  0
  187.1080  177.4540  136.4530 C   0  0  0  0  0  2  0  0  0  0  0  0
  189.0560  179.2700  139.3340 C   0  0  0  0  0  1  0  0  0  0  0  0
  184.1280  178.9920  144.0920 C   0  0  0  0  0  3  0  0  0  0  0  0
  185.2500  178.5840  143.3530 C   0  0  0  0  0  0  0  0  0  0  0  0
  188.8580  177.7820  139.6070 C   0  0  2  0  0  3  0  0  0  0  0  0
  190.9230  176.2980  143.7590 O   0  0  0  0  0  0  0  0  0  0  0  0
  191.6810  176.3780  145.8980 C   0  0  0  0  0  1  0  0  0  0  0  0
  191.6810  177.0630  144.6190 N   0  0  0  0  0  2  0  0  0  0  0  0
  1  5  1  0  0  0  0
  1 19  1  0  0  0  0
  2 13  1  0  0  0  0
  2 16  1  0  0  0  0
  3 17  1  0  0  0  0
  4  1  2  0  0  0  0
  6  8  1  0  0  0  0
  7 15  1  6  0  0  0
  7 27  1  0  0  0  0
  8 11  1  0  0  0  0
  9  7  1  0  0  0  0
  9 22  1  0  0  0  0
 10  3  2  0  0  0  0
 11 28  1  0  0  0  0
 11  5  2  0  0  0  0
 12  8  2  0  0  0  0
 12  4  1  0  0  0  0
 14  9  1  0  0  0  0
 17 26  1  0  0  0  0
 18 13  2  0  0  0  0
 19  2  2  0  0  0  0
 20  4  1  0  0  0  0
 20 17  1  0  0  0  0
 21 10  1  0  0  0  0
 22 10  1  0  0  0  0
 22 20  2  0  0  0  0
 23 15  1  0  0  0  0
 23 14  1  0  0  0  0
 25 18  1  0  0  0  0
 26 19  1  0  0  0  0
 26 25  2  0  0  0  0
 27 24  1  1  0  0  0
 27 12  1  0  0  0  0
 28 30  1  0  0  0  0
 30 29  1  0  0  0  0
M  END
>  <MODEL>
7

>  <REMARK>
 VINA RESULT:      -8.7      2.103      5.756
  Name = 
  2 active torsions:
  status: ('A' for Active; 'I' for Inactive)
    1  A    between atoms: C_11  and  O_28
    2  A    between atoms: O_28  and  N_30
                            x       y       z     vdW  Elec       q    Type
                         _______ _______ _______ _____ _____    ______ ____

>  <TORSDO>
F 2

$$$$
=
 OpenBabel11122410273D

 30 35  0  0  1  0  0  0  0  0999 V2000
  188.0780  178.0680  140.8170 C   0  0  0  0  0  0  0  0  0  0  0  0
  190.2390  177.5570  139.6550 C   0  0  0  0  0  0  0  0  0  0  0  0
  189.8410  177.6400  144.4890 C   0  0  0  0  0  3  0  0  0  0  0  0
  187.3560  178.2740  142.0360 C   0  0  0  0  0  0  0  0  0  0  0  0
  187.4020  178.1960  139.5970 C   0  0  0  0  0  3  0  0  0  0  0  0
  184.0240  179.1950  140.6320 O   0  0  0  0  0  1  0  0  0  0  0  0
  185.1370  178.0770  144.2290 C   0  0  1  0  0  3  0  0  0  0  0  0
  185.3590  178.8080  140.7100 C   0  0  0  0  0  0  0  0  0  0  0  0
  186.3030  178.1570  145.0770 N   0  0  0  0  0  0  0  0  0  0  0  0
  188.7790  177.8170  145.3480 C   0  0  0  0  0  0  0  0  0  0  0  0
  186.0570  178.5460  139.5340 C   0  0  0  0  0  0  0  0  0  0  0  0
  185.9930  178.6950  141.9610 C   0  0  0  0  0  0  0  0  0  0  0  0
  191.6010  177.2600  139.7420 C   0  0  0  0  0  3  0  0  0  0  0  0
  185.9660  178.3000  146.4800 C   0  0  0  0  0  2  0  0  0  0  0  0
  183.9410  178.3080  145.1360 C   0  0  0  0  0  2  0  0  0  0  0  0
  189.7020  177.6550  138.4140 F   0  0  0  0  0  0  0  0  0  0  0  0
  189.3910  177.7840  143.2250 N   0  0  0  0  0  0  0  0  0  0  0  0
  192.2240  177.1450  140.9820 C   0  0  0  0  0  3  0  0  0  0  0  0
  189.4670  177.7500  140.8340 C   0  0  0  0  0  0  0  0  0  0  0  0
  188.0700  178.0640  143.2460 C   0  0  0  0  0  0  0  0  0  0  0  0
  188.8670  177.6770  146.8280 C   0  0  0  0  0  1  0  0  0  0  0  0
  187.6480  178.0650  144.5800 C   0  0  0  0  0  0  0  0  0  0  0  0
  184.4570  178.1790  146.5600 C   0  0  0  0  0  2  0  0  0  0  0  0
  185.6060  180.5220  143.6310 C   0  0  0  0  0  1  0  0  0  0  0  0
  191.4860  177.3250  142.1470 C   0  0  0  0  0  3  0  0  0  0  0  0
  190.1160  177.6280  142.0860 C   0  0  0  0  0  0  0  0  0  0  0  0
  185.1870  179.1370  143.1450 C   0  0  2  0  0  3  0  0  0  0  0  0
  185.4020  178.6520  138.3050 O   0  0  0  0  0  0  0  0  0  0  0  0
  184.7040  176.9100  137.0270 C   0  0  0  0  0  1  0  0  0  0  0  0
  185.7660  177.8790  137.2240 N   0  0  0  0  0  2  0  0  0  0  0  0
  1 19  1  0  0  0  0
  1  4  1  0  0  0  0
  2 13  2  0  0  0  0
  2 19  1  0  0  0  0
  3 10  2  0  0  0  0
  4 20  1  0  0  0  0
  5  1  2  0  0  0  0
  6  8  1  0  0  0  0
  7  9  1  0  0  0  0
  7 15  1  1  0  0  0
  8 12  1  0  0  0  0
  9 14  1  0  0  0  0
 10 21  1  0  0  0  0
 11  5  1  0  0  0  0
 11  8  2  0  0  0  0
 12  4  2  0  0  0  0
 12 27  1  0  0  0  0
 13 18  1  0  0  0  0
 14 23  1  0  0  0  0
 15 23  1  0  0  0  0
 16  2  1  0  0  0  0
 17 20  1  0  0  0  0
 17  3  1  0  0  0  0
 18 25  2  0  0  0  0
 19 26  2  0  0  0  0
 20 22  2  0  0  0  0
 22  9  1  0  0  0  0
 22 10  1  0  0  0  0
 26 25  1  0  0  0  0
 26 17  1  0  0  0  0
 27 24  1  1  0  0  0
 27  7  1  0  0  0  0
 28 11  1  0  0  0  0
 29 30  1  0  0  0  0
 30 28  1  0  0  0  0
M  END
>  <MODEL>
8

>  <REMARK>
 VINA RESULT:      -8.0      2.021      5.114
  Name = 
  2 active torsions:
  status: ('A' for Active; 'I' for Inactive)
    1  A    between atoms: C_11  and  O_28
    2  A    between atoms: O_28  and  N_30
                            x       y       z     vdW  Elec       q    Type
                         _______ _______ _______ _____ _____    ______ ____

>  <TORSDO>
F 2

$$$$
=
 OpenBabel11122410273D

 30 35  0  0  1  0  0  0  0  0999 V2000
  188.3110  178.1040  141.3110 C   0  0  0  0  0  0  0  0  0  0  0  0
  189.3260  178.1320  143.6010 C   0  0  0  0  0  0  0  0  0  0  0  0
  191.8030  176.7240  139.6740 C   0  0  0  0  0  3  0  0  0  0  0  0
  188.4330  177.8100  139.9150 C   0  0  0  0  0  0  0  0  0  0  0  0
  187.0960  178.6080  141.7950 C   0  0  0  0  0  3  0  0  0  0  0  0
  184.9650  178.6260  138.8060 O   0  0  0  0  0  1  0  0  0  0  0  0
  188.3050  178.1120  136.8050 C   0  0  1  0  0  3  0  0  0  0  0  0
  186.0840  178.4630  139.6180 C   0  0  0  0  0  0  0  0  0  0  0  0
  189.5340  177.3630  136.9220 N   0  0  0  0  0  0  0  0  0  0  0  0
  191.5050  176.6880  138.3310 C   0  0  0  0  0  0  0  0  0  0  0  0
  185.9970  178.8020  140.9650 C   0  0  0  0  0  0  0  0  0  0  0  0
  187.2800  177.9520  139.0820 C   0  0  0  0  0  0  0  0  0  0  0  0
  190.4260  177.8770  144.4230 C   0  0  0  0  0  3  0  0  0  0  0  0
  190.0490  176.9290  135.6380 C   0  0  0  0  0  2  0  0  0  0  0  0
  187.9200  178.0610  135.3380 C   0  0  0  0  0  2  0  0  0  0  0  0
  188.2070  178.6180  144.1930 F   0  0  0  0  0  0  0  0  0  0  0  0
  190.7080  177.1460  140.3400 N   0  0  0  0  0  0  0  0  0  0  0  0
  191.6100  177.3760  143.8890 C   0  0  0  0  0  3  0  0  0  0  0  0
  189.3980  177.8800  142.2040 C   0  0  0  0  0  0  0  0  0  0  0  0
  189.7050  177.3680  139.4620 C   0  0  0  0  0  0  0  0  0  0  0  0
  192.4810  176.3280  137.2660 C   0  0  0  0  0  1  0  0  0  0  0  0
  190.1900  177.1110  138.1760 C   0  0  0  0  0  0  0  0  0  0  0  0
  189.1450  177.5540  134.5940 C   0  0  0  0  0  2  0  0  0  0  0  0
  187.1200  175.9710  137.5580 C   0  0  0  0  0  1  0  0  0  0  0  0
  191.7030  177.1260  142.5240 C   0  0  0  0  0  3  0  0  0  0  0  0
  190.6100  177.3710  141.6770 C   0  0  0  0  0  0  0  0  0  0  0  0
  187.2150  177.4900  137.6580 C   0  0  2  0  0  3  0  0  0  0  0  0
  184.8020  179.3200  141.4710 O   0  0  0  0  0  0  0  0  0  0  0  0
  183.6090  178.9640  143.3700 C   0  0  0  0  0  1  0  0  0  0  0  0
  183.8340  178.5020  142.0120 N   0  0  0  0  0  2  0  0  0  0  0  0
  1  5  1  0  0  0  0
  1 19  1  0  0  0  0
  2 16  1  0  0  0  0
  2 13  1  0  0  0  0
  3 17  1  0  0  0  0
  4  1  2  0  0  0  0
  6  8  1  0  0  0  0
  7 15  1  6  0  0  0
  7  9  1  0  0  0  0
  7 27  1  0  0  0  0
  8 11  1  0  0  0  0
  9 22  1  0  0  0  0
 10  3  2  0  0  0  0
 11 28  1  0  0  0  0
 11  5  2  0  0  0  0
 12  8  2  0  0  0  0
 12  4  1  0  0  0  0
 14  9  1  0  0  0  0
 17 26  1  0  0  0  0
 18 13  2  0  0  0  0
 19  2  2  0  0  0  0
 20  4  1  0  0  0  0
 20 17  1  0  0  0  0
 21 10  1  0  0  0  0
 22 10  1  0  0  0  0
 22 20  2  0  0  0  0
 23 15  1  0  0  0  0
 23 14  1  0  0  0  0
 25 18  1  0  0  0  0
 26 19  1  0  0  0  0
 26 25  2  0  0  0  0
 27 24  1  1  0  0  0
 27 12  1  0  0  0  0
 28 30  1  0  0  0  0
 30 29  1  0  0  0  0
M  END
>  <MODEL>
9

>  <REMARK>
 VINA RESULT:      -8.0      2.846      6.984
  Name = 
  2 active torsions:
  status: ('A' for Active; 'I' for Inactive)
    1  A    between atoms: C_11  and  O_28
    2  A    between atoms: O_28  and  N_30
                            x       y       z     vdW  Elec       q    Type
                         _______ _______ _______ _____ _____    ______ ____

>  <TORSDO>
F 2

$$$$
