=
 OpenBabel11122412053D

 34 40  0  0  1  0  0  0  0  0999 V2000
  181.8120  178.7390  143.1620 C   0  0  0  0  0  0  0  0  0  0  0  0
  183.4500  179.0670  145.0500 C   0  0  0  0  0  3  0  0  0  0  0  0
  180.2690  175.9450  137.5120 C   0  0  0  0  0  0  0  0  0  0  0  0
  180.4620  177.9680  141.3190 C   0  0  0  0  0  0  0  0  0  0  0  0
  181.5470  177.6450  139.0040 C   0  0  2  0  0  3  0  0  0  0  0  0
  182.0600  177.3950  136.5610 C   0  0  0  0  0  1  0  0  0  0  0  0
  180.3180  174.7370  137.3530 O   0  0  0  0  0  0  0  0  0  0  0  0
  178.9630  178.1060  137.7490 C   0  0  0  0  0  2  0  0  0  0  0  0
  184.2470  179.3830  142.8610 C   0  0  2  0  0  3  0  0  0  0  0  0
  186.9390  177.9310  142.4270 N   0  0  0  0  0  0  0  0  0  0  0  0
  182.8280  177.4520  139.8060 C   0  0  0  0  0  2  0  0  0  0  0  0
  179.1080  178.3130  139.2580 C   0  0  0  0  0  2  0  0  0  0  0  0
  184.2500  178.4350  141.6420 C   0  0  1  0  0  3  0  0  0  0  0  0
  184.7620  179.1370  145.1860 C   0  0  0  0  0  3  0  0  0  0  0  0
  180.2770  177.5400  139.8820 C   0  0  2  0  0  3  0  0  0  0  0  0
  178.9310  176.6290  137.3750 C   0  0  0  0  0  2  0  0  0  0  0  0
  186.3360  178.0550  143.5750 C   0  0  0  0  0  0  0  0  0  0  0  0
  181.7120  178.3930  141.8090 C   0  0  0  0  0  0  0  0  0  0  0  0
  181.5580  176.6820  137.8030 C   0  0  2  0  0  3  0  0  0  0  0  0
  182.9080  178.5180  140.8910 C   0  0  2  0  0  3  0  0  0  0  0  0
  179.5360  178.1980  143.4910 C   0  0  0  0  0  3  0  0  0  0  0  0
  186.7740  178.8890  141.3390 C   0  0  0  0  0  2  0  0  0  0  0  0
  179.4110  177.8700  142.1790 N   0  0  0  0  0  0  0  0  0  0  0  0
  185.4010  178.7560  140.6750 C   0  0  0  0  0  2  0  0  0  0  0  0
  185.4330  179.2440  143.8460 C   0  0  1  0  0  3  0  0  0  0  0  0
  180.7290  178.6270  143.9750 N   0  0  0  0  0  0  0  0  0  0  0  0
  183.0760  179.1500  143.6870 N   0  0  0  0  0  0  0  0  0  0  0  0
  186.5310  177.0940  144.5730 O   0  0  0  0  0  0  0  0  0  0  0  0
  187.8210  176.7620  145.0700 C   0  0  0  0  0  2  0  0  0  0  0  0
  188.0210  177.9770  148.4880 N   0  0  0  0  0  2  0  0  0  0  0  0
  189.5550  177.3800  146.7360 C   0  0  0  0  0  2  0  0  0  0  0  0
  188.2580  177.7870  146.0990 C   0  0  2  0  0  3  0  0  0  0  0  0
  189.4370  177.8900  148.1510 C   0  0  0  0  0  2  0  0  0  0  0  0
  187.2730  177.8230  147.2440 C   0  0  0  0  0  2  0  0  0  0  0  0
  1 27  1  0  0  0  0
  1 26  1  0  0  0  0
  2 14  2  0  0  0  0
  3 19  1  0  0  0  0
  4 18  1  0  0  0  0
  4 23  2  0  0  0  0
  5 11  1  1  0  0  0
  5 15  1  0  0  0  0
  7  3  2  0  0  0  0
  8 12  1  0  0  0  0
  9 27  1  1  0  0  0
  9 25  1  0  0  0  0
 10 17  2  0  0  0  0
 13 24  1  6  0  0  0
 13  9  1  0  0  0  0
 15 12  1  6  0  0  0
 15  4  1  0  0  0  0
 16  3  1  0  0  0  0
 16  8  1  0  0  0  0
 17 25  1  0  0  0  0
 17 28  1  0  0  0  0
 18  1  2  0  0  0  0
 19  6  1  6  0  0  0
 19  5  1  0  0  0  0
 20 11  1  6  0  0  0
 20 13  1  0  0  0  0
 20 18  1  0  0  0  0
 21 26  2  0  0  0  0
 22 10  1  0  0  0  0
 23 21  1  0  0  0  0
 24 22  1  0  0  0  0
 25 14  1  1  0  0  0
 27  2  1  0  0  0  0
 28 29  1  0  0  0  0
 31 33  1  0  0  0  0
 32 29  1  6  0  0  0
 32 31  1  0  0  0  0
 32 34  1  0  0  0  0
 33 30  1  0  0  0  0
 34 30  1  0  0  0  0
M  END
>  <MODEL>
1

>  <REMARK>
 VINA RESULT:      -8.7      0.000      0.000
  Name = 
  3 active torsions:
  status: ('A' for Active; 'I' for Inactive)
    1  A    between atoms: C_17  and  O_28
    2  A    between atoms: O_28  and  C_29
    3  A    between atoms: C_29  and  C_32
                            x       y       z     vdW  Elec       q    Type
                         _______ _______ _______ _____ _____    ______ ____

>  <TORSDO>
F 3

$$$$
=
 OpenBabel11122412053D

 34 40  0  0  1  0  0  0  0  0999 V2000
  188.2880  177.4890  138.1610 C   0  0  0  0  0  0  0  0  0  0  0  0
  186.8260  178.3660  140.0170 C   0  0  0  0  0  3  0  0  0  0  0  0
  192.9920  173.4930  136.1540 C   0  0  0  0  0  0  0  0  0  0  0  0
  189.6870  176.2230  136.6590 C   0  0  0  0  0  0  0  0  0  0  0  0
  192.0770  175.5890  137.3880 C   0  0  2  0  0  3  0  0  0  0  0  0
  194.4940  174.9330  137.5270 C   0  0  0  0  0  1  0  0  0  0  0  0
  192.9510  172.2920  136.3570 O   0  0  0  0  0  0  0  0  0  0  0  0
  192.8830  175.4910  134.5940 C   0  0  0  0  0  2  0  0  0  0  0  0
  189.1470  178.3450  140.3880 C   0  0  2  0  0  3  0  0  0  0  0  0
  189.8270  177.1640  143.1610 N   0  0  0  0  0  0  0  0  0  0  0  0
  191.5090  175.7060  138.7960 C   0  0  0  0  0  2  0  0  0  0  0  0
  191.4850  176.0010  134.9500 C   0  0  0  0  0  2  0  0  0  0  0  0
  190.1670  177.1870  140.3350 C   0  0  1  0  0  3  0  0  0  0  0  0
  186.9520  178.6150  141.3070 C   0  0  0  0  0  3  0  0  0  0  0  0
  190.9700  175.5060  136.3090 C   0  0  2  0  0  3  0  0  0  0  0  0
  192.9890  173.9750  134.7240 C   0  0  0  0  0  2  0  0  0  0  0  0
  188.6240  177.4360  142.7420 C   0  0  0  0  0  0  0  0  0  0  0  0
  189.5200  176.8780  137.8940 C   0  0  0  0  0  0  0  0  0  0  0  0
  193.0780  174.4200  137.3470 C   0  0  2  0  0  3  0  0  0  0  0  0
  190.6550  176.9640  138.8910 C   0  0  2  0  0  3  0  0  0  0  0  0
  187.4510  176.7570  136.0760 C   0  0  0  0  0  3  0  0  0  0  0  0
  191.0110  177.8670  142.6790 C   0  0  0  0  0  2  0  0  0  0  0  0
  188.6410  176.1690  135.7890 N   0  0  0  0  0  0  0  0  0  0  0  0
  191.3730  177.4480  141.2510 C   0  0  0  0  0  2  0  0  0  0  0  0
  188.3930  178.5400  141.7270 C   0  0  1  0  0  3  0  0  0  0  0  0
  187.2790  177.4090  137.2540 N   0  0  0  0  0  0  0  0  0  0  0  0
  188.0880  178.1390  139.4170 N   0  0  0  0  0  0  0  0  0  0  0  0
  187.5330  176.7160  143.2400 O   0  0  0  0  0  0  0  0  0  0  0  0
  187.2360  176.6440  144.6280 C   0  0  0  0  0  2  0  0  0  0  0  0
  184.7210  178.9540  145.8670 N   0  0  0  0  0  2  0  0  0  0  0  0
  186.8040  178.0370  146.6380 C   0  0  0  0  0  2  0  0  0  0  0  0
  186.8110  178.0080  145.1360 C   0  0  2  0  0  3  0  0  0  0  0  0
  185.6680  178.9710  146.9750 C   0  0  0  0  0  2  0  0  0  0  0  0
  185.3770  178.2810  144.7500 C   0  0  0  0  0  2  0  0  0  0  0  0
  1 27  1  0  0  0  0
  2 14  2  0  0  0  0
  3  7  2  0  0  0  0
  3 19  1  0  0  0  0
  4 18  2  0  0  0  0
  5 11  1  1  0  0  0
  8 16  1  0  0  0  0
  8 12  1  0  0  0  0
  9 27  1  6  0  0  0
  9 25  1  0  0  0  0
 13  9  1  0  0  0  0
 13 24  1  1  0  0  0
 15 12  1  6  0  0  0
 15  4  1  0  0  0  0
 15  5  1  0  0  0  0
 16  3  1  0  0  0  0
 17 10  2  0  0  0  0
 17 28  1  0  0  0  0
 18  1  1  0  0  0  0
 18 20  1  0  0  0  0
 19  5  1  0  0  0  0
 19  6  1  6  0  0  0
 20 11  1  1  0  0  0
 20 13  1  0  0  0  0
 21 26  1  0  0  0  0
 22 10  1  0  0  0  0
 23 21  2  0  0  0  0
 23  4  1  0  0  0  0
 24 22  1  0  0  0  0
 25 14  1  6  0  0  0
 25 17  1  0  0  0  0
 26  1  2  0  0  0  0
 27  2  1  0  0  0  0
 28 29  1  0  0  0  0
 30 33  1  0  0  0  0
 31 33  1  0  0  0  0
 32 29  1  1  0  0  0
 32 31  1  0  0  0  0
 34 32  1  0  0  0  0
 34 30  1  0  0  0  0
M  END
>  <MODEL>
2

>  <REMARK>
 VINA RESULT:      -8.4      5.770      8.651
  Name = 
  3 active torsions:
  status: ('A' for Active; 'I' for Inactive)
    1  A    between atoms: C_17  and  O_28
    2  A    between atoms: O_28  and  C_29
    3  A    between atoms: C_29  and  C_32
                            x       y       z     vdW  Elec       q    Type
                         _______ _______ _______ _____ _____    ______ ____

>  <TORSDO>
F 3

$$$$
=
 OpenBabel11122412053D

 34 40  0  0  1  0  0  0  0  0999 V2000
  183.2560  178.6590  143.3730 C   0  0  0  0  0  0  0  0  0  0  0  0
  181.0670  179.3220  142.3130 C   0  0  0  0  0  3  0  0  0  0  0  0
  189.7440  178.6180  143.2630 C   0  0  0  0  0  0  0  0  0  0  0  0
  185.5260  178.4400  144.1560 C   0  0  0  0  0  0  0  0  0  0  0  0
  187.3910  177.8440  142.4800 C   0  0  2  0  0  3  0  0  0  0  0  0
  189.4790  177.0760  141.3220 C   0  0  0  0  0  1  0  0  0  0  0  0
  190.3960  179.6410  143.1400 O   0  0  0  0  0  0  0  0  0  0  0  0
  188.9290  176.6520  144.6420 C   0  0  0  0  0  2  0  0  0  0  0  0
  182.6180  178.1790  140.9660 C   0  0  2  0  0  3  0  0  0  0  0  0
  182.9430  179.5530  138.2180 N   0  0  0  0  0  0  0  0  0  0  0  0
  186.4580  178.4800  141.4580 C   0  0  0  0  0  2  0  0  0  0  0  0
  187.4990  177.1230  144.9150 C   0  0  0  0  0  2  0  0  0  0  0  0
  184.0830  178.5120  140.6090 C   0  0  1  0  0  3  0  0  0  0  0  0
  180.5870  179.4410  141.0890 C   0  0  0  0  0  3  0  0  0  0  0  0
  187.0000  178.1940  143.9360 C   0  0  2  0  0  3  0  0  0  0  0  0
  189.9040  177.8190  144.5330 C   0  0  0  0  0  2  0  0  0  0  0  0
  182.0500  179.8740  139.1100 C   0  0  0  0  0  0  0  0  0  0  0  0
  184.6010  178.3830  143.0960 C   0  0  0  0  0  0  0  0  0  0  0  0
  188.8450  178.1990  142.1200 C   0  0  2  0  0  3  0  0  0  0  0  0
  185.0360  177.9910  141.7010 C   0  0  2  0  0  3  0  0  0  0  0  0
  183.7860  179.0720  145.6390 C   0  0  0  0  0  3  0  0  0  0  0  0
  183.5070  178.2120  138.1100 C   0  0  0  0  0  2  0  0  0  0  0  0
  185.0930  178.7960  145.3970 N   0  0  0  0  0  0  0  0  0  0  0  0
  184.4860  177.9190  139.2490 C   0  0  0  0  0  2  0  0  0  0  0  0
  181.5270  178.8360  140.0850 C   0  0  1  0  0  3  0  0  0  0  0  0
  182.8780  179.0050  144.6320 N   0  0  0  0  0  0  0  0  0  0  0  0
  182.3030  178.6320  142.3090 N   0  0  0  0  0  0  0  0  0  0  0  0
  181.5580  181.1830  139.1650 O   0  0  0  0  0  0  0  0  0  0  0  0
  182.0830  182.2290  138.3590 C   0  0  0  0  0  2  0  0  0  0  0  0
  180.9170  184.3890  135.6810 N   0  0  0  0  0  2  0  0  0  0  0  0
  180.7440  182.0660  136.2750 C   0  0  0  0  0  2  0  0  0  0  0  0
  180.9740  182.8520  137.5340 C   0  0  2  0  0  3  0  0  0  0  0  0
  180.3450  183.1140  135.2640 C   0  0  0  0  0  2  0  0  0  0  0  0
  181.3940  184.2200  137.0500 C   0  0  0  0  0  2  0  0  0  0  0  0
  1 26  1  0  0  0  0
  3 16  1  0  0  0  0
  4 23  2  0  0  0  0
  5 11  1  6  0  0  0
  5 15  1  0  0  0  0
  7  3  2  0  0  0  0
  8 12  1  0  0  0  0
  9 27  1  1  0  0  0
 10 17  2  0  0  0  0
 13 24  1  6  0  0  0
 13  9  1  0  0  0  0
 13 20  1  0  0  0  0
 14  2  2  0  0  0  0
 15  4  1  0  0  0  0
 15 12  1  1  0  0  0
 16  8  1  0  0  0  0
 17 28  1  0  0  0  0
 17 25  1  0  0  0  0
 18  1  2  0  0  0  0
 18  4  1  0  0  0  0
 19  6  1  1  0  0  0
 19  5  1  0  0  0  0
 19  3  1  0  0  0  0
 20 11  1  6  0  0  0
 20 18  1  0  0  0  0
 22 10  1  0  0  0  0
 22 24  1  0  0  0  0
 23 21  1  0  0  0  0
 25  9  1  0  0  0  0
 25 14  1  1  0  0  0
 26 21  2  0  0  0  0
 27  2  1  0  0  0  0
 27  1  1  0  0  0  0
 29 28  1  0  0  0  0
 30 34  1  0  0  0  0
 31 32  1  0  0  0  0
 32 29  1  1  0  0  0
 33 30  1  0  0  0  0
 33 31  1  0  0  0  0
 34 32  1  0  0  0  0
M  END
>  <MODEL>
3

>  <REMARK>
 VINA RESULT:      -8.3      3.450      8.674
  Name = 
  3 active torsions:
  status: ('A' for Active; 'I' for Inactive)
    1  A    between atoms: C_17  and  O_28
    2  A    between atoms: O_28  and  C_29
    3  A    between atoms: C_29  and  C_32
                            x       y       z     vdW  Elec       q    Type
                         _______ _______ _______ _____ _____    ______ ____

>  <TORSDO>
F 3

$$$$
=
 OpenBabel11122412053D

 34 40  0  0  1  0  0  0  0  0999 V2000
  188.2180  177.9370  141.3580 C   0  0  0  0  0  0  0  0  0  0  0  0
  186.4210  178.2530  139.6180 C   0  0  0  0  0  3  0  0  0  0  0  0
  189.9810  176.0030  147.2970 C   0  0  0  0  0  0  0  0  0  0  0  0
  189.6420  177.2520  143.1800 C   0  0  0  0  0  0  0  0  0  0  0  0
  188.8600  177.6270  145.6070 C   0  0  2  0  0  3  0  0  0  0  0  0
  188.6650  177.9680  148.0840 C   0  0  0  0  0  1  0  0  0  0  0  0
  189.7200  174.8890  147.7190 O   0  0  0  0  0  0  0  0  0  0  0  0
  191.6370  177.7350  146.4660 C   0  0  0  0  0  2  0  0  0  0  0  0
  186.0260  179.1500  141.7550 C   0  0  2  0  0  3  0  0  0  0  0  0
  183.1930  178.4410  142.7620 N   0  0  0  0  0  0  0  0  0  0  0  0
  187.4640  177.5730  144.9990 C   0  0  0  0  0  2  0  0  0  0  0  0
  191.3200  177.6760  144.9700 C   0  0  0  0  0  2  0  0  0  0  0  0
  186.0130  178.4780  143.1450 C   0  0  1  0  0  3  0  0  0  0  0  0
  185.1440  178.5840  139.6030 C   0  0  0  0  0  3  0  0  0  0  0  0
  189.9450  177.0770  144.6500 C   0  0  2  0  0  3  0  0  0  0  0  0
  191.4330  176.3870  147.1470 C   0  0  0  0  0  2  0  0  0  0  0  0
  183.6360  178.2070  141.5600 C   0  0  0  0  0  0  0  0  0  0  0  0
  188.4430  177.8420  142.7370 C   0  0  0  0  0  0  0  0  0  0  0  0
  188.8330  176.9380  146.9830 C   0  0  2  0  0  3  0  0  0  0  0  0
  187.4390  178.4030  143.7220 C   0  0  2  0  0  3  0  0  0  0  0  0
  190.2730  176.8520  140.9290 C   0  0  0  0  0  3  0  0  0  0  0  0
  183.6970  179.5290  143.5940 C   0  0  0  0  0  2  0  0  0  0  0  0
  190.5190  176.7610  142.2610 N   0  0  0  0  0  0  0  0  0  0  0  0
  185.0990  179.2240  144.1300 C   0  0  0  0  0  2  0  0  0  0  0  0
  184.7070  179.0910  140.9470 C   0  0  1  0  0  3  0  0  0  0  0  0
  189.1300  177.4340  140.4850 N   0  0  0  0  0  0  0  0  0  0  0  0
  186.9970  178.5090  140.8860 N   0  0  0  0  0  0  0  0  0  0  0  0
  183.1150  177.1400  140.8190 O   0  0  0  0  0  0  0  0  0  0  0  0
  181.8270  177.1870  140.2190 C   0  0  0  0  0  2  0  0  0  0  0  0
  183.0530  177.0880  136.8010 N   0  0  0  0  0  2  0  0  0  0  0  0
  183.0530  175.6370  138.7170 C   0  0  0  0  0  2  0  0  0  0  0  0
  181.8790  176.5650  138.8370 C   0  0  2  0  0  3  0  0  0  0  0  0
  183.4760  175.7750  137.2750 C   0  0  0  0  0  2  0  0  0  0  0  0
  182.1370  177.6310  137.7980 C   0  0  0  0  0  2  0  0  0  0  0  0
  1 18  1  0  0  0  0
  2 27  1  0  0  0  0
  3  7  2  0  0  0  0
  4 15  1  0  0  0  0
  5 11  1  6  0  0  0
  5 19  1  0  0  0  0
  8 16  1  0  0  0  0
  9 27  1  6  0  0  0
  9 13  1  0  0  0  0
 10 22  1  0  0  0  0
 12  8  1  0  0  0  0
 13 20  1  0  0  0  0
 13 24  1  1  0  0  0
 14  2  2  0  0  0  0
 15 12  1  1  0  0  0
 15  5  1  0  0  0  0
 16  3  1  0  0  0  0
 17 10  2  0  0  0  0
 18  4  2  0  0  0  0
 18 20  1  0  0  0  0
 19  3  1  0  0  0  0
 19  6  1  1  0  0  0
 20 11  1  1  0  0  0
 21 23  2  0  0  0  0
 22 24  1  0  0  0  0
 23  4  1  0  0  0  0
 25 14  1  6  0  0  0
 25 17  1  0  0  0  0
 25  9  1  0  0  0  0
 26 21  1  0  0  0  0
 26  1  2  0  0  0  0
 27  1  1  0  0  0  0
 28 17  1  0  0  0  0
 29 28  1  0  0  0  0
 30 33  1  0  0  0  0
 30 34  1  0  0  0  0
 31 32  1  0  0  0  0
 32 29  1  1  0  0  0
 33 31  1  0  0  0  0
 34 32  1  0  0  0  0
M  END
>  <MODEL>
4

>  <REMARK>
 VINA RESULT:      -7.6      2.482      9.495
  Name = 
  3 active torsions:
  status: ('A' for Active; 'I' for Inactive)
    1  A    between atoms: C_17  and  O_28
    2  A    between atoms: O_28  and  C_29
    3  A    between atoms: C_29  and  C_32
                            x       y       z     vdW  Elec       q    Type
                         _______ _______ _______ _____ _____    ______ ____

>  <TORSDO>
F 3

$$$$
=
 OpenBabel11122412053D

 34 40  0  0  1  0  0  0  0  0999 V2000
  187.6650  178.2530  139.9350 C   0  0  0  0  0  0  0  0  0  0  0  0
  185.6780  178.2030  138.3850 C   0  0  0  0  0  3  0  0  0  0  0  0
  190.3360  176.7640  145.6590 C   0  0  0  0  0  0  0  0  0  0  0  0
  189.3650  177.8720  141.6030 C   0  0  0  0  0  0  0  0  0  0  0  0
  188.7700  178.1270  144.0980 C   0  0  2  0  0  3  0  0  0  0  0  0
  188.7600  178.4600  146.5840 C   0  0  0  0  0  1  0  0  0  0  0  0
  190.3310  175.6270  146.1000 O   0  0  0  0  0  0  0  0  0  0  0  0
  191.5490  178.7640  144.6770 C   0  0  0  0  0  2  0  0  0  0  0  0
  185.3350  179.0410  140.5550 C   0  0  2  0  0  3  0  0  0  0  0  0
  182.7980  177.8290  141.8350 N   0  0  0  0  0  0  0  0  0  0  0  0
  187.3560  177.8050  143.6310 C   0  0  0  0  0  2  0  0  0  0  0  0
  191.1020  178.6260  143.2190 C   0  0  0  0  0  2  0  0  0  0  0  0
  185.5850  178.3970  141.9360 C   0  0  1  0  0  3  0  0  0  0  0  0
  184.3660  178.2900  138.4980 C   0  0  0  0  0  3  0  0  0  0  0  0
  189.8380  177.7760  143.0340 C   0  0  2  0  0  3  0  0  0  0  0  0
  191.6690  177.4100  145.3680 C   0  0  0  0  0  2  0  0  0  0  0  0
  183.1560  177.6650  140.5940 C   0  0  0  0  0  0  0  0  0  0  0  0
  188.0380  178.2210  141.2850 C   0  0  0  0  0  0  0  0  0  0  0  0
  189.0090  177.4640  145.4670 C   0  0  2  0  0  3  0  0  0  0  0  0
  187.0500  178.5970  142.3670 C   0  0  2  0  0  3  0  0  0  0  0  0
  189.8340  177.5650  139.2980 C   0  0  0  0  0  3  0  0  0  0  0  0
  183.1690  179.0030  142.6180 C   0  0  0  0  0  2  0  0  0  0  0  0
  190.2230  177.5400  140.5990 N   0  0  0  0  0  0  0  0  0  0  0  0
  184.6490  178.9730  143.0100 C   0  0  0  0  0  2  0  0  0  0  0  0
  183.9760  178.7250  139.8820 C   0  0  1  0  0  3  0  0  0  0  0  0
  188.5640  177.9170  138.9730 N   0  0  0  0  0  0  0  0  0  0  0  0
  186.3180  178.5810  139.5900 N   0  0  0  0  0  0  0  0  0  0  0  0
  182.7730  176.5100  139.9040 O   0  0  0  0  0  0  0  0  0  0  0  0
  181.4210  176.2420  139.5570 C   0  0  0  0  0  2  0  0  0  0  0  0
  182.4820  173.7240  137.1630 N   0  0  0  0  0  2  0  0  0  0  0  0
  180.4280  174.4110  138.2060 C   0  0  0  0  0  2  0  0  0  0  0  0
  181.3580  175.5900  138.1890 C   0  0  2  0  0  3  0  0  0  0  0  0
  181.0520  173.4470  137.2270 C   0  0  0  0  0  2  0  0  0  0  0  0
  182.7030  175.0020  137.8330 C   0  0  0  0  0  2  0  0  0  0  0  0
  1 18  1  0  0  0  0
  2 14  2  0  0  0  0
  2 27  1  0  0  0  0
  3  7  2  0  0  0  0
  4 15  1  0  0  0  0
  5 11  1  6  0  0  0
  5 19  1  0  0  0  0
  8 16  1  0  0  0  0
  9 27  1  6  0  0  0
  9 13  1  0  0  0  0
 10 22  1  0  0  0  0
 12  8  1  0  0  0  0
 13 20  1  0  0  0  0
 13 24  1  1  0  0  0
 15 12  1  6  0  0  0
 15  5  1  0  0  0  0
 16  3  1  0  0  0  0
 17 10  2  0  0  0  0
 18  4  2  0  0  0  0
 18 20  1  0  0  0  0
 19  3  1  0  0  0  0
 19  6  1  1  0  0  0
 20 11  1  1  0  0  0
 21 23  2  0  0  0  0
 22 24  1  0  0  0  0
 23  4  1  0  0  0  0
 25 14  1  6  0  0  0
 25  9  1  0  0  0  0
 25 17  1  0  0  0  0
 26 21  1  0  0  0  0
 26  1  2  0  0  0  0
 27  1  1  0  0  0  0
 28 17  1  0  0  0  0
 29 28  1  0  0  0  0
 30 33  1  0  0  0  0
 30 34  1  0  0  0  0
 32 31  1  0  0  0  0
 32 29  1  1  0  0  0
 33 31  1  0  0  0  0
 34 32  1  0  0  0  0
M  END
>  <MODEL>
5

>  <REMARK>
 VINA RESULT:      -7.4      2.681      9.438
  Name = 
  3 active torsions:
  status: ('A' for Active; 'I' for Inactive)
    1  A    between atoms: C_17  and  O_28
    2  A    between atoms: O_28  and  C_29
    3  A    between atoms: C_29  and  C_32
                            x       y       z     vdW  Elec       q    Type
                         _______ _______ _______ _____ _____    ______ ____

>  <TORSDO>
F 3

$$$$
=
 OpenBabel11122412053D

 34 40  0  0  1  0  0  0  0  0999 V2000
  187.6530  178.1050  141.2180 C   0  0  0  0  0  0  0  0  0  0  0  0
  186.0170  178.2530  139.3050 C   0  0  0  0  0  3  0  0  0  0  0  0
  188.9640  176.4110  147.3430 C   0  0  0  0  0  0  0  0  0  0  0  0
  188.9380  177.5630  143.1840 C   0  0  0  0  0  0  0  0  0  0  0  0
  187.8960  177.9160  145.5150 C   0  0  2  0  0  3  0  0  0  0  0  0
  187.4320  178.2810  147.9530 C   0  0  0  0  0  1  0  0  0  0  0  0
  188.7480  175.2880  147.7650 O   0  0  0  0  0  0  0  0  0  0  0  0
  190.5590  178.2530  146.6360 C   0  0  0  0  0  2  0  0  0  0  0  0
  185.3470  179.1510  141.3720 C   0  0  2  0  0  3  0  0  0  0  0  0
  182.4900  178.2420  142.1160 N   0  0  0  0  0  0  0  0  0  0  0  0
  186.5750  177.7440  144.7760 C   0  0  0  0  0  2  0  0  0  0  0  0
  190.3960  178.1450  145.1180 C   0  0  0  0  0  2  0  0  0  0  0  0
  185.2480  178.5030  142.7690 C   0  0  1  0  0  3  0  0  0  0  0  0
  184.7260  178.4830  139.1580 C   0  0  0  0  0  3  0  0  0  0  0  0
  189.1070  177.4360  144.6800 C   0  0  2  0  0  3  0  0  0  0  0  0
  190.3910  176.9040  147.3260 C   0  0  0  0  0  2  0  0  0  0  0  0
  183.0660  178.0230  140.9680 C   0  0  0  0  0  0  0  0  0  0  0  0
  187.7470  178.0510  142.6140 C   0  0  0  0  0  0  0  0  0  0  0  0
  187.7860  177.2500  146.8980 C   0  0  2  0  0  3  0  0  0  0  0  0
  186.6130  178.5480  143.4830 C   0  0  2  0  0  3  0  0  0  0  0  0
  189.8160  177.1760  141.0150 C   0  0  0  0  0  3  0  0  0  0  0  0
  182.8270  179.3780  142.9660 C   0  0  0  0  0  2  0  0  0  0  0  0
  189.9360  177.1270  142.3670 N   0  0  0  0  0  0  0  0  0  0  0  0
  184.1880  179.1920  143.6430 C   0  0  0  0  0  2  0  0  0  0  0  0
  184.1220  178.9770  140.4410 C   0  0  1  0  0  3  0  0  0  0  0  0
  188.6820  177.6600  140.4490 N   0  0  0  0  0  0  0  0  0  0  0  0
  186.4450  178.5740  140.6160 N   0  0  0  0  0  0  0  0  0  0  0  0
  182.7020  176.9070  140.2070 O   0  0  0  0  0  0  0  0  0  0  0  0
  181.3540  176.6400  139.8420 C   0  0  0  0  0  2  0  0  0  0  0  0
  182.5150  174.2240  137.3900 N   0  0  0  0  0  2  0  0  0  0  0  0
  180.4420  174.7820  138.4710 C   0  0  0  0  0  2  0  0  0  0  0  0
  181.3080  176.0090  138.4640 C   0  0  2  0  0  3  0  0  0  0  0  0
  181.1020  173.8690  137.4670 C   0  0  0  0  0  2  0  0  0  0  0  0
  182.6770  175.5000  138.0810 C   0  0  0  0  0  2  0  0  0  0  0  0
  1 18  1  0  0  0  0
  2 27  1  0  0  0  0
  3  7  2  0  0  0  0
  4 15  1  0  0  0  0
  5 11  1  6  0  0  0
  5 19  1  0  0  0  0
  8 16  1  0  0  0  0
  9 27  1  6  0  0  0
  9 13  1  0  0  0  0
 10 22  1  0  0  0  0
 12  8  1  0  0  0  0
 13 20  1  0  0  0  0
 13 24  1  1  0  0  0
 14  2  2  0  0  0  0
 15 12  1  1  0  0  0
 15  5  1  0  0  0  0
 16  3  1  0  0  0  0
 17 10  2  0  0  0  0
 18  4  2  0  0  0  0
 18 20  1  0  0  0  0
 19  3  1  0  0  0  0
 19  6  1  1  0  0  0
 20 11  1  1  0  0  0
 21 23  2  0  0  0  0
 22 24  1  0  0  0  0
 23  4  1  0  0  0  0
 25 14  1  6  0  0  0
 25 17  1  0  0  0  0
 25  9  1  0  0  0  0
 26 21  1  0  0  0  0
 26  1  2  0  0  0  0
 27  1  1  0  0  0  0
 28 17  1  0  0  0  0
 29 28  1  0  0  0  0
 30 33  1  0  0  0  0
 30 34  1  0  0  0  0
 32 31  1  0  0  0  0
 32 29  1  1  0  0  0
 33 31  1  0  0  0  0
 34 32  1  0  0  0  0
M  END
>  <MODEL>
6

>  <REMARK>
 VINA RESULT:      -7.4      2.317      9.341
  Name = 
  3 active torsions:
  status: ('A' for Active; 'I' for Inactive)
    1  A    between atoms: C_17  and  O_28
    2  A    between atoms: O_28  and  C_29
    3  A    between atoms: C_29  and  C_32
                            x       y       z     vdW  Elec       q    Type
                         _______ _______ _______ _____ _____    ______ ____

>  <TORSDO>
F 3

$$$$
=
 OpenBabel11122412053D

 34 40  0  0  1  0  0  0  0  0999 V2000
  186.7040  178.2050  142.4090 C   0  0  0  0  0  0  0  0  0  0  0  0
  189.0100  177.6980  141.5270 C   0  0  0  0  0  3  0  0  0  0  0  0
  180.2590  177.6850  141.8500 C   0  0  0  0  0  0  0  0  0  0  0  0
  184.3730  178.2530  143.0250 C   0  0  0  0  0  0  0  0  0  0  0  0
  182.5900  178.6330  141.2030 C   0  0  2  0  0  3  0  0  0  0  0  0
  180.5340  179.1820  139.8760 C   0  0  0  0  0  1  0  0  0  0  0  0
  179.7060  176.6060  141.7220 O   0  0  0  0  0  0  0  0  0  0  0  0
  180.8070  179.7570  143.2080 C   0  0  0  0  0  2  0  0  0  0  0  0
  187.4710  178.6610  140.0340 C   0  0  2  0  0  3  0  0  0  0  0  0
  187.4600  177.1780  137.3240 N   0  0  0  0  0  0  0  0  0  0  0  0
  183.6440  178.0470  140.2720 C   0  0  0  0  0  2  0  0  0  0  0  0
  182.2480  179.4190  143.5960 C   0  0  0  0  0  2  0  0  0  0  0  0
  186.0680  178.1920  139.5900 C   0  0  1  0  0  3  0  0  0  0  0  0
  189.5860  177.5830  140.3450 C   0  0  0  0  0  3  0  0  0  0  0  0
  182.9030  178.3640  142.6950 C   0  0  2  0  0  3  0  0  0  0  0  0
  179.9420  178.5080  143.0760 C   0  0  0  0  0  2  0  0  0  0  0  0
  188.3100  176.9630  138.2870 C   0  0  0  0  0  0  0  0  0  0  0  0
  185.3640  178.3550  142.0300 C   0  0  0  0  0  0  0  0  0  0  0  0
  181.2000  178.1430  140.7570 C   0  0  2  0  0  3  0  0  0  0  0  0
  184.9990  178.6640  140.5940 C   0  0  2  0  0  3  0  0  0  0  0  0
  186.0490  177.8190  144.6460 C   0  0  0  0  0  3  0  0  0  0  0  0
  186.7950  178.4620  137.1270 C   0  0  0  0  0  2  0  0  0  0  0  0
  184.7440  177.9740  144.3050 N   0  0  0  0  0  0  0  0  0  0  0  0
  185.7150  178.7050  138.1850 C   0  0  0  0  0  2  0  0  0  0  0  0
  188.6730  178.0730  139.2570 C   0  0  1  0  0  3  0  0  0  0  0  0
  187.0180  177.9320  143.7030 N   0  0  0  0  0  0  0  0  0  0  0  0
  187.7250  178.2800  141.4120 N   0  0  0  0  0  0  0  0  0  0  0  0
  188.9040  175.7040  138.4250 O   0  0  0  0  0  0  0  0  0  0  0  0
  189.7740  175.1600  137.4410 C   0  0  0  0  0  2  0  0  0  0  0  0
  193.3450  174.6920  136.9650 N   0  0  0  0  0  2  0  0  0  0  0  0
  191.8740  176.4690  137.6410 C   0  0  0  0  0  2  0  0  0  0  0  0
  191.2010  175.1640  137.9540 C   0  0  2  0  0  3  0  0  0  0  0  0
  193.3130  176.0840  137.4000 C   0  0  0  0  0  2  0  0  0  0  0  0
  192.0200  174.1330  137.2160 C   0  0  0  0  0  2  0  0  0  0  0  0
  1 26  1  0  0  0  0
  3 16  1  0  0  0  0
  4 23  2  0  0  0  0
  5 11  1  6  0  0  0
  5 15  1  0  0  0  0
  7  3  2  0  0  0  0
  8 12  1  0  0  0  0
  9 27  1  1  0  0  0
 10 17  2  0  0  0  0
 13 24  1  6  0  0  0
 13  9  1  0  0  0  0
 13 20  1  0  0  0  0
 14  2  2  0  0  0  0
 15  4  1  0  0  0  0
 15 12  1  1  0  0  0
 16  8  1  0  0  0  0
 17 28  1  0  0  0  0
 17 25  1  0  0  0  0
 18  1  2  0  0  0  0
 18  4  1  0  0  0  0
 19  6  1  1  0  0  0
 19  5  1  0  0  0  0
 19  3  1  0  0  0  0
 20 11  1  6  0  0  0
 20 18  1  0  0  0  0
 22 10  1  0  0  0  0
 22 24  1  0  0  0  0
 23 21  1  0  0  0  0
 25  9  1  0  0  0  0
 25 14  1  1  0  0  0
 26 21  2  0  0  0  0
 27  2  1  0  0  0  0
 27  1  1  0  0  0  0
 29 28  1  0  0  0  0
 30 34  1  0  0  0  0
 30 33  1  0  0  0  0
 31 32  1  0  0  0  0
 32 29  1  6  0  0  0
 33 31  1  0  0  0  0
 34 32  1  0  0  0  0
M  END
>  <MODEL>
7

>  <REMARK>
 VINA RESULT:      -7.3      3.943      6.337
  Name = 
  3 active torsions:
  status: ('A' for Active; 'I' for Inactive)
    1  A    between atoms: C_17  and  O_28
    2  A    between atoms: O_28  and  C_29
    3  A    between atoms: C_29  and  C_32
                            x       y       z     vdW  Elec       q    Type
                         _______ _______ _______ _____ _____    ______ ____

>  <TORSDO>
F 3

$$$$
=
 OpenBabel11122412053D

 34 40  0  0  1  0  0  0  0  0999 V2000
  180.4580  176.1750  139.8330 C   0  0  0  0  0  0  0  0  0  0  0  0
  180.6740  177.9800  141.5790 C   0  0  0  0  0  3  0  0  0  0  0  0
  183.2290  171.7100  136.0240 C   0  0  0  0  0  0  0  0  0  0  0  0
  180.6670  174.2590  138.3830 C   0  0  0  0  0  0  0  0  0  0  0  0
  182.6280  174.1420  136.7150 C   0  0  2  0  0  3  0  0  0  0  0  0
  184.1880  173.6650  134.8090 C   0  0  0  0  0  1  0  0  0  0  0  0
  183.9690  170.8500  136.4690 O   0  0  0  0  0  0  0  0  0  0  0  0
  181.0310  172.4340  134.9840 C   0  0  0  0  0  2  0  0  0  0  0  0
  182.0340  178.1560  139.6680 C   0  0  2  0  0  3  0  0  0  0  0  0
  184.9590  178.7940  140.4290 N   0  0  0  0  0  0  0  0  0  0  0  0
  183.3240  175.0600  137.7120 C   0  0  0  0  0  2  0  0  0  0  0  0
  180.3790  173.0700  136.2140 C   0  0  0  0  0  2  0  0  0  0  0  0
  183.0600  177.1710  139.0660 C   0  0  1  0  0  3  0  0  0  0  0  0
  181.5410  178.9290  141.8800 C   0  0  0  0  0  3  0  0  0  0  0  0
  181.3750  173.4600  137.3140 C   0  0  2  0  0  3  0  0  0  0  0  0
  181.9460  171.2740  135.3580 C   0  0  0  0  0  2  0  0  0  0  0  0
  183.9580  178.7850  141.2630 C   0  0  0  0  0  0  0  0  0  0  0  0
  181.1490  175.5110  138.8110 C   0  0  0  0  0  0  0  0  0  0  0  0
  183.6600  173.1560  136.1370 C   0  0  2  0  0  3  0  0  0  0  0  0
  182.3550  176.1470  138.1560 C   0  0  2  0  0  3  0  0  0  0  0  0
  178.9330  174.3770  139.9970 C   0  0  0  0  0  3  0  0  0  0  0  0
  184.8020  179.0760  139.0070 C   0  0  0  0  0  2  0  0  0  0  0  0
  179.5780  173.7210  138.9990 N   0  0  0  0  0  0  0  0  0  0  0  0
  184.1500  177.9030  138.2690 C   0  0  0  0  0  2  0  0  0  0  0  0
  182.5520  179.0970  140.7820 C   0  0  1  0  0  3  0  0  0  0  0  0
  179.3730  175.5930  140.4090 N   0  0  0  0  0  0  0  0  0  0  0  0
  180.9420  177.4350  140.3000 N   0  0  0  0  0  0  0  0  0  0  0  0
  184.1780  178.4970  142.6140 O   0  0  0  0  0  0  0  0  0  0  0  0
  185.4610  178.1570  143.1220 C   0  0  0  0  0  2  0  0  0  0  0  0
  184.5530  178.6310  146.6070 N   0  0  0  0  0  2  0  0  0  0  0  0
  186.4840  177.9120  145.3710 C   0  0  0  0  0  2  0  0  0  0  0  0
  185.6660  178.8020  144.4790 C   0  0  2  0  0  3  0  0  0  0  0  0
  185.9310  178.1770  146.7500 C   0  0  0  0  0  2  0  0  0  0  0  0
  184.3430  178.9350  145.1950 C   0  0  0  0  0  2  0  0  0  0  0  0
  1 27  1  0  0  0  0
  1 26  1  0  0  0  0
  2 14  2  0  0  0  0
  3 19  1  0  0  0  0
  3  7  2  0  0  0  0
  4 18  1  0  0  0  0
  4 23  2  0  0  0  0
  5 15  1  0  0  0  0
  5 11  1  1  0  0  0
  8 16  1  0  0  0  0
  8 12  1  0  0  0  0
  9 27  1  1  0  0  0
  9 25  1  0  0  0  0
 10 17  2  0  0  0  0
 13 24  1  6  0  0  0
 13  9  1  0  0  0  0
 15 12  1  6  0  0  0
 15  4  1  0  0  0  0
 16  3  1  0  0  0  0
 17 28  1  0  0  0  0
 18  1  2  0  0  0  0
 19  6  1  6  0  0  0
 19  5  1  0  0  0  0
 20 11  1  1  0  0  0
 20 18  1  0  0  0  0
 20 13  1  0  0  0  0
 21 26  2  0  0  0  0
 22 10  1  0  0  0  0
 23 21  1  0  0  0  0
 24 22  1  0  0  0  0
 25 17  1  0  0  0  0
 25 14  1  1  0  0  0
 27  2  1  0  0  0  0
 28 29  1  0  0  0  0
 30 33  1  0  0  0  0
 31 33  1  0  0  0  0
 32 29  1  6  0  0  0
 32 34  1  0  0  0  0
 32 31  1  0  0  0  0
 34 30  1  0  0  0  0
M  END
>  <MODEL>
8

>  <REMARK>
 VINA RESULT:      -7.2      2.920      4.406
  Name = 
  3 active torsions:
  status: ('A' for Active; 'I' for Inactive)
    1  A    between atoms: C_17  and  O_28
    2  A    between atoms: O_28  and  C_29
    3  A    between atoms: C_29  and  C_32
                            x       y       z     vdW  Elec       q    Type
                         _______ _______ _______ _____ _____    ______ ____

>  <TORSDO>
F 3

$$$$
=
 OpenBabel11122412053D

 34 40  0  0  1  0  0  0  0  0999 V2000
  182.6960  178.5340  140.9270 C   0  0  0  0  0  0  0  0  0  0  0  0
  183.7150  178.9610  143.1920 C   0  0  0  0  0  3  0  0  0  0  0  0
  182.9160  175.5680  135.1590 C   0  0  0  0  0  0  0  0  0  0  0  0
  181.9520  177.6760  138.8000 C   0  0  0  0  0  0  0  0  0  0  0  0
  183.6640  177.3450  136.9010 C   0  0  2  0  0  3  0  0  0  0  0  0
  184.8620  177.0620  134.7150 C   0  0  0  0  0  1  0  0  0  0  0  0
  183.0440  174.3600  135.0570 O   0  0  0  0  0  0  0  0  0  0  0  0
  181.5350  177.6850  134.9470 C   0  0  0  0  0  2  0  0  0  0  0  0
  185.0950  179.2610  141.3130 C   0  0  2  0  0  3  0  0  0  0  0  0
  187.8400  177.8990  141.7100 N   0  0  0  0  0  0  0  0  0  0  0  0
  184.6660  177.2160  138.0400 C   0  0  0  0  0  2  0  0  0  0  0  0
  181.2350  177.9280  136.4280 C   0  0  0  0  0  2  0  0  0  0  0  0
  185.4750  178.2880  140.1750 C   0  0  1  0  0  3  0  0  0  0  0  0
  184.9300  179.0810  143.6950 C   0  0  0  0  0  3  0  0  0  0  0  0
  182.1990  177.2120  137.3830 C   0  0  2  0  0  3  0  0  0  0  0  0
  181.6540  176.2000  134.6250 C   0  0  0  0  0  2  0  0  0  0  0  0
  186.9300  178.0250  142.6340 C   0  0  0  0  0  0  0  0  0  0  0  0
  182.9970  178.1560  139.6120 C   0  0  0  0  0  0  0  0  0  0  0  0
  184.0460  176.3580  135.7830 C   0  0  2  0  0  3  0  0  0  0  0  0
  184.4020  178.3060  139.0700 C   0  0  2  0  0  3  0  0  0  0  0  0
  180.4370  177.9160  140.6080 C   0  0  0  0  0  3  0  0  0  0  0  0
  187.9650  178.8280  140.5910 C   0  0  0  0  0  2  0  0  0  0  0  0
  180.7020  177.5570  139.3260 N   0  0  0  0  0  0  0  0  0  0  0  0
  186.8440  178.6310  139.5670 C   0  0  0  0  0  2  0  0  0  0  0  0
  185.9530  179.1850  142.6000 C   0  0  1  0  0  3  0  0  0  0  0  0
  181.4290  178.3990  141.4000 N   0  0  0  0  0  0  0  0  0  0  0  0
  183.7440  179.0020  141.7780 N   0  0  0  0  0  0  0  0  0  0  0  0
  186.8600  177.0930  143.6750 O   0  0  0  0  0  0  0  0  0  0  0  0
  188.0020  176.6990  144.4240 C   0  0  0  0  0  2  0  0  0  0  0  0
  187.5920  177.8900  147.8320 N   0  0  0  0  0  2  0  0  0  0  0  0
  189.4090  177.2550  146.3920 C   0  0  0  0  0  2  0  0  0  0  0  0
  188.2670  177.7050  145.5280 C   0  0  2  0  0  3  0  0  0  0  0  0
  189.0430  177.7620  147.7660 C   0  0  0  0  0  2  0  0  0  0  0  0
  187.0860  177.7650  146.4680 C   0  0  0  0  0  2  0  0  0  0  0  0
  1 26  1  0  0  0  0
  1 27  1  0  0  0  0
  2 14  2  0  0  0  0
  3 19  1  0  0  0  0
  4 23  2  0  0  0  0
  4 18  1  0  0  0  0
  5 15  1  0  0  0  0
  5 11  1  1  0  0  0
  7  3  2  0  0  0  0
  8 12  1  0  0  0  0
  9 27  1  1  0  0  0
  9 25  1  0  0  0  0
 10 17  2  0  0  0  0
 13 24  1  6  0  0  0
 13  9  1  0  0  0  0
 15 12  1  6  0  0  0
 15  4  1  0  0  0  0
 16  8  1  0  0  0  0
 16  3  1  0  0  0  0
 17 28  1  0  0  0  0
 18  1  2  0  0  0  0
 19  6  1  6  0  0  0
 19  5  1  0  0  0  0
 20 11  1  6  0  0  0
 20 18  1  0  0  0  0
 20 13  1  0  0  0  0
 21 26  2  0  0  0  0
 22 10  1  0  0  0  0
 23 21  1  0  0  0  0
 24 22  1  0  0  0  0
 25 17  1  0  0  0  0
 25 14  1  1  0  0  0
 27  2  1  0  0  0  0
 28 29  1  0  0  0  0
 31 33  1  0  0  0  0
 32 29  1  6  0  0  0
 32 31  1  0  0  0  0
 32 34  1  0  0  0  0
 33 30  1  0  0  0  0
 34 30  1  0  0  0  0
M  END
>  <MODEL>
9

>  <REMARK>
 VINA RESULT:      -7.1      1.665      2.414
  Name = 
  3 active torsions:
  status: ('A' for Active; 'I' for Inactive)
    1  A    between atoms: C_17  and  O_28
    2  A    between atoms: O_28  and  C_29
    3  A    between atoms: C_29  and  C_32
                            x       y       z     vdW  Elec       q    Type
                         _______ _______ _______ _____ _____    ______ ____

>  <TORSDO>
F 3

$$$$
