=
 OpenBabel11122411393D

 37 42  0  0  1  0  0  0  0  0999 V2000
  190.1110  177.2390  143.2830 S   0  0  0  0  0  0  0  0  0  0  0  0
  188.6830  177.0690  139.1640 C   0  0  0  0  0  0  0  0  0  0  0  0
  190.6340  174.8400  136.4850 C   0  0  0  0  0  2  0  0  0  0  0  0
  188.5270  178.2210  141.3040 C   0  0  0  0  0  0  0  0  0  0  0  0
  189.5430  175.9810  138.5630 C   0  0  1  0  0  3  0  0  0  0  0  0
  189.1550  177.3140  140.4350 C   0  0  0  0  0  0  0  0  0  0  0  0
  189.7500  175.9860  137.0340 C   0  0  2  0  0  3  0  0  0  0  0  0
  187.3940  178.8970  140.8400 C   0  0  0  0  0  3  0  0  0  0  0  0
  190.3240  176.5600  140.7240 N   0  0  0  0  0  0  0  0  0  0  0  0
  189.2620  176.1010  143.7740 O   0  0  0  0  0  0  0  0  0  0  0  0
  186.8530  177.4680  137.3810 C   0  0  0  0  0  2  0  0  0  0  0  0
  186.8930  178.6470  139.5530 C   0  0  0  0  0  3  0  0  0  0  0  0
  191.1310  176.6940  141.9320 C   0  0  0  0  0  2  0  0  0  0  0  0
  192.7530  175.2880  137.1390 C   0  0  1  0  0  3  0  0  0  0  0  0
  191.6440  174.4610  137.3830 O   0  0  0  0  0  0  0  0  0  0  0  0
  187.5240  177.7330  138.6940 C   0  0  0  0  0  0  0  0  0  0  0  0
  190.8160  175.9990  139.4720 C   0  0  2  0  0  3  0  0  0  0  0  0
  189.0710  178.5480  142.6620 C   0  0  0  0  0  2  0  0  0  0  0  0
  188.4630  176.0050  136.3430 N   0  0  0  0  0  0  0  0  0  0  0  0
  190.9700  177.7510  144.4040 O   0  0  0  0  0  0  0  0  0  0  0  0
  192.4960  176.7390  137.5690 C   0  0  0  0  0  2  0  0  0  0  0  0
  191.9760  176.9110  138.9990 C   0  0  0  0  0  2  0  0  0  0  0  0
  187.8310  177.3080  136.2320 C   0  0  0  0  0  2  0  0  0  0  0  0
  187.8010  174.1440  134.8600 C   0  0  0  0  0  3  0  0  0  0  0  0
  187.6800  174.8160  136.0870 C   0  0  0  0  0  0  0  0  0  0  0  0
  186.7670  174.3310  137.0390 C   0  0  0  0  0  3  0  0  0  0  0  0
  185.0430  172.6890  137.7910 C   0  0  0  0  0  1  0  0  0  0  0  0
  186.1360  172.5300  135.5510 C   0  0  0  0  0  3  0  0  0  0  0  0
  186.0020  173.1920  136.7730 C   0  0  0  0  0  0  0  0  0  0  0  0
  187.0340  173.0060  134.5940 C   0  0  0  0  0  3  0  0  0  0  0  0
  196.2770  173.3300  138.8830 O   0  0  0  0  0  0  0  0  0  0  0  0
  195.4650  172.7090  138.1470 C   0  0  0  0  0  0  0  0  0  0  0  0
  193.9700  174.7370  137.8060 C   0  0  0  0  0  0  0  0  0  0  0  0
  194.3220  173.3670  137.5890 N   0  0  0  0  0  2  0  0  0  0  0  0
  194.6870  175.4830  138.5280 O   0  0  0  0  0  0  0  0  0  0  0  0
  195.0340  170.4670  138.7250 O   0  0  0  0  0  1  0  0  0  0  0  0
  195.7160  171.2800  137.8210 C   0  0  0  0  0  2  0  0  0  0  0  0
  1 10  2  0  0  0  0
  1 20  2  0  0  0  0
  2  6  1  0  0  0  0
  3 15  1  0  0  0  0
  4 18  1  0  0  0  0
  5  2  1  1  0  0  0
  5 17  1  0  0  0  0
  6  9  1  0  0  0  0
  6  4  2  0  0  0  0
  7  3  1  6  0  0  0
  7  5  1  0  0  0  0
  8  4  1  0  0  0  0
  9 13  1  0  0  0  0
 11 16  1  0  0  0  0
 12  8  2  0  0  0  0
 13  1  1  0  0  0  0
 14 15  1  0  0  0  0
 14 21  1  0  0  0  0
 14 33  1  1  0  0  0
 16  2  2  0  0  0  0
 16 12  1  0  0  0  0
 17 22  1  6  0  0  0
 17  9  1  0  0  0  0
 18  1  1  0  0  0  0
 19  7  1  0  0  0  0
 21 22  1  0  0  0  0
 23 19  1  0  0  0  0
 23 11  1  0  0  0  0
 24 25  1  0  0  0  0
 25 19  1  0  0  0  0
 25 26  2  0  0  0  0
 28 29  2  0  0  0  0
 29 26  1  0  0  0  0
 29 27  1  0  0  0  0
 30 24  2  0  0  0  0
 30 28  1  0  0  0  0
 32 31  2  0  0  0  0
 33 35  2  0  0  0  0
 34 33  1  0  0  0  0
 34 32  1  0  0  0  0
 37 32  1  0  0  0  0
 37 36  1  0  0  0  0
M  END
>  <MODEL>
1

>  <REMARK>
 VINA RESULT:      -6.9      0.000      0.000
  Name = 
  3 active torsions:
  status: ('A' for Active; 'I' for Inactive)
    1  A    between atoms: C_4  and  C_37
    2  A    between atoms: C_8  and  C_18
    3  A    between atoms: N_23  and  C_30
                            x       y       z     vdW  Elec       q    Type
                         _______ _______ _______ _____ _____    ______ ____

>  <TORSDO>
F 3

$$$$
=
 OpenBabel11122411393D

 37 42  0  0  1  0  0  0  0  0999 V2000
  186.3580  178.0070  144.5500 S   0  0  0  0  0  0  0  0  0  0  0  0
  182.7120  178.3220  142.1750 C   0  0  0  0  0  0  0  0  0  0  0  0
  182.7900  177.3760  138.2960 C   0  0  0  0  0  2  0  0  0  0  0  0
  183.8030  178.8930  144.2750 C   0  0  0  0  0  0  0  0  0  0  0  0
  183.1160  177.6820  140.8660 C   0  0  1  0  0  3  0  0  0  0  0  0
  183.8420  178.4140  142.9560 C   0  0  0  0  0  0  0  0  0  0  0  0
  182.3300  178.0740  139.5980 C   0  0  2  0  0  3  0  0  0  0  0  0
  182.5670  179.2990  144.7900 C   0  0  0  0  0  3  0  0  0  0  0  0
  185.0060  177.9840  142.2630 N   0  0  0  0  0  0  0  0  0  0  0  0
  186.1110  176.5960  145.0010 O   0  0  0  0  0  0  0  0  0  0  0  0
  180.1430  178.5510  141.9850 C   0  0  0  0  0  2  0  0  0  0  0  0
  181.4040  179.1980  144.0100 C   0  0  0  0  0  3  0  0  0  0  0  0
  186.3700  178.0810  142.7730 C   0  0  0  0  0  2  0  0  0  0  0  0
  184.8030  178.2630  137.7630 C   0  0  1  0  0  3  0  0  0  0  0  0
  184.1710  177.1200  138.2800 O   0  0  0  0  0  0  0  0  0  0  0  0
  181.4530  178.7100  142.6940 C   0  0  0  0  0  0  0  0  0  0  0  0
  184.6680  177.8690  140.8500 C   0  0  2  0  0  3  0  0  0  0  0  0
  185.0360  179.0630  145.1110 C   0  0  0  0  0  2  0  0  0  0  0  0
  180.8970  177.8710  139.8000 N   0  0  0  0  0  0  0  0  0  0  0  0
  187.6720  178.4910  145.0950 O   0  0  0  0  0  0  0  0  0  0  0  0
  184.7280  179.4510  138.7320 C   0  0  0  0  0  2  0  0  0  0  0  0
  185.1910  179.1550  140.1610 C   0  0  0  0  0  2  0  0  0  0  0  0
  180.2090  178.9290  140.5160 C   0  0  0  0  0  2  0  0  0  0  0  0
  179.5850  176.2890  138.4290 C   0  0  0  0  0  3  0  0  0  0  0  0
  180.2440  176.5910  139.6310 C   0  0  0  0  0  0  0  0  0  0  0  0
  180.2280  175.6450  140.6700 C   0  0  0  0  0  3  0  0  0  0  0  0
  179.5720  173.4270  141.6100 C   0  0  0  0  0  1  0  0  0  0  0  0
  178.9310  174.1280  139.3010 C   0  0  0  0  0  3  0  0  0  0  0  0
  179.5770  174.4190  140.5040 C   0  0  0  0  0  0  0  0  0  0  0  0
  178.9340  175.0630  138.2640 C   0  0  0  0  0  3  0  0  0  0  0  0
  188.8520  176.9680  136.6560 O   0  0  0  0  0  0  0  0  0  0  0  0
  187.9300  176.1440  136.8930 C   0  0  0  0  0  0  0  0  0  0  0  0
  186.2180  177.9550  137.3990 C   0  0  0  0  0  0  0  0  0  0  0  0
  186.6170  176.5870  137.2540 N   0  0  0  0  0  2  0  0  0  0  0  0
  187.0370  178.8930  137.1990 O   0  0  0  0  0  0  0  0  0  0  0  0
  189.4890  174.4070  137.2070 O   0  0  0  0  0  1  0  0  0  0  0  0
  188.1980  174.6870  136.7620 C   0  0  0  0  0  2  0  0  0  0  0  0
  1 10  2  0  0  0  0
  1 20  2  0  0  0  0
  1 18  1  0  0  0  0
  2 16  2  0  0  0  0
  2  6  1  0  0  0  0
  4  8  1  0  0  0  0
  4 18  1  0  0  0  0
  5  2  1  1  0  0  0
  6  4  2  0  0  0  0
  7  3  1  6  0  0  0
  7 19  1  0  0  0  0
  7  5  1  0  0  0  0
  9 13  1  0  0  0  0
  9  6  1  0  0  0  0
 11 16  1  0  0  0  0
 12  8  2  0  0  0  0
 13  1  1  0  0  0  0
 14 33  1  1  0  0  0
 14 15  1  0  0  0  0
 14 21  1  0  0  0  0
 15  3  1  0  0  0  0
 16 12  1  0  0  0  0
 17 22  1  6  0  0  0
 17  5  1  0  0  0  0
 17  9  1  0  0  0  0
 19 23  1  0  0  0  0
 21 22  1  0  0  0  0
 23 11  1  0  0  0  0
 24 25  1  0  0  0  0
 25 19  1  0  0  0  0
 25 26  2  0  0  0  0
 28 29  2  0  0  0  0
 29 26  1  0  0  0  0
 29 27  1  0  0  0  0
 30 24  2  0  0  0  0
 30 28  1  0  0  0  0
 31 32  2  0  0  0  0
 32 34  1  0  0  0  0
 34 33  1  0  0  0  0
 35 33  2  0  0  0  0
 37 32  1  0  0  0  0
 37 36  1  0  0  0  0
M  END
>  <MODEL>
2

>  <REMARK>
 VINA RESULT:      -6.9      5.083      7.397
  Name = 
  3 active torsions:
  status: ('A' for Active; 'I' for Inactive)
    1  A    between atoms: C_4  and  C_37
    2  A    between atoms: C_8  and  C_18
    3  A    between atoms: N_23  and  C_30
                            x       y       z     vdW  Elec       q    Type
                         _______ _______ _______ _____ _____    ______ ____

>  <TORSDO>
F 3

$$$$
=
 OpenBabel11122411393D

 37 42  0  0  1  0  0  0  0  0999 V2000
  189.8930  177.5190  141.8690 S   0  0  0  0  0  0  0  0  0  0  0  0
  188.3760  176.4550  137.9190 C   0  0  0  0  0  0  0  0  0  0  0  0
  190.4340  173.9100  135.6300 C   0  0  0  0  0  2  0  0  0  0  0  0
  188.1810  177.9790  139.8070 C   0  0  0  0  0  0  0  0  0  0  0  0
  189.3070  175.3410  137.4980 C   0  0  1  0  0  3  0  0  0  0  0  0
  188.8590  176.9730  139.0990 C   0  0  0  0  0  0  0  0  0  0  0  0
  189.4730  175.0680  135.9890 C   0  0  2  0  0  3  0  0  0  0  0  0
  186.9840  178.4650  139.2720 C   0  0  0  0  0  3  0  0  0  0  0  0
  190.0940  176.3810  139.4770 N   0  0  0  0  0  0  0  0  0  0  0  0
  189.1550  176.4340  142.6000 O   0  0  0  0  0  0  0  0  0  0  0  0
  186.4720  176.3620  136.1700 C   0  0  0  0  0  2  0  0  0  0  0  0
  186.4720  177.9350  138.0770 C   0  0  0  0  0  3  0  0  0  0  0  0
  190.9190  176.8050  140.6030 C   0  0  0  0  0  2  0  0  0  0  0  0
  192.5250  174.6360  136.0980 C   0  0  1  0  0  3  0  0  0  0  0  0
  191.4960  173.7890  136.5400 O   0  0  0  0  0  0  0  0  0  0  0  0
  187.1540  176.9250  137.3810 C   0  0  0  0  0  0  0  0  0  0  0  0
  190.5970  175.6300  138.3340 C   0  0  2  0  0  3  0  0  0  0  0  0
  188.7320  178.6010  141.0560 C   0  0  0  0  0  2  0  0  0  0  0  0
  188.1710  174.8560  135.3610 N   0  0  0  0  0  0  0  0  0  0  0  0
  190.7360  178.3010  142.8360 O   0  0  0  0  0  0  0  0  0  0  0  0
  192.1600  176.1180  136.2570 C   0  0  0  0  0  2  0  0  0  0  0  0
  191.6650  176.5200  137.6490 C   0  0  0  0  0  2  0  0  0  0  0  0
  187.4300  176.0610  135.0320 C   0  0  0  0  0  2  0  0  0  0  0  0
  187.9830  172.5100  134.6120 C   0  0  0  0  0  3  0  0  0  0  0  0
  187.4830  173.5830  135.3660 C   0  0  0  0  0  0  0  0  0  0  0  0
  186.2940  173.4060  136.0940 C   0  0  0  0  0  3  0  0  0  0  0  0
  184.3730  172.0040  136.8550 C   0  0  0  0  0  1  0  0  0  0  0  0
  186.1390  171.1160  135.3270 C   0  0  0  0  0  3  0  0  0  0  0  0
  185.6280  172.1780  136.0770 C   0  0  0  0  0  0  0  0  0  0  0  0
  187.3150  171.2820  134.5940 C   0  0  0  0  0  3  0  0  0  0  0  0
  196.4680  173.9280  137.9000 O   0  0  0  0  0  0  0  0  0  0  0  0
  196.3360  174.5070  136.7900 C   0  0  0  0  0  0  0  0  0  0  0  0
  193.8010  174.3180  136.8050 C   0  0  0  0  0  0  0  0  0  0  0  0
  195.0420  174.7280  136.2190 N   0  0  0  0  0  2  0  0  0  0  0  0
  193.7760  173.7200  137.9150 O   0  0  0  0  0  0  0  0  0  0  0  0
  197.5060  176.3960  136.0070 O   0  0  0  0  0  1  0  0  0  0  0  0
  197.5430  175.0040  136.0760 C   0  0  0  0  0  2  0  0  0  0  0  0
  1 10  2  0  0  0  0
  1 20  2  0  0  0  0
  2  6  1  0  0  0  0
  3 15  1  0  0  0  0
  4 18  1  0  0  0  0
  5  2  1  6  0  0  0
  5 17  1  0  0  0  0
  6  9  1  0  0  0  0
  6  4  2  0  0  0  0
  7  3  1  1  0  0  0
  7  5  1  0  0  0  0
  8  4  1  0  0  0  0
  9 13  1  0  0  0  0
 11 16  1  0  0  0  0
 12  8  2  0  0  0  0
 13  1  1  0  0  0  0
 14 21  1  0  0  0  0
 14 15  1  0  0  0  0
 14 33  1  1  0  0  0
 16  2  2  0  0  0  0
 16 12  1  0  0  0  0
 17 22  1  6  0  0  0
 17  9  1  0  0  0  0
 18  1  1  0  0  0  0
 19 25  1  0  0  0  0
 19  7  1  0  0  0  0
 21 22  1  0  0  0  0
 23 19  1  0  0  0  0
 23 11  1  0  0  0  0
 24 25  1  0  0  0  0
 25 26  2  0  0  0  0
 28 29  2  0  0  0  0
 29 26  1  0  0  0  0
 29 27  1  0  0  0  0
 30 24  2  0  0  0  0
 30 28  1  0  0  0  0
 32 31  2  0  0  0  0
 33 35  2  0  0  0  0
 34 32  1  0  0  0  0
 34 33  1  0  0  0  0
 36 37  1  0  0  0  0
 37 32  1  0  0  0  0
M  END
>  <MODEL>
3

>  <REMARK>
 VINA RESULT:      -6.8      1.555      2.017
  Name = 
  3 active torsions:
  status: ('A' for Active; 'I' for Inactive)
    1  A    between atoms: C_4  and  C_37
    2  A    between atoms: C_8  and  C_18
    3  A    between atoms: N_23  and  C_30
                            x       y       z     vdW  Elec       q    Type
                         _______ _______ _______ _____ _____    ______ ____

>  <TORSDO>
F 3

$$$$
=
 OpenBabel11122411393D

 37 42  0  0  1  0  0  0  0  0999 V2000
  186.5210  173.6540  136.0660 S   0  0  0  0  0  0  0  0  0  0  0  0
  184.6950  177.1120  138.0000 C   0  0  0  0  0  0  0  0  0  0  0  0
  181.1500  176.7300  139.7990 C   0  0  0  0  0  2  0  0  0  0  0  0
  186.4360  176.3390  136.4840 C   0  0  0  0  0  0  0  0  0  0  0  0
  183.5150  176.5010  138.7200 C   0  0  1  0  0  3  0  0  0  0  0  0
  185.2630  176.1250  137.2260 C   0  0  0  0  0  0  0  0  0  0  0  0
  182.3200  177.4180  139.0560 C   0  0  2  0  0  3  0  0  0  0  0  0
  187.0240  177.6070  136.5360 C   0  0  0  0  0  3  0  0  0  0  0  0
  184.5190  174.9160  137.2730 N   0  0  0  0  0  0  0  0  0  0  0  0
  187.3020  173.2140  137.2710 O   0  0  0  0  0  0  0  0  0  0  0  0
  184.8390  179.5060  138.9690 C   0  0  0  0  0  2  0  0  0  0  0  0
  186.4650  178.6180  137.3320 C   0  0  0  0  0  3  0  0  0  0  0  0
  184.7890  173.7320  136.4630 C   0  0  0  0  0  2  0  0  0  0  0  0
  180.1470  175.3630  138.3010 C   0  0  1  0  0  3  0  0  0  0  0  0
  180.9890  175.3860  139.4250 O   0  0  0  0  0  0  0  0  0  0  0  0
  185.2960  178.3920  138.0770 C   0  0  0  0  0  0  0  0  0  0  0  0
  183.2310  175.2070  137.8890 C   0  0  2  0  0  3  0  0  0  0  0  0
  187.0240  175.2940  135.5820 C   0  0  0  0  0  2  0  0  0  0  0  0
  182.7700  178.5920  139.8000 N   0  0  0  0  0  0  0  0  0  0  0  0
  186.7470  172.6910  134.9350 O   0  0  0  0  0  0  0  0  0  0  0  0
  180.8310  175.9430  137.0560 C   0  0  0  0  0  2  0  0  0  0  0  0
  182.2070  175.3520  136.7350 C   0  0  0  0  0  2  0  0  0  0  0  0
  183.3300  179.6660  138.9990 C   0  0  0  0  0  2  0  0  0  0  0  0
  181.9510  178.9790  142.0980 C   0  0  0  0  0  3  0  0  0  0  0  0
  182.9840  178.5930  141.2310 C   0  0  0  0  0  0  0  0  0  0  0  0
  184.2310  178.2400  141.7760 C   0  0  0  0  0  3  0  0  0  0  0  0
  185.7570  177.8840  143.7200 C   0  0  0  0  0  1  0  0  0  0  0  0
  183.3950  178.6430  144.0110 C   0  0  0  0  0  3  0  0  0  0  0  0
  184.4340  178.2630  143.1580 C   0  0  0  0  0  0  0  0  0  0  0  0
  182.1540  179.0020  143.4820 C   0  0  0  0  0  3  0  0  0  0  0  0
  178.9310  171.2840  137.2190 O   0  0  0  0  0  0  0  0  0  0  0  0
  179.6020  172.0090  136.4380 C   0  0  0  0  0  0  0  0  0  0  0  0
  179.6560  173.9760  138.0470 C   0  0  0  0  0  0  0  0  0  0  0  0
  179.9880  173.3360  136.8100 N   0  0  0  0  0  2  0  0  0  0  0  0
  178.9800  173.3750  138.9260 O   0  0  0  0  0  0  0  0  0  0  0  0
  181.1140  170.6030  135.3050 O   0  0  0  0  0  1  0  0  0  0  0  0
  180.0330  171.4650  135.1230 C   0  0  0  0  0  2  0  0  0  0  0  0
  1 13  1  0  0  0  0
  1 10  2  0  0  0  0
  2 16  1  0  0  0  0
  4  8  2  0  0  0  0
  4  6  1  0  0  0  0
  5  2  1  6  0  0  0
  5  7  1  0  0  0  0
  6  9  1  0  0  0  0
  6  2  2  0  0  0  0
  7  3  1  1  0  0  0
  7 19  1  0  0  0  0
  8 12  1  0  0  0  0
  9 17  1  0  0  0  0
 11 23  1  0  0  0  0
 12 16  2  0  0  0  0
 13  9  1  0  0  0  0
 14 33  1  6  0  0  0
 14 15  1  0  0  0  0
 15  3  1  0  0  0  0
 16 11  1  0  0  0  0
 17 22  1  6  0  0  0
 17  5  1  0  0  0  0
 18  1  1  0  0  0  0
 18  4  1  0  0  0  0
 19 25  1  0  0  0  0
 20  1  2  0  0  0  0
 21 14  1  0  0  0  0
 22 21  1  0  0  0  0
 23 19  1  0  0  0  0
 24 30  1  0  0  0  0
 25 26  1  0  0  0  0
 25 24  2  0  0  0  0
 26 29  2  0  0  0  0
 29 27  1  0  0  0  0
 29 28  1  0  0  0  0
 30 28  2  0  0  0  0
 32 34  1  0  0  0  0
 32 31  2  0  0  0  0
 33 35  2  0  0  0  0
 34 33  1  0  0  0  0
 37 36  1  0  0  0  0
 37 32  1  0  0  0  0
M  END
>  <MODEL>
4

>  <REMARK>
 VINA RESULT:      -6.5      5.807     10.040
  Name = 
  3 active torsions:
  status: ('A' for Active; 'I' for Inactive)
    1  A    between atoms: C_4  and  C_37
    2  A    between atoms: C_8  and  C_18
    3  A    between atoms: N_23  and  C_30
                            x       y       z     vdW  Elec       q    Type
                         _______ _______ _______ _____ _____    ______ ____

>  <TORSDO>
F 3

$$$$
=
 OpenBabel11122411393D

 37 42  0  0  1  0  0  0  0  0999 V2000
  186.4710  177.9660  144.5580 S   0  0  0  0  0  0  0  0  0  0  0  0
  182.8700  178.2580  142.1140 C   0  0  0  0  0  0  0  0  0  0  0  0
  183.0350  177.3410  138.2300 C   0  0  0  0  0  2  0  0  0  0  0  0
  183.9120  178.8260  144.2390 C   0  0  0  0  0  0  0  0  0  0  0  0
  183.3060  177.6320  140.8090 C   0  0  1  0  0  3  0  0  0  0  0  0
  183.9830  178.3560  142.9180 C   0  0  0  0  0  0  0  0  0  0  0  0
  182.5410  178.0240  139.5280 C   0  0  2  0  0  3  0  0  0  0  0  0
  182.6620  179.2140  144.7320 C   0  0  0  0  0  3  0  0  0  0  0  0
  185.1650  177.9440  142.2450 N   0  0  0  0  0  0  0  0  0  0  0  0
  186.2310  176.5480  144.9950 O   0  0  0  0  0  0  0  0  0  0  0  0
  180.3020  178.4590  141.8740 C   0  0  0  0  0  2  0  0  0  0  0  0
  181.5160  179.1050  143.9290 C   0  0  0  0  0  3  0  0  0  0  0  0
  186.5170  178.0520  142.7820 C   0  0  0  0  0  2  0  0  0  0  0  0
  185.0480  178.2530  137.7440 C   0  0  1  0  0  3  0  0  0  0  0  0
  184.4190  177.1000  138.2410 O   0  0  0  0  0  0  0  0  0  0  0  0
  181.5960  178.6270  142.6110 C   0  0  0  0  0  0  0  0  0  0  0  0
  184.8570  177.8360  140.8250 C   0  0  2  0  0  3  0  0  0  0  0  0
  185.1260  179.0030  145.1010 C   0  0  0  0  0  2  0  0  0  0  0  0
  181.1070  177.8030  139.7000 N   0  0  0  0  0  0  0  0  0  0  0  0
  187.7680  178.4600  145.1330 O   0  0  0  0  0  0  0  0  0  0  0  0
  184.9410  179.4330  138.7190 C   0  0  0  0  0  2  0  0  0  0  0  0
  185.3780  179.1320  140.1550 C   0  0  0  0  0  2  0  0  0  0  0  0
  180.3930  178.8490  140.4100 C   0  0  0  0  0  2  0  0  0  0  0  0
  180.3360  175.6320  140.5900 C   0  0  0  0  0  3  0  0  0  0  0  0
  180.4720  176.5180  139.5100 C   0  0  0  0  0  0  0  0  0  0  0  0
  180.0110  176.1190  138.2430 C   0  0  0  0  0  3  0  0  0  0  0  0
  178.9310  174.4600  136.7220 C   0  0  0  0  0  1  0  0  0  0  0  0
  179.2820  173.9970  139.1510 C   0  0  0  0  0  3  0  0  0  0  0  0
  179.4170  174.8660  138.0660 C   0  0  0  0  0  0  0  0  0  0  0  0
  179.7430  174.3780  140.4120 C   0  0  0  0  0  3  0  0  0  0  0  0
  189.1340  177.0100  136.7170 O   0  0  0  0  0  0  0  0  0  0  0  0
  188.2220  176.1750  136.9520 C   0  0  0  0  0  0  0  0  0  0  0  0
  186.4730  177.9630  137.4060 C   0  0  0  0  0  0  0  0  0  0  0  0
  186.8960  176.6010  137.2860 N   0  0  0  0  0  2  0  0  0  0  0  0
  187.2800  178.9120  137.2060 O   0  0  0  0  0  0  0  0  0  0  0  0
  189.6560  174.4180  137.5880 O   0  0  0  0  0  1  0  0  0  0  0  0
  188.5160  174.7210  136.8450 C   0  0  0  0  0  2  0  0  0  0  0  0
  1 10  2  0  0  0  0
  1 18  1  0  0  0  0
  1 20  2  0  0  0  0
  2 16  2  0  0  0  0
  2  6  1  0  0  0  0
  3 15  1  0  0  0  0
  4  8  1  0  0  0  0
  4 18  1  0  0  0  0
  5 17  1  0  0  0  0
  5  2  1  1  0  0  0
  6  4  2  0  0  0  0
  7  3  1  6  0  0  0
  7 19  1  0  0  0  0
  7  5  1  0  0  0  0
  9 13  1  0  0  0  0
  9  6  1  0  0  0  0
 11 16  1  0  0  0  0
 12  8  2  0  0  0  0
 13  1  1  0  0  0  0
 14 33  1  1  0  0  0
 14 15  1  0  0  0  0
 14 21  1  0  0  0  0
 16 12  1  0  0  0  0
 17 22  1  6  0  0  0
 17  9  1  0  0  0  0
 19 23  1  0  0  0  0
 21 22  1  0  0  0  0
 23 11  1  0  0  0  0
 25 19  1  0  0  0  0
 25 24  2  0  0  0  0
 26 25  1  0  0  0  0
 27 29  1  0  0  0  0
 28 30  2  0  0  0  0
 29 26  2  0  0  0  0
 29 28  1  0  0  0  0
 30 24  1  0  0  0  0
 31 32  2  0  0  0  0
 32 34  1  0  0  0  0
 34 33  1  0  0  0  0
 35 33  2  0  0  0  0
 37 32  1  0  0  0  0
 37 36  1  0  0  0  0
M  END
>  <MODEL>
5

>  <REMARK>
 VINA RESULT:      -6.4      4.903      7.208
  Name = 
  3 active torsions:
  status: ('A' for Active; 'I' for Inactive)
    1  A    between atoms: C_4  and  C_37
    2  A    between atoms: C_8  and  C_18
    3  A    between atoms: N_23  and  C_30
                            x       y       z     vdW  Elec       q    Type
                         _______ _______ _______ _____ _____    ______ ____

>  <TORSDO>
F 3

$$$$
=
 OpenBabel11122411393D

 37 42  0  0  1  0  0  0  0  0999 V2000
  190.0690  176.9250  142.6760 S   0  0  0  0  0  0  0  0  0  0  0  0
  186.5520  178.1990  140.4310 C   0  0  0  0  0  0  0  0  0  0  0  0
  186.3760  177.5480  136.4950 C   0  0  0  0  0  2  0  0  0  0  0  0
  187.7660  178.3630  142.5350 C   0  0  0  0  0  0  0  0  0  0  0  0
  186.7900  177.5850  139.0700 C   0  0  1  0  0  3  0  0  0  0  0  0
  187.6840  177.9850  141.1850 C   0  0  0  0  0  0  0  0  0  0  0  0
  186.0940  178.2310  137.8550 C   0  0  2  0  0  3  0  0  0  0  0  0
  186.6550  178.9870  143.1110 C   0  0  0  0  0  3  0  0  0  0  0  0
  188.7170  177.3650  140.4320 N   0  0  0  0  0  0  0  0  0  0  0  0
  189.5260  175.5720  143.0350 O   0  0  0  0  0  0  0  0  0  0  0  0
  184.0920  178.9930  140.3290 C   0  0  0  0  0  2  0  0  0  0  0  0
  185.4880  179.1990  142.3590 C   0  0  0  0  0  3  0  0  0  0  0  0
  190.0760  177.1260  140.9090 C   0  0  0  0  0  2  0  0  0  0  0  0
  188.5270  178.0140  135.9700 C   0  0  1  0  0  3  0  0  0  0  0  0
  187.6670  177.0000  136.4230 O   0  0  0  0  0  0  0  0  0  0  0  0
  185.4140  178.8110  141.0110 C   0  0  0  0  0  0  0  0  0  0  0  0
  188.3460  177.4320  139.0250 C   0  0  2  0  0  3  0  0  0  0  0  0
  189.0160  178.1990  143.3460 C   0  0  0  0  0  2  0  0  0  0  0  0
  184.6540  178.3290  138.0820 N   0  0  0  0  0  0  0  0  0  0  0  0
  191.4630  177.0720  143.2170 O   0  0  0  0  0  0  0  0  0  0  0  0
  188.7250  179.1150  137.0210 C   0  0  0  0  0  2  0  0  0  0  0  0
  189.1280  178.6210  138.4120 C   0  0  0  0  0  2  0  0  0  0  0  0
  184.2220  179.4550  138.8890 C   0  0  0  0  0  2  0  0  0  0  0  0
  182.3600  177.4870  137.7250 C   0  0  0  0  0  3  0  0  0  0  0  0
  183.7360  177.2370  137.8430 C   0  0  0  0  0  0  0  0  0  0  0  0
  184.1950  175.9110  137.7560 C   0  0  0  0  0  3  0  0  0  0  0  0
  183.7970  173.4650  137.4520 C   0  0  0  0  0  1  0  0  0  0  0  0
  181.9300  175.1250  137.4230 C   0  0  0  0  0  3  0  0  0  0  0  0
  183.2960  174.8620  137.5450 C   0  0  0  0  0  0  0  0  0  0  0  0
  181.4610  176.4360  137.5140 C   0  0  0  0  0  3  0  0  0  0  0  0
  192.3010  175.9990  134.9740 O   0  0  0  0  0  0  0  0  0  0  0  0
  191.5560  175.5980  135.9070 C   0  0  0  0  0  0  0  0  0  0  0  0
  189.8360  177.4350  135.5460 C   0  0  0  0  0  0  0  0  0  0  0  0
  190.3300  176.2700  136.2160 N   0  0  0  0  0  2  0  0  0  0  0  0
  190.4790  177.9550  134.5940 O   0  0  0  0  0  0  0  0  0  0  0  0
  191.4390  174.4790  137.9760 O   0  0  0  0  0  1  0  0  0  0  0  0
  191.9380  174.3850  136.6770 C   0  0  0  0  0  2  0  0  0  0  0  0
  1 10  2  0  0  0  0
  1 20  2  0  0  0  0
  1 18  1  0  0  0  0
  2 16  2  0  0  0  0
  2  6  1  0  0  0  0
  4  8  1  0  0  0  0
  4 18  1  0  0  0  0
  5  2  1  1  0  0  0
  6  4  2  0  0  0  0
  7  3  1  6  0  0  0
  7 19  1  0  0  0  0
  7  5  1  0  0  0  0
  9 13  1  0  0  0  0
  9  6  1  0  0  0  0
 11 16  1  0  0  0  0
 12  8  2  0  0  0  0
 13  1  1  0  0  0  0
 14 33  1  1  0  0  0
 14 15  1  0  0  0  0
 14 21  1  0  0  0  0
 15  3  1  0  0  0  0
 16 12  1  0  0  0  0
 17 22  1  1  0  0  0
 17  5  1  0  0  0  0
 17  9  1  0  0  0  0
 19 23  1  0  0  0  0
 21 22  1  0  0  0  0
 23 11  1  0  0  0  0
 24 25  1  0  0  0  0
 25 19  1  0  0  0  0
 26 25  2  0  0  0  0
 27 29  1  0  0  0  0
 28 30  1  0  0  0  0
 28 29  2  0  0  0  0
 29 26  1  0  0  0  0
 30 24  2  0  0  0  0
 31 32  2  0  0  0  0
 32 34  1  0  0  0  0
 32 37  1  0  0  0  0
 33 34  1  0  0  0  0
 35 33  2  0  0  0  0
 37 36  1  0  0  0  0
M  END
>  <MODEL>
6

>  <REMARK>
 VINA RESULT:      -6.3      2.654      4.199
  Name = 
  3 active torsions:
  status: ('A' for Active; 'I' for Inactive)
    1  A    between atoms: C_4  and  C_37
    2  A    between atoms: C_8  and  C_18
    3  A    between atoms: N_23  and  C_30
                            x       y       z     vdW  Elec       q    Type
                         _______ _______ _______ _____ _____    ______ ____

>  <TORSDO>
F 3

$$$$
=
 OpenBabel11122411393D

 37 42  0  0  1  0  0  0  0  0999 V2000
  187.5250  177.7380  138.2230 S   0  0  0  0  0  0  0  0  0  0  0  0
  183.4090  177.9310  136.7890 C   0  0  0  0  0  0  0  0  0  0  0  0
  180.5770  179.5180  139.1140 C   0  0  0  0  0  2  0  0  0  0  0  0
  185.6230  176.9830  136.4330 C   0  0  0  0  0  0  0  0  0  0  0  0
  182.7310  178.7720  137.8460 C   0  0  1  0  0  3  0  0  0  0  0  0
  184.6920  177.6780  137.2210 C   0  0  0  0  0  0  0  0  0  0  0  0
  181.2060  178.6230  138.0200 C   0  0  2  0  0  3  0  0  0  0  0  0
  185.2110  176.5310  135.1750 C   0  0  0  0  0  3  0  0  0  0  0  0
  184.9240  178.1860  138.5280 N   0  0  0  0  0  0  0  0  0  0  0  0
  187.9400  179.0590  137.6400 O   0  0  0  0  0  0  0  0  0  0  0  0
  181.6640  177.8100  134.8830 C   0  0  0  0  0  2  0  0  0  0  0  0
  183.9120  176.7950  134.7150 C   0  0  0  0  0  3  0  0  0  0  0  0
  186.1360  177.9660  139.3110 C   0  0  0  0  0  2  0  0  0  0  0  0
  181.2510  178.6780  141.1040 C   0  0  1  0  0  3  0  0  0  0  0  0
  181.4430  179.7340  140.1980 O   0  0  0  0  0  0  0  0  0  0  0  0
  182.9900  177.4970  135.5080 C   0  0  0  0  0  0  0  0  0  0  0  0
  183.6350  178.5470  139.1030 C   0  0  2  0  0  3  0  0  0  0  0  0
  186.9990  176.6390  136.9210 C   0  0  0  0  0  2  0  0  0  0  0  0
  180.5230  178.8290  136.7450 N   0  0  0  0  0  0  0  0  0  0  0  0
  188.6750  177.1320  138.9760 O   0  0  0  0  0  0  0  0  0  0  0  0
  181.7810  177.3460  140.5570 C   0  0  0  0  0  2  0  0  0  0  0  0
  183.2210  177.3830  140.0380 C   0  0  0  0  0  2  0  0  0  0  0  0
  180.5030  177.6840  135.8520 C   0  0  0  0  0  2  0  0  0  0  0  0
  179.2470  180.2640  135.1910 C   0  0  0  0  0  3  0  0  0  0  0  0
  180.1880  180.1360  136.2250 C   0  0  0  0  0  0  0  0  0  0  0  0
  180.8160  181.2940  136.7170 C   0  0  0  0  0  3  0  0  0  0  0  0
  181.1690  183.7650  136.7270 C   0  0  0  0  0  1  0  0  0  0  0  0
  179.5570  182.6640  135.1700 C   0  0  0  0  0  3  0  0  0  0  0  0
  180.5000  182.5500  136.1940 C   0  0  0  0  0  0  0  0  0  0  0  0
  178.9310  181.5210  134.6670 C   0  0  0  0  0  3  0  0  0  0  0  0
  183.4290  179.4780  144.8340 O   0  0  0  0  0  0  0  0  0  0  0  0
  183.9310  178.7970  143.9010 C   0  0  0  0  0  0  0  0  0  0  0  0
  181.8740  179.0040  142.4220 C   0  0  0  0  0  0  0  0  0  0  0  0
  183.2040  178.5470  142.6940 N   0  0  0  0  0  2  0  0  0  0  0  0
  181.2410  179.6930  143.2670 O   0  0  0  0  0  0  0  0  0  0  0  0
  185.7960  177.8810  142.7920 O   0  0  0  0  0  1  0  0  0  0  0  0
  185.3160  178.2730  144.0400 C   0  0  0  0  0  2  0  0  0  0  0  0
  1 20  2  0  0  0  0
  1 13  1  0  0  0  0
  2  6  1  0  0  0  0
  3 15  1  0  0  0  0
  4 18  1  0  0  0  0
  4  6  2  0  0  0  0
  5  2  1  6  0  0  0
  5  7  1  0  0  0  0
  5 17  1  0  0  0  0
  6  9  1  0  0  0  0
  7  3  1  1  0  0  0
  8  4  1  0  0  0  0
  9 17  1  0  0  0  0
  9 13  1  0  0  0  0
 10  1  2  0  0  0  0
 11 16  1  0  0  0  0
 11 23  1  0  0  0  0
 12  8  2  0  0  0  0
 12 16  1  0  0  0  0
 14 33  1  1  0  0  0
 15 14  1  0  0  0  0
 16  2  2  0  0  0  0
 17 22  1  1  0  0  0
 18  1  1  0  0  0  0
 19  7  1  0  0  0  0
 21 14  1  0  0  0  0
 22 21  1  0  0  0  0
 23 19  1  0  0  0  0
 24 25  1  0  0  0  0
 25 26  2  0  0  0  0
 25 19  1  0  0  0  0
 28 29  2  0  0  0  0
 29 26  1  0  0  0  0
 29 27  1  0  0  0  0
 30 28  1  0  0  0  0
 30 24  2  0  0  0  0
 32 37  1  0  0  0  0
 32 31  2  0  0  0  0
 33 34  1  0  0  0  0
 33 35  2  0  0  0  0
 34 32  1  0  0  0  0
 36 37  1  0  0  0  0
M  END
>  <MODEL>
7

>  <REMARK>
 VINA RESULT:      -6.3      6.015      9.885
  Name = 
  3 active torsions:
  status: ('A' for Active; 'I' for Inactive)
    1  A    between atoms: C_4  and  C_37
    2  A    between atoms: C_8  and  C_18
    3  A    between atoms: N_23  and  C_30
                            x       y       z     vdW  Elec       q    Type
                         _______ _______ _______ _____ _____    ______ ____

>  <TORSDO>
F 3

$$$$
=
 OpenBabel11122411393D

 37 42  0  0  1  0  0  0  0  0999 V2000
  185.8470  177.1050  137.1790 S   0  0  0  0  0  0  0  0  0  0  0  0
  181.8650  178.8820  137.0380 C   0  0  0  0  0  0  0  0  0  0  0  0
  180.3190  180.5340  140.3280 C   0  0  0  0  0  2  0  0  0  0  0  0
  183.4770  177.4600  135.8950 C   0  0  0  0  0  0  0  0  0  0  0  0
  181.7610  179.5640  138.3830 C   0  0  1  0  0  3  0  0  0  0  0  0
  183.0350  178.1550  137.0320 C   0  0  0  0  0  0  0  0  0  0  0  0
  180.3520  179.8270  138.9520 C   0  0  2  0  0  3  0  0  0  0  0  0
  182.6840  177.5100  134.7440 C   0  0  0  0  0  3  0  0  0  0  0  0
  183.6950  178.1960  138.2890 N   0  0  0  0  0  0  0  0  0  0  0  0
  186.5740  178.3520  136.7620 O   0  0  0  0  0  0  0  0  0  0  0  0
  179.8390  179.8030  135.7200 C   0  0  0  0  0  2  0  0  0  0  0  0
  181.4970  178.2590  134.7310 C   0  0  0  0  0  3  0  0  0  0  0  0
  184.8830  177.4260  138.6390 C   0  0  0  0  0  2  0  0  0  0  0  0
  181.0460  179.0240  141.8490 C   0  0  1  0  0  3  0  0  0  0  0  0
  181.4080  180.1830  141.1420 O   0  0  0  0  0  0  0  0  0  0  0  0
  181.0660  178.9570  135.8710 C   0  0  0  0  0  0  0  0  0  0  0  0
  182.7640  178.7490  139.2650 C   0  0  2  0  0  3  0  0  0  0  0  0
  184.7110  176.6080  135.8980 C   0  0  0  0  0  2  0  0  0  0  0  0
  179.5400  180.5650  137.9870 N   0  0  0  0  0  0  0  0  0  0  0  0
  186.8370  176.0070  137.4450 O   0  0  0  0  0  0  0  0  0  0  0  0
  180.9460  177.7970  140.9320 C   0  0  0  0  0  2  0  0  0  0  0  0
  182.1660  177.5490  140.0420 C   0  0  0  0  0  2  0  0  0  0  0  0
  178.9340  179.7650  136.9370 C   0  0  0  0  0  2  0  0  0  0  0  0
  178.9340  182.8290  138.7660 C   0  0  0  0  0  3  0  0  0  0  0  0
  179.5900  182.0030  137.8390 C   0  0  0  0  0  0  0  0  0  0  0  0
  180.2630  182.5960  136.7570 C   0  0  0  0  0  3  0  0  0  0  0  0
  181.0080  184.5990  135.4670 C   0  0  0  0  0  1  0  0  0  0  0  0
  179.6380  184.7970  137.5460 C   0  0  0  0  0  3  0  0  0  0  0  0
  180.2880  183.9860  136.6140 C   0  0  0  0  0  0  0  0  0  0  0  0
  178.9590  184.2200  138.6210 C   0  0  0  0  0  3  0  0  0  0  0  0
  184.1520  178.3460  144.8790 O   0  0  0  0  0  0  0  0  0  0  0  0
  184.4210  178.4060  143.6500 C   0  0  0  0  0  0  0  0  0  0  0  0
  182.0000  178.7800  142.9710 C   0  0  0  0  0  0  0  0  0  0  0  0
  183.3930  178.6270  142.6790 N   0  0  0  0  0  2  0  0  0  0  0  0
  181.5790  178.7360  144.1600 O   0  0  0  0  0  0  0  0  0  0  0  0
  186.6610  178.1040  144.3110 O   0  0  0  0  0  1  0  0  0  0  0  0
  185.8340  178.2830  143.2030 C   0  0  0  0  0  2  0  0  0  0  0  0
  1 20  2  0  0  0  0
  1 13  1  0  0  0  0
  3 15  1  0  0  0  0
  4 18  1  0  0  0  0
  4  6  2  0  0  0  0
  5  2  1  6  0  0  0
  5  7  1  0  0  0  0
  5 17  1  0  0  0  0
  6  2  1  0  0  0  0
  6  9  1  0  0  0  0
  7  3  1  1  0  0  0
  8  4  1  0  0  0  0
  9 13  1  0  0  0  0
  9 17  1  0  0  0  0
 10  1  2  0  0  0  0
 11 16  1  0  0  0  0
 11 23  1  0  0  0  0
 12  8  2  0  0  0  0
 12 16  1  0  0  0  0
 14 33  1  1  0  0  0
 15 14  1  0  0  0  0
 16  2  2  0  0  0  0
 17 22  1  6  0  0  0
 18  1  1  0  0  0  0
 19  7  1  0  0  0  0
 21 14  1  0  0  0  0
 22 21  1  0  0  0  0
 23 19  1  0  0  0  0
 25 19  1  0  0  0  0
 25 24  2  0  0  0  0
 26 25  1  0  0  0  0
 27 29  1  0  0  0  0
 28 30  2  0  0  0  0
 29 26  2  0  0  0  0
 29 28  1  0  0  0  0
 30 24  1  0  0  0  0
 32 31  2  0  0  0  0
 33 35  2  0  0  0  0
 34 33  1  0  0  0  0
 34 32  1  0  0  0  0
 37 32  1  0  0  0  0
 37 36  1  0  0  0  0
M  END
>  <MODEL>
8

>  <REMARK>
 VINA RESULT:      -6.1      6.722     10.806
  Name = 
  3 active torsions:
  status: ('A' for Active; 'I' for Inactive)
    1  A    between atoms: C_4  and  C_37
    2  A    between atoms: C_8  and  C_18
    3  A    between atoms: N_23  and  C_30
                            x       y       z     vdW  Elec       q    Type
                         _______ _______ _______ _____ _____    ______ ____

>  <TORSDO>
F 3

$$$$
=
 OpenBabel11122411393D

 37 42  0  0  1  0  0  0  0  0999 V2000
  188.9940  175.2050  136.6240 S   0  0  0  0  0  0  0  0  0  0  0  0
  190.9650  176.9360  140.1100 C   0  0  0  0  0  0  0  0  0  0  0  0
  188.8110  177.8600  143.3440 C   0  0  0  0  0  2  0  0  0  0  0  0
  191.1750  176.3730  137.7510 C   0  0  0  0  0  0  0  0  0  0  0  0
  189.8660  176.9250  141.1480 C   0  0  1  0  0  3  0  0  0  0  0  0
  190.4070  176.5460  138.9130 C   0  0  0  0  0  0  0  0  0  0  0  0
  189.9650  177.9300  142.3150 C   0  0  2  0  0  3  0  0  0  0  0  0
  192.5490  176.6220  137.8290 C   0  0  0  0  0  3  0  0  0  0  0  0
  189.0010  176.3640  139.0140 N   0  0  0  0  0  0  0  0  0  0  0  0
  189.2040  173.7770  137.0370 O   0  0  0  0  0  0  0  0  0  0  0  0
  193.0950  177.4840  141.4710 C   0  0  0  0  0  2  0  0  0  0  0  0
  193.1350  177.0050  139.0460 C   0  0  0  0  0  3  0  0  0  0  0  0
  188.1090  176.0800  137.8950 C   0  0  0  0  0  2  0  0  0  0  0  0
  186.9730  178.6830  142.3130 C   0  0  1  0  0  3  0  0  0  0  0  0
  187.5870  177.5000  142.7580 O   0  0  0  0  0  0  0  0  0  0  0  0
  192.3590  177.1680  140.2040 C   0  0  0  0  0  0  0  0  0  0  0  0
  188.5650  176.9410  140.2790 C   0  0  2  0  0  3  0  0  0  0  0  0
  190.5690  176.0170  136.4260 C   0  0  0  0  0  2  0  0  0  0  0  0
  191.2530  177.8020  142.9920 N   0  0  0  0  0  0  0  0  0  0  0  0
  188.2240  175.2530  135.3340 O   0  0  0  0  0  0  0  0  0  0  0  0
  187.7100  179.2990  141.1160 C   0  0  0  0  0  2  0  0  0  0  0  0
  187.9820  178.3390  139.9550 C   0  0  0  0  0  2  0  0  0  0  0  0
  192.3670  178.4810  142.3530 C   0  0  0  0  0  2  0  0  0  0  0  0
  191.7490  175.4750  143.6560 C   0  0  0  0  0  3  0  0  0  0  0  0
  191.5210  176.8130  144.0130 C   0  0  0  0  0  0  0  0  0  0  0  0
  191.5260  177.1630  145.3750 C   0  0  0  0  0  3  0  0  0  0  0  0
  191.7720  176.5800  147.7900 C   0  0  0  0  0  1  0  0  0  0  0  0
  191.9980  174.8690  145.9850 C   0  0  0  0  0  3  0  0  0  0  0  0
  191.7660  176.1950  146.3540 C   0  0  0  0  0  0  0  0  0  0  0  0
  191.9880  174.5080  144.6360 C   0  0  0  0  0  3  0  0  0  0  0  0
  182.8070  178.1660  141.0210 O   0  0  0  0  0  0  0  0  0  0  0  0
  183.5980  178.9450  140.4260 C   0  0  0  0  0  0  0  0  0  0  0  0
  185.5370  178.4340  141.9890 C   0  0  0  0  0  0  0  0  0  0  0  0
  184.9520  179.0990  140.8640 N   0  0  0  0  0  2  0  0  0  0  0  0
  184.8630  177.6270  142.6860 O   0  0  0  0  0  0  0  0  0  0  0  0
  184.0660  180.6640  138.8850 O   0  0  0  0  0  1  0  0  0  0  0  0
  183.1300  179.6890  139.2270 C   0  0  0  0  0  2  0  0  0  0  0  0
  1 10  2  0  0  0  0
  1 13  1  0  0  0  0
  2 16  1  0  0  0  0
  4  8  2  0  0  0  0
  4  6  1  0  0  0  0
  5  2  1  6  0  0  0
  5  7  1  0  0  0  0
  6  9  1  0  0  0  0
  6  2  2  0  0  0  0
  7 19  1  0  0  0  0
  7  3  1  1  0  0  0
  8 12  1  0  0  0  0
  9 17  1  0  0  0  0
 11 23  1  0  0  0  0
 12 16  2  0  0  0  0
 13  9  1  0  0  0  0
 14 33  1  6  0  0  0
 14 15  1  0  0  0  0
 15  3  1  0  0  0  0
 16 11  1  0  0  0  0
 17 22  1  6  0  0  0
 17  5  1  0  0  0  0
 18  1  1  0  0  0  0
 18  4  1  0  0  0  0
 19 25  1  0  0  0  0
 20  1  2  0  0  0  0
 21 14  1  0  0  0  0
 22 21  1  0  0  0  0
 23 19  1  0  0  0  0
 24 25  2  0  0  0  0
 24 30  1  0  0  0  0
 25 26  1  0  0  0  0
 26 29  2  0  0  0  0
 28 29  1  0  0  0  0
 29 27  1  0  0  0  0
 30 28  2  0  0  0  0
 32 34  1  0  0  0  0
 32 31  2  0  0  0  0
 33 35  2  0  0  0  0
 34 33  1  0  0  0  0
 36 37  1  0  0  0  0
 37 32  1  0  0  0  0
M  END
>  <MODEL>
9

>  <REMARK>
 VINA RESULT:      -6.1      3.533      8.897
  Name = 
  3 active torsions:
  status: ('A' for Active; 'I' for Inactive)
    1  A    between atoms: C_4  and  C_37
    2  A    between atoms: C_8  and  C_18
    3  A    between atoms: N_23  and  C_30
                            x       y       z     vdW  Elec       q    Type
                         _______ _______ _______ _____ _____    ______ ____

>  <TORSDO>
F 3

$$$$
