=
 OpenBabel11122412083D

 34 41  0  0  1  0  0  0  0  0999 V2000
  187.6690  177.9120  140.1050 C   0  0  0  0  0  0  0  0  0  0  0  0
  185.7690  178.6700  138.6070 C   0  0  0  0  0  2  0  0  0  0  0  0
  190.7320  177.7210  145.4510 C   0  0  2  0  0  3  0  0  0  0  0  0
  189.2090  176.7980  141.5860 C   0  0  0  0  0  0  0  0  0  0  0  0
  188.7810  176.6890  144.0840 C   0  0  1  0  0  3  0  0  0  0  0  0
  189.7990  178.9120  143.9670 O   0  0  0  0  0  0  0  0  0  0  0  0
  191.1070  178.8300  144.4850 C   0  0  0  0  0  2  0  0  0  0  0  0
  191.7940  176.2650  143.9200 C   0  0  0  0  0  2  0  0  0  0  0  0
  185.6350  179.1180  140.9860 C   0  0  2  0  0  3  0  0  0  0  0  0
  182.8810  178.3660  142.3660 C   0  0  0  0  0  2  0  0  0  0  0  0
  187.3110  176.9070  143.7150 C   0  0  0  0  0  2  0  0  0  0  0  0
  190.7700  175.5190  143.0820 C   0  0  0  0  0  2  0  0  0  0  0  0
  185.7150  178.1630  142.1960 C   0  0  1  0  0  3  0  0  0  0  0  0
  184.4080  179.2920  138.8770 C   0  0  0  0  0  2  0  0  0  0  0  0
  189.5810  176.3410  142.9010 N   0  0  0  0  0  0  0  0  0  0  0  0
  191.3070  176.4320  145.2310 O   0  0  0  0  0  0  0  0  0  0  0  0
  183.1600  178.3090  140.8520 C   0  0  1  0  0  3  0  0  0  0  0  0
  188.0260  177.5280  141.4050 C   0  0  0  0  0  0  0  0  0  0  0  0
  189.3530  177.9040  144.8430 C   0  0  2  0  0  3  0  0  0  0  0  0
  187.1830  177.9400  142.5920 C   0  0  2  0  0  3  0  0  0  0  0  0
  189.6040  176.8550  139.2510 C   0  0  0  0  0  3  0  0  0  0  0  0
  183.6940  179.3140  143.0110 O   0  0  0  0  0  0  0  0  0  0  0  0
  189.9690  176.4760  140.5040 N   0  0  0  0  0  0  0  0  0  0  0  0
  184.8830  178.6630  143.3940 C   0  0  0  0  0  2  0  0  0  0  0  0
  184.2310  179.3250  140.3920 C   0  0  1  0  0  3  0  0  0  0  0  0
  188.4610  177.5600  139.0560 N   0  0  0  0  0  0  0  0  0  0  0  0
  186.4440  178.6220  139.8880 N   0  0  0  0  0  0  0  0  0  0  0  0
  183.5180  177.0040  140.4930 O   0  0  0  0  0  0  0  0  0  0  0  0
  182.3540  176.4350  139.9730 C   0  0  0  0  0  2  0  0  0  0  0  0
  183.3760  174.8300  136.8300 C   0  0  0  0  0  2  0  0  0  0  0  0
  181.2090  175.7430  137.8880 C   0  0  0  0  0  2  0  0  0  0  0  0
  182.5160  176.2080  138.4810 C   0  0  2  0  0  3  0  0  0  0  0  0
  181.6130  174.8150  136.3870 S   0  0  0  0  0  0  0  0  0  0  0  0
  183.5150  175.1850  138.2330 N   0  0  0  0  0  2  0  0  0  0  0  0
  1 18  1  0  0  0  0
  2 14  1  0  0  0  0
  2 27  1  0  0  0  0
  3  7  1  6  0  0  0
  4 15  1  0  0  0  0
  5 11  1  6  0  0  0
  5 19  1  0  0  0  0
  6  7  1  0  0  0  0
  8 16  1  0  0  0  0
  9 27  1  6  0  0  0
  9 13  1  0  0  0  0
 10 22  1  0  0  0  0
 12  8  1  0  0  0  0
 13 20  1  0  0  0  0
 13 24  1  1  0  0  0
 15 12  1  0  0  0  0
 15  5  1  0  0  0  0
 16  3  1  0  0  0  0
 17 28  1  1  0  0  0
 17 10  1  0  0  0  0
 18  4  2  0  0  0  0
 18 20  1  0  0  0  0
 19  6  1  6  0  0  0
 19  3  1  0  0  0  0
 20 11  1  1  0  0  0
 21 23  2  0  0  0  0
 22 24  1  0  0  0  0
 23  4  1  0  0  0  0
 25 14  1  6  0  0  0
 25 17  1  0  0  0  0
 25  9  1  0  0  0  0
 26 21  1  0  0  0  0
 26  1  2  0  0  0  0
 27  1  1  0  0  0  0
 29 28  1  0  0  0  0
 30 34  1  0  0  0  0
 31 32  1  0  0  0  0
 32 29  1  1  0  0  0
 33 30  1  0  0  0  0
 33 31  1  0  0  0  0
 34 32  1  0  0  0  0
M  END
>  <MODEL>
1

>  <REMARK>
 VINA RESULT:      -7.7      0.000      0.000
  Name = 
  3 active torsions:
  status: ('A' for Active; 'I' for Inactive)
    1  A    between atoms: C_17  and  O_28
    2  A    between atoms: O_28  and  C_29
    3  A    between atoms: C_29  and  C_32
                            x       y       z     vdW  Elec       q    Type
                         _______ _______ _______ _____ _____    ______ ____

>  <TORSDO>
F 3

$$$$
=
 OpenBabel11122412083D

 34 41  0  0  1  0  0  0  0  0999 V2000
  186.3150  178.5980  139.5570 C   0  0  0  0  0  0  0  0  0  0  0  0
  188.6830  178.1980  138.7450 C   0  0  0  0  0  2  0  0  0  0  0  0
  180.3240  179.7770  138.7070 C   0  0  2  0  0  3  0  0  0  0  0  0
  184.0390  178.5010  140.3440 C   0  0  0  0  0  0  0  0  0  0  0  0
  182.1330  177.9150  138.7760 C   0  0  1  0  0  3  0  0  0  0  0  0
  182.3290  180.3020  138.2650 O   0  0  0  0  0  0  0  0  0  0  0  0
  181.2440  180.9750  138.8600 C   0  0  0  0  0  2  0  0  0  0  0  0
  180.7020  179.4110  141.0130 C   0  0  0  0  0  2  0  0  0  0  0  0
  186.8810  178.2430  137.1230 C   0  0  2  0  0  3  0  0  0  0  0  0
  186.8610  175.8540  135.0380 C   0  0  0  0  0  2  0  0  0  0  0  0
  183.2080  177.2380  137.9230 C   0  0  0  0  0  2  0  0  0  0  0  0
  181.6980  178.2840  141.2270 C   0  0  0  0  0  2  0  0  0  0  0  0
  185.5800  177.4170  137.0430 C   0  0  1  0  0  3  0  0  0  0  0  0
  189.2810  177.8440  137.3920 C   0  0  0  0  0  2  0  0  0  0  0  0
  182.6410  178.2360  140.1170 N   0  0  0  0  0  0  0  0  0  0  0  0
  179.8870  179.1230  139.9000 O   0  0  0  0  0  0  0  0  0  0  0  0
  187.9740  176.1230  136.0680 C   0  0  1  0  0  3  0  0  0  0  0  0
  184.9560  178.3840  139.2880 C   0  0  0  0  0  0  0  0  0  0  0  0
  181.5460  179.1500  138.0610 C   0  0  2  0  0  3  0  0  0  0  0  0
  184.4810  178.0870  137.8830 C   0  0  2  0  0  3  0  0  0  0  0  0
  185.8120  179.0090  141.8310 C   0  0  0  0  0  3  0  0  0  0  0  0
  186.1810  177.0320  134.6840 O   0  0  0  0  0  0  0  0  0  0  0  0
  184.4900  178.8090  141.5910 N   0  0  0  0  0  0  0  0  0  0  0  0
  185.1140  177.1970  135.5890 C   0  0  0  0  0  2  0  0  0  0  0  0
  188.1100  177.6180  136.4390 C   0  0  1  0  0  3  0  0  0  0  0  0
  186.7140  178.8980  140.8220 N   0  0  0  0  0  0  0  0  0  0  0  0
  187.2750  178.4430  138.5060 N   0  0  0  0  0  0  0  0  0  0  0  0
  187.7540  175.3400  137.2070 O   0  0  0  0  0  0  0  0  0  0  0  0
  188.3860  174.1230  136.9430 C   0  0  0  0  0  2  0  0  0  0  0  0
  192.0230  174.3590  137.4100 C   0  0  0  0  0  2  0  0  0  0  0  0
  190.3800  173.2290  135.7760 C   0  0  0  0  0  2  0  0  0  0  0  0
  189.8470  174.3650  136.6130 C   0  0  2  0  0  3  0  0  0  0  0  0
  192.1690  173.1720  136.0410 S   0  0  0  0  0  0  0  0  0  0  0  0
  190.6340  174.4360  137.8310 N   0  0  0  0  0  2  0  0  0  0  0  0
  1 26  1  0  0  0  0
  3  7  1  1  0  0  0
  3 16  1  0  0  0  0
  4 23  2  0  0  0  0
  5 11  1  6  0  0  0
  5 15  1  0  0  0  0
  6  7  1  0  0  0  0
  8 12  1  0  0  0  0
  9 27  1  1  0  0  0
 10 17  1  0  0  0  0
 13 24  1  6  0  0  0
 13  9  1  0  0  0  0
 13 20  1  0  0  0  0
 14  2  1  0  0  0  0
 15  4  1  0  0  0  0
 15 12  1  0  0  0  0
 16  8  1  0  0  0  0
 17 25  1  0  0  0  0
 17 28  1  1  0  0  0
 18  1  2  0  0  0  0
 18  4  1  0  0  0  0
 19  6  1  1  0  0  0
 19  3  1  0  0  0  0
 19  5  1  0  0  0  0
 20 11  1  1  0  0  0
 20 18  1  0  0  0  0
 22 10  1  0  0  0  0
 22 24  1  0  0  0  0
 23 21  1  0  0  0  0
 25  9  1  0  0  0  0
 25 14  1  1  0  0  0
 26 21  2  0  0  0  0
 27  2  1  0  0  0  0
 27  1  1  0  0  0  0
 29 28  1  0  0  0  0
 30 34  1  0  0  0  0
 31 33  1  0  0  0  0
 31 32  1  0  0  0  0
 32 29  1  1  0  0  0
 32 34  1  0  0  0  0
 33 30  1  0  0  0  0
M  END
>  <MODEL>
2

>  <REMARK>
 VINA RESULT:      -6.4      4.197      7.840
  Name = 
  3 active torsions:
  status: ('A' for Active; 'I' for Inactive)
    1  A    between atoms: C_17  and  O_28
    2  A    between atoms: O_28  and  C_29
    3  A    between atoms: C_29  and  C_32
                            x       y       z     vdW  Elec       q    Type
                         _______ _______ _______ _____ _____    ______ ____

>  <TORSDO>
F 3

$$$$
=
 OpenBabel11122412083D

 34 41  0  0  1  0  0  0  0  0999 V2000
  186.0780  178.4770  139.5050 C   0  0  0  0  0  0  0  0  0  0  0  0
  188.4130  177.9340  138.6790 C   0  0  0  0  0  2  0  0  0  0  0  0
  180.1600  179.9980  138.6920 C   0  0  2  0  0  3  0  0  0  0  0  0
  183.8070  178.5180  140.3090 C   0  0  0  0  0  0  0  0  0  0  0  0
  181.8580  178.0350  138.7600 C   0  0  1  0  0  3  0  0  0  0  0  0
  182.1900  180.4030  138.2320 O   0  0  0  0  0  0  0  0  0  0  0  0
  181.1500  181.1420  138.8300 C   0  0  0  0  0  2  0  0  0  0  0  0
  180.5340  179.6250  140.9970 C   0  0  0  0  0  2  0  0  0  0  0  0
  186.6050  178.0740  137.0700 C   0  0  2  0  0  3  0  0  0  0  0  0
  186.4280  175.6780  135.0010 C   0  0  0  0  0  2  0  0  0  0  0  0
  182.8850  177.2900  137.9030 C   0  0  0  0  0  2  0  0  0  0  0  0
  181.4640  178.4440  141.2110 C   0  0  0  0  0  2  0  0  0  0  0  0
  185.2570  177.3260  137.0050 C   0  0  1  0  0  3  0  0  0  0  0  0
  188.9790  177.5380  137.3240 C   0  0  0  0  0  2  0  0  0  0  0  0
  182.3950  178.3340  140.0950 N   0  0  0  0  0  0  0  0  0  0  0  0
  179.6960  179.3790  139.8920 O   0  0  0  0  0  0  0  0  0  0  0  0
  187.5630  175.8870  136.0200 C   0  0  1  0  0  3  0  0  0  0  0  0
  184.7070  178.3410  139.2480 C   0  0  0  0  0  0  0  0  0  0  0  0
  181.3390  179.2970  138.0400 C   0  0  2  0  0  3  0  0  0  0  0  0
  184.2060  178.0640  137.8480 C   0  0  2  0  0  3  0  0  0  0  0  0
  185.6180  178.9310  141.7800 C   0  0  0  0  0  3  0  0  0  0  0  0
  185.8160  176.8910  134.6440 O   0  0  0  0  0  0  0  0  0  0  0  0
  184.2850  178.8060  141.5510 N   0  0  0  0  0  0  0  0  0  0  0  0
  184.7680  177.1230  135.5560 C   0  0  0  0  0  2  0  0  0  0  0  0
  187.7900  177.3740  136.3810 C   0  0  1  0  0  3  0  0  0  0  0  0
  186.5050  178.7610  140.7650 N   0  0  0  0  0  0  0  0  0  0  0  0
  187.0200  178.2600  138.4480 N   0  0  0  0  0  0  0  0  0  0  0  0
  187.3070  175.1260  137.1670 O   0  0  0  0  0  0  0  0  0  0  0  0
  187.7490  173.8380  136.8570 C   0  0  0  0  0  2  0  0  0  0  0  0
  184.3700  172.5400  137.4920 C   0  0  0  0  0  2  0  0  0  0  0  0
  186.3060  172.0940  135.8490 C   0  0  0  0  0  2  0  0  0  0  0  0
  186.6370  172.8380  137.1190 C   0  0  2  0  0  3  0  0  0  0  0  0
  184.5960  171.5210  136.0040 S   0  0  0  0  0  0  0  0  0  0  0  0
  185.4380  173.5230  137.5660 N   0  0  0  0  0  2  0  0  0  0  0  0
  1 26  1  0  0  0  0
  3  7  1  1  0  0  0
  3 16  1  0  0  0  0
  4 23  2  0  0  0  0
  5 11  1  6  0  0  0
  5 15  1  0  0  0  0
  6  7  1  0  0  0  0
  8 12  1  0  0  0  0
  9 27  1  1  0  0  0
 10 17  1  0  0  0  0
 13 24  1  6  0  0  0
 13  9  1  0  0  0  0
 13 20  1  0  0  0  0
 14  2  1  0  0  0  0
 15  4  1  0  0  0  0
 15 12  1  0  0  0  0
 16  8  1  0  0  0  0
 17 25  1  0  0  0  0
 17 28  1  1  0  0  0
 18  1  2  0  0  0  0
 18  4  1  0  0  0  0
 19  6  1  1  0  0  0
 19  3  1  0  0  0  0
 19  5  1  0  0  0  0
 20 11  1  1  0  0  0
 20 18  1  0  0  0  0
 22 10  1  0  0  0  0
 22 24  1  0  0  0  0
 23 21  1  0  0  0  0
 25  9  1  0  0  0  0
 25 14  1  1  0  0  0
 26 21  2  0  0  0  0
 27  2  1  0  0  0  0
 27  1  1  0  0  0  0
 29 28  1  0  0  0  0
 30 34  1  0  0  0  0
 31 33  1  0  0  0  0
 31 32  1  0  0  0  0
 32 29  1  6  0  0  0
 32 34  1  0  0  0  0
 33 30  1  0  0  0  0
M  END
>  <MODEL>
3

>  <REMARK>
 VINA RESULT:      -6.3      3.925      7.353
  Name = 
  3 active torsions:
  status: ('A' for Active; 'I' for Inactive)
    1  A    between atoms: C_17  and  O_28
    2  A    between atoms: O_28  and  C_29
    3  A    between atoms: C_29  and  C_32
                            x       y       z     vdW  Elec       q    Type
                         _______ _______ _______ _____ _____    ______ ____

>  <TORSDO>
F 3

$$$$
=
 OpenBabel11122412083D

 34 41  0  0  1  0  0  0  0  0999 V2000
  185.7960  177.8860  137.5900 C   0  0  0  0  0  0  0  0  0  0  0  0
  188.1190  178.8750  137.3590 C   0  0  0  0  0  2  0  0  0  0  0  0
  181.3160  173.9300  136.0790 C   0  0  2  0  0  3  0  0  0  0  0  0
  183.7810  176.6970  138.1700 C   0  0  0  0  0  0  0  0  0  0  0  0
  183.4540  174.2700  137.5120 C   0  0  1  0  0  3  0  0  0  0  0  0
  182.7620  175.3310  135.4170 O   0  0  0  0  0  0  0  0  0  0  0  0
  181.3600  175.2420  135.3150 C   0  0  0  0  0  2  0  0  0  0  0  0
  180.5900  175.2260  137.9190 C   0  0  0  0  0  2  0  0  0  0  0  0
  187.6070  176.8060  136.2030 C   0  0  2  0  0  3  0  0  0  0  0  0
  189.7460  174.4890  136.5370 C   0  0  0  0  0  2  0  0  0  0  0  0
  184.9830  174.2130  137.4400 C   0  0  0  0  0  2  0  0  0  0  0  0
  181.7250  175.4550  138.9020 C   0  0  0  0  0  2  0  0  0  0  0  0
  187.0770  175.4590  136.7380 C   0  0  1  0  0  3  0  0  0  0  0  0
  189.4040  178.3900  136.7060 C   0  0  0  0  0  2  0  0  0  0  0  0
  182.9980  175.4890  138.1940 N   0  0  0  0  0  0  0  0  0  0  0  0
  180.6920  173.9350  137.3640 O   0  0  0  0  0  0  0  0  0  0  0  0
  189.9120  175.9300  137.0520 C   0  0  1  0  0  3  0  0  0  0  0  0
  185.0390  176.7060  137.5490 C   0  0  0  0  0  0  0  0  0  0  0  0
  182.8230  174.1090  136.1130 C   0  0  2  0  0  3  0  0  0  0  0  0
  185.5420  175.4890  136.8050 C   0  0  2  0  0  3  0  0  0  0  0  0
  184.0870  178.9530  138.8290 C   0  0  0  0  0  3  0  0  0  0  0  0
  188.8890  174.4280  135.4240 O   0  0  0  0  0  0  0  0  0  0  0  0
  183.3370  177.8210  138.7970 N   0  0  0  0  0  0  0  0  0  0  0  0
  187.5760  174.2600  135.9070 C   0  0  0  0  0  2  0  0  0  0  0  0
  189.1370  176.9710  136.2100 C   0  0  1  0  0  3  0  0  0  0  0  0
  185.3080  178.9800  138.2350 N   0  0  0  0  0  0  0  0  0  0  0  0
  187.1010  177.9080  137.0010 N   0  0  0  0  0  0  0  0  0  0  0  0
  189.5330  175.9910  138.3990 O   0  0  0  0  0  0  0  0  0  0  0  0
  190.6810  176.3920  139.0850 C   0  0  0  0  0  2  0  0  0  0  0  0
  188.6660  178.1360  141.6160 C   0  0  0  0  0  2  0  0  0  0  0  0
  190.9970  177.0460  141.4540 C   0  0  0  0  0  2  0  0  0  0  0  0
  190.3100  177.4000  140.1580 C   0  0  2  0  0  3  0  0  0  0  0  0
  190.0000  177.7520  142.7890 S   0  0  0  0  0  0  0  0  0  0  0  0
  188.8770  177.3850  140.3890 N   0  0  0  0  0  2  0  0  0  0  0  0
  1 26  1  0  0  0  0
  3  7  1  6  0  0  0
  3 19  1  0  0  0  0
  3 16  1  0  0  0  0
  4 15  1  0  0  0  0
  4 23  2  0  0  0  0
  5 11  1  6  0  0  0
  5 15  1  0  0  0  0
  7  6  1  0  0  0  0
  8 12  1  0  0  0  0
  9 25  1  0  0  0  0
  9 13  1  0  0  0  0
  9 27  1  1  0  0  0
 10 17  1  0  0  0  0
 13 24  1  6  0  0  0
 13 20  1  0  0  0  0
 14  2  1  0  0  0  0
 15 12  1  0  0  0  0
 16  8  1  0  0  0  0
 17 28  1  1  0  0  0
 18  1  2  0  0  0  0
 18  4  1  0  0  0  0
 19  6  1  6  0  0  0
 19  5  1  0  0  0  0
 20 11  1  1  0  0  0
 20 18  1  0  0  0  0
 22 24  1  0  0  0  0
 22 10  1  0  0  0  0
 23 21  1  0  0  0  0
 25 14  1  1  0  0  0
 25 17  1  0  0  0  0
 26 21  2  0  0  0  0
 27  2  1  0  0  0  0
 27  1  1  0  0  0  0
 28 29  1  0  0  0  0
 30 33  1  0  0  0  0
 31 33  1  0  0  0  0
 32 29  1  6  0  0  0
 32 34  1  0  0  0  0
 32 31  1  0  0  0  0
 34 30  1  0  0  0  0
M  END
>  <MODEL>
4

>  <REMARK>
 VINA RESULT:      -6.1      3.686      8.624
  Name = 
  3 active torsions:
  status: ('A' for Active; 'I' for Inactive)
    1  A    between atoms: C_17  and  O_28
    2  A    between atoms: O_28  and  C_29
    3  A    between atoms: C_29  and  C_32
                            x       y       z     vdW  Elec       q    Type
                         _______ _______ _______ _____ _____    ______ ____

>  <TORSDO>
F 3

$$$$
=
 OpenBabel11122412083D

 34 41  0  0  1  0  0  0  0  0999 V2000
  189.8020  177.4600  138.8070 C   0  0  0  0  0  0  0  0  0  0  0  0
  188.8010  177.8660  136.5130 C   0  0  0  0  0  2  0  0  0  0  0  0
  190.1670  178.3510  144.8960 C   0  0  2  0  0  3  0  0  0  0  0  0
  190.4690  176.6880  140.9910 C   0  0  0  0  0  0  0  0  0  0  0  0
  188.9750  177.0190  143.0130 C   0  0  1  0  0  3  0  0  0  0  0  0
  190.0490  179.2190  142.9660 O   0  0  0  0  0  0  0  0  0  0  0  0
  190.9860  179.2790  144.0160 C   0  0  0  0  0  2  0  0  0  0  0  0
  191.7240  176.6790  144.2830 C   0  0  0  0  0  2  0  0  0  0  0  0
  187.6500  178.7340  138.4630 C   0  0  2  0  0  3  0  0  0  0  0  0
  184.5360  178.1470  138.5850 C   0  0  0  0  0  2  0  0  0  0  0  0
  187.8330  177.1150  141.9980 C   0  0  0  0  0  2  0  0  0  0  0  0
  191.1420  175.7580  143.2240 C   0  0  0  0  0  2  0  0  0  0  0  0
  187.1390  178.0170  139.7310 C   0  0  1  0  0  3  0  0  0  0  0  0
  187.4930  178.4780  136.0340 C   0  0  0  0  0  2  0  0  0  0  0  0
  190.1970  176.4920  142.3910 N   0  0  0  0  0  0  0  0  0  0  0  0
  190.7150  177.0640  145.1880 O   0  0  0  0  0  0  0  0  0  0  0  0
  185.4530  177.8270  137.3900 C   0  0  1  0  0  3  0  0  0  0  0  0
  189.5260  177.3320  140.1760 C   0  0  0  0  0  0  0  0  0  0  0  0
  189.2120  178.3720  143.7170 C   0  0  2  0  0  3  0  0  0  0  0  0
  188.2660  177.9220  140.7700 C   0  0  2  0  0  3  0  0  0  0  0  0
  191.8600  176.3350  139.1050 C   0  0  0  0  0  3  0  0  0  0  0  0
  185.0250  179.2240  139.3450 O   0  0  0  0  0  0  0  0  0  0  0  0
  191.6130  176.2030  140.4340 N   0  0  0  0  0  0  0  0  0  0  0  0
  185.8880  178.6960  140.3250 C   0  0  0  0  0  2  0  0  0  0  0  0
  186.6660  178.7800  137.2810 C   0  0  1  0  0  3  0  0  0  0  0  0
  190.9570  176.9520  138.3000 N   0  0  0  0  0  0  0  0  0  0  0  0
  188.8360  178.0750  137.9470 N   0  0  0  0  0  0  0  0  0  0  0  0
  185.8680  176.4920  137.4660 O   0  0  0  0  0  0  0  0  0  0  0  0
  184.9400  175.7750  136.7080 C   0  0  0  0  0  2  0  0  0  0  0  0
  187.5160  173.5540  135.3170 C   0  0  0  0  0  2  0  0  0  0  0  0
  185.8660  173.5550  137.2990 C   0  0  0  0  0  2  0  0  0  0  0  0
  185.5850  174.5120  136.1670 C   0  0  2  0  0  3  0  0  0  0  0  0
  187.2270  172.4890  136.7620 S   0  0  0  0  0  0  0  0  0  0  0  0
  186.8450  174.8280  135.5200 N   0  0  0  0  0  2  0  0  0  0  0  0
  1 18  1  0  0  0  0
  2 27  1  0  0  0  0
  3  7  1  6  0  0  0
  3 16  1  0  0  0  0
  4 15  1  0  0  0  0
  5 11  1  6  0  0  0
  5 19  1  0  0  0  0
  6  7  1  0  0  0  0
  8 16  1  0  0  0  0
  9 27  1  6  0  0  0
  9 13  1  0  0  0  0
 10 22  1  0  0  0  0
 12  8  1  0  0  0  0
 13 24  1  1  0  0  0
 13 20  1  0  0  0  0
 14  2  1  0  0  0  0
 15  5  1  0  0  0  0
 15 12  1  0  0  0  0
 17 28  1  1  0  0  0
 17 10  1  0  0  0  0
 18 20  1  0  0  0  0
 18  4  2  0  0  0  0
 19  6  1  6  0  0  0
 19  3  1  0  0  0  0
 20 11  1  1  0  0  0
 21 23  2  0  0  0  0
 22 24  1  0  0  0  0
 23  4  1  0  0  0  0
 25 14  1  6  0  0  0
 25 17  1  0  0  0  0
 25  9  1  0  0  0  0
 26  1  2  0  0  0  0
 26 21  1  0  0  0  0
 27  1  1  0  0  0  0
 29 28  1  0  0  0  0
 30 34  1  0  0  0  0
 30 33  1  0  0  0  0
 32 29  1  1  0  0  0
 32 31  1  0  0  0  0
 33 31  1  0  0  0  0
 34 32  1  0  0  0  0
M  END
>  <MODEL>
5

>  <REMARK>
 VINA RESULT:      -5.9      2.341      3.132
  Name = 
  3 active torsions:
  status: ('A' for Active; 'I' for Inactive)
    1  A    between atoms: C_17  and  O_28
    2  A    between atoms: O_28  and  C_29
    3  A    between atoms: C_29  and  C_32
                            x       y       z     vdW  Elec       q    Type
                         _______ _______ _______ _____ _____    ______ ____

>  <TORSDO>
F 3

$$$$
=
 OpenBabel11122412083D

 34 41  0  0  1  0  0  0  0  0999 V2000
  183.8400  178.3680  140.5640 C   0  0  0  0  0  0  0  0  0  0  0  0
  181.9850  179.0020  142.1720 C   0  0  0  0  0  2  0  0  0  0  0  0
  186.1550  175.2540  135.7750 C   0  0  2  0  0  3  0  0  0  0  0  0
  185.4720  178.1640  138.8030 C   0  0  0  0  0  0  0  0  0  0  0  0
  184.8140  177.3580  136.4900 C   0  0  1  0  0  3  0  0  0  0  0  0
  185.0680  175.1870  137.5940 O   0  0  0  0  0  0  0  0  0  0  0  0
  186.2630  174.5950  137.1380 C   0  0  0  0  0  2  0  0  0  0  0  0
  187.8000  176.7580  136.5630 C   0  0  0  0  0  2  0  0  0  0  0  0
  181.4370  177.6770  140.2170 C   0  0  2  0  0  3  0  0  0  0  0  0
  178.9310  178.6720  138.5500 C   0  0  0  0  0  2  0  0  0  0  0  0
  183.4050  177.8290  136.8630 C   0  0  0  0  0  2  0  0  0  0  0  0
  187.1760  178.0850  136.9600 C   0  0  0  0  0  2  0  0  0  0  0  0
  181.6790  177.9490  138.7180 C   0  0  1  0  0  3  0  0  0  0  0  0
  180.4740  178.8290  142.1490 C   0  0  0  0  0  2  0  0  0  0  0  0
  185.8150  177.8730  137.4350 N   0  0  0  0  0  0  0  0  0  0  0  0
  187.1360  176.2360  135.4360 O   0  0  0  0  0  0  0  0  0  0  0  0
  179.3880  179.2570  139.8990 C   0  0  1  0  0  3  0  0  0  0  0  0
  184.1460  178.0270  139.2390 C   0  0  0  0  0  0  0  0  0  0  0  0
  184.8720  175.8230  136.3520 C   0  0  2  0  0  3  0  0  0  0  0  0
  183.0830  177.4720  138.3170 C   0  0  2  0  0  3  0  0  0  0  0  0
  186.0980  178.9570  140.9470 C   0  0  0  0  0  3  0  0  0  0  0  0
  179.3140  177.3270  138.4070 O   0  0  0  0  0  0  0  0  0  0  0  0
  186.4160  178.6280  139.6680 N   0  0  0  0  0  0  0  0  0  0  0  0
  180.5970  177.3110  137.8240 C   0  0  0  0  0  2  0  0  0  0  0  0
  180.1200  178.2280  140.7910 C   0  0  1  0  0  3  0  0  0  0  0  0
  184.8190  178.8330  141.3860 N   0  0  0  0  0  0  0  0  0  0  0  0
  182.4860  178.2780  141.0210 N   0  0  0  0  0  0  0  0  0  0  0  0
  180.1860  180.3840  139.6720 O   0  0  0  0  0  0  0  0  0  0  0  0
  179.6180  181.0190  138.5660 C   0  0  0  0  0  2  0  0  0  0  0  0
  181.1040  184.0400  137.0920 C   0  0  0  0  0  2  0  0  0  0  0  0
  178.9890  183.4120  138.4260 C   0  0  0  0  0  2  0  0  0  0  0  0
  180.1420  182.4400  138.4650 C   0  0  2  0  0  3  0  0  0  0  0  0
  179.5830  184.9020  137.5900 S   0  0  0  0  0  0  0  0  0  0  0  0
  180.9140  182.6070  137.2470 N   0  0  0  0  0  2  0  0  0  0  0  0
  1 27  1  0  0  0  0
  1 26  1  0  0  0  0
  3 19  1  0  0  0  0
  3  7  1  1  0  0  0
  4 18  1  0  0  0  0
  4 23  2  0  0  0  0
  5 11  1  1  0  0  0
  5 15  1  0  0  0  0
  7  6  1  0  0  0  0
  8 12  1  0  0  0  0
  9 25  1  0  0  0  0
  9 27  1  1  0  0  0
 10 17  1  0  0  0  0
 12 15  1  0  0  0  0
 13 24  1  6  0  0  0
 13  9  1  0  0  0  0
 14  2  1  0  0  0  0
 15  4  1  0  0  0  0
 16  3  1  0  0  0  0
 16  8  1  0  0  0  0
 17 28  1  6  0  0  0
 17 25  1  0  0  0  0
 18  1  2  0  0  0  0
 19  5  1  0  0  0  0
 19  6  1  1  0  0  0
 20 11  1  6  0  0  0
 20 13  1  0  0  0  0
 20 18  1  0  0  0  0
 21 26  2  0  0  0  0
 22 10  1  0  0  0  0
 23 21  1  0  0  0  0
 24 22  1  0  0  0  0
 25 14  1  1  0  0  0
 27  2  1  0  0  0  0
 29 28  1  0  0  0  0
 30 34  1  0  0  0  0
 30 33  1  0  0  0  0
 31 32  1  0  0  0  0
 32 29  1  6  0  0  0
 33 31  1  0  0  0  0
 34 32  1  0  0  0  0
M  END
>  <MODEL>
6

>  <REMARK>
 VINA RESULT:      -5.9      4.474      7.002
  Name = 
  3 active torsions:
  status: ('A' for Active; 'I' for Inactive)
    1  A    between atoms: C_17  and  O_28
    2  A    between atoms: O_28  and  C_29
    3  A    between atoms: C_29  and  C_32
                            x       y       z     vdW  Elec       q    Type
                         _______ _______ _______ _____ _____    ______ ____

>  <TORSDO>
F 3

$$$$
=
 OpenBabel11122412083D

 34 41  0  0  1  0  0  0  0  0999 V2000
  188.2610  176.7930  138.1540 C   0  0  0  0  0  0  0  0  0  0  0  0
  186.9790  178.2290  139.8040 C   0  0  0  0  0  2  0  0  0  0  0  0
  193.4190  174.8000  135.4280 C   0  0  2  0  0  3  0  0  0  0  0  0
  189.4460  175.0920  136.9250 C   0  0  0  0  0  0  0  0  0  0  0  0
  191.8510  174.5090  137.4780 C   0  0  1  0  0  3  0  0  0  0  0  0
  192.2490  176.4560  136.0470 O   0  0  0  0  0  0  0  0  0  0  0  0
  192.7330  176.0030  134.8040 C   0  0  0  0  0  2  0  0  0  0  0  0
  191.5930  173.5470  134.5980 C   0  0  0  0  0  2  0  0  0  0  0  0
  189.3980  178.1460  139.9560 C   0  0  2  0  0  3  0  0  0  0  0  0
  190.5680  177.6610  142.8630 C   0  0  0  0  0  2  0  0  0  0  0  0
  191.5440  175.0900  138.8600 C   0  0  0  0  0  2  0  0  0  0  0  0
  190.6060  173.2270  135.7070 C   0  0  0  0  0  2  0  0  0  0  0  0
  190.3550  176.9460  140.1150 C   0  0  1  0  0  3  0  0  0  0  0  0
  187.3850  179.0310  141.0310 C   0  0  0  0  0  2  0  0  0  0  0  0
  190.6200  174.2870  136.7070 N   0  0  0  0  0  0  0  0  0  0  0  0
  192.9080  173.5060  135.1030 O   0  0  0  0  0  0  0  0  0  0  0  0
  189.0820  177.8930  142.5320 C   0  0  1  0  0  3  0  0  0  0  0  0
  189.4380  176.0640  137.9360 C   0  0  0  0  0  0  0  0  0  0  0  0
  192.8690  175.3840  136.7170 C   0  0  2  0  0  3  0  0  0  0  0  0
  190.6880  176.3550  138.7370 C   0  0  2  0  0  3  0  0  0  0  0  0
  187.1860  175.5960  136.4210 C   0  0  0  0  0  3  0  0  0  0  0  0
  191.4140  178.2590  141.9120 O   0  0  0  0  0  0  0  0  0  0  0  0
  188.3180  174.8800  136.1930 N   0  0  0  0  0  0  0  0  0  0  0  0
  191.6360  177.3170  140.8880 C   0  0  0  0  0  2  0  0  0  0  0  0
  188.8680  178.7550  141.2660 C   0  0  1  0  0  3  0  0  0  0  0  0
  187.1590  176.5390  137.3980 N   0  0  0  0  0  0  0  0  0  0  0  0
  188.2150  177.7610  139.2080 N   0  0  0  0  0  0  0  0  0  0  0  0
  188.4320  176.6590  142.4150 O   0  0  0  0  0  0  0  0  0  0  0  0
  187.9840  176.3570  143.7030 C   0  0  0  0  0  2  0  0  0  0  0  0
  185.3220  178.6320  144.8190 C   0  0  0  0  0  2  0  0  0  0  0  0
  187.4200  177.5160  145.8190 C   0  0  0  0  0  2  0  0  0  0  0  0
  187.3240  177.5790  144.3150 C   0  0  2  0  0  3  0  0  0  0  0  0
  186.0570  178.5070  146.4770 S   0  0  0  0  0  0  0  0  0  0  0  0
  185.9180  177.6270  143.9540 N   0  0  0  0  0  2  0  0  0  0  0  0
  1 27  1  0  0  0  0
  2 14  1  0  0  0  0
  3  7  1  6  0  0  0
  3 19  1  0  0  0  0
  4 18  2  0  0  0  0
  5 11  1  1  0  0  0
  7  6  1  0  0  0  0
  8 16  1  0  0  0  0
  8 12  1  0  0  0  0
  9 27  1  6  0  0  0
  9 13  1  0  0  0  0
  9 25  1  0  0  0  0
 12 15  1  0  0  0  0
 13 24  1  6  0  0  0
 15  4  1  0  0  0  0
 15  5  1  0  0  0  0
 16  3  1  0  0  0  0
 17 28  1  6  0  0  0
 17 10  1  0  0  0  0
 18  1  1  0  0  0  0
 18 20  1  0  0  0  0
 19  6  1  6  0  0  0
 19  5  1  0  0  0  0
 20 11  1  1  0  0  0
 20 13  1  0  0  0  0
 21 26  1  0  0  0  0
 22 10  1  0  0  0  0
 23 21  2  0  0  0  0
 23  4  1  0  0  0  0
 24 22  1  0  0  0  0
 25 14  1  6  0  0  0
 25 17  1  0  0  0  0
 26  1  2  0  0  0  0
 27  2  1  0  0  0  0
 28 29  1  0  0  0  0
 30 33  1  0  0  0  0
 31 33  1  0  0  0  0
 32 29  1  6  0  0  0
 32 31  1  0  0  0  0
 34 32  1  0  0  0  0
 34 30  1  0  0  0  0
M  END
>  <MODEL>
7

>  <REMARK>
 VINA RESULT:      -5.8      4.288      7.101
  Name = 
  3 active torsions:
  status: ('A' for Active; 'I' for Inactive)
    1  A    between atoms: C_17  and  O_28
    2  A    between atoms: O_28  and  C_29
    3  A    between atoms: C_29  and  C_32
                            x       y       z     vdW  Elec       q    Type
                         _______ _______ _______ _____ _____    ______ ____

>  <TORSDO>
F 3

$$$$
=
 OpenBabel11122412083D

 34 41  0  0  1  0  0  0  0  0999 V2000
  185.3310  178.2640  140.0070 C   0  0  0  0  0  0  0  0  0  0  0  0
  183.1400  178.8020  141.1630 C   0  0  0  0  0  2  0  0  0  0  0  0
  188.7630  175.4170  135.7510 C   0  0  2  0  0  3  0  0  0  0  0  0
  187.3350  178.1620  138.6720 C   0  0  0  0  0  0  0  0  0  0  0  0
  187.2520  177.4730  136.2320 C   0  0  1  0  0  3  0  0  0  0  0  0
  187.2810  175.2490  137.2580 O   0  0  0  0  0  0  0  0  0  0  0  0
  188.5600  174.6890  137.0680 C   0  0  0  0  0  2  0  0  0  0  0  0
  190.1490  176.8890  136.9770 C   0  0  0  0  0  2  0  0  0  0  0  0
  183.0910  177.5760  139.0720 C   0  0  2  0  0  3  0  0  0  0  0  0
  181.0270  178.6410  136.9120 C   0  0  0  0  0  2  0  0  0  0  0  0
  185.7880  177.9150  136.2870 C   0  0  0  0  0  2  0  0  0  0  0  0
  189.4250  178.1890  137.2800 C   0  0  0  0  0  2  0  0  0  0  0  0
  183.6720  177.9280  137.6860 C   0  0  1  0  0  3  0  0  0  0  0  0
  181.6800  178.6210  140.7770 C   0  0  0  0  0  2  0  0  0  0  0  0
  187.9950  177.9440  137.4100 N   0  0  0  0  0  0  0  0  0  0  0  0
  189.7770  176.4210  135.7010 O   0  0  0  0  0  0  0  0  0  0  0  0
  181.1440  179.1580  138.3580 C   0  0  1  0  0  3  0  0  0  0  0  0
  185.9460  177.9940  138.7770 C   0  0  0  0  0  0  0  0  0  0  0  0
  187.3690  175.9470  136.0370 C   0  0  2  0  0  3  0  0  0  0  0  0
  185.1400  177.4800  137.6040 C   0  0  2  0  0  3  0  0  0  0  0  0
  187.4260  178.8470  140.9390 C   0  0  0  0  0  3  0  0  0  0  0  0
  181.4580  177.3080  136.7980 O   0  0  0  0  0  0  0  0  0  0  0  0
  188.0410  178.5860  139.7560 N   0  0  0  0  0  0  0  0  0  0  0  0
  182.8420  177.3290  136.5330 C   0  0  0  0  0  2  0  0  0  0  0  0
  181.6660  178.0890  139.3460 C   0  0  1  0  0  3  0  0  0  0  0  0
  186.0820  178.6920  141.0580 N   0  0  0  0  0  0  0  0  0  0  0  0
  183.9100  178.1420  140.1280 N   0  0  0  0  0  0  0  0  0  0  0  0
  181.9530  180.3010  138.3800 O   0  0  0  0  0  0  0  0  0  0  0  0
  181.0650  181.3780  138.3700 C   0  0  0  0  0  2  0  0  0  0  0  0
  180.5000  183.1200  135.1840 C   0  0  0  0  0  2  0  0  0  0  0  0
  181.2910  183.7110  137.5660 C   0  0  0  0  0  2  0  0  0  0  0  0
  181.3400  182.2570  137.1640 C   0  0  2  0  0  3  0  0  0  0  0  0
  180.8820  184.6560  136.0780 S   0  0  0  0  0  0  0  0  0  0  0  0
  180.3330  182.0380  136.1410 N   0  0  0  0  0  2  0  0  0  0  0  0
  1 27  1  0  0  0  0
  1 26  1  0  0  0  0
  3 19  1  0  0  0  0
  3  7  1  1  0  0  0
  4 18  1  0  0  0  0
  4 23  2  0  0  0  0
  5 11  1  1  0  0  0
  5 15  1  0  0  0  0
  7  6  1  0  0  0  0
  8 12  1  0  0  0  0
  9 25  1  0  0  0  0
  9 27  1  1  0  0  0
 10 17  1  0  0  0  0
 12 15  1  0  0  0  0
 13 24  1  6  0  0  0
 13  9  1  0  0  0  0
 14  2  1  0  0  0  0
 15  4  1  0  0  0  0
 16  3  1  0  0  0  0
 16  8  1  0  0  0  0
 17 28  1  6  0  0  0
 17 25  1  0  0  0  0
 18  1  2  0  0  0  0
 19  5  1  0  0  0  0
 19  6  1  1  0  0  0
 20 11  1  6  0  0  0
 20 13  1  0  0  0  0
 20 18  1  0  0  0  0
 21 26  2  0  0  0  0
 22 10  1  0  0  0  0
 23 21  1  0  0  0  0
 24 22  1  0  0  0  0
 25 14  1  1  0  0  0
 27  2  1  0  0  0  0
 29 28  1  0  0  0  0
 30 33  1  0  0  0  0
 30 34  1  0  0  0  0
 32 31  1  0  0  0  0
 32 29  1  1  0  0  0
 33 31  1  0  0  0  0
 34 32  1  0  0  0  0
M  END
>  <MODEL>
8

>  <REMARK>
 VINA RESULT:      -5.8      4.053      6.371
  Name = 
  3 active torsions:
  status: ('A' for Active; 'I' for Inactive)
    1  A    between atoms: C_17  and  O_28
    2  A    between atoms: O_28  and  C_29
    3  A    between atoms: C_29  and  C_32
                            x       y       z     vdW  Elec       q    Type
                         _______ _______ _______ _____ _____    ______ ____

>  <TORSDO>
F 3

$$$$
=
 OpenBabel11122412083D

 34 41  0  0  1  0  0  0  0  0999 V2000
  183.4550  178.3380  139.7120 C   0  0  0  0  0  0  0  0  0  0  0  0
  181.2500  178.9980  140.7750 C   0  0  0  0  0  2  0  0  0  0  0  0
  186.9320  175.0610  135.8160 C   0  0  2  0  0  3  0  0  0  0  0  0
  185.4770  178.0930  138.4240 C   0  0  0  0  0  0  0  0  0  0  0  0
  185.4250  177.1610  136.0650 C   0  0  1  0  0  3  0  0  0  0  0  0
  185.4270  175.0530  137.3100 O   0  0  0  0  0  0  0  0  0  0  0  0
  186.7060  174.4710  137.1960 C   0  0  0  0  0  2  0  0  0  0  0  0
  188.3080  176.6440  136.9070 C   0  0  0  0  0  2  0  0  0  0  0  0
  181.2240  177.5670  138.8170 C   0  0  2  0  0  3  0  0  0  0  0  0
  179.1970  178.4160  136.5310 C   0  0  0  0  0  2  0  0  0  0  0  0
  183.9620  177.6120  136.0530 C   0  0  0  0  0  2  0  0  0  0  0  0
  187.5870  177.9720  137.0670 C   0  0  0  0  0  2  0  0  0  0  0  0
  181.8270  177.7740  137.4120 C   0  0  1  0  0  3  0  0  0  0  0  0
  179.7950  178.7840  140.3870 C   0  0  0  0  0  2  0  0  0  0  0  0
  186.1530  177.7460  137.2000 N   0  0  0  0  0  0  0  0  0  0  0  0
  187.9520  176.0520  135.6800 O   0  0  0  0  0  0  0  0  0  0  0  0
  179.2960  179.0760  137.9190 C   0  0  1  0  0  3  0  0  0  0  0  0
  184.0860  177.9420  138.5240 C   0  0  0  0  0  0  0  0  0  0  0  0
  185.5370  175.6230  136.0270 C   0  0  2  0  0  3  0  0  0  0  0  0
  183.2940  177.3160  137.3980 C   0  0  2  0  0  3  0  0  0  0  0  0
  185.5380  179.0030  140.6110 C   0  0  0  0  0  3  0  0  0  0  0  0
  179.6230  177.0760  136.5580 O   0  0  0  0  0  0  0  0  0  0  0  0
  186.1700  178.6220  139.4690 N   0  0  0  0  0  0  0  0  0  0  0  0
  181.0100  177.0660  136.3130 C   0  0  0  0  0  2  0  0  0  0  0  0
  179.7980  178.1100  139.0180 C   0  0  1  0  0  3  0  0  0  0  0  0
  184.1920  178.8660  140.7250 N   0  0  0  0  0  0  0  0  0  0  0  0
  182.0310  178.2330  139.8230 N   0  0  0  0  0  0  0  0  0  0  0  0
  180.1110  180.2120  137.8380 O   0  0  0  0  0  0  0  0  0  0  0  0
  179.6070  180.9480  136.7630 C   0  0  0  0  0  2  0  0  0  0  0  0
  180.8050  184.1180  135.3430 C   0  0  0  0  0  2  0  0  0  0  0  0
  180.7150  182.9780  137.6540 C   0  0  0  0  0  2  0  0  0  0  0  0
  180.5480  182.0950  136.4420 C   0  0  2  0  0  3  0  0  0  0  0  0
  181.1800  184.6190  137.0500 S   0  0  0  0  0  0  0  0  0  0  0  0
  180.0070  182.9040  135.3650 N   0  0  0  0  0  2  0  0  0  0  0  0
  1 27  1  0  0  0  0
  1 26  1  0  0  0  0
  3 19  1  0  0  0  0
  3  7  1  1  0  0  0
  4 18  1  0  0  0  0
  4 23  2  0  0  0  0
  5 11  1  1  0  0  0
  5 15  1  0  0  0  0
  7  6  1  0  0  0  0
  8 12  1  0  0  0  0
  9 25  1  0  0  0  0
  9 27  1  1  0  0  0
 10 22  1  0  0  0  0
 10 17  1  0  0  0  0
 12 15  1  0  0  0  0
 13 24  1  6  0  0  0
 13  9  1  0  0  0  0
 14  2  1  0  0  0  0
 15  4  1  0  0  0  0
 16  3  1  0  0  0  0
 16  8  1  0  0  0  0
 17 28  1  6  0  0  0
 17 25  1  0  0  0  0
 18  1  2  0  0  0  0
 19  5  1  0  0  0  0
 19  6  1  1  0  0  0
 20 11  1  6  0  0  0
 20 13  1  0  0  0  0
 20 18  1  0  0  0  0
 21 26  2  0  0  0  0
 23 21  1  0  0  0  0
 24 22  1  0  0  0  0
 25 14  1  1  0  0  0
 27  2  1  0  0  0  0
 29 28  1  0  0  0  0
 30 34  1  0  0  0  0
 30 33  1  0  0  0  0
 32 29  1  1  0  0  0
 32 31  1  0  0  0  0
 33 31  1  0  0  0  0
 34 32  1  0  0  0  0
M  END
>  <MODEL>
9

>  <REMARK>
 VINA RESULT:      -5.8      4.762      7.195
  Name = 
  3 active torsions:
  status: ('A' for Active; 'I' for Inactive)
    1  A    between atoms: C_17  and  O_28
    2  A    between atoms: O_28  and  C_29
    3  A    between atoms: C_29  and  C_32
                            x       y       z     vdW  Elec       q    Type
                         _______ _______ _______ _____ _____    ______ ____

>  <TORSDO>
F 3

$$$$
