=
 OpenBabel11122410243D

 30 35  0  0  1  0  0  0  0  0999 V2000
  186.7260  177.9490  142.4470 C   0  0  0  0  0  0  0  0  0  0  0  0
  184.3750  178.6880  142.0180 C   0  0  0  0  0  0  0  0  0  0  0  0
  186.1170  178.0320  146.5230 N   0  0  0  0  0  2  0  0  0  0  0  0
  187.7300  177.5580  143.3800 C   0  0  0  0  0  0  0  0  0  0  0  0
  187.0540  177.8900  140.9680 C   0  0  0  0  0  2  0  0  0  0  0  0
  190.6850  177.6980  141.3770 O   0  0  0  0  0  0  0  0  0  0  0  0
  190.5410  177.5480  144.7360 C   0  0  1  0  0  3  0  0  0  0  0  0
  189.4520  177.5870  141.6160 C   0  0  0  0  0  0  0  0  0  0  0  0
  189.7010  177.7050  145.9820 C   0  0  2  0  0  3  0  0  0  0  0  0
  187.3900  177.7550  146.8830 C   0  0  0  0  0  0  0  0  0  0  0  0
  188.4750  178.1340  140.7170 N   0  0  0  0  0  0  0  0  0  0  0  0
  188.9520  176.8610  142.8280 C   0  0  1  0  0  3  0  0  0  0  0  0
  183.1150  179.0260  142.5190 C   0  0  0  0  0  3  0  0  0  0  0  0
  190.3160  176.7210  146.9200 C   0  0  0  0  0  2  0  0  0  0  0  0
  191.8450  177.2050  145.1420 O   0  0  0  0  0  0  0  0  0  0  0  0
  184.5460  178.7230  140.6730 F   0  0  0  0  0  0  0  0  0  0  0  0
  186.1780  178.0000  145.1800 C   0  0  0  0  0  0  0  0  0  0  0  0
  182.8680  179.0160  143.8900 C   0  0  0  0  0  3  0  0  0  0  0  0
  185.4230  178.3230  142.9010 C   0  0  0  0  0  0  0  0  0  0  0  0
  187.4410  177.6830  144.7560 C   0  0  0  0  0  0  0  0  0  0  0  0
  187.7600  177.7640  148.0880 O   0  0  0  0  0  0  0  0  0  0  0  0
  188.2400  177.5360  145.8460 N   0  0  0  0  0  0  0  0  0  0  0  0
  191.7580  176.7060  146.4620 C   0  0  0  0  0  2  0  0  0  0  0  0
  190.3720  175.3390  143.9050 O   0  0  0  0  0  0  0  0  0  0  0  0
  183.8810  178.6670  144.7770 C   0  0  0  0  0  3  0  0  0  0  0  0
  185.1500  178.3200  144.2980 C   0  0  0  0  0  0  0  0  0  0  0  0
  189.9980  176.4990  143.8210 C   0  0  0  0  0  0  0  0  0  0  0  0
  188.8590  178.8870  139.5310 C   0  0  0  0  0  2  0  0  0  0  0  0
  188.8870  178.9240  137.0580 C   0  0  0  0  0  1  0  0  0  0  0  0
  188.4870  178.1190  138.2760 C   0  0  0  0  0  2  0  0  0  0  0  0
  1 19  2  0  0  0  0
  1  4  1  0  0  0  0
  2 13  2  0  0  0  0
  2 19  1  0  0  0  0
  3 10  1  0  0  0  0
  4 20  2  0  0  0  0
  5  1  1  0  0  0  0
  6  8  2  0  0  0  0
  7 27  1  6  0  0  0
  7 15  1  0  0  0  0
  7  9  1  0  0  0  0
  9 14  1  1  0  0  0
 10 21  2  0  0  0  0
 11  5  1  0  0  0  0
 11  8  1  0  0  0  0
 12  8  1  6  0  0  0
 12  4  1  0  0  0  0
 12 27  1  0  0  0  0
 13 18  1  0  0  0  0
 15 23  1  0  0  0  0
 16  2  1  0  0  0  0
 17  3  1  0  0  0  0
 18 25  2  0  0  0  0
 19 26  1  0  0  0  0
 20 17  1  0  0  0  0
 20 22  1  0  0  0  0
 22  9  1  0  0  0  0
 22 10  1  0  0  0  0
 23 14  1  0  0  0  0
 26 25  1  0  0  0  0
 26 17  2  0  0  0  0
 27 24  2  0  0  0  0
 28 11  1  0  0  0  0
 29 30  1  0  0  0  0
 30 28  1  0  0  0  0
M  END
>  <MODEL>
1

>  <REMARK>
 VINA RESULT:     -10.2      0.000      0.000
  Name = 
  2 active torsions:
  status: ('A' for Active; 'I' for Inactive)
    1  A    between atoms: N_11  and  C_28
    2  A    between atoms: C_28  and  C_30
                            x       y       z     vdW  Elec       q    Type
                         _______ _______ _______ _____ _____    ______ ____

>  <TORSDO>
F 2

$$$$
=
 OpenBabel11122410243D

 30 35  0  0  1  0  0  0  0  0999 V2000
  187.2570  178.0890  142.6840 C   0  0  0  0  0  0  0  0  0  0  0  0
  186.0330  178.2610  144.8590 C   0  0  0  0  0  0  0  0  0  0  0  0
  183.8400  179.0090  140.5700 N   0  0  0  0  0  2  0  0  0  0  0  0
  187.2460  178.2230  141.2650 C   0  0  0  0  0  0  0  0  0  0  0  0
  188.5650  177.7390  143.3650 C   0  0  0  0  0  2  0  0  0  0  0  0
  190.2800  176.5700  140.3520 O   0  0  0  0  0  0  0  0  0  0  0  0
  187.7400  177.3860  138.3000 C   0  0  1  0  0  3  0  0  0  0  0  0
  189.4820  177.1970  141.1020 C   0  0  0  0  0  0  0  0  0  0  0  0
  186.2940  177.8040  138.1680 C   0  0  2  0  0  3  0  0  0  0  0  0
  184.3590  178.8280  139.3350 C   0  0  0  0  0  0  0  0  0  0  0  0
  189.4210  176.9180  142.5090 N   0  0  0  0  0  0  0  0  0  0  0  0
  188.5850  178.2710  140.5660 C   0  0  1  0  0  3  0  0  0  0  0  0
  184.8500  178.5410  145.5490 C   0  0  0  0  0  3  0  0  0  0  0  0
  186.3000  178.6260  136.9220 C   0  0  0  0  0  2  0  0  0  0  0  0
  188.2680  177.2610  136.9990 O   0  0  0  0  0  0  0  0  0  0  0  0
  187.1200  177.9130  145.5910 F   0  0  0  0  0  0  0  0  0  0  0  0
  184.8930  178.7650  141.3700 C   0  0  0  0  0  0  0  0  0  0  0  0
  183.6930  178.9020  144.8630 C   0  0  0  0  0  3  0  0  0  0  0  0
  186.0730  178.3450  143.4430 C   0  0  0  0  0  0  0  0  0  0  0  0
  186.0110  178.4780  140.6330 C   0  0  0  0  0  0  0  0  0  0  0  0
  183.6500  178.9000  138.2960 O   0  0  0  0  0  0  0  0  0  0  0  0
  185.6790  178.5010  139.3150 N   0  0  0  0  0  0  0  0  0  0  0  0
  187.4230  177.9900  136.1310 C   0  0  0  0  0  2  0  0  0  0  0  0
  189.1280  179.2900  138.5260 O   0  0  0  0  0  0  0  0  0  0  0  0
  183.7060  178.9860  143.4730 C   0  0  0  0  0  3  0  0  0  0  0  0
  184.8800  178.7140  142.7610 C   0  0  0  0  0  0  0  0  0  0  0  0
  188.5410  178.3740  139.0830 C   0  0  0  0  0  0  0  0  0  0  0  0
  190.2260  175.8690  143.1190 C   0  0  0  0  0  2  0  0  0  0  0  0
  191.5050  176.5280  145.1310 C   0  0  0  0  0  1  0  0  0  0  0  0
  191.5400  176.4370  143.6210 C   0  0  0  0  0  2  0  0  0  0  0  0
  1  5  1  0  0  0  0
  1 19  1  0  0  0  0
  2 13  1  0  0  0  0
  2 16  1  0  0  0  0
  3 17  1  0  0  0  0
  4  1  2  0  0  0  0
  6  8  2  0  0  0  0
  7 15  1  6  0  0  0
  7 27  1  0  0  0  0
  8 11  1  0  0  0  0
  9 14  1  6  0  0  0
  9  7  1  0  0  0  0
  9 22  1  0  0  0  0
 10  3  1  0  0  0  0
 11 28  1  0  0  0  0
 11  5  1  0  0  0  0
 12 27  1  6  0  0  0
 12  8  1  0  0  0  0
 12  4  1  0  0  0  0
 17 26  1  0  0  0  0
 18 13  2  0  0  0  0
 19  2  2  0  0  0  0
 20  4  1  0  0  0  0
 20 17  2  0  0  0  0
 21 10  2  0  0  0  0
 22 10  1  0  0  0  0
 22 20  1  0  0  0  0
 23 14  1  0  0  0  0
 23 15  1  0  0  0  0
 24 27  2  0  0  0  0
 25 18  1  0  0  0  0
 26 19  1  0  0  0  0
 26 25  2  0  0  0  0
 28 30  1  0  0  0  0
 30 29  1  0  0  0  0
M  END
>  <MODEL>
2

>  <REMARK>
 VINA RESULT:     -10.1      2.736      5.958
  Name = 
  2 active torsions:
  status: ('A' for Active; 'I' for Inactive)
    1  A    between atoms: N_11  and  C_28
    2  A    between atoms: C_28  and  C_30
                            x       y       z     vdW  Elec       q    Type
                         _______ _______ _______ _____ _____    ______ ____

>  <TORSDO>
F 2

$$$$
=
 OpenBabel11122410243D

 30 35  0  0  1  0  0  0  0  0999 V2000
  186.6830  178.2740  144.5420 C   0  0  0  0  0  0  0  0  0  0  0  0
  184.2340  178.6010  144.9350 C   0  0  0  0  0  0  0  0  0  0  0  0
  186.1540  178.4200  140.4570 N   0  0  0  0  0  2  0  0  0  0  0  0
  187.7710  178.1960  143.6250 C   0  0  0  0  0  0  0  0  0  0  0  0
  186.9840  178.2020  146.0270 C   0  0  0  0  0  2  0  0  0  0  0  0
  190.3610  176.8380  145.6780 O   0  0  0  0  0  0  0  0  0  0  0  0
  190.3410  177.0060  142.3170 C   0  0  1  0  0  3  0  0  0  0  0  0
  189.2940  177.4580  145.4190 C   0  0  0  0  0  0  0  0  0  0  0  0
  189.5310  177.2070  141.0570 C   0  0  2  0  0  3  0  0  0  0  0  0
  187.4290  178.1300  140.1170 C   0  0  0  0  0  0  0  0  0  0  0  0
  188.1650  177.3830  146.3020 N   0  0  0  0  0  0  0  0  0  0  0  0
  189.1650  178.3160  144.1960 C   0  0  1  0  0  3  0  0  0  0  0  0
  182.9560  178.8230  144.4130 C   0  0  0  0  0  3  0  0  0  0  0  0
  190.5180  177.8310  140.1270 C   0  0  0  0  0  2  0  0  0  0  0  0
  191.6750  176.7620  141.9320 O   0  0  0  0  0  0  0  0  0  0  0  0
  184.3550  178.5090  146.2820 F   0  0  0  0  0  0  0  0  0  0  0  0
  186.2030  178.4360  141.8010 C   0  0  0  0  0  0  0  0  0  0  0  0
  182.7560  178.9240  143.0380 C   0  0  0  0  0  3  0  0  0  0  0  0
  185.3510  178.4820  144.0680 C   0  0  0  0  0  0  0  0  0  0  0  0
  187.4760  178.1920  142.2450 C   0  0  0  0  0  0  0  0  0  0  0  0
  187.7780  177.9560  138.9190 O   0  0  0  0  0  0  0  0  0  0  0  0
  188.2780  177.9790  141.1690 N   0  0  0  0  0  0  0  0  0  0  0  0
  191.8240  177.2390  140.6090 C   0  0  0  0  0  2  0  0  0  0  0  0
  191.1100  179.0870  143.1400 O   0  0  0  0  0  0  0  0  0  0  0  0
  183.8340  178.8050  142.1670 C   0  0  0  0  0  3  0  0  0  0  0  0
  185.1240  178.5870  142.6670 C   0  0  0  0  0  0  0  0  0  0  0  0
  190.2800  178.1940  143.2200 C   0  0  0  0  0  0  0  0  0  0  0  0
  188.1780  176.5490  147.4950 C   0  0  0  0  0  2  0  0  0  0  0  0
  189.1940  178.3690  148.8280 C   0  0  0  0  0  1  0  0  0  0  0  0
  188.0300  177.4060  148.7390 C   0  0  0  0  0  2  0  0  0  0  0  0
  1  5  1  0  0  0  0
  2 16  1  0  0  0  0
  3 17  1  0  0  0  0
  4 12  1  0  0  0  0
  4  1  2  0  0  0  0
  5 11  1  0  0  0  0
  7 15  1  6  0  0  0
  7 27  1  0  0  0  0
  8  6  2  0  0  0  0
  8 11  1  0  0  0  0
  9 14  1  6  0  0  0
  9 22  1  0  0  0  0
  9  7  1  0  0  0  0
 10  3  1  0  0  0  0
 10 22  1  0  0  0  0
 11 28  1  0  0  0  0
 12 27  1  6  0  0  0
 12  8  1  0  0  0  0
 13  2  1  0  0  0  0
 14 23  1  0  0  0  0
 17 20  2  0  0  0  0
 17 26  1  0  0  0  0
 18 13  2  0  0  0  0
 19  1  1  0  0  0  0
 19  2  2  0  0  0  0
 20  4  1  0  0  0  0
 21 10  2  0  0  0  0
 22 20  1  0  0  0  0
 23 15  1  0  0  0  0
 24 27  2  0  0  0  0
 25 26  2  0  0  0  0
 25 18  1  0  0  0  0
 26 19  1  0  0  0  0
 28 30  1  0  0  0  0
 30 29  1  0  0  0  0
M  END
>  <MODEL>
3

>  <REMARK>
 VINA RESULT:      -9.8      1.878      5.238
  Name = 
  2 active torsions:
  status: ('A' for Active; 'I' for Inactive)
    1  A    between atoms: N_11  and  C_28
    2  A    between atoms: C_28  and  C_30
                            x       y       z     vdW  Elec       q    Type
                         _______ _______ _______ _____ _____    ______ ____

>  <TORSDO>
F 2

$$$$
=
 OpenBabel11122410243D

 30 35  0  0  1  0  0  0  0  0999 V2000
  189.3750  177.5940  143.5120 C   0  0  0  0  0  0  0  0  0  0  0  0
  191.2710  176.9050  144.9900 C   0  0  0  0  0  0  0  0  0  0  0  0
  186.8100  177.8160  146.7300 N   0  0  0  0  0  2  0  0  0  0  0  0
  188.0200  178.0160  143.3840 C   0  0  0  0  0  0  0  0  0  0  0  0
  190.2340  177.5380  142.2630 C   0  0  0  0  0  2  0  0  0  0  0  0
  187.4640  177.6390  139.8740 O   0  0  0  0  0  0  0  0  0  0  0  0
  185.1130  178.0280  142.2500 C   0  0  1  0  0  3  0  0  0  0  0  0
  188.1340  177.8070  140.9290 C   0  0  0  0  0  0  0  0  0  0  0  0
  184.7710  177.9860  143.7210 C   0  0  2  0  0  3  0  0  0  0  0  0
  185.6860  178.0750  146.0250 C   0  0  0  0  0  0  0  0  0  0  0  0
  189.4420  177.2310  141.0720 N   0  0  0  0  0  0  0  0  0  0  0  0
  187.6100  178.6320  142.0660 C   0  0  1  0  0  3  0  0  0  0  0  0
  191.7550  176.6440  146.2760 C   0  0  0  0  0  3  0  0  0  0  0  0
  183.6930  179.0130  143.8380 C   0  0  0  0  0  2  0  0  0  0  0  0
  183.9360  178.3550  141.5480 O   0  0  0  0  0  0  0  0  0  0  0  0
  192.1370  176.7700  143.9550 F   0  0  0  0  0  0  0  0  0  0  0  0
  187.7500  177.7530  145.7720 C   0  0  0  0  0  0  0  0  0  0  0  0
  190.9220  176.7590  147.3860 C   0  0  0  0  0  3  0  0  0  0  0  0
  189.9210  177.2960  144.7980 C   0  0  0  0  0  0  0  0  0  0  0  0
  187.2080  177.9970  144.5380 C   0  0  0  0  0  0  0  0  0  0  0  0
  184.5530  178.1390  146.5740 O   0  0  0  0  0  0  0  0  0  0  0  0
  185.8710  178.1930  144.6830 N   0  0  0  0  0  0  0  0  0  0  0  0
  183.0450  178.9470  142.4730 C   0  0  0  0  0  2  0  0  0  0  0  0
  185.8980  180.1780  141.6510 O   0  0  0  0  0  0  0  0  0  0  0  0
  189.5920  177.1350  147.2240 C   0  0  0  0  0  3  0  0  0  0  0  0
  189.0870  177.4050  145.9460 C   0  0  0  0  0  0  0  0  0  0  0  0
  186.1810  179.0280  141.9500 C   0  0  0  0  0  0  0  0  0  0  0  0
  190.0240  176.3850  140.0400 C   0  0  0  0  0  2  0  0  0  0  0  0
  191.7740  176.2300  138.2980 C   0  0  0  0  0  1  0  0  0  0  0  0
  191.3030  177.0060  139.5100 C   0  0  0  0  0  2  0  0  0  0  0  0
  1 19  1  0  0  0  0
  2 13  1  0  0  0  0
  4  1  2  0  0  0  0
  4 20  1  0  0  0  0
  5  1  1  0  0  0  0
  6  8  2  0  0  0  0
  7 15  1  6  0  0  0
  7  9  1  0  0  0  0
  8 11  1  0  0  0  0
  9 14  1  6  0  0  0
  9 22  1  0  0  0  0
 10 21  2  0  0  0  0
 10  3  1  0  0  0  0
 11  5  1  0  0  0  0
 12  8  1  6  0  0  0
 12  4  1  0  0  0  0
 13 18  2  0  0  0  0
 15 23  1  0  0  0  0
 16  2  1  0  0  0  0
 17 26  1  0  0  0  0
 17  3  1  0  0  0  0
 19  2  2  0  0  0  0
 19 26  1  0  0  0  0
 20 22  1  0  0  0  0
 20 17  2  0  0  0  0
 22 10  1  0  0  0  0
 23 14  1  0  0  0  0
 24 27  2  0  0  0  0
 25 18  1  0  0  0  0
 26 25  2  0  0  0  0
 27 12  1  0  0  0  0
 27  7  1  0  0  0  0
 28 11  1  0  0  0  0
 29 30  1  0  0  0  0
 30 28  1  0  0  0  0
M  END
>  <MODEL>
4

>  <REMARK>
 VINA RESULT:      -9.7      2.715      5.385
  Name = 
  2 active torsions:
  status: ('A' for Active; 'I' for Inactive)
    1  A    between atoms: N_11  and  C_28
    2  A    between atoms: C_28  and  C_30
                            x       y       z     vdW  Elec       q    Type
                         _______ _______ _______ _____ _____    ______ ____

>  <TORSDO>
F 2

$$$$
=
 OpenBabel11122410243D

 30 35  0  0  1  0  0  0  0  0999 V2000
  186.8780  178.2810  142.2630 C   0  0  0  0  0  0  0  0  0  0  0  0
  188.1480  177.8290  144.3700 C   0  0  0  0  0  0  0  0  0  0  0  0
  183.3230  178.5230  144.3340 N   0  0  0  0  0  2  0  0  0  0  0  0
  185.6410  178.5940  141.6280 C   0  0  0  0  0  0  0  0  0  0  0  0
  188.1290  178.2070  141.4080 C   0  0  0  0  0  2  0  0  0  0  0  0
  186.3960  177.9500  138.1950 O   0  0  0  0  0  0  0  0  0  0  0  0
  183.3350  178.3190  139.5440 C   0  0  1  0  0  3  0  0  0  0  0  0
  186.6360  178.2350  139.4000 C   0  0  0  0  0  0  0  0  0  0  0  0
  182.4910  178.3480  140.7960 C   0  0  2  0  0  3  0  0  0  0  0  0
  182.5160  178.6530  143.2580 C   0  0  0  0  0  0  0  0  0  0  0  0
  187.8300  177.7670  140.0450 N   0  0  0  0  0  0  0  0  0  0  0  0
  185.7030  179.0910  140.2030 C   0  0  1  0  0  3  0  0  0  0  0  0
  188.1510  177.6880  145.7610 C   0  0  0  0  0  3  0  0  0  0  0  0
  181.3980  179.2990  140.4360 C   0  0  0  0  0  2  0  0  0  0  0  0
  182.4740  178.5140  138.4450 O   0  0  0  0  0  0  0  0  0  0  0  0
  189.3320  177.6910  143.7230 F   0  0  0  0  0  0  0  0  0  0  0  0
  184.5460  178.4660  143.7800 C   0  0  0  0  0  0  0  0  0  0  0  0
  186.9710  177.8130  146.4910 C   0  0  0  0  0  3  0  0  0  0  0  0
  186.9400  178.1080  143.6800 C   0  0  0  0  0  0  0  0  0  0  0  0
  184.4710  178.5890  142.4180 C   0  0  0  0  0  0  0  0  0  0  0  0
  181.2600  178.6690  143.3630 O   0  0  0  0  0  0  0  0  0  0  0  0
  183.1630  178.6970  142.0640 N   0  0  0  0  0  0  0  0  0  0  0  0
  181.2860  179.0980  138.9400 C   0  0  0  0  0  2  0  0  0  0  0  0
  184.1850  180.4780  139.0770 O   0  0  0  0  0  0  0  0  0  0  0  0
  185.7720  178.0800  145.8370 C   0  0  0  0  0  3  0  0  0  0  0  0
  185.7460  178.2300  144.4450 C   0  0  0  0  0  0  0  0  0  0  0  0
  184.3940  179.3730  139.5550 C   0  0  0  0  0  0  0  0  0  0  0  0
  188.7810  176.9000  139.3630 C   0  0  0  0  0  2  0  0  0  0  0  0
  191.2130  176.6650  138.9740 C   0  0  0  0  0  1  0  0  0  0  0  0
  190.1550  177.0260  139.9950 C   0  0  0  0  0  2  0  0  0  0  0  0
  1 19  1  0  0  0  0
  2 13  1  0  0  0  0
  4  1  2  0  0  0  0
  4 20  1  0  0  0  0
  5  1  1  0  0  0  0
  6  8  2  0  0  0  0
  7 15  1  6  0  0  0
  7 27  1  0  0  0  0
  7  9  1  0  0  0  0
  8 11  1  0  0  0  0
  9 14  1  6  0  0  0
  9 22  1  0  0  0  0
 10 21  2  0  0  0  0
 10  3  1  0  0  0  0
 11  5  1  0  0  0  0
 12  8  1  6  0  0  0
 12  4  1  0  0  0  0
 13 18  2  0  0  0  0
 15 23  1  0  0  0  0
 16  2  1  0  0  0  0
 17  3  1  0  0  0  0
 17 26  1  0  0  0  0
 19  2  2  0  0  0  0
 19 26  1  0  0  0  0
 20 17  2  0  0  0  0
 22 20  1  0  0  0  0
 22 10  1  0  0  0  0
 23 14  1  0  0  0  0
 24 27  2  0  0  0  0
 25 18  1  0  0  0  0
 26 25  2  0  0  0  0
 27 12  1  0  0  0  0
 28 30  1  0  0  0  0
 28 11  1  0  0  0  0
 29 30  1  0  0  0  0
M  END
>  <MODEL>
5

>  <REMARK>
 VINA RESULT:      -9.3      3.538      6.169
  Name = 
  2 active torsions:
  status: ('A' for Active; 'I' for Inactive)
    1  A    between atoms: N_11  and  C_28
    2  A    between atoms: C_28  and  C_30
                            x       y       z     vdW  Elec       q    Type
                         _______ _______ _______ _____ _____    ______ ____

>  <TORSDO>
F 2

$$$$
=
 OpenBabel11122410243D

 30 35  0  0  1  0  0  0  0  0999 V2000
  187.6210  178.1010  141.6880 C   0  0  0  0  0  0  0  0  0  0  0  0
  189.3030  177.6500  143.4840 C   0  0  0  0  0  0  0  0  0  0  0  0
  184.5790  178.3550  144.4570 N   0  0  0  0  0  2  0  0  0  0  0  0
  186.2790  178.4160  141.3260 C   0  0  0  0  0  0  0  0  0  0  0  0
  188.6650  178.0230  140.5910 C   0  0  0  0  0  2  0  0  0  0  0  0
  186.2990  177.7640  137.8120 O   0  0  0  0  0  0  0  0  0  0  0  0
  183.5880  178.1430  139.7700 C   0  0  1  0  0  3  0  0  0  0  0  0
  186.7850  178.0510  138.9400 C   0  0  0  0  0  0  0  0  0  0  0  0
  183.0250  178.1760  141.1720 C   0  0  2  0  0  3  0  0  0  0  0  0
  183.5650  178.4850  143.5740 C   0  0  0  0  0  0  0  0  0  0  0  0
  188.0870  177.5800  139.3220 N   0  0  0  0  0  0  0  0  0  0  0  0
  186.0430  178.9100  139.9180 C   0  0  1  0  0  3  0  0  0  0  0  0
  189.5960  177.5110  144.8440 C   0  0  0  0  0  3  0  0  0  0  0  0
  181.8820  179.1290  141.0460 C   0  0  0  0  0  2  0  0  0  0  0  0
  182.5170  178.3380  138.8760 O   0  0  0  0  0  0  0  0  0  0  0  0
  190.3250  177.5080  142.6040 F   0  0  0  0  0  0  0  0  0  0  0  0
  185.6590  178.2950  143.6590 C   0  0  0  0  0  0  0  0  0  0  0  0
  188.5960  177.6400  145.8050 C   0  0  0  0  0  3  0  0  0  0  0  0
  187.9780  177.9300  143.0620 C   0  0  0  0  0  0  0  0  0  0  0  0
  185.3010  178.4160  142.3430 C   0  0  0  0  0  0  0  0  0  0  0  0
  182.3590  178.5040  143.9390 O   0  0  0  0  0  0  0  0  0  0  0  0
  183.9480  178.5260  142.2700 N   0  0  0  0  0  0  0  0  0  0  0  0
  181.4600  178.9250  139.6080 C   0  0  0  0  0  2  0  0  0  0  0  0
  184.3260  180.2990  139.1310 O   0  0  0  0  0  0  0  0  0  0  0  0
  187.2870  177.9090  145.4150 C   0  0  0  0  0  3  0  0  0  0  0  0
  186.9710  178.0560  144.0590 C   0  0  0  0  0  0  0  0  0  0  0  0
  184.6280  179.1950  139.5580 C   0  0  0  0  0  0  0  0  0  0  0  0
  188.8730  176.7100  138.4580 C   0  0  0  0  0  2  0  0  0  0  0  0
  191.2920  176.5260  137.9760 C   0  0  0  0  0  1  0  0  0  0  0  0
  190.2420  176.4640  139.0640 C   0  0  0  0  0  2  0  0  0  0  0  0
  1 19  1  0  0  0  0
  2 13  1  0  0  0  0
  4  1  2  0  0  0  0
  4 20  1  0  0  0  0
  5  1  1  0  0  0  0
  6  8  2  0  0  0  0
  7 15  1  6  0  0  0
  7  9  1  0  0  0  0
  8 11  1  0  0  0  0
  9 14  1  6  0  0  0
  9 22  1  0  0  0  0
 10 21  2  0  0  0  0
 10  3  1  0  0  0  0
 11  5  1  0  0  0  0
 12  8  1  6  0  0  0
 12  4  1  0  0  0  0
 13 18  2  0  0  0  0
 15 23  1  0  0  0  0
 16  2  1  0  0  0  0
 17 26  1  0  0  0  0
 17  3  1  0  0  0  0
 19  2  2  0  0  0  0
 19 26  1  0  0  0  0
 20 17  2  0  0  0  0
 22 20  1  0  0  0  0
 22 10  1  0  0  0  0
 23 14  1  0  0  0  0
 24 27  2  0  0  0  0
 25 18  1  0  0  0  0
 26 25  2  0  0  0  0
 27  7  1  0  0  0  0
 27 12  1  0  0  0  0
 28 30  1  0  0  0  0
 28 11  1  0  0  0  0
 29 30  1  0  0  0  0
M  END
>  <MODEL>
6

>  <REMARK>
 VINA RESULT:      -9.0      3.373      6.013
  Name = 
  2 active torsions:
  status: ('A' for Active; 'I' for Inactive)
    1  A    between atoms: N_11  and  C_28
    2  A    between atoms: C_28  and  C_30
                            x       y       z     vdW  Elec       q    Type
                         _______ _______ _______ _____ _____    ______ ____

>  <TORSDO>
F 2

$$$$
=
 OpenBabel11122410243D

 30 35  0  0  1  0  0  0  0  0999 V2000
  188.3110  177.7330  145.2140 C   0  0  0  0  0  0  0  0  0  0  0  0
  186.3470  178.0930  146.7210 C   0  0  0  0  0  0  0  0  0  0  0  0
  186.0430  178.5920  141.8810 N   0  0  0  0  0  2  0  0  0  0  0  0
  188.8620  177.7650  143.9000 C   0  0  0  0  0  0  0  0  0  0  0  0
  189.2290  177.3970  146.3730 C   0  0  0  0  0  2  0  0  0  0  0  0
  191.9180  175.9690  144.3440 O   0  0  0  0  0  0  0  0  0  0  0  0
  190.4270  176.7040  141.4180 C   0  0  1  0  0  3  0  0  0  0  0  0
  190.9260  176.6690  144.6850 C   0  0  0  0  0  0  0  0  0  0  0  0
  189.1710  177.1510  140.7060 C   0  0  2  0  0  3  0  0  0  0  0  0
  186.9920  178.3090  140.9610 C   0  0  0  0  0  0  0  0  0  0  0  0
  190.3070  176.4930  145.9680 N   0  0  0  0  0  0  0  0  0  0  0  0
  190.3670  177.7260  143.7810 C   0  0  1  0  0  3  0  0  0  0  0  0
  185.0050  178.4540  146.8750 C   0  0  0  0  0  3  0  0  0  0  0  0
  189.7070  177.8810  139.5190 C   0  0  0  0  0  2  0  0  0  0  0  0
  191.4120  176.4720  140.4380 O   0  0  0  0  0  0  0  0  0  0  0  0
  187.0420  177.7690  147.8390 F   0  0  0  0  0  0  0  0  0  0  0  0
  186.6850  178.3770  143.0420 C   0  0  0  0  0  0  0  0  0  0  0  0
  184.2290  178.7960  145.7710 C   0  0  0  0  0  3  0  0  0  0  0  0
  186.9400  178.0750  145.4330 C   0  0  0  0  0  0  0  0  0  0  0  0
  187.9850  178.0080  142.8200 C   0  0  0  0  0  0  0  0  0  0  0  0
  186.7490  178.3250  139.7250 O   0  0  0  0  0  0  0  0  0  0  0  0
  188.1950  177.9450  141.4790 N   0  0  0  0  0  0  0  0  0  0  0  0
  191.0130  177.1600  139.2690 C   0  0  0  0  0  2  0  0  0  0  0  0
  191.7160  178.5810  142.0650 O   0  0  0  0  0  0  0  0  0  0  0  0
  184.7860  178.7800  144.4950 C   0  0  0  0  0  3  0  0  0  0  0  0
  186.1290  178.4260  144.3170 C   0  0  0  0  0  0  0  0  0  0  0  0
  190.9110  177.7240  142.3970 C   0  0  0  0  0  0  0  0  0  0  0  0
  190.7530  175.4690  146.9020 C   0  0  0  0  0  2  0  0  0  0  0  0
  192.1580  176.8550  148.3930 C   0  0  0  0  0  1  0  0  0  0  0  0
  192.1720  175.7530  147.3560 C   0  0  0  0  0  2  0  0  0  0  0  0
  1 19  1  0  0  0  0
  1  5  1  0  0  0  0
  2 13  1  0  0  0  0
  2 16  1  0  0  0  0
  3 17  1  0  0  0  0
  4  1  2  0  0  0  0
  6  8  2  0  0  0  0
  7 15  1  6  0  0  0
  7 27  1  0  0  0  0
  8 11  1  0  0  0  0
  9 14  1  6  0  0  0
  9  7  1  0  0  0  0
  9 22  1  0  0  0  0
 10 22  1  0  0  0  0
 10  3  1  0  0  0  0
 11  5  1  0  0  0  0
 11 28  1  0  0  0  0
 12 27  1  6  0  0  0
 12  4  1  0  0  0  0
 12  8  1  0  0  0  0
 17 26  1  0  0  0  0
 18 13  2  0  0  0  0
 19  2  2  0  0  0  0
 20 17  2  0  0  0  0
 20  4  1  0  0  0  0
 21 10  2  0  0  0  0
 22 20  1  0  0  0  0
 23 14  1  0  0  0  0
 23 15  1  0  0  0  0
 24 27  2  0  0  0  0
 25 18  1  0  0  0  0
 26 25  2  0  0  0  0
 26 19  1  0  0  0  0
 28 30  1  0  0  0  0
 30 29  1  0  0  0  0
M  END
>  <MODEL>
7

>  <REMARK>
 VINA RESULT:      -9.0      2.403      5.467
  Name = 
  2 active torsions:
  status: ('A' for Active; 'I' for Inactive)
    1  A    between atoms: N_11  and  C_28
    2  A    between atoms: C_28  and  C_30
                            x       y       z     vdW  Elec       q    Type
                         _______ _______ _______ _____ _____    ______ ____

>  <TORSDO>
F 2

$$$$
=
 OpenBabel11122410243D

 30 35  0  0  1  0  0  0  0  0999 V2000
  189.4700  177.2880  142.9680 C   0  0  0  0  0  0  0  0  0  0  0  0
  191.1200  177.1380  141.0940 C   0  0  0  0  0  0  0  0  0  0  0  0
  186.5290  178.6280  140.4100 N   0  0  0  0  0  2  0  0  0  0  0  0
  188.1370  177.5490  143.4020 C   0  0  0  0  0  0  0  0  0  0  0  0
  190.4800  176.8070  143.9910 C   0  0  0  0  0  2  0  0  0  0  0  0
  188.5550  177.7970  146.9420 O   0  0  0  0  0  0  0  0  0  0  0  0
  185.8860  178.8050  145.1580 C   0  0  1  0  0  3  0  0  0  0  0  0
  188.8310  177.4350  145.7650 C   0  0  0  0  0  0  0  0  0  0  0  0
  185.3180  179.1490  143.8010 C   0  0  2  0  0  3  0  0  0  0  0  0
  185.5890  178.8650  141.3520 C   0  0  0  0  0  0  0  0  0  0  0  0
  190.1950  177.3340  145.3260 N   0  0  0  0  0  0  0  0  0  0  0  0
  187.7570  177.0750  144.7840 C   0  0  1  0  0  3  0  0  0  0  0  0
  191.3990  177.2640  139.7300 C   0  0  0  0  0  3  0  0  0  0  0  0
  183.8800  178.7730  143.9400 C   0  0  0  0  0  2  0  0  0  0  0  0
  184.8670  179.0070  146.1100 O   0  0  0  0  0  0  0  0  0  0  0  0
  192.1310  176.7440  141.9070 F   0  0  0  0  0  0  0  0  0  0  0  0
  187.5540  178.1430  141.1320 C   0  0  0  0  0  0  0  0  0  0  0  0
  190.4100  177.6690  138.8360 C   0  0  0  0  0  3  0  0  0  0  0  0
  189.8200  177.4170  141.5880 C   0  0  0  0  0  0  0  0  0  0  0  0
  187.2230  178.0650  142.4580 C   0  0  0  0  0  0  0  0  0  0  0  0
  184.4830  179.4000  141.0720 O   0  0  0  0  0  0  0  0  0  0  0  0
  185.9600  178.5410  142.6190 N   0  0  0  0  0  0  0  0  0  0  0  0
  183.6350  179.0030  145.4160 C   0  0  0  0  0  2  0  0  0  0  0  0
  185.6340  176.4920  145.5910 O   0  0  0  0  0  0  0  0  0  0  0  0
  189.1280  177.9540  139.2970 C   0  0  0  0  0  3  0  0  0  0  0  0
  188.8250  177.8300  140.6580 C   0  0  0  0  0  0  0  0  0  0  0  0
  186.3710  177.3940  145.2230 C   0  0  0  0  0  0  0  0  0  0  0  0
  191.3080  177.6960  146.1910 C   0  0  0  0  0  2  0  0  0  0  0  0
  192.4190  175.6280  146.9730 C   0  0  0  0  0  1  0  0  0  0  0  0
  191.4260  176.7110  147.3390 C   0  0  0  0  0  2  0  0  0  0  0  0
  1  4  1  0  0  0  0
  1  5  1  0  0  0  0
  2 19  1  0  0  0  0
  2 16  1  0  0  0  0
  3 17  1  0  0  0  0
  3 10  1  0  0  0  0
  5 11  1  0  0  0  0
  7 27  1  6  0  0  0
  7 15  1  0  0  0  0
  8  6  2  0  0  0  0
  9 14  1  1  0  0  0
  9  7  1  0  0  0  0
 10 22  1  0  0  0  0
 11  8  1  0  0  0  0
 11 28  1  0  0  0  0
 12  4  1  6  0  0  0
 12 27  1  0  0  0  0
 12  8  1  0  0  0  0
 13  2  2  0  0  0  0
 14 23  1  0  0  0  0
 17 20  1  0  0  0  0
 18 25  2  0  0  0  0
 18 13  1  0  0  0  0
 19  1  2  0  0  0  0
 20 22  1  0  0  0  0
 20  4  2  0  0  0  0
 21 10  2  0  0  0  0
 22  9  1  0  0  0  0
 23 15  1  0  0  0  0
 25 26  1  0  0  0  0
 26 17  2  0  0  0  0
 26 19  1  0  0  0  0
 27 24  2  0  0  0  0
 28 30  1  0  0  0  0
 29 30  1  0  0  0  0
M  END
>  <MODEL>
8

>  <REMARK>
 VINA RESULT:      -9.0      2.482      6.351
  Name = 
  2 active torsions:
  status: ('A' for Active; 'I' for Inactive)
    1  A    between atoms: N_11  and  C_28
    2  A    between atoms: C_28  and  C_30
                            x       y       z     vdW  Elec       q    Type
                         _______ _______ _______ _____ _____    ______ ____

>  <TORSDO>
F 2

$$$$
=
 OpenBabel11122410243D

 30 35  0  0  1  0  0  0  0  0999 V2000
  187.9980  178.0720  143.8940 C   0  0  0  0  0  0  0  0  0  0  0  0
  189.1760  177.8200  146.0860 C   0  0  0  0  0  0  0  0  0  0  0  0
  184.3680  178.5600  145.7830 N   0  0  0  0  0  2  0  0  0  0  0  0
  186.7920  178.3340  143.1810 C   0  0  0  0  0  0  0  0  0  0  0  0
  189.2800  177.9000  143.1030 C   0  0  0  0  0  2  0  0  0  0  0  0
  187.6740  177.3420  139.8630 O   0  0  0  0  0  0  0  0  0  0  0  0
  184.5680  177.8780  141.0410 C   0  0  1  0  0  3  0  0  0  0  0  0
  187.8700  177.7430  141.0430 C   0  0  0  0  0  0  0  0  0  0  0  0
  183.6750  178.0410  142.2490 C   0  0  2  0  0  3  0  0  0  0  0  0
  183.6060  178.5900  144.6670 C   0  0  0  0  0  0  0  0  0  0  0  0
  189.0300  177.3280  141.7800 N   0  0  0  0  0  0  0  0  0  0  0  0
  186.9180  178.6850  141.7170 C   0  0  1  0  0  3  0  0  0  0  0  0
  189.1210  177.8180  147.4830 C   0  0  0  0  0  3  0  0  0  0  0  0
  182.6110  178.9630  141.7510 C   0  0  0  0  0  2  0  0  0  0  0  0
  183.7540  177.9710  139.8940 O   0  0  0  0  0  0  0  0  0  0  0  0
  190.3830  177.6040  145.5060 F   0  0  0  0  0  0  0  0  0  0  0  0
  185.6110  178.4340  145.2880 C   0  0  0  0  0  0  0  0  0  0  0  0
  187.9150  178.0290  148.1480 C   0  0  0  0  0  3  0  0  0  0  0  0
  188.0010  178.0410  145.3230 C   0  0  0  0  0  0  0  0  0  0  0  0
  185.5920  178.4220  143.9190 C   0  0  0  0  0  0  0  0  0  0  0  0
  182.3470  178.6310  144.7190 O   0  0  0  0  0  0  0  0  0  0  0  0
  184.3010  178.5080  143.5020 N   0  0  0  0  0  0  0  0  0  0  0  0
  182.5560  178.6150  140.2800 C   0  0  0  0  0  2  0  0  0  0  0  0
  185.4680  179.9700  140.3970 O   0  0  0  0  0  0  0  0  0  0  0  0
  186.7470  178.2420  147.4220 C   0  0  0  0  0  3  0  0  0  0  0  0
  186.7790  178.2520  146.0220 C   0  0  0  0  0  0  0  0  0  0  0  0
  185.6410  178.9160  140.9910 C   0  0  0  0  0  0  0  0  0  0  0  0
  189.9940  176.3880  141.2270 C   0  0  0  0  0  2  0  0  0  0  0  0
  192.1800  177.5030  140.9160 C   0  0  0  0  0  1  0  0  0  0  0  0
  190.8980  177.0860  140.2280 C   0  0  0  0  0  2  0  0  0  0  0  0
  1 19  1  0  0  0  0
  2 13  1  0  0  0  0
  4  1  2  0  0  0  0
  4 20  1  0  0  0  0
  5  1  1  0  0  0  0
  6  8  2  0  0  0  0
  7 15  1  6  0  0  0
  7  9  1  0  0  0  0
  8 12  1  0  0  0  0
  8 11  1  0  0  0  0
  9 14  1  6  0  0  0
  9 22  1  0  0  0  0
 10 21  2  0  0  0  0
 10  3  1  0  0  0  0
 11  5  1  0  0  0  0
 12 27  1  6  0  0  0
 12  4  1  0  0  0  0
 13 18  2  0  0  0  0
 15 23  1  0  0  0  0
 16  2  1  0  0  0  0
 17  3  1  0  0  0  0
 17 26  1  0  0  0  0
 19 26  1  0  0  0  0
 19  2  2  0  0  0  0
 20 17  2  0  0  0  0
 22 20  1  0  0  0  0
 22 10  1  0  0  0  0
 23 14  1  0  0  0  0
 24 27  2  0  0  0  0
 25 18  1  0  0  0  0
 26 25  2  0  0  0  0
 27  7  1  0  0  0  0
 28 11  1  0  0  0  0
 30 29  1  0  0  0  0
 30 28  1  0  0  0  0
M  END
>  <MODEL>
9

>  <REMARK>
 VINA RESULT:      -8.8      2.982      5.544
  Name = 
  2 active torsions:
  status: ('A' for Active; 'I' for Inactive)
    1  A    between atoms: N_11  and  C_28
    2  A    between atoms: C_28  and  C_30
                            x       y       z     vdW  Elec       q    Type
                         _______ _______ _______ _____ _____    ______ ____

>  <TORSDO>
F 2

$$$$
