=
 OpenBabel11122411513D

 28 32  0  0  1  0  0  0  0  0999 V2000
  190.3910  177.1230  140.3350 C   0  0  0  0  0  0  0  0  0  0  0  0
  187.5230  179.0170  137.0320 O   0  0  0  0  0  1  0  0  0  0  0  0
  191.7140  173.4500  135.2900 O   0  0  0  0  0  0  0  0  0  0  0  0
  188.0690  178.5480  140.9890 C   0  0  0  0  0  3  0  0  0  0  0  0
  189.6170  173.5230  136.3510 N   0  0  0  0  0  0  0  0  0  0  0  0
  191.6500  176.3570  140.1040 C   0  0  0  0  0  2  0  0  0  0  0  0
  188.7710  178.1460  135.2110 C   0  0  0  0  0  1  0  0  0  0  0  0
  187.7250  177.8600  136.2830 C   0  0  1  0  0  0  0  0  0  0  0  0
  186.4190  175.9970  135.1000 C   0  0  2  0  0  3  0  0  0  0  0  0
  188.1530  176.7070  137.1990 C   0  0  1  0  0  3  0  0  0  0  0  0
  193.8270  177.1020  137.2780 O   0  0  0  0  0  0  0  0  0  0  0  0
  190.0360  175.3260  137.8400 C   0  0  1  0  0  3  0  0  0  0  0  0
  186.8310  175.0820  136.0970 O   0  0  0  0  0  0  0  0  0  0  0  0
  186.3920  177.4560  135.6220 C   0  0  0  0  0  2  0  0  0  0  0  0
  193.0240  176.4720  138.0140 C   0  0  0  0  0  0  0  0  0  0  0  0
  189.3700  177.2710  139.3540 C   0  0  0  0  0  0  0  0  0  0  0  0
  190.9280  173.9910  136.1120 C   0  0  0  0  0  0  0  0  0  0  0  0
  185.0440  175.6140  134.5960 C   0  0  0  0  0  1  0  0  0  0  0  0
  192.5570  175.1140  137.6010 C   0  0  0  0  0  2  0  0  0  0  0  0
  188.2220  178.0050  139.7140 C   0  0  0  0  0  3  0  0  0  0  0  0
  190.2260  177.6740  141.6110 C   0  0  0  0  0  3  0  0  0  0  0  0
  189.0720  178.3830  141.9390 C   0  0  0  0  0  3  0  0  0  0  0  0
  192.5320  177.0820  139.2050 N   0  0  0  0  0  2  0  0  0  0  0  0
  188.9220  174.4470  137.2260 C   0  0  1  0  0  3  0  0  0  0  0  0
  191.2300  175.2280  136.8660 C   0  0  2  0  0  3  0  0  0  0  0  0
  188.1520  175.4400  136.3930 C   0  0  2  0  0  3  0  0  0  0  0  0
  188.9700  172.4550  135.6060 C   0  0  0  0  0  1  0  0  0  0  0  0
  189.5090  176.7720  137.9120 C   0  0  2  0  0  3  0  0  0  0  0  0
  1 21  1  0  0  0  0
  3 17  2  0  0  0  0
  4 22  1  0  0  0  0
  5 24  1  0  0  0  0
  6  1  1  0  0  0  0
  8  7  1  6  0  0  0
  8  2  1  0  0  0  0
  8 10  1  0  0  0  0
  9 18  1  1  0  0  0
  9 14  1  0  0  0  0
  9 13  1  0  0  0  0
 10 28  1  0  0  0  0
 11 15  2  0  0  0  0
 12 28  1  0  0  0  0
 13 26  1  0  0  0  0
 14  8  1  0  0  0  0
 15 23  1  0  0  0  0
 16 20  1  0  0  0  0
 16  1  2  0  0  0  0
 17  5  1  0  0  0  0
 17 25  1  0  0  0  0
 19 15  1  0  0  0  0
 20  4  2  0  0  0  0
 21 22  2  0  0  0  0
 23  6  1  0  0  0  0
 24 12  1  0  0  0  0
 25 19  1  0  0  0  0
 25 12  1  0  0  0  0
 26 10  1  0  0  0  0
 26 24  1  0  0  0  0
 27  5  1  0  0  0  0
 28 16  1  0  0  0  0
M  END
>  <MODEL>
1

>  <REMARK>
 VINA RESULT:      -6.0      0.000      0.000
  Name = 
  0 active torsions:
  status: ('A' for Active; 'I' for Inactive)
                            x       y       z     vdW  Elec       q    Type
                         _______ _______ _______ _____ _____    ______ ____

>  <TORSDO>
F 0

$$$$
=
 OpenBabel11122411513D

 28 32  0  0  1  0  0  0  0  0999 V2000
  179.9330  180.7050  139.3130 C   0  0  0  0  0  0  0  0  0  0  0  0
  184.6640  180.1280  139.2210 O   0  0  0  0  0  1  0  0  0  0  0  0
  180.4350  174.4220  140.2970 O   0  0  0  0  0  0  0  0  0  0  0  0
  181.6470  182.4810  137.9860 C   0  0  0  0  0  3  0  0  0  0  0  0
  181.0880  175.5000  138.3110 N   0  0  0  0  0  0  0  0  0  0  0  0
  178.9320  179.8340  139.9920 C   0  0  0  0  0  2  0  0  0  0  0  0
  184.6030  178.0740  140.4100 C   0  0  0  0  0  1  0  0  0  0  0  0
  184.4320  178.7630  139.0610 C   0  0  1  0  0  0  0  0  0  0  0  0
  185.0350  176.8060  137.5180 C   0  0  2  0  0  3  0  0  0  0  0  0
  183.0310  178.5320  138.4800 C   0  0  1  0  0  3  0  0  0  0  0  0
  179.7300  178.0890  143.0910 O   0  0  0  0  0  0  0  0  0  0  0  0
  180.8040  177.7500  139.0190 C   0  0  1  0  0  3  0  0  0  0  0  0
  183.7120  176.8010  137.0160 O   0  0  0  0  0  0  0  0  0  0  0  0
  185.4510  178.2000  138.0510 C   0  0  0  0  0  2  0  0  0  0  0  0
  179.4490  178.2690  141.8770 C   0  0  0  0  0  0  0  0  0  0  0  0
  181.2360  180.2650  138.9430 C   0  0  0  0  0  0  0  0  0  0  0  0
  180.6710  175.4840  139.6610 C   0  0  0  0  0  0  0  0  0  0  0  0
  185.9930  176.3730  136.4280 C   0  0  0  0  0  1  0  0  0  0  0  0
  179.3160  177.0890  140.9700 C   0  0  0  0  0  2  0  0  0  0  0  0
  182.0740  181.1890  138.2880 C   0  0  0  0  0  3  0  0  0  0  0  0
  179.5160  182.0050  139.0050 C   0  0  0  0  0  3  0  0  0  0  0  0
  180.3660  182.8900  138.3450 C   0  0  0  0  0  3  0  0  0  0  0  0
  179.3130  179.5960  141.3740 N   0  0  0  0  0  2  0  0  0  0  0  0
  181.4260  176.8560  137.9230 C   0  0  1  0  0  3  0  0  0  0  0  0
  180.6340  176.8390  140.2540 C   0  0  2  0  0  3  0  0  0  0  0  0
  182.9040  177.0780  138.1250 C   0  0  2  0  0  3  0  0  0  0  0  0
  181.4130  174.3170  137.5300 C   0  0  0  0  0  1  0  0  0  0  0  0
  181.7970  178.8890  139.3170 C   0  0  2  0  0  3  0  0  0  0  0  0
  1  6  1  0  0  0  0
  4 20  2  0  0  0  0
  4 22  1  0  0  0  0
  5 17  1  0  0  0  0
  6 23  1  0  0  0  0
  8  2  1  0  0  0  0
  8  7  1  1  0  0  0
  9 18  1  6  0  0  0
  9 14  1  0  0  0  0
 10  8  1  0  0  0  0
 10 28  1  0  0  0  0
 12 28  1  0  0  0  0
 12 25  1  0  0  0  0
 13  9  1  0  0  0  0
 13 26  1  0  0  0  0
 14  8  1  0  0  0  0
 15 11  2  0  0  0  0
 16  1  2  0  0  0  0
 16 28  1  0  0  0  0
 17 25  1  0  0  0  0
 17  3  2  0  0  0  0
 19 15  1  0  0  0  0
 20 16  1  0  0  0  0
 21  1  1  0  0  0  0
 22 21  2  0  0  0  0
 23 15  1  0  0  0  0
 24 26  1  0  0  0  0
 24  5  1  0  0  0  0
 24 12  1  0  0  0  0
 25 19  1  0  0  0  0
 26 10  1  0  0  0  0
 27  5  1  0  0  0  0
M  END
>  <MODEL>
2

>  <REMARK>
 VINA RESULT:      -5.8      6.893      9.433
  Name = 
  0 active torsions:
  status: ('A' for Active; 'I' for Inactive)
                            x       y       z     vdW  Elec       q    Type
                         _______ _______ _______ _____ _____    ______ ____

>  <TORSDO>
F 0

$$$$
=
 OpenBabel11122411513D

 28 32  0  0  1  0  0  0  0  0999 V2000
  180.2930  181.1530  136.9560 C   0  0  0  0  0  0  0  0  0  0  0  0
  179.8030  179.5320  141.4120 O   0  0  0  0  0  1  0  0  0  0  0  0
  184.5580  176.4110  137.0250 O   0  0  0  0  0  0  0  0  0  0  0  0
  179.3050  182.7420  139.0420 C   0  0  0  0  0  3  0  0  0  0  0  0
  184.7250  178.3500  138.3440 N   0  0  0  0  0  0  0  0  0  0  0  0
  180.7960  180.3990  135.7730 C   0  0  0  0  0  2  0  0  0  0  0  0
  180.7420  177.4080  140.9180 C   0  0  0  0  0  1  0  0  0  0  0  0
  181.0190  178.8720  141.2390 C   0  0  1  0  0  0  0  0  0  0  0  0
  183.3270  178.6280  142.3290 C   0  0  2  0  0  3  0  0  0  0  0  0
  181.8330  179.5510  140.1300 C   0  0  1  0  0  3  0  0  0  0  0  0
  180.2010  176.8210  135.4150 O   0  0  0  0  0  0  0  0  0  0  0  0
  182.6050  179.2990  137.8490 C   0  0  1  0  0  3  0  0  0  0  0  0
  183.9010  179.3660  141.2670 O   0  0  0  0  0  0  0  0  0  0  0  0
  181.8320  178.9800  142.5440 C   0  0  0  0  0  2  0  0  0  0  0  0
  180.8230  177.9020  135.5800 C   0  0  0  0  0  0  0  0  0  0  0  0
  180.5790  180.7870  138.3010 C   0  0  0  0  0  0  0  0  0  0  0  0
  184.0430  177.4670  137.4790 C   0  0  0  0  0  0  0  0  0  0  0  0
  184.0980  178.8910  143.6050 C   0  0  0  0  0  1  0  0  0  0  0  0
  182.3060  177.8780  135.7640 C   0  0  0  0  0  2  0  0  0  0  0  0
  180.0550  181.6020  139.3240 C   0  0  0  0  0  3  0  0  0  0  0  0
  179.5370  182.3000  136.6850 C   0  0  0  0  0  3  0  0  0  0  0  0
  179.0450  183.0920  137.7210 C   0  0  0  0  0  3  0  0  0  0  0  0
  180.1000  179.1300  135.6410 N   0  0  0  0  0  2  0  0  0  0  0  0
  183.8130  179.3780  138.8090 C   0  0  1  0  0  3  0  0  0  0  0  0
  182.6400  177.8770  137.2470 C   0  0  2  0  0  3  0  0  0  0  0  0
  183.2090  178.9500  140.1230 C   0  0  2  0  0  3  0  0  0  0  0  0
  186.0400  178.1020  138.9130 C   0  0  0  0  0  1  0  0  0  0  0  0
  181.3260  179.5050  138.6840 C   0  0  2  0  0  3  0  0  0  0  0  0
  1 16  1  0  0  0  0
  3 17  2  0  0  0  0
  4 20  1  0  0  0  0
  5 24  1  0  0  0  0
  5 27  1  0  0  0  0
  6  1  1  0  0  0  0
  8  7  1  6  0  0  0
  8  2  1  0  0  0  0
  8 14  1  0  0  0  0
  9 14  1  0  0  0  0
  9 18  1  1  0  0  0
 10  8  1  0  0  0  0
 11 15  2  0  0  0  0
 12 28  1  0  0  0  0
 12 24  1  0  0  0  0
 13  9  1  0  0  0  0
 15 23  1  0  0  0  0
 15 19  1  0  0  0  0
 16 28  1  0  0  0  0
 16 20  2  0  0  0  0
 17  5  1  0  0  0  0
 19 25  1  0  0  0  0
 21  1  2  0  0  0  0
 21 22  1  0  0  0  0
 22  4  2  0  0  0  0
 23  6  1  0  0  0  0
 24 26  1  0  0  0  0
 25 17  1  0  0  0  0
 25 12  1  0  0  0  0
 26 10  1  0  0  0  0
 26 13  1  0  0  0  0
 28 10  1  0  0  0  0
M  END
>  <MODEL>
3

>  <REMARK>
 VINA RESULT:      -5.2      6.592      9.697
  Name = 
  0 active torsions:
  status: ('A' for Active; 'I' for Inactive)
                            x       y       z     vdW  Elec       q    Type
                         _______ _______ _______ _____ _____    ______ ____

>  <TORSDO>
F 0

$$$$
=
 OpenBabel11122411513D

 28 32  0  0  1  0  0  0  0  0999 V2000
  181.5470  178.7270  142.6280 C   0  0  0  0  0  0  0  0  0  0  0  0
  180.0680  181.9680  139.4600 O   0  0  0  0  0  1  0  0  0  0  0  0
  185.6470  177.7440  137.8410 O   0  0  0  0  0  0  0  0  0  0  0  0
  178.9320  179.7340  142.6050 C   0  0  0  0  0  3  0  0  0  0  0  0
  183.3320  177.3580  137.6910 N   0  0  0  0  0  0  0  0  0  0  0  0
  182.9090  178.1320  142.7390 C   0  0  0  0  0  2  0  0  0  0  0  0
  182.1300  182.0050  138.2860 C   0  0  0  0  0  1  0  0  0  0  0  0
  180.8080  181.2780  138.5020 C   0  0  1  0  0  0  0  0  0  0  0  0
  180.5570  180.1830  136.1970 C   0  0  2  0  0  3  0  0  0  0  0  0
  181.0250  179.8270  138.9490 C   0  0  1  0  0  3  0  0  0  0  0  0
  185.8900  180.0490  141.8880 O   0  0  0  0  0  0  0  0  0  0  0  0
  182.6840  178.2740  139.7850 C   0  0  1  0  0  3  0  0  0  0  0  0
  180.6750  178.9060  136.7960 O   0  0  0  0  0  0  0  0  0  0  0  0
  180.0070  181.2430  137.1860 C   0  0  0  0  0  2  0  0  0  0  0  0
  184.9960  179.1660  141.8190 C   0  0  0  0  0  0  0  0  0  0  0  0
  181.0450  179.3240  141.4370 C   0  0  0  0  0  0  0  0  0  0  0  0
  184.4900  177.8620  138.3240 C   0  0  0  0  0  0  0  0  0  0  0  0
  179.6470  180.0940  134.9910 C   0  0  0  0  0  1  0  0  0  0  0  0
  185.0440  178.1540  140.7200 C   0  0  0  0  0  2  0  0  0  0  0  0
  179.7300  179.8310  141.4670 C   0  0  0  0  0  3  0  0  0  0  0  0
  180.7370  178.6370  143.7650 C   0  0  0  0  0  3  0  0  0  0  0  0
  179.4360  179.1370  143.7570 C   0  0  0  0  0  3  0  0  0  0  0  0
  183.9230  179.1720  142.7580 N   0  0  0  0  0  2  0  0  0  0  0  0
  182.1540  177.7920  138.4160 C   0  0  1  0  0  3  0  0  0  0  0  0
  184.1740  178.6130  139.5600 C   0  0  2  0  0  3  0  0  0  0  0  0
  181.6330  179.0690  137.8050 C   0  0  2  0  0  3  0  0  0  0  0  0
  183.3070  176.7600  136.3660 C   0  0  0  0  0  1  0  0  0  0  0  0
  181.8930  179.5360  140.1790 C   0  0  2  0  0  3  0  0  0  0  0  0
  1  6  1  0  0  0  0
  1 21  1  0  0  0  0
  3 17  2  0  0  0  0
  4 22  1  0  0  0  0
  5 17  1  0  0  0  0
  5 24  1  0  0  0  0
  6 23  1  0  0  0  0
  8  7  1  6  0  0  0
  8 10  1  0  0  0  0
  8  2  1  0  0  0  0
  9 18  1  6  0  0  0
  9 13  1  0  0  0  0
  9 14  1  0  0  0  0
 10 28  1  0  0  0  0
 12 28  1  0  0  0  0
 13 26  1  0  0  0  0
 14  8  1  0  0  0  0
 15 11  2  0  0  0  0
 15 23  1  0  0  0  0
 16 20  1  0  0  0  0
 16  1  2  0  0  0  0
 17 25  1  0  0  0  0
 19 15  1  0  0  0  0
 20  4  2  0  0  0  0
 22 21  2  0  0  0  0
 24 12  1  0  0  0  0
 25 12  1  0  0  0  0
 25 19  1  0  0  0  0
 26 24  1  0  0  0  0
 26 10  1  0  0  0  0
 27  5  1  0  0  0  0
 28 16  1  0  0  0  0
M  END
>  <MODEL>
4

>  <REMARK>
 VINA RESULT:      -5.2      6.550      8.422
  Name = 
  0 active torsions:
  status: ('A' for Active; 'I' for Inactive)
                            x       y       z     vdW  Elec       q    Type
                         _______ _______ _______ _____ _____    ______ ____

>  <TORSDO>
F 0

$$$$
=
 OpenBabel11122411513D

 28 32  0  0  1  0  0  0  0  0999 V2000
  181.4960  178.7780  135.4970 C   0  0  0  0  0  0  0  0  0  0  0  0
  181.1520  178.5580  140.2460 O   0  0  0  0  0  1  0  0  0  0  0  0
  186.4970  175.0870  136.9330 O   0  0  0  0  0  0  0  0  0  0  0  0
  180.1920  180.7430  137.0100 C   0  0  0  0  0  3  0  0  0  0  0  0
  186.2940  177.3390  137.5800 N   0  0  0  0  0  0  0  0  0  0  0  0
  182.1550  177.7910  134.5940 C   0  0  0  0  0  2  0  0  0  0  0  0
  182.4500  176.5780  140.4140 C   0  0  0  0  0  1  0  0  0  0  0  0
  182.4660  178.0940  140.2580 C   0  0  1  0  0  0  0  0  0  0  0  0
  184.7480  178.5950  141.3150 C   0  0  2  0  0  3  0  0  0  0  0  0
  183.1870  178.5240  138.9740 C   0  0  1  0  0  3  0  0  0  0  0  0
  182.1840  174.2320  135.3790 O   0  0  0  0  0  0  0  0  0  0  0  0
  184.0600  177.7130  136.8660 C   0  0  1  0  0  3  0  0  0  0  0  0
  185.2210  179.0540  140.0630 O   0  0  0  0  0  0  0  0  0  0  0  0
  183.2100  178.7370  141.4450 C   0  0  0  0  0  2  0  0  0  0  0  0
  182.6090  175.4010  135.1850 C   0  0  0  0  0  0  0  0  0  0  0  0
  181.7990  178.9010  136.8820 C   0  0  0  0  0  0  0  0  0  0  0  0
  185.7970  176.1280  137.0490 C   0  0  0  0  0  0  0  0  0  0  0  0
  185.4240  179.3670  142.4270 C   0  0  0  0  0  1  0  0  0  0  0  0
  184.0690  175.6870  135.3330 C   0  0  0  0  0  2  0  0  0  0  0  0
  181.1150  179.8910  137.6140 C   0  0  0  0  0  3  0  0  0  0  0  0
  180.5670  179.6380  134.9010 C   0  0  0  0  0  3  0  0  0  0  0  0
  179.9160  180.6170  135.6520 C   0  0  0  0  0  3  0  0  0  0  0  0
  181.6880  176.4450  134.8790 N   0  0  0  0  0  2  0  0  0  0  0  0
  185.2080  178.2890  137.7250 C   0  0  1  0  0  3  0  0  0  0  0  0
  184.3530  176.2020  136.7340 C   0  0  2  0  0  3  0  0  0  0  0  0
  184.6450  178.1930  139.1210 C   0  0  2  0  0  3  0  0  0  0  0  0
  187.6140  177.5060  138.1670 C   0  0  0  0  0  1  0  0  0  0  0  0
  182.7400  177.9460  137.6260 C   0  0  2  0  0  3  0  0  0  0  0  0
  1 16  1  0  0  0  0
  2  8  1  0  0  0  0
  3 17  2  0  0  0  0
  4 20  1  0  0  0  0
  5 24  1  0  0  0  0
  5 27  1  0  0  0  0
  6 23  1  0  0  0  0
  6  1  1  0  0  0  0
  8  7  1  1  0  0  0
  8 14  1  0  0  0  0
  9 14  1  0  0  0  0
  9 18  1  1  0  0  0
 10 26  1  0  0  0  0
 10  8  1  0  0  0  0
 12 28  1  0  0  0  0
 12 24  1  0  0  0  0
 13  9  1  0  0  0  0
 15 19  1  0  0  0  0
 15 11  2  0  0  0  0
 16 20  2  0  0  0  0
 16 28  1  0  0  0  0
 17  5  1  0  0  0  0
 19 25  1  0  0  0  0
 21  1  2  0  0  0  0
 21 22  1  0  0  0  0
 22  4  2  0  0  0  0
 23 15  1  0  0  0  0
 24 26  1  0  0  0  0
 25 12  1  0  0  0  0
 25 17  1  0  0  0  0
 26 13  1  0  0  0  0
 28 10  1  0  0  0  0
M  END
>  <MODEL>
5

>  <REMARK>
 VINA RESULT:      -5.1      4.733      8.244
  Name = 
  0 active torsions:
  status: ('A' for Active; 'I' for Inactive)
                            x       y       z     vdW  Elec       q    Type
                         _______ _______ _______ _____ _____    ______ ____

>  <TORSDO>
F 0

$$$$
=
 OpenBabel11122411513D

 28 32  0  0  1  0  0  0  0  0999 V2000
  180.7360  176.1960  137.3680 C   0  0  0  0  0  0  0  0  0  0  0  0
  185.0510  177.7960  138.6100 O   0  0  0  0  0  1  0  0  0  0  0  0
  179.2050  181.3230  140.8410 O   0  0  0  0  0  0  0  0  0  0  0  0
  182.9910  174.5360  137.4720 C   0  0  0  0  0  3  0  0  0  0  0  0
  180.2760  179.4180  141.7090 N   0  0  0  0  0  0  0  0  0  0  0  0
  179.4750  176.9860  137.2700 C   0  0  0  0  0  2  0  0  0  0  0  0
  184.2860  179.9960  139.0680 C   0  0  0  0  0  1  0  0  0  0  0  0
  184.4170  178.5670  139.5830 C   0  0  1  0  0  0  0  0  0  0  0  0
  184.4720  179.0380  142.1020 C   0  0  2  0  0  3  0  0  0  0  0  0
  183.0500  177.9600  139.9260 C   0  0  1  0  0  3  0  0  0  0  0  0
  179.5090  180.4890  136.2630 O   0  0  0  0  0  0  0  0  0  0  0  0
  180.6630  178.2680  139.6660 C   0  0  1  0  0  3  0  0  0  0  0  0
  183.2450  178.3490  142.2530 O   0  0  0  0  0  0  0  0  0  0  0  0
  185.2690  178.5470  140.8670 C   0  0  0  0  0  2  0  0  0  0  0  0
  179.3700  179.4730  136.9920 C   0  0  0  0  0  0  0  0  0  0  0  0
  181.8570  176.5980  138.1480 C   0  0  0  0  0  0  0  0  0  0  0  0
  179.7960  180.2260  140.6550 C   0  0  0  0  0  0  0  0  0  0  0  0
  185.3110  178.8580  143.3500 C   0  0  0  0  0  1  0  0  0  0  0  0
  178.9310  179.6390  138.4110 C   0  0  0  0  0  2  0  0  0  0  0  0
  182.9770  175.7440  138.1660 C   0  0  0  0  0  3  0  0  0  0  0  0
  180.7610  174.9810  136.6740 C   0  0  0  0  0  3  0  0  0  0  0  0
  181.8810  174.1530  136.7240 C   0  0  0  0  0  3  0  0  0  0  0  0
  179.6810  178.1820  136.4710 N   0  0  0  0  0  2  0  0  0  0  0  0
  181.0400  178.3120  141.1640 C   0  0  1  0  0  3  0  0  0  0  0  0
  180.1460  179.6820  139.3240 C   0  0  2  0  0  3  0  0  0  0  0  0
  182.4990  178.6890  141.1180 C   0  0  2  0  0  3  0  0  0  0  0  0
  180.2640  179.7940  143.1130 C   0  0  0  0  0  1  0  0  0  0  0  0
  181.9410  177.9480  138.8680 C   0  0  2  0  0  3  0  0  0  0  0  0
  1 16  1  0  0  0  0
  2  8  1  0  0  0  0
  4 20  1  0  0  0  0
  5 27  1  0  0  0  0
  6  1  1  0  0  0  0
  8  7  1  6  0  0  0
  8 10  1  0  0  0  0
  8 14  1  0  0  0  0
  9 13  1  0  0  0  0
  9 18  1  1  0  0  0
 10 26  1  0  0  0  0
 11 15  2  0  0  0  0
 12 24  1  0  0  0  0
 14  9  1  0  0  0  0
 15 19  1  0  0  0  0
 16 20  2  0  0  0  0
 16 28  1  0  0  0  0
 17  3  2  0  0  0  0
 17  5  1  0  0  0  0
 19 25  1  0  0  0  0
 21 22  1  0  0  0  0
 21  1  2  0  0  0  0
 22  4  2  0  0  0  0
 23 15  1  0  0  0  0
 23  6  1  0  0  0  0
 24  5  1  0  0  0  0
 25 12  1  0  0  0  0
 25 17  1  0  0  0  0
 26 24  1  0  0  0  0
 26 13  1  0  0  0  0
 28 12  1  0  0  0  0
 28 10  1  0  0  0  0
M  END
>  <MODEL>
6

>  <REMARK>
 VINA RESULT:      -5.1      6.598     10.353
  Name = 
  0 active torsions:
  status: ('A' for Active; 'I' for Inactive)
                            x       y       z     vdW  Elec       q    Type
                         _______ _______ _______ _____ _____    ______ ____

>  <TORSDO>
F 0

$$$$
=
 OpenBabel11122411513D

 28 32  0  0  1  0  0  0  0  0999 V2000
  182.6630  173.5510  136.8220 C   0  0  0  0  0  0  0  0  0  0  0  0
  186.6080  175.3690  134.8570 O   0  0  0  0  0  1  0  0  0  0  0  0
  181.8030  179.7860  137.8580 O   0  0  0  0  0  0  0  0  0  0  0  0
  185.0200  172.0660  136.5130 C   0  0  0  0  0  3  0  0  0  0  0  0
  183.5360  178.5190  138.8170 N   0  0  0  0  0  0  0  0  0  0  0  0
  181.3580  174.2410  137.0270 C   0  0  0  0  0  2  0  0  0  0  0  0
  185.6760  177.5360  134.5940 C   0  0  0  0  0  1  0  0  0  0  0  0
  186.3340  176.5480  135.5490 C   0  0  1  0  0  0  0  0  0  0  0  0
  187.4240  178.2050  137.1740 C   0  0  2  0  0  3  0  0  0  0  0  0
  185.4410  176.2510  136.7610 C   0  0  1  0  0  3  0  0  0  0  0  0
  180.1680  176.7750  134.6930 O   0  0  0  0  0  0  0  0  0  0  0  0
  183.1930  176.4920  137.6280 C   0  0  1  0  0  3  0  0  0  0  0  0
  186.5810  177.7360  138.2100 O   0  0  0  0  0  0  0  0  0  0  0  0
  187.6580  177.1320  136.0810 C   0  0  0  0  0  2  0  0  0  0  0  0
  180.6000  176.2620  135.7580 C   0  0  0  0  0  0  0  0  0  0  0  0
  183.8990  174.2380  136.6560 C   0  0  0  0  0  0  0  0  0  0  0  0
  182.4670  178.7170  137.9150 C   0  0  0  0  0  0  0  0  0  0  0  0
  188.7540  178.6340  137.7560 C   0  0  0  0  0  1  0  0  0  0  0  0
  180.8280  177.1310  136.9530 C   0  0  0  0  0  2  0  0  0  0  0  0
  185.0610  173.4590  136.4910 C   0  0  0  0  0  3  0  0  0  0  0  0
  182.6340  172.1510  136.8410 C   0  0  0  0  0  3  0  0  0  0  0  0
  183.8050  171.4110  136.6870 C   0  0  0  0  0  3  0  0  0  0  0  0
  180.9130  174.8720  135.7960 N   0  0  0  0  0  2  0  0  0  0  0  0
  184.1900  177.2570  138.5270 C   0  0  1  0  0  3  0  0  0  0  0  0
  182.2830  177.5690  137.0000 C   0  0  2  0  0  3  0  0  0  0  0  0
  185.3480  177.4990  137.5920 C   0  0  2  0  0  3  0  0  0  0  0  0
  184.0820  179.5440  139.6930 C   0  0  0  0  0  1  0  0  0  0  0  0
  184.0050  175.7630  136.5400 C   0  0  2  0  0  3  0  0  0  0  0  0
  1 21  1  0  0  0  0
  1  6  1  0  0  0  0
  2  8  1  0  0  0  0
  3 17  2  0  0  0  0
  4 22  1  0  0  0  0
  5 27  1  0  0  0  0
  8  7  1  6  0  0  0
  8 14  1  0  0  0  0
  8 10  1  0  0  0  0
  9 18  1  1  0  0  0
  9 13  1  0  0  0  0
 10 26  1  0  0  0  0
 11 15  2  0  0  0  0
 12 24  1  0  0  0  0
 14  9  1  0  0  0  0
 15 23  1  0  0  0  0
 15 19  1  0  0  0  0
 16  1  2  0  0  0  0
 17  5  1  0  0  0  0
 19 25  1  0  0  0  0
 20  4  2  0  0  0  0
 20 16  1  0  0  0  0
 22 21  2  0  0  0  0
 23  6  1  0  0  0  0
 24  5  1  0  0  0  0
 25 12  1  0  0  0  0
 25 17  1  0  0  0  0
 26 13  1  0  0  0  0
 26 24  1  0  0  0  0
 28 16  1  0  0  0  0
 28 10  1  0  0  0  0
 28 12  1  0  0  0  0
M  END
>  <MODEL>
7

>  <REMARK>
 VINA RESULT:      -5.0      4.235      8.315
  Name = 
  0 active torsions:
  status: ('A' for Active; 'I' for Inactive)
                            x       y       z     vdW  Elec       q    Type
                         _______ _______ _______ _____ _____    ______ ____

>  <TORSDO>
F 0

$$$$
=
 OpenBabel11122411513D

 28 32  0  0  1  0  0  0  0  0999 V2000
  186.9200  177.9160  139.1230 C   0  0  0  0  0  0  0  0  0  0  0  0
  182.6330  179.8960  139.7800 O   0  0  0  0  0  1  0  0  0  0  0  0
  183.5010  175.0030  134.5940 O   0  0  0  0  0  0  0  0  0  0  0  0
  186.1260  179.0230  141.5720 C   0  0  0  0  0  3  0  0  0  0  0  0
  183.1180  174.7480  136.9000 N   0  0  0  0  0  0  0  0  0  0  0  0
  187.4490  177.3090  137.8690 C   0  0  0  0  0  2  0  0  0  0  0  0
  181.8710  179.3680  137.5950 C   0  0  0  0  0  1  0  0  0  0  0  0
  182.1060  178.8590  139.0130 C   0  0  1  0  0  0  0  0  0  0  0  0
  180.3110  177.0290  139.0970 C   0  0  2  0  0  3  0  0  0  0  0  0
  183.0550  177.6540  139.0330 C   0  0  1  0  0  3  0  0  0  0  0  0
  186.4870  178.5850  134.5940 O   0  0  0  0  0  0  0  0  0  0  0  0
  184.6330  176.3960  137.6940 C   0  0  1  0  0  3  0  0  0  0  0  0
  181.3250  176.0480  139.2120 O   0  0  0  0  0  0  0  0  0  0  0  0
  180.7700  178.4080  139.6370 C   0  0  0  0  0  2  0  0  0  0  0  0
  186.5820  177.7990  135.5710 C   0  0  0  0  0  0  0  0  0  0  0  0
  185.5310  178.0780  139.3930 C   0  0  0  0  0  0  0  0  0  0  0  0
  183.7180  175.3660  135.7800 C   0  0  0  0  0  0  0  0  0  0  0  0
  179.0780  176.5760  139.8490 C   0  0  0  0  0  1  0  0  0  0  0  0
  185.9220  176.4600  135.5060 C   0  0  0  0  0  2  0  0  0  0  0  0
  185.1700  178.6500  140.6290 C   0  0  0  0  0  3  0  0  0  0  0  0
  187.8700  178.2960  140.0770 C   0  0  0  0  0  3  0  0  0  0  0  0
  187.4780  178.8470  141.2960 C   0  0  0  0  0  3  0  0  0  0  0  0
  187.2730  178.2150  136.7470 N   0  0  0  0  0  2  0  0  0  0  0  0
  183.4470  175.4920  138.1000 C   0  0  1  0  0  3  0  0  0  0  0  0
  184.5500  176.5290  136.1580 C   0  0  2  0  0  3  0  0  0  0  0  0
  182.3570  176.4960  138.3790 C   0  0  2  0  0  3  0  0  0  0  0  0
  182.0960  173.7170  136.8280 C   0  0  0  0  0  1  0  0  0  0  0  0
  184.4330  177.7660  138.3700 C   0  0  2  0  0  3  0  0  0  0  0  0
  1 16  2  0  0  0  0
  1 21  1  0  0  0  0
  3 17  2  0  0  0  0
  5 24  1  0  0  0  0
  6  1  1  0  0  0  0
  8  7  1  6  0  0  0
  8 10  1  0  0  0  0
  8 14  1  0  0  0  0
  8  2  1  0  0  0  0
  9 13  1  0  0  0  0
  9 14  1  0  0  0  0
  9 18  1  1  0  0  0
 11 15  2  0  0  0  0
 12 24  1  0  0  0  0
 12 28  1  0  0  0  0
 15 23  1  0  0  0  0
 16 20  1  0  0  0  0
 17 25  1  0  0  0  0
 17  5  1  0  0  0  0
 19 15  1  0  0  0  0
 19 25  1  0  0  0  0
 20  4  2  0  0  0  0
 21 22  2  0  0  0  0
 22  4  1  0  0  0  0
 23  6  1  0  0  0  0
 24 26  1  0  0  0  0
 25 12  1  0  0  0  0
 26 10  1  0  0  0  0
 26 13  1  0  0  0  0
 27  5  1  0  0  0  0
 28 10  1  0  0  0  0
 28 16  1  0  0  0  0
M  END
>  <MODEL>
8

>  <REMARK>
 VINA RESULT:      -4.9      4.276      6.082
  Name = 
  0 active torsions:
  status: ('A' for Active; 'I' for Inactive)
                            x       y       z     vdW  Elec       q    Type
                         _______ _______ _______ _____ _____    ______ ____

>  <TORSDO>
F 0

$$$$
=
 OpenBabel11122411513D

 28 32  0  0  1  0  0  0  0  0999 V2000
  184.6370  176.0450  137.3260 C   0  0  0  0  0  0  0  0  0  0  0  0
  181.9400  179.9240  137.9660 O   0  0  0  0  0  1  0  0  0  0  0  0
  178.9380  173.4180  138.4690 O   0  0  0  0  0  0  0  0  0  0  0  0
  185.7000  178.5080  138.1360 C   0  0  0  0  0  3  0  0  0  0  0  0
  180.1450  174.6800  140.0440 N   0  0  0  0  0  0  0  0  0  0  0  0
  184.1830  174.6940  136.8900 C   0  0  0  0  0  2  0  0  0  0  0  0
  179.9070  178.7890  137.5050 C   0  0  0  0  0  1  0  0  0  0  0  0
  180.9850  179.0880  138.5410 C   0  0  1  0  0  0  0  0  0  0  0  0
  179.5890  178.8280  140.6760 C   0  0  2  0  0  3  0  0  0  0  0  0
  181.6490  177.8040  139.0550 C   0  0  1  0  0  3  0  0  0  0  0  0
  181.3830  174.2860  134.5940 O   0  0  0  0  0  0  0  0  0  0  0  0
  181.8960  175.4340  138.6260 C   0  0  1  0  0  3  0  0  0  0  0  0
  180.3750  177.7120  141.0480 O   0  0  0  0  0  0  0  0  0  0  0  0
  180.3620  179.8050  139.7540 C   0  0  0  0  0  2  0  0  0  0  0  0
  182.0520  174.2350  135.6580 C   0  0  0  0  0  0  0  0  0  0  0  0
  183.7750  177.0110  137.9180 C   0  0  0  0  0  0  0  0  0  0  0  0
  179.8980  174.1850  138.7440 C   0  0  0  0  0  0  0  0  0  0  0  0
  179.1260  179.5600  141.9180 C   0  0  0  0  0  1  0  0  0  0  0  0
  181.4400  173.6410  136.8850 C   0  0  0  0  0  2  0  0  0  0  0  0
  184.3420  178.2430  138.3020 C   0  0  0  0  0  3  0  0  0  0  0  0
  185.9990  176.3240  137.1640 C   0  0  0  0  0  3  0  0  0  0  0  0
  186.5310  177.5480  137.5660 C   0  0  0  0  0  3  0  0  0  0  0  0
  183.3660  174.7900  135.6930 N   0  0  0  0  0  2  0  0  0  0  0  0
  181.2190  175.6540  139.9980 C   0  0  1  0  0  3  0  0  0  0  0  0
  180.8360  174.7410  137.7430 C   0  0  2  0  0  3  0  0  0  0  0  0
  180.6330  177.0360  139.8500 C   0  0  2  0  0  3  0  0  0  0  0  0
  179.2710  174.4750  141.1880 C   0  0  0  0  0  1  0  0  0  0  0  0
  182.2610  176.8170  138.0540 C   0  0  2  0  0  3  0  0  0  0  0  0
  1 16  1  0  0  0  0
  2  8  1  0  0  0  0
  3 17  2  0  0  0  0
  4 20  1  0  0  0  0
  5 27  1  0  0  0  0
  6  1  1  0  0  0  0
  8  7  1  6  0  0  0
  8 10  1  0  0  0  0
  8 14  1  0  0  0  0
  9 13  1  0  0  0  0
  9 18  1  1  0  0  0
 10 26  1  0  0  0  0
 11 15  2  0  0  0  0
 12 24  1  0  0  0  0
 14  9  1  0  0  0  0
 15 23  1  0  0  0  0
 15 19  1  0  0  0  0
 16 28  1  0  0  0  0
 16 20  2  0  0  0  0
 17  5  1  0  0  0  0
 19 25  1  0  0  0  0
 21  1  2  0  0  0  0
 21 22  1  0  0  0  0
 22  4  2  0  0  0  0
 23  6  1  0  0  0  0
 24  5  1  0  0  0  0
 25 12  1  0  0  0  0
 25 17  1  0  0  0  0
 26 24  1  0  0  0  0
 26 13  1  0  0  0  0
 28 12  1  0  0  0  0
 28 10  1  0  0  0  0
M  END
>  <MODEL>
9

>  <REMARK>
 VINA RESULT:      -4.8      6.164      8.890
  Name = 
  0 active torsions:
  status: ('A' for Active; 'I' for Inactive)
                            x       y       z     vdW  Elec       q    Type
                         _______ _______ _______ _____ _____    ______ ____

>  <TORSDO>
F 0

$$$$
