=
 OpenBabel11122411513D

 28 32  0  0  1  0  0  0  0  0999 V2000
  185.5920  179.2060  145.3140 C   0  0  0  0  0  0  0  0  0  0  0  0
  189.6380  177.0580  144.0280 O   0  0  0  0  0  0  0  0  0  0  0  0
  183.0970  177.0160  140.0840 O   0  0  0  0  0  0  0  0  0  0  0  0
  187.1110  177.4180  146.8550 C   0  0  0  0  0  3  0  0  0  0  0  0
  185.1480  178.1600  140.0030 N   0  0  0  0  0  0  0  0  0  0  0  0
  184.6440  180.1280  144.6170 C   0  0  0  0  0  2  0  0  0  0  0  0
  188.2190  175.4540  142.8040 O   0  0  0  0  0  0  0  0  0  0  0  0
  188.8660  176.8100  142.7640 S   0  0  0  0  0  0  0  0  0  0  0  0
  189.6740  177.8000  140.2990 C   0  0  0  0  0  0  0  0  0  0  0  0
  187.6450  178.0820  142.5320 C   0  0  1  0  0  3  0  0  0  0  0  0
  181.4460  178.3950  144.1910 O   0  0  0  0  0  0  0  0  0  0  0  0
  185.3440  178.6760  142.3170 C   0  0  1  0  0  3  0  0  0  0  0  0
  188.4800  178.7190  140.2800 C   0  0  0  0  0  2  0  0  0  0  0  0
  189.9340  176.9170  141.4010 N   0  0  0  0  0  2  0  0  0  0  0  0
  182.5030  178.9820  143.8430 C   0  0  0  0  0  0  0  0  0  0  0  0
  186.2780  178.1330  144.6730 C   0  0  0  0  0  0  0  0  0  0  0  0
  184.0080  177.6610  140.6700 C   0  0  0  0  0  0  0  0  0  0  0  0
  190.4830  177.8350  139.3370 O   0  0  0  0  0  0  0  0  0  0  0  0
  182.8880  178.9770  142.3980 C   0  0  0  0  0  2  0  0  0  0  0  0
  187.0120  177.2450  145.4750 C   0  0  0  0  0  3  0  0  0  0  0  0
  185.7020  179.3670  146.7010 C   0  0  0  0  0  3  0  0  0  0  0  0
  186.4630  178.4860  147.4680 C   0  0  0  0  0  3  0  0  0  0  0  0
  183.2800  179.6630  144.8320 N   0  0  0  0  0  2  0  0  0  0  0  0
  186.0160  178.8450  140.9390 C   0  0  1  0  0  3  0  0  0  0  0  0
  183.9960  177.9740  142.1160 C   0  0  2  0  0  3  0  0  0  0  0  0
  187.3310  178.1060  141.0610 C   0  0  2  0  0  3  0  0  0  0  0  0
  185.3460  178.1350  138.5630 C   0  0  0  0  0  1  0  0  0  0  0  0
  186.2890  177.8400  143.1790 C   0  0  2  0  0  3  0  0  0  0  0  0
  1 21  1  0  0  0  0
  3 17  2  0  0  0  0
  4 22  1  0  0  0  0
  5 17  1  0  0  0  0
  5 24  1  0  0  0  0
  6 23  1  0  0  0  0
  6  1  1  0  0  0  0
  8  7  2  0  0  0  0
  8  2  2  0  0  0  0
  9 14  1  0  0  0  0
 10  8  1  6  0  0  0
 10 28  1  0  0  0  0
 12 28  1  0  0  0  0
 13  9  1  0  0  0  0
 13 26  1  0  0  0  0
 14  8  1  0  0  0  0
 15 11  2  0  0  0  0
 15 23  1  0  0  0  0
 16  1  2  0  0  0  0
 16 20  1  0  0  0  0
 17 25  1  0  0  0  0
 18  9  2  0  0  0  0
 19 15  1  0  0  0  0
 20  4  2  0  0  0  0
 21 22  2  0  0  0  0
 24 26  1  0  0  0  0
 24 12  1  0  0  0  0
 25 12  1  0  0  0  0
 25 19  1  0  0  0  0
 26 10  1  0  0  0  0
 27  5  1  0  0  0  0
 28 16  1  0  0  0  0
M  END
>  <MODEL>
1

>  <REMARK>
 VINA RESULT:      -9.0      0.000      0.000
  Name = 
  0 active torsions:
  status: ('A' for Active; 'I' for Inactive)
                            x       y       z     vdW  Elec       q    Type
                         _______ _______ _______ _____ _____    ______ ____

>  <TORSDO>
F 0

$$$$
=
 OpenBabel11122411513D

 28 32  0  0  1  0  0  0  0  0999 V2000
  188.1160  177.1160  142.3710 C   0  0  0  0  0  0  0  0  0  0  0  0
  186.3020  177.9810  138.0590 O   0  0  0  0  0  0  0  0  0  0  0  0
  193.7170  178.0360  139.8910 O   0  0  0  0  0  0  0  0  0  0  0  0
  186.1110  178.9730  141.7310 C   0  0  0  0  0  3  0  0  0  0  0  0
  192.2130  176.5610  138.8500 N   0  0  0  0  0  0  0  0  0  0  0  0
  189.1990  176.2190  142.8770 C   0  0  0  0  0  2  0  0  0  0  0  0
  188.3020  179.3710  137.6640 O   0  0  0  0  0  0  0  0  0  0  0  0
  187.7530  177.9720  137.6710 S   0  0  0  0  0  0  0  0  0  0  0  0
  188.8070  176.1480  135.8620 C   0  0  0  0  0  0  0  0  0  0  0  0
  188.6800  176.9400  138.7840 C   0  0  1  0  0  3  0  0  0  0  0  0
  191.9250  178.3030  144.1590 O   0  0  0  0  0  0  0  0  0  0  0  0
  190.4210  176.7470  140.4030 C   0  0  1  0  0  3  0  0  0  0  0  0
  189.5950  175.5040  136.9740 C   0  0  0  0  0  2  0  0  0  0  0  0
  187.9290  177.2590  136.0990 N   0  0  0  0  0  2  0  0  0  0  0  0
  191.3630  177.4520  143.4220 C   0  0  0  0  0  0  0  0  0  0  0  0
  188.1620  177.7970  141.1190 C   0  0  0  0  0  0  0  0  0  0  0  0
  192.6050  177.4420  139.8810 C   0  0  0  0  0  0  0  0  0  0  0  0
  188.8940  175.6720  134.7010 O   0  0  0  0  0  0  0  0  0  0  0  0
  192.0920  176.9460  142.2180 C   0  0  0  0  0  2  0  0  0  0  0  0
  187.1550  178.7340  140.8380 C   0  0  0  0  0  3  0  0  0  0  0  0
  187.0590  177.3670  143.2560 C   0  0  0  0  0  3  0  0  0  0  0  0
  186.0570  178.2820  142.9370 C   0  0  0  0  0  3  0  0  0  0  0  0
  190.0630  176.9720  143.7770 N   0  0  0  0  0  2  0  0  0  0  0  0
  190.8840  176.0450  139.1100 C   0  0  1  0  0  3  0  0  0  0  0  0
  191.5820  177.5910  140.9390 C   0  0  2  0  0  3  0  0  0  0  0  0
  189.9240  176.5290  138.0460 C   0  0  2  0  0  3  0  0  0  0  0  0
  193.0750  176.1100  137.7700 C   0  0  0  0  0  1  0  0  0  0  0  0
  189.2180  177.6140  140.0370 C   0  0  2  0  0  3  0  0  0  0  0  0
  1  6  1  0  0  0  0
  1 21  1  0  0  0  0
  4 22  1  0  0  0  0
  5 24  1  0  0  0  0
  5 17  1  0  0  0  0
  6 23  1  0  0  0  0
  7  8  2  0  0  0  0
  8  2  2  0  0  0  0
  9 14  1  0  0  0  0
  9 13  1  0  0  0  0
 10  8  1  6  0  0  0
 10 28  1  0  0  0  0
 12 25  1  0  0  0  0
 13 26  1  0  0  0  0
 14  8  1  0  0  0  0
 15 23  1  0  0  0  0
 15 11  2  0  0  0  0
 16  1  2  0  0  0  0
 17  3  2  0  0  0  0
 17 25  1  0  0  0  0
 18  9  2  0  0  0  0
 19 15  1  0  0  0  0
 20 16  1  0  0  0  0
 20  4  2  0  0  0  0
 22 21  2  0  0  0  0
 24 12  1  0  0  0  0
 25 19  1  0  0  0  0
 26 10  1  0  0  0  0
 26 24  1  0  0  0  0
 27  5  1  0  0  0  0
 28 12  1  0  0  0  0
 28 16  1  0  0  0  0
M  END
>  <MODEL>
2

>  <REMARK>
 VINA RESULT:      -8.9      3.544      6.580
  Name = 
  0 active torsions:
  status: ('A' for Active; 'I' for Inactive)
                            x       y       z     vdW  Elec       q    Type
                         _______ _______ _______ _____ _____    ______ ____

>  <TORSDO>
F 0

$$$$
=
 OpenBabel11122411513D

 28 32  0  0  1  0  0  0  0  0999 V2000
  190.4200  176.5560  139.4780 C   0  0  0  0  0  0  0  0  0  0  0  0
  192.2420  177.3830  143.7950 O   0  0  0  0  0  0  0  0  0  0  0  0
  185.5400  179.9660  141.1950 O   0  0  0  0  0  0  0  0  0  0  0  0
  192.9660  177.5810  140.0610 C   0  0  0  0  0  3  0  0  0  0  0  0
  186.2920  178.2270  142.5870 N   0  0  0  0  0  0  0  0  0  0  0  0
  189.0920  176.0710  138.9920 C   0  0  0  0  0  2  0  0  0  0  0  0
  190.9410  179.4790  143.7750 O   0  0  0  0  0  0  0  0  0  0  0  0
  190.8910  177.9970  144.0240 S   0  0  0  0  0  0  0  0  0  0  0  0
  189.1250  177.0560  145.9480 C   0  0  0  0  0  0  0  0  0  0  0  0
  189.6800  177.2260  142.9740 C   0  0  1  0  0  3  0  0  0  0  0  0
  187.4710  178.7890  137.1470 O   0  0  0  0  0  0  0  0  0  0  0  0
  188.0750  177.4430  141.2220 C   0  0  1  0  0  3  0  0  0  0  0  0
  188.1950  176.5840  144.8610 C   0  0  0  0  0  2  0  0  0  0  0  0
  190.3810  177.6870  145.6520 N   0  0  0  0  0  2  0  0  0  0  0  0
  187.6190  177.9270  138.0520 C   0  0  0  0  0  0  0  0  0  0  0  0
  190.5930  177.4050  140.6110 C   0  0  0  0  0  0  0  0  0  0  0  0
  186.3250  179.0010  141.4070 C   0  0  0  0  0  0  0  0  0  0  0  0
  188.8070  176.8560  147.1490 O   0  0  0  0  0  0  0  0  0  0  0  0
  186.6980  177.9540  139.2300 C   0  0  0  0  0  2  0  0  0  0  0  0
  191.8760  177.9170  140.8620 C   0  0  0  0  0  3  0  0  0  0  0  0
  191.5250  176.2260  138.6840 C   0  0  0  0  0  3  0  0  0  0  0  0
  192.7930  176.7270  138.9760 C   0  0  0  0  0  3  0  0  0  0  0  0
  188.6360  176.9320  137.9080 N   0  0  0  0  0  2  0  0  0  0  0  0
  187.3170  177.2040  142.5450 C   0  0  1  0  0  3  0  0  0  0  0  0
  187.3670  178.5630  140.4530 C   0  0  2  0  0  3  0  0  0  0  0  0
  188.3440  177.4570  143.6260 C   0  0  2  0  0  3  0  0  0  0  0  0
  185.2770  178.3340  143.6220 C   0  0  0  0  0  1  0  0  0  0  0  0
  189.5070  177.8300  141.5890 C   0  0  2  0  0  3  0  0  0  0  0  0
  1 16  1  0  0  0  0
  2  8  2  0  0  0  0
  3 17  2  0  0  0  0
  4 20  1  0  0  0  0
  5 27  1  0  0  0  0
  6  1  1  0  0  0  0
  7  8  2  0  0  0  0
  8 14  1  0  0  0  0
  9 18  2  0  0  0  0
 10 26  1  0  0  0  0
 10  8  1  1  0  0  0
 11 15  2  0  0  0  0
 12 28  1  0  0  0  0
 12 24  1  0  0  0  0
 13  9  1  0  0  0  0
 14  9  1  0  0  0  0
 15 19  1  0  0  0  0
 16 20  2  0  0  0  0
 16 28  1  0  0  0  0
 17  5  1  0  0  0  0
 19 25  1  0  0  0  0
 21 22  1  0  0  0  0
 21  1  2  0  0  0  0
 22  4  2  0  0  0  0
 23 15  1  0  0  0  0
 23  6  1  0  0  0  0
 24  5  1  0  0  0  0
 24 26  1  0  0  0  0
 25 12  1  0  0  0  0
 25 17  1  0  0  0  0
 26 13  1  0  0  0  0
 28 10  1  0  0  0  0
M  END
>  <MODEL>
3

>  <REMARK>
 VINA RESULT:      -7.3      2.732      6.179
  Name = 
  0 active torsions:
  status: ('A' for Active; 'I' for Inactive)
                            x       y       z     vdW  Elec       q    Type
                         _______ _______ _______ _____ _____    ______ ____

>  <TORSDO>
F 0

$$$$
=
 OpenBabel11122411513D

 28 32  0  0  1  0  0  0  0  0999 V2000
  186.9370  178.7940  141.6090 C   0  0  0  0  0  0  0  0  0  0  0  0
  185.1990  178.4230  146.0230 O   0  0  0  0  0  0  0  0  0  0  0  0
  191.2160  174.6240  143.2460 O   0  0  0  0  0  0  0  0  0  0  0  0
  184.2800  178.2530  142.3310 C   0  0  0  0  0  3  0  0  0  0  0  0
  190.8460  176.5050  144.6050 N   0  0  0  0  0  0  0  0  0  0  0  0
  188.3060  179.0230  141.0520 C   0  0  0  0  0  2  0  0  0  0  0  0
  186.1090  176.1300  146.0250 O   0  0  0  0  0  0  0  0  0  0  0  0
  186.4310  177.5860  146.2180 S   0  0  0  0  0  0  0  0  0  0  0  0
  188.4210  178.2530  148.0350 C   0  0  0  0  0  0  0  0  0  0  0  0
  187.7080  178.1010  145.0940 C   0  0  1  0  0  3  0  0  0  0  0  0
  189.3360  176.0100  139.2410 O   0  0  0  0  0  0  0  0  0  0  0  0
  189.1680  177.5550  143.2870 C   0  0  1  0  0  3  0  0  0  0  0  0
  189.3690  178.5220  146.8950 C   0  0  0  0  0  2  0  0  0  0  0  0
  187.0620  177.8460  147.8130 N   0  0  0  0  0  2  0  0  0  0  0  0
  189.3840  176.9100  140.1200 C   0  0  0  0  0  0  0  0  0  0  0  0
  186.6700  178.0210  142.7770 C   0  0  0  0  0  0  0  0  0  0  0  0
  190.6240  175.7170  143.4550 C   0  0  0  0  0  0  0  0  0  0  0  0
  188.8240  178.4260  149.2140 O   0  0  0  0  0  0  0  0  0  0  0  0
  190.3400  176.7530  141.2600 C   0  0  0  0  0  2  0  0  0  0  0  0
  185.3290  177.7510  143.0980 C   0  0  0  0  0  3  0  0  0  0  0  0
  185.8710  179.2920  140.8500 C   0  0  0  0  0  3  0  0  0  0  0  0
  184.5490  179.0320  141.2110 C   0  0  0  0  0  3  0  0  0  0  0  0
  188.5520  178.0650  139.9820 N   0  0  0  0  0  2  0  0  0  0  0  0
  190.0160  177.6920  144.5680 C   0  0  1  0  0  3  0  0  0  0  0  0
  189.6310  176.3060  142.5300 C   0  0  2  0  0  3  0  0  0  0  0  0
  189.0110  177.6560  145.6990 C   0  0  2  0  0  3  0  0  0  0  0  0
  191.8740  176.2490  145.6010 C   0  0  0  0  0  1  0  0  0  0  0  0
  187.7090  177.4380  143.7250 C   0  0  2  0  0  3  0  0  0  0  0  0
  1 16  1  0  0  0  0
  2  8  2  0  0  0  0
  3 17  2  0  0  0  0
  4 20  1  0  0  0  0
  5 27  1  0  0  0  0
  6  1  1  0  0  0  0
  7  8  2  0  0  0  0
  8 14  1  0  0  0  0
  9 18  2  0  0  0  0
 10 26  1  0  0  0  0
 10  8  1  1  0  0  0
 11 15  2  0  0  0  0
 12 28  1  0  0  0  0
 12 24  1  0  0  0  0
 13  9  1  0  0  0  0
 14  9  1  0  0  0  0
 15 19  1  0  0  0  0
 16 20  2  0  0  0  0
 16 28  1  0  0  0  0
 17  5  1  0  0  0  0
 19 25  1  0  0  0  0
 21 22  1  0  0  0  0
 21  1  2  0  0  0  0
 22  4  2  0  0  0  0
 23 15  1  0  0  0  0
 23  6  1  0  0  0  0
 24  5  1  0  0  0  0
 24 26  1  0  0  0  0
 25 12  1  0  0  0  0
 25 17  1  0  0  0  0
 26 13  1  0  0  0  0
 28 10  1  0  0  0  0
M  END
>  <MODEL>
4

>  <REMARK>
 VINA RESULT:      -7.1      2.826      6.427
  Name = 
  0 active torsions:
  status: ('A' for Active; 'I' for Inactive)
                            x       y       z     vdW  Elec       q    Type
                         _______ _______ _______ _____ _____    ______ ____

>  <TORSDO>
F 0

$$$$
=
 OpenBabel11122411513D

 28 32  0  0  1  0  0  0  0  0999 V2000
  186.1830  177.5340  145.6580 C   0  0  0  0  0  0  0  0  0  0  0  0
  185.4260  178.7370  141.1180 O   0  0  0  0  0  0  0  0  0  0  0  0
  192.1610  178.8600  144.7180 O   0  0  0  0  0  0  0  0  0  0  0  0
  184.2970  179.3760  144.6980 C   0  0  0  0  0  3  0  0  0  0  0  0
  191.0360  177.4400  143.2210 N   0  0  0  0  0  0  0  0  0  0  0  0
  187.1590  176.6280  146.3390 C   0  0  0  0  0  2  0  0  0  0  0  0
  187.3840  180.2210  141.3440 O   0  0  0  0  0  0  0  0  0  0  0  0
  186.9260  178.8100  141.1000 S   0  0  0  0  0  0  0  0  0  0  0  0
  188.4840  177.1970  139.4630 C   0  0  0  0  0  0  0  0  0  0  0  0
  187.6090  177.7090  142.3180 C   0  0  1  0  0  3  0  0  0  0  0  0
  189.3750  178.6710  148.4200 O   0  0  0  0  0  0  0  0  0  0  0  0
  188.9140  177.4230  144.2950 C   0  0  1  0  0  3  0  0  0  0  0  0
  189.0120  176.4780  140.6770 C   0  0  0  0  0  2  0  0  0  0  0  0
  187.5160  178.2530  139.5670 N   0  0  0  0  0  2  0  0  0  0  0  0
  189.0560  177.8750  147.5000 C   0  0  0  0  0  0  0  0  0  0  0  0
  186.4950  178.3290  144.5160 C   0  0  0  0  0  0  0  0  0  0  0  0
  191.1190  178.2340  144.3860 C   0  0  0  0  0  0  0  0  0  0  0  0
  188.8760  176.8340  138.3240 O   0  0  0  0  0  0  0  0  0  0  0  0
  190.0820  177.5070  146.4760 C   0  0  0  0  0  2  0  0  0  0  0  0
  185.5370  179.2550  144.0740 C   0  0  0  0  0  3  0  0  0  0  0  0
  184.9320  177.6660  146.2730 C   0  0  0  0  0  3  0  0  0  0  0  0
  183.9890  178.5750  145.7930 C   0  0  0  0  0  3  0  0  0  0  0  0
  187.7360  177.3220  147.4840 N   0  0  0  0  0  2  0  0  0  0  0  0
  189.7140  176.8600  143.1030 C   0  0  1  0  0  3  0  0  0  0  0  0
  189.8630  178.2510  145.1680 C   0  0  2  0  0  3  0  0  0  0  0  0
  189.0160  177.4090  141.8790 C   0  0  2  0  0  3  0  0  0  0  0  0
  192.1570  177.1200  142.3530 C   0  0  0  0  0  1  0  0  0  0  0  0
  187.7900  178.2810  143.7160 C   0  0  2  0  0  3  0  0  0  0  0  0
  1 21  1  0  0  0  0
  1  6  1  0  0  0  0
  4 22  1  0  0  0  0
  5 17  1  0  0  0  0
  6 23  1  0  0  0  0
  8  2  2  0  0  0  0
  8  7  2  0  0  0  0
  9 14  1  0  0  0  0
  9 13  1  0  0  0  0
 10  8  1  6  0  0  0
 10 28  1  0  0  0  0
 12 25  1  0  0  0  0
 13 26  1  0  0  0  0
 14  8  1  0  0  0  0
 15 11  2  0  0  0  0
 16  1  2  0  0  0  0
 17  3  2  0  0  0  0
 17 25  1  0  0  0  0
 18  9  2  0  0  0  0
 19 15  1  0  0  0  0
 20 16  1  0  0  0  0
 20  4  2  0  0  0  0
 22 21  2  0  0  0  0
 23 15  1  0  0  0  0
 24  5  1  0  0  0  0
 24 12  1  0  0  0  0
 25 19  1  0  0  0  0
 26 10  1  0  0  0  0
 26 24  1  0  0  0  0
 27  5  1  0  0  0  0
 28 12  1  0  0  0  0
 28 16  1  0  0  0  0
M  END
>  <MODEL>
5

>  <REMARK>
 VINA RESULT:      -6.3      2.684      5.218
  Name = 
  0 active torsions:
  status: ('A' for Active; 'I' for Inactive)
                            x       y       z     vdW  Elec       q    Type
                         _______ _______ _______ _____ _____    ______ ____

>  <TORSDO>
F 0

$$$$
=
 OpenBabel11122411513D

 28 32  0  0  1  0  0  0  0  0999 V2000
  183.7600  177.9750  140.8600 C   0  0  0  0  0  0  0  0  0  0  0  0
  188.3450  177.6200  139.6400 O   0  0  0  0  0  0  0  0  0  0  0  0
  185.6800  180.0140  146.3860 O   0  0  0  0  0  0  0  0  0  0  0  0
  184.9870  179.0790  138.5900 C   0  0  0  0  0  3  0  0  0  0  0  0
  186.5870  178.0360  145.4970 N   0  0  0  0  0  0  0  0  0  0  0  0
  182.9630  177.5030  142.0330 C   0  0  0  0  0  2  0  0  0  0  0  0
  188.7600  179.4300  141.2630 O   0  0  0  0  0  0  0  0  0  0  0  0
  188.5470  177.9520  141.0900 S   0  0  0  0  0  0  0  0  0  0  0  0
  189.8240  176.2340  142.8570 C   0  0  0  0  0  0  0  0  0  0  0  0
  187.1500  177.4050  142.0450 C   0  0  1  0  0  3  0  0  0  0  0  0
  181.7940  180.4340  143.8920 O   0  0  0  0  0  0  0  0  0  0  0  0
  185.3270  177.9570  143.4810 C   0  0  1  0  0  3  0  0  0  0  0  0
  188.5220  176.0150  143.5830 C   0  0  0  0  0  2  0  0  0  0  0  0
  189.9160  177.0810  141.7010 N   0  0  0  0  0  2  0  0  0  0  0  0
  182.4130  179.3570  143.6940 C   0  0  0  0  0  0  0  0  0  0  0  0
  185.1070  178.4370  140.9440 C   0  0  0  0  0  0  0  0  0  0  0  0
  185.7080  179.1410  145.4770 C   0  0  0  0  0  0  0  0  0  0  0  0
  190.8510  175.6260  143.2550 O   0  0  0  0  0  0  0  0  0  0  0  0
  183.3980  178.8920  144.7190 C   0  0  0  0  0  2  0  0  0  0  0  0
  185.6840  179.0030  139.7960 C   0  0  0  0  0  3  0  0  0  0  0  0
  183.0750  178.0570  139.6410 C   0  0  0  0  0  3  0  0  0  0  0  0
  183.6850  178.5970  138.5100 C   0  0  0  0  0  3  0  0  0  0  0  0
  182.1290  178.5970  142.5160 N   0  0  0  0  0  2  0  0  0  0  0  0
  186.3920  177.2190  144.3170 C   0  0  1  0  0  3  0  0  0  0  0  0
  184.8300  179.1630  144.2860 C   0  0  2  0  0  3  0  0  0  0  0  0
  187.6380  177.2450  143.4590 C   0  0  2  0  0  3  0  0  0  0  0  0
  187.4470  177.6790  146.6140 C   0  0  0  0  0  1  0  0  0  0  0  0
  185.9970  178.3880  142.1780 C   0  0  2  0  0  3  0  0  0  0  0  0
  1 16  1  0  0  0  0
  1  6  1  0  0  0  0
  2  8  2  0  0  0  0
  4 20  1  0  0  0  0
  5 27  1  0  0  0  0
  6 23  1  0  0  0  0
  8  7  2  0  0  0  0
  8 14  1  0  0  0  0
  9 18  2  0  0  0  0
  9 13  1  0  0  0  0
 10  8  1  6  0  0  0
 10 28  1  0  0  0  0
 10 26  1  0  0  0  0
 12 25  1  0  0  0  0
 12 24  1  0  0  0  0
 14  9  1  0  0  0  0
 15 11  2  0  0  0  0
 15 19  1  0  0  0  0
 16 28  1  0  0  0  0
 17  5  1  0  0  0  0
 17  3  2  0  0  0  0
 20 16  2  0  0  0  0
 21  1  2  0  0  0  0
 22  4  2  0  0  0  0
 22 21  1  0  0  0  0
 23 15  1  0  0  0  0
 24  5  1  0  0  0  0
 25 19  1  0  0  0  0
 25 17  1  0  0  0  0
 26 13  1  0  0  0  0
 26 24  1  0  0  0  0
 28 12  1  0  0  0  0
M  END
>  <MODEL>
6

>  <REMARK>
 VINA RESULT:      -6.2      1.976      4.790
  Name = 
  0 active torsions:
  status: ('A' for Active; 'I' for Inactive)
                            x       y       z     vdW  Elec       q    Type
                         _______ _______ _______ _____ _____    ______ ____

>  <TORSDO>
F 0

$$$$
=
 OpenBabel11122411513D

 28 32  0  0  1  0  0  0  0  0999 V2000
  186.4270  177.4770  142.8830 C   0  0  0  0  0  0  0  0  0  0  0  0
  187.0730  178.3750  138.2560 O   0  0  0  0  0  0  0  0  0  0  0  0
  192.4460  178.7110  143.6740 O   0  0  0  0  0  0  0  0  0  0  0  0
  184.9530  179.2590  141.2930 C   0  0  0  0  0  3  0  0  0  0  0  0
  191.7790  177.1990  142.0040 N   0  0  0  0  0  0  0  0  0  0  0  0
  187.1360  176.6160  143.8780 C   0  0  0  0  0  2  0  0  0  0  0  0
  188.9120  179.8620  138.9570 O   0  0  0  0  0  0  0  0  0  0  0  0
  188.5130  178.4400  138.6780 S   0  0  0  0  0  0  0  0  0  0  0  0
  190.4450  176.7140  137.6810 C   0  0  0  0  0  0  0  0  0  0  0  0
  188.7790  177.4210  140.1110 C   0  0  1  0  0  3  0  0  0  0  0  0
  188.6880  178.7840  146.3890 O   0  0  0  0  0  0  0  0  0  0  0  0
  189.4350  177.2630  142.4000 C   0  0  1  0  0  3  0  0  0  0  0  0
  190.5740  176.0770  139.0400 C   0  0  0  0  0  2  0  0  0  0  0  0
  189.5160  177.7790  137.4270 N   0  0  0  0  0  2  0  0  0  0  0  0
  188.6350  177.9290  145.4680 C   0  0  0  0  0  0  0  0  0  0  0  0
  187.0820  178.1920  141.8370 C   0  0  0  0  0  0  0  0  0  0  0  0
  191.5340  178.0690  143.0880 C   0  0  0  0  0  0  0  0  0  0  0  0
  191.1470  176.2740  136.7350 O   0  0  0  0  0  0  0  0  0  0  0  0
  189.9080  177.4880  144.8190 C   0  0  0  0  0  2  0  0  0  0  0  0
  186.3190  179.0910  141.0730 C   0  0  0  0  0  3  0  0  0  0  0  0
  185.0540  177.6570  143.0900 C   0  0  0  0  0  3  0  0  0  0  0  0
  184.3170  178.5350  142.2960 C   0  0  0  0  0  3  0  0  0  0  0  0
  187.3660  177.3820  145.0960 N   0  0  0  0  0  2  0  0  0  0  0  0
  190.5370  176.6170  141.5360 C   0  0  1  0  0  3  0  0  0  0  0  0
  190.1030  178.1440  143.4610 C   0  0  2  0  0  3  0  0  0  0  0  0
  190.2450  177.0860  140.1280 C   0  0  2  0  0  3  0  0  0  0  0  0
  193.0990  176.8160  141.5290 C   0  0  0  0  0  1  0  0  0  0  0  0
  188.5530  178.0850  141.4610 C   0  0  2  0  0  3  0  0  0  0  0  0
  1 21  1  0  0  0  0
  1  6  1  0  0  0  0
  2  8  2  0  0  0  0
  4 22  1  0  0  0  0
  5 17  1  0  0  0  0
  6 23  1  0  0  0  0
  8  7  2  0  0  0  0
  9 13  1  0  0  0  0
 10  8  1  6  0  0  0
 10 26  1  0  0  0  0
 10 28  1  0  0  0  0
 12 25  1  0  0  0  0
 13 26  1  0  0  0  0
 14  9  1  0  0  0  0
 14  8  1  0  0  0  0
 15 11  2  0  0  0  0
 16  1  2  0  0  0  0
 17 25  1  0  0  0  0
 17  3  2  0  0  0  0
 18  9  2  0  0  0  0
 19 15  1  0  0  0  0
 20  4  2  0  0  0  0
 20 16  1  0  0  0  0
 22 21  2  0  0  0  0
 23 15  1  0  0  0  0
 24  5  1  0  0  0  0
 24 12  1  0  0  0  0
 25 19  1  0  0  0  0
 26 24  1  0  0  0  0
 27  5  1  0  0  0  0
 28 16  1  0  0  0  0
 28 12  1  0  0  0  0
M  END
>  <MODEL>
7

>  <REMARK>
 VINA RESULT:      -6.1      3.070      5.556
  Name = 
  0 active torsions:
  status: ('A' for Active; 'I' for Inactive)
                            x       y       z     vdW  Elec       q    Type
                         _______ _______ _______ _____ _____    ______ ____

>  <TORSDO>
F 0

$$$$
=
 OpenBabel11122411513D

 28 32  0  0  1  0  0  0  0  0999 V2000
  192.1790  176.5710  138.7620 C   0  0  0  0  0  0  0  0  0  0  0  0
  189.0490  175.0410  135.5210 O   0  0  0  0  0  0  0  0  0  0  0  0
  187.3940  177.2910  142.6300 O   0  0  0  0  0  0  0  0  0  0  0  0
  192.3000  174.1740  137.3070 C   0  0  0  0  0  3  0  0  0  0  0  0
  187.2880  178.2050  140.4680 N   0  0  0  0  0  0  0  0  0  0  0  0
  192.2440  177.7710  139.6510 C   0  0  0  0  0  2  0  0  0  0  0  0
  187.6660  174.3050  137.4270 O   0  0  0  0  0  0  0  0  0  0  0  0
  188.0630  175.4740  136.5680 S   0  0  0  0  0  0  0  0  0  0  0  0
  186.1780  177.4630  136.1190 C   0  0  0  0  0  0  0  0  0  0  0  0
  188.7530  176.7770  137.5610 C   0  0  1  0  0  3  0  0  0  0  0  0
  191.9600  176.6540  143.1270 O   0  0  0  0  0  0  0  0  0  0  0  0
  189.4450  177.5450  139.7120 C   0  0  1  0  0  3  0  0  0  0  0  0
  186.8880  178.3540  137.1050 C   0  0  0  0  0  2  0  0  0  0  0  0
  186.6600  176.1470  135.8010 N   0  0  0  0  0  2  0  0  0  0  0  0
  191.6420  177.2680  142.0760 C   0  0  0  0  0  0  0  0  0  0  0  0
  190.9710  175.8900  138.4270 C   0  0  0  0  0  0  0  0  0  0  0  0
  187.9400  177.5210  141.5180 C   0  0  0  0  0  0  0  0  0  0  0  0
  185.1560  177.8990  135.5310 O   0  0  0  0  0  0  0  0  0  0  0  0
  190.3010  177.9250  142.0030 C   0  0  0  0  0  2  0  0  0  0  0  0
  191.0680  174.6830  137.7160 C   0  0  0  0  0  3  0  0  0  0  0  0
  193.4080  176.0460  138.3420 C   0  0  0  0  0  3  0  0  0  0  0  0
  193.4710  174.8610  137.6110 C   0  0  0  0  0  3  0  0  0  0  0  0
  192.5850  177.3470  141.0030 N   0  0  0  0  0  2  0  0  0  0  0  0
  188.1630  178.3060  139.3170 C   0  0  1  0  0  3  0  0  0  0  0  0
  189.3190  177.1100  141.1760 C   0  0  2  0  0  3  0  0  0  0  0  0
  187.5890  177.5160  138.1610 C   0  0  2  0  0  3  0  0  0  0  0  0
  185.9930  178.8540  140.5780 C   0  0  0  0  0  1  0  0  0  0  0  0
  189.5600  176.3430  138.7760 C   0  0  2  0  0  3  0  0  0  0  0  0
  1  6  1  0  0  0  0
  2  8  2  0  0  0  0
  4 22  2  0  0  0  0
  4 20  1  0  0  0  0
  5 27  1  0  0  0  0
  5 17  1  0  0  0  0
  6 23  1  0  0  0  0
  8  7  2  0  0  0  0
  9 13  1  0  0  0  0
 10  8  1  1  0  0  0
 10 26  1  0  0  0  0
 10 28  1  0  0  0  0
 12 25  1  0  0  0  0
 13 26  1  0  0  0  0
 14  9  1  0  0  0  0
 14  8  1  0  0  0  0
 15 11  2  0  0  0  0
 16  1  1  0  0  0  0
 16 28  1  0  0  0  0
 17  3  2  0  0  0  0
 18  9  2  0  0  0  0
 19 15  1  0  0  0  0
 20 16  2  0  0  0  0
 21  1  2  0  0  0  0
 22 21  1  0  0  0  0
 23 15  1  0  0  0  0
 24 12  1  0  0  0  0
 24  5  1  0  0  0  0
 25 17  1  0  0  0  0
 25 19  1  0  0  0  0
 26 24  1  0  0  0  0
 28 12  1  0  0  0  0
M  END
>  <MODEL>
8

>  <REMARK>
 VINA RESULT:      -6.1      3.891      7.522
  Name = 
  0 active torsions:
  status: ('A' for Active; 'I' for Inactive)
                            x       y       z     vdW  Elec       q    Type
                         _______ _______ _______ _____ _____    ______ ____

>  <TORSDO>
F 0

$$$$
