=
 OpenBabel11122410363D

 32 37  0  0  1  0  0  0  0  0999 V2000
  189.2660  178.0100  140.5960 C   0  0  1  0  0  3  0  0  0  0  0  0
  185.9680  177.8200  136.9200 C   0  0  0  0  0  3  0  0  0  0  0  0
  186.9190  177.2560  136.0740 C   0  0  0  0  0  3  0  0  0  0  0  0
  191.6330  177.3980  139.9810 C   0  0  0  0  0  0  0  0  0  0  0  0
  192.5650  176.9580  138.9050 C   0  0  1  0  0  3  0  0  0  0  0  0
  188.1500  177.5850  142.7510 N   0  0  0  0  0  0  0  0  0  0  0  0
  186.8820  178.7470  140.9610 C   0  0  0  0  0  2  0  0  0  0  0  0
  193.0580  175.4140  137.4170 C   0  0  1  0  0  3  0  0  0  0  0  0
  186.3130  178.1520  138.2300 C   0  0  0  0  0  3  0  0  0  0  0  0
  187.9130  178.2530  139.9950 C   0  0  0  0  0  0  0  0  0  0  0  0
  187.6140  177.9310  138.7190 C   0  0  0  0  0  0  0  0  0  0  0  0
  189.8400  177.1180  138.2810 C   0  0  0  0  0  0  0  0  0  0  0  0
  194.2420  175.6080  138.2630 N   0  0  0  0  0  2  0  0  0  0  0  0
  186.8070  177.7920  142.1600 C   0  0  2  0  0  3  0  0  0  0  0  0
  193.8410  176.4340  139.3360 N   0  0  0  0  0  2  0  0  0  0  0  0
  188.2140  177.0250  136.5370 C   0  0  0  0  0  3  0  0  0  0  0  0
  188.5830  177.3550  137.8540 C   0  0  0  0  0  0  0  0  0  0  0  0
  190.8920  176.5190  137.3530 C   0  0  0  0  0  2  0  0  0  0  0  0
  189.0840  177.0360  141.7570 C   0  0  0  0  0  2  0  0  0  0  0  0
  192.0540  177.7490  141.1160 O   0  0  0  0  0  0  0  0  0  0  0  0
  192.8820  173.9360  137.1240 C   0  0  0  0  0  1  0  0  0  0  0  0
  190.2370  177.4950  139.6270 N   0  0  0  0  0  0  0  0  0  0  0  0
  191.9290  175.9010  138.1730 N   0  0  2  0  0  0  0  0  0  0  0  0
  185.2980  179.5890  142.6670 O   0  0  0  0  0  0  0  0  0  0  0  0
  185.8490  178.4020  143.1820 C   0  0  1  0  0  3  0  0  0  0  0  0
  184.4770  178.4500  142.6280 C   0  0  1  0  0  3  0  0  0  0  0  0
  183.5150  178.5160  143.7150 N   0  0  0  0  0  2  0  0  0  0  0  0
  182.2880  179.0740  143.1720 C   0  0  0  0  0  3  0  0  0  0  0  0
  181.1070  178.5730  143.9760 C   0  0  0  0  0  1  0  0  0  0  0  0
  182.1260  178.6430  141.7270 C   0  0  0  0  0  1  0  0  0  0  0  0
  188.7360  177.2090  145.1590 C   0  0  0  0  0  1  0  0  0  0  0  0
  188.0980  176.6510  143.8860 C   0  0  0  0  0  2  0  0  0  0  0  0
  1 19  1  1  0  0  0
  2  9  2  0  0  0  0
  3 16  2  0  0  0  0
  3  2  1  0  0  0  0
  4 20  2  0  0  0  0
  5 15  1  1  0  0  0
  5  4  1  0  0  0  0
  6 32  1  0  0  0  0
  8 21  1  1  0  0  0
  8 23  1  0  0  0  0
  8 13  1  0  0  0  0
  9 11  1  0  0  0  0
 10  1  1  0  0  0  0
 10  7  1  0  0  0  0
 11 10  2  0  0  0  0
 12 22  1  0  0  0  0
 13 15  1  0  0  0  0
 14  7  1  6  0  0  0
 14  6  1  0  0  0  0
 14 25  1  0  0  0  0
 16 17  1  0  0  0  0
 17 12  2  0  0  0  0
 17 11  1  0  0  0  0
 18 12  1  0  0  0  0
 19  6  1  0  0  0  0
 22  4  1  0  0  0  0
 22  1  1  0  0  0  0
 23 18  1  6  0  0  0
 23  5  1  0  0  0  0
 25 24  1  6  0  0  0
 26 24  1  0  0  0  0
 26 25  1  0  0  0  0
 26 27  1  1  0  0  0
 28 27  1  0  0  0  0
 28 29  1  0  0  0  0
 30 28  1  0  0  0  0
 32 31  1  0  0  0  0
M  END
>  <MODEL>
1

>  <REMARK>
 VINA RESULT:      -8.3      0.000      0.000
  Name = 
  4 active torsions:
  status: ('A' for Active; 'I' for Inactive)
    1  A    between atoms: N_7  and  C_19
    2  A    between atoms: C_10  and  C_17
    3  A    between atoms: C_20  and  N_29
    4  A    between atoms: N_29  and  C_30
                            x       y       z     vdW  Elec       q    Type
                         _______ _______ _______ _____ _____    ______ ____

>  <TORSDO>
F 4

$$$$
=
 OpenBabel11122410363D

 32 37  0  0  1  0  0  0  0  0999 V2000
  190.7140  177.2080  139.1230 C   0  0  1  0  0  3  0  0  0  0  0  0
  186.8170  175.6410  136.5170 C   0  0  0  0  0  3  0  0  0  0  0  0
  187.6380  174.8140  135.7550 C   0  0  0  0  0  3  0  0  0  0  0  0
  192.9680  176.4370  138.2990 C   0  0  0  0  0  0  0  0  0  0  0  0
  193.7170  175.6400  137.2870 C   0  0  1  0  0  3  0  0  0  0  0  0
  190.0590  177.5970  141.4660 N   0  0  0  0  0  0  0  0  0  0  0  0
  188.3850  178.0030  139.6770 C   0  0  0  0  0  2  0  0  0  0  0  0
  194.0540  173.6620  136.3860 C   0  0  1  0  0  3  0  0  0  0  0  0
  187.3710  176.4360  137.5210 C   0  0  0  0  0  3  0  0  0  0  0  0
  189.2570  177.1970  138.7650 C   0  0  0  0  0  0  0  0  0  0  0  0
  188.7540  176.4250  137.7800 C   0  0  0  0  0  0  0  0  0  0  0  0
  190.9200  175.5300  137.2180 C   0  0  0  0  0  0  0  0  0  0  0  0
  195.3540  174.1660  136.8440 N   0  0  0  0  0  2  0  0  0  0  0  0
  188.6160  177.5580  141.1280 C   0  0  2  0  0  3  0  0  0  0  0  0
  195.0910  175.3250  137.6070 N   0  0  0  0  0  2  0  0  0  0  0  0
  189.0110  174.7840  135.9950 C   0  0  0  0  0  3  0  0  0  0  0  0
  189.5900  175.5800  137.0010 C   0  0  0  0  0  0  0  0  0  0  0  0
  191.8280  174.6420  136.3730 C   0  0  0  0  0  2  0  0  0  0  0  0
  190.8340  176.7300  140.5670 C   0  0  0  0  0  2  0  0  0  0  0  0
  193.5620  177.1860  139.1200 O   0  0  0  0  0  0  0  0  0  0  0  0
  193.9520  172.1780  136.6870 C   0  0  0  0  0  1  0  0  0  0  0  0
  191.5270  176.3820  138.2270 N   0  0  0  0  0  0  0  0  0  0  0  0
  193.0480  174.3810  137.1300 N   0  0  2  0  0  0  0  0  0  0  0  0
  186.4540  178.4370  141.6900 O   0  0  0  0  0  0  0  0  0  0  0  0
  187.8170  178.4910  142.0350 C   0  0  1  0  0  3  0  0  0  0  0  0
  186.8400  177.7140  142.8310 C   0  0  1  0  0  3  0  0  0  0  0  0
  186.4740  178.4650  144.0200 N   0  0  0  0  0  2  0  0  0  0  0  0
  186.5510  177.5520  145.1480 C   0  0  0  0  0  3  0  0  0  0  0  0
  185.6870  178.0720  146.2770 C   0  0  0  0  0  1  0  0  0  0  0  0
  187.9870  177.4490  145.6260 C   0  0  0  0  0  1  0  0  0  0  0  0
  190.2010  175.6290  143.0110 C   0  0  0  0  0  1  0  0  0  0  0  0
  190.2980  177.1470  142.8450 C   0  0  0  0  0  2  0  0  0  0  0  0
  1 19  1  1  0  0  0
  2  9  2  0  0  0  0
  3 16  2  0  0  0  0
  3  2  1  0  0  0  0
  4 20  2  0  0  0  0
  5 15  1  1  0  0  0
  5  4  1  0  0  0  0
  6 32  1  0  0  0  0
  8 21  1  1  0  0  0
  8 13  1  0  0  0  0
  8 23  1  0  0  0  0
  9 11  1  0  0  0  0
 10  1  1  0  0  0  0
 10  7  1  0  0  0  0
 11 10  2  0  0  0  0
 12 22  1  0  0  0  0
 13 15  1  0  0  0  0
 14  7  1  6  0  0  0
 14  6  1  0  0  0  0
 14 25  1  0  0  0  0
 16 17  1  0  0  0  0
 17 12  2  0  0  0  0
 17 11  1  0  0  0  0
 18 12  1  0  0  0  0
 19  6  1  0  0  0  0
 22  4  1  0  0  0  0
 22  1  1  0  0  0  0
 23 18  1  6  0  0  0
 23  5  1  0  0  0  0
 24 26  1  0  0  0  0
 25 24  1  6  0  0  0
 25 26  1  0  0  0  0
 26 27  1  1  0  0  0
 27 28  1  0  0  0  0
 28 30  1  0  0  0  0
 28 29  1  0  0  0  0
 32 31  1  0  0  0  0
M  END
>  <MODEL>
2

>  <REMARK>
 VINA RESULT:      -8.3      2.147      2.847
  Name = 
  4 active torsions:
  status: ('A' for Active; 'I' for Inactive)
    1  A    between atoms: N_7  and  C_19
    2  A    between atoms: C_10  and  C_17
    3  A    between atoms: C_20  and  N_29
    4  A    between atoms: N_29  and  C_30
                            x       y       z     vdW  Elec       q    Type
                         _______ _______ _______ _____ _____    ______ ____

>  <TORSDO>
F 4

$$$$
=
 OpenBabel11122410363D

 32 37  0  0  1  0  0  0  0  0999 V2000
  184.5110  178.9260  141.6640 C   0  0  1  0  0  3  0  0  0  0  0  0
  179.8590  178.5190  143.2820 C   0  0  0  0  0  3  0  0  0  0  0  0
  179.4630  177.9850  142.0590 C   0  0  0  0  0  3  0  0  0  0  0  0
  184.8740  178.4120  139.2220 C   0  0  0  0  0  0  0  0  0  0  0  0
  184.2540  177.9970  137.9330 C   0  0  1  0  0  3  0  0  0  0  0  0
  186.0850  178.4880  143.5070 N   0  0  0  0  0  0  0  0  0  0  0  0
  183.9070  179.5590  144.0290 C   0  0  0  0  0  2  0  0  0  0  0  0
  183.1240  176.4510  136.8500 C   0  0  1  0  0  3  0  0  0  0  0  0
  181.1890  178.8900  143.4800 C   0  0  0  0  0  3  0  0  0  0  0  0
  183.4290  179.0950  142.6880 C   0  0  0  0  0  0  0  0  0  0  0  0
  182.1480  178.7380  142.4610 C   0  0  0  0  0  0  0  0  0  0  0  0
  182.6260  178.0200  140.2110 C   0  0  0  0  0  0  0  0  0  0  0  0
  184.3520  176.7140  136.0900 N   0  0  0  0  0  2  0  0  0  0  0  0
  185.0170  178.6230  144.5260 C   0  0  2  0  0  3  0  0  0  0  0  0
  185.1590  177.5390  136.9030 N   0  0  0  0  0  2  0  0  0  0  0  0
  180.3950  177.8220  141.0350 C   0  0  0  0  0  3  0  0  0  0  0  0
  181.7410  178.1910  141.2140 C   0  0  0  0  0  0  0  0  0  0  0  0
  182.1940  177.4540  138.8610 C   0  0  0  0  0  2  0  0  0  0  0  0
  185.5460  177.9650  142.2440 C   0  0  0  0  0  2  0  0  0  0  0  0
  186.0700  178.8030  139.2830 O   0  0  0  0  0  0  0  0  0  0  0  0
  182.8350  174.9610  136.8470 C   0  0  0  0  0  1  0  0  0  0  0  0
  184.0080  178.4390  140.3760 N   0  0  0  0  0  0  0  0  0  0  0  0
  183.3700  176.8990  138.1990 N   0  0  2  0  0  0  0  0  0  0  0  0
  184.8050  178.7520  146.9140 O   0  0  0  0  0  0  0  0  0  0  0  0
  185.5720  179.2060  145.8250 C   0  0  1  0  0  3  0  0  0  0  0  0
  186.0420  178.1170  146.7110 C   0  0  1  0  0  3  0  0  0  0  0  0
  187.0110  178.6440  147.6570 N   0  0  0  0  0  2  0  0  0  0  0  0
  187.9900  177.5970  147.8990 C   0  0  0  0  0  3  0  0  0  0  0  0
  189.0520  178.1100  148.8490 C   0  0  0  0  0  1  0  0  0  0  0  0
  188.6440  177.1960  146.5910 C   0  0  0  0  0  1  0  0  0  0  0  0
  188.0400  177.0770  142.8230 C   0  0  0  0  0  1  0  0  0  0  0  0
  187.1440  177.5730  143.9590 C   0  0  0  0  0  2  0  0  0  0  0  0
  1 19  1  1  0  0  0
  1 10  1  0  0  0  0
  2  9  2  0  0  0  0
  3  2  1  0  0  0  0
  4 20  2  0  0  0  0
  4 22  1  0  0  0  0
  5 15  1  6  0  0  0
  5 23  1  0  0  0  0
  5  4  1  0  0  0  0
  6 32  1  0  0  0  0
  6 14  1  0  0  0  0
  8 21  1  1  0  0  0
  8 23  1  0  0  0  0
 10  7  1  0  0  0  0
 11 10  2  0  0  0  0
 11  9  1  0  0  0  0
 12 22  1  0  0  0  0
 12 17  2  0  0  0  0
 13  8  1  0  0  0  0
 13 15  1  0  0  0  0
 14  7  1  6  0  0  0
 14 25  1  0  0  0  0
 16 17  1  0  0  0  0
 16  3  2  0  0  0  0
 17 11  1  0  0  0  0
 18 12  1  0  0  0  0
 19  6  1  0  0  0  0
 22  1  1  0  0  0  0
 23 18  1  6  0  0  0
 25 26  1  0  0  0  0
 25 24  1  1  0  0  0
 26 24  1  0  0  0  0
 26 27  1  1  0  0  0
 27 28  1  0  0  0  0
 28 29  1  0  0  0  0
 30 28  1  0  0  0  0
 31 32  1  0  0  0  0
M  END
>  <MODEL>
3

>  <REMARK>
 VINA RESULT:      -8.3      4.521      7.073
  Name = 
  4 active torsions:
  status: ('A' for Active; 'I' for Inactive)
    1  A    between atoms: N_7  and  C_19
    2  A    between atoms: C_10  and  C_17
    3  A    between atoms: C_20  and  N_29
    4  A    between atoms: N_29  and  C_30
                            x       y       z     vdW  Elec       q    Type
                         _______ _______ _______ _____ _____    ______ ____

>  <TORSDO>
F 4

$$$$
=
 OpenBabel11122410363D

 32 37  0  0  1  0  0  0  0  0999 V2000
  190.6430  177.4740  139.3690 C   0  0  1  0  0  3  0  0  0  0  0  0
  186.7670  177.7590  136.3150 C   0  0  0  0  0  3  0  0  0  0  0  0
  187.4870  177.1120  135.3140 C   0  0  0  0  0  3  0  0  0  0  0  0
  192.7820  176.6110  138.3520 C   0  0  0  0  0  0  0  0  0  0  0  0
  193.4590  176.0950  137.1290 C   0  0  1  0  0  3  0  0  0  0  0  0
  189.8690  177.1250  141.6810 N   0  0  0  0  0  0  0  0  0  0  0  0
  188.4590  178.4700  140.1430 C   0  0  0  0  0  2  0  0  0  0  0  0
  193.5060  174.5430  135.5690 C   0  0  1  0  0  3  0  0  0  0  0  0
  187.3680  178.0150  137.5480 C   0  0  0  0  0  3  0  0  0  0  0  0
  189.2450  177.8860  139.0110 C   0  0  0  0  0  0  0  0  0  0  0  0
  188.6970  177.6340  137.8040 C   0  0  0  0  0  0  0  0  0  0  0  0
  190.7040  176.5820  136.9840 C   0  0  0  0  0  0  0  0  0  0  0  0
  194.8310  174.5780  136.1990 N   0  0  0  0  0  2  0  0  0  0  0  0
  188.4780  177.5000  141.3320 C   0  0  2  0  0  3  0  0  0  0  0  0
  194.7190  175.4160  137.3300 N   0  0  0  0  0  2  0  0  0  0  0  0
  188.8060  176.7220  135.5460 C   0  0  0  0  0  3  0  0  0  0  0  0
  189.4300  176.9730  136.7810 C   0  0  0  0  0  0  0  0  0  0  0  0
  191.5060  175.8910  135.8850 C   0  0  0  0  0  2  0  0  0  0  0  0
  190.5480  176.4980  140.5380 C   0  0  0  0  0  2  0  0  0  0  0  0
  193.4290  176.8820  139.3990 O   0  0  0  0  0  0  0  0  0  0  0  0
  193.1100  173.1030  135.3030 C   0  0  0  0  0  1  0  0  0  0  0  0
  191.3670  176.8760  138.2440 N   0  0  0  0  0  0  0  0  0  0  0  0
  192.5870  175.1370  136.5110 N   0  0  2  0  0  0  0  0  0  0  0  0
  186.8370  179.1080  142.0260 O   0  0  0  0  0  0  0  0  0  0  0  0
  187.7870  178.1880  142.5070 C   0  0  1  0  0  3  0  0  0  0  0  0
  186.3390  177.8810  142.4970 C   0  0  1  0  0  3  0  0  0  0  0  0
  185.7920  178.0660  143.8300 N   0  0  0  0  0  2  0  0  0  0  0  0
  184.6320  178.9320  143.7040 C   0  0  0  0  0  3  0  0  0  0  0  0
  183.8540  178.9240  145.0040 C   0  0  0  0  0  1  0  0  0  0  0  0
  183.7380  178.4300  142.5860 C   0  0  0  0  0  1  0  0  0  0  0  0
  191.1790  176.2670  143.6390 C   0  0  0  0  0  1  0  0  0  0  0  0
  189.9010  176.1730  142.8030 C   0  0  0  0  0  2  0  0  0  0  0  0
  1 19  1  1  0  0  0
  2  9  2  0  0  0  0
  3 16  2  0  0  0  0
  3  2  1  0  0  0  0
  4 20  2  0  0  0  0
  5 15  1  1  0  0  0
  5  4  1  0  0  0  0
  6 32  1  0  0  0  0
  8 21  1  1  0  0  0
  8 13  1  0  0  0  0
  8 23  1  0  0  0  0
  9 11  1  0  0  0  0
 10  1  1  0  0  0  0
 10  7  1  0  0  0  0
 11 10  2  0  0  0  0
 12 22  1  0  0  0  0
 13 15  1  0  0  0  0
 14  7  1  6  0  0  0
 14  6  1  0  0  0  0
 14 25  1  0  0  0  0
 16 17  1  0  0  0  0
 17 12  2  0  0  0  0
 17 11  1  0  0  0  0
 18 12  1  0  0  0  0
 19  6  1  0  0  0  0
 22  4  1  0  0  0  0
 22  1  1  0  0  0  0
 23 18  1  6  0  0  0
 23  5  1  0  0  0  0
 24 26  1  0  0  0  0
 25 24  1  6  0  0  0
 26 25  1  0  0  0  0
 26 27  1  1  0  0  0
 28 27  1  0  0  0  0
 28 29  1  0  0  0  0
 30 28  1  0  0  0  0
 32 31  1  0  0  0  0
M  END
>  <MODEL>
4

>  <REMARK>
 VINA RESULT:      -8.1      1.561      1.989
  Name = 
  4 active torsions:
  status: ('A' for Active; 'I' for Inactive)
    1  A    between atoms: N_7  and  C_19
    2  A    between atoms: C_10  and  C_17
    3  A    between atoms: C_20  and  N_29
    4  A    between atoms: N_29  and  C_30
                            x       y       z     vdW  Elec       q    Type
                         _______ _______ _______ _____ _____    ______ ____

>  <TORSDO>
F 4

$$$$
=
 OpenBabel11122410363D

 32 37  0  0  1  0  0  0  0  0999 V2000
  186.7550  178.6950  141.2730 C   0  0  1  0  0  3  0  0  0  0  0  0
  184.4610  178.8040  145.6500 C   0  0  0  0  0  3  0  0  0  0  0  0
  183.2290  178.6260  145.0270 C   0  0  0  0  0  3  0  0  0  0  0  0
  185.2550  178.6590  139.2480 C   0  0  0  0  0  0  0  0  0  0  0  0
  183.8560  178.6490  138.7350 C   0  0  1  0  0  3  0  0  0  0  0  0
  188.9470  177.5940  141.4990 N   0  0  0  0  0  0  0  0  0  0  0  0
  188.0700  178.9050  143.4150 C   0  0  0  0  0  2  0  0  0  0  0  0
  181.9210  177.6030  138.6920 C   0  0  1  0  0  3  0  0  0  0  0  0
  185.6240  178.8760  144.8820 C   0  0  0  0  0  3  0  0  0  0  0  0
  186.7220  178.8350  142.7670 C   0  0  0  0  0  0  0  0  0  0  0  0
  185.5790  178.7730  143.4800 C   0  0  0  0  0  0  0  0  0  0  0  0
  184.2280  178.4800  141.5060 C   0  0  0  0  0  0  0  0  0  0  0  0
  182.3500  177.7940  137.3020 N   0  0  0  0  0  2  0  0  0  0  0  0
  188.9110  177.6990  142.9770 C   0  0  2  0  0  3  0  0  0  0  0  0
  183.6810  178.2660  137.3530 N   0  0  0  0  0  2  0  0  0  0  0  0
  183.1590  178.5190  143.6390 C   0  0  0  0  0  3  0  0  0  0  0  0
  184.3190  178.5900  142.8460 C   0  0  0  0  0  0  0  0  0  0  0  0
  182.8780  178.3040  140.8150 C   0  0  0  0  0  2  0  0  0  0  0  0
  187.5910  177.4600  140.9470 C   0  0  0  0  0  2  0  0  0  0  0  0
  186.2390  178.8030  138.4740 O   0  0  0  0  0  0  0  0  0  0  0  0
  181.3010  176.2260  138.8460 C   0  0  0  0  0  1  0  0  0  0  0  0
  185.4190  178.5940  140.6800 N   0  0  0  0  0  0  0  0  0  0  0  0
  183.1080  177.6990  139.5080 N   0  0  2  0  0  0  0  0  0  0  0  0
  190.3000  178.8650  144.5500 O   0  0  0  0  0  0  0  0  0  0  0  0
  190.3170  177.8790  143.5460 C   0  0  1  0  0  3  0  0  0  0  0  0
  190.3320  177.5290  144.9840 C   0  0  1  0  0  3  0  0  0  0  0  0
  191.6860  177.1910  145.3890 N   0  0  0  0  0  2  0  0  0  0  0  0
  191.6260  176.7530  146.7730 C   0  0  0  0  0  3  0  0  0  0  0  0
  192.1760  175.3460  146.8800 C   0  0  0  0  0  1  0  0  0  0  0  0
  190.1860  176.7620  147.2510 C   0  0  0  0  0  1  0  0  0  0  0  0
  190.7140  176.7420  139.9380 C   0  0  0  0  0  1  0  0  0  0  0  0
  189.7280  176.4250  141.0640 C   0  0  0  0  0  2  0  0  0  0  0  0
  1 19  1  1  0  0  0
  1 10  1  0  0  0  0
  3  2  1  0  0  0  0
  4 22  1  0  0  0  0
  5 15  1  6  0  0  0
  5  4  1  0  0  0  0
  5 23  1  0  0  0  0
  6 14  1  0  0  0  0
  8 21  1  6  0  0  0
  8 23  1  0  0  0  0
  9  2  2  0  0  0  0
 10  7  1  0  0  0  0
 10 11  2  0  0  0  0
 11  9  1  0  0  0  0
 12 17  2  0  0  0  0
 13 15  1  0  0  0  0
 13  8  1  0  0  0  0
 14  7  1  6  0  0  0
 14 25  1  0  0  0  0
 16  3  2  0  0  0  0
 17 11  1  0  0  0  0
 17 16  1  0  0  0  0
 18 12  1  0  0  0  0
 19  6  1  0  0  0  0
 20  4  2  0  0  0  0
 22  1  1  0  0  0  0
 22 12  1  0  0  0  0
 23 18  1  1  0  0  0
 24 26  1  0  0  0  0
 25 24  1  1  0  0  0
 25 26  1  0  0  0  0
 26 27  1  6  0  0  0
 27 28  1  0  0  0  0
 28 29  1  0  0  0  0
 28 30  1  0  0  0  0
 31 32  1  0  0  0  0
 32  6  1  0  0  0  0
M  END
>  <MODEL>
5

>  <REMARK>
 VINA RESULT:      -7.4      2.971      7.665
  Name = 
  4 active torsions:
  status: ('A' for Active; 'I' for Inactive)
    1  A    between atoms: N_7  and  C_19
    2  A    between atoms: C_10  and  C_17
    3  A    between atoms: C_20  and  N_29
    4  A    between atoms: N_29  and  C_30
                            x       y       z     vdW  Elec       q    Type
                         _______ _______ _______ _____ _____    ______ ____

>  <TORSDO>
F 4

$$$$
=
 OpenBabel11122410363D

 32 37  0  0  1  0  0  0  0  0999 V2000
  188.2580  178.6370  139.9930 C   0  0  1  0  0  3  0  0  0  0  0  0
  184.4180  178.5740  143.1040 C   0  0  0  0  0  3  0  0  0  0  0  0
  183.5520  178.2760  142.0560 C   0  0  0  0  0  3  0  0  0  0  0  0
  187.6900  178.4440  137.5440 C   0  0  0  0  0  0  0  0  0  0  0  0
  186.6140  178.2990  136.5230 C   0  0  1  0  0  3  0  0  0  0  0  0
  190.2630  177.7460  141.1120 N   0  0  0  0  0  0  0  0  0  0  0  0
  188.5950  178.9890  142.4670 C   0  0  0  0  0  2  0  0  0  0  0  0
  184.9460  177.0780  135.7700 C   0  0  1  0  0  3  0  0  0  0  0  0
  185.7800  178.7460  142.8530 C   0  0  0  0  0  3  0  0  0  0  0  0
  187.6250  178.7870  141.3450 C   0  0  0  0  0  0  0  0  0  0  0  0
  186.3020  178.6270  141.5520 C   0  0  0  0  0  0  0  0  0  0  0  0
  185.8720  178.1910  139.2220 C   0  0  0  0  0  0  0  0  0  0  0  0
  185.8740  177.2950  134.6540 N   0  0  0  0  0  2  0  0  0  0  0  0
  189.6370  177.8620  142.4500 C   0  0  2  0  0  3  0  0  0  0  0  0
  187.0330  177.8880  135.2020 N   0  0  0  0  0  2  0  0  0  0  0  0
  184.0470  178.1500  140.7580 C   0  0  0  0  0  3  0  0  0  0  0  0
  185.4160  178.3220  140.4840 C   0  0  0  0  0  0  0  0  0  0  0  0
  184.9250  177.8840  138.0650 C   0  0  0  0  0  2  0  0  0  0  0  0
  189.2530  177.4830  140.0770 C   0  0  0  0  0  2  0  0  0  0  0  0
  188.8850  178.6710  137.2150 O   0  0  0  0  0  0  0  0  0  0  0  0
  184.4320  175.6510  135.7300 C   0  0  0  0  0  1  0  0  0  0  0  0
  187.2780  178.4080  138.9270 N   0  0  0  0  0  0  0  0  0  0  0  0
  185.7020  177.2910  136.9820 N   0  0  2  0  0  0  0  0  0  0  0  0
  190.0510  178.6950  144.6620 O   0  0  0  0  0  0  0  0  0  0  0  0
  190.6830  178.1770  143.5170 C   0  0  1  0  0  3  0  0  0  0  0  0
  190.4460  177.3490  144.7210 C   0  0  1  0  0  3  0  0  0  0  0  0
  191.6750  177.2440  145.4890 N   0  0  0  0  0  2  0  0  0  0  0  0
  191.3050  176.8880  146.8490 C   0  0  0  0  0  3  0  0  0  0  0  0
  192.0360  175.6260  147.2560 C   0  0  0  0  0  1  0  0  0  0  0  0
  189.8100  176.6440  146.9250 C   0  0  0  0  0  1  0  0  0  0  0  0
  192.5930  177.0690  140.4830 C   0  0  0  0  0  1  0  0  0  0  0  0
  191.2450  176.6520  141.0730 C   0  0  0  0  0  2  0  0  0  0  0  0
  1 19  1  1  0  0  0
  1 10  1  0  0  0  0
  3  2  1  0  0  0  0
  4 22  1  0  0  0  0
  5 15  1  6  0  0  0
  5 23  1  0  0  0  0
  5  4  1  0  0  0  0
  6 14  1  0  0  0  0
  8 21  1  1  0  0  0
  8 23  1  0  0  0  0
  9  2  2  0  0  0  0
 10 11  2  0  0  0  0
 10  7  1  0  0  0  0
 11  9  1  0  0  0  0
 12 17  2  0  0  0  0
 13 15  1  0  0  0  0
 13  8  1  0  0  0  0
 14  7  1  6  0  0  0
 14 25  1  0  0  0  0
 16  3  2  0  0  0  0
 17 16  1  0  0  0  0
 17 11  1  0  0  0  0
 18 12  1  0  0  0  0
 19  6  1  0  0  0  0
 20  4  2  0  0  0  0
 22 12  1  0  0  0  0
 22  1  1  0  0  0  0
 23 18  1  1  0  0  0
 24 26  1  0  0  0  0
 25 24  1  1  0  0  0
 25 26  1  0  0  0  0
 26 27  1  1  0  0  0
 27 28  1  0  0  0  0
 28 30  1  0  0  0  0
 28 29  1  0  0  0  0
 31 32  1  0  0  0  0
 32  6  1  0  0  0  0
M  END
>  <MODEL>
6

>  <REMARK>
 VINA RESULT:      -7.3      2.828      6.247
  Name = 
  4 active torsions:
  status: ('A' for Active; 'I' for Inactive)
    1  A    between atoms: N_7  and  C_19
    2  A    between atoms: C_10  and  C_17
    3  A    between atoms: C_20  and  N_29
    4  A    between atoms: N_29  and  C_30
                            x       y       z     vdW  Elec       q    Type
                         _______ _______ _______ _____ _____    ______ ____

>  <TORSDO>
F 4

$$$$
=
 OpenBabel11122410363D

 32 37  0  0  1  0  0  0  0  0999 V2000
  186.2240  179.0020  140.2140 C   0  0  1  0  0  3  0  0  0  0  0  0
  187.4580  177.5110  144.7620 C   0  0  0  0  0  3  0  0  0  0  0  0
  186.1190  177.5040  145.1410 C   0  0  0  0  0  3  0  0  0  0  0  0
  183.7980  179.5980  139.8750 C   0  0  0  0  0  0  0  0  0  0  0  0
  182.4450  179.7050  140.4890 C   0  0  1  0  0  3  0  0  0  0  0  0
  187.7340  177.9850  138.5560 N   0  0  0  0  0  0  0  0  0  0  0  0
  188.6280  178.5230  140.8080 C   0  0  0  0  0  2  0  0  0  0  0  0
  180.7970  178.6560  141.5020 C   0  0  1  0  0  3  0  0  0  0  0  0
  187.8120  177.8900  143.4670 C   0  0  0  0  0  3  0  0  0  0  0  0
  187.2100  178.6220  141.2790 C   0  0  0  0  0  0  0  0  0  0  0  0
  186.8360  178.2720  142.5270 C   0  0  0  0  0  0  0  0  0  0  0  0
  184.5000  178.6140  142.0480 C   0  0  0  0  0  0  0  0  0  0  0  0
  180.2350  179.3290  140.3250 N   0  0  0  0  0  2  0  0  0  0  0  0
  188.7000  177.5760  139.6030 C   0  0  2  0  0  3  0  0  0  0  0  0
  181.3300  179.8100  139.5750 N   0  0  0  0  0  2  0  0  0  0  0  0
  185.1340  177.8760  144.2270 C   0  0  0  0  0  3  0  0  0  0  0  0
  185.4690  178.2630  142.9170 C   0  0  0  0  0  0  0  0  0  0  0  0
  183.0310  178.6280  142.4630 C   0  0  0  0  0  2  0  0  0  0  0  0
  186.3610  177.9910  139.0800 C   0  0  0  0  0  2  0  0  0  0  0  0
  184.0330  180.0390  138.7180 O   0  0  0  0  0  0  0  0  0  0  0  0
  180.1650  177.2850  141.6510 C   0  0  0  0  0  1  0  0  0  0  0  0
  184.8440  179.0550  140.7070 N   0  0  0  0  0  0  0  0  0  0  0  0
  182.2140  178.5170  141.2600 N   0  0  2  0  0  0  0  0  0  0  0  0
  191.0230  177.1950  140.0740 O   0  0  0  0  0  0  0  0  0  0  0  0
  190.1310  177.6110  139.0680 C   0  0  1  0  0  3  0  0  0  0  0  0
  190.7120  176.2490  139.0830 C   0  0  1  0  0  3  0  0  0  0  0  0
  191.8070  176.1760  138.1300 N   0  0  0  0  0  2  0  0  0  0  0  0
  191.8230  174.8260  137.5950 C   0  0  0  0  0  3  0  0  0  0  0  0
  192.7030  174.7830  136.3630 C   0  0  0  0  0  1  0  0  0  0  0  0
  190.4160  174.4080  137.2160 C   0  0  0  0  0  1  0  0  0  0  0  0
  187.9100  177.7910  136.0630 C   0  0  0  0  0  1  0  0  0  0  0  0
  187.7730  177.0700  137.4050 C   0  0  0  0  0  2  0  0  0  0  0  0
  1 19  1  6  0  0  0
  1 22  1  0  0  0  0
  1 10  1  0  0  0  0
  2  3  1  0  0  0  0
  4  5  1  0  0  0  0
  4 22  1  0  0  0  0
  5 15  1  6  0  0  0
  5 23  1  0  0  0  0
  6 19  1  0  0  0  0
  6 14  1  0  0  0  0
  7 10  1  0  0  0  0
  8 21  1  6  0  0  0
  9  2  2  0  0  0  0
 10 11  2  0  0  0  0
 11 17  1  0  0  0  0
 11  9  1  0  0  0  0
 12 18  1  0  0  0  0
 12 17  2  0  0  0  0
 13  8  1  0  0  0  0
 14  7  1  1  0  0  0
 15 13  1  0  0  0  0
 16  3  2  0  0  0  0
 17 16  1  0  0  0  0
 20  4  2  0  0  0  0
 22 12  1  0  0  0  0
 23  8  1  0  0  0  0
 23 18  1  1  0  0  0
 25 26  1  0  0  0  0
 25 14  1  0  0  0  0
 25 24  1  1  0  0  0
 26 27  1  6  0  0  0
 26 24  1  0  0  0  0
 28 27  1  0  0  0  0
 29 28  1  0  0  0  0
 30 28  1  0  0  0  0
 31 32  1  0  0  0  0
 32  6  1  0  0  0  0
M  END
>  <MODEL>
7

>  <REMARK>
 VINA RESULT:      -7.3      2.089      8.781
  Name = 
  4 active torsions:
  status: ('A' for Active; 'I' for Inactive)
    1  A    between atoms: N_7  and  C_19
    2  A    between atoms: C_10  and  C_17
    3  A    between atoms: C_20  and  N_29
    4  A    between atoms: N_29  and  C_30
                            x       y       z     vdW  Elec       q    Type
                         _______ _______ _______ _____ _____    ______ ____

>  <TORSDO>
F 4

$$$$
=
 OpenBabel11122410363D

 32 37  0  0  1  0  0  0  0  0999 V2000
  190.2620  177.4200  139.3960 C   0  0  1  0  0  3  0  0  0  0  0  0
  185.6530  178.0040  137.7070 C   0  0  0  0  0  3  0  0  0  0  0  0
  185.9790  177.3280  136.5350 C   0  0  0  0  0  3  0  0  0  0  0  0
  191.9130  176.4360  137.7640 C   0  0  0  0  0  0  0  0  0  0  0  0
  192.1370  175.8970  136.3930 C   0  0  1  0  0  3  0  0  0  0  0  0
  190.2290  177.0840  141.8360 N   0  0  0  0  0  0  0  0  0  0  0  0
  188.5010  178.5420  140.8100 C   0  0  0  0  0  2  0  0  0  0  0  0
  191.5910  174.3710  134.9050 C   0  0  1  0  0  3  0  0  0  0  0  0
  186.6250  178.2010  138.6890 C   0  0  0  0  0  3  0  0  0  0  0  0
  188.8530  177.9270  139.4910 C   0  0  0  0  0  0  0  0  0  0  0  0
  187.9400  177.7300  138.5180 C   0  0  0  0  0  0  0  0  0  0  0  0
  189.5150  176.5640  137.1160 C   0  0  0  0  0  0  0  0  0  0  0  0
  193.0460  174.3100  135.0880 N   0  0  0  0  0  2  0  0  0  0  0  0
  188.8270  177.5540  141.9380 C   0  0  2  0  0  3  0  0  0  0  0  0
  193.3490  175.1360  136.1930 N   0  0  0  0  0  2  0  0  0  0  0  0
  187.2750  176.8500  136.3440 C   0  0  0  0  0  3  0  0  0  0  0  0
  188.2700  177.0400  137.3210 C   0  0  0  0  0  0  0  0  0  0  0  0
  189.8840  175.8400  135.8250 C   0  0  0  0  0  2  0  0  0  0  0  0
  190.4730  176.4330  140.5410 C   0  0  0  0  0  2  0  0  0  0  0  0
  192.8710  176.6480  138.5540 O   0  0  0  0  0  0  0  0  0  0  0  0
  191.0360  172.9640  134.7830 C   0  0  0  0  0  1  0  0  0  0  0  0
  190.5560  176.7940  138.1030 N   0  0  0  0  0  0  0  0  0  0  0  0
  191.0540  175.0080  136.0840 N   0  0  2  0  0  0  0  0  0  0  0  0
  187.2190  178.2040  143.5970 O   0  0  0  0  0  0  0  0  0  0  0  0
  188.5850  178.2670  143.2670 C   0  0  1  0  0  3  0  0  0  0  0  0
  188.0680  177.3100  144.2710 C   0  0  1  0  0  3  0  0  0  0  0  0
  188.3320  177.8150  145.6070 N   0  0  0  0  0  2  0  0  0  0  0  0
  187.4140  177.1440  146.5120 C   0  0  0  0  0  3  0  0  0  0  0  0
  186.0910  177.8810  146.5240 C   0  0  0  0  0  1  0  0  0  0  0  0
  187.9910  177.1350  147.9140 C   0  0  0  0  0  1  0  0  0  0  0  0
  191.6610  176.5860  143.8310 C   0  0  0  0  0  1  0  0  0  0  0  0
  190.5470  176.1150  142.8950 C   0  0  0  0  0  2  0  0  0  0  0  0
  1 10  1  0  0  0  0
  1 19  1  1  0  0  0
  2  9  2  0  0  0  0
  3  2  1  0  0  0  0
  4 22  1  0  0  0  0
  4 20  2  0  0  0  0
  5 15  1  1  0  0  0
  5  4  1  0  0  0  0
  6 14  1  0  0  0  0
  6 32  1  0  0  0  0
  8 21  1  1  0  0  0
  8 13  1  0  0  0  0
  8 23  1  0  0  0  0
 10  7  1  0  0  0  0
 11  9  1  0  0  0  0
 11 10  2  0  0  0  0
 12 17  2  0  0  0  0
 12 22  1  0  0  0  0
 13 15  1  0  0  0  0
 14  7  1  6  0  0  0
 14 25  1  0  0  0  0
 16  3  2  0  0  0  0
 16 17  1  0  0  0  0
 17 11  1  0  0  0  0
 18 12  1  0  0  0  0
 19  6  1  0  0  0  0
 22  1  1  0  0  0  0
 23 18  1  6  0  0  0
 23  5  1  0  0  0  0
 24 26  1  0  0  0  0
 25 24  1  6  0  0  0
 25 26  1  0  0  0  0
 26 27  1  1  0  0  0
 27 28  1  0  0  0  0
 28 29  1  0  0  0  0
 28 30  1  0  0  0  0
 32 31  1  0  0  0  0
M  END
>  <MODEL>
8

>  <REMARK>
 VINA RESULT:      -7.2      2.561      3.205
  Name = 
  4 active torsions:
  status: ('A' for Active; 'I' for Inactive)
    1  A    between atoms: N_7  and  C_19
    2  A    between atoms: C_10  and  C_17
    3  A    between atoms: C_20  and  N_29
    4  A    between atoms: N_29  and  C_30
                            x       y       z     vdW  Elec       q    Type
                         _______ _______ _______ _____ _____    ______ ____

>  <TORSDO>
F 4

$$$$
=
 OpenBabel11122410363D

 32 37  0  0  1  0  0  0  0  0999 V2000
  183.7550  178.4290  140.5920 C   0  0  1  0  0  3  0  0  0  0  0  0
  188.2410  178.2390  138.5250 C   0  0  0  0  0  3  0  0  0  0  0  0
  188.8400  178.3270  139.7780 C   0  0  0  0  0  3  0  0  0  0  0  0
  183.7070  178.8950  143.0690 C   0  0  0  0  0  0  0  0  0  0  0  0
  184.5010  179.1560  144.3030 C   0  0  1  0  0  3  0  0  0  0  0  0
  182.1860  177.0080  139.3330 N   0  0  0  0  0  0  0  0  0  0  0  0
  184.0170  178.1440  138.1000 C   0  0  0  0  0  2  0  0  0  0  0  0
  186.0340  178.4120  145.6950 C   0  0  1  0  0  3  0  0  0  0  0  0
  186.8500  178.2530  138.4170 C   0  0  0  0  0  3  0  0  0  0  0  0
  184.6900  178.3580  139.4210 C   0  0  0  0  0  0  0  0  0  0  0  0
  186.0320  178.3590  139.5580 C   0  0  0  0  0  0  0  0  0  0  0  0
  185.9030  178.5440  141.9570 C   0  0  0  0  0  0  0  0  0  0  0  0
  184.8400  178.7370  146.4840 N   0  0  0  0  0  2  0  0  0  0  0  0
  183.1150  176.9060  138.1820 C   0  0  2  0  0  3  0  0  0  0  0  0
  183.8060  179.0030  145.5600 N   0  0  0  0  0  2  0  0  0  0  0  0
  188.0500  178.4300  140.9230 C   0  0  0  0  0  3  0  0  0  0  0  0
  186.6460  178.4480  140.8360 C   0  0  0  0  0  0  0  0  0  0  0  0
  186.5540  178.6610  143.3320 C   0  0  0  0  0  2  0  0  0  0  0  0
  182.9260  177.1480  140.5960 C   0  0  0  0  0  2  0  0  0  0  0  0
  182.4520  179.0070  143.0580 O   0  0  0  0  0  0  0  0  0  0  0  0
  186.6530  177.1300  146.2180 C   0  0  0  0  0  1  0  0  0  0  0  0
  184.4540  178.6050  141.8690 N   0  0  0  0  0  0  0  0  0  0  0  0
  185.5900  178.2220  144.3350 N   0  0  2  0  0  0  0  0  0  0  0  0
  183.2450  176.8360  135.7860 O   0  0  0  0  0  0  0  0  0  0  0  0
  182.3450  176.8020  136.8670 C   0  0  1  0  0  3  0  0  0  0  0  0
  182.7400  175.5740  136.1410 C   0  0  1  0  0  3  0  0  0  0  0  0
  181.6900  175.1990  135.2100 N   0  0  0  0  0  2  0  0  0  0  0  0
  181.5490  173.7540  135.2780 C   0  0  0  0  0  3  0  0  0  0  0  0
  180.8150  173.3790  136.5480 C   0  0  0  0  0  1  0  0  0  0  0  0
  182.9200  173.1060  135.2860 C   0  0  0  0  0  1  0  0  0  0  0  0
  180.0190  176.0750  140.1790 C   0  0  0  0  0  1  0  0  0  0  0  0
  181.3330  175.8150  139.4400 C   0  0  0  0  0  2  0  0  0  0  0  0
  1 19  1  1  0  0  0
  1 22  1  0  0  0  0
  2  3  1  0  0  0  0
  3 16  2  0  0  0  0
  5  4  1  6  0  0  0
  5 23  1  0  0  0  0
  5 15  1  0  0  0  0
  6 32  1  0  0  0  0
  6 19  1  0  0  0  0
  7 10  1  0  0  0  0
  8 21  1  1  0  0  0
  8 13  1  0  0  0  0
  9  2  2  0  0  0  0
  9 11  1  0  0  0  0
 10 11  2  0  0  0  0
 10  1  1  0  0  0  0
 11 17  1  0  0  0  0
 12 18  1  0  0  0  0
 14  7  1  6  0  0  0
 14  6  1  0  0  0  0
 15 13  1  0  0  0  0
 17 16  1  0  0  0  0
 17 12  2  0  0  0  0
 20  4  2  0  0  0  0
 22 12  1  0  0  0  0
 22  4  1  0  0  0  0
 23 18  1  6  0  0  0
 23  8  1  0  0  0  0
 24 26  1  0  0  0  0
 25 24  1  6  0  0  0
 25 14  1  0  0  0  0
 26 27  1  6  0  0  0
 26 25  1  0  0  0  0
 27 28  1  0  0  0  0
 28 30  1  0  0  0  0
 28 29  1  0  0  0  0
 32 31  1  0  0  0  0
M  END
>  <MODEL>
9

>  <REMARK>
 VINA RESULT:      -7.1      4.388      7.834
  Name = 
  4 active torsions:
  status: ('A' for Active; 'I' for Inactive)
    1  A    between atoms: N_7  and  C_19
    2  A    between atoms: C_10  and  C_17
    3  A    between atoms: C_20  and  N_29
    4  A    between atoms: N_29  and  C_30
                            x       y       z     vdW  Elec       q    Type
                         _______ _______ _______ _____ _____    ______ ____

>  <TORSDO>
F 4

$$$$
