=
 OpenBabel11122411473D

 37 41  0  0  1  0  0  0  0  0999 V2000
  186.3850  177.5270  144.6540 C   0  0  1  0  0  3  0  0  0  0  0  0
  185.0250  177.9650  141.1030 C   0  0  0  0  0  2  0  0  0  0  0  0
  188.6240  177.1790  145.8180 C   0  0  2  0  0  3  0  0  0  0  0  0
  186.5150  177.9100  143.2220 C   0  0  2  0  0  3  0  0  0  0  0  0
  187.5770  176.6150  144.8420 C   0  0  2  0  0  3  0  0  0  0  0  0
  185.0890  177.8980  142.6300 C   0  0  1  0  0  3  0  0  0  0  0  0
  187.9480  177.6280  147.1210 C   0  0  0  0  0  2  0  0  0  0  0  0
  188.1500  176.3180  143.5880 O   0  0  0  0  0  0  0  0  0  0  0  0
  185.0910  179.3640  145.4800 C   0  0  0  0  0  2  0  0  0  0  0  0
  186.5830  178.2900  146.8970 C   0  0  0  0  0  2  0  0  0  0  0  0
  186.9950  179.4050  140.9670 O   0  0  0  0  0  0  0  0  0  0  0  0
  185.6760  179.2260  140.5180 C   0  0  0  0  0  2  0  0  0  0  0  0
  186.4080  178.7250  145.5130 N   0  0  1  0  0  0  0  0  0  0  0  0
  187.4040  176.9190  142.6020 N   0  0  2  0  0  0  0  0  0  0  0  0
  184.2090  178.9130  143.2400 N   0  0  0  0  0  0  0  0  0  0  0  0
  187.7200  178.2930  140.5210 C   0  0  0  0  0  2  0  0  0  0  0  0
  188.3790  177.5700  141.7020 C   0  0  2  0  0  3  0  0  0  0  0  0
  184.7740  179.9540  144.1070 C   0  0  0  0  0  2  0  0  0  0  0  0
  181.9830  178.6680  144.2990 C   0  0  0  0  0  3  0  0  0  0  0  0
  182.7750  178.7830  143.1430 C   0  0  0  0  0  0  0  0  0  0  0  0
  182.1410  178.7730  141.8870 C   0  0  0  0  0  3  0  0  0  0  0  0
  180.0990  178.6410  140.4560 C   0  0  0  0  0  1  0  0  0  0  0  0
  179.9790  178.5350  142.9480 C   0  0  0  0  0  3  0  0  0  0  0  0
  180.7530  178.6500  141.7910 C   0  0  0  0  0  0  0  0  0  0  0  0
  180.5950  178.5450  144.2020 C   0  0  0  0  0  3  0  0  0  0  0  0
  189.2400  176.5860  141.1670 O   0  0  0  0  0  0  0  0  0  0  0  0
  190.2690  177.1900  140.4060 C   0  0  1  0  0  3  0  0  0  0  0  0
  192.6380  177.5200  140.4020 O   0  0  0  0  0  1  0  0  0  0  0  0
  191.5110  177.5410  141.2230 C   0  0  0  0  0  2  0  0  0  0  0  0
  190.5930  176.4200  139.1300 C   0  0  0  0  0  2  0  0  0  0  0  0
  190.1190  177.1720  137.8960 C   0  0  0  0  0  2  0  0  0  0  0  0
  188.8380  176.6530  137.4540 N   0  0  0  0  0  1  0  0  0  0  0  0
  189.3160  178.2590  145.2330 O   0  0  0  0  0  0  0  0  0  0  0  0
  190.6690  177.8940  145.0600 C   0  0  0  0  0  0  0  0  0  0  0  0
  190.7740  176.7830  144.2400 F   0  0  0  0  0  0  0  0  0  0  0  0
  191.4140  178.9360  144.5280 F   0  0  0  0  0  0  0  0  0  0  0  0
  191.1980  177.5680  146.2950 F   0  0  0  0  0  0  0  0  0  0  0  0
  1  5  1  0  0  0  0
  1 13  1  0  0  0  0
  2  6  1  0  0  0  0
  3  7  1  0  0  0  0
  4  1  1  0  0  0  0
  5  3  1  0  0  0  0
  6  4  1  0  0  0  0
  6 15  1  0  0  0  0
  8  5  1  0  0  0  0
  9 13  1  0  0  0  0
 10  7  1  0  0  0  0
 12 11  1  0  0  0  0
 12  2  1  0  0  0  0
 13 10  1  0  0  0  0
 14  4  1  0  0  0  0
 14  8  1  0  0  0  0
 15 18  1  0  0  0  0
 16 11  1  0  0  0  0
 16 17  1  0  0  0  0
 17 14  1  0  0  0  0
 18  9  1  0  0  0  0
 20 15  1  0  0  0  0
 20 19  2  0  0  0  0
 21 20  1  0  0  0  0
 22 24  1  0  0  0  0
 23 25  2  0  0  0  0
 24 21  2  0  0  0  0
 24 23  1  0  0  0  0
 25 19  1  0  0  0  0
 26 17  1  0  0  0  0
 27 26  1  0  0  0  0
 27 29  1  0  0  0  0
 28 29  1  0  0  0  0
 30 27  1  0  0  0  0
 31 30  1  0  0  0  0
 32 31  1  0  0  0  0
 33  3  1  0  0  0  0
 34 33  1  0  0  0  0
 34 37  1  0  0  0  0
 35 34  1  0  0  0  0
 36 34  1  0  0  0  0
M  END
>  <MODEL>
1

>  <REMARK>
 VINA RESULT:      -7.8      0.000      0.000
  Name = 
  8 active torsions:
  status: ('A' for Active; 'I' for Inactive)
    1  A    between atoms: O_1  and  C_4
    2  A    between atoms: O_1  and  C_27
    3  A    between atoms: C_2  and  O_22
    4  A    between atoms: C_4  and  C_12
    5  A    between atoms: C_4  and  C_37
    6  A    between atoms: C_6  and  O_22
    7  A    between atoms: C_8  and  C_12
    8  A    between atoms: N_23  and  C_30
                            x       y       z     vdW  Elec       q    Type
                         _______ _______ _______ _____ _____    ______ ____

>  <TORSDO>
F 8

$$$$
=
 OpenBabel11122411473D

 37 41  0  0  1  0  0  0  0  0999 V2000
  187.2010  177.2580  142.5170 C   0  0  1  0  0  3  0  0  0  0  0  0
  190.9910  176.7610  142.3130 C   0  0  0  0  0  2  0  0  0  0  0  0
  185.4350  177.8240  144.2620 C   0  0  2  0  0  3  0  0  0  0  0  0
  188.5940  177.4750  142.9910 C   0  0  2  0  0  3  0  0  0  0  0  0
  186.5030  176.8240  143.7860 C   0  0  2  0  0  3  0  0  0  0  0  0
  189.5280  176.9150  141.8960 C   0  0  1  0  0  3  0  0  0  0  0  0
  184.4940  178.1850  143.1040 C   0  0  0  0  0  2  0  0  0  0  0  0
  187.4600  176.5760  144.7920 O   0  0  0  0  0  0  0  0  0  0  0  0
  187.1820  178.6510  140.5700 C   0  0  0  0  0  2  0  0  0  0  0  0
  185.2150  178.3230  141.7590 C   0  0  0  0  0  2  0  0  0  0  0  0
  190.9140  178.7420  143.7420 O   0  0  0  0  0  0  0  0  0  0  0  0
  191.6470  178.0800  142.7430 C   0  0  0  0  0  2  0  0  0  0  0  0
  186.6570  178.4940  141.9280 N   0  0  1  0  0  0  0  0  0  0  0  0
  188.7170  176.7640  144.2700 N   0  0  2  0  0  0  0  0  0  0  0  0
  189.4170  177.6510  140.6210 N   0  0  0  0  0  0  0  0  0  0  0  0
  190.8910  177.8870  144.8490 C   0  0  0  0  0  2  0  0  0  0  0  0
  189.4460  177.5800  145.2640 C   0  0  2  0  0  3  0  0  0  0  0  0
  188.6860  178.9210  140.5640 C   0  0  0  0  0  2  0  0  0  0  0  0
  188.9370  176.5080  138.4770 C   0  0  0  0  0  3  0  0  0  0  0  0
  189.8620  177.0410  139.3910 C   0  0  0  0  0  0  0  0  0  0  0  0
  191.2320  176.9730  139.0810 C   0  0  0  0  0  3  0  0  0  0  0  0
  193.1160  176.3230  137.5770 C   0  0  0  0  0  1  0  0  0  0  0  0
  190.7340  175.8590  136.9910 C   0  0  0  0  0  3  0  0  0  0  0  0
  191.6650  176.3860  137.8890 C   0  0  0  0  0  0  0  0  0  0  0  0
  189.3700  175.9210  137.2850 C   0  0  0  0  0  3  0  0  0  0  0  0
  189.4980  176.8780  146.4880 O   0  0  0  0  0  0  0  0  0  0  0  0
  190.0360  177.6990  147.5070 C   0  0  1  0  0  3  0  0  0  0  0  0
  188.0850  177.2690  148.8230 O   0  0  0  0  0  1  0  0  0  0  0  0
  188.9820  178.2710  148.4540 C   0  0  0  0  0  2  0  0  0  0  0  0
  191.2040  177.0470  148.2400 C   0  0  0  0  0  2  0  0  0  0  0  0
  191.8010  175.9110  147.4260 C   0  0  0  0  0  2  0  0  0  0  0  0
  193.1510  175.6260  147.8790 N   0  0  0  0  0  1  0  0  0  0  0  0
  186.0390  178.9870  144.7780 O   0  0  0  0  0  0  0  0  0  0  0  0
  185.5820  179.1910  146.1000 C   0  0  0  0  0  0  0  0  0  0  0  0
  186.0530  180.3940  146.5990 F   0  0  0  0  0  0  0  0  0  0  0  0
  184.1970  179.1690  146.1690 F   0  0  0  0  0  0  0  0  0  0  0  0
  186.0740  178.1740  146.8950 F   0  0  0  0  0  0  0  0  0  0  0  0
  1  4  1  0  0  0  0
  1  5  1  0  0  0  0
  2 12  1  0  0  0  0
  3 33  1  0  0  0  0
  4 14  1  0  0  0  0
  5  3  1  0  0  0  0
  5  8  1  0  0  0  0
  6  2  1  0  0  0  0
  6  4  1  0  0  0  0
  7  3  1  0  0  0  0
  9 13  1  0  0  0  0
 10 13  1  0  0  0  0
 10  7  1  0  0  0  0
 11 16  1  0  0  0  0
 12 11  1  0  0  0  0
 13  1  1  0  0  0  0
 14  8  1  0  0  0  0
 14 17  1  0  0  0  0
 15  6  1  0  0  0  0
 16 17  1  0  0  0  0
 17 26  1  0  0  0  0
 18  9  1  0  0  0  0
 18 15  1  0  0  0  0
 19 20  1  0  0  0  0
 20 15  1  0  0  0  0
 21 20  2  0  0  0  0
 22 24  1  0  0  0  0
 23 25  1  0  0  0  0
 23 24  2  0  0  0  0
 24 21  1  0  0  0  0
 25 19  2  0  0  0  0
 26 27  1  0  0  0  0
 27 30  1  0  0  0  0
 27 29  1  0  0  0  0
 29 28  1  0  0  0  0
 31 32  1  0  0  0  0
 31 30  1  0  0  0  0
 33 34  1  0  0  0  0
 34 36  1  0  0  0  0
 34 35  1  0  0  0  0
 34 37  1  0  0  0  0
M  END
>  <MODEL>
2

>  <REMARK>
 VINA RESULT:      -7.5      2.867      7.210
  Name = 
  8 active torsions:
  status: ('A' for Active; 'I' for Inactive)
    1  A    between atoms: O_1  and  C_4
    2  A    between atoms: O_1  and  C_27
    3  A    between atoms: C_2  and  O_22
    4  A    between atoms: C_4  and  C_12
    5  A    between atoms: C_4  and  C_37
    6  A    between atoms: C_6  and  O_22
    7  A    between atoms: C_8  and  C_12
    8  A    between atoms: N_23  and  C_30
                            x       y       z     vdW  Elec       q    Type
                         _______ _______ _______ _____ _____    ______ ____

>  <TORSDO>
F 8

$$$$
=
 OpenBabel11122411473D

 37 41  0  0  1  0  0  0  0  0999 V2000
  187.0500  177.3500  142.6110 C   0  0  1  0  0  3  0  0  0  0  0  0
  190.8040  176.6350  142.4030 C   0  0  0  0  0  2  0  0  0  0  0  0
  185.3110  177.9610  144.3690 C   0  0  2  0  0  3  0  0  0  0  0  0
  188.4500  177.4680  143.0970 C   0  0  2  0  0  3  0  0  0  0  0  0
  186.3200  176.9160  143.8630 C   0  0  2  0  0  3  0  0  0  0  0  0
  189.3540  176.8900  141.9860 C   0  0  1  0  0  3  0  0  0  0  0  0
  184.3990  178.4170  143.2220 C   0  0  0  0  0  2  0  0  0  0  0  0
  187.2550  176.5770  144.8630 O   0  0  0  0  0  0  0  0  0  0  0  0
  187.1240  178.8070  140.7130 C   0  0  0  0  0  2  0  0  0  0  0  0
  185.1350  178.5570  141.8840 C   0  0  0  0  0  2  0  0  0  0  0  0
  190.8380  178.5680  143.8980 O   0  0  0  0  0  0  0  0  0  0  0  0
  191.5350  177.8970  142.8790 C   0  0  0  0  0  2  0  0  0  0  0  0
  186.5830  178.6360  142.0630 N   0  0  1  0  0  0  0  0  0  0  0  0
  188.5250  176.7070  144.3510 N   0  0  2  0  0  0  0  0  0  0  0  0
  189.2950  177.6740  140.7370 N   0  0  0  0  0  0  0  0  0  0  0  0
  190.7580  177.6780  144.9750 C   0  0  0  0  0  2  0  0  0  0  0  0
  189.2960  177.4440  145.3750 C   0  0  2  0  0  3  0  0  0  0  0  0
  188.6410  178.9870  140.7210 C   0  0  0  0  0  2  0  0  0  0  0  0
  191.0700  176.8980  139.1940 C   0  0  0  0  0  3  0  0  0  0  0  0
  189.7080  177.0810  139.4880 C   0  0  0  0  0  0  0  0  0  0  0  0
  188.7520  176.6690  138.5420 C   0  0  0  0  0  3  0  0  0  0  0  0
  188.1270  175.6630  136.3440 C   0  0  0  0  0  1  0  0  0  0  0  0
  190.5070  175.9180  137.0530 C   0  0  0  0  0  3  0  0  0  0  0  0
  189.1490  176.0920  137.3320 C   0  0  0  0  0  0  0  0  0  0  0  0
  191.4680  176.3210  137.9850 C   0  0  0  0  0  3  0  0  0  0  0  0
  189.3000  176.6990  146.5740 O   0  0  0  0  0  0  0  0  0  0  0  0
  190.4920  176.9350  147.2990 C   0  0  1  0  0  3  0  0  0  0  0  0
  188.9740  178.1360  148.7060 O   0  0  0  0  0  1  0  0  0  0  0  0
  190.3290  177.9430  148.4360 C   0  0  0  0  0  2  0  0  0  0  0  0
  191.1840  175.6490  147.7390 C   0  0  0  0  0  2  0  0  0  0  0  0
  192.6930  175.7550  147.5890 C   0  0  0  0  0  2  0  0  0  0  0  0
  193.2880  176.2200  148.8290 N   0  0  0  0  0  1  0  0  0  0  0  0
  185.9810  179.0680  144.9270 O   0  0  0  0  0  0  0  0  0  0  0  0
  185.6950  179.1260  146.3090 C   0  0  0  0  0  0  0  0  0  0  0  0
  185.9110  180.4030  146.7990 F   0  0  0  0  0  0  0  0  0  0  0  0
  184.3890  178.7420  146.5750 F   0  0  0  0  0  0  0  0  0  0  0  0
  186.5460  178.2620  146.9710 F   0  0  0  0  0  0  0  0  0  0  0  0
  1  4  1  0  0  0  0
  1  5  1  0  0  0  0
  2 12  1  0  0  0  0
  3 33  1  0  0  0  0
  4 14  1  0  0  0  0
  5  3  1  0  0  0  0
  5  8  1  0  0  0  0
  6  2  1  0  0  0  0
  6  4  1  0  0  0  0
  7  3  1  0  0  0  0
  9 18  1  0  0  0  0
  9 13  1  0  0  0  0
 10 13  1  0  0  0  0
 10  7  1  0  0  0  0
 11 16  1  0  0  0  0
 12 11  1  0  0  0  0
 13  1  1  0  0  0  0
 14  8  1  0  0  0  0
 14 17  1  0  0  0  0
 15  6  1  0  0  0  0
 16 17  1  0  0  0  0
 17 26  1  0  0  0  0
 18 15  1  0  0  0  0
 19 20  1  0  0  0  0
 20 15  1  0  0  0  0
 21 20  2  0  0  0  0
 22 24  1  0  0  0  0
 23 24  2  0  0  0  0
 23 25  1  0  0  0  0
 24 21  1  0  0  0  0
 25 19  2  0  0  0  0
 26 27  1  0  0  0  0
 27 30  1  0  0  0  0
 27 29  1  0  0  0  0
 29 28  1  0  0  0  0
 31 30  1  0  0  0  0
 31 32  1  0  0  0  0
 33 34  1  0  0  0  0
 34 36  1  0  0  0  0
 34 35  1  0  0  0  0
 34 37  1  0  0  0  0
M  END
>  <MODEL>
3

>  <REMARK>
 VINA RESULT:      -7.4      2.853      6.955
  Name = 
  8 active torsions:
  status: ('A' for Active; 'I' for Inactive)
    1  A    between atoms: O_1  and  C_4
    2  A    between atoms: O_1  and  C_27
    3  A    between atoms: C_2  and  O_22
    4  A    between atoms: C_4  and  C_12
    5  A    between atoms: C_4  and  C_37
    6  A    between atoms: C_6  and  O_22
    7  A    between atoms: C_8  and  C_12
    8  A    between atoms: N_23  and  C_30
                            x       y       z     vdW  Elec       q    Type
                         _______ _______ _______ _____ _____    ______ ____

>  <TORSDO>
F 8

$$$$
=
 OpenBabel11122411473D

 37 41  0  0  1  0  0  0  0  0999 V2000
  186.1880  178.3190  138.1720 C   0  0  1  0  0  3  0  0  0  0  0  0
  184.9910  179.4030  141.6420 C   0  0  0  0  0  2  0  0  0  0  0  0
  188.2480  177.2790  137.0950 C   0  0  2  0  0  3  0  0  0  0  0  0
  186.2010  178.2560  139.6580 C   0  0  2  0  0  3  0  0  0  0  0  0
  187.6570  178.4800  137.8530 C   0  0  2  0  0  3  0  0  0  0  0  0
  184.9920  179.0830  140.1460 C   0  0  1  0  0  3  0  0  0  0  0  0
  187.3660  176.9270  135.8890 C   0  0  0  0  0  2  0  0  0  0  0  0
  188.3730  178.7410  139.0400 O   0  0  0  0  0  0  0  0  0  0  0  0
  184.1260  177.1940  137.7060 C   0  0  0  0  0  2  0  0  0  0  0  0
  185.8660  177.0700  136.1740 C   0  0  0  0  0  2  0  0  0  0  0  0
  186.0350  177.2690  142.2170 O   0  0  0  0  0  0  0  0  0  0  0  0
  184.9910  178.1540  142.5340 C   0  0  0  0  0  2  0  0  0  0  0  0
  185.5840  177.0980  137.6080 N   0  0  1  0  0  0  0  0  0  0  0  0
  187.4890  178.8120  140.0900 N   0  0  2  0  0  0  0  0  0  0  0  0
  183.6990  178.5050  139.7300 N   0  0  0  0  0  0  0  0  0  0  0  0
  187.2280  177.9660  142.4430 C   0  0  0  0  0  2  0  0  0  0  0  0
  188.0840  177.9960  141.1710 C   0  0  2  0  0  3  0  0  0  0  0  0
  183.6450  177.1560  139.1560 C   0  0  0  0  0  2  0  0  0  0  0  0
  181.4630  179.0950  140.6170 C   0  0  0  0  0  3  0  0  0  0  0  0
  182.5110  179.3240  139.7090 C   0  0  0  0  0  0  0  0  0  0  0  0
  182.3820  180.3720  138.7800 C   0  0  0  0  0  3  0  0  0  0  0  0
  181.1140  182.2720  137.7710 C   0  0  0  0  0  1  0  0  0  0  0  0
  180.2000  180.9290  139.6670 C   0  0  0  0  0  3  0  0  0  0  0  0
  181.2340  181.1690  138.7590 C   0  0  0  0  0  0  0  0  0  0  0  0
  180.3150  179.8920  140.5960 C   0  0  0  0  0  3  0  0  0  0  0  0
  189.3400  178.5400  141.5200 O   0  0  0  0  0  0  0  0  0  0  0  0
  189.8980  177.8330  142.6110 C   0  0  1  0  0  3  0  0  0  0  0  0
  190.1960  175.4600  142.6970 O   0  0  0  0  0  1  0  0  0  0  0  0
  190.7520  176.6360  142.1940 C   0  0  0  0  0  2  0  0  0  0  0  0
  190.6000  178.7450  143.6120 C   0  0  0  0  0  2  0  0  0  0  0  0
  190.5970  178.1390  145.0060 C   0  0  0  0  0  2  0  0  0  0  0  0
  189.2330  177.9370  145.4620 N   0  0  0  0  0  1  0  0  0  0  0  0
  188.3700  176.1640  137.9480 O   0  0  0  0  0  0  0  0  0  0  0  0
  189.7060  175.7060  137.9110 C   0  0  0  0  0  0  0  0  0  0  0  0
  190.3280  175.9150  139.1310 F   0  0  0  0  0  0  0  0  0  0  0  0
  189.7740  174.3600  137.5800 F   0  0  0  0  0  0  0  0  0  0  0  0
  190.3910  176.4250  136.9510 F   0  0  0  0  0  0  0  0  0  0  0  0
  1  4  1  0  0  0  0
  2 12  1  0  0  0  0
  3  5  1  0  0  0  0
  3 33  1  0  0  0  0
  4 14  1  0  0  0  0
  4  6  1  0  0  0  0
  5  1  1  0  0  0  0
  5  8  1  0  0  0  0
  6  2  1  0  0  0  0
  7 10  1  0  0  0  0
  7  3  1  0  0  0  0
  8 14  1  0  0  0  0
  9 18  1  0  0  0  0
 10 13  1  0  0  0  0
 11 16  1  0  0  0  0
 11 12  1  0  0  0  0
 13  9  1  0  0  0  0
 13  1  1  0  0  0  0
 14 17  1  0  0  0  0
 15  6  1  0  0  0  0
 17 26  1  0  0  0  0
 17 16  1  0  0  0  0
 18 15  1  0  0  0  0
 20 15  1  0  0  0  0
 20 19  2  0  0  0  0
 21 20  1  0  0  0  0
 22 24  1  0  0  0  0
 23 25  2  0  0  0  0
 24 21  2  0  0  0  0
 24 23  1  0  0  0  0
 25 19  1  0  0  0  0
 26 27  1  0  0  0  0
 27 30  1  0  0  0  0
 29 27  1  0  0  0  0
 29 28  1  0  0  0  0
 30 31  1  0  0  0  0
 31 32  1  0  0  0  0
 34 33  1  0  0  0  0
 34 35  1  0  0  0  0
 36 34  1  0  0  0  0
 37 34  1  0  0  0  0
M  END
>  <MODEL>
4

>  <REMARK>
 VINA RESULT:      -7.0      3.081      5.815
  Name = 
  8 active torsions:
  status: ('A' for Active; 'I' for Inactive)
    1  A    between atoms: O_1  and  C_4
    2  A    between atoms: O_1  and  C_27
    3  A    between atoms: C_2  and  O_22
    4  A    between atoms: C_4  and  C_12
    5  A    between atoms: C_4  and  C_37
    6  A    between atoms: C_6  and  O_22
    7  A    between atoms: C_8  and  C_12
    8  A    between atoms: N_23  and  C_30
                            x       y       z     vdW  Elec       q    Type
                         _______ _______ _______ _____ _____    ______ ____

>  <TORSDO>
F 8

$$$$
=
 OpenBabel11122411473D

 37 41  0  0  1  0  0  0  0  0999 V2000
  186.8570  178.6150  142.6100 C   0  0  1  0  0  3  0  0  0  0  0  0
  190.4510  177.4650  143.2480 C   0  0  0  0  0  2  0  0  0  0  0  0
  185.2930  179.0070  140.6390 C   0  0  2  0  0  3  0  0  0  0  0  0
  188.0990  177.8830  142.2440 C   0  0  2  0  0  3  0  0  0  0  0  0
  186.5880  179.4200  141.3590 C   0  0  2  0  0  3  0  0  0  0  0  0
  189.0050  177.8960  143.4950 C   0  0  1  0  0  3  0  0  0  0  0  0
  184.1250  178.9620  141.6350 C   0  0  0  0  0  2  0  0  0  0  0  0
  187.7020  179.3410  140.4970 O   0  0  0  0  0  0  0  0  0  0  0  0
  185.9920  177.1780  144.3180 C   0  0  0  0  0  2  0  0  0  0  0  0
  184.5220  178.4080  143.0080 C   0  0  0  0  0  2  0  0  0  0  0  0
  189.7990  175.8420  141.5400 O   0  0  0  0  0  0  0  0  0  0  0  0
  190.5790  176.0400  142.6920 C   0  0  0  0  0  2  0  0  0  0  0  0
  185.7820  177.6680  142.9550 N   0  0  1  0  0  0  0  0  0  0  0  0
  188.6860  178.5970  141.1030 N   0  0  2  0  0  0  0  0  0  0  0  0
  188.4210  177.1550  144.6300 N   0  0  0  0  0  0  0  0  0  0  0  0
  190.2860  176.7320  140.5750 C   0  0  0  0  0  2  0  0  0  0  0  0
  189.1650  177.6500  140.0740 C   0  0  2  0  0  3  0  0  0  0  0  0
  187.2420  176.3060  144.4280 C   0  0  0  0  0  2  0  0  0  0  0  0
  188.0700  178.0720  146.9040 C   0  0  0  0  0  3  0  0  0  0  0  0
  188.8840  177.4030  145.9740 C   0  0  0  0  0  0  0  0  0  0  0  0
  190.1610  176.9740  146.3800 C   0  0  0  0  0  3  0  0  0  0  0  0
  191.9630  176.7510  148.0950 C   0  0  0  0  0  1  0  0  0  0  0  0
  189.7920  177.8780  148.5950 C   0  0  0  0  0  3  0  0  0  0  0  0
  190.6110  177.2110  147.6820 C   0  0  0  0  0  0  0  0  0  0  0  0
  188.5210  178.3080  148.2060 C   0  0  0  0  0  3  0  0  0  0  0  0
  189.6760  178.3810  138.9780 O   0  0  0  0  0  0  0  0  0  0  0  0
  189.4020  177.7070  137.7640 C   0  0  1  0  0  3  0  0  0  0  0  0
  188.0110  179.5710  137.2020 O   0  0  0  0  0  1  0  0  0  0  0  0
  188.8780  178.6240  136.6590 C   0  0  0  0  0  2  0  0  0  0  0  0
  190.5540  176.8200  137.3050 C   0  0  0  0  0  2  0  0  0  0  0  0
  190.1200  175.3680  137.1900 C   0  0  0  0  0  2  0  0  0  0  0  0
  191.0970  174.5010  137.8230 N   0  0  0  0  0  1  0  0  0  0  0  0
  185.4480  177.7530  140.0160 O   0  0  0  0  0  0  0  0  0  0  0  0
  185.0580  177.8640  138.6630 C   0  0  0  0  0  0  0  0  0  0  0  0
  185.9990  177.2780  137.8340 F   0  0  0  0  0  0  0  0  0  0  0  0
  183.8180  177.2820  138.4420 F   0  0  0  0  0  0  0  0  0  0  0  0
  184.9730  179.2040  138.3390 F   0  0  0  0  0  0  0  0  0  0  0  0
  1 13  1  0  0  0  0
  2  6  1  0  0  0  0
  3  5  1  0  0  0  0
  3  7  1  0  0  0  0
  4  1  1  0  0  0  0
  4  6  1  0  0  0  0
  5  1  1  0  0  0  0
  6 15  1  0  0  0  0
  7 10  1  0  0  0  0
  8 14  1  0  0  0  0
  8  5  1  0  0  0  0
  9 18  1  0  0  0  0
 11 12  1  0  0  0  0
 12  2  1  0  0  0  0
 13 10  1  0  0  0  0
 13  9  1  0  0  0  0
 14  4  1  0  0  0  0
 15 20  1  0  0  0  0
 16 11  1  0  0  0  0
 17 16  1  0  0  0  0
 17 14  1  0  0  0  0
 18 15  1  0  0  0  0
 19 25  1  0  0  0  0
 20 21  1  0  0  0  0
 20 19  2  0  0  0  0
 21 24  2  0  0  0  0
 24 22  1  0  0  0  0
 24 23  1  0  0  0  0
 25 23  2  0  0  0  0
 26 17  1  0  0  0  0
 27 26  1  0  0  0  0
 29 28  1  0  0  0  0
 29 27  1  0  0  0  0
 30 27  1  0  0  0  0
 31 30  1  0  0  0  0
 31 32  1  0  0  0  0
 33  3  1  0  0  0  0
 34 33  1  0  0  0  0
 35 34  1  0  0  0  0
 36 34  1  0  0  0  0
 37 34  1  0  0  0  0
M  END
>  <MODEL>
5

>  <REMARK>
 VINA RESULT:      -6.6      3.345      6.462
  Name = 
  8 active torsions:
  status: ('A' for Active; 'I' for Inactive)
    1  A    between atoms: O_1  and  C_4
    2  A    between atoms: O_1  and  C_27
    3  A    between atoms: C_2  and  O_22
    4  A    between atoms: C_4  and  C_12
    5  A    between atoms: C_4  and  C_37
    6  A    between atoms: C_6  and  O_22
    7  A    between atoms: C_8  and  C_12
    8  A    between atoms: N_23  and  C_30
                            x       y       z     vdW  Elec       q    Type
                         _______ _______ _______ _____ _____    ______ ____

>  <TORSDO>
F 8

$$$$
=
 OpenBabel11122411473D

 37 41  0  0  1  0  0  0  0  0999 V2000
  186.5490  178.6630  143.2280 C   0  0  1  0  0  3  0  0  0  0  0  0
  190.2050  177.5430  143.0620 C   0  0  0  0  0  2  0  0  0  0  0  0
  184.6170  179.1350  141.6390 C   0  0  2  0  0  3  0  0  0  0  0  0
  187.6960  177.9740  142.5780 C   0  0  2  0  0  3  0  0  0  0  0  0
  186.0290  179.5310  142.1040 C   0  0  2  0  0  3  0  0  0  0  0  0
  188.8360  177.9340  143.6200 C   0  0  1  0  0  3  0  0  0  0  0  0
  183.6740  179.0150  142.8450 C   0  0  0  0  0  2  0  0  0  0  0  0
  186.9460  179.5190  141.0330 O   0  0  0  0  0  0  0  0  0  0  0  0
  186.0560  177.1190  144.9900 C   0  0  0  0  0  2  0  0  0  0  0  0
  184.3440  178.3940  144.0760 C   0  0  0  0  0  2  0  0  0  0  0  0
  189.2310  176.0050  141.4310 O   0  0  0  0  0  0  0  0  0  0  0  0
  190.2260  176.1530  142.4110 C   0  0  0  0  0  2  0  0  0  0  0  0
  185.5720  177.6800  143.7270 N   0  0  1  0  0  0  0  0  0  0  0  0
  188.0360  178.7600  141.3850 N   0  0  2  0  0  0  0  0  0  0  0  0
  188.4980  177.1220  144.8050 N   0  0  0  0  0  0  0  0  0  0  0  0
  189.5070  176.9540  140.4400 C   0  0  0  0  0  2  0  0  0  0  0  0
  188.3030  177.8790  140.2280 C   0  0  2  0  0  3  0  0  0  0  0  0
  187.3070  176.2650  144.7960 C   0  0  0  0  0  2  0  0  0  0  0  0
  188.7530  178.1890  147.0250 C   0  0  0  0  0  3  0  0  0  0  0  0
  189.2220  177.3040  146.0400 C   0  0  0  0  0  0  0  0  0  0  0  0
  190.4110  176.5930  146.2820 C   0  0  0  0  0  3  0  0  0  0  0  0
  192.3680  176.0070  147.7190 C   0  0  0  0  0  1  0  0  0  0  0  0
  190.6350  177.6500  148.4480 C   0  0  0  0  0  3  0  0  0  0  0  0
  191.1130  176.7650  147.4790 C   0  0  0  0  0  0  0  0  0  0  0  0
  189.4540  178.3620  148.2220 C   0  0  0  0  0  3  0  0  0  0  0  0
  188.5770  178.6770  139.0960 O   0  0  0  0  0  0  0  0  0  0  0  0
  188.2930  177.9640  137.9070 C   0  0  1  0  0  3  0  0  0  0  0  0
  186.1390  179.0020  137.8190 O   0  0  0  0  0  1  0  0  0  0  0  0
  186.7980  177.7870  137.6410 C   0  0  0  0  0  2  0  0  0  0  0  0
  189.0540  178.4980  136.6980 C   0  0  0  0  0  2  0  0  0  0  0  0
  189.4220  177.3780  135.7390 C   0  0  0  0  0  2  0  0  0  0  0  0
  190.3470  176.4570  136.3750 N   0  0  0  0  0  1  0  0  0  0  0  0
  184.6510  177.9200  140.9260 O   0  0  0  0  0  0  0  0  0  0  0  0
  183.5950  177.9110  139.9870 C   0  0  0  0  0  0  0  0  0  0  0  0
  183.8700  177.0330  138.9520 F   0  0  0  0  0  0  0  0  0  0  0  0
  182.3890  177.5670  140.5800 F   0  0  0  0  0  0  0  0  0  0  0  0
  183.4720  179.1800  139.4540 F   0  0  0  0  0  0  0  0  0  0  0  0
  1 13  1  0  0  0  0
  2  6  1  0  0  0  0
  3  5  1  0  0  0  0
  3  7  1  0  0  0  0
  4  1  1  0  0  0  0
  4  6  1  0  0  0  0
  5  1  1  0  0  0  0
  6 15  1  0  0  0  0
  7 10  1  0  0  0  0
  8 14  1  0  0  0  0
  8  5  1  0  0  0  0
 11 12  1  0  0  0  0
 12  2  1  0  0  0  0
 13 10  1  0  0  0  0
 13  9  1  0  0  0  0
 14  4  1  0  0  0  0
 15 20  1  0  0  0  0
 16 11  1  0  0  0  0
 17 16  1  0  0  0  0
 17 14  1  0  0  0  0
 18 15  1  0  0  0  0
 18  9  1  0  0  0  0
 19 25  1  0  0  0  0
 20 21  1  0  0  0  0
 20 19  2  0  0  0  0
 21 24  2  0  0  0  0
 24 22  1  0  0  0  0
 24 23  1  0  0  0  0
 25 23  2  0  0  0  0
 26 17  1  0  0  0  0
 27 26  1  0  0  0  0
 29 28  1  0  0  0  0
 29 27  1  0  0  0  0
 30 27  1  0  0  0  0
 31 32  1  0  0  0  0
 31 30  1  0  0  0  0
 33  3  1  0  0  0  0
 34 36  1  0  0  0  0
 34 33  1  0  0  0  0
 35 34  1  0  0  0  0
 37 34  1  0  0  0  0
M  END
>  <MODEL>
6

>  <REMARK>
 VINA RESULT:      -6.6      3.395      6.603
  Name = 
  8 active torsions:
  status: ('A' for Active; 'I' for Inactive)
    1  A    between atoms: O_1  and  C_4
    2  A    between atoms: O_1  and  C_27
    3  A    between atoms: C_2  and  O_22
    4  A    between atoms: C_4  and  C_12
    5  A    between atoms: C_4  and  C_37
    6  A    between atoms: C_6  and  O_22
    7  A    between atoms: C_8  and  C_12
    8  A    between atoms: N_23  and  C_30
                            x       y       z     vdW  Elec       q    Type
                         _______ _______ _______ _____ _____    ______ ____

>  <TORSDO>
F 8

$$$$
=
 OpenBabel11122411473D

 37 41  0  0  1  0  0  0  0  0999 V2000
  186.7540  178.5670  142.6500 C   0  0  1  0  0  3  0  0  0  0  0  0
  190.4530  177.6470  142.3080 C   0  0  0  0  0  2  0  0  0  0  0  0
  184.7610  179.0810  141.1490 C   0  0  2  0  0  3  0  0  0  0  0  0
  187.9150  177.9950  141.9170 C   0  0  2  0  0  3  0  0  0  0  0  0
  186.1640  179.5030  141.6190 C   0  0  2  0  0  3  0  0  0  0  0  0
  189.0810  177.9190  142.9270 C   0  0  1  0  0  3  0  0  0  0  0  0
  183.8560  178.8080  142.3590 C   0  0  0  0  0  2  0  0  0  0  0  0
  187.0540  179.6310  140.5320 O   0  0  0  0  0  0  0  0  0  0  0  0
  186.3780  176.8510  144.2770 C   0  0  0  0  0  2  0  0  0  0  0  0
  184.5860  178.1140  143.5150 C   0  0  0  0  0  2  0  0  0  0  0  0
  189.5120  176.2130  140.5670 O   0  0  0  0  0  0  0  0  0  0  0  0
  190.5240  176.3220  141.5360 C   0  0  0  0  0  2  0  0  0  0  0  0
  185.8360  177.4960  143.0790 N   0  0  1  0  0  0  0  0  0  0  0  0
  188.1870  178.8990  140.7920 N   0  0  2  0  0  0  0  0  0  0  0  0
  188.8120  176.9900  144.0410 N   0  0  0  0  0  0  0  0  0  0  0  0
  189.7180  177.2580  139.6590 C   0  0  0  0  0  2  0  0  0  0  0  0
  188.4660  178.1380  139.5560 C   0  0  2  0  0  3  0  0  0  0  0  0
  187.6630  176.0790  143.9810 C   0  0  0  0  0  2  0  0  0  0  0  0
  190.9000  176.6880  145.3400 C   0  0  0  0  0  3  0  0  0  0  0  0
  189.5570  177.0980  145.2730 C   0  0  0  0  0  0  0  0  0  0  0  0
  188.9530  177.6210  146.4300 C   0  0  0  0  0  3  0  0  0  0  0  0
  189.0190  178.2840  148.8370 C   0  0  0  0  0  1  0  0  0  0  0  0
  191.0060  177.3170  147.6750 C   0  0  0  0  0  3  0  0  0  0  0  0
  189.6730  177.7300  147.6230 C   0  0  0  0  0  0  0  0  0  0  0  0
  191.6200  176.7970  146.5320 C   0  0  0  0  0  3  0  0  0  0  0  0
  188.6740  179.0450  138.4940 O   0  0  0  0  0  0  0  0  0  0  0  0
  188.1110  178.5430  137.2960 C   0  0  1  0  0  3  0  0  0  0  0  0
  189.6220  176.9350  136.3710 O   0  0  0  0  0  1  0  0  0  0  0  0
  189.1450  178.2360  136.2140 C   0  0  0  0  0  2  0  0  0  0  0  0
  187.1400  177.3910  137.5350 C   0  0  0  0  0  2  0  0  0  0  0  0
  186.1950  177.2130  136.3580 C   0  0  0  0  0  2  0  0  0  0  0  0
  186.3760  175.9010  135.7640 N   0  0  0  0  0  1  0  0  0  0  0  0
  184.8350  177.9360  140.3310 O   0  0  0  0  0  0  0  0  0  0  0  0
  183.9500  178.0960  139.2410 C   0  0  0  0  0  0  0  0  0  0  0  0
  182.6700  178.3750  139.6890 F   0  0  0  0  0  0  0  0  0  0  0  0
  184.3730  179.1030  138.3850 F   0  0  0  0  0  0  0  0  0  0  0  0
  183.9090  176.9110  138.5320 F   0  0  0  0  0  0  0  0  0  0  0  0
  1 13  1  0  0  0  0
  2  6  1  0  0  0  0
  3  5  1  0  0  0  0
  3  7  1  0  0  0  0
  4  1  1  0  0  0  0
  4  6  1  0  0  0  0
  5  1  1  0  0  0  0
  6 15  1  0  0  0  0
  7 10  1  0  0  0  0
  8 14  1  0  0  0  0
  8  5  1  0  0  0  0
 11 12  1  0  0  0  0
 12  2  1  0  0  0  0
 13 10  1  0  0  0  0
 13  9  1  0  0  0  0
 14  4  1  0  0  0  0
 15 20  1  0  0  0  0
 16 11  1  0  0  0  0
 17 16  1  0  0  0  0
 17 14  1  0  0  0  0
 18 15  1  0  0  0  0
 18  9  1  0  0  0  0
 19 25  1  0  0  0  0
 20 19  2  0  0  0  0
 20 21  1  0  0  0  0
 21 24  2  0  0  0  0
 24 23  1  0  0  0  0
 24 22  1  0  0  0  0
 25 23  2  0  0  0  0
 26 17  1  0  0  0  0
 27 30  1  0  0  0  0
 27 26  1  0  0  0  0
 29 28  1  0  0  0  0
 29 27  1  0  0  0  0
 31 30  1  0  0  0  0
 32 31  1  0  0  0  0
 33  3  1  0  0  0  0
 34 35  1  0  0  0  0
 34 33  1  0  0  0  0
 36 34  1  0  0  0  0
 37 34  1  0  0  0  0
M  END
>  <MODEL>
7

>  <REMARK>
 VINA RESULT:      -6.3      3.514      6.612
  Name = 
  8 active torsions:
  status: ('A' for Active; 'I' for Inactive)
    1  A    between atoms: O_1  and  C_4
    2  A    between atoms: O_1  and  C_27
    3  A    between atoms: C_2  and  O_22
    4  A    between atoms: C_4  and  C_12
    5  A    between atoms: C_4  and  C_37
    6  A    between atoms: C_6  and  O_22
    7  A    between atoms: C_8  and  C_12
    8  A    between atoms: N_23  and  C_30
                            x       y       z     vdW  Elec       q    Type
                         _______ _______ _______ _____ _____    ______ ____

>  <TORSDO>
F 8

$$$$
=
 OpenBabel11122411473D

 37 41  0  0  1  0  0  0  0  0999 V2000
  186.1590  178.6580  141.8290 C   0  0  1  0  0  3  0  0  0  0  0  0
  189.5870  177.9620  140.2740 C   0  0  0  0  0  2  0  0  0  0  0  0
  183.7180  178.7720  141.1110 C   0  0  2  0  0  3  0  0  0  0  0  0
  187.0510  178.0570  140.8010 C   0  0  2  0  0  3  0  0  0  0  0  0
  185.1310  179.3660  140.9750 C   0  0  2  0  0  3  0  0  0  0  0  0
  188.4980  178.2340  141.3130 C   0  0  1  0  0  3  0  0  0  0  0  0
  183.3390  178.6400  142.5930 C   0  0  0  0  0  2  0  0  0  0  0  0
  185.5570  179.3750  139.6300 O   0  0  0  0  0  0  0  0  0  0  0  0
  186.6010  177.2140  143.6860 C   0  0  0  0  0  2  0  0  0  0  0  0
  184.5100  178.2020  143.4800 C   0  0  0  0  0  2  0  0  0  0  0  0
  188.2840  176.1950  139.2000 O   0  0  0  0  0  0  0  0  0  0  0  0
  189.5490  176.5360  139.7070 C   0  0  0  0  0  2  0  0  0  0  0  0
  185.5950  177.6110  142.6990 N   0  0  1  0  0  0  0  0  0  0  0  0
  186.7930  178.7790  139.5480 N   0  0  2  0  0  0  0  0  0  0  0  0
  188.7580  177.4860  142.5580 N   0  0  0  0  0  0  0  0  0  0  0  0
  188.0220  177.0870  138.1530 C   0  0  0  0  0  2  0  0  0  0  0  0
  186.7140  177.8450  138.4050 C   0  0  2  0  0  3  0  0  0  0  0  0
  187.7870  176.4980  143.0410 C   0  0  0  0  0  2  0  0  0  0  0  0
  190.5090  179.0920  143.2570 C   0  0  0  0  0  3  0  0  0  0  0  0
  189.8690  177.8500  143.4050 C   0  0  0  0  0  0  0  0  0  0  0  0
  190.3280  176.9670  144.3990 C   0  0  0  0  0  3  0  0  0  0  0  0
  191.8740  176.3740  146.2680 C   0  0  0  0  0  1  0  0  0  0  0  0
  192.0290  178.5560  145.0630 C   0  0  0  0  0  3  0  0  0  0  0  0
  191.4010  177.3180  145.2220 C   0  0  0  0  0  0  0  0  0  0  0  0
  191.5830  179.4430  144.0800 C   0  0  0  0  0  3  0  0  0  0  0  0
  186.4180  178.5770  137.2330 O   0  0  0  0  0  0  0  0  0  0  0  0
  185.5420  177.8410  136.3990 C   0  0  1  0  0  3  0  0  0  0  0  0
  187.3950  178.0950  134.9070 O   0  0  0  0  0  1  0  0  0  0  0  0
  186.1170  177.5460  135.0150 C   0  0  0  0  0  2  0  0  0  0  0  0
  184.9720  176.6030  137.0830 C   0  0  0  0  0  2  0  0  0  0  0  0
  184.8410  175.4450  136.1070 C   0  0  0  0  0  2  0  0  0  0  0  0
  183.5390  174.8170  136.2470 N   0  0  0  0  0  1  0  0  0  0  0  0
  183.6440  177.5160  140.4770 O   0  0  0  0  0  0  0  0  0  0  0  0
  182.5170  177.5000  139.6260 C   0  0  0  0  0  0  0  0  0  0  0  0
  182.6320  178.4710  138.6450 F   0  0  0  0  0  0  0  0  0  0  0  0
  182.3450  176.2580  139.0320 F   0  0  0  0  0  0  0  0  0  0  0  0
  181.3940  177.7810  140.3790 F   0  0  0  0  0  0  0  0  0  0  0  0
  1 13  1  0  0  0  0
  2  6  1  0  0  0  0
  3  7  1  0  0  0  0
  4  6  1  0  0  0  0
  4  1  1  0  0  0  0
  5  3  1  0  0  0  0
  5  1  1  0  0  0  0
  6 15  1  0  0  0  0
  7 10  1  0  0  0  0
  8  5  1  0  0  0  0
 11 12  1  0  0  0  0
 12  2  1  0  0  0  0
 13 10  1  0  0  0  0
 13  9  1  0  0  0  0
 14  8  1  0  0  0  0
 14  4  1  0  0  0  0
 15 18  1  0  0  0  0
 15 20  1  0  0  0  0
 16 17  1  0  0  0  0
 16 11  1  0  0  0  0
 17 14  1  0  0  0  0
 18  9  1  0  0  0  0
 19 20  2  0  0  0  0
 19 25  1  0  0  0  0
 20 21  1  0  0  0  0
 21 24  2  0  0  0  0
 23 24  1  0  0  0  0
 24 22  1  0  0  0  0
 25 23  2  0  0  0  0
 26 17  1  0  0  0  0
 27 30  1  0  0  0  0
 27 26  1  0  0  0  0
 28 29  1  0  0  0  0
 29 27  1  0  0  0  0
 31 32  1  0  0  0  0
 31 30  1  0  0  0  0
 33  3  1  0  0  0  0
 34 37  1  0  0  0  0
 34 33  1  0  0  0  0
 35 34  1  0  0  0  0
 36 34  1  0  0  0  0
M  END
>  <MODEL>
8

>  <REMARK>
 VINA RESULT:      -5.8      3.954      7.223
  Name = 
  8 active torsions:
  status: ('A' for Active; 'I' for Inactive)
    1  A    between atoms: O_1  and  C_4
    2  A    between atoms: O_1  and  C_27
    3  A    between atoms: C_2  and  O_22
    4  A    between atoms: C_4  and  C_12
    5  A    between atoms: C_4  and  C_37
    6  A    between atoms: C_6  and  O_22
    7  A    between atoms: C_8  and  C_12
    8  A    between atoms: N_23  and  C_30
                            x       y       z     vdW  Elec       q    Type
                         _______ _______ _______ _____ _____    ______ ____

>  <TORSDO>
F 8

$$$$
=
 OpenBabel11122411473D

 37 41  0  0  1  0  0  0  0  0999 V2000
  187.6780  177.1590  142.2020 C   0  0  1  0  0  3  0  0  0  0  0  0
  187.3410  177.5570  138.4100 C   0  0  0  0  0  2  0  0  0  0  0  0
  189.5170  177.0580  143.9610 C   0  0  2  0  0  3  0  0  0  0  0  0
  188.1580  177.6120  140.8690 C   0  0  2  0  0  3  0  0  0  0  0  0
  188.8780  176.4010  142.7250 C   0  0  2  0  0  3  0  0  0  0  0  0
  186.9760  177.4390  139.8910 C   0  0  1  0  0  3  0  0  0  0  0  0
  188.4430  177.3640  145.0140 C   0  0  0  0  0  2  0  0  0  0  0  0
  189.8190  176.2310  141.6890 O   0  0  0  0  0  0  0  0  0  0  0  0
  185.9660  178.7800  142.6210 C   0  0  0  0  0  2  0  0  0  0  0  0
  187.1230  177.8520  144.4080 C   0  0  0  0  0  2  0  0  0  0  0  0
  189.0560  179.2430  138.8480 O   0  0  0  0  0  0  0  0  0  0  0  0
  187.9560  178.9130  138.0380 C   0  0  0  0  0  2  0  0  0  0  0  0
  187.2930  178.3150  143.0310 N   0  0  1  0  0  0  0  0  0  0  0  0
  189.3120  176.7690  140.5300 N   0  0  2  0  0  0  0  0  0  0  0  0
  185.8300  178.3080  140.2210 N   0  0  0  0  0  0  0  0  0  0  0  0
  190.0210  178.2530  138.6290 C   0  0  0  0  0  2  0  0  0  0  0  0
  190.4070  177.5750  139.9490 C   0  0  2  0  0  3  0  0  0  0  0  0
  185.9780  179.3780  141.2150 C   0  0  0  0  0  2  0  0  0  0  0  0
  183.4360  177.7920  140.5940 C   0  0  0  0  0  3  0  0  0  0  0  0
  184.5140  177.9980  139.7160 C   0  0  0  0  0  0  0  0  0  0  0  0
  184.2860  177.9000  138.3310 C   0  0  0  0  0  3  0  0  0  0  0  0
  182.7880  177.5030  136.3730 C   0  0  0  0  0  1  0  0  0  0  0  0
  181.9500  177.3990  138.7230 C   0  0  0  0  0  3  0  0  0  0  0  0
  183.0120  177.6020  137.8390 C   0  0  0  0  0  0  0  0  0  0  0  0
  182.1620  177.4950  140.1010 C   0  0  0  0  0  3  0  0  0  0  0  0
  191.5080  176.7320  139.6840 O   0  0  0  0  0  0  0  0  0  0  0  0
  191.5740  176.4210  138.3050 C   0  0  1  0  0  3  0  0  0  0  0  0
  193.9300  176.3780  138.7190 O   0  0  0  0  0  1  0  0  0  0  0  0
  192.9770  176.5450  137.7140 C   0  0  0  0  0  2  0  0  0  0  0  0
  190.8980  175.0980  137.9620 C   0  0  0  0  0  2  0  0  0  0  0  0
  190.6740  174.9650  136.4650 C   0  0  0  0  0  2  0  0  0  0  0  0
  189.5300  175.7610  136.0560 N   0  0  0  0  0  1  0  0  0  0  0  0
  190.1950  178.2400  143.6010 O   0  0  0  0  0  0  0  0  0  0  0  0
  191.5440  178.1330  144.0060 C   0  0  0  0  0  0  0  0  0  0  0  0
  192.0690  179.3830  144.2900 F   0  0  0  0  0  0  0  0  0  0  0  0
  191.6810  177.3090  145.1130 F   0  0  0  0  0  0  0  0  0  0  0  0
  192.2720  177.5880  142.9650 F   0  0  0  0  0  0  0  0  0  0  0  0
  1  5  1  0  0  0  0
  1 13  1  0  0  0  0
  2  6  1  0  0  0  0
  3  7  1  0  0  0  0
  4  1  1  0  0  0  0
  5  3  1  0  0  0  0
  6 15  1  0  0  0  0
  6  4  1  0  0  0  0
  8  5  1  0  0  0  0
  9 13  1  0  0  0  0
 10  7  1  0  0  0  0
 12  2  1  0  0  0  0
 12 11  1  0  0  0  0
 13 10  1  0  0  0  0
 14  4  1  0  0  0  0
 14  8  1  0  0  0  0
 15 18  1  0  0  0  0
 16 11  1  0  0  0  0
 16 17  1  0  0  0  0
 17 14  1  0  0  0  0
 18  9  1  0  0  0  0
 20 15  1  0  0  0  0
 20 19  2  0  0  0  0
 21 20  1  0  0  0  0
 22 24  1  0  0  0  0
 23 25  2  0  0  0  0
 24 21  2  0  0  0  0
 24 23  1  0  0  0  0
 25 19  1  0  0  0  0
 26 17  1  0  0  0  0
 27 26  1  0  0  0  0
 29 27  1  0  0  0  0
 29 28  1  0  0  0  0
 30 27  1  0  0  0  0
 31 30  1  0  0  0  0
 32 31  1  0  0  0  0
 33  3  1  0  0  0  0
 33 34  1  0  0  0  0
 34 35  1  0  0  0  0
 34 36  1  0  0  0  0
 37 34  1  0  0  0  0
M  END
>  <MODEL>
9

>  <REMARK>
 VINA RESULT:      -5.6      2.118      3.162
  Name = 
  8 active torsions:
  status: ('A' for Active; 'I' for Inactive)
    1  A    between atoms: O_1  and  C_4
    2  A    between atoms: O_1  and  C_27
    3  A    between atoms: C_2  and  O_22
    4  A    between atoms: C_4  and  C_12
    5  A    between atoms: C_4  and  C_37
    6  A    between atoms: C_6  and  O_22
    7  A    between atoms: C_8  and  C_12
    8  A    between atoms: N_23  and  C_30
                            x       y       z     vdW  Elec       q    Type
                         _______ _______ _______ _____ _____    ______ ____

>  <TORSDO>
F 8

$$$$
