=
 OpenBabel11122410403D

 32 37  0  0  1  0  0  0  0  0999 V2000
  189.6160  176.0880  137.2220 C   0  0  0  0  0  2  0  0  0  0  0  0
  186.4550  178.5070  140.0570 N   0  0  0  0  0  0  0  0  0  0  0  0
  187.5260  177.6330  144.8070 C   0  0  0  0  0  3  0  0  0  0  0  0
  186.2210  177.7430  145.0570 C   0  0  0  0  0  3  0  0  0  0  0  0
  184.0740  179.0980  139.3430 C   0  0  1  0  0  3  0  0  0  0  0  0
  182.6300  178.7540  139.6990 C   0  0  1  0  0  3  0  0  0  0  0  0
  188.3220  178.6290  138.4370 C   0  0  1  0  0  3  0  0  0  0  0  0
  188.9000  178.1710  140.6820 C   0  0  0  0  0  2  0  0  0  0  0  0
  181.0700  178.2250  141.4350 C   0  0  2  0  0  3  0  0  0  0  0  0
  190.4790  177.7180  139.0090 C   0  0  0  0  0  2  0  0  0  0  0  0
  188.1180  177.8780  143.4450 C   0  0  0  0  0  3  0  0  0  0  0  0
  187.4450  178.2230  141.0750 C   0  0  0  0  0  0  0  0  0  0  0  0
  187.0850  178.1090  142.3650 C   0  0  0  0  0  0  0  0  0  0  0  0
  184.6670  178.5880  141.6870 C   0  0  0  0  0  0  0  0  0  0  0  0
  181.1540  177.0300  140.4920 C   0  0  0  0  0  2  0  0  0  0  0  0
  188.7020  177.0380  136.4340 C   0  0  0  0  0  2  0  0  0  0  0  0
  189.0470  177.6960  139.3120 N   0  0  2  0  0  0  0  0  0  0  0  0
  182.3150  177.2850  139.5440 C   0  0  0  0  0  2  0  0  0  0  0  0
  188.6790  178.4830  136.9470 C   0  0  0  0  0  2  0  0  0  0  0  0
  190.8410  176.7770  137.8450 C   0  0  1  0  0  3  0  0  0  0  0  0
  185.2640  178.0880  143.9940 C   0  0  0  0  0  3  0  0  0  0  0  0
  185.6560  178.2580  142.7290 C   0  0  1  0  0  3  0  0  0  0  0  0
  183.3190  178.7440  142.0450 O   0  0  0  0  0  0  0  0  0  0  0  0
  186.8210  178.4390  138.6380 C   0  0  0  0  0  2  0  0  0  0  0  0
  184.1810  180.4670  139.0940 O   0  0  0  0  0  1  0  0  0  0  0  0
  179.9010  178.9390  141.1720 O   0  0  0  0  0  1  0  0  0  0  0  0
  185.0650  178.7000  140.4070 C   0  0  0  0  0  0  0  0  0  0  0  0
  182.2740  179.0990  141.1360 C   0  0  1  0  0  3  0  0  0  0  0  0
  191.8310  175.7370  138.3420 C   0  0  0  0  0  2  0  0  0  0  0  0
  193.2220  176.2690  138.3080 C   0  0  0  0  0  0  0  0  0  0  0  0
  193.8100  176.7530  139.4680 O   0  0  0  0  0  1  0  0  0  0  0  0
  193.8760  176.2530  137.2330 O   0  0  0  0  0  0  0  0  0  0  0  0
  1 20  1  0  0  0  0
  2 27  1  0  0  0  0
  2 12  1  0  0  0  0
  3  4  1  0  0  0  0
  5 25  1  1  0  0  0
  5  6  1  0  0  0  0
  5 27  1  0  0  0  0
  6 18  1  1  0  0  0
  6 28  1  0  0  0  0
  7 19  1  6  0  0  0
  7 24  1  0  0  0  0
  7 17  1  0  0  0  0
  8 12  1  0  0  0  0
  9 26  1  6  0  0  0
 11  3  2  0  0  0  0
 12 13  2  0  0  0  0
 13 22  1  0  0  0  0
 13 11  1  0  0  0  0
 14 23  1  0  0  0  0
 14 22  1  0  0  0  0
 15  9  1  0  0  0  0
 16 19  1  0  0  0  0
 16  1  1  0  0  0  0
 17 10  1  6  0  0  0
 17  8  1  0  0  0  0
 18 15  1  0  0  0  0
 20 29  1  1  0  0  0
 20 10  1  0  0  0  0
 21  4  2  0  0  0  0
 22 21  1  6  0  0  0
 24  2  1  0  0  0  0
 27 14  2  0  0  0  0
 28  9  1  0  0  0  0
 28 23  1  1  0  0  0
 30 29  1  0  0  0  0
 30 31  1  0  0  0  0
 32 30  2  0  0  0  0
M  END
>  <MODEL>
1

>  <REMARK>
 VINA RESULT:      -9.2      0.000      0.000
  Name = 
  2 active torsions:
  status: ('A' for Active; 'I' for Inactive)
    1  A    between atoms: C_20  and  C_29
    2  A    between atoms: C_29  and  C_30
                            x       y       z     vdW  Elec       q    Type
                         _______ _______ _______ _____ _____    ______ ____

>  <TORSDO>
F 2

$$$$
=
 OpenBabel11122410403D

 32 37  0  0  1  0  0  0  0  0999 V2000
  191.2570  175.9540  144.2230 C   0  0  0  0  0  2  0  0  0  0  0  0
  188.1720  178.2010  141.1690 N   0  0  0  0  0  0  0  0  0  0  0  0
  183.7730  178.7040  143.3740 C   0  0  0  0  0  3  0  0  0  0  0  0
  183.2230  178.5780  142.1660 C   0  0  0  0  0  3  0  0  0  0  0  0
  188.3500  178.0690  138.6240 C   0  0  1  0  0  3  0  0  0  0  0  0
  187.5850  177.5060  137.4280 C   0  0  1  0  0  3  0  0  0  0  0  0
  190.2090  178.3560  142.5660 C   0  0  1  0  0  3  0  0  0  0  0  0
  188.1400  178.5680  143.6890 C   0  0  0  0  0  2  0  0  0  0  0  0
  185.4460  177.0600  136.4530 C   0  0  2  0  0  3  0  0  0  0  0  0
  190.0550  178.1020  144.9580 C   0  0  0  0  0  2  0  0  0  0  0  0
  185.2620  178.7530  143.5900 C   0  0  0  0  0  3  0  0  0  0  0  0
  187.4060  178.3860  142.3840 C   0  0  0  0  0  0  0  0  0  0  0  0
  186.0670  178.4950  142.3360 C   0  0  0  0  0  0  0  0  0  0  0  0
  186.1820  178.2580  139.7930 C   0  0  0  0  0  0  0  0  0  0  0  0
  186.1590  175.7280  136.6630 C   0  0  0  0  0  2  0  0  0  0  0  0
  191.9380  176.4710  142.9480 C   0  0  0  0  0  2  0  0  0  0  0  0
  189.3990  177.8340  143.6780 N   0  0  2  0  0  0  0  0  0  0  0  0
  187.4000  176.0080  137.4960 C   0  0  0  0  0  2  0  0  0  0  0  0
  191.6920  177.9530  142.6400 C   0  0  0  0  0  2  0  0  0  0  0  0
  191.0930  177.0220  145.3170 C   0  0  1  0  0  3  0  0  0  0  0  0
  184.0510  178.4480  140.9560 C   0  0  0  0  0  3  0  0  0  0  0  0
  185.3840  178.4040  141.0240 C   0  0  1  0  0  3  0  0  0  0  0  0
  185.5260  178.1890  138.5550 O   0  0  0  0  0  0  0  0  0  0  0  0
  189.6050  177.8900  141.2450 C   0  0  0  0  0  2  0  0  0  0  0  0
  188.8500  179.3320  138.3050 O   0  0  0  0  0  1  0  0  0  0  0  0
  185.5230  177.4170  135.1070 O   0  0  0  0  0  1  0  0  0  0  0  0
  187.5200  178.1570  139.8790 C   0  0  0  0  0  0  0  0  0  0  0  0
  186.1860  178.0850  137.2910 C   0  0  1  0  0  3  0  0  0  0  0  0
  190.6920  176.3700  146.6290 C   0  0  0  0  0  2  0  0  0  0  0  0
  191.8620  176.2580  147.5460 C   0  0  0  0  0  0  0  0  0  0  0  0
  192.7650  175.2150  147.3960 O   0  0  0  0  0  0  0  0  0  0  0  0
  192.0480  177.1260  148.4370 O   0  0  0  0  0  1  0  0  0  0  0  0
  1 20  1  0  0  0  0
  2 24  1  0  0  0  0
  2 12  1  0  0  0  0
  3 11  2  0  0  0  0
  4  3  1  0  0  0  0
  5 25  1  6  0  0  0
  5 27  1  0  0  0  0
  6 18  1  1  0  0  0
  6  5  1  0  0  0  0
  7 24  1  6  0  0  0
  7 19  1  0  0  0  0
  7 17  1  0  0  0  0
  9 26  1  6  0  0  0
  9 15  1  0  0  0  0
  9 28  1  0  0  0  0
 10 20  1  0  0  0  0
 12  8  1  0  0  0  0
 13 12  2  0  0  0  0
 13 11  1  0  0  0  0
 14 27  2  0  0  0  0
 14 22  1  0  0  0  0
 15 18  1  0  0  0  0
 16  1  1  0  0  0  0
 17  8  1  1  0  0  0
 17 10  1  0  0  0  0
 19 16  1  0  0  0  0
 20 29  1  1  0  0  0
 21  4  2  0  0  0  0
 22 21  1  1  0  0  0
 22 13  1  0  0  0  0
 23 14  1  0  0  0  0
 27  2  1  0  0  0  0
 28  6  1  0  0  0  0
 28 23  1  1  0  0  0
 29 30  1  0  0  0  0
 30 32  1  0  0  0  0
 31 30  2  0  0  0  0
M  END
>  <MODEL>
2

>  <REMARK>
 VINA RESULT:      -8.8      3.446      5.719
  Name = 
  2 active torsions:
  status: ('A' for Active; 'I' for Inactive)
    1  A    between atoms: C_20  and  C_29
    2  A    between atoms: C_29  and  C_30
                            x       y       z     vdW  Elec       q    Type
                         _______ _______ _______ _____ _____    ______ ____

>  <TORSDO>
F 2

$$$$
=
 OpenBabel11122410403D

 32 37  0  0  1  0  0  0  0  0999 V2000
  188.5910  176.2820  143.5680 C   0  0  0  0  0  2  0  0  0  0  0  0
  190.5100  177.1100  139.1500 N   0  0  0  0  0  0  0  0  0  0  0  0
  186.8660  178.0580  135.9420 C   0  0  0  0  0  3  0  0  0  0  0  0
  187.6230  177.4810  135.0080 C   0  0  0  0  0  3  0  0  0  0  0  0
  192.7230  176.1100  138.3560 C   0  0  1  0  0  3  0  0  0  0  0  0
  193.2500  175.1150  137.3240 C   0  0  1  0  0  3  0  0  0  0  0  0
  190.2440  177.8790  141.4880 C   0  0  1  0  0  3  0  0  0  0  0  0
  188.4500  178.3310  140.0170 C   0  0  0  0  0  2  0  0  0  0  0  0
  193.0270  174.2150  135.1180 C   0  0  2  0  0  3  0  0  0  0  0  0
  188.0610  178.4660  142.3250 C   0  0  0  0  0  2  0  0  0  0  0  0
  187.3410  178.2780  137.3530 C   0  0  0  0  0  3  0  0  0  0  0  0
  189.1940  177.6560  138.8920 C   0  0  0  0  0  0  0  0  0  0  0  0
  188.6860  177.6520  137.6470 C   0  0  0  0  0  0  0  0  0  0  0  0
  190.8390  176.5500  136.8190 C   0  0  0  0  0  0  0  0  0  0  0  0
  192.7720  173.0910  136.1180 C   0  0  0  0  0  2  0  0  0  0  0  0
  190.1240  176.3650  143.5810 C   0  0  0  0  0  2  0  0  0  0  0  0
  188.7940  177.7260  141.2970 N   0  0  2  0  0  0  0  0  0  0  0  0
  192.6800  173.7260  137.4960 C   0  0  0  0  0  2  0  0  0  0  0  0
  190.7070  177.6270  142.9330 C   0  0  0  0  0  2  0  0  0  0  0  0
  187.8930  177.6510  143.6210 C   0  0  1  0  0  3  0  0  0  0  0  0
  188.9770  176.9920  135.3130 C   0  0  0  0  0  3  0  0  0  0  0  0
  189.4840  177.0640  136.5460 C   0  0  1  0  0  3  0  0  0  0  0  0
  191.5920  176.0100  135.7660 O   0  0  0  0  0  0  0  0  0  0  0  0
  190.9760  176.9420  140.5320 C   0  0  0  0  0  2  0  0  0  0  0  0
  193.5750  177.2120  138.4190 O   0  0  0  0  0  1  0  0  0  0  0  0
  194.3120  174.0840  134.5940 O   0  0  0  0  0  1  0  0  0  0  0  0
  191.3160  176.5750  138.0760 C   0  0  0  0  0  0  0  0  0  0  0  0
  192.9280  175.5150  135.8930 C   0  0  1  0  0  3  0  0  0  0  0  0
  186.4110  177.4730  143.9020 C   0  0  0  0  0  2  0  0  0  0  0  0
  186.0710  177.9420  145.2760 C   0  0  0  0  0  0  0  0  0  0  0  0
  185.0240  178.8320  145.4680 O   0  0  0  0  0  0  0  0  0  0  0  0
  186.7150  177.5080  146.2660 O   0  0  0  0  0  1  0  0  0  0  0  0
  1 16  1  0  0  0  0
  1 20  1  0  0  0  0
  2 24  1  0  0  0  0
  3 11  2  0  0  0  0
  4 21  2  0  0  0  0
  4  3  1  0  0  0  0
  5 25  1  6  0  0  0
  6 18  1  1  0  0  0
  6  5  1  0  0  0  0
  7 24  1  6  0  0  0
  7 19  1  0  0  0  0
  9 26  1  1  0  0  0
  9 28  1  0  0  0  0
  9 15  1  0  0  0  0
 10 20  1  0  0  0  0
 11 13  1  0  0  0  0
 12  2  1  0  0  0  0
 12  8  1  0  0  0  0
 13 12  2  0  0  0  0
 14 27  2  0  0  0  0
 15 18  1  0  0  0  0
 17  8  1  6  0  0  0
 17  7  1  0  0  0  0
 17 10  1  0  0  0  0
 19 16  1  0  0  0  0
 20 29  1  6  0  0  0
 22 21  1  1  0  0  0
 22 14  1  0  0  0  0
 22 13  1  0  0  0  0
 23 14  1  0  0  0  0
 27  5  1  0  0  0  0
 27  2  1  0  0  0  0
 28 23  1  1  0  0  0
 28  6  1  0  0  0  0
 29 30  1  0  0  0  0
 30 31  2  0  0  0  0
 30 32  1  0  0  0  0
M  END
>  <MODEL>
3

>  <REMARK>
 VINA RESULT:      -8.4      3.233      8.908
  Name = 
  2 active torsions:
  status: ('A' for Active; 'I' for Inactive)
    1  A    between atoms: C_20  and  C_29
    2  A    between atoms: C_29  and  C_30
                            x       y       z     vdW  Elec       q    Type
                         _______ _______ _______ _____ _____    ______ ____

>  <TORSDO>
F 2

$$$$
=
 OpenBabel11122410403D

 32 37  0  0  1  0  0  0  0  0999 V2000
  188.2720  176.4290  143.8170 C   0  0  0  0  0  2  0  0  0  0  0  0
  184.6480  178.4730  141.2540 N   0  0  0  0  0  0  0  0  0  0  0  0
  180.5800  178.6780  144.0610 C   0  0  0  0  0  3  0  0  0  0  0  0
  179.8750  178.5190  142.9410 C   0  0  0  0  0  3  0  0  0  0  0  0
  184.4730  178.3600  138.7080 C   0  0  1  0  0  3  0  0  0  0  0  0
  183.5850  177.7500  137.6250 C   0  0  1  0  0  3  0  0  0  0  0  0
  186.8470  178.7600  142.3530 C   0  0  1  0  0  3  0  0  0  0  0  0
  184.9480  178.8310  143.7570 C   0  0  0  0  0  2  0  0  0  0  0  0
  181.3640  177.1660  136.9560 C   0  0  2  0  0  3  0  0  0  0  0  0
  187.0490  178.4900  144.7390 C   0  0  0  0  0  2  0  0  0  0  0  0
  182.0780  178.8250  144.0670 C   0  0  0  0  0  3  0  0  0  0  0  0
  184.0500  178.6040  142.5670 C   0  0  0  0  0  0  0  0  0  0  0  0
  182.7140  178.6240  142.7090 C   0  0  0  0  0  0  0  0  0  0  0  0
  182.4840  178.4010  140.1720 C   0  0  0  0  0  0  0  0  0  0  0  0
  182.1850  175.8840  137.0480 C   0  0  0  0  0  2  0  0  0  0  0  0
  188.7320  176.9930  142.4650 C   0  0  0  0  0  2  0  0  0  0  0  0
  186.2380  178.1830  143.5610 N   0  0  2  0  0  0  0  0  0  0  0  0
  183.5100  176.2430  137.7010 C   0  0  0  0  0  2  0  0  0  0  0  0
  188.3490  178.4560  142.2130 C   0  0  0  0  0  2  0  0  0  0  0  0
  188.1950  177.4800  144.9360 C   0  0  1  0  0  3  0  0  0  0  0  0
  180.5300  178.4470  141.6260 C   0  0  0  0  0  3  0  0  0  0  0  0
  181.8600  178.4920  141.5050 C   0  0  1  0  0  3  0  0  0  0  0  0
  181.6650  178.2930  139.0380 O   0  0  0  0  0  0  0  0  0  0  0  0
  186.0940  178.2580  141.1240 C   0  0  0  0  0  2  0  0  0  0  0  0
  184.8390  179.6540  138.3370 O   0  0  0  0  0  1  0  0  0  0  0  0
  181.2260  177.5300  135.6170 O   0  0  0  0  0  1  0  0  0  0  0  0
  183.8240  178.3890  140.0680 C   0  0  0  0  0  0  0  0  0  0  0  0
  182.1460  178.2360  137.6930 C   0  0  1  0  0  3  0  0  0  0  0  0
  188.0270  176.8000  146.2840 C   0  0  0  0  0  2  0  0  0  0  0  0
  189.1020  177.2190  147.2280 C   0  0  0  0  0  0  0  0  0  0  0  0
  190.2760  176.4840  147.3140 O   0  0  0  0  0  0  0  0  0  0  0  0
  188.9570  178.2550  147.9260 O   0  0  0  0  0  1  0  0  0  0  0  0
  1 20  1  0  0  0  0
  2 12  1  0  0  0  0
  3 11  2  0  0  0  0
  4  3  1  0  0  0  0
  5 25  1  6  0  0  0
  5 27  1  0  0  0  0
  6 28  1  0  0  0  0
  6 18  1  1  0  0  0
  6  5  1  0  0  0  0
  7 24  1  6  0  0  0
  7 17  1  0  0  0  0
  9 26  1  6  0  0  0
  9 15  1  0  0  0  0
  9 28  1  0  0  0  0
 10 20  1  0  0  0  0
 12 13  2  0  0  0  0
 12  8  1  0  0  0  0
 13 11  1  0  0  0  0
 14 22  1  0  0  0  0
 15 18  1  0  0  0  0
 16  1  1  0  0  0  0
 17  8  1  1  0  0  0
 17 10  1  0  0  0  0
 19  7  1  0  0  0  0
 19 16  1  0  0  0  0
 20 29  1  1  0  0  0
 21  4  2  0  0  0  0
 22 21  1  1  0  0  0
 22 13  1  0  0  0  0
 23 14  1  0  0  0  0
 24  2  1  0  0  0  0
 27 14  2  0  0  0  0
 27  2  1  0  0  0  0
 28 23  1  1  0  0  0
 29 30  1  0  0  0  0
 30 31  2  0  0  0  0
 30 32  1  0  0  0  0
M  END
>  <MODEL>
4

>  <REMARK>
 VINA RESULT:      -8.0      3.711      5.632
  Name = 
  2 active torsions:
  status: ('A' for Active; 'I' for Inactive)
    1  A    between atoms: C_20  and  C_29
    2  A    between atoms: C_29  and  C_30
                            x       y       z     vdW  Elec       q    Type
                         _______ _______ _______ _____ _____    ______ ____

>  <TORSDO>
F 2

$$$$
=
 OpenBabel11122410403D

 32 37  0  0  1  0  0  0  0  0999 V2000
  190.2830  176.1700  141.2410 C   0  0  0  0  0  2  0  0  0  0  0  0
  186.0060  178.5340  141.3310 N   0  0  0  0  0  0  0  0  0  0  0  0
  184.3210  178.6760  145.9800 C   0  0  0  0  0  3  0  0  0  0  0  0
  183.0900  178.6280  145.4690 C   0  0  0  0  0  3  0  0  0  0  0  0
  184.3910  178.6190  139.3530 C   0  0  1  0  0  3  0  0  0  0  0  0
  183.0010  178.1260  138.9600 C   0  0  1  0  0  3  0  0  0  0  0  0
  188.4510  178.6560  140.9660 C   0  0  1  0  0  3  0  0  0  0  0  0
  187.7160  178.6910  143.2120 C   0  0  0  0  0  2  0  0  0  0  0  0
  180.7630  177.6760  139.6760 C   0  0  2  0  0  3  0  0  0  0  0  0
  189.9680  178.2000  142.7820 C   0  0  0  0  0  2  0  0  0  0  0  0
  185.5550  178.7670  145.1230 C   0  0  0  0  0  3  0  0  0  0  0  0
  186.2840  178.5870  142.7520 C   0  0  0  0  0  0  0  0  0  0  0  0
  185.2780  178.6460  143.6410 C   0  0  0  0  0  0  0  0  0  0  0  0
  183.6160  178.6240  141.6990 C   0  0  0  0  0  0  0  0  0  0  0  0
  181.3900  176.3610  139.2250 C   0  0  0  0  0  2  0  0  0  0  0  0
  189.9210  176.8170  139.8960 C   0  0  0  0  0  2  0  0  0  0  0  0
  188.6070  178.0120  142.2790 N   0  0  2  0  0  0  0  0  0  0  0  0
  182.8720  176.6220  139.0050 C   0  0  0  0  0  2  0  0  0  0  0  0
  189.5720  178.3080  139.9710 C   0  0  0  0  0  2  0  0  0  0  0  0
  190.9410  177.1370  142.2390 C   0  0  1  0  0  3  0  0  0  0  0  0
  182.8630  178.6310  144.0150 C   0  0  0  0  0  3  0  0  0  0  0  0
  183.8800  178.6360  143.1490 C   0  0  1  0  0  3  0  0  0  0  0  0
  182.2890  178.6310  141.2440 O   0  0  0  0  0  0  0  0  0  0  0  0
  187.0940  178.2760  140.3800 C   0  0  0  0  0  2  0  0  0  0  0  0
  184.5720  179.9240  138.8910 O   0  0  0  0  0  1  0  0  0  0  0  0
  179.9070  178.1450  138.6800 O   0  0  0  0  0  1  0  0  0  0  0  0
  184.6470  178.5700  140.8380 C   0  0  0  0  0  0  0  0  0  0  0  0
  181.9030  178.6580  139.8670 C   0  0  1  0  0  3  0  0  0  0  0  0
  191.5280  176.3630  143.4070 C   0  0  0  0  0  2  0  0  0  0  0  0
  191.2420  177.0520  144.6980 C   0  0  0  0  0  0  0  0  0  0  0  0
  190.0940  176.7390  145.4130 O   0  0  0  0  0  1  0  0  0  0  0  0
  192.0560  177.8960  145.1540 O   0  0  0  0  0  0  0  0  0  0  0  0
  1 20  1  0  0  0  0
  2 12  1  0  0  0  0
  4  3  1  0  0  0  0
  5 25  1  1  0  0  0
  5 27  1  0  0  0  0
  6 18  1  1  0  0  0
  6  5  1  0  0  0  0
  6 28  1  0  0  0  0
  7 19  1  6  0  0  0
  7 17  1  0  0  0  0
  9 26  1  6  0  0  0
  9 28  1  0  0  0  0
 11  3  2  0  0  0  0
 12  8  1  0  0  0  0
 12 13  2  0  0  0  0
 13 11  1  0  0  0  0
 14 22  1  0  0  0  0
 15  9  1  0  0  0  0
 16 19  1  0  0  0  0
 16  1  1  0  0  0  0
 17 10  1  1  0  0  0
 17  8  1  0  0  0  0
 18 15  1  0  0  0  0
 20 10  1  0  0  0  0
 20 29  1  1  0  0  0
 21  4  2  0  0  0  0
 22 13  1  0  0  0  0
 22 21  1  1  0  0  0
 23 14  1  0  0  0  0
 24  7  1  0  0  0  0
 24  2  1  0  0  0  0
 27  2  1  0  0  0  0
 27 14  2  0  0  0  0
 28 23  1  1  0  0  0
 29 30  1  0  0  0  0
 30 32  2  0  0  0  0
 30 31  1  0  0  0  0
M  END
>  <MODEL>
5

>  <REMARK>
 VINA RESULT:      -8.0      2.558      3.379
  Name = 
  2 active torsions:
  status: ('A' for Active; 'I' for Inactive)
    1  A    between atoms: C_20  and  C_29
    2  A    between atoms: C_29  and  C_30
                            x       y       z     vdW  Elec       q    Type
                         _______ _______ _______ _____ _____    ______ ____

>  <TORSDO>
F 2

$$$$
=
 OpenBabel11122410403D

 32 37  0  0  1  0  0  0  0  0999 V2000
  191.9080  173.7120  136.2670 C   0  0  0  0  0  2  0  0  0  0  0  0
  189.2840  177.3140  138.2760 N   0  0  0  0  0  0  0  0  0  0  0  0
  190.0260  177.3390  143.1660 C   0  0  0  0  0  3  0  0  0  0  0  0
  188.7710  177.7720  143.2910 C   0  0  0  0  0  3  0  0  0  0  0  0
  187.1070  178.2070  137.2800 C   0  0  1  0  0  3  0  0  0  0  0  0
  185.6140  178.2610  137.5970 C   0  0  1  0  0  3  0  0  0  0  0  0
  191.1700  176.6750  136.8070 C   0  0  1  0  0  3  0  0  0  0  0  0
  191.5820  176.6290  139.1330 C   0  0  0  0  0  2  0  0  0  0  0  0
  183.9370  178.4750  139.2890 C   0  0  2  0  0  3  0  0  0  0  0  0
  193.0620  175.4900  137.7160 C   0  0  0  0  0  2  0  0  0  0  0  0
  190.6890  177.1400  141.8300 C   0  0  0  0  0  3  0  0  0  0  0  0
  190.1640  177.0700  139.4000 C   0  0  0  0  0  0  0  0  0  0  0  0
  189.7570  177.3290  140.6540 C   0  0  0  0  0  0  0  0  0  0  0  0
  187.5180  178.1320  139.7150 C   0  0  0  0  0  0  0  0  0  0  0  0
  183.7800  177.1050  138.6360 C   0  0  0  0  0  2  0  0  0  0  0  0
  191.2420  174.6270  135.2290 C   0  0  0  0  0  2  0  0  0  0  0  0
  191.6540  175.8360  137.9130 N   0  0  2  0  0  0  0  0  0  0  0  0
  184.9900  176.8920  137.7420 C   0  0  0  0  0  2  0  0  0  0  0  0
  191.5220  176.1230  135.4140 C   0  0  0  0  0  2  0  0  0  0  0  0
  193.2380  174.2560  136.8130 C   0  0  1  0  0  3  0  0  0  0  0  0
  187.9370  178.0570  142.1130 C   0  0  0  0  0  3  0  0  0  0  0  0
  188.3870  177.8500  140.8720 C   0  0  1  0  0  3  0  0  0  0  0  0
  186.2290  178.6410  139.9330 O   0  0  0  0  0  0  0  0  0  0  0  0
  189.6600  176.8500  136.9350 C   0  0  0  0  0  2  0  0  0  0  0  0
  187.5150  179.4310  136.7480 O   0  0  0  0  0  1  0  0  0  0  0  0
  182.9580  179.3360  138.7950 O   0  0  0  0  0  1  0  0  0  0  0  0
  187.9620  177.8650  138.4740 C   0  0  0  0  0  0  0  0  0  0  0  0
  185.3080  178.9890  138.8960 C   0  0  1  0  0  3  0  0  0  0  0  0
  193.9650  173.1740  137.5940 C   0  0  0  0  0  2  0  0  0  0  0  0
  195.3550  173.5990  137.9220 C   0  0  0  0  0  0  0  0  0  0  0  0
  196.1550  174.1740  136.9450 O   0  0  0  0  0  0  0  0  0  0  0  0
  195.7940  173.4650  139.0940 O   0  0  0  0  0  1  0  0  0  0  0  0
  1 20  1  0  0  0  0
  2 27  1  0  0  0  0
  2 12  1  0  0  0  0
  3  4  1  0  0  0  0
  5 25  1  1  0  0  0
  5  6  1  0  0  0  0
  5 27  1  0  0  0  0
  6 18  1  1  0  0  0
  6 28  1  0  0  0  0
  7 19  1  6  0  0  0
  7 24  1  0  0  0  0
  7 17  1  0  0  0  0
  8 12  1  0  0  0  0
  9 26  1  6  0  0  0
 11  3  2  0  0  0  0
 12 13  2  0  0  0  0
 13 22  1  0  0  0  0
 13 11  1  0  0  0  0
 14 23  1  0  0  0  0
 14 22  1  0  0  0  0
 15  9  1  0  0  0  0
 16 19  1  0  0  0  0
 16  1  1  0  0  0  0
 17 10  1  6  0  0  0
 17  8  1  0  0  0  0
 18 15  1  0  0  0  0
 20 29  1  1  0  0  0
 20 10  1  0  0  0  0
 21  4  2  0  0  0  0
 22 21  1  1  0  0  0
 24  2  1  0  0  0  0
 27 14  2  0  0  0  0
 28  9  1  0  0  0  0
 28 23  1  1  0  0  0
 29 30  1  0  0  0  0
 30 32  1  0  0  0  0
 31 30  2  0  0  0  0
M  END
>  <MODEL>
6

>  <REMARK>
 VINA RESULT:      -7.6      2.207      3.574
  Name = 
  2 active torsions:
  status: ('A' for Active; 'I' for Inactive)
    1  A    between atoms: C_20  and  C_29
    2  A    between atoms: C_29  and  C_30
                            x       y       z     vdW  Elec       q    Type
                         _______ _______ _______ _____ _____    ______ ____

>  <TORSDO>
F 2

$$$$
=
 OpenBabel11122410403D

 32 37  0  0  1  0  0  0  0  0999 V2000
  193.5600  173.1860  136.6930 C   0  0  0  0  0  2  0  0  0  0  0  0
  190.1460  176.6050  137.4310 N   0  0  0  0  0  0  0  0  0  0  0  0
  190.1110  177.8690  142.2130 C   0  0  0  0  0  3  0  0  0  0  0  0
  188.8010  178.0810  142.0830 C   0  0  0  0  0  3  0  0  0  0  0  0
  188.0390  176.8360  136.0040 C   0  0  1  0  0  3  0  0  0  0  0  0
  186.5250  176.6850  136.1260 C   0  0  1  0  0  3  0  0  0  0  0  0
  192.3110  176.0080  136.3920 C   0  0  1  0  0  3  0  0  0  0  0  0
  192.3600  176.5650  138.6880 C   0  0  0  0  0  2  0  0  0  0  0  0
  184.5930  176.9650  137.5090 C   0  0  2  0  0  3  0  0  0  0  0  0
  194.1960  175.4270  137.7760 C   0  0  0  0  0  2  0  0  0  0  0  0
  190.9950  177.4980  141.0530 C   0  0  0  0  0  3  0  0  0  0  0  0
  190.8690  176.7860  138.6730 C   0  0  0  0  0  0  0  0  0  0  0  0
  190.2380  177.2420  139.7690 C   0  0  0  0  0  0  0  0  0  0  0  0
  188.0760  177.3890  138.4110 C   0  0  0  0  0  0  0  0  0  0  0  0
  184.7470  175.4780  137.2040 C   0  0  0  0  0  2  0  0  0  0  0  0
  192.9330  173.7050  135.3910 C   0  0  0  0  0  2  0  0  0  0  0  0
  192.7390  175.5430  137.7200 N   0  0  2  0  0  0  0  0  0  0  0  0
  186.0990  175.2940  136.5340 C   0  0  0  0  0  2  0  0  0  0  0  0
  192.9520  175.2300  135.2290 C   0  0  0  0  0  2  0  0  0  0  0  0
  194.6930  174.0730  137.2350 C   0  0  1  0  0  3  0  0  0  0  0  0
  188.1260  177.9350  140.7840 C   0  0  0  0  0  3  0  0  0  0  0  0
  188.7880  177.5390  139.6940 C   0  0  1  0  0  3  0  0  0  0  0  0
  186.7070  177.6890  138.3480 O   0  0  0  0  0  0  0  0  0  0  0  0
  190.7900  175.9280  136.2990 C   0  0  0  0  0  2  0  0  0  0  0  0
  188.3360  177.9620  135.2340 O   0  0  0  0  0  1  0  0  0  0  0  0
  183.5840  177.4980  136.7080 O   0  0  0  0  0  1  0  0  0  0  0  0
  188.7410  176.9350  137.3340 C   0  0  0  0  0  0  0  0  0  0  0  0
  185.9160  177.6190  137.1590 C   0  0  1  0  0  3  0  0  0  0  0  0
  195.4450  173.3480  138.3380 C   0  0  0  0  0  2  0  0  0  0  0  0
  196.5480  174.1940  138.8740 C   0  0  0  0  0  0  0  0  0  0  0  0
  197.5510  174.6470  138.0280 O   0  0  0  0  0  0  0  0  0  0  0  0
  196.5550  174.5240  140.0880 O   0  0  0  0  0  1  0  0  0  0  0  0
  1 20  1  0  0  0  0
  2 12  1  0  0  0  0
  4  3  1  0  0  0  0
  5 25  1  6  0  0  0
  5  6  1  0  0  0  0
  5 27  1  0  0  0  0
  6 18  1  1  0  0  0
  6 28  1  0  0  0  0
  7 19  1  6  0  0  0
  7 17  1  0  0  0  0
  9 26  1  6  0  0  0
 11  3  2  0  0  0  0
 12  8  1  0  0  0  0
 12 13  2  0  0  0  0
 13 11  1  0  0  0  0
 14 22  1  0  0  0  0
 15  9  1  0  0  0  0
 16  1  1  0  0  0  0
 17 10  1  6  0  0  0
 17  8  1  0  0  0  0
 18 15  1  0  0  0  0
 19 16  1  0  0  0  0
 20 10  1  0  0  0  0
 20 29  1  1  0  0  0
 21  4  2  0  0  0  0
 22 13  1  0  0  0  0
 22 21  1  1  0  0  0
 23 14  1  0  0  0  0
 24  7  1  0  0  0  0
 24  2  1  0  0  0  0
 27  2  1  0  0  0  0
 27 14  2  0  0  0  0
 28  9  1  0  0  0  0
 28 23  1  1  0  0  0
 29 30  1  0  0  0  0
 30 32  1  0  0  0  0
 31 30  2  0  0  0  0
M  END
>  <MODEL>
7

>  <REMARK>
 VINA RESULT:      -7.2      3.223      4.897
  Name = 
  2 active torsions:
  status: ('A' for Active; 'I' for Inactive)
    1  A    between atoms: C_20  and  C_29
    2  A    between atoms: C_29  and  C_30
                            x       y       z     vdW  Elec       q    Type
                         _______ _______ _______ _____ _____    ______ ____

>  <TORSDO>
F 2

$$$$
=
 OpenBabel11122410403D

 32 37  0  0  1  0  0  0  0  0999 V2000
  190.2310  176.0550  145.3220 C   0  0  0  0  0  2  0  0  0  0  0  0
  190.1200  177.4150  140.6290 N   0  0  0  0  0  0  0  0  0  0  0  0
  185.4710  178.5380  139.3670 C   0  0  0  0  0  3  0  0  0  0  0  0
  185.7620  178.0930  138.1440 C   0  0  0  0  0  3  0  0  0  0  0  0
  191.7880  176.5940  138.8750 C   0  0  1  0  0  3  0  0  0  0  0  0
  191.8260  175.7350  137.6140 C   0  0  1  0  0  3  0  0  0  0  0  0
  190.8660  177.9260  142.9320 C   0  0  1  0  0  3  0  0  0  0  0  0
  188.6230  178.4530  142.4080 C   0  0  0  0  0  2  0  0  0  0  0  0
  190.6910  175.0600  135.6190 C   0  0  2  0  0  3  0  0  0  0  0  0
  189.2420  178.3330  144.6660 C   0  0  0  0  0  2  0  0  0  0  0  0
  186.4970  178.6310  140.4650 C   0  0  0  0  0  3  0  0  0  0  0  0
  188.8210  177.9300  141.0070 C   0  0  0  0  0  0  0  0  0  0  0  0
  187.8370  178.0340  140.0970 C   0  0  0  0  0  0  0  0  0  0  0  0
  189.4350  177.1140  138.3270 C   0  0  0  0  0  0  0  0  0  0  0  0
  190.8740  173.8290  136.5010 C   0  0  0  0  0  2  0  0  0  0  0  0
  191.6290  176.2000  144.7010 C   0  0  0  0  0  2  0  0  0  0  0  0
  189.4700  177.7330  143.3510 N   0  0  2  0  0  0  0  0  0  0  0  0
  191.3730  174.3130  137.8530 C   0  0  0  0  0  2  0  0  0  0  0  0
  191.8930  177.5450  144.0140 C   0  0  0  0  0  2  0  0  0  0  0  0
  189.6290  177.3820  145.8140 C   0  0  1  0  0  3  0  0  0  0  0  0
  187.1150  177.6320  137.7980 C   0  0  0  0  0  3  0  0  0  0  0  0
  188.0950  177.5960  138.7050 C   0  0  1  0  0  3  0  0  0  0  0  0
  189.6730  176.7170  137.0020 O   0  0  0  0  0  0  0  0  0  0  0  0
  191.1230  177.1240  141.6610 C   0  0  0  0  0  2  0  0  0  0  0  0
  192.5950  177.7190  138.6990 O   0  0  0  0  0  1  0  0  0  0  0  0
  191.6360  175.0360  134.5940 O   0  0  0  0  0  1  0  0  0  0  0  0
  190.3970  177.0280  139.2630 C   0  0  0  0  0  0  0  0  0  0  0  0
  190.9350  176.2670  136.5040 C   0  0  1  0  0  3  0  0  0  0  0  0
  188.4010  177.1150  146.6680 C   0  0  0  0  0  2  0  0  0  0  0  0
  188.5880  177.6480  148.0470 C   0  0  0  0  0  0  0  0  0  0  0  0
  189.8090  178.1890  148.4240 O   0  0  0  0  0  0  0  0  0  0  0  0
  187.6290  177.6360  148.8610 O   0  0  0  0  0  1  0  0  0  0  0  0
  1 20  1  0  0  0  0
  2 12  1  0  0  0  0
  2 24  1  0  0  0  0
  3 11  2  0  0  0  0
  4  3  1  0  0  0  0
  5 25  1  6  0  0  0
  5 27  1  0  0  0  0
  6 18  1  1  0  0  0
  6  5  1  0  0  0  0
  7 24  1  6  0  0  0
  7 17  1  0  0  0  0
  7 19  1  0  0  0  0
  9 26  1  6  0  0  0
  9 15  1  0  0  0  0
  9 28  1  0  0  0  0
 10 20  1  0  0  0  0
 12  8  1  0  0  0  0
 13 11  1  0  0  0  0
 13 12  2  0  0  0  0
 14 22  1  0  0  0  0
 14 27  2  0  0  0  0
 15 18  1  0  0  0  0
 16  1  1  0  0  0  0
 17  8  1  6  0  0  0
 17 10  1  0  0  0  0
 19 16  1  0  0  0  0
 20 29  1  6  0  0  0
 21  4  2  0  0  0  0
 22 21  1  1  0  0  0
 22 13  1  0  0  0  0
 23 14  1  0  0  0  0
 27  2  1  0  0  0  0
 28 23  1  1  0  0  0
 28  6  1  0  0  0  0
 29 30  1  0  0  0  0
 30 31  2  0  0  0  0
 30 32  1  0  0  0  0
M  END
>  <MODEL>
8

>  <REMARK>
 VINA RESULT:      -7.1      3.546      8.044
  Name = 
  2 active torsions:
  status: ('A' for Active; 'I' for Inactive)
    1  A    between atoms: C_20  and  C_29
    2  A    between atoms: C_29  and  C_30
                            x       y       z     vdW  Elec       q    Type
                         _______ _______ _______ _____ _____    ______ ____

>  <TORSDO>
F 2

$$$$
=
 OpenBabel11122410403D

 32 37  0  0  1  0  0  0  0  0999 V2000
  189.5760  176.5270  143.2770 C   0  0  0  0  0  2  0  0  0  0  0  0
  190.9050  176.4080  138.5750 N   0  0  0  0  0  0  0  0  0  0  0  0
  187.0450  174.9930  135.8250 C   0  0  0  0  0  3  0  0  0  0  0  0
  187.9220  174.4160  135.0030 C   0  0  0  0  0  3  0  0  0  0  0  0
  193.2980  175.9750  137.7890 C   0  0  1  0  0  3  0  0  0  0  0  0
  194.1050  174.9220  137.0350 C   0  0  1  0  0  3  0  0  0  0  0  0
  190.4710  177.7820  140.5870 C   0  0  1  0  0  3  0  0  0  0  0  0
  188.5800  177.1090  139.3400 C   0  0  0  0  0  2  0  0  0  0  0  0
  194.1350  173.3170  135.2610 C   0  0  2  0  0  3  0  0  0  0  0  0
  188.2560  177.8730  141.5330 C   0  0  0  0  0  2  0  0  0  0  0  0
  187.4630  175.8130  137.0160 C   0  0  0  0  0  3  0  0  0  0  0  0
  189.4720  176.3780  138.3690 C   0  0  0  0  0  0  0  0  0  0  0  0
  188.9530  175.7940  137.2750 C   0  0  0  0  0  0  0  0  0  0  0  0
  191.3240  175.2410  136.4970 C   0  0  0  0  0  0  0  0  0  0  0  0
  194.3360  172.5730  136.5770 C   0  0  0  0  0  2  0  0  0  0  0  0
  190.9780  177.1030  143.0310 C   0  0  0  0  0  2  0  0  0  0  0  0
  189.1650  177.1120  140.6750 N   0  0  2  0  0  0  0  0  0  0  0  0
  194.0750  173.5650  137.6990 C   0  0  0  0  0  2  0  0  0  0  0  0
  191.0480  178.1920  141.9540 C   0  0  0  0  0  2  0  0  0  0  0  0
  188.4390  177.5300  143.0230 C   0  0  1  0  0  3  0  0  0  0  0  0
  189.3710  174.5250  135.2300 C   0  0  0  0  0  3  0  0  0  0  0  0
  189.8660  175.1650  136.2930 C   0  0  1  0  0  3  0  0  0  0  0  0
  192.1800  174.6560  135.5520 O   0  0  0  0  0  0  0  0  0  0  0  0
  191.4530  176.8720  139.8560 C   0  0  0  0  0  2  0  0  0  0  0  0
  193.7030  177.2490  137.3890 O   0  0  0  0  0  1  0  0  0  0  0  0
  195.3620  173.4420  134.6100 O   0  0  0  0  0  1  0  0  0  0  0  0
  191.8080  175.8370  137.6000 C   0  0  0  0  0  0  0  0  0  0  0  0
  193.6080  174.6940  135.6170 C   0  0  1  0  0  3  0  0  0  0  0  0
  187.1290  176.9860  143.5670 C   0  0  0  0  0  2  0  0  0  0  0  0
  186.8080  177.5970  144.8880 C   0  0  0  0  0  0  0  0  0  0  0  0
  185.8000  178.5460  144.9890 O   0  0  0  0  0  0  0  0  0  0  0  0
  187.4310  177.2310  145.9180 O   0  0  0  0  0  1  0  0  0  0  0  0
  2 24  1  0  0  0  0
  3 11  2  0  0  0  0
  4 21  2  0  0  0  0
  4  3  1  0  0  0  0
  5 25  1  6  0  0  0
  6 18  1  1  0  0  0
  6  5  1  0  0  0  0
  7 24  1  1  0  0  0
  7 17  1  0  0  0  0
  7 19  1  0  0  0  0
  9 26  1  1  0  0  0
  9 28  1  0  0  0  0
  9 15  1  0  0  0  0
 10 20  1  0  0  0  0
 11 13  1  0  0  0  0
 12  2  1  0  0  0  0
 12  8  1  0  0  0  0
 13 12  2  0  0  0  0
 14 27  2  0  0  0  0
 15 18  1  0  0  0  0
 16  1  1  0  0  0  0
 17  8  1  6  0  0  0
 17 10  1  0  0  0  0
 19 16  1  0  0  0  0
 20  1  1  0  0  0  0
 20 29  1  6  0  0  0
 22 21  1  1  0  0  0
 22 14  1  0  0  0  0
 22 13  1  0  0  0  0
 23 14  1  0  0  0  0
 27  5  1  0  0  0  0
 27  2  1  0  0  0  0
 28 23  1  1  0  0  0
 28  6  1  0  0  0  0
 29 30  1  0  0  0  0
 30 31  2  0  0  0  0
 30 32  1  0  0  0  0
M  END
>  <MODEL>
9

>  <REMARK>
 VINA RESULT:      -6.9      3.540      9.318
  Name = 
  2 active torsions:
  status: ('A' for Active; 'I' for Inactive)
    1  A    between atoms: C_20  and  C_29
    2  A    between atoms: C_29  and  C_30
                            x       y       z     vdW  Elec       q    Type
                         _______ _______ _______ _____ _____    ______ ____

>  <TORSDO>
F 2

$$$$
