=
 OpenBabel11122411183D

 31 35  0  0  1  0  0  0  0  0999 V2000
  193.4930  175.3640  135.7480 C   0  0  0  0  0  0  0  0  0  0  0  0
  190.1390  176.7680  136.8630 C   0  0  2  0  0  3  0  0  0  0  0  0
  189.1250  175.6430  136.7120 C   0  0  0  0  0  0  0  0  0  0  0  0
  188.4560  173.4980  135.7790 C   0  0  0  0  0  0  0  0  0  0  0  0
  191.5670  176.2720  136.9150 C   0  0  0  0  0  0  0  0  0  0  0  0
  194.1760  175.2440  136.9590 C   0  0  0  0  0  3  0  0  0  0  0  0
  189.4070  174.5080  135.9350 C   0  0  0  0  0  3  0  0  0  0  0  0
  190.1970  176.9510  139.3760 C   0  0  2  0  0  3  0  0  0  0  0  0
  194.0880  174.9780  134.5940 F   0  0  0  0  0  0  0  0  0  0  0  0
  187.5160  176.9070  138.0370 O   0  0  0  0  0  0  0  0  0  0  0  0
  188.7760  172.2960  134.9660 C   0  0  0  0  0  1  0  0  0  0  0  0
  191.7040  176.6960  139.4250 C   0  0  0  0  0  2  0  0  0  0  0  0
  189.8240  177.6710  138.0730 C   0  0  2  0  0  3  0  0  0  0  0  0
  192.1950  175.8770  135.7260 C   0  0  0  0  0  3  0  0  0  0  0  0
  187.2030  173.6180  136.3850 C   0  0  0  0  0  3  0  0  0  0  0  0
  192.2610  176.1530  138.1400 C   0  0  0  0  0  0  0  0  0  0  0  0
  193.5650  175.6460  138.1490 C   0  0  0  0  0  3  0  0  0  0  0  0
  188.3460  178.0650  138.0450 C   0  0  0  0  0  2  0  0  0  0  0  0
  187.8450  175.7720  137.2910 C   0  0  0  0  0  0  0  0  0  0  0  0
  186.8990  174.7540  137.1390 C   0  0  0  0  0  3  0  0  0  0  0  0
  190.2080  176.0550  142.0830 O   0  0  0  0  0  0  0  0  0  0  0  0
  189.8390  177.2410  141.8620 C   0  0  0  0  0  0  0  0  0  0  0  0
  189.8070  177.7510  140.5290 N   0  0  0  0  0  2  0  0  0  0  0  0
  190.6470  177.5930  145.4790 N   0  0  0  0  0  0  0  0  0  0  0  0
  190.5260  178.8890  143.5080 O   0  0  0  0  0  0  0  0  0  0  0  0
  187.5280  176.5570  143.6030 C   0  0  0  0  0  1  0  0  0  0  0  0
  191.5810  176.7770  146.2330 C   0  0  0  0  0  1  0  0  0  0  0  0
  191.3530  178.0410  144.2800 C   0  0  0  0  0  2  0  0  0  0  0  0
  188.6260  177.4670  144.1260 C   0  0  2  0  0  3  0  0  0  0  0  0
  189.4350  178.1400  143.0010 C   0  0  2  0  0  3  0  0  0  0  0  0
  189.5680  176.7090  145.0530 C   0  0  0  0  0  2  0  0  0  0  0  0
  1  6  1  0  0  0  0
  2  3  1  1  0  0  0
  2  5  1  0  0  0  0
  2 13  1  0  0  0  0
  3 19  1  0  0  0  0
  4  7  1  0  0  0  0
  4 15  2  0  0  0  0
  5 16  2  0  0  0  0
  6 17  2  0  0  0  0
  7  3  2  0  0  0  0
  8 12  1  0  0  0  0
  8 23  1  1  0  0  0
  9  1  1  0  0  0  0
 10 18  1  0  0  0  0
 11  4  1  0  0  0  0
 13 18  1  1  0  0  0
 13  8  1  0  0  0  0
 14  1  2  0  0  0  0
 14  5  1  0  0  0  0
 15 20  1  0  0  0  0
 16 17  1  0  0  0  0
 16 12  1  0  0  0  0
 19 10  1  0  0  0  0
 20 19  2  0  0  0  0
 22 21  2  0  0  0  0
 23 22  1  0  0  0  0
 24 27  1  0  0  0  0
 25 28  1  0  0  0  0
 28 24  1  0  0  0  0
 29 26  1  6  0  0  0
 29 31  1  0  0  0  0
 30 22  1  6  0  0  0
 30 25  1  0  0  0  0
 30 29  1  0  0  0  0
 31 24  1  0  0  0  0
M  END
>  <MODEL>
1

>  <REMARK>
 VINA RESULT:      -8.0      0.000      0.000
  Name = 
  2 active torsions:
  status: ('A' for Active; 'I' for Inactive)
    1  A    between atoms: C_5  and  C_30
    2  A    between atoms: C_10  and  N_16
                            x       y       z     vdW  Elec       q    Type
                         _______ _______ _______ _____ _____    ______ ____

>  <TORSDO>
F 2

$$$$
=
 OpenBabel11122411183D

 31 35  0  0  1  0  0  0  0  0999 V2000
  191.2180  176.1710  143.7120 C   0  0  0  0  0  0  0  0  0  0  0  0
  187.4920  176.9320  143.7470 C   0  0  2  0  0  3  0  0  0  0  0  0
  187.2120  177.6730  145.0470 C   0  0  0  0  0  0  0  0  0  0  0  0
  187.8490  178.3150  147.3050 C   0  0  0  0  0  0  0  0  0  0  0  0
  188.9510  176.9660  143.3520 C   0  0  0  0  0  0  0  0  0  0  0  0
  191.6870  177.0560  142.7400 C   0  0  0  0  0  3  0  0  0  0  0  0
  188.1330  177.6570  146.1070 C   0  0  0  0  0  3  0  0  0  0  0  0
  187.0880  178.7980  142.1020 C   0  0  2  0  0  3  0  0  0  0  0  0
  192.0840  175.3600  144.3650 F   0  0  0  0  0  0  0  0  0  0  0  0
  185.0150  178.3210  144.2130 O   0  0  0  0  0  0  0  0  0  0  0  0
  188.8410  178.3020  148.4120 C   0  0  0  0  0  1  0  0  0  0  0  0
  188.4950  178.6730  141.5160 C   0  0  0  0  0  2  0  0  0  0  0  0
  186.5970  177.4310  142.5940 C   0  0  2  0  0  3  0  0  0  0  0  0
  189.8560  176.1250  144.0160 C   0  0  0  0  0  3  0  0  0  0  0  0
  186.6330  178.9830  147.4660 C   0  0  0  0  0  3  0  0  0  0  0  0
  189.4280  177.8570  142.3650 C   0  0  0  0  0  0  0  0  0  0  0  0
  190.7930  177.8880  142.0620 C   0  0  0  0  0  3  0  0  0  0  0  0
  185.1420  177.4860  143.0640 C   0  0  0  0  0  2  0  0  0  0  0  0
  185.9710  178.3210  145.2310 C   0  0  0  0  0  0  0  0  0  0  0  0
  185.6960  178.9850  146.4300 C   0  0  0  0  0  3  0  0  0  0  0  0
  186.7180  177.7000  139.4960 O   0  0  0  0  0  0  0  0  0  0  0  0
  186.0480  178.7240  139.7980 C   0  0  0  0  0  0  0  0  0  0  0  0
  186.1890  179.3270  141.0850 N   0  0  0  0  0  2  0  0  0  0  0  0
  182.4230  178.4320  139.0050 N   0  0  0  0  0  0  0  0  0  0  0  0
  184.0610  180.0740  139.4450 O   0  0  0  0  0  0  0  0  0  0  0  0
  185.5740  177.4480  137.1550 C   0  0  0  0  0  1  0  0  0  0  0  0
  181.4590  177.5920  139.6930 C   0  0  0  0  0  1  0  0  0  0  0  0
  183.1310  179.1880  140.0350 C   0  0  0  0  0  2  0  0  0  0  0  0
  184.5140  178.3510  137.7600 C   0  0  2  0  0  3  0  0  0  0  0  0
  185.0820  179.3250  138.8110 C   0  0  2  0  0  3  0  0  0  0  0  0
  183.3840  177.5350  138.3740 C   0  0  0  0  0  2  0  0  0  0  0  0
  1 14  1  0  0  0  0
  1  9  1  0  0  0  0
  2  5  1  6  0  0  0
  2  3  1  0  0  0  0
  3 19  2  0  0  0  0
  3  7  1  0  0  0  0
  4 15  1  0  0  0  0
  4 11  1  0  0  0  0
  5 14  2  0  0  0  0
  6  1  2  0  0  0  0
  7  4  2  0  0  0  0
  8 23  1  6  0  0  0
  8 13  1  0  0  0  0
 10 19  1  0  0  0  0
 12  8  1  0  0  0  0
 12 16  1  0  0  0  0
 13 18  1  1  0  0  0
 13  2  1  0  0  0  0
 16  5  1  0  0  0  0
 17 16  2  0  0  0  0
 17  6  1  0  0  0  0
 18 10  1  0  0  0  0
 19 20  1  0  0  0  0
 20 15  2  0  0  0  0
 21 22  2  0  0  0  0
 22 23  1  0  0  0  0
 24 27  1  0  0  0  0
 24 28  1  0  0  0  0
 25 28  1  0  0  0  0
 29 26  1  1  0  0  0
 29 31  1  0  0  0  0
 29 30  1  0  0  0  0
 30 25  1  0  0  0  0
 30 22  1  1  0  0  0
 31 24  1  0  0  0  0
M  END
>  <MODEL>
2

>  <REMARK>
 VINA RESULT:      -7.9      4.590      8.388
  Name = 
  2 active torsions:
  status: ('A' for Active; 'I' for Inactive)
    1  A    between atoms: C_5  and  C_30
    2  A    between atoms: C_10  and  N_16
                            x       y       z     vdW  Elec       q    Type
                         _______ _______ _______ _____ _____    ______ ____

>  <TORSDO>
F 2

$$$$
=
 OpenBabel11122411183D

 31 35  0  0  1  0  0  0  0  0999 V2000
  190.1390  175.9860  142.8750 C   0  0  0  0  0  0  0  0  0  0  0  0
  186.5350  177.0830  143.4000 C   0  0  2  0  0  3  0  0  0  0  0  0
  186.4970  177.8280  144.7270 C   0  0  0  0  0  0  0  0  0  0  0  0
  187.4800  178.3780  146.8830 C   0  0  0  0  0  0  0  0  0  0  0  0
  187.9280  176.9890  142.8170 C   0  0  0  0  0  0  0  0  0  0  0  0
  190.5570  176.8370  141.8510 C   0  0  0  0  0  3  0  0  0  0  0  0
  187.5430  177.7130  145.6570 C   0  0  0  0  0  3  0  0  0  0  0  0
  186.0940  179.0000  141.8250 C   0  0  2  0  0  3  0  0  0  0  0  0
  191.0050  175.0900  143.4070 F   0  0  0  0  0  0  0  0  0  0  0  0
  184.2790  178.6850  144.1890 O   0  0  0  0  0  0  0  0  0  0  0  0
  188.6030  178.2590  147.8500 C   0  0  0  0  0  1  0  0  0  0  0  0
  187.3950  178.7560  141.0600 C   0  0  0  0  0  2  0  0  0  0  0  0
  185.5480  177.6770  142.3760 C   0  0  2  0  0  3  0  0  0  0  0  0
  188.8300  176.0600  143.3550 C   0  0  0  0  0  3  0  0  0  0  0  0
  186.3620  179.1510  147.2030 C   0  0  0  0  0  3  0  0  0  0  0  0
  188.3510  177.8470  141.7780 C   0  0  0  0  0  0  0  0  0  0  0  0
  189.6620  177.7570  141.2990 C   0  0  0  0  0  3  0  0  0  0  0  0
  184.1780  177.8570  143.0330 C   0  0  0  0  0  2  0  0  0  0  0  0
  185.3560  178.5830  145.0730 C   0  0  0  0  0  0  0  0  0  0  0  0
  185.3020  179.2530  146.2990 C   0  0  0  0  0  3  0  0  0  0  0  0
  184.8450  177.7280  139.5990 O   0  0  0  0  0  0  0  0  0  0  0  0
  184.5300  178.9260  139.8400 C   0  0  0  0  0  0  0  0  0  0  0  0
  185.1230  179.6230  140.9370 N   0  0  0  0  0  2  0  0  0  0  0  0
  180.8540  178.7940  139.2710 N   0  0  0  0  0  0  0  0  0  0  0  0
  182.5660  180.3500  139.7480 O   0  0  0  0  0  0  0  0  0  0  0  0
  183.8470  177.9130  137.1290 C   0  0  0  0  0  1  0  0  0  0  0  0
  179.9130  177.9170  139.9440 C   0  0  0  0  0  1  0  0  0  0  0  0
  181.6510  179.4350  140.3160 C   0  0  0  0  0  2  0  0  0  0  0  0
  182.8560  178.7810  137.8850 C   0  0  2  0  0  3  0  0  0  0  0  0
  183.5200  179.6390  138.9790 C   0  0  2  0  0  3  0  0  0  0  0  0
  181.7450  177.9380  138.4970 C   0  0  0  0  0  2  0  0  0  0  0  0
  1 14  1  0  0  0  0
  1  9  1  0  0  0  0
  2  5  1  6  0  0  0
  2  3  1  0  0  0  0
  3 19  2  0  0  0  0
  3  7  1  0  0  0  0
  4 15  1  0  0  0  0
  4 11  1  0  0  0  0
  5 14  2  0  0  0  0
  6  1  2  0  0  0  0
  7  4  2  0  0  0  0
  8 23  1  6  0  0  0
  8 13  1  0  0  0  0
 10 19  1  0  0  0  0
 12 16  1  0  0  0  0
 12  8  1  0  0  0  0
 13 18  1  1  0  0  0
 13  2  1  0  0  0  0
 16  5  1  0  0  0  0
 17 16  2  0  0  0  0
 17  6  1  0  0  0  0
 18 10  1  0  0  0  0
 19 20  1  0  0  0  0
 20 15  2  0  0  0  0
 21 22  2  0  0  0  0
 22 23  1  0  0  0  0
 24 27  1  0  0  0  0
 24 28  1  0  0  0  0
 25 28  1  0  0  0  0
 29 26  1  1  0  0  0
 29 31  1  0  0  0  0
 29 30  1  0  0  0  0
 30 25  1  0  0  0  0
 30 22  1  1  0  0  0
 31 24  1  0  0  0  0
M  END
>  <MODEL>
3

>  <REMARK>
 VINA RESULT:      -7.8      4.999      8.733
  Name = 
  2 active torsions:
  status: ('A' for Active; 'I' for Inactive)
    1  A    between atoms: C_5  and  C_30
    2  A    between atoms: C_10  and  N_16
                            x       y       z     vdW  Elec       q    Type
                         _______ _______ _______ _____ _____    ______ ____

>  <TORSDO>
F 2

$$$$
=
 OpenBabel11122411183D

 31 35  0  0  1  0  0  0  0  0999 V2000
  190.6960  176.6990  146.0780 C   0  0  0  0  0  0  0  0  0  0  0  0
  187.8430  177.0800  143.5930 C   0  0  2  0  0  3  0  0  0  0  0  0
  186.7860  177.9400  144.2730 C   0  0  0  0  0  0  0  0  0  0  0  0
  185.8040  178.9090  146.2760 C   0  0  0  0  0  0  0  0  0  0  0  0
  189.2080  177.2130  144.2290 C   0  0  0  0  0  0  0  0  0  0  0  0
  191.6860  177.5030  145.5110 C   0  0  0  0  0  3  0  0  0  0  0  0
  186.7970  178.1440  145.6620 C   0  0  0  0  0  3  0  0  0  0  0  0
  188.6090  178.6850  141.8070 C   0  0  2  0  0  3  0  0  0  0  0  0
  190.9290  176.0640  147.2520 F   0  0  0  0  0  0  0  0  0  0  0  0
  185.6600  178.2590  142.1340 O   0  0  0  0  0  0  0  0  0  0  0  0
  185.8390  179.1290  147.7460 C   0  0  0  0  0  1  0  0  0  0  0  0
  190.0580  178.6330  142.2900 C   0  0  0  0  0  2  0  0  0  0  0  0
  187.9130  177.3440  142.0760 C   0  0  2  0  0  3  0  0  0  0  0  0
  189.4630  176.5530  145.4390 C   0  0  0  0  0  3  0  0  0  0  0  0
  184.7770  179.4650  145.5120 C   0  0  0  0  0  3  0  0  0  0  0  0
  190.2130  178.0230  143.6540 C   0  0  0  0  0  0  0  0  0  0  0  0
  191.4480  178.1540  144.2990 C   0  0  0  0  0  3  0  0  0  0  0  0
  186.5010  177.3080  141.4850 C   0  0  0  0  0  2  0  0  0  0  0  0
  185.7250  178.4760  143.5130 C   0  0  0  0  0  0  0  0  0  0  0  0
  184.7370  179.2490  144.1320 C   0  0  0  0  0  3  0  0  0  0  0  0
  189.6400  177.0120  139.7400 O   0  0  0  0  0  0  0  0  0  0  0  0
  189.1180  178.1090  139.3980 C   0  0  0  0  0  0  0  0  0  0  0  0
  188.5860  178.9950  140.3840 N   0  0  0  0  0  2  0  0  0  0  0  0
  187.1650  177.0800  136.4000 N   0  0  0  0  0  0  0  0  0  0  0  0
  187.7710  179.0240  137.5970 O   0  0  0  0  0  0  0  0  0  0  0  0
  190.8110  176.7580  137.3610 C   0  0  0  0  0  1  0  0  0  0  0  0
  186.1310  176.0620  136.3580 C   0  0  0  0  0  1  0  0  0  0  0  0
  186.8360  177.9670  137.5140 C   0  0  0  0  0  2  0  0  0  0  0  0
  189.5140  177.4270  136.9430 C   0  0  2  0  0  3  0  0  0  0  0  0
  189.0390  178.4980  137.9450 C   0  0  2  0  0  3  0  0  0  0  0  0
  188.4110  176.3980  136.7310 C   0  0  0  0  0  2  0  0  0  0  0  0
  1  9  1  0  0  0  0
  2  5  1  1  0  0  0
  2  3  1  0  0  0  0
  3  7  1  0  0  0  0
  4 11  1  0  0  0  0
  5 14  1  0  0  0  0
  6  1  1  0  0  0  0
  7  4  2  0  0  0  0
  8 23  1  6  0  0  0
  8 13  1  0  0  0  0
  8 12  1  0  0  0  0
 10 19  1  0  0  0  0
 12 16  1  0  0  0  0
 13 18  1  1  0  0  0
 13  2  1  0  0  0  0
 14  1  2  0  0  0  0
 15  4  1  0  0  0  0
 16  5  2  0  0  0  0
 16 17  1  0  0  0  0
 17  6  2  0  0  0  0
 18 10  1  0  0  0  0
 19 20  1  0  0  0  0
 19  3  2  0  0  0  0
 20 15  2  0  0  0  0
 22 21  2  0  0  0  0
 22 23  1  0  0  0  0
 24 31  1  0  0  0  0
 24 28  1  0  0  0  0
 25 30  1  0  0  0  0
 27 24  1  0  0  0  0
 28 25  1  0  0  0  0
 29 26  1  1  0  0  0
 29 30  1  0  0  0  0
 30 22  1  1  0  0  0
 31 29  1  0  0  0  0
M  END
>  <MODEL>
4

>  <REMARK>
 VINA RESULT:      -7.2      3.358      8.226
  Name = 
  2 active torsions:
  status: ('A' for Active; 'I' for Inactive)
    1  A    between atoms: C_5  and  C_30
    2  A    between atoms: C_10  and  N_16
                            x       y       z     vdW  Elec       q    Type
                         _______ _______ _______ _____ _____    ______ ____

>  <TORSDO>
F 2

$$$$
=
 OpenBabel11122411183D

 31 35  0  0  1  0  0  0  0  0999 V2000
  179.6480  178.9080  142.1470 C   0  0  0  0  0  0  0  0  0  0  0  0
  183.0350  179.1750  140.4370 C   0  0  2  0  0  3  0  0  0  0  0  0
  184.0820  178.8570  141.4940 C   0  0  0  0  0  0  0  0  0  0  0  0
  184.7440  178.6160  143.8230 C   0  0  0  0  0  0  0  0  0  0  0  0
  181.6560  178.6710  140.8020 C   0  0  0  0  0  0  0  0  0  0  0  0
  179.1370  177.7310  141.6000 C   0  0  0  0  0  3  0  0  0  0  0  0
  183.7650  178.8790  142.8620 C   0  0  0  0  0  3  0  0  0  0  0  0
  183.2950  177.1480  138.9610 C   0  0  2  0  0  3  0  0  0  0  0  0
  178.9310  179.5940  143.0690 F   0  0  0  0  0  0  0  0  0  0  0  0
  185.7770  178.6280  139.7580 O   0  0  0  0  0  0  0  0  0  0  0  0
  184.3880  178.6280  145.2660 C   0  0  0  0  0  1  0  0  0  0  0  0
  181.8240  176.7620  139.1220 C   0  0  0  0  0  2  0  0  0  0  0  0
  183.4530  178.6720  139.0410 C   0  0  2  0  0  3  0  0  0  0  0  0
  180.9020  179.3770  141.7490 C   0  0  0  0  0  3  0  0  0  0  0  0
  186.0550  178.3450  143.4290 C   0  0  0  0  0  3  0  0  0  0  0  0
  181.1350  177.4810  140.2460 C   0  0  0  0  0  0  0  0  0  0  0  0
  179.8740  177.0260  140.6460 C   0  0  0  0  0  3  0  0  0  0  0  0
  184.8910  179.1100  138.7500 C   0  0  0  0  0  2  0  0  0  0  0  0
  185.4180  178.6170  141.1080 C   0  0  0  0  0  0  0  0  0  0  0  0
  186.3920  178.3460  142.0740 C   0  0  0  0  0  3  0  0  0  0  0  0
  183.7990  174.4100  138.3440 O   0  0  0  0  0  0  0  0  0  0  0  0
  184.0150  175.2620  137.4380 C   0  0  0  0  0  0  0  0  0  0  0  0
  183.7870  176.6500  137.6840 N   0  0  0  0  0  2  0  0  0  0  0  0
  184.2610  172.0870  135.5110 N   0  0  0  0  0  0  0  0  0  0  0  0
  183.4700  174.3000  135.2760 O   0  0  0  0  0  0  0  0  0  0  0  0
  186.8330  174.4020  137.0420 C   0  0  0  0  0  1  0  0  0  0  0  0
  183.8210  170.7770  135.9560 C   0  0  0  0  0  1  0  0  0  0  0  0
  183.1430  173.0030  135.7310 C   0  0  0  0  0  2  0  0  0  0  0  0
  185.7540  173.9220  136.0870 C   0  0  2  0  0  3  0  0  0  0  0  0
  184.5080  174.8290  136.0830 C   0  0  2  0  0  3  0  0  0  0  0  0
  185.3450  172.4890  136.4000 C   0  0  0  0  0  2  0  0  0  0  0  0
  1  9  1  0  0  0  0
  2  5  1  1  0  0  0
  2  3  1  0  0  0  0
  3  7  1  0  0  0  0
  4 11  1  0  0  0  0
  5 14  2  0  0  0  0
  6  1  2  0  0  0  0
  7  4  2  0  0  0  0
  8 23  1  6  0  0  0
  8 13  1  0  0  0  0
  8 12  1  0  0  0  0
 10 19  1  0  0  0  0
 12 16  1  0  0  0  0
 13 18  1  1  0  0  0
 13  2  1  0  0  0  0
 14  1  1  0  0  0  0
 15  4  1  0  0  0  0
 16 17  2  0  0  0  0
 16  5  1  0  0  0  0
 17  6  1  0  0  0  0
 18 10  1  0  0  0  0
 19  3  2  0  0  0  0
 19 20  1  0  0  0  0
 20 15  2  0  0  0  0
 22 23  1  0  0  0  0
 22 21  2  0  0  0  0
 24 28  1  0  0  0  0
 24 27  1  0  0  0  0
 24 31  1  0  0  0  0
 25 28  1  0  0  0  0
 25 30  1  0  0  0  0
 29 31  1  0  0  0  0
 29 26  1  1  0  0  0
 30 29  1  0  0  0  0
 30 22  1  1  0  0  0
M  END
>  <MODEL>
5

>  <REMARK>
 VINA RESULT:      -6.9      6.139     10.556
  Name = 
  2 active torsions:
  status: ('A' for Active; 'I' for Inactive)
    1  A    between atoms: C_5  and  C_30
    2  A    between atoms: C_10  and  N_16
                            x       y       z     vdW  Elec       q    Type
                         _______ _______ _______ _____ _____    ______ ____

>  <TORSDO>
F 2

$$$$
=
 OpenBabel11122411183D

 31 35  0  0  1  0  0  0  0  0999 V2000
  188.8640  178.2530  142.5040 C   0  0  0  0  0  0  0  0  0  0  0  0
  186.0370  179.0290  140.0810 C   0  0  2  0  0  3  0  0  0  0  0  0
  186.1930  178.0710  138.9090 C   0  0  0  0  0  0  0  0  0  0  0  0
  187.5360  176.5270  137.5930 C   0  0  0  0  0  0  0  0  0  0  0  0
  186.7650  178.5650  141.3230 C   0  0  0  0  0  0  0  0  0  0  0  0
  188.1870  177.6310  143.5530 C   0  0  0  0  0  3  0  0  0  0  0  0
  187.3950  177.3780  138.6910 C   0  0  0  0  0  3  0  0  0  0  0  0
  183.9120  178.1220  141.0880 C   0  0  2  0  0  3  0  0  0  0  0  0
  190.2100  178.4000  142.5590 F   0  0  0  0  0  0  0  0  0  0  0  0
  183.9520  178.6390  138.1360 O   0  0  0  0  0  0  0  0  0  0  0  0
  188.8090  175.7890  137.3850 C   0  0  0  0  0  1  0  0  0  0  0  0
  184.5800  177.8780  142.4410 C   0  0  0  0  0  2  0  0  0  0  0  0
  184.5560  179.3270  140.3900 C   0  0  2  0  0  3  0  0  0  0  0  0
  188.1560  178.7200  141.3940 C   0  0  0  0  0  3  0  0  0  0  0  0
  186.4820  176.3700  136.6900 C   0  0  0  0  0  3  0  0  0  0  0  0
  186.0800  177.9390  142.3880 C   0  0  0  0  0  0  0  0  0  0  0  0
  186.7980  177.4830  143.4990 C   0  0  0  0  0  3  0  0  0  0  0  0
  183.8270  179.6880  139.0930 C   0  0  0  0  0  2  0  0  0  0  0  0
  185.1470  177.9340  137.9720 C   0  0  0  0  0  0  0  0  0  0  0  0
  185.2900  177.0730  136.8800 C   0  0  0  0  0  3  0  0  0  0  0  0
  181.8150  176.5620  139.9470 O   0  0  0  0  0  0  0  0  0  0  0  0
  181.4870  177.5270  140.6900 C   0  0  0  0  0  0  0  0  0  0  0  0
  182.4870  178.3510  141.2890 N   0  0  0  0  0  2  0  0  0  0  0  0
  179.1710  180.4160  140.3080 N   0  0  0  0  0  0  0  0  0  0  0  0
  179.3150  178.1190  139.7800 O   0  0  0  0  0  0  0  0  0  0  0  0
  180.6190  178.6280  143.3120 C   0  0  0  0  0  1  0  0  0  0  0  0
  179.5080  181.7190  139.7610 C   0  0  0  0  0  1  0  0  0  0  0  0
  179.6470  179.4230  139.3480 C   0  0  0  0  0  2  0  0  0  0  0  0
  179.7640  178.8520  142.0770 C   0  0  2  0  0  3  0  0  0  0  0  0
  180.0350  177.8220  140.9630 C   0  0  2  0  0  3  0  0  0  0  0  0
  179.9520  180.2610  141.5300 C   0  0  0  0  0  2  0  0  0  0  0  0
  1  9  1  0  0  0  0
  1  6  1  0  0  0  0
  2  3  1  6  0  0  0
  2 13  1  0  0  0  0
  2  5  1  0  0  0  0
  4  7  2  0  0  0  0
  5 14  1  0  0  0  0
  5 16  2  0  0  0  0
  7  3  1  0  0  0  0
  8 23  1  1  0  0  0
  8 12  1  0  0  0  0
 10 18  1  0  0  0  0
 11  4  1  0  0  0  0
 13 18  1  6  0  0  0
 13  8  1  0  0  0  0
 14  1  2  0  0  0  0
 15 20  2  0  0  0  0
 15  4  1  0  0  0  0
 16 12  1  0  0  0  0
 16 17  1  0  0  0  0
 17  6  2  0  0  0  0
 19 10  1  0  0  0  0
 19  3  2  0  0  0  0
 20 19  1  0  0  0  0
 21 22  2  0  0  0  0
 22 23  1  0  0  0  0
 24 31  1  0  0  0  0
 25 30  1  0  0  0  0
 27 24  1  0  0  0  0
 28 25  1  0  0  0  0
 28 24  1  0  0  0  0
 29 26  1  1  0  0  0
 30 22  1  6  0  0  0
 30 29  1  0  0  0  0
 31 29  1  0  0  0  0
M  END
>  <MODEL>
6

>  <REMARK>
 VINA RESULT:      -6.9      5.707      8.101
  Name = 
  2 active torsions:
  status: ('A' for Active; 'I' for Inactive)
    1  A    between atoms: C_5  and  C_30
    2  A    between atoms: C_10  and  N_16
                            x       y       z     vdW  Elec       q    Type
                         _______ _______ _______ _____ _____    ______ ____

>  <TORSDO>
F 2

$$$$
=
 OpenBabel11122411183D

 31 35  0  0  1  0  0  0  0  0999 V2000
  183.5310  178.9620  143.1350 C   0  0  0  0  0  0  0  0  0  0  0  0
  183.0980  177.7560  139.5540 C   0  0  2  0  0  3  0  0  0  0  0  0
  182.2250  178.7860  138.8510 C   0  0  0  0  0  0  0  0  0  0  0  0
  180.6480  180.6370  138.9230 C   0  0  0  0  0  0  0  0  0  0  0  0
  183.7470  178.2920  140.8100 C   0  0  0  0  0  0  0  0  0  0  0  0
  184.8630  179.3780  143.1430 C   0  0  0  0  0  3  0  0  0  0  0  0
  181.4690  179.7180  139.5800 C   0  0  0  0  0  3  0  0  0  0  0  0
  185.2770  178.1590  138.3540 C   0  0  2  0  0  3  0  0  0  0  0  0
  182.7750  179.0880  144.2520 F   0  0  0  0  0  0  0  0  0  0  0  0
  182.8060  177.8160  136.6920 O   0  0  0  0  0  0  0  0  0  0  0  0
  179.8670  181.6280  139.7090 C   0  0  0  0  0  1  0  0  0  0  0  0
  186.0140  178.4630  139.6590 C   0  0  0  0  0  2  0  0  0  0  0  0
  184.1510  177.1480  138.6060 C   0  0  2  0  0  3  0  0  0  0  0  0
  182.9760  178.4200  141.9740 C   0  0  0  0  0  3  0  0  0  0  0  0
  180.5590  180.6240  137.5300 C   0  0  0  0  0  3  0  0  0  0  0  0
  185.0960  178.7100  140.8220 C   0  0  0  0  0  0  0  0  0  0  0  0
  185.6450  179.2430  141.9930 C   0  0  0  0  0  3  0  0  0  0  0  0
  183.4750  176.7140  137.3030 C   0  0  0  0  0  2  0  0  0  0  0  0
  182.1010  178.7570  137.4460 C   0  0  0  0  0  0  0  0  0  0  0  0
  181.2840  179.6840  136.7930 C   0  0  0  0  0  3  0  0  0  0  0  0
  187.1310  179.7230  136.8540 O   0  0  0  0  0  0  0  0  0  0  0  0
  187.1290  178.4760  136.6620 C   0  0  0  0  0  0  0  0  0  0  0  0
  186.2220  177.6360  137.3770 N   0  0  0  0  0  2  0  0  0  0  0  0
  187.8870  175.0620  135.3850 N   0  0  0  0  0  0  0  0  0  0  0  0
  187.4180  177.2370  134.5940 O   0  0  0  0  0  0  0  0  0  0  0  0
  189.8020  177.5150  137.5390 C   0  0  0  0  0  1  0  0  0  0  0  0
  187.2120  173.8350  135.7660 C   0  0  0  0  0  1  0  0  0  0  0  0
  186.8440  176.0210  135.0270 C   0  0  0  0  0  2  0  0  0  0  0  0
  189.1590  176.9290  136.2940 C   0  0  2  0  0  3  0  0  0  0  0  0
  188.0870  177.8520  135.6810 C   0  0  2  0  0  3  0  0  0  0  0  0
  188.5560  175.5610  136.5820 C   0  0  0  0  0  2  0  0  0  0  0  0
  1  6  1  0  0  0  0
  1  9  1  0  0  0  0
  2  3  1  6  0  0  0
  2  5  1  0  0  0  0
  3  7  1  0  0  0  0
  4  7  2  0  0  0  0
  4 11  1  0  0  0  0
  5 16  2  0  0  0  0
  5 14  1  0  0  0  0
  8 23  1  6  0  0  0
  8 13  1  0  0  0  0
  8 12  1  0  0  0  0
 10 18  1  0  0  0  0
 10 19  1  0  0  0  0
 12 16  1  0  0  0  0
 13 18  1  6  0  0  0
 13  2  1  0  0  0  0
 14  1  2  0  0  0  0
 15  4  1  0  0  0  0
 16 17  1  0  0  0  0
 17  6  2  0  0  0  0
 19  3  2  0  0  0  0
 20 19  1  0  0  0  0
 20 15  2  0  0  0  0
 22 21  2  0  0  0  0
 22 23  1  0  0  0  0
 24 27  1  0  0  0  0
 24 31  1  0  0  0  0
 25 28  1  0  0  0  0
 25 30  1  0  0  0  0
 28 24  1  0  0  0  0
 29 31  1  0  0  0  0
 29 26  1  1  0  0  0
 30 29  1  0  0  0  0
 30 22  1  1  0  0  0
M  END
>  <MODEL>
7

>  <REMARK>
 VINA RESULT:      -6.8      5.585      9.130
  Name = 
  2 active torsions:
  status: ('A' for Active; 'I' for Inactive)
    1  A    between atoms: C_5  and  C_30
    2  A    between atoms: C_10  and  N_16
                            x       y       z     vdW  Elec       q    Type
                         _______ _______ _______ _____ _____    ______ ____

>  <TORSDO>
F 2

$$$$
=
 OpenBabel11122411183D

 31 35  0  0  1  0  0  0  0  0999 V2000
  189.3640  177.1760  136.7300 C   0  0  0  0  0  0  0  0  0  0  0  0
  185.7810  178.0290  137.6790 C   0  0  2  0  0  3  0  0  0  0  0  0
  185.0090  176.7180  137.6850 C   0  0  0  0  0  0  0  0  0  0  0  0
  184.7870  174.3810  137.0440 C   0  0  0  0  0  0  0  0  0  0  0  0
  187.2770  177.8330  137.7840 C   0  0  0  0  0  0  0  0  0  0  0  0
  190.0360  177.3490  137.9410 C   0  0  0  0  0  3  0  0  0  0  0  0
  185.5200  175.5690  137.0590 C   0  0  0  0  0  3  0  0  0  0  0  0
  185.7580  178.5440  140.1460 C   0  0  2  0  0  3  0  0  0  0  0  0
  190.0430  176.7680  135.6310 F   0  0  0  0  0  0  0  0  0  0  0  0
  183.1610  177.8030  138.8460 O   0  0  0  0  0  0  0  0  0  0  0  0
  185.3500  173.1700  136.3930 C   0  0  0  0  0  1  0  0  0  0  0  0
  187.2850  178.5960  140.2160 C   0  0  0  0  0  2  0  0  0  0  0  0
  185.2750  179.0010  138.7640 C   0  0  2  0  0  3  0  0  0  0  0  0
  187.9910  177.4180  136.6510 C   0  0  0  0  0  3  0  0  0  0  0  0
  183.5250  174.3310  137.6390 C   0  0  0  0  0  3  0  0  0  0  0  0
  187.9600  178.0120  139.0080 C   0  0  0  0  0  0  0  0  0  0  0  0
  189.3370  177.7750  139.0730 C   0  0  0  0  0  3  0  0  0  0  0  0
  183.7490  179.0930  138.6960 C   0  0  0  0  0  2  0  0  0  0  0  0
  183.7180  176.6670  138.2520 C   0  0  0  0  0  0  0  0  0  0  0  0
  182.9910  175.4730  138.2420 C   0  0  0  0  0  3  0  0  0  0  0  0
  185.1390  177.7060  142.8010 O   0  0  0  0  0  0  0  0  0  0  0  0
  184.9160  178.9110  142.5020 C   0  0  0  0  0  0  0  0  0  0  0  0
  185.1990  179.3940  141.1880 N   0  0  0  0  0  2  0  0  0  0  0  0
  184.4940  178.9990  146.1990 N   0  0  0  0  0  0  0  0  0  0  0  0
  185.3410  180.3190  144.4340 O   0  0  0  0  0  0  0  0  0  0  0  0
  182.0580  178.7700  143.3120 C   0  0  0  0  0  1  0  0  0  0  0  0
  184.9110  177.9700  147.1350 C   0  0  0  0  0  1  0  0  0  0  0  0
  185.6470  179.2860  145.3490 C   0  0  0  0  0  2  0  0  0  0  0  0
  183.0820  179.3820  144.2520 C   0  0  2  0  0  3  0  0  0  0  0  0
  184.3540  179.8620  143.5260 C   0  0  2  0  0  3  0  0  0  0  0  0
  183.4590  178.4060  145.3590 C   0  0  0  0  0  2  0  0  0  0  0  0
  1  6  1  0  0  0  0
  2  3  1  1  0  0  0
  2  5  1  0  0  0  0
  2 13  1  0  0  0  0
  3 19  1  0  0  0  0
  4  7  1  0  0  0  0
  4 15  2  0  0  0  0
  5 16  2  0  0  0  0
  6 17  2  0  0  0  0
  7  3  2  0  0  0  0
  8 12  1  0  0  0  0
  8 23  1  1  0  0  0
  9  1  1  0  0  0  0
 11  4  1  0  0  0  0
 13 18  1  1  0  0  0
 13  8  1  0  0  0  0
 14  1  2  0  0  0  0
 14  5  1  0  0  0  0
 15 20  1  0  0  0  0
 16 17  1  0  0  0  0
 16 12  1  0  0  0  0
 18 10  1  0  0  0  0
 19 10  1  0  0  0  0
 20 19  2  0  0  0  0
 22 21  2  0  0  0  0
 23 22  1  0  0  0  0
 24 27  1  0  0  0  0
 25 28  1  0  0  0  0
 28 24  1  0  0  0  0
 29 26  1  6  0  0  0
 29 31  1  0  0  0  0
 30 22  1  1  0  0  0
 30 29  1  0  0  0  0
 30 25  1  0  0  0  0
 31 24  1  0  0  0  0
M  END
>  <MODEL>
8

>  <REMARK>
 VINA RESULT:      -6.8      3.798      5.005
  Name = 
  2 active torsions:
  status: ('A' for Active; 'I' for Inactive)
    1  A    between atoms: C_5  and  C_30
    2  A    between atoms: C_10  and  N_16
                            x       y       z     vdW  Elec       q    Type
                         _______ _______ _______ _____ _____    ______ ____

>  <TORSDO>
F 2

$$$$
=
 OpenBabel11122411183D

 31 35  0  0  1  0  0  0  0  0999 V2000
  189.3430  177.9980  143.6210 C   0  0  0  0  0  0  0  0  0  0  0  0
  186.9080  179.0030  140.8770 C   0  0  2  0  0  3  0  0  0  0  0  0
  187.2570  178.1620  139.6570 C   0  0  0  0  0  0  0  0  0  0  0  0
  188.8090  176.7530  138.4230 C   0  0  0  0  0  0  0  0  0  0  0  0
  187.4440  178.4220  142.1660 C   0  0  0  0  0  0  0  0  0  0  0  0
  188.5220  177.2770  144.4890 C   0  0  0  0  0  3  0  0  0  0  0  0
  188.4890  177.4950  139.5610 C   0  0  0  0  0  3  0  0  0  0  0  0
  184.6680  178.0020  141.4540 C   0  0  2  0  0  3  0  0  0  0  0  0
  190.6610  178.1400  143.8960 F   0  0  0  0  0  0  0  0  0  0  0  0
  185.1520  178.8010  138.6060 O   0  0  0  0  0  0  0  0  0  0  0  0
  190.1100  176.0390  138.3440 C   0  0  0  0  0  1  0  0  0  0  0  0
  185.1250  177.6280  142.8640 C   0  0  0  0  0  2  0  0  0  0  0  0
  185.3930  179.2680  140.9810 C   0  0  2  0  0  3  0  0  0  0  0  0
  188.8060  178.5700  142.4650 C   0  0  0  0  0  3  0  0  0  0  0  0
  187.9090  176.6830  137.3580 C   0  0  0  0  0  3  0  0  0  0  0  0
  186.6150  177.6950  143.0490 C   0  0  0  0  0  0  0  0  0  0  0  0
  187.1610  177.1350  144.2080 C   0  0  0  0  0  3  0  0  0  0  0  0
  184.8650  179.7530  139.6280 C   0  0  0  0  0  2  0  0  0  0  0  0
  186.3690  178.1150  138.5620 C   0  0  0  0  0  0  0  0  0  0  0  0
  186.6910  177.3640  137.4270 C   0  0  0  0  0  3  0  0  0  0  0  0
  182.8210  176.7350  139.6880 O   0  0  0  0  0  0  0  0  0  0  0  0
  182.3550  177.5380  140.5430 C   0  0  0  0  0  0  0  0  0  0  0  0
  183.2260  178.2090  141.4540 N   0  0  0  0  0  2  0  0  0  0  0  0
  179.2870  176.3800  138.7820 N   0  0  0  0  0  0  0  0  0  0  0  0
  180.1430  176.6330  140.9680 O   0  0  0  0  0  0  0  0  0  0  0  0
  181.0940  179.7010  138.9390 C   0  0  0  0  0  1  0  0  0  0  0  0
  179.2320  175.4120  137.7010 C   0  0  0  0  0  1  0  0  0  0  0  0
  180.0790  175.7720  139.8490 C   0  0  0  0  0  2  0  0  0  0  0  0
  180.2590  178.5220  139.4090 C   0  0  2  0  0  3  0  0  0  0  0  0
  180.8730  177.7960  140.6220 C   0  0  2  0  0  3  0  0  0  0  0  0
  180.0300  177.5290  138.2770 C   0  0  0  0  0  2  0  0  0  0  0  0
  1  9  1  0  0  0  0
  1  6  1  0  0  0  0
  2  3  1  6  0  0  0
  2 13  1  0  0  0  0
  2  5  1  0  0  0  0
  4  7  2  0  0  0  0
  5 14  1  0  0  0  0
  5 16  2  0  0  0  0
  7  3  1  0  0  0  0
  8 23  1  1  0  0  0
  8 12  1  0  0  0  0
 10 18  1  0  0  0  0
 11  4  1  0  0  0  0
 12 16  1  0  0  0  0
 13 18  1  6  0  0  0
 13  8  1  0  0  0  0
 14  1  2  0  0  0  0
 15 20  2  0  0  0  0
 15  4  1  0  0  0  0
 16 17  1  0  0  0  0
 17  6  2  0  0  0  0
 19 10  1  0  0  0  0
 19  3  2  0  0  0  0
 20 19  1  0  0  0  0
 21 22  2  0  0  0  0
 22 23  1  0  0  0  0
 24 28  1  0  0  0  0
 27 24  1  0  0  0  0
 28 25  1  0  0  0  0
 29 26  1  6  0  0  0
 29 30  1  0  0  0  0
 30 22  1  6  0  0  0
 30 25  1  0  0  0  0
 31 24  1  0  0  0  0
 31 29  1  0  0  0  0
M  END
>  <MODEL>
9

>  <REMARK>
 VINA RESULT:      -6.7      5.222      8.138
  Name = 
  2 active torsions:
  status: ('A' for Active; 'I' for Inactive)
    1  A    between atoms: C_5  and  C_30
    2  A    between atoms: C_10  and  N_16
                            x       y       z     vdW  Elec       q    Type
                         _______ _______ _______ _____ _____    ______ ____

>  <TORSDO>
F 2

$$$$
