=
 OpenBabel11122412013D

 28 32  0  0  1  0  0  0  0  0999 V2000
  180.2130  176.5350  137.4650 C   0  0  0  0  0  0  0  0  0  0  0  0
  183.5520  176.3290  138.4440 O   0  0  0  0  0  1  0  0  0  0  0  0
  179.7810  180.1680  142.5150 C   0  0  0  0  0  1  0  0  0  0  0  0
  179.8500  178.1940  135.2280 C   0  0  0  0  0  3  0  0  0  0  0  0
  182.0010  179.1990  141.9400 C   0  0  2  0  0  3  0  0  0  0  0  0
  180.3310  175.5890  138.6240 C   0  0  0  0  0  2  0  0  0  0  0  0
  183.5490  177.4180  136.3300 C   0  0  0  0  0  1  0  0  0  0  0  0
  183.8440  177.5410  137.8130 C   0  0  1  0  0  0  0  0  0  0  0  0
  185.8040  178.3460  139.0760 C   0  0  0  0  0  0  0  0  0  0  0  0
  183.0380  178.7030  138.4500 C   0  0  2  0  0  3  0  0  0  0  0  0
  179.2700  175.7220  141.7460 O   0  0  0  0  0  0  0  0  0  0  0  0
  181.2970  177.9350  139.9870 C   0  0  1  0  0  3  0  0  0  0  0  0
  184.9210  178.5900  140.2630 C   0  0  0  0  0  2  0  0  0  0  0  0
  185.3060  177.8330  137.9520 C   0  0  0  0  0  3  0  0  0  0  0  0
  179.0500  176.2860  140.6420 C   0  0  0  0  0  0  0  0  0  0  0  0
  180.7510  177.8540  137.4640 C   0  0  0  0  0  0  0  0  0  0  0  0
  180.5100  178.9280  142.0370 C   0  0  2  0  0  3  0  0  0  0  0  0
  187.2030  178.5790  139.1810 N   0  0  0  0  0  1  0  0  0  0  0  0
  178.9310  177.7090  140.5770 N   0  0  0  0  0  2  0  0  0  0  0  0
  180.5490  178.6660  136.3400 C   0  0  0  0  0  3  0  0  0  0  0  0
  179.5170  176.0770  136.3380 C   0  0  0  0  0  3  0  0  0  0  0  0
  179.3380  176.8980  135.2260 C   0  0  0  0  0  3  0  0  0  0  0  0
  179.0100  175.4780  139.3860 C   0  0  0  0  0  2  0  0  0  0  0  0
  182.5060  178.3020  140.8210 C   0  0  1  0  0  3  0  0  0  0  0  0
  180.0900  178.5960  140.6210 C   0  0  2  0  0  3  0  0  0  0  0  0
  183.4880  179.0150  139.8970 C   0  0  2  0  0  3  0  0  0  0  0  0
  182.6860  178.8330  143.2430 C   0  0  0  0  0  1  0  0  0  0  0  0
  181.5310  178.4770  138.6020 C   0  0  2  0  0  3  0  0  0  0  0  0
  1  6  1  0  0  0  0
  4 20  1  0  0  0  0
  5 17  1  0  0  0  0
  5 27  1  1  0  0  0
  6 23  1  0  0  0  0
  8  7  1  6  0  0  0
  8 14  1  0  0  0  0
  8  2  1  0  0  0  0
  8 10  1  0  0  0  0
  9 18  1  0  0  0  0
  9 13  1  0  0  0  0
 10 28  1  0  0  0  0
 10 26  1  0  0  0  0
 12 25  1  0  0  0  0
 12 24  1  0  0  0  0
 14  9  2  0  0  0  0
 15 11  2  0  0  0  0
 16  1  1  0  0  0  0
 16 28  1  0  0  0  0
 17  3  1  0  0  0  0
 19 25  1  0  0  0  0
 19 15  1  0  0  0  0
 20 16  2  0  0  0  0
 21  1  2  0  0  0  0
 22  4  2  0  0  0  0
 22 21  1  0  0  0  0
 23 15  1  0  0  0  0
 24  5  1  0  0  0  0
 25 17  1  0  0  0  0
 26 13  1  0  0  0  0
 26 24  1  0  0  0  0
 28 12  1  0  0  0  0
M  END
>  <MODEL>
1

>  <REMARK>
 VINA RESULT:      -5.7      0.000      0.000
  Name = 
  0 active torsions:
  status: ('A' for Active; 'I' for Inactive)
                            x       y       z     vdW  Elec       q    Type
                         _______ _______ _______ _____ _____    ______ ____

>  <TORSDO>
F 0

$$$$
=
 OpenBabel11122412013D

 28 32  0  0  1  0  0  0  0  0999 V2000
  180.0300  177.7110  141.5970 C   0  0  0  0  0  0  0  0  0  0  0  0
  178.9310  179.7910  139.0230 O   0  0  0  0  0  1  0  0  0  0  0  0
  184.3070  176.0620  137.3670 C   0  0  0  0  0  1  0  0  0  0  0  0
  181.3780  179.1240  143.6160 C   0  0  0  0  0  3  0  0  0  0  0  0
  182.6170  177.7790  136.7360 C   0  0  2  0  0  3  0  0  0  0  0  0
  179.2740  176.8950  140.5900 C   0  0  0  0  0  2  0  0  0  0  0  0
  179.6490  181.2290  140.7750 C   0  0  0  0  0  1  0  0  0  0  0  0
  179.8870  180.7550  139.3530 C   0  0  1  0  0  0  0  0  0  0  0  0
  180.2090  181.9450  137.2170 C   0  0  0  0  0  0  0  0  0  0  0  0
  181.3220  180.1930  139.1830 C   0  0  2  0  0  3  0  0  0  0  0  0
  180.1830  174.5220  138.4850 O   0  0  0  0  0  0  0  0  0  0  0  0
  181.3700  177.7750  138.8210 C   0  0  1  0  0  3  0  0  0  0  0  0
  180.8870  180.7300  136.6590 C   0  0  0  0  0  2  0  0  0  0  0  0
  179.7220  181.9440  138.4570 C   0  0  0  0  0  3  0  0  0  0  0  0
  180.6220  175.0990  139.5140 C   0  0  0  0  0  0  0  0  0  0  0  0
  181.1000  178.5900  141.2580 C   0  0  0  0  0  0  0  0  0  0  0  0
  182.8450  176.4560  137.4470 C   0  0  2  0  0  3  0  0  0  0  0  0
  180.0040  183.0800  136.3840 N   0  0  0  0  0  1  0  0  0  0  0  0
  181.9840  175.5260  139.5690 N   0  0  0  0  0  2  0  0  0  0  0  0
  181.7630  179.2770  142.2830 C   0  0  0  0  0  3  0  0  0  0  0  0
  179.6560  177.5740  142.9400 C   0  0  0  0  0  3  0  0  0  0  0  0
  180.3220  178.2750  143.9440 C   0  0  0  0  0  3  0  0  0  0  0  0
  179.6940  175.4260  140.6390 C   0  0  0  0  0  2  0  0  0  0  0  0
  181.4550  178.4370  137.4630 C   0  0  1  0  0  3  0  0  0  0  0  0
  182.4600  176.7260  138.8850 C   0  0  2  0  0  3  0  0  0  0  0  0
  181.6820  179.9260  137.7020 C   0  0  2  0  0  3  0  0  0  0  0  0
  182.2470  177.5370  135.2850 C   0  0  0  0  0  1  0  0  0  0  0  0
  181.6040  178.8460  139.8530 C   0  0  2  0  0  3  0  0  0  0  0  0
  1 21  1  0  0  0  0
  2  8  1  0  0  0  0
  3 17  1  0  0  0  0
  4 22  1  0  0  0  0
  5 27  1  6  0  0  0
  5 17  1  0  0  0  0
  5 24  1  0  0  0  0
  6 23  1  0  0  0  0
  6  1  1  0  0  0  0
  8  7  1  1  0  0  0
  9 14  2  0  0  0  0
 10  8  1  0  0  0  0
 10 28  1  0  0  0  0
 11 15  2  0  0  0  0
 12 25  1  0  0  0  0
 12 28  1  0  0  0  0
 13  9  1  0  0  0  0
 13 26  1  0  0  0  0
 14  8  1  0  0  0  0
 15 19  1  0  0  0  0
 15 23  1  0  0  0  0
 16  1  2  0  0  0  0
 16 20  1  0  0  0  0
 17 25  1  0  0  0  0
 18  9  1  0  0  0  0
 20  4  2  0  0  0  0
 21 22  2  0  0  0  0
 24 26  1  0  0  0  0
 24 12  1  0  0  0  0
 25 19  1  0  0  0  0
 26 10  1  0  0  0  0
 28 16  1  0  0  0  0
M  END
>  <MODEL>
2

>  <REMARK>
 VINA RESULT:      -5.6      2.520      5.560
  Name = 
  0 active torsions:
  status: ('A' for Active; 'I' for Inactive)
                            x       y       z     vdW  Elec       q    Type
                         _______ _______ _______ _____ _____    ______ ____

>  <TORSDO>
F 0

$$$$
=
 OpenBabel11122412013D

 28 32  0  0  1  0  0  0  0  0999 V2000
  190.3290  176.9520  138.1290 C   0  0  0  0  0  0  0  0  0  0  0  0
  189.6670  173.5710  137.5920 O   0  0  0  0  0  1  0  0  0  0  0  0
  195.3170  175.7220  134.5940 C   0  0  0  0  0  1  0  0  0  0  0  0
  188.6500  178.6260  136.6230 C   0  0  0  0  0  3  0  0  0  0  0  0
  193.7180  173.8740  135.0690 C   0  0  2  0  0  3  0  0  0  0  0  0
  191.2230  176.1270  139.0070 C   0  0  0  0  0  2  0  0  0  0  0  0
  187.8860  174.7650  136.5630 C   0  0  0  0  0  1  0  0  0  0  0  0
  189.0790  173.8510  136.3550 C   0  0  1  0  0  0  0  0  0  0  0  0
  189.3810  171.7350  135.1260 C   0  0  0  0  0  0  0  0  0  0  0  0
  190.1100  174.4870  135.3850 C   0  0  2  0  0  3  0  0  0  0  0  0
  194.4850  175.6330  139.0580 O   0  0  0  0  0  0  0  0  0  0  0  0
  192.1960  175.1310  136.4860 C   0  0  1  0  0  3  0  0  0  0  0  0
  190.8550  172.0000  135.0590 C   0  0  0  0  0  2  0  0  0  0  0  0
  188.5650  172.5810  135.7510 C   0  0  0  0  0  3  0  0  0  0  0  0
  193.6530  176.4440  138.5720 C   0  0  0  0  0  0  0  0  0  0  0  0
  190.1970  176.7500  136.7240 C   0  0  0  0  0  0  0  0  0  0  0  0
  194.4560  175.0650  135.6540 C   0  0  2  0  0  3  0  0  0  0  0  0
  188.8610  170.5220  134.5940 N   0  0  0  0  0  1  0  0  0  0  0  0
  193.7710  176.8600  137.2100 N   0  0  0  0  0  2  0  0  0  0  0  0
  189.3610  177.6040  135.9930 C   0  0  0  0  0  3  0  0  0  0  0  0
  189.6050  177.9810  138.7440 C   0  0  0  0  0  3  0  0  0  0  0  0
  188.7690  178.8120  137.9990 C   0  0  0  0  0  3  0  0  0  0  0  0
  192.4880  176.8960  139.3890 C   0  0  0  0  0  2  0  0  0  0  0  0
  192.4190  173.7740  135.8530 C   0  0  1  0  0  3  0  0  0  0  0  0
  193.3610  176.0140  136.0920 C   0  0  2  0  0  3  0  0  0  0  0  0
  191.2160  173.4920  134.9600 C   0  0  2  0  0  3  0  0  0  0  0  0
  194.5320  172.6080  135.2580 C   0  0  0  0  0  1  0  0  0  0  0  0
  190.9070  175.6750  135.9290 C   0  0  2  0  0  3  0  0  0  0  0  0
  1 21  1  0  0  0  0
  1  6  1  0  0  0  0
  3 17  1  0  0  0  0
  4 22  1  0  0  0  0
  5 27  1  1  0  0  0
  5 17  1  0  0  0  0
  5 24  1  0  0  0  0
  6 23  1  0  0  0  0
  8  7  1  1  0  0  0
  8  2  1  0  0  0  0
  9 14  2  0  0  0  0
 10 28  1  0  0  0  0
 10  8  1  0  0  0  0
 13  9  1  0  0  0  0
 14  8  1  0  0  0  0
 15 11  2  0  0  0  0
 15 23  1  0  0  0  0
 16  1  2  0  0  0  0
 17 25  1  0  0  0  0
 18  9  1  0  0  0  0
 19 15  1  0  0  0  0
 20  4  2  0  0  0  0
 20 16  1  0  0  0  0
 22 21  2  0  0  0  0
 24 12  1  0  0  0  0
 25 12  1  0  0  0  0
 25 19  1  0  0  0  0
 26 13  1  0  0  0  0
 26 10  1  0  0  0  0
 26 24  1  0  0  0  0
 28 12  1  0  0  0  0
 28 16  1  0  0  0  0
M  END
>  <MODEL>
3

>  <REMARK>
 VINA RESULT:      -5.5      8.002     11.634
  Name = 
  0 active torsions:
  status: ('A' for Active; 'I' for Inactive)
                            x       y       z     vdW  Elec       q    Type
                         _______ _______ _______ _____ _____    ______ ____

>  <TORSDO>
F 0

$$$$
=
 OpenBabel11122412013D

 28 32  0  0  1  0  0  0  0  0999 V2000
  183.0390  178.0330  137.8320 C   0  0  0  0  0  0  0  0  0  0  0  0
  183.3140  174.5950  138.3440 O   0  0  0  0  0  1  0  0  0  0  0  0
  188.6890  177.3050  135.2910 C   0  0  0  0  0  1  0  0  0  0  0  0
  181.2760  178.6680  135.7400 C   0  0  0  0  0  3  0  0  0  0  0  0
  187.5290  175.2960  136.1970 C   0  0  2  0  0  3  0  0  0  0  0  0
  183.9490  177.7770  138.9970 C   0  0  0  0  0  2  0  0  0  0  0  0
  181.4920  174.8960  136.8460 C   0  0  0  0  0  1  0  0  0  0  0  0
  182.8880  174.3350  137.0380 C   0  0  1  0  0  0  0  0  0  0  0  0
  183.8920  172.1310  136.5740 C   0  0  0  0  0  0  0  0  0  0  0  0
  183.8790  174.9320  136.0050 C   0  0  2  0  0  3  0  0  0  0  0  0
  187.1800  178.2560  139.4690 O   0  0  0  0  0  0  0  0  0  0  0  0
  185.5360  176.4220  137.0110 C   0  0  1  0  0  3  0  0  0  0  0  0
  185.2480  172.7700  136.5470 C   0  0  0  0  0  2  0  0  0  0  0  0
  182.8030  172.8550  136.8290 C   0  0  0  0  0  3  0  0  0  0  0  0
  186.2680  178.6280  138.6840 C   0  0  0  0  0  0  0  0  0  0  0  0
  183.1930  177.4110  136.5580 C   0  0  0  0  0  0  0  0  0  0  0  0
  187.8500  176.7620  136.4320 C   0  0  2  0  0  3  0  0  0  0  0  0
  183.7760  170.7220  136.4140 N   0  0  0  0  0  1  0  0  0  0  0  0
  186.5040  178.6560  137.2750 N   0  0  0  0  0  2  0  0  0  0  0  0
  182.3070  177.7520  135.5280 C   0  0  0  0  0  3  0  0  0  0  0  0
  181.9960  178.9470  138.0270 C   0  0  0  0  0  3  0  0  0  0  0  0
  181.1180  179.2620  136.9900 C   0  0  0  0  0  3  0  0  0  0  0  0
  184.9100  178.9460  139.2170 C   0  0  0  0  0  2  0  0  0  0  0  0
  186.1830  175.0620  136.8630 C   0  0  1  0  0  3  0  0  0  0  0  0
  186.5010  177.4480  136.4540 C   0  0  2  0  0  3  0  0  0  0  0  0
  185.2480  174.2110  136.0100 C   0  0  2  0  0  3  0  0  0  0  0  0
  188.5840  174.4190  136.8430 C   0  0  0  0  0  1  0  0  0  0  0  0
  184.2640  176.4000  136.2060 C   0  0  2  0  0  3  0  0  0  0  0  0
  1 21  1  0  0  0  0
  1  6  1  0  0  0  0
  3 17  1  0  0  0  0
  4 22  1  0  0  0  0
  5 17  1  0  0  0  0
  5 27  1  1  0  0  0
  5 24  1  0  0  0  0
  6 23  1  0  0  0  0
  8  7  1  6  0  0  0
  8  2  1  0  0  0  0
  9 14  2  0  0  0  0
 10 26  1  0  0  0  0
 10 28  1  0  0  0  0
 10  8  1  0  0  0  0
 13  9  1  0  0  0  0
 14  8  1  0  0  0  0
 15 23  1  0  0  0  0
 15 11  2  0  0  0  0
 16  1  2  0  0  0  0
 17 25  1  0  0  0  0
 18  9  1  0  0  0  0
 19 15  1  0  0  0  0
 20  4  2  0  0  0  0
 20 16  1  0  0  0  0
 22 21  2  0  0  0  0
 24 12  1  0  0  0  0
 25 12  1  0  0  0  0
 25 19  1  0  0  0  0
 26 13  1  0  0  0  0
 26 24  1  0  0  0  0
 28 16  1  0  0  0  0
 28 12  1  0  0  0  0
M  END
>  <MODEL>
4

>  <REMARK>
 VINA RESULT:      -5.5      3.298      6.466
  Name = 
  0 active torsions:
  status: ('A' for Active; 'I' for Inactive)
                            x       y       z     vdW  Elec       q    Type
                         _______ _______ _______ _____ _____    ______ ____

>  <TORSDO>
F 0

$$$$
=
 OpenBabel11122412013D

 28 32  0  0  1  0  0  0  0  0999 V2000
  181.8510  178.8090  140.0950 C   0  0  0  0  0  0  0  0  0  0  0  0
  181.8210  175.4290  139.2420 O   0  0  0  0  0  1  0  0  0  0  0  0
  187.1800  178.7640  136.8560 C   0  0  0  0  0  1  0  0  0  0  0  0
  180.0000  180.3080  138.6060 C   0  0  0  0  0  3  0  0  0  0  0  0
  185.9010  176.6370  137.0620 C   0  0  2  0  0  3  0  0  0  0  0  0
  182.8200  178.0700  140.9690 C   0  0  0  0  0  2  0  0  0  0  0  0
  179.9250  176.3950  138.1810 C   0  0  0  0  0  1  0  0  0  0  0  0
  181.2690  175.7180  137.9910 C   0  0  1  0  0  0  0  0  0  0  0  0
  182.0080  173.8030  136.6230 C   0  0  0  0  0  0  0  0  0  0  0  0
  182.2290  176.6030  137.1540 C   0  0  2  0  0  3  0  0  0  0  0  0
  186.1100  178.1290  141.2240 O   0  0  0  0  0  0  0  0  0  0  0  0
  184.1020  177.4860  138.4560 C   0  0  1  0  0  3  0  0  0  0  0  0
  183.4140  174.3180  136.6870 C   0  0  0  0  0  2  0  0  0  0  0  0
  181.0200  174.4400  137.2510 C   0  0  0  0  0  3  0  0  0  0  0  0
  185.1810  178.8290  140.7430 C   0  0  0  0  0  0  0  0  0  0  0  0
  181.8410  178.7170  138.6730 C   0  0  0  0  0  0  0  0  0  0  0  0
  186.3850  177.8780  137.7930 C   0  0  2  0  0  3  0  0  0  0  0  0
  181.7390  172.5740  135.9580 N   0  0  0  0  0  1  0  0  0  0  0  0
  185.3060  179.3820  139.4310 N   0  0  0  0  0  2  0  0  0  0  0  0
  180.9140  179.4810  137.9510 C   0  0  0  0  0  3  0  0  0  0  0  0
  180.9230  179.6410  140.7340 C   0  0  0  0  0  3  0  0  0  0  0  0
  180.0020  180.3850  139.9970 C   0  0  0  0  0  3  0  0  0  0  0  0
  183.9070  179.0030  141.5050 C   0  0  0  0  0  2  0  0  0  0  0  0
  184.5950  176.2500  137.7360 C   0  0  1  0  0  3  0  0  0  0  0  0
  185.1170  178.5850  138.2220 C   0  0  2  0  0  3  0  0  0  0  0  0
  183.5150  175.8520  136.7350 C   0  0  2  0  0  3  0  0  0  0  0  0
  186.9110  175.5150  137.2090 C   0  0  0  0  0  1  0  0  0  0  0  0
  182.7740  177.8540  137.8490 C   0  0  2  0  0  3  0  0  0  0  0  0
  1 21  1  0  0  0  0
  1  6  1  0  0  0  0
  3 17  1  0  0  0  0
  4 22  1  0  0  0  0
  5 27  1  1  0  0  0
  5 24  1  0  0  0  0
  5 17  1  0  0  0  0
  6 23  1  0  0  0  0
  8  7  1  1  0  0  0
  8  2  1  0  0  0  0
  9 13  1  0  0  0  0
  9 14  2  0  0  0  0
 10 28  1  0  0  0  0
 10  8  1  0  0  0  0
 13 26  1  0  0  0  0
 14  8  1  0  0  0  0
 15 11  2  0  0  0  0
 15 23  1  0  0  0  0
 16  1  2  0  0  0  0
 17 25  1  0  0  0  0
 18  9  1  0  0  0  0
 19 15  1  0  0  0  0
 20  4  2  0  0  0  0
 20 16  1  0  0  0  0
 22 21  2  0  0  0  0
 24 12  1  0  0  0  0
 25 12  1  0  0  0  0
 25 19  1  0  0  0  0
 26 10  1  0  0  0  0
 26 24  1  0  0  0  0
 28 12  1  0  0  0  0
 28 16  1  0  0  0  0
M  END
>  <MODEL>
5

>  <REMARK>
 VINA RESULT:      -5.5      2.335      5.549
  Name = 
  0 active torsions:
  status: ('A' for Active; 'I' for Inactive)
                            x       y       z     vdW  Elec       q    Type
                         _______ _______ _______ _____ _____    ______ ____

>  <TORSDO>
F 0

$$$$
=
 OpenBabel11122412013D

 28 32  0  0  1  0  0  0  0  0999 V2000
  187.9920  176.1510  136.5740 C   0  0  0  0  0  0  0  0  0  0  0  0
  189.0360  175.9310  139.8930 O   0  0  0  0  0  1  0  0  0  0  0  0
  183.7440  180.0220  138.9970 C   0  0  0  0  0  1  0  0  0  0  0  0
  189.7220  177.7110  135.0050 C   0  0  0  0  0  3  0  0  0  0  0  0
  185.4140  178.9870  140.5280 C   0  0  2  0  0  3  0  0  0  0  0  0
  187.0520  175.2580  137.3300 C   0  0  0  0  0  2  0  0  0  0  0  0
  190.8370  176.9210  138.6970 C   0  0  0  0  0  1  0  0  0  0  0  0
  189.7800  177.1070  139.7690 C   0  0  1  0  0  0  0  0  0  0  0  0
  189.8680  177.9340  142.0910 C   0  0  0  0  0  0  0  0  0  0  0  0
  188.8580  178.3120  139.4430 C   0  0  2  0  0  3  0  0  0  0  0  0
  183.8810  175.5540  138.1930 O   0  0  0  0  0  0  0  0  0  0  0  0
  186.5760  177.6470  138.8670 C   0  0  1  0  0  3  0  0  0  0  0  0
  188.4040  178.2490  142.0190 C   0  0  0  0  0  2  0  0  0  0  0  0
  190.4960  177.3790  141.0560 C   0  0  0  0  0  3  0  0  0  0  0  0
  184.6990  176.0700  137.3880 C   0  0  0  0  0  0  0  0  0  0  0  0
  188.3570  177.4590  137.0050 C   0  0  0  0  0  0  0  0  0  0  0  0
  184.4870  178.7480  139.3480 C   0  0  2  0  0  3  0  0  0  0  0  0
  190.5730  178.1470  143.3080 N   0  0  0  0  0  1  0  0  0  0  0  0
  184.7560  177.4900  137.2370 N   0  0  0  0  0  2  0  0  0  0  0  0
  189.2140  178.2210  136.2010 C   0  0  0  0  0  3  0  0  0  0  0  0
  188.5140  175.6540  135.3730 C   0  0  0  0  0  3  0  0  0  0  0  0
  189.3750  176.4260  134.5940 C   0  0  0  0  0  3  0  0  0  0  0  0
  185.6780  175.2060  136.6620 C   0  0  0  0  0  2  0  0  0  0  0  0
  186.5790  178.0300  140.3310 C   0  0  1  0  0  3  0  0  0  0  0  0
  185.4090  178.3580  138.2130 C   0  0  2  0  0  3  0  0  0  0  0  0
  187.9270  178.6820  140.6220 C   0  0  2  0  0  3  0  0  0  0  0  0
  184.7000  178.6690  141.8280 C   0  0  0  0  0  1  0  0  0  0  0  0
  187.8800  178.1200  138.2810 C   0  0  2  0  0  3  0  0  0  0  0  0
  1 16  1  0  0  0  0
  1  6  1  0  0  0  0
  3 17  1  0  0  0  0
  4 20  1  0  0  0  0
  5 27  1  1  0  0  0
  8  7  1  6  0  0  0
  8  2  1  0  0  0  0
  8 14  1  0  0  0  0
  9 18  1  0  0  0  0
 10  8  1  0  0  0  0
 10 26  1  0  0  0  0
 12 24  1  0  0  0  0
 13  9  1  0  0  0  0
 14  9  2  0  0  0  0
 15 11  2  0  0  0  0
 16 28  1  0  0  0  0
 17  5  1  0  0  0  0
 19 15  1  0  0  0  0
 19 25  1  0  0  0  0
 20 16  2  0  0  0  0
 21  1  2  0  0  0  0
 22  4  2  0  0  0  0
 22 21  1  0  0  0  0
 23  6  1  0  0  0  0
 23 15  1  0  0  0  0
 24  5  1  0  0  0  0
 24 26  1  0  0  0  0
 25 12  1  0  0  0  0
 25 17  1  0  0  0  0
 26 13  1  0  0  0  0
 28 12  1  0  0  0  0
 28 10  1  0  0  0  0
M  END
>  <MODEL>
6

>  <REMARK>
 VINA RESULT:      -5.4      4.008      6.494
  Name = 
  0 active torsions:
  status: ('A' for Active; 'I' for Inactive)
                            x       y       z     vdW  Elec       q    Type
                         _______ _______ _______ _____ _____    ______ ____

>  <TORSDO>
F 0

$$$$
=
 OpenBabel11122412013D

 28 32  0  0  1  0  0  0  0  0999 V2000
  183.1050  177.1590  137.1470 C   0  0  0  0  0  0  0  0  0  0  0  0
  184.5600  174.0100  137.5050 O   0  0  0  0  0  1  0  0  0  0  0  0
  189.0570  179.0020  136.8610 C   0  0  0  0  0  1  0  0  0  0  0  0
  182.0030  177.5480  134.5940 C   0  0  0  0  0  3  0  0  0  0  0  0
  188.5810  176.5730  137.1380 C   0  0  2  0  0  3  0  0  0  0  0  0
  183.6180  177.0070  138.5490 C   0  0  0  0  0  2  0  0  0  0  0  0
  183.3520  173.9520  135.4580 C   0  0  0  0  0  1  0  0  0  0  0  0
  184.7150  173.8910  136.1210 C   0  0  1  0  0  0  0  0  0  0  0  0
  186.6110  172.3260  135.9260 C   0  0  0  0  0  0  0  0  0  0  0  0
  185.6550  174.9960  135.5730 C   0  0  2  0  0  3  0  0  0  0  0  0
  186.0470  178.4840  140.2240 O   0  0  0  0  0  0  0  0  0  0  0  0
  186.1570  176.7340  137.2190 C   0  0  1  0  0  3  0  0  0  0  0  0
  187.5260  173.3920  136.4480 C   0  0  0  0  0  2  0  0  0  0  0  0
  185.3040  172.5520  135.8020 C   0  0  0  0  0  3  0  0  0  0  0  0
  185.3660  178.6630  139.1810 C   0  0  0  0  0  0  0  0  0  0  0  0
  183.8930  176.9070  135.9870 C   0  0  0  0  0  0  0  0  0  0  0  0
  188.1920  177.9770  137.5690 C   0  0  2  0  0  3  0  0  0  0  0  0
  187.1290  171.0310  135.6440 N   0  0  0  0  0  1  0  0  0  0  0  0
  186.0060  179.0610  137.9670 N   0  0  0  0  0  2  0  0  0  0  0  0
  183.3240  177.1170  134.7240 C   0  0  0  0  0  3  0  0  0  0  0  0
  181.7800  177.5870  136.9960 C   0  0  0  0  0  3  0  0  0  0  0  0
  181.2300  177.7790  135.7290 C   0  0  0  0  0  3  0  0  0  0  0  0
  183.9020  178.3670  139.1870 C   0  0  0  0  0  2  0  0  0  0  0  0
  187.3070  175.7490  137.2360 C   0  0  1  0  0  3  0  0  0  0  0  0
  186.7510  178.1240  137.1290 C   0  0  2  0  0  3  0  0  0  0  0  0
  187.1180  174.8180  136.0430 C   0  0  2  0  0  3  0  0  0  0  0  0
  189.6320  176.0100  138.0740 C   0  0  0  0  0  1  0  0  0  0  0  0
  185.3310  176.4310  135.9970 C   0  0  2  0  0  3  0  0  0  0  0  0
  1  6  1  0  0  0  0
  3 17  1  0  0  0  0
  4 20  2  0  0  0  0
  4 22  1  0  0  0  0
  5 24  1  0  0  0  0
  5 17  1  0  0  0  0
  5 27  1  1  0  0  0
  6 23  1  0  0  0  0
  8  7  1  6  0  0  0
  8  2  1  0  0  0  0
  9 13  1  0  0  0  0
 10 28  1  0  0  0  0
 10 26  1  0  0  0  0
 10  8  1  0  0  0  0
 12 24  1  0  0  0  0
 14  9  2  0  0  0  0
 14  8  1  0  0  0  0
 15 23  1  0  0  0  0
 15 11  2  0  0  0  0
 16 28  1  0  0  0  0
 16  1  2  0  0  0  0
 18  9  1  0  0  0  0
 19 15  1  0  0  0  0
 20 16  1  0  0  0  0
 21  1  1  0  0  0  0
 22 21  2  0  0  0  0
 25 12  1  0  0  0  0
 25 17  1  0  0  0  0
 25 19  1  0  0  0  0
 26 13  1  0  0  0  0
 26 24  1  0  0  0  0
 28 12  1  0  0  0  0
M  END
>  <MODEL>
7

>  <REMARK>
 VINA RESULT:      -5.3      3.424      6.214
  Name = 
  0 active torsions:
  status: ('A' for Active; 'I' for Inactive)
                            x       y       z     vdW  Elec       q    Type
                         _______ _______ _______ _____ _____    ______ ____

>  <TORSDO>
F 0

$$$$
=
 OpenBabel11122412013D

 28 32  0  0  1  0  0  0  0  0999 V2000
  180.8320  179.8420  139.7070 C   0  0  0  0  0  0  0  0  0  0  0  0
  184.2850  180.1000  139.3020 O   0  0  0  0  0  1  0  0  0  0  0  0
  181.3610  175.9070  134.8960 C   0  0  0  0  0  1  0  0  0  0  0  0
  180.1260  178.3040  141.9480 C   0  0  0  0  0  3  0  0  0  0  0  0
  183.4260  176.9820  135.7810 C   0  0  2  0  0  3  0  0  0  0  0  0
  181.1270  180.7210  138.5270 C   0  0  0  0  0  2  0  0  0  0  0  0
  183.9410  179.1360  141.4480 C   0  0  0  0  0  1  0  0  0  0  0  0
  184.4900  178.9370  140.0480 C   0  0  1  0  0  0  0  0  0  0  0  0
  186.6560  178.1250  139.1930 C   0  0  0  0  0  0  0  0  0  0  0  0
  183.8330  177.7140  139.3570 C   0  0  2  0  0  3  0  0  0  0  0  0
  180.6250  180.3720  135.2850 O   0  0  0  0  0  0  0  0  0  0  0  0
  182.3670  178.3330  137.5000 C   0  0  1  0  0  3  0  0  0  0  0  0
  185.9980  177.7830  137.8910 C   0  0  0  0  0  2  0  0  0  0  0  0
  185.9610  178.6850  140.1810 C   0  0  0  0  0  3  0  0  0  0  0  0
  180.2300  179.8660  136.3680 C   0  0  0  0  0  0  0  0  0  0  0  0
  181.3910  178.5430  139.8830 C   0  0  0  0  0  0  0  0  0  0  0  0
  181.9680  177.1970  135.4130 C   0  0  2  0  0  3  0  0  0  0  0  0
  188.0580  177.9320  139.3430 N   0  0  0  0  0  1  0  0  0  0  0  0
  180.1340  178.4470  136.5010 N   0  0  0  0  0  2  0  0  0  0  0  0
  181.0160  177.7920  141.0040 C   0  0  0  0  0  3  0  0  0  0  0  0
  179.9420  180.3410  140.6660 C   0  0  0  0  0  3  0  0  0  0  0  0
  179.5920  179.5810  141.7810 C   0  0  0  0  0  3  0  0  0  0  0  0
  179.9560  180.7440  137.5450 C   0  0  0  0  0  2  0  0  0  0  0  0
  183.7100  177.9580  136.9110 C   0  0  1  0  0  3  0  0  0  0  0  0
  181.3030  177.5970  136.7120 C   0  0  2  0  0  3  0  0  0  0  0  0
  184.5330  177.3330  138.0320 C   0  0  2  0  0  3  0  0  0  0  0  0
  184.3170  177.2940  134.5940 C   0  0  0  0  0  1  0  0  0  0  0  0
  182.3700  177.8810  138.9360 C   0  0  2  0  0  3  0  0  0  0  0  0
  1 16  2  0  0  0  0
  1 21  1  0  0  0  0
  2  8  1  0  0  0  0
  3 17  1  0  0  0  0
  5 27  1  6  0  0  0
  5 24  1  0  0  0  0
  6  1  1  0  0  0  0
  8 14  1  0  0  0  0
  8  7  1  1  0  0  0
  9 18  1  0  0  0  0
  9 14  2  0  0  0  0
 10  8  1  0  0  0  0
 11 15  2  0  0  0  0
 12 28  1  0  0  0  0
 13 26  1  0  0  0  0
 13  9  1  0  0  0  0
 15 19  1  0  0  0  0
 15 23  1  0  0  0  0
 16 20  1  0  0  0  0
 17  5  1  0  0  0  0
 17 25  1  0  0  0  0
 19 25  1  0  0  0  0
 20  4  2  0  0  0  0
 21 22  2  0  0  0  0
 22  4  1  0  0  0  0
 23  6  1  0  0  0  0
 24 12  1  0  0  0  0
 24 26  1  0  0  0  0
 25 12  1  0  0  0  0
 26 10  1  0  0  0  0
 28 10  1  0  0  0  0
 28 16  1  0  0  0  0
M  END
>  <MODEL>
8

>  <REMARK>
 VINA RESULT:      -5.3      2.341      5.095
  Name = 
  0 active torsions:
  status: ('A' for Active; 'I' for Inactive)
                            x       y       z     vdW  Elec       q    Type
                         _______ _______ _______ _____ _____    ______ ____

>  <TORSDO>
F 0

$$$$
=
 OpenBabel11122412013D

 28 32  0  0  1  0  0  0  0  0999 V2000
  188.0890  177.5630  136.5890 C   0  0  0  0  0  0  0  0  0  0  0  0
  189.8730  175.3100  134.6150 O   0  0  0  0  0  1  0  0  0  0  0  0
  184.5200  172.5630  137.6720 C   0  0  0  0  0  1  0  0  0  0  0  0
  189.4100  178.1620  138.9940 C   0  0  0  0  0  3  0  0  0  0  0  0
  186.4980  172.3060  136.1800 C   0  0  2  0  0  3  0  0  0  0  0  0
  187.3490  177.3380  135.3030 C   0  0  0  0  0  2  0  0  0  0  0  0
  191.3490  175.9760  136.3560 C   0  0  0  0  0  1  0  0  0  0  0  0
  190.5680  174.8360  135.7300 C   0  0  1  0  0  0  0  0  0  0  0  0
  191.1920  172.5510  135.0430 C   0  0  0  0  0  0  0  0  0  0  0  0
  189.5970  174.1930  136.7540 C   0  0  2  0  0  3  0  0  0  0  0  0
  184.4640  175.9030  134.5940 O   0  0  0  0  0  0  0  0  0  0  0  0
  187.2440  174.6180  136.2450 C   0  0  1  0  0  3  0  0  0  0  0  0
  189.7520  172.1460  135.1330 C   0  0  0  0  0  2  0  0  0  0  0  0
  191.5630  173.8050  135.2930 C   0  0  0  0  0  3  0  0  0  0  0  0
  185.0740  176.3690  135.5910 C   0  0  0  0  0  0  0  0  0  0  0  0
  188.5450  176.5080  137.4320 C   0  0  0  0  0  0  0  0  0  0  0  0
  185.3240  173.1950  136.5520 C   0  0  2  0  0  3  0  0  0  0  0  0
  192.1600  171.6080  134.5980 N   0  0  0  0  0  1  0  0  0  0  0  0
  185.0950  175.6420  136.8210 N   0  0  0  0  0  2  0  0  0  0  0  0
  189.1930  176.8320  138.6310 C   0  0  0  0  0  3  0  0  0  0  0  0
  188.3190  178.8910  136.9680 C   0  0  0  0  0  3  0  0  0  0  0  0
  188.9770  179.1910  138.1600 C   0  0  0  0  0  3  0  0  0  0  0  0
  185.8580  177.6340  135.4620 C   0  0  0  0  0  2  0  0  0  0  0  0
  187.5860  173.2510  135.6940 C   0  0  1  0  0  3  0  0  0  0  0  0
  185.9580  174.4820  137.0330 C   0  0  2  0  0  3  0  0  0  0  0  0
  188.9650  172.8820  136.2310 C   0  0  2  0  0  3  0  0  0  0  0  0
  186.1040  171.3560  135.0660 C   0  0  0  0  0  1  0  0  0  0  0  0
  188.3770  175.0300  137.1460 C   0  0  2  0  0  3  0  0  0  0  0  0
  1 21  2  0  0  0  0
  1 16  1  0  0  0  0
  2  8  1  0  0  0  0
  5 27  1  6  0  0  0
  5 17  1  0  0  0  0
  6 23  1  0  0  0  0
  6  1  1  0  0  0  0
  8  7  1  1  0  0  0
  8 10  1  0  0  0  0
  9 13  1  0  0  0  0
  9 14  2  0  0  0  0
 10 28  1  0  0  0  0
 11 15  2  0  0  0  0
 12 25  1  0  0  0  0
 12 28  1  0  0  0  0
 13 26  1  0  0  0  0
 14  8  1  0  0  0  0
 15 19  1  0  0  0  0
 16 20  2  0  0  0  0
 17 25  1  0  0  0  0
 17  3  1  0  0  0  0
 18  9  1  0  0  0  0
 19 25  1  0  0  0  0
 20  4  1  0  0  0  0
 21 22  1  0  0  0  0
 22  4  2  0  0  0  0
 23 15  1  0  0  0  0
 24  5  1  0  0  0  0
 24 26  1  0  0  0  0
 24 12  1  0  0  0  0
 26 10  1  0  0  0  0
 28 16  1  0  0  0  0
M  END
>  <MODEL>
9

>  <REMARK>
 VINA RESULT:      -5.3      5.964      8.808
  Name = 
  0 active torsions:
  status: ('A' for Active; 'I' for Inactive)
                            x       y       z     vdW  Elec       q    Type
                         _______ _______ _______ _____ _____    ______ ____

>  <TORSDO>
F 0

$$$$
