=
 OpenBabel11122412123D

 34 41  0  0  1  0  0  0  0  0999 V2000
  186.0400  178.3130  145.4170 C   0  0  0  0  0  0  0  0  0  0  0  0
  183.9860  178.8450  143.9530 C   0  0  0  0  0  3  0  0  0  0  0  0
  191.6910  175.4880  146.3210 C   0  0  1  0  0  3  0  0  0  0  0  0
  188.0970  177.7650  146.6180 C   0  0  0  0  0  0  0  0  0  0  0  0
  189.9790  176.8950  145.3480 C   0  0  0  0  0  0  0  0  0  0  0  0
  191.9140  175.5450  144.2080 C   0  0  0  0  0  2  0  0  0  0  0  0
  192.4760  174.6650  145.3240 C   0  0  0  0  0  2  0  0  0  0  0  0
  191.7060  177.2870  147.9060 C   0  0  0  0  0  2  0  0  0  0  0  0
  185.9460  177.9990  142.9540 C   0  0  0  0  0  0  0  0  0  0  0  0
  186.6970  178.5770  139.9350 C   0  0  0  0  0  2  0  0  0  0  0  0
  189.2520  177.0080  144.2050 N   0  0  0  0  0  0  0  0  0  0  0  0
  190.1650  177.1140  147.9360 C   0  0  0  0  0  2  0  0  0  0  0  0
  187.2120  177.5460  142.9220 C   0  0  0  0  0  0  0  0  0  0  0  0
  183.7410  178.6980  142.4440 C   0  0  0  0  0  3  0  0  0  0  0  0
  189.4280  177.3000  146.6010 C   0  0  0  0  0  0  0  0  0  0  0  0
  192.4410  176.1010  147.4100 N   0  0  0  0  0  2  0  0  0  0  0  0
  185.6140  179.2110  140.8070 C   0  0  2  0  0  3  0  0  0  0  0  0
  187.3670  177.8460  145.4130 C   0  0  0  0  0  0  0  0  0  0  0  0
  191.4190  176.5170  145.2610 C   0  0  2  0  0  3  0  0  0  0  0  0
  187.9700  177.4560  144.2000 C   0  0  0  0  0  0  0  0  0  0  0  0
  186.1540  178.6160  147.8160 C   0  0  0  0  0  3  0  0  0  0  0  0
  187.9940  178.3430  140.6980 C   0  0  0  0  0  2  0  0  0  0  0  0
  187.4730  178.1530  147.8150 C   0  0  0  0  0  3  0  0  0  0  0  0
  187.8630  177.1480  141.6330 C   0  0  0  0  0  2  0  0  0  0  0  0
  185.0380  178.1810  141.7900 C   0  0  1  0  0  3  0  0  0  0  0  0
  185.4370  178.6970  146.6190 C   0  0  0  0  0  3  0  0  0  0  0  0
  185.3380  178.3800  144.1700 N   0  0  0  0  0  0  0  0  0  0  0  0
  184.6070  179.7040  139.9730 O   0  0  0  0  0  0  0  0  0  0  0  0
  184.6080  178.8510  138.8670 C   0  0  0  0  0  2  0  0  0  0  0  0
  181.8350  177.4390  139.8040 O   0  0  0  0  0  0  0  0  0  0  0  0
  182.2710  179.6320  139.0530 C   0  0  0  0  0  2  0  0  0  0  0  0
  183.1960  178.6970  138.3300 C   0  0  2  0  0  3  0  0  0  0  0  0
  181.2660  178.7160  139.7090 C   0  0  0  0  0  2  0  0  0  0  0  0
  182.6720  177.3240  138.6840 C   0  0  0  0  0  2  0  0  0  0  0  0
  1 26  1  0  0  0  0
  2 27  1  0  0  0  0
  3  7  1  6  0  0  0
  3 16  1  0  0  0  0
  4 23  2  0  0  0  0
  5 15  2  0  0  0  0
  6  7  1  0  0  0  0
  8 12  1  0  0  0  0
  9 27  1  0  0  0  0
 10 22  1  0  0  0  0
 10 17  1  0  0  0  0
 11  5  1  0  0  0  0
 13  9  2  0  0  0  0
 13 20  1  0  0  0  0
 14  2  2  0  0  0  0
 15  4  1  0  0  0  0
 15 12  1  0  0  0  0
 16  8  1  0  0  0  0
 17 28  1  6  0  0  0
 17 25  1  0  0  0  0
 18  1  2  0  0  0  0
 18  4  1  0  0  0  0
 19  6  1  6  0  0  0
 19  5  1  0  0  0  0
 19  3  1  0  0  0  0
 20 11  2  0  0  0  0
 20 18  1  0  0  0  0
 22 24  1  0  0  0  0
 23 21  1  0  0  0  0
 24 13  1  0  0  0  0
 25 14  1  1  0  0  0
 25  9  1  0  0  0  0
 26 21  2  0  0  0  0
 27  1  1  0  0  0  0
 29 28  1  0  0  0  0
 31 33  1  0  0  0  0
 32 34  1  0  0  0  0
 32 29  1  1  0  0  0
 32 31  1  0  0  0  0
 33 30  1  0  0  0  0
 34 30  1  0  0  0  0
M  END
>  <MODEL>
1

>  <REMARK>
 VINA RESULT:      -9.9      0.000      0.000
  Name = 
  3 active torsions:
  status: ('A' for Active; 'I' for Inactive)
    1  A    between atoms: C_17  and  O_28
    2  A    between atoms: O_28  and  C_29
    3  A    between atoms: C_29  and  C_32
                            x       y       z     vdW  Elec       q    Type
                         _______ _______ _______ _____ _____    ______ ____

>  <TORSDO>
F 3

$$$$
=
 OpenBabel11122412123D

 34 41  0  0  1  0  0  0  0  0999 V2000
  188.1580  177.7550  141.9280 C   0  0  0  0  0  0  0  0  0  0  0  0
  186.2780  178.5400  140.3490 C   0  0  0  0  0  3  0  0  0  0  0  0
  190.9590  177.6070  147.6610 C   0  0  1  0  0  3  0  0  0  0  0  0
  189.8040  177.0520  143.5930 C   0  0  0  0  0  0  0  0  0  0  0  0
  189.2700  177.3580  145.9450 C   0  0  0  0  0  0  0  0  0  0  0  0
  189.0370  178.0240  148.4680 C   0  0  0  0  0  2  0  0  0  0  0  0
  190.4730  178.2580  148.9360 C   0  0  0  0  0  2  0  0  0  0  0  0
  191.7650  175.6170  146.5930 C   0  0  0  0  0  2  0  0  0  0  0  0
  185.9970  178.7210  142.6820 C   0  0  0  0  0  0  0  0  0  0  0  0
  183.1460  178.7060  144.0540 C   0  0  0  0  0  2  0  0  0  0  0  0
  188.0580  177.8670  145.5970 N   0  0  0  0  0  0  0  0  0  0  0  0
  191.5960  176.4030  145.2680 C   0  0  0  0  0  2  0  0  0  0  0  0
  186.3440  178.5930  143.9750 C   0  0  0  0  0  0  0  0  0  0  0  0
  184.9050  179.1710  140.6290 C   0  0  0  0  0  3  0  0  0  0  0  0
  190.1800  176.9040  144.9440 C   0  0  0  0  0  0  0  0  0  0  0  0
  191.8620  176.4710  147.7990 N   0  0  0  0  0  2  0  0  0  0  0  0
  183.5340  178.3770  142.6130 C   0  0  2  0  0  3  0  0  0  0  0  0
  188.5470  177.6060  143.2720 C   0  0  0  0  0  0  0  0  0  0  0  0
  189.5690  177.1070  147.3850 C   0  0  2  0  0  3  0  0  0  0  0  0
  187.6760  178.0160  144.3020 C   0  0  0  0  0  0  0  0  0  0  0  0
  190.2680  176.8080  141.2140 C   0  0  0  0  0  3  0  0  0  0  0  0
  184.1480  178.1640  145.0640 C   0  0  0  0  0  2  0  0  0  0  0  0
  190.6570  176.6580  142.5490 C   0  0  0  0  0  3  0  0  0  0  0  0
  185.4150  179.0090  145.0740 C   0  0  0  0  0  2  0  0  0  0  0  0
  184.7110  179.2520  142.1560 C   0  0  1  0  0  3  0  0  0  0  0  0
  189.0210  177.3550  140.9020 C   0  0  0  0  0  3  0  0  0  0  0  0
  186.8720  178.3220  141.6490 N   0  0  0  0  0  0  0  0  0  0  0  0
  182.4220  178.5910  141.7950 O   0  0  0  0  0  0  0  0  0  0  0  0
  181.4060  178.9880  142.6680 C   0  0  0  0  0  2  0  0  0  0  0  0
  179.4910  181.4330  141.7090 O   0  0  0  0  0  0  0  0  0  0  0  0
  180.3870  179.6120  140.5040 C   0  0  0  0  0  2  0  0  0  0  0  0
  180.1040  179.1530  141.9050 C   0  0  2  0  0  3  0  0  0  0  0  0
  179.6860  180.9460  140.4090 C   0  0  0  0  0  2  0  0  0  0  0  0
  179.3120  180.2920  142.5060 C   0  0  0  0  0  2  0  0  0  0  0  0
  1 18  1  0  0  0  0
  2 14  2  0  0  0  0
  2 27  1  0  0  0  0
  3 16  1  0  0  0  0
  3  7  1  1  0  0  0
  4 15  1  0  0  0  0
  5 19  1  0  0  0  0
  6  7  1  0  0  0  0
  8 16  1  0  0  0  0
  9 13  2  0  0  0  0
 10 22  1  0  0  0  0
 11  5  1  0  0  0  0
 12  8  1  0  0  0  0
 13 20  1  0  0  0  0
 13 24  1  0  0  0  0
 15 12  1  0  0  0  0
 15  5  2  0  0  0  0
 17 28  1  6  0  0  0
 17 10  1  0  0  0  0
 18  4  2  0  0  0  0
 18 20  1  0  0  0  0
 19  3  1  0  0  0  0
 19  6  1  1  0  0  0
 20 11  2  0  0  0  0
 21 23  2  0  0  0  0
 22 24  1  0  0  0  0
 23  4  1  0  0  0  0
 25 14  1  6  0  0  0
 25 17  1  0  0  0  0
 25  9  1  0  0  0  0
 26 21  1  0  0  0  0
 26  1  2  0  0  0  0
 27  1  1  0  0  0  0
 27  9  1  0  0  0  0
 28 29  1  0  0  0  0
 30 34  1  0  0  0  0
 31 32  1  0  0  0  0
 32 34  1  0  0  0  0
 32 29  1  1  0  0  0
 33 31  1  0  0  0  0
 33 30  1  0  0  0  0
M  END
>  <MODEL>
2

>  <REMARK>
 VINA RESULT:      -9.8      1.833      4.015
  Name = 
  3 active torsions:
  status: ('A' for Active; 'I' for Inactive)
    1  A    between atoms: C_17  and  O_28
    2  A    between atoms: O_28  and  C_29
    3  A    between atoms: C_29  and  C_32
                            x       y       z     vdW  Elec       q    Type
                         _______ _______ _______ _____ _____    ______ ____

>  <TORSDO>
F 3

$$$$
=
 OpenBabel11122412123D

 34 41  0  0  1  0  0  0  0  0999 V2000
  190.7710  177.3900  142.8090 C   0  0  0  0  0  0  0  0  0  0  0  0
  192.5300  177.1590  140.9390 C   0  0  0  0  0  3  0  0  0  0  0  0
  185.0220  179.2150  144.8940 C   0  0  1  0  0  3  0  0  0  0  0  0
  188.9500  177.6240  144.4240 C   0  0  0  0  0  0  0  0  0  0  0  0
  186.7150  178.0870  143.5850 C   0  0  0  0  0  0  0  0  0  0  0  0
  184.3700  179.0180  142.8810 C   0  0  0  0  0  2  0  0  0  0  0  0
  183.9060  179.8370  144.0840 C   0  0  0  0  0  2  0  0  0  0  0  0
  185.6710  177.5200  146.4600 C   0  0  0  0  0  2  0  0  0  0  0  0
  190.2820  177.5970  140.3820 C   0  0  0  0  0  0  0  0  0  0  0  0
  189.0270  176.7510  137.6040 C   0  0  0  0  0  2  0  0  0  0  0  0
  187.1930  178.0490  142.3130 N   0  0  0  0  0  0  0  0  0  0  0  0
  187.1250  177.9630  146.1530 C   0  0  0  0  0  2  0  0  0  0  0  0
  188.9770  177.8170  140.6220 C   0  0  0  0  0  0  0  0  0  0  0  0
  192.4180  177.2740  139.4110 C   0  0  0  0  0  3  0  0  0  0  0  0
  187.5840  177.8450  144.6920 C   0  0  0  0  0  0  0  0  0  0  0  0
  184.6440  178.5320  146.1260 N   0  0  0  0  0  2  0  0  0  0  0  0
  190.3670  176.3610  138.2250 C   0  0  2  0  0  3  0  0  0  0  0  0
  189.4100  177.6150  143.0900 C   0  0  0  0  0  0  0  0  0  0  0  0
  185.2450  178.2000  143.8090 C   0  0  2  0  0  3  0  0  0  0  0  0
  188.5040  177.8340  142.0330 C   0  0  0  0  0  0  0  0  0  0  0  0
  191.2250  177.1880  145.1780 C   0  0  0  0  0  3  0  0  0  0  0  0
  187.9000  176.7890  138.6280 C   0  0  0  0  0  2  0  0  0  0  0  0
  189.8740  177.4100  145.4600 C   0  0  0  0  0  3  0  0  0  0  0  0
  188.0060  178.0320  139.5010 C   0  0  0  0  0  2  0  0  0  0  0  0
  190.9400  177.5230  139.0500 C   0  0  1  0  0  3  0  0  0  0  0  0
  191.6750  177.1770  143.8550 C   0  0  0  0  0  3  0  0  0  0  0  0
  191.1930  177.3880  141.4400 N   0  0  0  0  0  0  0  0  0  0  0  0
  191.2470  176.0140  137.1970 O   0  0  0  0  0  0  0  0  0  0  0  0
  191.5280  174.6620  137.4060 C   0  0  0  0  0  2  0  0  0  0  0  0
  194.4790  175.9270  136.9050 O   0  0  0  0  0  0  0  0  0  0  0  0
  193.8260  173.7830  137.6440 C   0  0  0  0  0  2  0  0  0  0  0  0
  192.7970  174.2760  136.6680 C   0  0  2  0  0  3  0  0  0  0  0  0
  194.9740  174.7490  137.4810 C   0  0  0  0  0  2  0  0  0  0  0  0
  193.4270  175.5150  136.0730 C   0  0  0  0  0  2  0  0  0  0  0  0
  1 18  2  0  0  0  0
  1 26  1  0  0  0  0
  2 27  1  0  0  0  0
  3  7  1  6  0  0  0
  3 16  1  0  0  0  0
  4 15  1  0  0  0  0
  4 23  2  0  0  0  0
  5 19  1  0  0  0  0
  5 15  2  0  0  0  0
  6  7  1  0  0  0  0
  9 13  2  0  0  0  0
  9 27  1  0  0  0  0
 10 17  1  0  0  0  0
 10 22  1  0  0  0  0
 11  5  1  0  0  0  0
 12  8  1  0  0  0  0
 13 20  1  0  0  0  0
 14  2  2  0  0  0  0
 15 12  1  0  0  0  0
 16  8  1  0  0  0  0
 17 28  1  6  0  0  0
 17 25  1  0  0  0  0
 18  4  1  0  0  0  0
 19  6  1  6  0  0  0
 19  3  1  0  0  0  0
 20 11  2  0  0  0  0
 20 18  1  0  0  0  0
 21 23  1  0  0  0  0
 22 24  1  0  0  0  0
 24 13  1  0  0  0  0
 25 14  1  1  0  0  0
 25  9  1  0  0  0  0
 26 21  2  0  0  0  0
 27  1  1  0  0  0  0
 28 29  1  0  0  0  0
 30 33  1  0  0  0  0
 32 29  1  1  0  0  0
 32 31  1  0  0  0  0
 33 31  1  0  0  0  0
 34 32  1  0  0  0  0
 34 30  1  0  0  0  0
M  END
>  <MODEL>
3

>  <REMARK>
 VINA RESULT:      -9.5      4.138      7.376
  Name = 
  3 active torsions:
  status: ('A' for Active; 'I' for Inactive)
    1  A    between atoms: C_17  and  O_28
    2  A    between atoms: O_28  and  C_29
    3  A    between atoms: C_29  and  C_32
                            x       y       z     vdW  Elec       q    Type
                         _______ _______ _______ _____ _____    ______ ____

>  <TORSDO>
F 3

$$$$
=
 OpenBabel11122412123D

 34 41  0  0  1  0  0  0  0  0999 V2000
  185.7930  178.3700  145.2840 C   0  0  0  0  0  0  0  0  0  0  0  0
  183.8570  178.7230  143.6190 C   0  0  0  0  0  3  0  0  0  0  0  0
  191.4820  175.9180  146.8190 C   0  0  1  0  0  3  0  0  0  0  0  0
  187.7570  177.9920  146.6890 C   0  0  0  0  0  0  0  0  0  0  0  0
  189.7930  177.1830  145.6340 C   0  0  0  0  0  0  0  0  0  0  0  0
  191.8950  175.9050  144.7340 C   0  0  0  0  0  2  0  0  0  0  0  0
  192.3990  175.1040  145.9350 C   0  0  0  0  0  2  0  0  0  0  0  0
  191.2520  177.7770  148.3160 C   0  0  0  0  0  2  0  0  0  0  0  0
  185.9440  177.9540  142.8390 C   0  0  0  0  0  0  0  0  0  0  0  0
  186.9380  178.4540  139.8780 C   0  0  0  0  0  2  0  0  0  0  0  0
  189.1690  177.2080  144.4260 N   0  0  0  0  0  0  0  0  0  0  0  0
  189.7270  177.5160  148.2150 C   0  0  0  0  0  2  0  0  0  0  0  0
  187.2300  177.5750  142.9420 C   0  0  0  0  0  0  0  0  0  0  0  0
  183.7610  178.5020  142.1020 C   0  0  0  0  0  3  0  0  0  0  0  0
  189.1070  177.6060  146.8120 C   0  0  0  0  0  0  0  0  0  0  0  0
  192.0940  176.6170  147.9430 N   0  0  0  0  0  2  0  0  0  0  0  0
  185.7460  179.0580  140.6190 C   0  0  2  0  0  3  0  0  0  0  0  0
  187.1380  177.9830  145.4210 C   0  0  0  0  0  0  0  0  0  0  0  0
  191.2530  176.8870  145.6930 C   0  0  2  0  0  3  0  0  0  0  0  0
  187.8700  177.5800  144.2860 C   0  0  0  0  0  0  0  0  0  0  0  0
  185.6680  178.7750  147.6670 C   0  0  0  0  0  3  0  0  0  0  0  0
  188.1690  178.3270  140.7640 C   0  0  0  0  0  2  0  0  0  0  0  0
  187.0050  178.3910  147.8060 C   0  0  0  0  0  3  0  0  0  0  0  0
  188.0180  177.1650  141.7350 C   0  0  0  0  0  2  0  0  0  0  0  0
  185.1380  178.0360  141.5910 C   0  0  1  0  0  3  0  0  0  0  0  0
  185.0610  178.7660  146.4090 C   0  0  0  0  0  3  0  0  0  0  0  0
  185.2060  178.3470  143.9770 N   0  0  0  0  0  0  0  0  0  0  0  0
  184.7950  179.4580  139.6770 O   0  0  0  0  0  0  0  0  0  0  0  0
  184.9720  178.5880  138.5980 C   0  0  0  0  0  2  0  0  0  0  0  0
  183.8320  176.0770  136.8790 O   0  0  0  0  0  0  0  0  0  0  0  0
  183.1560  176.9520  138.9630 C   0  0  0  0  0  2  0  0  0  0  0  0
  183.6250  178.0920  138.1060 C   0  0  2  0  0  3  0  0  0  0  0  0
  183.0380  175.7960  138.0000 C   0  0  0  0  0  2  0  0  0  0  0  0
  183.7880  177.4710  136.7370 C   0  0  0  0  0  2  0  0  0  0  0  0
  1 18  2  0  0  0  0
  1 26  1  0  0  0  0
  2 27  1  0  0  0  0
  3  7  1  6  0  0  0
  3 16  1  0  0  0  0
  4 15  1  0  0  0  0
  4 23  2  0  0  0  0
  5 19  1  0  0  0  0
  5 15  2  0  0  0  0
  6  7  1  0  0  0  0
  9 13  2  0  0  0  0
  9 27  1  0  0  0  0
 10 17  1  0  0  0  0
 10 22  1  0  0  0  0
 11  5  1  0  0  0  0
 12  8  1  0  0  0  0
 13 20  1  0  0  0  0
 14  2  2  0  0  0  0
 15 12  1  0  0  0  0
 16  8  1  0  0  0  0
 17 28  1  6  0  0  0
 17 25  1  0  0  0  0
 18  4  1  0  0  0  0
 19  6  1  6  0  0  0
 19  3  1  0  0  0  0
 20 11  2  0  0  0  0
 20 18  1  0  0  0  0
 21 23  1  0  0  0  0
 22 24  1  0  0  0  0
 24 13  1  0  0  0  0
 25 14  1  1  0  0  0
 25  9  1  0  0  0  0
 26 21  2  0  0  0  0
 27  1  1  0  0  0  0
 29 28  1  0  0  0  0
 30 33  1  0  0  0  0
 32 29  1  1  0  0  0
 32 31  1  0  0  0  0
 33 31  1  0  0  0  0
 34 30  1  0  0  0  0
 34 32  1  0  0  0  0
M  END
>  <MODEL>
4

>  <REMARK>
 VINA RESULT:      -9.5      0.978      1.200
  Name = 
  3 active torsions:
  status: ('A' for Active; 'I' for Inactive)
    1  A    between atoms: C_17  and  O_28
    2  A    between atoms: O_28  and  C_29
    3  A    between atoms: C_29  and  C_32
                            x       y       z     vdW  Elec       q    Type
                         _______ _______ _______ _____ _____    ______ ____

>  <TORSDO>
F 3

$$$$
=
 OpenBabel11122412123D

 34 41  0  0  1  0  0  0  0  0999 V2000
  183.8000  178.6180  144.0960 C   0  0  0  0  0  0  0  0  0  0  0  0
  181.4050  178.9930  143.2190 C   0  0  0  0  0  3  0  0  0  0  0  0
  189.8170  176.6540  143.2810 C   0  0  1  0  0  3  0  0  0  0  0  0
  186.1380  178.2620  144.7160 C   0  0  0  0  0  0  0  0  0  0  0  0
  187.7570  177.8780  142.9440 C   0  0  0  0  0  0  0  0  0  0  0  0
  189.5200  177.0160  141.2080 C   0  0  0  0  0  2  0  0  0  0  0  0
  190.4400  176.1030  142.0180 C   0  0  0  0  0  2  0  0  0  0  0  0
  189.9800  178.2160  145.0940 C   0  0  0  0  0  2  0  0  0  0  0  0
  183.1610  178.6090  141.6950 C   0  0  0  0  0  0  0  0  0  0  0  0
  183.0880  179.6810  138.7190 C   0  0  0  0  0  2  0  0  0  0  0  0
  186.7690  178.0160  142.0200 N   0  0  0  0  0  0  0  0  0  0  0  0
  188.5260  177.7930  145.4300 C   0  0  0  0  0  2  0  0  0  0  0  0
  184.4300  178.3760  141.3160 C   0  0  0  0  0  0  0  0  0  0  0  0
  180.8270  179.0020  141.7960 C   0  0  0  0  0  3  0  0  0  0  0  0
  187.4740  178.0260  144.3350 C   0  0  0  0  0  0  0  0  0  0  0  0
  190.7210  177.2370  144.2650 N   0  0  0  0  0  2  0  0  0  0  0  0
  182.1730  180.0150  139.8960 C   0  0  2  0  0  3  0  0  0  0  0  0
  185.1370  178.3770  143.7280 C   0  0  0  0  0  0  0  0  0  0  0  0
  189.1710  177.7520  142.4850 C   0  0  2  0  0  3  0  0  0  0  0  0
  185.4760  178.2470  142.3660 C   0  0  0  0  0  0  0  0  0  0  0  0
  184.4440  178.6280  146.4290 C   0  0  0  0  0  3  0  0  0  0  0  0
  184.5490  179.5650  139.1330 C   0  0  0  0  0  2  0  0  0  0  0  0
  185.7730  178.3890  146.0670 C   0  0  0  0  0  3  0  0  0  0  0  0
  184.7990  178.2560  139.8680 C   0  0  0  0  0  2  0  0  0  0  0  0
  181.9850  178.7880  140.8010 C   0  0  1  0  0  3  0  0  0  0  0  0
  183.4570  178.7430  145.4460 C   0  0  0  0  0  3  0  0  0  0  0  0
  182.8180  178.7290  143.0580 N   0  0  0  0  0  0  0  0  0  0  0  0
  180.9410  180.4400  139.3910 O   0  0  0  0  0  0  0  0  0  0  0  0
  181.2210  181.6310  138.7170 C   0  0  0  0  0  2  0  0  0  0  0  0
  180.8060  183.5550  136.1310 O   0  0  0  0  0  0  0  0  0  0  0  0
  180.4310  181.2420  136.4080 C   0  0  0  0  0  2  0  0  0  0  0  0
  180.1250  181.9250  137.7090 C   0  0  2  0  0  3  0  0  0  0  0  0
  180.5450  182.3760  135.4190 C   0  0  0  0  0  2  0  0  0  0  0  0
  180.1470  183.3960  137.3590 C   0  0  0  0  0  2  0  0  0  0  0  0
  1 26  1  0  0  0  0
  3  7  1  6  0  0  0
  3 16  1  0  0  0  0
  4 23  2  0  0  0  0
  5 15  2  0  0  0  0
  6  7  1  0  0  0  0
  8 12  1  0  0  0  0
  9 27  1  0  0  0  0
 10 22  1  0  0  0  0
 10 17  1  0  0  0  0
 11 20  2  0  0  0  0
 11  5  1  0  0  0  0
 13  9  2  0  0  0  0
 13 20  1  0  0  0  0
 14  2  2  0  0  0  0
 15  4  1  0  0  0  0
 15 12  1  0  0  0  0
 16  8  1  0  0  0  0
 17 28  1  6  0  0  0
 17 25  1  0  0  0  0
 18  1  2  0  0  0  0
 18  4  1  0  0  0  0
 19  6  1  6  0  0  0
 19  5  1  0  0  0  0
 19  3  1  0  0  0  0
 20 18  1  0  0  0  0
 22 24  1  0  0  0  0
 23 21  1  0  0  0  0
 24 13  1  0  0  0  0
 25  9  1  0  0  0  0
 25 14  1  1  0  0  0
 26 21  2  0  0  0  0
 27  2  1  0  0  0  0
 27  1  1  0  0  0  0
 29 28  1  0  0  0  0
 30 34  1  0  0  0  0
 31 32  1  0  0  0  0
 32 29  1  1  0  0  0
 33 30  1  0  0  0  0
 33 31  1  0  0  0  0
 34 32  1  0  0  0  0
M  END
>  <MODEL>
5

>  <REMARK>
 VINA RESULT:      -9.3      2.374      3.796
  Name = 
  3 active torsions:
  status: ('A' for Active; 'I' for Inactive)
    1  A    between atoms: C_17  and  O_28
    2  A    between atoms: O_28  and  C_29
    3  A    between atoms: C_29  and  C_32
                            x       y       z     vdW  Elec       q    Type
                         _______ _______ _______ _____ _____    ______ ____

>  <TORSDO>
F 3

$$$$
=
 OpenBabel11122412123D

 34 41  0  0  1  0  0  0  0  0999 V2000
  189.8560  177.5340  141.4120 C   0  0  0  0  0  0  0  0  0  0  0  0
  189.9590  177.8380  138.8540 C   0  0  0  0  0  3  0  0  0  0  0  0
  187.1060  178.6010  147.0710 C   0  0  1  0  0  3  0  0  0  0  0  0
  189.5430  177.2950  143.8250 C   0  0  0  0  0  0  0  0  0  0  0  0
  187.3860  177.8930  144.7740 C   0  0  0  0  0  0  0  0  0  0  0  0
  185.3000  178.9070  145.9930 C   0  0  0  0  0  2  0  0  0  0  0  0
  185.8380  179.3780  147.3440 C   0  0  0  0  0  2  0  0  0  0  0  0
  188.3480  176.5800  147.4260 C   0  0  0  0  0  2  0  0  0  0  0  0
  187.9690  178.3400  140.0120 C   0  0  0  0  0  0  0  0  0  0  0  0
  185.1240  178.1980  138.6350 C   0  0  0  0  0  2  0  0  0  0  0  0
  186.9300  178.1950  143.5300 N   0  0  0  0  0  0  0  0  0  0  0  0
  189.3160  177.1280  146.3460 C   0  0  0  0  0  2  0  0  0  0  0  0
  187.1680  178.4550  141.0860 C   0  0  0  0  0  0  0  0  0  0  0  0
  188.9170  178.3370  137.8420 C   0  0  0  0  0  3  0  0  0  0  0  0
  188.7140  177.4010  144.9590 C   0  0  0  0  0  0  0  0  0  0  0  0
  187.5060  177.6150  148.0680 N   0  0  0  0  0  2  0  0  0  0  0  0
  186.4760  177.7000  138.1280 C   0  0  2  0  0  3  0  0  0  0  0  0
  189.0390  177.6400  142.5520 C   0  0  0  0  0  0  0  0  0  0  0  0
  186.4350  177.9040  145.9220 C   0  0  2  0  0  3  0  0  0  0  0  0
  187.7120  178.0970  142.4240 C   0  0  0  0  0  0  0  0  0  0  0  0
  191.6810  176.7450  142.7930 C   0  0  0  0  0  3  0  0  0  0  0  0
  184.9310  177.9410  140.1240 C   0  0  0  0  0  2  0  0  0  0  0  0
  190.8710  176.8480  143.9280 C   0  0  0  0  0  3  0  0  0  0  0  0
  185.7500  178.9220  140.9520 C   0  0  0  0  0  2  0  0  0  0  0  0
  187.6060  178.6280  138.5980 C   0  0  1  0  0  3  0  0  0  0  0  0
  191.1750  177.0850  141.5350 C   0  0  0  0  0  3  0  0  0  0  0  0
  189.3010  177.8940  140.1410 N   0  0  0  0  0  0  0  0  0  0  0  0
  186.4350  177.6530  136.7320 O   0  0  0  0  0  0  0  0  0  0  0  0
  185.9950  176.3620  136.4300 C   0  0  0  0  0  2  0  0  0  0  0  0
  186.5670  173.1740  136.1540 O   0  0  0  0  0  0  0  0  0  0  0  0
  188.0390  175.0170  136.0760 C   0  0  0  0  0  2  0  0  0  0  0  0
  186.9360  175.3390  137.0420 C   0  0  2  0  0  3  0  0  0  0  0  0
  187.8790  173.5380  135.8200 C   0  0  0  0  0  2  0  0  0  0  0  0
  186.2070  174.0250  137.2090 C   0  0  0  0  0  2  0  0  0  0  0  0
  1 26  2  0  0  0  0
  1 18  1  0  0  0  0
  2 27  1  0  0  0  0
  3  7  1  1  0  0  0
  3 16  1  0  0  0  0
  4 23  1  0  0  0  0
  4 15  1  0  0  0  0
  5 15  2  0  0  0  0
  5 19  1  0  0  0  0
  6  7  1  0  0  0  0
  8 16  1  0  0  0  0
  9 27  1  0  0  0  0
  9 13  2  0  0  0  0
 10 22  1  0  0  0  0
 11  5  1  0  0  0  0
 12  8  1  0  0  0  0
 13 20  1  0  0  0  0
 14  2  2  0  0  0  0
 15 12  1  0  0  0  0
 17 28  1  6  0  0  0
 17 25  1  0  0  0  0
 17 10  1  0  0  0  0
 18  4  2  0  0  0  0
 19  6  1  6  0  0  0
 19  3  1  0  0  0  0
 20 18  1  0  0  0  0
 20 11  2  0  0  0  0
 21 23  2  0  0  0  0
 22 24  1  0  0  0  0
 24 13  1  0  0  0  0
 25 14  1  6  0  0  0
 25  9  1  0  0  0  0
 26 21  1  0  0  0  0
 27  1  1  0  0  0  0
 29 28  1  0  0  0  0
 30 34  1  0  0  0  0
 31 32  1  0  0  0  0
 32 29  1  6  0  0  0
 32 34  1  0  0  0  0
 33 31  1  0  0  0  0
 33 30  1  0  0  0  0
M  END
>  <MODEL>
6

>  <REMARK>
 VINA RESULT:      -9.0      2.983      5.286
  Name = 
  3 active torsions:
  status: ('A' for Active; 'I' for Inactive)
    1  A    between atoms: C_17  and  O_28
    2  A    between atoms: O_28  and  C_29
    3  A    between atoms: C_29  and  C_32
                            x       y       z     vdW  Elec       q    Type
                         _______ _______ _______ _____ _____    ______ ____

>  <TORSDO>
F 3

$$$$
=
 OpenBabel11122412123D

 34 41  0  0  1  0  0  0  0  0999 V2000
  188.2710  177.7800  141.1530 C   0  0  0  0  0  0  0  0  0  0  0  0
  186.7390  178.4630  139.1950 C   0  0  0  0  0  3  0  0  0  0  0  0
  189.8130  177.8550  147.3460 C   0  0  1  0  0  3  0  0  0  0  0  0
  189.5520  177.1710  143.1440 C   0  0  0  0  0  0  0  0  0  0  0  0
  188.5290  177.5100  145.3240 C   0  0  0  0  0  0  0  0  0  0  0  0
  187.7540  178.2230  147.7230 C   0  0  0  0  0  2  0  0  0  0  0  0
  189.0530  178.5170  148.4730 C   0  0  0  0  0  2  0  0  0  0  0  0
  190.8840  175.8720  146.5270 C   0  0  0  0  0  2  0  0  0  0  0  0
  185.9710  178.6850  141.4130 C   0  0  0  0  0  0  0  0  0  0  0  0
  182.8980  178.6010  142.1600 C   0  0  0  0  0  2  0  0  0  0  0  0
  187.4020  177.9690  144.7160 N   0  0  0  0  0  0  0  0  0  0  0  0
  190.9720  176.6230  145.1730 C   0  0  0  0  0  2  0  0  0  0  0  0
  186.0440  178.5980  142.7530 C   0  0  0  0  0  0  0  0  0  0  0  0
  185.3200  179.0510  139.1650 C   0  0  0  0  0  3  0  0  0  0  0  0
  189.6410  177.0660  144.5470 C   0  0  0  0  0  0  0  0  0  0  0  0
  190.7020  176.7550  147.7020 N   0  0  0  0  0  2  0  0  0  0  0  0
  183.5890  178.2530  140.8420 C   0  0  2  0  0  3  0  0  0  0  0  0
  188.3730  177.6740  142.5520 C   0  0  0  0  0  0  0  0  0  0  0  0
  188.5270  177.3020  146.8010 C   0  0  2  0  0  3  0  0  0  0  0  0
  187.2950  178.0750  143.3670 C   0  0  0  0  0  0  0  0  0  0  0  0
  190.5100  176.8910  140.9220 C   0  0  0  0  0  3  0  0  0  0  0  0
  183.6830  178.1170  143.3720 C   0  0  0  0  0  2  0  0  0  0  0  0
  190.6150  176.7840  142.3120 C   0  0  0  0  0  3  0  0  0  0  0  0
  184.8940  179.0050  143.6220 C   0  0  0  0  0  2  0  0  0  0  0  0
  184.8080  179.1590  140.6150 C   0  0  1  0  0  3  0  0  0  0  0  0
  189.3400  177.3870  140.3410 C   0  0  0  0  0  3  0  0  0  0  0  0
  187.0540  178.2940  140.5970 N   0  0  0  0  0  0  0  0  0  0  0  0
  182.6660  178.4110  139.8040 O   0  0  0  0  0  0  0  0  0  0  0  0
  181.5230  178.9280  140.4170 C   0  0  0  0  0  2  0  0  0  0  0  0
  181.0750  181.7420  138.8530 O   0  0  0  0  0  0  0  0  0  0  0  0
  181.2710  179.5370  138.0350 C   0  0  0  0  0  2  0  0  0  0  0  0
  180.5790  179.4830  139.3660 C   0  0  2  0  0  3  0  0  0  0  0  0
  181.2560  181.0030  137.6750 C   0  0  0  0  0  2  0  0  0  0  0  0
  180.2780  180.9320  139.6760 C   0  0  0  0  0  2  0  0  0  0  0  0
  1 18  1  0  0  0  0
  2 27  1  0  0  0  0
  3 16  1  0  0  0  0
  3  7  1  1  0  0  0
  4 15  1  0  0  0  0
  5 19  1  0  0  0  0
  6  7  1  0  0  0  0
  8 16  1  0  0  0  0
  9 13  2  0  0  0  0
 10 22  1  0  0  0  0
 11  5  1  0  0  0  0
 12  8  1  0  0  0  0
 13 20  1  0  0  0  0
 13 24  1  0  0  0  0
 14  2  2  0  0  0  0
 15 12  1  0  0  0  0
 15  5  2  0  0  0  0
 17 28  1  6  0  0  0
 17 10  1  0  0  0  0
 18  4  2  0  0  0  0
 18 20  1  0  0  0  0
 19  3  1  0  0  0  0
 19  6  1  1  0  0  0
 20 11  2  0  0  0  0
 21 23  2  0  0  0  0
 22 24  1  0  0  0  0
 23  4  1  0  0  0  0
 25 14  1  6  0  0  0
 25 17  1  0  0  0  0
 25  9  1  0  0  0  0
 26 21  1  0  0  0  0
 26  1  2  0  0  0  0
 27  1  1  0  0  0  0
 27  9  1  0  0  0  0
 28 29  1  0  0  0  0
 30 34  1  0  0  0  0
 31 32  1  0  0  0  0
 32 34  1  0  0  0  0
 32 29  1  1  0  0  0
 33 31  1  0  0  0  0
 33 30  1  0  0  0  0
M  END
>  <MODEL>
7

>  <REMARK>
 VINA RESULT:      -9.0      1.696      4.023
  Name = 
  3 active torsions:
  status: ('A' for Active; 'I' for Inactive)
    1  A    between atoms: C_17  and  O_28
    2  A    between atoms: O_28  and  C_29
    3  A    between atoms: C_29  and  C_32
                            x       y       z     vdW  Elec       q    Type
                         _______ _______ _______ _____ _____    ______ ____

>  <TORSDO>
F 3

$$$$
=
 OpenBabel11122412123D

 34 41  0  0  1  0  0  0  0  0999 V2000
  188.5250  177.8090  140.6520 C   0  0  0  0  0  0  0  0  0  0  0  0
  187.9500  178.1040  138.1560 C   0  0  0  0  0  3  0  0  0  0  0  0
  187.1680  178.5830  146.8400 C   0  0  1  0  0  3  0  0  0  0  0  0
  188.8550  177.5530  143.0610 C   0  0  0  0  0  0  0  0  0  0  0  0
  186.9480  177.8960  144.5300 C   0  0  0  0  0  0  0  0  0  0  0  0
  185.1270  178.6620  146.2510 C   0  0  0  0  0  2  0  0  0  0  0  0
  185.9250  179.2050  147.4360 C   0  0  0  0  0  2  0  0  0  0  0  0
  188.6880  176.7280  146.8290 C   0  0  0  0  0  2  0  0  0  0  0  0
  186.2660  178.3730  139.7840 C   0  0  0  0  0  0  0  0  0  0  0  0
  183.2050  177.8810  139.1550 C   0  0  0  0  0  2  0  0  0  0  0  0
  186.1630  178.1320  143.4450 N   0  0  0  0  0  0  0  0  0  0  0  0
  189.2850  177.3800  145.5550 C   0  0  0  0  0  2  0  0  0  0  0  0
  185.7510  178.3990  141.0250 C   0  0  0  0  0  0  0  0  0  0  0  0
  186.6370  178.4660  137.4460 C   0  0  0  0  0  3  0  0  0  0  0  0
  188.3280  177.5680  144.3680 C   0  0  0  0  0  0  0  0  0  0  0  0
  187.9170  177.6600  147.6840 N   0  0  0  0  0  2  0  0  0  0  0  0
  184.4370  177.5440  138.3160 C   0  0  2  0  0  3  0  0  0  0  0  0
  188.0120  177.8260  141.9620 C   0  0  0  0  0  0  0  0  0  0  0  0
  186.3180  177.8020  145.8780 C   0  0  2  0  0  3  0  0  0  0  0  0
  186.6500  178.1190  142.1780 C   0  0  0  0  0  0  0  0  0  0  0  0
  190.7160  177.2550  141.5180 C   0  0  0  0  0  3  0  0  0  0  0  0
  183.4210  177.6140  140.6380 C   0  0  0  0  0  2  0  0  0  0  0  0
  190.2090  177.2700  142.8210 C   0  0  0  0  0  3  0  0  0  0  0  0
  184.3000  178.6920  141.2580 C   0  0  0  0  0  2  0  0  0  0  0  0
  185.5310  178.6040  138.5110 C   0  0  1  0  0  3  0  0  0  0  0  0
  189.8770  177.5230  140.4340 C   0  0  0  0  0  3  0  0  0  0  0  0
  187.6320  178.0900  139.5670 N   0  0  0  0  0  0  0  0  0  0  0  0
  184.0540  177.4810  136.9740 O   0  0  0  0  0  0  0  0  0  0  0  0
  183.5800  176.1800  136.7960 C   0  0  0  0  0  2  0  0  0  0  0  0
  184.3180  173.1580  135.8550 O   0  0  0  0  0  0  0  0  0  0  0  0
  185.5950  175.1420  135.8120 C   0  0  0  0  0  2  0  0  0  0  0  0
  184.7040  175.1840  137.0190 C   0  0  2  0  0  3  0  0  0  0  0  0
  185.4970  173.7130  135.3360 C   0  0  0  0  0  2  0  0  0  0  0  0
  184.1300  173.7870  137.0940 C   0  0  0  0  0  2  0  0  0  0  0  0
  1 18  1  0  0  0  0
  2 27  1  0  0  0  0
  3  7  1  1  0  0  0
  3 16  1  0  0  0  0
  4 15  1  0  0  0  0
  5 19  1  0  0  0  0
  6  7  1  0  0  0  0
  8 16  1  0  0  0  0
  9 13  2  0  0  0  0
 10 22  1  0  0  0  0
 11  5  1  0  0  0  0
 12  8  1  0  0  0  0
 13 24  1  0  0  0  0
 13 20  1  0  0  0  0
 14  2  2  0  0  0  0
 15  5  2  0  0  0  0
 15 12  1  0  0  0  0
 17 28  1  6  0  0  0
 17 25  1  0  0  0  0
 17 10  1  0  0  0  0
 18 20  1  0  0  0  0
 18  4  2  0  0  0  0
 19  6  1  6  0  0  0
 19  3  1  0  0  0  0
 20 11  2  0  0  0  0
 21 23  2  0  0  0  0
 22 24  1  0  0  0  0
 23  4  1  0  0  0  0
 25 14  1  6  0  0  0
 25  9  1  0  0  0  0
 26  1  2  0  0  0  0
 26 21  1  0  0  0  0
 27  9  1  0  0  0  0
 27  1  1  0  0  0  0
 29 28  1  0  0  0  0
 30 34  1  0  0  0  0
 31 32  1  0  0  0  0
 32 29  1  6  0  0  0
 32 34  1  0  0  0  0
 33 31  1  0  0  0  0
 33 30  1  0  0  0  0
M  END
>  <MODEL>
8

>  <REMARK>
 VINA RESULT:      -8.9      2.613      5.067
  Name = 
  3 active torsions:
  status: ('A' for Active; 'I' for Inactive)
    1  A    between atoms: C_17  and  O_28
    2  A    between atoms: O_28  and  C_29
    3  A    between atoms: C_29  and  C_32
                            x       y       z     vdW  Elec       q    Type
                         _______ _______ _______ _____ _____    ______ ____

>  <TORSDO>
F 3

$$$$
=
 OpenBabel11122412123D

 34 41  0  0  1  0  0  0  0  0999 V2000
  187.9260  177.8330  141.6590 C   0  0  0  0  0  0  0  0  0  0  0  0
  186.0910  178.6390  140.0380 C   0  0  0  0  0  3  0  0  0  0  0  0
  190.5700  177.6200  147.4640 C   0  0  1  0  0  3  0  0  0  0  0  0
  189.5240  177.1090  143.3620 C   0  0  0  0  0  0  0  0  0  0  0  0
  188.9270  177.3930  145.7010 C   0  0  0  0  0  0  0  0  0  0  0  0
  188.6290  178.0350  148.2240 C   0  0  0  0  0  2  0  0  0  0  0  0
  190.0520  178.2600  148.7330 C   0  0  0  0  0  2  0  0  0  0  0  0
  191.3990  175.6380  146.4000 C   0  0  0  0  0  2  0  0  0  0  0  0
  185.7480  178.7980  142.3650 C   0  0  0  0  0  0  0  0  0  0  0  0
  182.8600  178.7790  143.6580 C   0  0  0  0  0  2  0  0  0  0  0  0
  187.7270  177.9100  145.3260 N   0  0  0  0  0  0  0  0  0  0  0  0
  191.2680  176.4380  145.0780 C   0  0  0  0  0  2  0  0  0  0  0  0
  186.0600  178.6570  143.6650 C   0  0  0  0  0  0  0  0  0  0  0  0
  184.7130  179.2710  140.2870 C   0  0  0  0  0  3  0  0  0  0  0  0
  189.8630  176.9460  144.7200 C   0  0  0  0  0  0  0  0  0  0  0  0
  191.4660  176.4800  147.6160 N   0  0  0  0  0  2  0  0  0  0  0  0
  183.2870  178.4620  142.2260 C   0  0  2  0  0  3  0  0  0  0  0  0
  188.2770  177.6700  143.0120 C   0  0  0  0  0  0  0  0  0  0  0  0
  189.1860  177.1280  147.1460 C   0  0  2  0  0  3  0  0  0  0  0  0
  187.3810  178.0720  144.0230 C   0  0  0  0  0  0  0  0  0  0  0  0
  190.0520  176.8860  140.9930 C   0  0  0  0  0  3  0  0  0  0  0  0
  183.8340  178.2240  144.6900 C   0  0  0  0  0  2  0  0  0  0  0  0
  190.4030  176.7210  142.3370 C   0  0  0  0  0  3  0  0  0  0  0  0
  185.1020  179.0650  144.7430 C   0  0  0  0  0  2  0  0  0  0  0  0
  184.4780  179.3380  141.8090 C   0  0  1  0  0  3  0  0  0  0  0  0
  188.8150  177.4400  140.6530 C   0  0  0  0  0  3  0  0  0  0  0  0
  186.6490  178.4060  141.3520 N   0  0  0  0  0  0  0  0  0  0  0  0
  182.1980  178.6880  141.3800 O   0  0  0  0  0  0  0  0  0  0  0  0
  181.1380  178.9980  142.2360 C   0  0  0  0  0  2  0  0  0  0  0  0
  179.9870  178.4730  139.2420 O   0  0  0  0  0  0  0  0  0  0  0  0
  179.8890  177.1410  141.1870 C   0  0  0  0  0  2  0  0  0  0  0  0
  179.8230  178.5820  141.6020 C   0  0  2  0  0  3  0  0  0  0  0  0
  179.6790  177.1820  139.6930 C   0  0  0  0  0  2  0  0  0  0  0  0
  179.6360  179.3260  140.2990 C   0  0  0  0  0  2  0  0  0  0  0  0
  1 18  1  0  0  0  0
  2 14  2  0  0  0  0
  2 27  1  0  0  0  0
  3 16  1  0  0  0  0
  3  7  1  1  0  0  0
  4 15  1  0  0  0  0
  5 19  1  0  0  0  0
  6  7  1  0  0  0  0
  8 16  1  0  0  0  0
  9 13  2  0  0  0  0
 10 22  1  0  0  0  0
 11  5  1  0  0  0  0
 12  8  1  0  0  0  0
 13 20  1  0  0  0  0
 13 24  1  0  0  0  0
 15 12  1  0  0  0  0
 15  5  2  0  0  0  0
 17 28  1  6  0  0  0
 17 10  1  0  0  0  0
 18  4  2  0  0  0  0
 18 20  1  0  0  0  0
 19  3  1  0  0  0  0
 19  6  1  1  0  0  0
 20 11  2  0  0  0  0
 21 23  2  0  0  0  0
 22 24  1  0  0  0  0
 23  4  1  0  0  0  0
 25 14  1  6  0  0  0
 25 17  1  0  0  0  0
 25  9  1  0  0  0  0
 26 21  1  0  0  0  0
 26  1  2  0  0  0  0
 27  1  1  0  0  0  0
 27  9  1  0  0  0  0
 28 29  1  0  0  0  0
 30 33  1  0  0  0  0
 30 34  1  0  0  0  0
 31 32  1  0  0  0  0
 32 29  1  6  0  0  0
 33 31  1  0  0  0  0
 34 32  1  0  0  0  0
M  END
>  <MODEL>
9

>  <REMARK>
 VINA RESULT:      -8.9      1.625      3.933
  Name = 
  3 active torsions:
  status: ('A' for Active; 'I' for Inactive)
    1  A    between atoms: C_17  and  O_28
    2  A    between atoms: O_28  and  C_29
    3  A    between atoms: C_29  and  C_32
                            x       y       z     vdW  Elec       q    Type
                         _______ _______ _______ _____ _____    ______ ____

>  <TORSDO>
F 3

$$$$
