=
 OpenBabel11122412023D

 34 40  0  0  1  0  0  0  0  0999 V2000
  187.8230  178.0120  141.4050 C   0  0  0  0  0  0  0  0  0  0  0  0
  186.1790  178.3730  139.4920 C   0  0  0  0  0  2  0  0  0  0  0  0
  189.1080  176.3710  147.5570 C   0  0  0  0  0  0  0  0  0  0  0  0
  189.1510  177.3620  143.3340 C   0  0  0  0  0  0  0  0  0  0  0  0
  188.3040  177.9430  145.6720 C   0  0  2  0  0  3  0  0  0  0  0  0
  188.5140  178.7330  148.0350 C   0  0  0  0  0  1  0  0  0  0  0  0
  188.5750  175.4020  148.1570 O   0  0  0  0  0  0  0  0  0  0  0  0
  191.2470  177.1550  146.4050 C   0  0  0  0  0  3  0  0  0  0  0  0
  185.6250  179.2270  141.6830 C   0  0  2  0  0  3  0  0  0  0  0  0
  182.6020  178.4290  142.5300 C   0  0  0  0  0  3  0  0  0  0  0  0
  186.9140  177.8560  145.0610 C   0  0  0  0  0  2  0  0  0  0  0  0
  190.7170  177.5440  145.2450 C   0  0  0  0  0  3  0  0  0  0  0  0
  185.5400  178.5540  143.0610 C   0  0  1  0  0  3  0  0  0  0  0  0
  184.8070  179.0220  139.4150 C   0  0  0  0  0  2  0  0  0  0  0  0
  189.3300  177.1710  144.8250 C   0  0  2  0  0  3  0  0  0  0  0  0
  190.5320  176.3820  147.3770 N   0  0  0  0  0  2  0  0  0  0  0  0
  183.3760  178.0870  141.2820 C   0  0  2  0  0  3  0  0  0  0  0  0
  187.9800  177.9460  142.8020 C   0  0  0  0  0  0  0  0  0  0  0  0
  188.2440  177.5330  147.1490 C   0  0  2  0  0  3  0  0  0  0  0  0
  186.9310  178.5600  143.7100 C   0  0  2  0  0  3  0  0  0  0  0  0
  189.9440  176.8960  141.1360 C   0  0  0  0  0  3  0  0  0  0  0  0
  183.1130  178.9230  143.6700 C   0  0  0  0  0  3  0  0  0  0  0  0
  190.0830  176.8430  142.4870 N   0  0  0  0  0  0  0  0  0  0  0  0
  184.5430  179.3280  143.9130 C   0  0  0  0  0  2  0  0  0  0  0  0
  184.3310  179.2200  140.8570 C   0  0  1  0  0  3  0  0  0  0  0  0
  188.8100  177.4780  140.5710 C   0  0  0  0  0  3  0  0  0  0  0  0
  186.6240  178.5770  140.8550 N   0  0  0  0  0  0  0  0  0  0  0  0
  182.4690  177.7870  140.2610 O   0  0  0  0  0  0  0  0  0  0  0  0
  181.2480  178.3030  140.7040 C   0  0  0  0  0  2  0  0  0  0  0  0
  181.4150  181.0560  138.9650 O   0  0  0  0  0  0  0  0  0  0  0  0
  181.3040  178.8000  138.2830 C   0  0  0  0  0  2  0  0  0  0  0  0
  180.5050  178.9460  139.5450 C   0  0  2  0  0  3  0  0  0  0  0  0
  181.5560  180.2230  137.8470 C   0  0  0  0  0  2  0  0  0  0  0  0
  180.4350  180.4410  139.7600 C   0  0  0  0  0  2  0  0  0  0  0  0
  1 18  1  0  0  0  0
  2 27  1  0  0  0  0
  3  7  2  0  0  0  0
  4 15  1  0  0  0  0
  5 11  1  6  0  0  0
  5 19  1  0  0  0  0
  8 16  1  0  0  0  0
  9 27  1  6  0  0  0
  9 13  1  0  0  0  0
 10 22  2  0  0  0  0
 12  8  2  0  0  0  0
 13 20  1  0  0  0  0
 13 24  1  1  0  0  0
 14  2  1  0  0  0  0
 15 12  1  1  0  0  0
 15  5  1  0  0  0  0
 16  3  1  0  0  0  0
 17 28  1  6  0  0  0
 17 10  1  0  0  0  0
 18  4  2  0  0  0  0
 18 20  1  0  0  0  0
 19  3  1  0  0  0  0
 19  6  1  1  0  0  0
 20 11  1  1  0  0  0
 21 23  2  0  0  0  0
 22 24  1  0  0  0  0
 23  4  1  0  0  0  0
 25 14  1  6  0  0  0
 25 17  1  0  0  0  0
 25  9  1  0  0  0  0
 26 21  1  0  0  0  0
 26  1  2  0  0  0  0
 27  1  1  0  0  0  0
 28 29  1  0  0  0  0
 30 34  1  0  0  0  0
 31 32  1  0  0  0  0
 32 34  1  0  0  0  0
 32 29  1  1  0  0  0
 33 31  1  0  0  0  0
 33 30  1  0  0  0  0
M  END
>  <MODEL>
1

>  <REMARK>
 VINA RESULT:      -8.9      0.000      0.000
  Name = 
  3 active torsions:
  status: ('A' for Active; 'I' for Inactive)
    1  A    between atoms: C_17  and  O_28
    2  A    between atoms: O_28  and  C_29
    3  A    between atoms: C_29  and  C_32
                            x       y       z     vdW  Elec       q    Type
                         _______ _______ _______ _____ _____    ______ ____

>  <TORSDO>
F 3

$$$$
=
 OpenBabel11122412023D

 34 40  0  0  1  0  0  0  0  0999 V2000
  182.2020  178.7680  143.5350 C   0  0  0  0  0  0  0  0  0  0  0  0
  183.7840  178.9660  145.5220 C   0  0  0  0  0  2  0  0  0  0  0  0
  180.8290  176.6200  137.5600 C   0  0  0  0  0  0  0  0  0  0  0  0
  180.8460  178.2090  141.5970 C   0  0  0  0  0  0  0  0  0  0  0  0
  181.9370  178.1890  139.2870 C   0  0  2  0  0  3  0  0  0  0  0  0
  182.0690  178.6430  136.8320 C   0  0  0  0  0  1  0  0  0  0  0  0
  181.1070  175.4660  137.1420 O   0  0  0  0  0  0  0  0  0  0  0  0
  178.9310  178.1030  138.4050 C   0  0  0  0  0  3  0  0  0  0  0  0
  184.6600  179.3060  143.2970 C   0  0  2  0  0  3  0  0  0  0  0  0
  187.3880  177.6230  142.8330 C   0  0  0  0  0  3  0  0  0  0  0  0
  183.2170  177.8310  140.0260 C   0  0  0  0  0  2  0  0  0  0  0  0
  179.4880  178.5070  139.5470 C   0  0  0  0  0  3  0  0  0  0  0  0
  184.6270  178.4350  142.0320 C   0  0  1  0  0  3  0  0  0  0  0  0
  185.2760  179.2350  145.6350 C   0  0  0  0  0  2  0  0  0  0  0  0
  180.6970  177.8500  140.1330 C   0  0  2  0  0  3  0  0  0  0  0  0
  179.4560  177.0320  137.6100 N   0  0  0  0  0  2  0  0  0  0  0  0
  186.4880  177.6880  144.0410 C   0  0  2  0  0  3  0  0  0  0  0  0
  182.1040  178.5370  142.1500 C   0  0  0  0  0  0  0  0  0  0  0  0
  181.9560  177.5600  137.8890 C   0  0  2  0  0  3  0  0  0  0  0  0
  183.3250  178.7090  141.2670 C   0  0  2  0  0  3  0  0  0  0  0  0
  179.8470  178.3030  143.7580 C   0  0  0  0  0  3  0  0  0  0  0  0
  187.0900  178.0570  141.5970 C   0  0  0  0  0  3  0  0  0  0  0  0
  179.7670  178.0860  142.4180 N   0  0  0  0  0  0  0  0  0  0  0  0
  185.8390  178.7830  141.1770 C   0  0  0  0  0  2  0  0  0  0  0  0
  185.8590  179.0820  144.2280 C   0  0  1  0  0  3  0  0  0  0  0  0
  181.0660  178.6440  144.3400 C   0  0  0  0  0  3  0  0  0  0  0  0
  183.4810  179.0740  144.1100 N   0  0  0  0  0  0  0  0  0  0  0  0
  187.2270  177.3150  145.1700 O   0  0  0  0  0  0  0  0  0  0  0  0
  188.5320  177.1400  144.7010 C   0  0  0  0  0  2  0  0  0  0  0  0
  190.2790  176.3710  147.3440 O   0  0  0  0  0  0  0  0  0  0  0  0
  190.9150  177.3890  145.3130 C   0  0  0  0  0  2  0  0  0  0  0  0
  189.5150  177.8240  145.6360 C   0  0  2  0  0  3  0  0  0  0  0  0
  191.3990  176.7490  146.5910 C   0  0  0  0  0  2  0  0  0  0  0  0
  189.2970  177.3280  147.0470 C   0  0  0  0  0  2  0  0  0  0  0  0
  1 27  1  0  0  0  0
  1 26  1  0  0  0  0
  2 14  1  0  0  0  0
  3 16  1  0  0  0  0
  3 19  1  0  0  0  0
  4 18  1  0  0  0  0
  4 23  2  0  0  0  0
  5 11  1  1  0  0  0
  5 15  1  0  0  0  0
  7  3  2  0  0  0  0
  8 12  2  0  0  0  0
  9 27  1  1  0  0  0
  9 25  1  0  0  0  0
 10 17  1  0  0  0  0
 13 24  1  6  0  0  0
 13  9  1  0  0  0  0
 15 12  1  6  0  0  0
 15  4  1  0  0  0  0
 16  8  1  0  0  0  0
 17 25  1  0  0  0  0
 17 28  1  1  0  0  0
 18  1  2  0  0  0  0
 19  6  1  6  0  0  0
 19  5  1  0  0  0  0
 20 11  1  6  0  0  0
 20 13  1  0  0  0  0
 20 18  1  0  0  0  0
 21 26  2  0  0  0  0
 22 10  2  0  0  0  0
 23 21  1  0  0  0  0
 24 22  1  0  0  0  0
 25 14  1  1  0  0  0
 27  2  1  0  0  0  0
 29 28  1  0  0  0  0
 31 32  1  0  0  0  0
 31 33  1  0  0  0  0
 32 29  1  6  0  0  0
 32 34  1  0  0  0  0
 33 30  1  0  0  0  0
 34 30  1  0  0  0  0
M  END
>  <MODEL>
2

>  <REMARK>
 VINA RESULT:      -8.7      2.705      9.360
  Name = 
  3 active torsions:
  status: ('A' for Active; 'I' for Inactive)
    1  A    between atoms: C_17  and  O_28
    2  A    between atoms: O_28  and  C_29
    3  A    between atoms: C_29  and  C_32
                            x       y       z     vdW  Elec       q    Type
                         _______ _______ _______ _____ _____    ______ ____

>  <TORSDO>
F 3

$$$$
=
 OpenBabel11122412023D

 34 40  0  0  1  0  0  0  0  0999 V2000
  188.0260  177.8850  141.3120 C   0  0  0  0  0  0  0  0  0  0  0  0
  186.4320  178.2130  139.3510 C   0  0  0  0  0  2  0  0  0  0  0  0
  189.1470  176.3850  147.5320 C   0  0  0  0  0  0  0  0  0  0  0  0
  189.3010  177.2720  143.2880 C   0  0  0  0  0  0  0  0  0  0  0  0
  188.4020  177.9160  145.5900 C   0  0  2  0  0  3  0  0  0  0  0  0
  188.5620  178.7620  147.9370 C   0  0  0  0  0  1  0  0  0  0  0  0
  188.5910  175.4350  148.1420 O   0  0  0  0  0  0  0  0  0  0  0  0
  191.3200  177.1230  146.4130 C   0  0  0  0  0  3  0  0  0  0  0  0
  185.8330  179.1240  141.5060 C   0  0  2  0  0  3  0  0  0  0  0  0
  182.7830  178.3710  142.2980 C   0  0  0  0  0  3  0  0  0  0  0  0
  187.0270  177.8250  144.9470 C   0  0  0  0  0  2  0  0  0  0  0  0
  190.8210  177.4880  145.2310 C   0  0  0  0  0  3  0  0  0  0  0  0
  185.7080  178.4860  142.8970 C   0  0  1  0  0  3  0  0  0  0  0  0
  185.0680  178.8710  139.2250 C   0  0  0  0  0  2  0  0  0  0  0  0
  189.4420  177.1160  144.7870 C   0  0  2  0  0  3  0  0  0  0  0  0
  190.5740  176.3800  147.3860 N   0  0  0  0  0  2  0  0  0  0  0  0
  183.5840  177.9930  141.0780 C   0  0  2  0  0  3  0  0  0  0  0  0
  188.1480  177.8520  142.7130 C   0  0  0  0  0  0  0  0  0  0  0  0
  188.3030  177.5420  147.0740 C   0  0  2  0  0  3  0  0  0  0  0  0
  187.0830  178.4960  143.5800 C   0  0  2  0  0  3  0  0  0  0  0  0
  190.1430  176.7460  141.1220 C   0  0  0  0  0  3  0  0  0  0  0  0
  183.2700  178.8890  143.4380 C   0  0  0  0  0  3  0  0  0  0  0  0
  190.2490  176.7250  142.4770 N   0  0  0  0  0  0  0  0  0  0  0  0
  184.6970  179.2880  143.7060 C   0  0  0  0  0  2  0  0  0  0  0  0
  184.5590  179.1070  140.6490 C   0  0  1  0  0  3  0  0  0  0  0  0
  189.0290  177.3230  140.5150 C   0  0  0  0  0  3  0  0  0  0  0  0
  186.8460  178.4460  140.7190 N   0  0  0  0  0  0  0  0  0  0  0  0
  182.7000  177.6750  140.0420 O   0  0  0  0  0  0  0  0  0  0  0  0
  181.4780  178.2290  140.4330 C   0  0  0  0  0  2  0  0  0  0  0  0
  180.4940  175.1320  140.1630 O   0  0  0  0  0  0  0  0  0  0  0  0
  179.3300  177.0720  140.8350 C   0  0  0  0  0  2  0  0  0  0  0  0
  180.3320  177.4660  139.7900 C   0  0  2  0  0  3  0  0  0  0  0  0
  179.3010  175.5650  140.7570 C   0  0  0  0  0  2  0  0  0  0  0  0
  180.8420  176.1470  139.2580 C   0  0  0  0  0  2  0  0  0  0  0  0
  1 18  1  0  0  0  0
  2 27  1  0  0  0  0
  3  7  2  0  0  0  0
  4 15  1  0  0  0  0
  5 11  1  6  0  0  0
  5 19  1  0  0  0  0
  8 16  1  0  0  0  0
  9 27  1  6  0  0  0
  9 13  1  0  0  0  0
 10 22  2  0  0  0  0
 12  8  2  0  0  0  0
 13 20  1  0  0  0  0
 13 24  1  1  0  0  0
 14  2  1  0  0  0  0
 15 12  1  1  0  0  0
 15  5  1  0  0  0  0
 16  3  1  0  0  0  0
 17 28  1  6  0  0  0
 17 10  1  0  0  0  0
 18  4  2  0  0  0  0
 18 20  1  0  0  0  0
 19  3  1  0  0  0  0
 19  6  1  1  0  0  0
 20 11  1  1  0  0  0
 21 23  2  0  0  0  0
 22 24  1  0  0  0  0
 23  4  1  0  0  0  0
 25 14  1  6  0  0  0
 25 17  1  0  0  0  0
 25  9  1  0  0  0  0
 26 21  1  0  0  0  0
 26  1  2  0  0  0  0
 27  1  1  0  0  0  0
 28 29  1  0  0  0  0
 30 33  1  0  0  0  0
 32 29  1  1  0  0  0
 32 31  1  0  0  0  0
 33 31  1  0  0  0  0
 34 32  1  0  0  0  0
 34 30  1  0  0  0  0
M  END
>  <MODEL>
3

>  <REMARK>
 VINA RESULT:      -8.7      1.087      1.789
  Name = 
  3 active torsions:
  status: ('A' for Active; 'I' for Inactive)
    1  A    between atoms: C_17  and  O_28
    2  A    between atoms: O_28  and  C_29
    3  A    between atoms: C_29  and  C_32
                            x       y       z     vdW  Elec       q    Type
                         _______ _______ _______ _____ _____    ______ ____

>  <TORSDO>
F 3

$$$$
=
 OpenBabel11122412023D

 34 40  0  0  1  0  0  0  0  0999 V2000
  187.9970  177.9220  141.2570 C   0  0  0  0  0  0  0  0  0  0  0  0
  186.4510  178.2390  139.2570 C   0  0  0  0  0  2  0  0  0  0  0  0
  188.9720  176.4260  147.5030 C   0  0  0  0  0  0  0  0  0  0  0  0
  189.2260  177.3180  143.2650 C   0  0  0  0  0  0  0  0  0  0  0  0
  188.2640  177.9530  145.5440 C   0  0  2  0  0  3  0  0  0  0  0  0
  188.3580  178.7980  147.8950 C   0  0  0  0  0  1  0  0  0  0  0  0
  188.4080  175.4720  148.0980 O   0  0  0  0  0  0  0  0  0  0  0  0
  191.1660  177.1830  146.4400 C   0  0  0  0  0  3  0  0  0  0  0  0
  185.7890  179.1430  141.3970 C   0  0  2  0  0  3  0  0  0  0  0  0
  182.7270  178.3650  142.1110 C   0  0  0  0  0  3  0  0  0  0  0  0
  186.9070  177.8520  144.8660 C   0  0  0  0  0  2  0  0  0  0  0  0
  190.6950  177.5440  145.2460 C   0  0  0  0  0  3  0  0  0  0  0  0
  185.6350  178.5030  142.7840 C   0  0  1  0  0  3  0  0  0  0  0  0
  185.0850  178.8850  139.0970 C   0  0  0  0  0  2  0  0  0  0  0  0
  189.3310  177.1620  144.7670 C   0  0  2  0  0  3  0  0  0  0  0  0
  190.4030  176.4330  147.3940 N   0  0  0  0  0  2  0  0  0  0  0  0
  183.5620  177.9940  140.9110 C   0  0  2  0  0  3  0  0  0  0  0  0
  188.0830  177.8890  142.6610 C   0  0  0  0  0  0  0  0  0  0  0  0
  188.1300  177.5780  147.0240 C   0  0  2  0  0  3  0  0  0  0  0  0
  186.9910  178.5240  143.5010 C   0  0  2  0  0  3  0  0  0  0  0  0
  190.1270  176.8000  141.1210 C   0  0  0  0  0  3  0  0  0  0  0  0
  183.1800  178.8860  143.2630 C   0  0  0  0  0  3  0  0  0  0  0  0
  190.1980  176.7790  142.4780 N   0  0  0  0  0  0  0  0  0  0  0  0
  184.5970  179.2970  143.5670 C   0  0  0  0  0  2  0  0  0  0  0  0
  184.5380  179.1170  140.5080 C   0  0  1  0  0  3  0  0  0  0  0  0
  189.0240  177.3690  140.4860 C   0  0  0  0  0  3  0  0  0  0  0  0
  186.8280  178.4740  140.6350 N   0  0  0  0  0  0  0  0  0  0  0  0
  182.7060  177.6700  139.8530 O   0  0  0  0  0  0  0  0  0  0  0  0
  182.6630  176.2730  139.8440 C   0  0  0  0  0  2  0  0  0  0  0  0
  183.4510  177.0520  136.7770 O   0  0  0  0  0  0  0  0  0  0  0  0
  183.5170  174.9850  137.9130 C   0  0  0  0  0  2  0  0  0  0  0  0
  182.3540  175.7730  138.4430 C   0  0  2  0  0  3  0  0  0  0  0  0
  183.9300  175.7400  136.6730 C   0  0  0  0  0  2  0  0  0  0  0  0
  182.2530  176.9490  137.4990 C   0  0  0  0  0  2  0  0  0  0  0  0
  1 18  1  0  0  0  0
  2 27  1  0  0  0  0
  3  7  2  0  0  0  0
  4 15  1  0  0  0  0
  5 11  1  6  0  0  0
  5 19  1  0  0  0  0
  8 16  1  0  0  0  0
  9 27  1  6  0  0  0
  9 13  1  0  0  0  0
 10 22  2  0  0  0  0
 12  8  2  0  0  0  0
 13 20  1  0  0  0  0
 13 24  1  1  0  0  0
 14  2  1  0  0  0  0
 15 12  1  1  0  0  0
 15  5  1  0  0  0  0
 16  3  1  0  0  0  0
 17 28  1  6  0  0  0
 17 10  1  0  0  0  0
 18  4  2  0  0  0  0
 18 20  1  0  0  0  0
 19  3  1  0  0  0  0
 19  6  1  1  0  0  0
 20 11  1  1  0  0  0
 21 23  2  0  0  0  0
 22 24  1  0  0  0  0
 23  4  1  0  0  0  0
 25 14  1  6  0  0  0
 25 17  1  0  0  0  0
 25  9  1  0  0  0  0
 26 21  1  0  0  0  0
 26  1  2  0  0  0  0
 27  1  1  0  0  0  0
 29 28  1  0  0  0  0
 30 34  1  0  0  0  0
 31 32  1  0  0  0  0
 32 29  1  1  0  0  0
 33 30  1  0  0  0  0
 33 31  1  0  0  0  0
 34 32  1  0  0  0  0
M  END
>  <MODEL>
4

>  <REMARK>
 VINA RESULT:      -8.6      1.489      1.848
  Name = 
  3 active torsions:
  status: ('A' for Active; 'I' for Inactive)
    1  A    between atoms: C_17  and  O_28
    2  A    between atoms: O_28  and  C_29
    3  A    between atoms: C_29  and  C_32
                            x       y       z     vdW  Elec       q    Type
                         _______ _______ _______ _____ _____    ______ ____

>  <TORSDO>
F 3

$$$$
=
 OpenBabel11122412023D

 34 40  0  0  1  0  0  0  0  0999 V2000
  183.6910  178.6230  143.8600 C   0  0  0  0  0  0  0  0  0  0  0  0
  181.4780  179.2800  142.7810 C   0  0  0  0  0  2  0  0  0  0  0  0
  190.1800  178.3380  143.7930 C   0  0  0  0  0  0  0  0  0  0  0  0
  185.9430  178.3360  144.7260 C   0  0  0  0  0  0  0  0  0  0  0  0
  187.7970  177.5930  143.1330 C   0  0  2  0  0  3  0  0  0  0  0  0
  189.8140  176.2860  142.4460 C   0  0  0  0  0  1  0  0  0  0  0  0
  190.9260  179.2770  143.4110 O   0  0  0  0  0  0  0  0  0  0  0  0
  189.2810  177.1300  145.8540 C   0  0  0  0  0  3  0  0  0  0  0  0
  183.1690  178.2180  141.4210 C   0  0  2  0  0  3  0  0  0  0  0  0
  183.6160  179.8120  138.6370 C   0  0  0  0  0  3  0  0  0  0  0  0
  186.9830  178.2880  142.0530 C   0  0  0  0  0  2  0  0  0  0  0  0
  187.9780  177.2120  145.5800 C   0  0  0  0  0  3  0  0  0  0  0  0
  184.6410  178.5630  141.1500 C   0  0  1  0  0  3  0  0  0  0  0  0
  180.9500  179.1810  141.3590 C   0  0  0  0  0  2  0  0  0  0  0  0
  187.4300  178.1240  144.5300 C   0  0  2  0  0  3  0  0  0  0  0  0
  190.2820  177.8730  145.1460 N   0  0  0  0  0  2  0  0  0  0  0  0
  182.6990  180.1260  139.7920 C   0  0  2  0  0  3  0  0  0  0  0  0
  185.0480  178.3260  143.6340 C   0  0  0  0  0  0  0  0  0  0  0  0
  189.2880  177.6680  142.7840 C   0  0  2  0  0  3  0  0  0  0  0  0
  185.5140  177.9330  142.2450 C   0  0  2  0  0  3  0  0  0  0  0  0
  184.1770  178.9630  146.1970 C   0  0  0  0  0  3  0  0  0  0  0  0
  184.6350  178.9370  138.6490 C   0  0  0  0  0  3  0  0  0  0  0  0
  185.4840  178.6700  145.9640 N   0  0  0  0  0  0  0  0  0  0  0  0
  185.0180  178.0180  139.7790 C   0  0  0  0  0  2  0  0  0  0  0  0
  182.1500  178.8540  140.4660 C   0  0  1  0  0  3  0  0  0  0  0  0
  183.2580  178.9480  145.1490 C   0  0  0  0  0  3  0  0  0  0  0  0
  182.7790  178.6430  142.7530 N   0  0  0  0  0  0  0  0  0  0  0  0
  181.6570  180.9370  139.3280 O   0  0  0  0  0  0  0  0  0  0  0  0
  181.5540  180.6420  137.9660 C   0  0  0  0  0  2  0  0  0  0  0  0
  181.1730  183.6360  136.7300 O   0  0  0  0  0  0  0  0  0  0  0  0
  180.6200  181.5170  135.8500 C   0  0  0  0  0  2  0  0  0  0  0  0
  180.4410  181.4660  137.3400 C   0  0  2  0  0  3  0  0  0  0  0  0
  180.7690  182.9900  135.5540 C   0  0  0  0  0  2  0  0  0  0  0  0
  180.5780  182.9080  137.7720 C   0  0  0  0  0  2  0  0  0  0  0  0
  1 26  1  0  0  0  0
  3 16  1  0  0  0  0
  4 23  2  0  0  0  0
  5 11  1  6  0  0  0
  5 15  1  0  0  0  0
  7  3  2  0  0  0  0
  9 27  1  1  0  0  0
 10 22  2  0  0  0  0
 10 17  1  0  0  0  0
 12  8  2  0  0  0  0
 13 24  1  6  0  0  0
 13  9  1  0  0  0  0
 13 20  1  0  0  0  0
 14  2  1  0  0  0  0
 15  4  1  0  0  0  0
 15 12  1  1  0  0  0
 16  8  1  0  0  0  0
 17 28  1  6  0  0  0
 17 25  1  0  0  0  0
 18  1  2  0  0  0  0
 18  4  1  0  0  0  0
 19  6  1  1  0  0  0
 19  5  1  0  0  0  0
 19  3  1  0  0  0  0
 20 11  1  6  0  0  0
 20 18  1  0  0  0  0
 22 24  1  0  0  0  0
 23 21  1  0  0  0  0
 25 14  1  1  0  0  0
 25  9  1  0  0  0  0
 26 21  2  0  0  0  0
 27  2  1  0  0  0  0
 27  1  1  0  0  0  0
 29 28  1  0  0  0  0
 30 34  1  0  0  0  0
 31 32  1  0  0  0  0
 32 34  1  0  0  0  0
 32 29  1  1  0  0  0
 33 31  1  0  0  0  0
 33 30  1  0  0  0  0
M  END
>  <MODEL>
5

>  <REMARK>
 VINA RESULT:      -8.4      2.259      4.233
  Name = 
  3 active torsions:
  status: ('A' for Active; 'I' for Inactive)
    1  A    between atoms: C_17  and  O_28
    2  A    between atoms: O_28  and  C_29
    3  A    between atoms: C_29  and  C_32
                            x       y       z     vdW  Elec       q    Type
                         _______ _______ _______ _____ _____    ______ ____

>  <TORSDO>
F 3

$$$$
=
 OpenBabel11122412023D

 34 40  0  0  1  0  0  0  0  0999 V2000
  187.3300  177.9710  139.0930 C   0  0  0  0  0  0  0  0  0  0  0  0
  185.9720  178.6440  141.1410 C   0  0  0  0  0  2  0  0  0  0  0  0
  192.0850  174.5310  136.3090 C   0  0  0  0  0  0  0  0  0  0  0  0
  188.6350  176.9650  137.3070 C   0  0  0  0  0  0  0  0  0  0  0  0
  191.1090  176.4700  137.7090 C   0  0  2  0  0  3  0  0  0  0  0  0
  193.5340  176.3790  137.1120 C   0  0  0  0  0  1  0  0  0  0  0  0
  192.3250  173.3220  136.5620 O   0  0  0  0  0  0  0  0  0  0  0  0
  191.0410  176.1110  134.5970 C   0  0  0  0  0  3  0  0  0  0  0  0
  188.3760  178.5120  141.3290 C   0  0  2  0  0  3  0  0  0  0  0  0
  189.2640  176.8430  143.9600 C   0  0  0  0  0  3  0  0  0  0  0  0
  190.7180  176.3180  139.1710 C   0  0  0  0  0  2  0  0  0  0  0  0
  190.2170  176.7710  135.4110 C   0  0  0  0  0  3  0  0  0  0  0  0
  189.3740  177.3850  141.0240 C   0  0  1  0  0  3  0  0  0  0  0  0
  186.3540  178.9710  142.5750 C   0  0  0  0  0  2  0  0  0  0  0  0
  189.8880  176.2910  136.7890 C   0  0  2  0  0  3  0  0  0  0  0  0
  191.7220  174.9060  134.9730 N   0  0  0  0  0  2  0  0  0  0  0  0
  187.8860  177.1460  143.4300 C   0  0  2  0  0  3  0  0  0  0  0  0
  188.5500  177.4400  138.6350 C   0  0  0  0  0  0  0  0  0  0  0  0
  192.2960  175.5520  137.3950 C   0  0  2  0  0  3  0  0  0  0  0  0
  189.7660  177.4490  139.5410 C   0  0  2  0  0  3  0  0  0  0  0  0
  186.3430  177.5020  136.9450 C   0  0  0  0  0  3  0  0  0  0  0  0
  190.4210  176.9880  143.2920 C   0  0  0  0  0  3  0  0  0  0  0  0
  187.5280  176.9960  136.5140 N   0  0  0  0  0  0  0  0  0  0  0  0
  190.5960  177.5700  141.9140 C   0  0  0  0  0  2  0  0  0  0  0  0
  187.8090  178.5300  142.7550 C   0  0  1  0  0  3  0  0  0  0  0  0
  186.2220  177.9960  138.2420 C   0  0  0  0  0  3  0  0  0  0  0  0
  187.2260  178.4310  140.4490 N   0  0  0  0  0  0  0  0  0  0  0  0
  186.9700  177.0510  144.4830 O   0  0  0  0  0  0  0  0  0  0  0  0
  187.4250  177.9660  145.4360 C   0  0  0  0  0  2  0  0  0  0  0  0
  189.3270  177.6050  148.0600 O   0  0  0  0  0  0  0  0  0  0  0  0
  187.1360  178.4530  147.8440 C   0  0  0  0  0  2  0  0  0  0  0  0
  187.3180  177.3640  146.8270 C   0  0  2  0  0  3  0  0  0  0  0  0
  188.3290  178.3000  148.7550 C   0  0  0  0  0  2  0  0  0  0  0  0
  188.6380  176.7320  147.2050 C   0  0  0  0  0  2  0  0  0  0  0  0
  1 27  1  0  0  0  0
  2 14  1  0  0  0  0
  3  7  2  0  0  0  0
  3 19  1  0  0  0  0
  4 18  2  0  0  0  0
  5 11  1  1  0  0  0
  8 16  1  0  0  0  0
  8 12  2  0  0  0  0
  9 27  1  6  0  0  0
  9 25  1  0  0  0  0
 13  9  1  0  0  0  0
 13 24  1  1  0  0  0
 15 12  1  6  0  0  0
 15  4  1  0  0  0  0
 15  5  1  0  0  0  0
 16  3  1  0  0  0  0
 17 10  1  0  0  0  0
 17 28  1  1  0  0  0
 18  1  1  0  0  0  0
 18 20  1  0  0  0  0
 19  6  1  6  0  0  0
 19  5  1  0  0  0  0
 20 11  1  6  0  0  0
 20 13  1  0  0  0  0
 21 26  1  0  0  0  0
 22 10  2  0  0  0  0
 23 21  2  0  0  0  0
 23  4  1  0  0  0  0
 24 22  1  0  0  0  0
 25 14  1  6  0  0  0
 25 17  1  0  0  0  0
 26  1  2  0  0  0  0
 27  2  1  0  0  0  0
 28 29  1  0  0  0  0
 30 33  1  0  0  0  0
 31 33  1  0  0  0  0
 32 29  1  6  0  0  0
 32 34  1  0  0  0  0
 32 31  1  0  0  0  0
 34 30  1  0  0  0  0
M  END
>  <MODEL>
6

>  <REMARK>
 VINA RESULT:      -8.0      3.724      8.298
  Name = 
  3 active torsions:
  status: ('A' for Active; 'I' for Inactive)
    1  A    between atoms: C_17  and  O_28
    2  A    between atoms: O_28  and  C_29
    3  A    between atoms: C_29  and  C_32
                            x       y       z     vdW  Elec       q    Type
                         _______ _______ _______ _____ _____    ______ ____

>  <TORSDO>
F 3

$$$$
=
 OpenBabel11122412023D

 34 40  0  0  1  0  0  0  0  0999 V2000
  186.3850  178.2320  138.8820 C   0  0  0  0  0  0  0  0  0  0  0  0
  183.9380  178.5340  138.2420 C   0  0  0  0  0  2  0  0  0  0  0  0
  190.9740  176.6550  143.2010 C   0  0  0  0  0  0  0  0  0  0  0  0
  188.5900  177.6320  139.7110 C   0  0  0  0  0  0  0  0  0  0  0  0
  189.1990  178.1940  142.1270 C   0  0  2  0  0  3  0  0  0  0  0  0
  190.6880  178.9980  143.9670 C   0  0  0  0  0  1  0  0  0  0  0  0
  190.9010  175.6720  143.9830 O   0  0  0  0  0  0  0  0  0  0  0  0
  192.0610  177.5030  141.0530 C   0  0  0  0  0  3  0  0  0  0  0  0
  184.6970  179.3770  140.3740 C   0  0  2  0  0  3  0  0  0  0  0  0
  182.7100  178.4860  142.7710 C   0  0  0  0  0  3  0  0  0  0  0  0
  187.7110  178.0600  142.4080 C   0  0  0  0  0  2  0  0  0  0  0  0
  190.9560  177.8700  140.4030 C   0  0  0  0  0  3  0  0  0  0  0  0
  185.4260  178.7070  141.5480 C   0  0  1  0  0  3  0  0  0  0  0  0
  182.7450  179.1390  138.9650 C   0  0  0  0  0  2  0  0  0  0  0  0
  189.5870  177.4520  140.8360 C   0  0  2  0  0  3  0  0  0  0  0  0
  192.0440  176.7110  142.2480 N   0  0  0  0  0  2  0  0  0  0  0  0
  182.6500  178.1650  141.2990 C   0  0  2  0  0  3  0  0  0  0  0  0
  187.3070  178.1760  139.9440 C   0  0  0  0  0  0  0  0  0  0  0  0
  189.9970  177.7870  143.3720 C   0  0  2  0  0  3  0  0  0  0  0  0
  186.9390  178.7590  141.2960 C   0  0  2  0  0  3  0  0  0  0  0  0
  188.0110  177.1830  137.4440 C   0  0  0  0  0  3  0  0  0  0  0  0
  183.7610  179.0000  143.4300 C   0  0  0  0  0  3  0  0  0  0  0  0
  188.8920  177.1390  138.4780 N   0  0  0  0  0  0  0  0  0  0  0  0
  185.0660  179.4520  142.8260 C   0  0  0  0  0  2  0  0  0  0  0  0
  183.1640  179.3260  140.4260 C   0  0  1  0  0  3  0  0  0  0  0  0
  186.7410  177.7270  137.6280 C   0  0  0  0  0  3  0  0  0  0  0  0
  185.0700  178.7570  139.1160 N   0  0  0  0  0  0  0  0  0  0  0  0
  181.3330  177.8320  140.9660 O   0  0  0  0  0  0  0  0  0  0  0  0
  180.5720  178.2440  142.0650 C   0  0  0  0  0  2  0  0  0  0  0  0
  179.9790  181.1210  140.6500 O   0  0  0  0  0  0  0  0  0  0  0  0
  179.2490  178.9470  140.0970 C   0  0  0  0  0  2  0  0  0  0  0  0
  179.3650  179.0350  141.5910 C   0  0  2  0  0  3  0  0  0  0  0  0
  179.3480  180.3820  139.6410 C   0  0  0  0  0  2  0  0  0  0  0  0
  179.5940  180.5070  141.8510 C   0  0  0  0  0  2  0  0  0  0  0  0
  1 27  1  0  0  0  0
  1 18  1  0  0  0  0
  2 14  1  0  0  0  0
  2 27  1  0  0  0  0
  3 19  1  0  0  0  0
  3  7  2  0  0  0  0
  4 18  2  0  0  0  0
  4 15  1  0  0  0  0
  5 11  1  1  0  0  0
  5 19  1  0  0  0  0
  8 16  1  0  0  0  0
  9 27  1  6  0  0  0
  9 25  1  0  0  0  0
  9 13  1  0  0  0  0
 10 22  2  0  0  0  0
 12  8  2  0  0  0  0
 13 24  1  1  0  0  0
 15 12  1  6  0  0  0
 15  5  1  0  0  0  0
 16  3  1  0  0  0  0
 17 28  1  6  0  0  0
 17 10  1  0  0  0  0
 18 20  1  0  0  0  0
 19  6  1  6  0  0  0
 20 13  1  0  0  0  0
 20 11  1  1  0  0  0
 21 26  1  0  0  0  0
 21 23  2  0  0  0  0
 23  4  1  0  0  0  0
 24 22  1  0  0  0  0
 25 14  1  6  0  0  0
 25 17  1  0  0  0  0
 26  1  2  0  0  0  0
 28 29  1  0  0  0  0
 30 34  1  0  0  0  0
 31 32  1  0  0  0  0
 32 34  1  0  0  0  0
 32 29  1  6  0  0  0
 33 31  1  0  0  0  0
 33 30  1  0  0  0  0
M  END
>  <MODEL>
7

>  <REMARK>
 VINA RESULT:      -7.9      2.315      3.202
  Name = 
  3 active torsions:
  status: ('A' for Active; 'I' for Inactive)
    1  A    between atoms: C_17  and  O_28
    2  A    between atoms: O_28  and  C_29
    3  A    between atoms: C_29  and  C_32
                            x       y       z     vdW  Elec       q    Type
                         _______ _______ _______ _____ _____    ______ ____

>  <TORSDO>
F 3

$$$$
=
 OpenBabel11122412023D

 34 40  0  0  1  0  0  0  0  0999 V2000
  187.9470  177.9140  142.5730 C   0  0  0  0  0  0  0  0  0  0  0  0
  190.3610  177.2670  142.0820 C   0  0  0  0  0  2  0  0  0  0  0  0
  181.6730  178.1380  140.9050 C   0  0  0  0  0  0  0  0  0  0  0  0
  185.5490  178.1910  142.8530 C   0  0  0  0  0  0  0  0  0  0  0  0
  184.1410  178.8980  140.8430 C   0  0  2  0  0  3  0  0  0  0  0  0
  182.3470  180.1780  139.6620 C   0  0  0  0  0  1  0  0  0  0  0  0
  181.0510  177.1880  140.3630 O   0  0  0  0  0  0  0  0  0  0  0  0
  182.0290  179.3780  143.1070 C   0  0  0  0  0  3  0  0  0  0  0  0
  189.0520  178.2970  140.3330 C   0  0  2  0  0  3  0  0  0  0  0  0
  189.3150  176.6670  137.5460 C   0  0  0  0  0  3  0  0  0  0  0  0
  185.2000  178.1980  140.0060 C   0  0  0  0  0  2  0  0  0  0  0  0
  183.3590  179.3050  143.1640 C   0  0  0  0  0  3  0  0  0  0  0  0
  187.6940  177.9360  139.7120 C   0  0  1  0  0  3  0  0  0  0  0  0
  191.2230  177.3540  140.8330 C   0  0  0  0  0  2  0  0  0  0  0  0
  184.1550  178.3860  142.2940 C   0  0  2  0  0  3  0  0  0  0  0  0
  181.2370  178.6180  142.1840 N   0  0  0  0  0  2  0  0  0  0  0  0
  189.9210  176.3750  138.8950 C   0  0  2  0  0  3  0  0  0  0  0  0
  186.6860  178.1970  142.0150 C   0  0  0  0  0  0  0  0  0  0  0  0
  182.7820  178.8050  140.1380 C   0  0  2  0  0  3  0  0  0  0  0  0
  186.5750  178.5690  140.5490 C   0  0  2  0  0  3  0  0  0  0  0  0
  186.9010  177.5970  144.7220 C   0  0  0  0  0  3  0  0  0  0  0  0
  188.3190  177.5330  137.2940 C   0  0  0  0  0  3  0  0  0  0  0  0
  185.6910  177.8750  144.1710 N   0  0  0  0  0  0  0  0  0  0  0  0
  187.6640  178.4610  138.2830 C   0  0  0  0  0  2  0  0  0  0  0  0
  190.2790  177.6600  139.6670 C   0  0  1  0  0  3  0  0  0  0  0  0
  188.0500  177.6080  143.9330 C   0  0  0  0  0  3  0  0  0  0  0  0
  189.1040  177.8900  141.7250 N   0  0  0  0  0  0  0  0  0  0  0  0
  191.0500  175.5680  138.7140 O   0  0  0  0  0  0  0  0  0  0  0  0
  191.0090  175.1960  137.3670 C   0  0  0  0  0  2  0  0  0  0  0  0
  194.0340  175.8840  138.3730 O   0  0  0  0  0  0  0  0  0  0  0  0
  193.1750  174.0110  137.2230 C   0  0  0  0  0  2  0  0  0  0  0  0
  192.4100  175.2240  136.7790 C   0  0  2  0  0  3  0  0  0  0  0  0
  194.3570  174.5820  137.9680 C   0  0  0  0  0  2  0  0  0  0  0  0
  193.1830  176.3790  137.3730 C   0  0  0  0  0  2  0  0  0  0  0  0
  1 26  1  0  0  0  0
  3 16  1  0  0  0  0
  4 23  2  0  0  0  0
  5 11  1  6  0  0  0
  5 15  1  0  0  0  0
  7  3  2  0  0  0  0
  8 12  2  0  0  0  0
  9 27  1  1  0  0  0
 10 17  1  0  0  0  0
 13 24  1  6  0  0  0
 13  9  1  0  0  0  0
 13 20  1  0  0  0  0
 14  2  1  0  0  0  0
 15  4  1  0  0  0  0
 15 12  1  1  0  0  0
 16  8  1  0  0  0  0
 17 28  1  6  0  0  0
 17 25  1  0  0  0  0
 18  1  2  0  0  0  0
 18  4  1  0  0  0  0
 19  6  1  1  0  0  0
 19  5  1  0  0  0  0
 19  3  1  0  0  0  0
 20 11  1  6  0  0  0
 20 18  1  0  0  0  0
 22 10  2  0  0  0  0
 22 24  1  0  0  0  0
 23 21  1  0  0  0  0
 25  9  1  0  0  0  0
 25 14  1  1  0  0  0
 26 21  2  0  0  0  0
 27  2  1  0  0  0  0
 27  1  1  0  0  0  0
 29 28  1  0  0  0  0
 31 33  1  0  0  0  0
 32 31  1  0  0  0  0
 32 29  1  1  0  0  0
 32 34  1  0  0  0  0
 33 30  1  0  0  0  0
 34 30  1  0  0  0  0
M  END
>  <MODEL>
8

>  <REMARK>
 VINA RESULT:      -7.8      3.634      8.335
  Name = 
  3 active torsions:
  status: ('A' for Active; 'I' for Inactive)
    1  A    between atoms: C_17  and  O_28
    2  A    between atoms: O_28  and  C_29
    3  A    between atoms: C_29  and  C_32
                            x       y       z     vdW  Elec       q    Type
                         _______ _______ _______ _____ _____    ______ ____

>  <TORSDO>
F 3

$$$$
=
 OpenBabel11122412023D

 34 40  0  0  1  0  0  0  0  0999 V2000
  181.5510  178.3190  141.6510 C   0  0  0  0  0  0  0  0  0  0  0  0
  182.3550  178.9850  143.9760 C   0  0  0  0  0  2  0  0  0  0  0  0
  182.5060  175.3860  135.9350 C   0  0  0  0  0  0  0  0  0  0  0  0
  180.9900  177.3450  139.4970 C   0  0  0  0  0  0  0  0  0  0  0  0
  182.7690  177.2860  137.6640 C   0  0  2  0  0  3  0  0  0  0  0  0
  183.6350  177.5120  135.3300 C   0  0  0  0  0  1  0  0  0  0  0  0
  183.0560  174.2630  135.7990 O   0  0  0  0  0  0  0  0  0  0  0  0
  180.2560  176.5930  135.9250 C   0  0  0  0  0  3  0  0  0  0  0  0
  183.8570  179.2490  142.1030 C   0  0  2  0  0  3  0  0  0  0  0  0
  186.7850  178.0290  142.7570 C   0  0  0  0  0  3  0  0  0  0  0  0
  183.7720  177.2310  138.8050 C   0  0  0  0  0  2  0  0  0  0  0  0
  180.3500  177.1990  137.1090 C   0  0  0  0  0  3  0  0  0  0  0  0
  184.3560  178.2660  141.0340 C   0  0  1  0  0  3  0  0  0  0  0  0
  183.6780  179.5180  144.5010 C   0  0  0  0  0  2  0  0  0  0  0  0
  181.3770  176.8230  138.1290 C   0  0  2  0  0  3  0  0  0  0  0  0
  181.1500  175.5560  135.4980 N   0  0  0  0  0  2  0  0  0  0  0  0
  185.5400  178.0550  143.6060 C   0  0  2  0  0  3  0  0  0  0  0  0
  181.9430  177.9390  140.3550 C   0  0  0  0  0  0  0  0  0  0  0  0
  183.3280  176.5360  136.4500 C   0  0  2  0  0  3  0  0  0  0  0  0
  183.3510  178.2330  139.8740 C   0  0  2  0  0  3  0  0  0  0  0  0
  179.3370  177.4760  141.2070 C   0  0  0  0  0  3  0  0  0  0  0  0
  186.8530  178.2800  141.4390 C   0  0  0  0  0  3  0  0  0  0  0  0
  179.7280  177.1180  139.9560 N   0  0  0  0  0  0  0  0  0  0  0  0
  185.7230  178.7330  140.5510 C   0  0  0  0  0  2  0  0  0  0  0  0
  184.7040  179.3300  143.3800 C   0  0  1  0  0  3  0  0  0  0  0  0
  180.2420  178.0800  142.0780 C   0  0  0  0  0  3  0  0  0  0  0  0
  182.5190  178.8970  142.5400 N   0  0  0  0  0  0  0  0  0  0  0  0
  185.9110  177.9300  144.9490 O   0  0  0  0  0  0  0  0  0  0  0  0
  187.1400  177.2650  144.9190 C   0  0  0  0  0  2  0  0  0  0  0  0
  188.4000  176.8180  147.8930 O   0  0  0  0  0  0  0  0  0  0  0  0
  189.4430  177.2370  145.8180 C   0  0  0  0  0  2  0  0  0  0  0  0
  188.1300  177.9630  145.8370 C   0  0  2  0  0  3  0  0  0  0  0  0
  189.6480  176.8240  147.2560 C   0  0  0  0  0  2  0  0  0  0  0  0
  187.6650  177.8370  147.2690 C   0  0  0  0  0  2  0  0  0  0  0  0
  1 26  1  0  0  0  0
  1 27  1  0  0  0  0
  2 14  1  0  0  0  0
  3 19  1  0  0  0  0
  4 23  2  0  0  0  0
  4 18  1  0  0  0  0
  5 15  1  0  0  0  0
  5 11  1  1  0  0  0
  7  3  2  0  0  0  0
  8 12  2  0  0  0  0
  9 27  1  1  0  0  0
  9 25  1  0  0  0  0
 10 17  1  0  0  0  0
 13 24  1  6  0  0  0
 13  9  1  0  0  0  0
 15 12  1  6  0  0  0
 15  4  1  0  0  0  0
 16  8  1  0  0  0  0
 16  3  1  0  0  0  0
 17 28  1  1  0  0  0
 18  1  2  0  0  0  0
 19  6  1  6  0  0  0
 19  5  1  0  0  0  0
 20 11  1  6  0  0  0
 20 18  1  0  0  0  0
 20 13  1  0  0  0  0
 21 26  2  0  0  0  0
 22 10  2  0  0  0  0
 23 21  1  0  0  0  0
 24 22  1  0  0  0  0
 25 17  1  0  0  0  0
 25 14  1  1  0  0  0
 27  2  1  0  0  0  0
 29 28  1  0  0  0  0
 31 32  1  0  0  0  0
 31 33  1  0  0  0  0
 32 29  1  6  0  0  0
 32 34  1  0  0  0  0
 33 30  1  0  0  0  0
 34 30  1  0  0  0  0
M  END
>  <MODEL>
9

>  <REMARK>
 VINA RESULT:      -7.5      3.174      9.344
  Name = 
  3 active torsions:
  status: ('A' for Active; 'I' for Inactive)
    1  A    between atoms: C_17  and  O_28
    2  A    between atoms: O_28  and  C_29
    3  A    between atoms: C_29  and  C_32
                            x       y       z     vdW  Elec       q    Type
                         _______ _______ _______ _____ _____    ______ ____

>  <TORSDO>
F 3

$$$$
