=
 OpenBabel11122412013D

 28 32  0  0  1  0  0  0  0  0999 V2000
  182.1200  178.6170  141.1090 C   0  0  0  0  0  0  0  0  0  0  0  0
  182.2250  175.6660  139.7870 F   0  0  0  0  0  0  0  0  0  0  0  0
  186.7140  179.2480  137.0620 O   0  0  0  0  0  1  0  0  0  0  0  0
  179.8510  180.0650  140.3050 C   0  0  0  0  0  3  0  0  0  0  0  0
  185.5890  177.2070  137.2150 N   0  0  0  0  0  0  0  0  0  0  0  0
  183.3130  177.8760  141.6370 C   0  0  0  0  0  2  0  0  0  0  0  0
  180.0570  176.2500  139.0570 C   0  0  0  0  0  1  0  0  0  0  0  0
  181.4700  175.8840  138.6450 C   0  0  1  0  0  0  0  0  0  0  0  0
  182.7700  174.1680  137.3720 C   0  0  1  0  0  3  0  0  0  0  0  0
  182.0750  177.0270  137.7750 C   0  0  2  0  0  3  0  0  0  0  0  0
  186.5560  178.1710  141.2640 O   0  0  0  0  0  0  0  0  0  0  0  0
  184.0750  177.8040  138.8720 C   0  0  1  0  0  3  0  0  0  0  0  0
  183.2780  175.2090  136.3910 C   0  0  0  0  0  2  0  0  0  0  0  0
  181.3910  174.5800  137.8590 C   0  0  0  0  0  2  0  0  0  0  0  0
  185.5200  178.8610  141.0770 C   0  0  0  0  0  0  0  0  0  0  0  0
  181.8200  178.7550  139.7220 C   0  0  0  0  0  0  0  0  0  0  0  0
  186.1480  178.3360  137.9520 C   0  0  2  0  0  3  0  0  0  0  0  0
  182.6860  172.9320  136.7340 O   0  0  0  0  0  1  0  0  0  0  0  0
  185.3640  179.5850  139.8920 O   0  0  0  0  0  0  0  0  0  0  0  0
  180.6860  179.4890  139.3470 C   0  0  0  0  0  3  0  0  0  0  0  0
  181.2680  179.2000  142.0570 C   0  0  0  0  0  3  0  0  0  0  0  0
  180.1410  179.9180  141.6600 C   0  0  0  0  0  3  0  0  0  0  0  0
  184.4140  178.8360  142.0790 C   0  0  0  0  0  2  0  0  0  0  0  0
  184.4730  176.7400  137.9460 N   0  0  1  0  0  0  0  0  0  0  0  0
  184.9910  178.9720  138.6560 C   0  0  2  0  0  3  0  0  0  0  0  0
  183.3430  176.6000  137.0250 C   0  0  2  0  0  3  0  0  0  0  0  0
  186.5860  176.1490  137.2460 C   0  0  0  0  0  1  0  0  0  0  0  0
  182.6430  178.1850  138.5840 C   0  0  2  0  0  3  0  0  0  0  0  0
  1  6  1  0  0  0  0
  1 21  1  0  0  0  0
  3 17  1  0  0  0  0
  4 22  1  0  0  0  0
  5 27  1  0  0  0  0
  5 24  1  0  0  0  0
  5 17  1  0  0  0  0
  6 23  1  0  0  0  0
  8  7  1  1  0  0  0
  8  2  1  0  0  0  0
  9 18  1  6  0  0  0
  9 14  1  0  0  0  0
 10 28  1  0  0  0  0
 10  8  1  0  0  0  0
 13 26  1  0  0  0  0
 13  9  1  0  0  0  0
 14  8  1  0  0  0  0
 15 11  2  0  0  0  0
 15 23  1  0  0  0  0
 16  1  2  0  0  0  0
 17 25  1  0  0  0  0
 19 15  1  0  0  0  0
 20 16  1  0  0  0  0
 20  4  2  0  0  0  0
 22 21  2  0  0  0  0
 24 12  1  0  0  0  0
 25 12  1  0  0  0  0
 25 19  1  0  0  0  0
 26 10  1  0  0  0  0
 26 24  1  0  0  0  0
 28 12  1  0  0  0  0
 28 16  1  0  0  0  0
M  END
>  <MODEL>
1

>  <REMARK>
 VINA RESULT:      -6.3      0.000      0.000
  Name = 
  0 active torsions:
  status: ('A' for Active; 'I' for Inactive)
                            x       y       z     vdW  Elec       q    Type
                         _______ _______ _______ _____ _____    ______ ____

>  <TORSDO>
F 0

$$$$
=
 OpenBabel11122412013D

 28 32  0  0  1  0  0  0  0  0999 V2000
  181.9210  178.2190  140.1240 C   0  0  0  0  0  0  0  0  0  0  0  0
  182.6400  175.2390  139.0910 F   0  0  0  0  0  0  0  0  0  0  0  0
  187.1000  179.2340  136.9560 O   0  0  0  0  0  1  0  0  0  0  0  0
  179.6920  179.2980  138.7990 C   0  0  0  0  0  3  0  0  0  0  0  0
  186.2250  177.0710  137.0650 N   0  0  0  0  0  0  0  0  0  0  0  0
  183.0710  177.6780  140.9220 C   0  0  0  0  0  2  0  0  0  0  0  0
  180.6000  175.4810  137.9280 C   0  0  0  0  0  1  0  0  0  0  0  0
  182.1000  175.2870  137.8150 C   0  0  1  0  0  0  0  0  0  0  0  0
  183.8210  173.6920  136.9490 C   0  0  1  0  0  3  0  0  0  0  0  0
  182.7170  176.4490  136.9810 C   0  0  2  0  0  3  0  0  0  0  0  0
  186.2650  178.3880  141.1300 O   0  0  0  0  0  0  0  0  0  0  0  0
  184.3580  177.5510  138.3600 C   0  0  1  0  0  3  0  0  0  0  0  0
  184.3790  174.7350  135.9970 C   0  0  0  0  0  2  0  0  0  0  0  0
  182.3340  173.9400  137.1380 C   0  0  0  0  0  2  0  0  0  0  0  0
  185.2080  178.9200  140.6990 C   0  0  0  0  0  0  0  0  0  0  0  0
  181.8810  178.2350  138.6990 C   0  0  0  0  0  0  0  0  0  0  0  0
  186.4890  178.3060  137.7980 C   0  0  2  0  0  3  0  0  0  0  0  0
  184.0140  172.4220  136.4110 O   0  0  0  0  0  1  0  0  0  0  0  0
  185.1970  179.5470  139.4510 O   0  0  0  0  0  0  0  0  0  0  0  0
  180.7600  178.7860  138.0620 C   0  0  0  0  0  3  0  0  0  0  0  0
  180.8380  178.7340  140.8470 C   0  0  0  0  0  3  0  0  0  0  0  0
  179.7290  179.2700  140.1920 C   0  0  0  0  0  3  0  0  0  0  0  0
  183.9410  178.8020  141.4790 C   0  0  0  0  0  2  0  0  0  0  0  0
  185.0540  176.5000  137.6140 N   0  0  1  0  0  0  0  0  0  0  0  0
  185.1480  178.8190  138.2220 C   0  0  2  0  0  3  0  0  0  0  0  0
  184.1500  176.1550  136.5160 C   0  0  2  0  0  3  0  0  0  0  0  0
  187.3180  176.1620  137.3670 C   0  0  0  0  0  1  0  0  0  0  0  0
  182.9720  177.7180  137.7830 C   0  0  2  0  0  3  0  0  0  0  0  0
  1 21  1  0  0  0  0
  1  6  1  0  0  0  0
  3 17  1  0  0  0  0
  4 22  1  0  0  0  0
  5 27  1  0  0  0  0
  5 24  1  0  0  0  0
  5 17  1  0  0  0  0
  6 23  1  0  0  0  0
  8  7  1  1  0  0  0
  8  2  1  0  0  0  0
  9 18  1  6  0  0  0
  9 14  1  0  0  0  0
 10 28  1  0  0  0  0
 10  8  1  0  0  0  0
 13 26  1  0  0  0  0
 13  9  1  0  0  0  0
 14  8  1  0  0  0  0
 15 11  2  0  0  0  0
 15 23  1  0  0  0  0
 16  1  2  0  0  0  0
 17 25  1  0  0  0  0
 19 15  1  0  0  0  0
 20 16  1  0  0  0  0
 20  4  2  0  0  0  0
 22 21  2  0  0  0  0
 24 12  1  0  0  0  0
 25 12  1  0  0  0  0
 25 19  1  0  0  0  0
 26 10  1  0  0  0  0
 26 24  1  0  0  0  0
 28 12  1  0  0  0  0
 28 16  1  0  0  0  0
M  END
>  <MODEL>
2

>  <REMARK>
 VINA RESULT:      -6.0      0.926      1.058
  Name = 
  0 active torsions:
  status: ('A' for Active; 'I' for Inactive)
                            x       y       z     vdW  Elec       q    Type
                         _______ _______ _______ _____ _____    ______ ____

>  <TORSDO>
F 0

$$$$
=
 OpenBabel11122412013D

 28 32  0  0  1  0  0  0  0  0999 V2000
  186.1000  177.9530  143.9810 C   0  0  0  0  0  0  0  0  0  0  0  0
  184.0880  176.9250  141.6650 F   0  0  0  0  0  0  0  0  0  0  0  0
  189.2210  179.4460  138.8900 O   0  0  0  0  0  1  0  0  0  0  0  0
  185.1370  180.2440  145.2900 C   0  0  0  0  0  3  0  0  0  0  0  0
  187.1210  178.4430  138.6980 N   0  0  0  0  0  0  0  0  0  0  0  0
  186.6390  176.6900  143.3760 C   0  0  0  0  0  2  0  0  0  0  0  0
  182.6740  178.5760  142.5860 C   0  0  0  0  0  1  0  0  0  0  0  0
  183.4390  178.1120  141.3620 C   0  0  1  0  0  0  0  0  0  0  0  0
  183.1130  177.4090  138.9840 C   0  0  1  0  0  3  0  0  0  0  0  0
  184.4500  179.2150  140.9260 C   0  0  2  0  0  3  0  0  0  0  0  0
  189.2120  175.9620  141.4790 O   0  0  0  0  0  0  0  0  0  0  0  0
  186.6560  178.2460  140.9650 C   0  0  1  0  0  3  0  0  0  0  0  0
  183.9670  178.5580  138.4770 C   0  0  0  0  0  2  0  0  0  0  0  0
  182.4170  177.8390  140.2640 C   0  0  0  0  0  2  0  0  0  0  0  0
  188.8240  176.9040  142.2180 C   0  0  0  0  0  0  0  0  0  0  0  0
  185.7000  179.0910  143.2210 C   0  0  0  0  0  0  0  0  0  0  0  0
  188.3880  178.4630  139.4220 C   0  0  2  0  0  3  0  0  0  0  0  0
  182.1590  177.0820  138.0240 O   0  0  0  0  0  1  0  0  0  0  0  0
  188.9370  178.2270  141.7850 O   0  0  0  0  0  0  0  0  0  0  0  0
  185.2300  180.2240  143.8990 C   0  0  0  0  0  3  0  0  0  0  0  0
  185.9950  177.9890  145.3780 C   0  0  0  0  0  3  0  0  0  0  0  0
  185.5170  179.1250  146.0300 C   0  0  0  0  0  3  0  0  0  0  0  0
  188.1560  176.6070  143.5200 C   0  0  0  0  0  2  0  0  0  0  0  0
  186.1200  178.0510  139.6160 N   0  0  1  0  0  0  0  0  0  0  0  0
  188.0400  178.8090  140.8370 C   0  0  2  0  0  3  0  0  0  0  0  0
  185.0040  178.9930  139.5130 C   0  0  2  0  0  3  0  0  0  0  0  0
  187.2210  177.3850  137.7060 C   0  0  0  0  0  1  0  0  0  0  0  0
  185.7550  179.2020  141.7100 C   0  0  2  0  0  3  0  0  0  0  0  0
  1 21  1  0  0  0  0
  3 17  1  0  0  0  0
  4 22  1  0  0  0  0
  5 17  1  0  0  0  0
  5 24  1  0  0  0  0
  6 23  1  0  0  0  0
  6  1  1  0  0  0  0
  8  2  1  0  0  0  0
  8  7  1  1  0  0  0
  9 18  1  6  0  0  0
  9 14  1  0  0  0  0
 10  8  1  0  0  0  0
 10 28  1  0  0  0  0
 11 15  2  0  0  0  0
 12 28  1  0  0  0  0
 13  9  1  0  0  0  0
 13 26  1  0  0  0  0
 14  8  1  0  0  0  0
 15 23  1  0  0  0  0
 16 20  1  0  0  0  0
 16  1  2  0  0  0  0
 17 25  1  0  0  0  0
 19 15  1  0  0  0  0
 20  4  2  0  0  0  0
 21 22  2  0  0  0  0
 24 12  1  0  0  0  0
 25 12  1  0  0  0  0
 25 19  1  0  0  0  0
 26 24  1  0  0  0  0
 26 10  1  0  0  0  0
 27  5  1  0  0  0  0
 28 16  1  0  0  0  0
M  END
>  <MODEL>
3

>  <REMARK>
 VINA RESULT:      -5.8      2.663      4.397
  Name = 
  0 active torsions:
  status: ('A' for Active; 'I' for Inactive)
                            x       y       z     vdW  Elec       q    Type
                         _______ _______ _______ _____ _____    ______ ____

>  <TORSDO>
F 0

$$$$
=
 OpenBabel11122412013D

 28 32  0  0  1  0  0  0  0  0999 V2000
  190.7520  174.0650  135.9360 C   0  0  0  0  0  0  0  0  0  0  0  0
  190.1580  175.3870  138.8280 F   0  0  0  0  0  0  0  0  0  0  0  0
  185.7930  177.5030  134.7200 O   0  0  0  0  0  1  0  0  0  0  0  0
  193.0510  175.1340  134.7270 C   0  0  0  0  0  3  0  0  0  0  0  0
  186.6950  177.5080  136.8750 N   0  0  0  0  0  0  0  0  0  0  0  0
  189.5580  173.3980  136.5530 C   0  0  0  0  0  2  0  0  0  0  0  0
  192.2710  176.3770  138.4690 C   0  0  0  0  0  1  0  0  0  0  0  0
  190.7860  176.6120  138.6690 C   0  0  1  0  0  0  0  0  0  0  0  0
  189.1570  177.7270  140.2060 C   0  0  1  0  0  3  0  0  0  0  0  0
  190.2100  177.3910  137.4500 C   0  0  2  0  0  3  0  0  0  0  0  0
  186.3460  173.3620  135.8980 O   0  0  0  0  0  0  0  0  0  0  0  0
  188.4580  176.0480  136.4830 C   0  0  1  0  0  3  0  0  0  0  0  0
  188.6510  178.6280  139.0940 C   0  0  0  0  0  2  0  0  0  0  0  0
  190.6230  177.4120  139.9580 C   0  0  0  0  0  2  0  0  0  0  0  0
  187.4210  173.6710  135.3210 C   0  0  0  0  0  0  0  0  0  0  0  0
  190.8930  175.4770  135.8020 C   0  0  0  0  0  0  0  0  0  0  0  0
  186.3600  176.6980  135.7070 C   0  0  2  0  0  3  0  0  0  0  0  0
  189.0240  178.3790  141.4300 O   0  0  0  0  0  1  0  0  0  0  0  0
  187.5100  174.8600  134.5940 O   0  0  0  0  0  0  0  0  0  0  0  0
  192.0460  175.9850  135.1880 C   0  0  0  0  0  3  0  0  0  0  0  0
  191.7730  173.2260  135.4700 C   0  0  0  0  0  3  0  0  0  0  0  0
  192.9160  173.7550  134.8710 C   0  0  0  0  0  3  0  0  0  0  0  0
  188.6330  172.8150  135.4890 C   0  0  0  0  0  2  0  0  0  0  0  0
  187.8340  176.9250  137.4760 N   0  0  1  0  0  0  0  0  0  0  0  0
  187.6580  176.1380  135.2160 C   0  0  2  0  0  3  0  0  0  0  0  0
  188.8190  177.9800  137.7190 C   0  0  2  0  0  3  0  0  0  0  0  0
  185.5980  177.3600  137.8180 C   0  0  0  0  0  1  0  0  0  0  0  0
  189.8780  176.5090  136.2530 C   0  0  2  0  0  3  0  0  0  0  0  0
  1  6  1  0  0  0  0
  3 17  1  0  0  0  0
  4 22  2  0  0  0  0
  4 20  1  0  0  0  0
  5 24  1  0  0  0  0
  5 27  1  0  0  0  0
  8  7  1  6  0  0  0
  8  2  1  0  0  0  0
  8 14  1  0  0  0  0
  9 18  1  1  0  0  0
 10 26  1  0  0  0  0
 10  8  1  0  0  0  0
 12 24  1  0  0  0  0
 13  9  1  0  0  0  0
 14  9  1  0  0  0  0
 15 23  1  0  0  0  0
 15 11  2  0  0  0  0
 16  1  1  0  0  0  0
 16 28  1  0  0  0  0
 17  5  1  0  0  0  0
 19 25  1  0  0  0  0
 19 15  1  0  0  0  0
 20 16  2  0  0  0  0
 21  1  2  0  0  0  0
 22 21  1  0  0  0  0
 23  6  1  0  0  0  0
 24 26  1  0  0  0  0
 25 17  1  0  0  0  0
 25 12  1  0  0  0  0
 26 13  1  0  0  0  0
 28 12  1  0  0  0  0
 28 10  1  0  0  0  0
M  END
>  <MODEL>
4

>  <REMARK>
 VINA RESULT:      -5.7      4.384      8.975
  Name = 
  0 active torsions:
  status: ('A' for Active; 'I' for Inactive)
                            x       y       z     vdW  Elec       q    Type
                         _______ _______ _______ _____ _____    ______ ____

>  <TORSDO>
F 0

$$$$
=
 OpenBabel11122412013D

 28 32  0  0  1  0  0  0  0  0999 V2000
  182.9340  177.0330  137.2930 C   0  0  0  0  0  0  0  0  0  0  0  0
  184.6970  174.3320  137.5410 F   0  0  0  0  0  0  0  0  0  0  0  0
  188.6560  179.3010  137.3290 O   0  0  0  0  0  1  0  0  0  0  0  0
  181.7510  177.3040  134.7590 C   0  0  0  0  0  3  0  0  0  0  0  0
  188.3350  176.9900  137.4400 N   0  0  0  0  0  0  0  0  0  0  0  0
  183.4740  176.9160  138.6870 C   0  0  0  0  0  2  0  0  0  0  0  0
  183.7330  173.8730  135.4360 C   0  0  0  0  0  1  0  0  0  0  0  0
  185.0140  174.1240  136.2080 C   0  0  1  0  0  0  0  0  0  0  0  0
  187.1900  173.0520  136.8170 C   0  0  1  0  0  3  0  0  0  0  0  0
  185.7580  175.3530  135.6030 C   0  0  2  0  0  3  0  0  0  0  0  0
  185.7150  178.5530  140.4330 O   0  0  0  0  0  0  0  0  0  0  0  0
  186.0140  176.9890  137.3540 C   0  0  1  0  0  3  0  0  0  0  0  0
  187.9800  174.1400  136.1130 C   0  0  0  0  0  2  0  0  0  0  0  0
  185.8630  172.8620  136.1010 C   0  0  0  0  0  2  0  0  0  0  0  0
  185.0340  178.7150  139.3870 C   0  0  0  0  0  0  0  0  0  0  0  0
  183.7370  176.9320  136.1190 C   0  0  0  0  0  0  0  0  0  0  0  0
  187.8660  178.2980  137.8890 C   0  0  2  0  0  3  0  0  0  0  0  0
  187.9100  171.8600  136.7820 O   0  0  0  0  0  1  0  0  0  0  0  0
  185.6350  179.2170  138.2300 O   0  0  0  0  0  0  0  0  0  0  0  0
  183.1230  177.0790  134.8670 C   0  0  0  0  0  3  0  0  0  0  0  0
  181.5570  177.2550  137.1650 C   0  0  0  0  0  3  0  0  0  0  0  0
  180.9670  177.3890  135.9090 C   0  0  0  0  0  3  0  0  0  0  0  0
  183.6060  178.2850  139.3500 C   0  0  0  0  0  2  0  0  0  0  0  0
  187.2070  176.1400  137.3760 N   0  0  1  0  0  0  0  0  0  0  0  0
  186.4630  178.4200  137.3810 C   0  0  2  0  0  3  0  0  0  0  0  0
  187.2130  175.4630  136.0780 C   0  0  2  0  0  3  0  0  0  0  0  0
  189.1960  176.4690  138.4900 C   0  0  0  0  0  1  0  0  0  0  0  0
  185.2340  176.6960  136.0950 C   0  0  2  0  0  3  0  0  0  0  0  0
  1  6  1  0  0  0  0
  3 17  1  0  0  0  0
  4 20  2  0  0  0  0
  4 22  1  0  0  0  0
  5 17  1  0  0  0  0
  5 27  1  0  0  0  0
  6 23  1  0  0  0  0
  8  7  1  6  0  0  0
  8  2  1  0  0  0  0
  9 18  1  6  0  0  0
 10 26  1  0  0  0  0
 10 28  1  0  0  0  0
 10  8  1  0  0  0  0
 12 24  1  0  0  0  0
 12 25  1  0  0  0  0
 13  9  1  0  0  0  0
 14  8  1  0  0  0  0
 14  9  1  0  0  0  0
 15 11  2  0  0  0  0
 16  1  2  0  0  0  0
 19 15  1  0  0  0  0
 20 16  1  0  0  0  0
 21  1  1  0  0  0  0
 22 21  2  0  0  0  0
 23 15  1  0  0  0  0
 24  5  1  0  0  0  0
 25 17  1  0  0  0  0
 25 19  1  0  0  0  0
 26 13  1  0  0  0  0
 26 24  1  0  0  0  0
 28 16  1  0  0  0  0
 28 12  1  0  0  0  0
M  END
>  <MODEL>
5

>  <REMARK>
 VINA RESULT:      -5.5      2.518      4.080
  Name = 
  0 active torsions:
  status: ('A' for Active; 'I' for Inactive)
                            x       y       z     vdW  Elec       q    Type
                         _______ _______ _______ _____ _____    ______ ____

>  <TORSDO>
F 0

$$$$
=
 OpenBabel11122412013D

 28 32  0  0  1  0  0  0  0  0999 V2000
  182.7870  178.3810  138.8430 C   0  0  0  0  0  0  0  0  0  0  0  0
  183.0000  175.1570  138.6760 F   0  0  0  0  0  0  0  0  0  0  0  0
  188.0770  177.6560  135.7800 O   0  0  0  0  0  1  0  0  0  0  0  0
  180.7770  179.4050  137.1690 C   0  0  0  0  0  3  0  0  0  0  0  0
  186.8510  175.7730  136.4170 N   0  0  0  0  0  0  0  0  0  0  0  0
  183.8270  177.8980  139.8120 C   0  0  0  0  0  2  0  0  0  0  0  0
  181.0350  175.3990  137.3910 C   0  0  0  0  0  1  0  0  0  0  0  0
  182.4810  174.9440  137.4080 C   0  0  1  0  0  0  0  0  0  0  0  0
  183.9140  172.9200  137.0840 C   0  0  1  0  0  3  0  0  0  0  0  0
  183.2890  175.7230  136.3270 C   0  0  2  0  0  3  0  0  0  0  0  0
  187.0930  178.1160  139.9820 O   0  0  0  0  0  0  0  0  0  0  0  0
  185.0850  176.8790  137.4430 C   0  0  1  0  0  3  0  0  0  0  0  0
  184.6430  173.5630  135.9170 C   0  0  0  0  0  2  0  0  0  0  0  0
  182.4890  173.4460  137.1260 C   0  0  0  0  0  2  0  0  0  0  0  0
  186.1430  178.6740  139.3740 C   0  0  0  0  0  0  0  0  0  0  0  0
  182.7570  178.0170  137.4650 C   0  0  0  0  0  0  0  0  0  0  0  0
  187.3150  177.1010  136.8070 C   0  0  2  0  0  3  0  0  0  0  0  0
  183.8940  171.5370  136.9130 O   0  0  0  0  0  1  0  0  0  0  0  0
  186.2430  178.9330  138.0050 O   0  0  0  0  0  0  0  0  0  0  0  0
  181.7470  178.5480  136.6490 C   0  0  0  0  0  3  0  0  0  0  0  0
  181.8020  179.2390  139.3490 C   0  0  0  0  0  3  0  0  0  0  0  0
  180.8030  179.7480  138.5200 C   0  0  0  0  0  3  0  0  0  0  0  0
  184.8700  178.9760  140.0920 C   0  0  0  0  0  2  0  0  0  0  0  0
  185.5980  175.5680  137.0390 N   0  0  1  0  0  0  0  0  0  0  0  0
  186.0770  177.9180  137.0120 C   0  0  2  0  0  3  0  0  0  0  0  0
  184.6530  175.0880  136.0280 C   0  0  2  0  0  3  0  0  0  0  0  0
  187.7740  174.8160  137.0030 C   0  0  0  0  0  1  0  0  0  0  0  0
  183.7490  177.1030  136.7740 C   0  0  2  0  0  3  0  0  0  0  0  0
  1 21  1  0  0  0  0
  1  6  1  0  0  0  0
  3 17  1  0  0  0  0
  4 22  1  0  0  0  0
  5 17  1  0  0  0  0
  5 27  1  0  0  0  0
  5 24  1  0  0  0  0
  6 23  1  0  0  0  0
  8  7  1  6  0  0  0
  8  2  1  0  0  0  0
  9 18  1  6  0  0  0
  9 14  1  0  0  0  0
 10 28  1  0  0  0  0
 10  8  1  0  0  0  0
 13 26  1  0  0  0  0
 13  9  1  0  0  0  0
 14  8  1  0  0  0  0
 15 11  2  0  0  0  0
 15 23  1  0  0  0  0
 16  1  2  0  0  0  0
 17 25  1  0  0  0  0
 19 15  1  0  0  0  0
 20  4  2  0  0  0  0
 20 16  1  0  0  0  0
 22 21  2  0  0  0  0
 24 12  1  0  0  0  0
 25 12  1  0  0  0  0
 25 19  1  0  0  0  0
 26 10  1  0  0  0  0
 26 24  1  0  0  0  0
 28 12  1  0  0  0  0
 28 16  1  0  0  0  0
M  END
>  <MODEL>
6

>  <REMARK>
 VINA RESULT:      -5.4      1.581      2.225
  Name = 
  0 active torsions:
  status: ('A' for Active; 'I' for Inactive)
                            x       y       z     vdW  Elec       q    Type
                         _______ _______ _______ _____ _____    ______ ____

>  <TORSDO>
F 0

$$$$
=
 OpenBabel11122412013D

 28 32  0  0  1  0  0  0  0  0999 V2000
  180.2920  179.9490  140.7810 C   0  0  0  0  0  0  0  0  0  0  0  0
  183.3450  179.9860  139.7120 F   0  0  0  0  0  0  0  0  0  0  0  0
  179.8900  176.3640  135.7940 O   0  0  0  0  0  1  0  0  0  0  0  0
  180.0050  178.4470  143.1370 C   0  0  0  0  0  3  0  0  0  0  0  0
  181.9580  177.2660  136.3970 N   0  0  0  0  0  0  0  0  0  0  0  0
  180.3850  180.8250  139.5660 C   0  0  0  0  0  2  0  0  0  0  0  0
  183.7580  178.9190  141.7770 C   0  0  0  0  0  1  0  0  0  0  0  0
  183.8110  178.8040  140.2660 C   0  0  1  0  0  0  0  0  0  0  0  0
  185.4060  178.4610  138.3700 C   0  0  1  0  0  3  0  0  0  0  0  0
  182.9570  177.5850  139.8030 C   0  0  2  0  0  3  0  0  0  0  0  0
  179.2960  180.6080  136.4820 O   0  0  0  0  0  0  0  0  0  0  0  0
  181.2630  178.4060  138.2970 C   0  0  1  0  0  3  0  0  0  0  0  0
  184.7110  177.1770  137.9530 C   0  0  0  0  0  2  0  0  0  0  0  0
  185.2740  178.6280  139.8750 C   0  0  0  0  0  2  0  0  0  0  0  0
  179.0720  180.0740  137.5990 C   0  0  0  0  0  0  0  0  0  0  0  0
  180.7840  178.6120  140.8360 C   0  0  0  0  0  0  0  0  0  0  0  0
  180.5230  177.5070  136.2800 C   0  0  2  0  0  3  0  0  0  0  0  0
  186.7550  178.3910  138.0280 O   0  0  0  0  0  1  0  0  0  0  0  0
  178.9310  178.6880  137.6980 O   0  0  0  0  0  0  0  0  0  0  0  0
  180.6210  177.8820  142.0210 C   0  0  0  0  0  3  0  0  0  0  0  0
  179.6780  180.5020  141.9130 C   0  0  0  0  0  3  0  0  0  0  0  0
  179.5360  179.7590  143.0840 C   0  0  0  0  0  3  0  0  0  0  0  0
  179.0470  180.9090  138.8360 C   0  0  0  0  0  2  0  0  0  0  0  0
  182.4250  178.0400  137.4850 N   0  0  1  0  0  0  0  0  0  0  0  0
  180.0460  177.7940  137.6690 C   0  0  2  0  0  3  0  0  0  0  0  0
  183.2340  177.1790  138.3500 C   0  0  2  0  0  3  0  0  0  0  0  0
  182.5750  177.8100  135.1980 C   0  0  0  0  0  1  0  0  0  0  0  0
  181.4660  177.8790  139.6980 C   0  0  2  0  0  3  0  0  0  0  0  0
  1 16  2  0  0  0  0
  1 21  1  0  0  0  0
  2  8  1  0  0  0  0
  3 17  1  0  0  0  0
  5 24  1  0  0  0  0
  6  1  1  0  0  0  0
  8  7  1  1  0  0  0
  9 18  1  1  0  0  0
  9 14  1  0  0  0  0
 10  8  1  0  0  0  0
 11 15  2  0  0  0  0
 12 28  1  0  0  0  0
 13 26  1  0  0  0  0
 13  9  1  0  0  0  0
 14  8  1  0  0  0  0
 15 19  1  0  0  0  0
 15 23  1  0  0  0  0
 16 20  1  0  0  0  0
 17  5  1  0  0  0  0
 17 25  1  0  0  0  0
 20  4  2  0  0  0  0
 21 22  2  0  0  0  0
 22  4  1  0  0  0  0
 23  6  1  0  0  0  0
 24 12  1  0  0  0  0
 24 26  1  0  0  0  0
 25 19  1  0  0  0  0
 25 12  1  0  0  0  0
 26 10  1  0  0  0  0
 27  5  1  0  0  0  0
 28 10  1  0  0  0  0
 28 16  1  0  0  0  0
M  END
>  <MODEL>
7

>  <REMARK>
 VINA RESULT:      -5.2      2.696      4.805
  Name = 
  0 active torsions:
  status: ('A' for Active; 'I' for Inactive)
                            x       y       z     vdW  Elec       q    Type
                         _______ _______ _______ _____ _____    ______ ____

>  <TORSDO>
F 0

$$$$
=
 OpenBabel11122412013D

 28 32  0  0  1  0  0  0  0  0999 V2000
  190.3010  177.1140  142.8330 C   0  0  0  0  0  0  0  0  0  0  0  0
  187.0880  176.7410  142.7880 F   0  0  0  0  0  0  0  0  0  0  0  0
  188.8490  179.6150  137.3990 O   0  0  0  0  0  1  0  0  0  0  0  0
  191.1200  179.0780  144.6670 C   0  0  0  0  0  3  0  0  0  0  0  0
  187.1530  178.7750  138.7670 N   0  0  0  0  0  0  0  0  0  0  0  0
  189.9400  176.0050  141.8890 C   0  0  0  0  0  2  0  0  0  0  0  0
  187.2000  178.1920  144.6470 C   0  0  0  0  0  1  0  0  0  0  0  0
  186.6910  177.9930  143.2320 C   0  0  1  0  0  0  0  0  0  0  0  0
  184.5800  177.8780  141.8950 C   0  0  1  0  0  3  0  0  0  0  0  0
  187.2440  179.1220  142.3130 C   0  0  2  0  0  3  0  0  0  0  0  0
  190.0400  175.6280  138.6340 O   0  0  0  0  0  0  0  0  0  0  0  0
  188.4890  178.0770  140.5340 C   0  0  1  0  0  3  0  0  0  0  0  0
  184.9890  179.0750  141.0560 C   0  0  0  0  0  2  0  0  0  0  0  0
  185.1670  178.0280  143.2890 C   0  0  0  0  0  2  0  0  0  0  0  0
  190.5310  176.3880  139.5100 C   0  0  0  0  0  0  0  0  0  0  0  0
  189.7160  178.4140  142.7920 C   0  0  0  0  0  0  0  0  0  0  0  0
  188.5060  178.5720  138.2580 C   0  0  2  0  0  3  0  0  0  0  0  0
  183.1910  177.8240  141.9810 O   0  0  0  0  0  1  0  0  0  0  0  0
  190.5560  177.7690  139.3040 O   0  0  0  0  0  0  0  0  0  0  0  0
  190.1490  179.3780  143.7140 C   0  0  0  0  0  3  0  0  0  0  0  0
  191.2730  176.8300  143.8010 C   0  0  0  0  0  3  0  0  0  0  0  0
  191.6810  177.8020  144.7130 C   0  0  0  0  0  3  0  0  0  0  0  0
  191.0030  175.8250  140.8090 C   0  0  0  0  0  2  0  0  0  0  0  0
  187.1080  178.2240  140.0690 N   0  0  1  0  0  0  0  0  0  0  0  0
  189.3990  178.5940  139.4590 C   0  0  2  0  0  3  0  0  0  0  0  0
  186.5100  179.2120  140.9680 C   0  0  2  0  0  3  0  0  0  0  0  0
  186.2670  177.9740  137.9390 C   0  0  0  0  0  1  0  0  0  0  0  0
  188.6580  178.8720  141.8070 C   0  0  2  0  0  3  0  0  0  0  0  0
  1 21  1  0  0  0  0
  2  8  1  0  0  0  0
  3 17  1  0  0  0  0
  4 22  1  0  0  0  0
  5 24  1  0  0  0  0
  6  1  1  0  0  0  0
  8 14  1  0  0  0  0
  8  7  1  1  0  0  0
  9 18  1  1  0  0  0
  9 14  1  0  0  0  0
 10  8  1  0  0  0  0
 11 15  2  0  0  0  0
 12 28  1  0  0  0  0
 13  9  1  0  0  0  0
 15 23  1  0  0  0  0
 16  1  2  0  0  0  0
 16 20  1  0  0  0  0
 17  5  1  0  0  0  0
 17 25  1  0  0  0  0
 19 25  1  0  0  0  0
 19 15  1  0  0  0  0
 20  4  2  0  0  0  0
 21 22  2  0  0  0  0
 23  6  1  0  0  0  0
 24 12  1  0  0  0  0
 24 26  1  0  0  0  0
 25 12  1  0  0  0  0
 26 13  1  0  0  0  0
 26 10  1  0  0  0  0
 27  5  1  0  0  0  0
 28 10  1  0  0  0  0
 28 16  1  0  0  0  0
M  END
>  <MODEL>
8

>  <REMARK>
 VINA RESULT:      -5.1      4.166      7.104
  Name = 
  0 active torsions:
  status: ('A' for Active; 'I' for Inactive)
                            x       y       z     vdW  Elec       q    Type
                         _______ _______ _______ _____ _____    ______ ____

>  <TORSDO>
F 0

$$$$
=
 OpenBabel11122412013D

 28 32  0  0  1  0  0  0  0  0999 V2000
  181.5980  178.2430  141.2920 C   0  0  0  0  0  0  0  0  0  0  0  0
  181.2900  175.2160  140.1920 F   0  0  0  0  0  0  0  0  0  0  0  0
  181.4300  179.1590  135.2070 O   0  0  0  0  0  1  0  0  0  0  0  0
  179.2510  179.1730  142.5240 C   0  0  0  0  0  3  0  0  0  0  0  0
  181.2370  176.9890  136.0480 N   0  0  0  0  0  0  0  0  0  0  0  0
  182.9050  177.7860  140.7140 C   0  0  0  0  0  2  0  0  0  0  0  0
  179.2390  175.3270  141.3550 C   0  0  0  0  0  1  0  0  0  0  0  0
  179.9170  175.1620  140.0090 C   0  0  1  0  0  0  0  0  0  0  0  0
  180.1610  173.5520  138.1100 C   0  0  1  0  0  3  0  0  0  0  0  0
  179.4300  176.2770  139.0370 C   0  0  2  0  0  3  0  0  0  0  0  0
  184.6530  178.5860  138.0580 O   0  0  0  0  0  0  0  0  0  0  0  0
  181.3670  177.5120  138.3070 C   0  0  1  0  0  3  0  0  0  0  0  0
  179.5510  174.5400  137.1310 C   0  0  0  0  0  2  0  0  0  0  0  0
  179.5520  173.7780  139.4830 C   0  0  0  0  0  2  0  0  0  0  0  0
  183.7080  179.0610  138.7420 C   0  0  0  0  0  0  0  0  0  0  0  0
  180.3520  178.1580  140.6030 C   0  0  0  0  0  0  0  0  0  0  0  0
  181.9100  178.2780  136.1750 C   0  0  2  0  0  3  0  0  0  0  0  0
  179.8890  172.2530  137.6880 O   0  0  0  0  0  1  0  0  0  0  0  0
  182.5860  179.5990  138.1090 O   0  0  0  0  0  0  0  0  0  0  0  0
  179.1970  178.6370  141.2380 C   0  0  0  0  0  3  0  0  0  0  0  0
  181.6320  178.7810  142.5850 C   0  0  0  0  0  3  0  0  0  0  0  0
  180.4680  179.2420  143.1990 C   0  0  0  0  0  3  0  0  0  0  0  0
  183.7430  178.9670  140.2310 C   0  0  0  0  0  2  0  0  0  0  0  0
  181.1550  176.4290  137.3450 N   0  0  1  0  0  0  0  0  0  0  0  0
  181.5570  178.7860  137.5380 C   0  0  2  0  0  3  0  0  0  0  0  0
  179.7780  175.9870  137.5710 C   0  0  2  0  0  3  0  0  0  0  0  0
  182.1160  176.1290  135.2730 C   0  0  0  0  0  1  0  0  0  0  0  0
  180.1560  177.6050  139.2050 C   0  0  2  0  0  3  0  0  0  0  0  0
  1 21  1  0  0  0  0
  3 17  1  0  0  0  0
  4 22  1  0  0  0  0
  5 17  1  0  0  0  0
  5 24  1  0  0  0  0
  6  1  1  0  0  0  0
  8  2  1  0  0  0  0
  8  7  1  1  0  0  0
  9 18  1  6  0  0  0
  9 14  1  0  0  0  0
 10 28  1  0  0  0  0
 10  8  1  0  0  0  0
 11 15  2  0  0  0  0
 12 28  1  0  0  0  0
 13 26  1  0  0  0  0
 13  9  1  0  0  0  0
 14  8  1  0  0  0  0
 15 23  1  0  0  0  0
 16 20  1  0  0  0  0
 16  1  2  0  0  0  0
 17 25  1  0  0  0  0
 19 15  1  0  0  0  0
 20  4  2  0  0  0  0
 21 22  2  0  0  0  0
 23  6  1  0  0  0  0
 24 26  1  0  0  0  0
 24 12  1  0  0  0  0
 25 19  1  0  0  0  0
 25 12  1  0  0  0  0
 26 10  1  0  0  0  0
 27  5  1  0  0  0  0
 28 16  1  0  0  0  0
M  END
>  <MODEL>
9

>  <REMARK>
 VINA RESULT:      -5.0      2.256      3.095
  Name = 
  0 active torsions:
  status: ('A' for Active; 'I' for Inactive)
                            x       y       z     vdW  Elec       q    Type
                         _______ _______ _______ _____ _____    ______ ____

>  <TORSDO>
F 0

$$$$
