=
 OpenBabel11122411023D

 31 35  0  0  1  0  0  0  0  0999 V2000
  180.7430  180.9870  136.0310 C   0  0  0  0  0  0  0  0  0  0  0  0
  181.7230  177.8380  137.9140 C   0  0  2  0  0  3  0  0  0  0  0  0
  182.9160  177.3210  137.0910 C   0  0  1  0  0  3  0  0  0  0  0  0
  185.3900  177.4440  136.6510 C   0  0  1  0  0  3  0  0  0  0  0  0
  181.4230  179.2880  137.6250 C   0  0  0  0  0  0  0  0  0  0  0  0
  180.9470  181.9780  136.9940 C   0  0  0  0  0  3  0  0  0  0  0  0
  184.2300  178.0320  137.4440 C   0  0  0  0  0  2  0  0  0  0  0  0
  182.6950  178.5960  140.1270 C   0  0  2  0  0  3  0  0  0  0  0  0
  180.2750  181.3570  134.6700 C   0  0  0  0  0  1  0  0  0  0  0  0
  182.9800  175.3750  138.7180 C   0  0  0  0  0  3  0  0  0  0  0  0
  186.6710  178.1550  137.0310 C   0  0  0  0  0  1  0  0  0  0  0  0
  182.0120  179.9560  140.0070 C   0  0  0  0  0  2  0  0  0  0  0  0
  181.8570  177.5200  139.4240 C   0  0  2  0  0  3  0  0  0  0  0  0
  180.9810  179.6470  136.3460 C   0  0  0  0  0  3  0  0  0  0  0  0
  185.5250  175.9570  136.9560 C   0  0  0  0  0  2  0  0  0  0  0  0
  181.6370  180.2920  138.5950 C   0  0  0  0  0  0  0  0  0  0  0  0
  181.3860  181.6300  138.2730 C   0  0  0  0  0  3  0  0  0  0  0  0
  182.4190  176.1330  139.6710 C   0  0  0  0  0  3  0  0  0  0  0  0
  183.0240  175.7980  137.2720 C   0  0  2  0  0  3  0  0  0  0  0  0
  184.2470  175.2220  136.5560 C   0  0  0  0  0  2  0  0  0  0  0  0
  182.9120  178.2800  141.6020 C   0  0  0  0  0  2  0  0  0  0  0  0
  184.9320  179.4520  141.3260 O   0  0  0  0  0  0  0  0  0  0  0  0
  184.2910  178.6750  142.0170 C   0  0  0  0  0  0  0  0  0  0  0  0
  186.8780  178.2110  145.3440 C   0  0  1  0  0  3  0  0  0  0  0  0
  186.3630  177.7910  143.0670 C   0  0  0  0  0  2  0  0  0  0  0  0
  183.3470  179.2130  144.7530 O   0  0  0  0  0  1  0  0  0  0  0  0
  187.5830  177.6780  146.5730 C   0  0  0  0  0  1  0  0  0  0  0  0
  186.9300  177.2090  144.2820 N   0  0  0  0  0  2  0  0  0  0  0  0
  184.7030  179.0620  144.4590 C   0  0  2  0  0  3  0  0  0  0  0  0
  184.8800  178.1050  143.2750 C   0  0  1  0  0  3  0  0  0  0  0  0
  185.4250  178.5260  145.6910 C   0  0  0  0  0  2  0  0  0  0  0  0
  1 14  2  0  0  0  0
  1  6  1  0  0  0  0
  2  5  1  1  0  0  0
  2 13  1  0  0  0  0
  3 19  1  0  0  0  0
  3  7  1  1  0  0  0
  3  2  1  0  0  0  0
  4 15  1  0  0  0  0
  4 11  1  1  0  0  0
  4  7  1  0  0  0  0
  5 16  2  0  0  0  0
  6 17  2  0  0  0  0
  8 21  1  1  0  0  0
  9  1  1  0  0  0  0
 10 18  2  0  0  0  0
 12  8  1  0  0  0  0
 13 18  1  6  0  0  0
 13  8  1  0  0  0  0
 14  5  1  0  0  0  0
 16 12  1  0  0  0  0
 17 16  1  0  0  0  0
 19 20  1  1  0  0  0
 19 10  1  0  0  0  0
 20 15  1  0  0  0  0
 21 23  1  0  0  0  0
 22 23  2  0  0  0  0
 24 31  1  0  0  0  0
 24 27  1  1  0  0  0
 25 30  1  0  0  0  0
 25 28  1  0  0  0  0
 28 24  1  0  0  0  0
 29 26  1  1  0  0  0
 29 31  1  0  0  0  0
 30 23  1  6  0  0  0
 30 29  1  0  0  0  0
M  END
>  <MODEL>
1

>  <REMARK>
 VINA RESULT:      -7.8      0.000      0.000
  Name = 
  3 active torsions:
  status: ('A' for Active; 'I' for Inactive)
    1  A    between atoms: C_5  and  C_16
    2  A    between atoms: C_5  and  C_30
    3  A    between atoms: C_10  and  C_16
                            x       y       z     vdW  Elec       q    Type
                         _______ _______ _______ _____ _____    ______ ____

>  <TORSDO>
F 3

$$$$
=
 OpenBabel11122411023D

 31 35  0  0  1  0  0  0  0  0999 V2000
  183.8890  178.9770  143.3770 C   0  0  0  0  0  0  0  0  0  0  0  0
  182.8250  177.7000  139.9620 C   0  0  2  0  0  3  0  0  0  0  0  0
  181.6790  178.6600  139.5950 C   0  0  1  0  0  3  0  0  0  0  0  0
  181.0180  180.8810  138.6160 C   0  0  1  0  0  3  0  0  0  0  0  0
  183.6890  178.2490  141.0700 C   0  0  0  0  0  0  0  0  0  0  0  0
  185.2120  179.3600  143.1450 C   0  0  0  0  0  3  0  0  0  0  0  0
  182.1860  179.9920  139.0220 C   0  0  0  0  0  2  0  0  0  0  0  0
  184.7160  178.2460  138.3670 C   0  0  2  0  0  3  0  0  0  0  0  0
  183.2860  179.1590  144.7230 C   0  0  0  0  0  1  0  0  0  0  0  0
  181.4400  177.2940  137.4710 C   0  0  0  0  0  3  0  0  0  0  0  0
  181.5500  182.1780  138.0440 C   0  0  0  0  0  1  0  0  0  0  0  0
  185.7020  178.3880  139.5240 C   0  0  0  0  0  2  0  0  0  0  0  0
  183.6270  177.2260  138.7250 C   0  0  2  0  0  3  0  0  0  0  0  0
  183.1310  178.4240  142.3420 C   0  0  0  0  0  3  0  0  0  0  0  0
  180.1690  180.1740  137.5670 C   0  0  0  0  0  2  0  0  0  0  0  0
  185.0240  178.6450  140.8360 C   0  0  0  0  0  0  0  0  0  0  0  0
  185.7790  179.1880  141.8810 C   0  0  0  0  0  3  0  0  0  0  0  0
  182.7300  176.9360  137.5360 C   0  0  0  0  0  3  0  0  0  0  0  0
  180.7240  177.9480  138.6240 C   0  0  2  0  0  3  0  0  0  0  0  0
  179.6070  178.8730  138.1390 C   0  0  0  0  0  2  0  0  0  0  0  0
  185.4800  177.8510  137.1090 C   0  0  0  0  0  2  0  0  0  0  0  0
  187.1870  179.4460  136.8400 O   0  0  0  0  0  0  0  0  0  0  0  0
  186.8960  178.3150  137.1990 C   0  0  0  0  0  0  0  0  0  0  0  0
  190.4930  176.0770  137.3750 C   0  0  1  0  0  3  0  0  0  0  0  0
  188.2270  176.2760  136.7030 C   0  0  0  0  0  2  0  0  0  0  0  0
  189.0290  179.0280  139.0990 O   0  0  0  0  0  1  0  0  0  0  0  0
  191.5840  175.1090  137.7820 C   0  0  0  0  0  1  0  0  0  0  0  0
  189.2340  175.3520  137.2220 N   0  0  0  0  0  2  0  0  0  0  0  0
  189.2470  178.1340  138.0490 C   0  0  2  0  0  3  0  0  0  0  0  0
  187.9510  177.3830  137.7200 C   0  0  1  0  0  3  0  0  0  0  0  0
  190.3460  177.1540  138.4470 C   0  0  0  0  0  2  0  0  0  0  0  0
  1  9  1  0  0  0  0
  2  5  1  1  0  0  0
  3  7  1  6  0  0  0
  3  2  1  0  0  0  0
  4 11  1  6  0  0  0
  4  7  1  0  0  0  0
  5 14  1  0  0  0  0
  6  1  1  0  0  0  0
  8 21  1  6  0  0  0
  8 13  1  0  0  0  0
  8 12  1  0  0  0  0
 10 18  2  0  0  0  0
 12 16  1  0  0  0  0
 13 18  1  6  0  0  0
 13  2  1  0  0  0  0
 14  1  2  0  0  0  0
 15 20  1  0  0  0  0
 15  4  1  0  0  0  0
 16  5  2  0  0  0  0
 16 17  1  0  0  0  0
 17  6  2  0  0  0  0
 19 10  1  6  0  0  0
 19  3  1  0  0  0  0
 20 19  1  0  0  0  0
 21 23  1  0  0  0  0
 22 23  2  0  0  0  0
 24 27  1  1  0  0  0
 24 31  1  0  0  0  0
 25 28  1  0  0  0  0
 25 30  1  0  0  0  0
 28 24  1  0  0  0  0
 29 31  1  0  0  0  0
 29 26  1  1  0  0  0
 30 23  1  6  0  0  0
 30 29  1  0  0  0  0
M  END
>  <MODEL>
2

>  <REMARK>
 VINA RESULT:      -7.3      2.742      6.268
  Name = 
  3 active torsions:
  status: ('A' for Active; 'I' for Inactive)
    1  A    between atoms: C_5  and  C_16
    2  A    between atoms: C_5  and  C_30
    3  A    between atoms: C_10  and  C_16
                            x       y       z     vdW  Elec       q    Type
                         _______ _______ _______ _____ _____    ______ ____

>  <TORSDO>
F 3

$$$$
=
 OpenBabel11122411023D

 31 35  0  0  1  0  0  0  0  0999 V2000
  193.0050  175.3140  135.7890 C   0  0  0  0  0  0  0  0  0  0  0  0
  189.8290  177.2470  136.5590 C   0  0  2  0  0  3  0  0  0  0  0  0
  188.7350  176.3150  136.0090 C   0  0  1  0  0  3  0  0  0  0  0  0
  187.2470  174.3300  136.4260 C   0  0  1  0  0  3  0  0  0  0  0  0
  191.1390  176.5270  136.7570 C   0  0  0  0  0  0  0  0  0  0  0  0
  193.5260  175.0890  137.0660 C   0  0  0  0  0  3  0  0  0  0  0  0
  188.3750  175.1870  136.9870 C   0  0  0  0  0  2  0  0  0  0  0  0
  189.5570  177.2130  139.0780 C   0  0  2  0  0  3  0  0  0  0  0  0
  193.7150  174.7900  134.5940 C   0  0  0  0  0  1  0  0  0  0  0  0
  187.0850  178.1040  136.7250 C   0  0  0  0  0  3  0  0  0  0  0  0
  186.9060  173.2380  137.4170 C   0  0  0  0  0  1  0  0  0  0  0  0
  191.0350  176.8850  139.2720 C   0  0  0  0  0  2  0  0  0  0  0  0
  189.3640  178.0450  137.8030 C   0  0  2  0  0  3  0  0  0  0  0  0
  191.8160  176.0300  135.6370 C   0  0  0  0  0  3  0  0  0  0  0  0
  186.0150  175.1930  136.1780 C   0  0  0  0  0  2  0  0  0  0  0  0
  191.6620  176.2910  138.0470 C   0  0  0  0  0  0  0  0  0  0  0  0
  192.8600  175.5830  138.1890 C   0  0  0  0  0  3  0  0  0  0  0  0
  187.9330  178.5300  137.6720 C   0  0  0  0  0  3  0  0  0  0  0  0
  187.5060  177.1570  135.6300 C   0  0  2  0  0  3  0  0  0  0  0  0
  186.3380  176.2870  135.1620 C   0  0  0  0  0  2  0  0  0  0  0  0
  189.0420  177.9350  140.3170 C   0  0  0  0  0  2  0  0  0  0  0  0
  189.8590  176.0340  141.4330 O   0  0  0  0  0  0  0  0  0  0  0  0
  189.3200  177.1240  141.5400 C   0  0  0  0  0  0  0  0  0  0  0  0
  188.5530  177.2180  145.7080 C   0  0  1  0  0  3  0  0  0  0  0  0
  187.8240  176.7820  143.4940 C   0  0  0  0  0  2  0  0  0  0  0  0
  191.0580  178.6490  143.3620 O   0  0  0  0  0  1  0  0  0  0  0  0
  188.1170  177.6350  147.0970 C   0  0  0  0  0  1  0  0  0  0  0  0
  187.4180  177.3140  144.7940 N   0  0  0  0  0  2  0  0  0  0  0  0
  190.1270  177.7220  143.8360 C   0  0  2  0  0  3  0  0  0  0  0  0
  188.9240  177.6530  142.8880 C   0  0  1  0  0  3  0  0  0  0  0  0
  189.6800  178.1320  145.2350 C   0  0  0  0  0  2  0  0  0  0  0  0
  1  6  1  0  0  0  0
  2  5  1  1  0  0  0
  2 13  1  0  0  0  0
  3  2  1  0  0  0  0
  3  7  1  1  0  0  0
  4  7  1  0  0  0  0
  4 11  1  1  0  0  0
  5 16  2  0  0  0  0
  6 17  2  0  0  0  0
  8 12  1  0  0  0  0
  8 21  1  1  0  0  0
  9  1  1  0  0  0  0
 10 18  2  0  0  0  0
 13 18  1  6  0  0  0
 13  8  1  0  0  0  0
 14  1  2  0  0  0  0
 14  5  1  0  0  0  0
 15  4  1  0  0  0  0
 16 17  1  0  0  0  0
 16 12  1  0  0  0  0
 19 20  1  1  0  0  0
 19  3  1  0  0  0  0
 19 10  1  0  0  0  0
 20 15  1  0  0  0  0
 21 23  1  0  0  0  0
 22 23  2  0  0  0  0
 24 27  1  1  0  0  0
 25 28  1  0  0  0  0
 28 24  1  0  0  0  0
 29 26  1  6  0  0  0
 29 31  1  0  0  0  0
 30 23  1  6  0  0  0
 30 25  1  0  0  0  0
 30 29  1  0  0  0  0
 31 24  1  0  0  0  0
M  END
>  <MODEL>
3

>  <REMARK>
 VINA RESULT:      -7.2      4.851      7.705
  Name = 
  3 active torsions:
  status: ('A' for Active; 'I' for Inactive)
    1  A    between atoms: C_5  and  C_16
    2  A    between atoms: C_5  and  C_30
    3  A    between atoms: C_10  and  C_16
                            x       y       z     vdW  Elec       q    Type
                         _______ _______ _______ _____ _____    ______ ____

>  <TORSDO>
F 3

$$$$
=
 OpenBabel11122411023D

 31 35  0  0  1  0  0  0  0  0999 V2000
  190.5810  177.3020  141.6040 C   0  0  0  0  0  0  0  0  0  0  0  0
  190.0830  177.4940  137.8440 C   0  0  2  0  0  3  0  0  0  0  0  0
  190.4550  176.0720  137.3900 C   0  0  1  0  0  3  0  0  0  0  0  0
  189.6940  173.6990  137.0480 C   0  0  1  0  0  3  0  0  0  0  0  0
  189.7930  177.5580  139.3230 C   0  0  0  0  0  0  0  0  0  0  0  0
  189.2950  177.5600  142.0820 C   0  0  0  0  0  3  0  0  0  0  0  0
  189.3000  175.0750  137.5680 C   0  0  0  0  0  2  0  0  0  0  0  0
  187.5880  177.7080  137.4580 C   0  0  2  0  0  3  0  0  0  0  0  0
  191.6880  177.0260  142.5570 C   0  0  0  0  0  1  0  0  0  0  0  0
  190.0130  176.8900  135.0300 C   0  0  0  0  0  3  0  0  0  0  0  0
  188.5320  172.7440  137.2240 C   0  0  0  0  0  1  0  0  0  0  0  0
  187.3680  178.1910  138.8900 C   0  0  0  0  0  2  0  0  0  0  0  0
  188.9780  178.1330  136.9660 C   0  0  2  0  0  3  0  0  0  0  0  0
  190.8280  177.3010  140.2290 C   0  0  0  0  0  3  0  0  0  0  0  0
  190.0570  173.7880  135.5710 C   0  0  0  0  0  2  0  0  0  0  0  0
  188.4910  177.8110  139.8080 C   0  0  0  0  0  0  0  0  0  0  0  0
  188.2550  177.8200  141.1870 C   0  0  0  0  0  3  0  0  0  0  0  0
  189.1630  177.8180  135.4930 C   0  0  0  0  0  3  0  0  0  0  0  0
  190.9450  176.1250  135.9340 C   0  0  2  0  0  3  0  0  0  0  0  0
  191.2440  174.7310  135.3800 C   0  0  0  0  0  2  0  0  0  0  0  0
  186.4750  178.2570  136.5730 C   0  0  0  0  0  2  0  0  0  0  0  0
  185.5400  177.4000  134.5940 O   0  0  0  0  0  0  0  0  0  0  0  0
  185.8940  177.1640  135.7380 C   0  0  0  0  0  0  0  0  0  0  0  0
  184.1820  173.3870  136.6230 C   0  0  1  0  0  3  0  0  0  0  0  0
  184.4400  175.6930  137.1160 C   0  0  0  0  0  2  0  0  0  0  0  0
  187.0220  174.6910  134.6080 O   0  0  0  0  0  1  0  0  0  0  0  0
  183.9050  172.0190  137.2080 C   0  0  0  0  0  1  0  0  0  0  0  0
  184.3050  174.3620  137.7050 N   0  0  0  0  0  2  0  0  0  0  0  0
  185.7690  174.7150  135.2230 C   0  0  2  0  0  3  0  0  0  0  0  0
  185.7410  175.7870  136.3180 C   0  0  1  0  0  3  0  0  0  0  0  0
  185.4770  173.3400  135.8160 C   0  0  0  0  0  2  0  0  0  0  0  0
  1  6  1  0  0  0  0
  1  9  1  0  0  0  0
  2  5  1  1  0  0  0
  3  7  1  6  0  0  0
  3  2  1  0  0  0  0
  4 11  1  6  0  0  0
  4  7  1  0  0  0  0
  5 16  2  0  0  0  0
  5 14  1  0  0  0  0
  8 21  1  6  0  0  0
  8 12  1  0  0  0  0
 10 18  2  0  0  0  0
 12 16  1  0  0  0  0
 13 18  1  6  0  0  0
 13  8  1  0  0  0  0
 13  2  1  0  0  0  0
 14  1  2  0  0  0  0
 15  4  1  0  0  0  0
 16 17  1  0  0  0  0
 17  6  2  0  0  0  0
 19 10  1  6  0  0  0
 19  3  1  0  0  0  0
 20 15  1  0  0  0  0
 20 19  1  0  0  0  0
 22 23  2  0  0  0  0
 23 21  1  0  0  0  0
 24 27  1  1  0  0  0
 24 28  1  0  0  0  0
 25 28  1  0  0  0  0
 29 26  1  1  0  0  0
 29 31  1  0  0  0  0
 29 30  1  0  0  0  0
 30 23  1  6  0  0  0
 30 25  1  0  0  0  0
 31 24  1  0  0  0  0
M  END
>  <MODEL>
4

>  <REMARK>
 VINA RESULT:      -7.0      4.917      8.623
  Name = 
  3 active torsions:
  status: ('A' for Active; 'I' for Inactive)
    1  A    between atoms: C_5  and  C_16
    2  A    between atoms: C_5  and  C_30
    3  A    between atoms: C_10  and  C_16
                            x       y       z     vdW  Elec       q    Type
                         _______ _______ _______ _____ _____    ______ ____

>  <TORSDO>
F 3

$$$$
=
 OpenBabel11122411023D

 31 35  0  0  1  0  0  0  0  0999 V2000
  190.6390  176.7400  138.7150 C   0  0  0  0  0  0  0  0  0  0  0  0
  188.7330  176.7530  142.0000 C   0  0  2  0  0  3  0  0  0  0  0  0
  189.8530  176.9870  143.0290 C   0  0  1  0  0  3  0  0  0  0  0  0
  191.3000  178.6580  144.2310 C   0  0  1  0  0  3  0  0  0  0  0  0
  189.1620  177.1250  140.6030 C   0  0  0  0  0  0  0  0  0  0  0  0
  190.0760  177.8300  138.0470 C   0  0  0  0  0  3  0  0  0  0  0  0
  190.2350  178.4690  143.1580 C   0  0  0  0  0  2  0  0  0  0  0  0
  187.3350  178.8660  142.0140 C   0  0  2  0  0  3  0  0  0  0  0  0
  191.7250  175.9540  138.0730 C   0  0  0  0  0  1  0  0  0  0  0  0
  188.0390  176.8120  144.7940 C   0  0  0  0  0  3  0  0  0  0  0  0
  191.6440  180.1270  144.3440 C   0  0  0  0  0  1  0  0  0  0  0  0
  187.4380  178.9900  140.4960 C   0  0  0  0  0  2  0  0  0  0  0  0
  187.3870  177.3890  142.4270 C   0  0  2  0  0  3  0  0  0  0  0  0
  190.1830  176.3900  139.9880 C   0  0  0  0  0  3  0  0  0  0  0  0
  190.7800  178.1540  145.5710 C   0  0  0  0  0  2  0  0  0  0  0  0
  188.6000  178.2320  139.9290 C   0  0  0  0  0  0  0  0  0  0  0  0
  189.0550  178.5680  138.6500 C   0  0  0  0  0  3  0  0  0  0  0  0
  187.1170  177.2200  143.9100 C   0  0  0  0  0  3  0  0  0  0  0  0
  189.4240  176.3880  144.3780 C   0  0  2  0  0  3  0  0  0  0  0  0
  190.4490  176.6650  145.4790 C   0  0  0  0  0  2  0  0  0  0  0  0
  186.0550  179.5470  142.4820 C   0  0  0  0  0  2  0  0  0  0  0  0
  185.0170  179.3670  140.3800 O   0  0  0  0  0  0  0  0  0  0  0  0
  184.9190  179.1840  141.5830 C   0  0  0  0  0  0  0  0  0  0  0  0
  181.0510  179.0090  143.3100 C   0  0  1  0  0  3  0  0  0  0  0  0
  183.4020  179.2100  143.5510 C   0  0  0  0  0  2  0  0  0  0  0  0
  182.6260  178.1540  140.0520 O   0  0  0  0  0  1  0  0  0  0  0  0
  179.7740  178.5330  143.9690 C   0  0  0  0  0  1  0  0  0  0  0  0
  182.1950  178.6280  144.1350 N   0  0  0  0  0  2  0  0  0  0  0  0
  182.4580  178.8470  141.2530 C   0  0  2  0  0  3  0  0  0  0  0  0
  183.6630  178.6080  142.1700 C   0  0  1  0  0  3  0  0  0  0  0  0
  181.1730  178.3760  141.9260 C   0  0  0  0  0  2  0  0  0  0  0  0
  1 14  1  0  0  0  0
  2  5  1  6  0  0  0
  2 13  1  0  0  0  0
  2  3  1  0  0  0  0
  3  7  1  1  0  0  0
  3 19  1  0  0  0  0
  4 11  1  1  0  0  0
  4 15  1  0  0  0  0
  6 17  1  0  0  0  0
  6  1  2  0  0  0  0
  7  4  1  0  0  0  0
  8 13  1  0  0  0  0
  8 21  1  6  0  0  0
  9  1  1  0  0  0  0
 12  8  1  0  0  0  0
 13 18  1  1  0  0  0
 14  5  2  0  0  0  0
 16 12  1  0  0  0  0
 16  5  1  0  0  0  0
 17 16  2  0  0  0  0
 18 10  2  0  0  0  0
 19 10  1  1  0  0  0
 19 20  1  0  0  0  0
 20 15  1  0  0  0  0
 22 23  2  0  0  0  0
 23 21  1  0  0  0  0
 24 27  1  1  0  0  0
 24 28  1  0  0  0  0
 25 28  1  0  0  0  0
 29 26  1  6  0  0  0
 29 31  1  0  0  0  0
 29 30  1  0  0  0  0
 30 23  1  6  0  0  0
 30 25  1  0  0  0  0
 31 24  1  0  0  0  0
M  END
>  <MODEL>
5

>  <REMARK>
 VINA RESULT:      -6.8      3.858      7.720
  Name = 
  3 active torsions:
  status: ('A' for Active; 'I' for Inactive)
    1  A    between atoms: C_5  and  C_16
    2  A    between atoms: C_5  and  C_30
    3  A    between atoms: C_10  and  C_16
                            x       y       z     vdW  Elec       q    Type
                         _______ _______ _______ _____ _____    ______ ____

>  <TORSDO>
F 3

$$$$
=
 OpenBabel11122411023D

 31 35  0  0  1  0  0  0  0  0999 V2000
  184.1880  174.2770  137.3840 C   0  0  0  0  0  0  0  0  0  0  0  0
  187.3370  175.9010  136.0160 C   0  0  2  0  0  3  0  0  0  0  0  0
  187.5580  177.0670  136.9950 C   0  0  1  0  0  3  0  0  0  0  0  0
  188.5100  177.8230  139.1980 C   0  0  1  0  0  3  0  0  0  0  0  0
  186.4030  174.8590  136.5790 C   0  0  0  0  0  0  0  0  0  0  0  0
  184.6410  172.9990  137.7200 C   0  0  0  0  0  3  0  0  0  0  0  0
  188.2570  176.6260  138.2900 C   0  0  0  0  0  2  0  0  0  0  0  0
  189.2310  174.2750  136.4470 C   0  0  2  0  0  3  0  0  0  0  0  0
  182.7730  174.6540  137.6340 C   0  0  0  0  0  1  0  0  0  0  0  0
  189.5600  177.6730  135.5600 C   0  0  0  0  0  3  0  0  0  0  0  0
  189.2120  177.3590  140.4560 C   0  0  0  0  0  1  0  0  0  0  0  0
  188.2520  173.1140  136.6020 C   0  0  0  0  0  2  0  0  0  0  0  0
  188.6650  175.3160  135.4730 C   0  0  2  0  0  3  0  0  0  0  0  0
  185.0670  175.2030  136.8170 C   0  0  0  0  0  3  0  0  0  0  0  0
  189.3820  178.8440  138.4780 C   0  0  0  0  0  2  0  0  0  0  0  0
  186.8610  173.5690  136.9260 C   0  0  0  0  0  0  0  0  0  0  0  0
  185.9710  172.6450  137.4840 C   0  0  0  0  0  3  0  0  0  0  0  0
  189.6840  176.3970  135.1660 C   0  0  0  0  0  3  0  0  0  0  0  0
  188.3350  178.1810  136.2760 C   0  0  2  0  0  3  0  0  0  0  0  0
  188.6760  179.3390  137.2160 C   0  0  0  0  0  2  0  0  0  0  0  0
  190.5770  173.7300  135.9840 C   0  0  0  0  0  2  0  0  0  0  0  0
  191.4000  174.5090  138.0440 O   0  0  0  0  0  0  0  0  0  0  0  0
  191.6650  174.2000  136.8920 C   0  0  0  0  0  0  0  0  0  0  0  0
  195.8750  174.7020  136.8910 C   0  0  1  0  0  3  0  0  0  0  0  0
  193.6940  175.6310  136.7990 C   0  0  0  0  0  2  0  0  0  0  0  0
  193.4570  171.9300  136.3470 O   0  0  0  0  0  1  0  0  0  0  0  0
  197.3160  174.8810  136.4660 C   0  0  0  0  0  1  0  0  0  0  0  0
  195.0540  175.7410  136.2740 N   0  0  0  0  0  2  0  0  0  0  0  0
  193.9320  173.1330  136.8740 C   0  0  2  0  0  3  0  0  0  0  0  0
  193.0710  174.3000  136.3780 C   0  0  1  0  0  3  0  0  0  0  0  0
  195.3850  173.3240  136.4530 C   0  0  0  0  0  2  0  0  0  0  0  0
  1  9  1  0  0  0  0
  1  6  1  0  0  0  0
  2  5  1  1  0  0  0
  2  3  1  0  0  0  0
  3  7  1  1  0  0  0
  4 11  1  1  0  0  0
  5 14  1  0  0  0  0
  5 16  2  0  0  0  0
  7  4  1  0  0  0  0
  8 21  1  6  0  0  0
  8 12  1  0  0  0  0
 12 16  1  0  0  0  0
 13 18  1  1  0  0  0
 13  2  1  0  0  0  0
 13  8  1  0  0  0  0
 14  1  2  0  0  0  0
 15  4  1  0  0  0  0
 16 17  1  0  0  0  0
 17  6  2  0  0  0  0
 18 10  2  0  0  0  0
 19 10  1  1  0  0  0
 19  3  1  0  0  0  0
 19 20  1  0  0  0  0
 20 15  1  0  0  0  0
 21 23  1  0  0  0  0
 23 22  2  0  0  0  0
 24 27  1  6  0  0  0
 28 25  1  0  0  0  0
 28 24  1  0  0  0  0
 29 26  1  6  0  0  0
 30 25  1  0  0  0  0
 30 29  1  0  0  0  0
 30 23  1  1  0  0  0
 31 29  1  0  0  0  0
 31 24  1  0  0  0  0
M  END
>  <MODEL>
6

>  <REMARK>
 VINA RESULT:      -6.5      5.963      9.313
  Name = 
  3 active torsions:
  status: ('A' for Active; 'I' for Inactive)
    1  A    between atoms: C_5  and  C_16
    2  A    between atoms: C_5  and  C_30
    3  A    between atoms: C_10  and  C_16
                            x       y       z     vdW  Elec       q    Type
                         _______ _______ _______ _____ _____    ______ ____

>  <TORSDO>
F 3

$$$$
=
 OpenBabel11122411023D

 31 35  0  0  1  0  0  0  0  0999 V2000
  179.9960  181.1050  136.4390 C   0  0  0  0  0  0  0  0  0  0  0  0
  181.1120  177.9480  138.2310 C   0  0  2  0  0  3  0  0  0  0  0  0
  181.6750  177.0970  137.0790 C   0  0  1  0  0  3  0  0  0  0  0  0
  183.6480  176.5760  135.6070 C   0  0  1  0  0  3  0  0  0  0  0  0
  180.9940  179.4040  137.8540 C   0  0  0  0  0  0  0  0  0  0  0  0
  180.8010  182.0790  137.0350 C   0  0  0  0  0  3  0  0  0  0  0  0
  183.1140  177.4850  136.7070 C   0  0  0  0  0  2  0  0  0  0  0  0
  183.1120  178.5930  139.6470 C   0  0  2  0  0  3  0  0  0  0  0  0
  179.0380  181.4850  135.3690 C   0  0  0  0  0  1  0  0  0  0  0  0
  182.1050  175.3120  138.8300 C   0  0  0  0  0  3  0  0  0  0  0  0
  185.0690  176.9740  135.2730 C   0  0  0  0  0  1  0  0  0  0  0  0
  182.7210  180.0680  139.5980 C   0  0  0  0  0  2  0  0  0  0  0  0
  181.8580  177.7110  139.5680 C   0  0  2  0  0  3  0  0  0  0  0  0
  180.0930  179.7730  136.8470 C   0  0  0  0  0  3  0  0  0  0  0  0
  183.6230  175.1260  136.0770 C   0  0  0  0  0  2  0  0  0  0  0  0
  181.8130  180.3880  138.4490 C   0  0  0  0  0  0  0  0  0  0  0  0
  181.7010  181.7210  138.0410 C   0  0  0  0  0  3  0  0  0  0  0  0
  182.1970  176.2490  139.7850 C   0  0  0  0  0  3  0  0  0  0  0  0
  181.5630  175.6110  137.4560 C   0  0  2  0  0  3  0  0  0  0  0  0
  182.1900  174.7040  136.3960 C   0  0  0  0  0  2  0  0  0  0  0  0
  183.9140  178.3350  140.9170 C   0  0  0  0  0  2  0  0  0  0  0  0
  185.7630  178.8300  139.5510 O   0  0  0  0  0  0  0  0  0  0  0  0
  185.3560  178.6480  140.6890 C   0  0  0  0  0  0  0  0  0  0  0  0
  187.8530  177.3900  143.8760 C   0  0  1  0  0  3  0  0  0  0  0  0
  185.7070  177.9770  143.0560 C   0  0  0  0  0  2  0  0  0  0  0  0
  188.2800  178.9470  140.5260 O   0  0  0  0  0  1  0  0  0  0  0  0
  188.7480  177.3610  145.0960 C   0  0  0  0  0  1  0  0  0  0  0  0
  186.6060  178.0770  144.2030 N   0  0  0  0  0  2  0  0  0  0  0  0
  187.6740  178.1580  141.5060 C   0  0  2  0  0  3  0  0  0  0  0  0
  186.2940  178.7250  141.8580 C   0  0  1  0  0  3  0  0  0  0  0  0
  188.5670  178.1200  142.7420 C   0  0  0  0  0  2  0  0  0  0  0  0
  1 14  2  0  0  0  0
  1  6  1  0  0  0  0
  2  5  1  6  0  0  0
  2 13  1  0  0  0  0
  3  7  1  1  0  0  0
  3 19  1  0  0  0  0
  3  2  1  0  0  0  0
  4 11  1  1  0  0  0
  4 15  1  0  0  0  0
  4  7  1  0  0  0  0
  5 16  2  0  0  0  0
  6 17  2  0  0  0  0
  8 21  1  1  0  0  0
  9  1  1  0  0  0  0
 10 18  2  0  0  0  0
 12  8  1  0  0  0  0
 13  8  1  0  0  0  0
 13 18  1  6  0  0  0
 14  5  1  0  0  0  0
 15 20  1  0  0  0  0
 16 12  1  0  0  0  0
 17 16  1  0  0  0  0
 19 20  1  6  0  0  0
 19 10  1  0  0  0  0
 22 23  2  0  0  0  0
 23 21  1  0  0  0  0
 24 28  1  0  0  0  0
 24 27  1  1  0  0  0
 25 28  1  0  0  0  0
 29 26  1  6  0  0  0
 29 30  1  0  0  0  0
 29 31  1  0  0  0  0
 30 23  1  6  0  0  0
 30 25  1  0  0  0  0
 31 24  1  0  0  0  0
M  END
>  <MODEL>
7

>  <REMARK>
 VINA RESULT:      -6.3      1.670      2.090
  Name = 
  3 active torsions:
  status: ('A' for Active; 'I' for Inactive)
    1  A    between atoms: C_5  and  C_16
    2  A    between atoms: C_5  and  C_30
    3  A    between atoms: C_10  and  C_16
                            x       y       z     vdW  Elec       q    Type
                         _______ _______ _______ _____ _____    ______ ____

>  <TORSDO>
F 3

$$$$
=
 OpenBabel11122411023D

 31 35  0  0  1  0  0  0  0  0999 V2000
  190.9460  177.4350  140.8420 C   0  0  0  0  0  0  0  0  0  0  0  0
  189.0820  177.8440  137.5590 C   0  0  2  0  0  3  0  0  0  0  0  0
  189.3290  176.4910  136.8690 C   0  0  1  0  0  3  0  0  0  0  0  0
  188.6150  174.0930  136.6070 C   0  0  1  0  0  3  0  0  0  0  0  0
  189.3560  177.7820  139.0410 C   0  0  0  0  0  0  0  0  0  0  0  0
  189.9170  177.5540  141.7790 C   0  0  0  0  0  3  0  0  0  0  0  0
  188.3730  175.3940  137.3620 C   0  0  0  0  0  2  0  0  0  0  0  0
  186.6140  177.8800  138.1320 C   0  0  2  0  0  3  0  0  0  0  0  0
  192.3390  177.1840  141.2950 C   0  0  0  0  0  1  0  0  0  0  0  0
  188.0030  177.4300  134.9210 C   0  0  0  0  0  3  0  0  0  0  0  0
  187.6500  173.0370  137.1050 C   0  0  0  0  0  1  0  0  0  0  0  0
  186.9160  178.2440  139.5830 C   0  0  0  0  0  2  0  0  0  0  0  0
  187.6990  178.4490  137.2080 C   0  0  2  0  0  3  0  0  0  0  0  0
  190.6660  177.5480  139.4780 C   0  0  0  0  0  3  0  0  0  0  0  0
  188.4010  174.3120  135.1150 C   0  0  0  0  0  2  0  0  0  0  0  0
  188.3160  177.8940  139.9890 C   0  0  0  0  0  0  0  0  0  0  0  0
  188.6080  177.7900  141.3530 C   0  0  0  0  0  3  0  0  0  0  0  0
  187.3400  178.2520  135.7480 C   0  0  0  0  0  3  0  0  0  0  0  0
  189.2410  176.6830  135.3470 C   0  0  2  0  0  3  0  0  0  0  0  0
  189.3840  175.3600  134.5940 C   0  0  0  0  0  2  0  0  0  0  0  0
  185.2260  178.3960  137.7700 C   0  0  0  0  0  2  0  0  0  0  0  0
  184.4350  176.1960  137.5210 O   0  0  0  0  0  0  0  0  0  0  0  0
  184.2110  177.3170  137.9520 C   0  0  0  0  0  0  0  0  0  0  0  0
  181.3570  179.3770  140.3160 C   0  0  1  0  0  3  0  0  0  0  0  0
  183.1710  177.8580  140.1430 C   0  0  0  0  0  2  0  0  0  0  0  0
  181.8420  178.5560  136.7220 O   0  0  0  0  0  1  0  0  0  0  0  0
  180.1210  179.7460  141.1080 C   0  0  0  0  0  1  0  0  0  0  0  0
  181.9100  178.1270  140.8310 N   0  0  0  0  0  2  0  0  0  0  0  0
  182.2220  178.8380  138.0350 C   0  0  2  0  0  3  0  0  0  0  0  0
  182.9190  177.6220  138.6530 C   0  0  1  0  0  3  0  0  0  0  0  0
  180.9840  179.2130  138.8440 C   0  0  0  0  0  2  0  0  0  0  0  0
  1  9  1  0  0  0  0
  1  6  1  0  0  0  0
  2  5  1  1  0  0  0
  3  7  1  1  0  0  0
  3  2  1  0  0  0  0
  4 11  1  1  0  0  0
  4  7  1  0  0  0  0
  5 14  1  0  0  0  0
  5 16  2  0  0  0  0
  8 21  1  6  0  0  0
  8 12  1  0  0  0  0
 10 19  1  0  0  0  0
 10 18  2  0  0  0  0
 12 16  1  0  0  0  0
 13 18  1  6  0  0  0
 13  2  1  0  0  0  0
 13  8  1  0  0  0  0
 14  1  2  0  0  0  0
 15  4  1  0  0  0  0
 16 17  1  0  0  0  0
 17  6  2  0  0  0  0
 19 20  1  6  0  0  0
 19  3  1  0  0  0  0
 20 15  1  0  0  0  0
 21 23  1  0  0  0  0
 22 23  2  0  0  0  0
 24 28  1  0  0  0  0
 24 27  1  1  0  0  0
 25 28  1  0  0  0  0
 29 26  1  6  0  0  0
 29 30  1  0  0  0  0
 29 31  1  0  0  0  0
 30 23  1  6  0  0  0
 30 25  1  0  0  0  0
 31 24  1  0  0  0  0
M  END
>  <MODEL>
8

>  <REMARK>
 VINA RESULT:      -6.3      3.389      7.361
  Name = 
  3 active torsions:
  status: ('A' for Active; 'I' for Inactive)
    1  A    between atoms: C_5  and  C_16
    2  A    between atoms: C_5  and  C_30
    3  A    between atoms: C_10  and  C_16
                            x       y       z     vdW  Elec       q    Type
                         _______ _______ _______ _____ _____    ______ ____

>  <TORSDO>
F 3

$$$$
=
 OpenBabel11122411023D

 31 35  0  0  1  0  0  0  0  0999 V2000
  192.4010  176.0320  136.9100 C   0  0  0  0  0  0  0  0  0  0  0  0
  188.8500  177.3260  136.5450 C   0  0  2  0  0  3  0  0  0  0  0  0
  188.1130  176.1070  135.9630 C   0  0  1  0  0  3  0  0  0  0  0  0
  186.9330  173.9340  136.4260 C   0  0  1  0  0  3  0  0  0  0  0  0
  190.1670  176.9450  137.1720 C   0  0  0  0  0  0  0  0  0  0  0  0
  192.6040  176.1220  138.2890 C   0  0  0  0  0  3  0  0  0  0  0  0
  187.7120  175.0900  137.0410 C   0  0  0  0  0  2  0  0  0  0  0  0
  187.9440  177.6180  138.8930 C   0  0  2  0  0  3  0  0  0  0  0  0
  193.4760  175.4970  136.0340 C   0  0  0  0  0  1  0  0  0  0  0  0
  186.0510  177.5840  135.9160 C   0  0  0  0  0  3  0  0  0  0  0  0
  186.5400  172.9580  137.5150 C   0  0  0  0  0  1  0  0  0  0  0  0
  189.3550  177.6520  139.4750 C   0  0  0  0  0  2  0  0  0  0  0  0
  187.9480  178.1840  137.4670 C   0  0  2  0  0  3  0  0  0  0  0  0
  191.1870  176.4410  136.3550 C   0  0  0  0  0  3  0  0  0  0  0  0
  185.6780  174.4620  135.7410 C   0  0  0  0  0  2  0  0  0  0  0  0
  190.3710  177.0280  138.5670 C   0  0  0  0  0  0  0  0  0  0  0  0
  191.5940  176.6250  139.1130 C   0  0  0  0  0  3  0  0  0  0  0  0
  186.5380  178.3230  136.9240 C   0  0  0  0  0  3  0  0  0  0  0  0
  186.8990  176.5950  135.1570 C   0  0  2  0  0  3  0  0  0  0  0  0
  186.0600  175.4320  134.6240 C   0  0  0  0  0  2  0  0  0  0  0  0
  187.0090  178.3920  139.8140 C   0  0  0  0  0  2  0  0  0  0  0  0
  188.7020  178.5350  141.4390 O   0  0  0  0  0  0  0  0  0  0  0  0
  187.5160  178.3490  141.2180 C   0  0  0  0  0  0  0  0  0  0  0  0
  185.6510  178.6220  145.0160 C   0  0  1  0  0  3  0  0  0  0  0  0
  187.3380  177.7180  143.6150 C   0  0  0  0  0  2  0  0  0  0  0  0
  184.8060  179.4640  141.4940 O   0  0  0  0  0  1  0  0  0  0  0  0
  184.7820  178.3700  146.2290 C   0  0  0  0  0  1  0  0  0  0  0  0
  186.4110  177.4150  144.7040 N   0  0  0  0  0  2  0  0  0  0  0  0
  185.6320  179.2560  142.6000 C   0  0  2  0  0  3  0  0  0  0  0  0
  186.5640  178.0660  142.3430 C   0  0  1  0  0  3  0  0  0  0  0  0
  184.7670  179.0010  143.8300 C   0  0  0  0  0  2  0  0  0  0  0  0
  1  6  1  0  0  0  0
  2  5  1  1  0  0  0
  2 13  1  0  0  0  0
  3  2  1  0  0  0  0
  3  7  1  1  0  0  0
  4  7  1  0  0  0  0
  4 11  1  1  0  0  0
  5 16  2  0  0  0  0
  6 17  2  0  0  0  0
  8 12  1  0  0  0  0
  8 21  1  1  0  0  0
  9  1  1  0  0  0  0
 10 18  2  0  0  0  0
 13 18  1  6  0  0  0
 13  8  1  0  0  0  0
 14  1  2  0  0  0  0
 14  5  1  0  0  0  0
 15  4  1  0  0  0  0
 16 17  1  0  0  0  0
 16 12  1  0  0  0  0
 19 20  1  1  0  0  0
 19 10  1  0  0  0  0
 19  3  1  0  0  0  0
 20 15  1  0  0  0  0
 21 23  1  0  0  0  0
 23 22  2  0  0  0  0
 24 27  1  1  0  0  0
 25 28  1  0  0  0  0
 28 24  1  0  0  0  0
 29 26  1  6  0  0  0
 29 31  1  0  0  0  0
 30 23  1  6  0  0  0
 30 29  1  0  0  0  0
 30 25  1  0  0  0  0
 31 24  1  0  0  0  0
M  END
>  <MODEL>
9

>  <REMARK>
 VINA RESULT:      -6.3      3.861      6.718
  Name = 
  3 active torsions:
  status: ('A' for Active; 'I' for Inactive)
    1  A    between atoms: C_5  and  C_16
    2  A    between atoms: C_5  and  C_30
    3  A    between atoms: C_10  and  C_16
                            x       y       z     vdW  Elec       q    Type
                         _______ _______ _______ _____ _____    ______ ____

>  <TORSDO>
F 3

$$$$
