=
 OpenBabel11122411113D

 31 35  0  0  0  0  0  0  0  0999 V2000
  187.5990  178.2580  148.0800 C   0  0  0  0  0  0  0  0  0  0  0  0
  187.9930  177.5130  144.4190 C   0  0  0  0  0  0  0  0  0  0  0  0
  189.3150  177.0310  144.2420 C   0  0  0  0  0  0  0  0  0  0  0  0
  183.0930  178.9870  143.2020 O   0  0  0  0  0  0  0  0  0  0  0  0
  183.6740  178.6130  142.1480 C   0  0  0  0  0  0  0  0  0  0  0  0
  191.4570  176.4440  145.1130 C   0  0  0  0  0  0  0  0  0  0  0  0
  187.4450  177.9090  145.6710 C   0  0  0  0  0  0  0  0  0  0  0  0
  186.2800  178.7140  148.1100 C   0  0  0  0  0  3  0  0  0  0  0  0
  190.1890  176.9060  145.2820 N   0  0  0  0  0  0  0  0  0  0  0  0
  185.8540  178.0710  143.3740 C   0  0  0  0  0  0  0  0  0  0  0  0
  188.3210  178.2020  149.2240 F   0  0  0  0  0  0  0  0  0  0  0  0
  188.9010  176.7820  141.8970 N   0  0  0  0  0  0  0  0  0  0  0  0
  192.2850  176.3390  146.1800 F   0  0  0  0  0  0  0  0  0  0  0  0
  185.3650  178.4400  144.5850 N   0  0  0  0  0  0  0  0  0  0  0  0
  187.1710  177.6030  143.2670 C   0  0  0  0  0  0  0  0  0  0  0  0
  185.0340  178.1550  142.1990 N   0  0  0  0  0  2  0  0  0  0  0  0
  188.1740  177.8600  146.8720 C   0  0  0  0  0  3  0  0  0  0  0  0
  191.9070  176.0780  143.8440 C   0  0  0  0  0  3  0  0  0  0  0  0
  186.1080  178.3750  145.7170 C   0  0  0  0  0  0  0  0  0  0  0  0
  185.5370  178.7720  146.9300 C   0  0  0  0  0  3  0  0  0  0  0  0
  187.6570  177.2340  142.0520 N   0  0  0  0  0  0  0  0  0  0  0  0
  189.7450  176.6690  142.9480 C   0  0  0  0  0  0  0  0  0  0  0  0
  191.0420  176.1930  142.7570 C   0  0  0  0  0  3  0  0  0  0  0  0
  181.5350  178.6390  138.4240 C   0  0  0  0  0  0  0  0  0  0  0  0
  181.6970  178.0380  140.7590 C   0  0  0  0  0  3  0  0  0  0  0  0
  184.7580  179.8580  139.7200 O   0  0  0  0  0  1  0  0  0  0  0  0
  180.8480  178.6390  137.2570 F   0  0  0  0  0  0  0  0  0  0  0  0
  180.9880  178.0370  139.5570 C   0  0  0  0  0  3  0  0  0  0  0  0
  183.5100  179.2470  139.6950 C   0  0  0  0  0  0  0  0  0  0  0  0
  182.9630  178.6390  140.8480 C   0  0  0  0  0  0  0  0  0  0  0  0
  182.7930  179.2410  138.4940 C   0  0  0  0  0  3  0  0  0  0  0  0
  1  8  1  0  0  0  0
  1 11  1  0  0  0  0
  2  7  1  0  0  0  0
  3  2  1  0  0  0  0
  3  9  1  0  0  0  0
  5 16  1  0  0  0  0
  5  4  2  0  0  0  0
  6  9  2  0  0  0  0
  6 13  1  0  0  0  0
  7 19  2  0  0  0  0
  7 17  1  0  0  0  0
 10 14  2  0  0  0  0
 12 21  2  0  0  0  0
 12 22  1  0  0  0  0
 14 19  1  0  0  0  0
 15 10  1  0  0  0  0
 15  2  2  0  0  0  0
 16 10  1  0  0  0  0
 17  1  2  0  0  0  0
 18  6  1  0  0  0  0
 19 20  1  0  0  0  0
 20  8  2  0  0  0  0
 21 15  1  0  0  0  0
 22  3  2  0  0  0  0
 23 22  1  0  0  0  0
 23 18  2  0  0  0  0
 24 31  2  0  0  0  0
 24 28  1  0  0  0  0
 25 30  1  0  0  0  0
 27 24  1  0  0  0  0
 28 25  2  0  0  0  0
 29 26  1  0  0  0  0
 29 30  2  0  0  0  0
 30  5  1  0  0  0  0
 31 29  1  0  0  0  0
M  END
>  <MODEL>
1

>  <REMARK>
 VINA RESULT:     -11.2      0.000      0.000
  Name = 
  1 active torsions:
  status: ('A' for Active; 'I' for Inactive)
    1  A    between atoms: C_5  and  C_30
                            x       y       z     vdW  Elec       q    Type
                         _______ _______ _______ _____ _____    ______ ____

>  <TORSDO>
F 1

$$$$
=
 OpenBabel11122411113D

 31 35  0  0  0  0  0  0  0  0999 V2000
  185.6640  178.4360  144.3620 C   0  0  0  0  0  0  0  0  0  0  0  0
  189.2000  177.1990  144.0730 C   0  0  0  0  0  0  0  0  0  0  0  0
  189.7190  177.1400  145.3920 C   0  0  0  0  0  0  0  0  0  0  0  0
  189.0300  176.7830  138.8330 O   0  0  0  0  0  0  0  0  0  0  0  0
  190.1730  176.4280  139.2280 C   0  0  0  0  0  0  0  0  0  0  0  0
  189.4750  177.4360  147.7470 C   0  0  0  0  0  0  0  0  0  0  0  0
  187.8800  177.6210  143.7500 C   0  0  0  0  0  0  0  0  0  0  0  0
  185.2830  178.4450  143.0200 C   0  0  0  0  0  3  0  0  0  0  0  0
  188.9780  177.4930  146.4820 N   0  0  0  0  0  0  0  0  0  0  0  0
  189.6070  176.8440  141.6890 C   0  0  0  0  0  0  0  0  0  0  0  0
  184.7850  178.8230  145.3170 F   0  0  0  0  0  0  0  0  0  0  0  0
  191.8050  176.3470  144.5250 N   0  0  0  0  0  0  0  0  0  0  0  0
  188.6970  177.7980  148.7950 F   0  0  0  0  0  0  0  0  0  0  0  0
  188.3420  177.2520  141.4170 N   0  0  0  0  0  0  0  0  0  0  0  0
  190.0590  176.8090  143.0150 C   0  0  0  0  0  0  0  0  0  0  0  0
  190.4890  176.4450  140.6280 N   0  0  0  0  0  2  0  0  0  0  0  0
  186.9490  178.0280  144.7220 C   0  0  0  0  0  3  0  0  0  0  0  0
  190.7850  177.0080  147.9670 C   0  0  0  0  0  3  0  0  0  0  0  0
  187.4790  177.6360  142.3910 C   0  0  0  0  0  0  0  0  0  0  0  0
  186.1900  178.0460  142.0360 C   0  0  0  0  0  3  0  0  0  0  0  0
  191.3280  176.3980  143.2830 N   0  0  0  0  0  0  0  0  0  0  0  0
  191.0460  176.7030  145.5870 C   0  0  0  0  0  0  0  0  0  0  0  0
  191.5720  176.6390  146.8770 C   0  0  0  0  0  3  0  0  0  0  0  0
  193.2080  175.2340  136.4330 C   0  0  0  0  0  0  0  0  0  0  0  0
  192.3600  176.7650  138.1010 C   0  0  0  0  0  3  0  0  0  0  0  0
  189.9330  174.0060  137.5860 O   0  0  0  0  0  1  0  0  0  0  0  0
  194.1740  174.8710  135.5570 F   0  0  0  0  0  0  0  0  0  0  0  0
  193.3560  176.3910  137.1970 C   0  0  0  0  0  3  0  0  0  0  0  0
  191.0580  174.8160  137.4780 C   0  0  0  0  0  0  0  0  0  0  0  0
  191.2010  175.9880  138.2550 C   0  0  0  0  0  0  0  0  0  0  0  0
  192.0610  174.4490  136.5740 C   0  0  0  0  0  3  0  0  0  0  0  0
  1 17  1  0  0  0  0
  1 11  1  0  0  0  0
  2  3  1  0  0  0  0
  3 22  2  0  0  0  0
  3  9  1  0  0  0  0
  4  5  2  0  0  0  0
  5 16  1  0  0  0  0
  6 18  1  0  0  0  0
  6 13  1  0  0  0  0
  7  2  1  0  0  0  0
  7 17  2  0  0  0  0
  8  1  2  0  0  0  0
  9  6  2  0  0  0  0
 10 15  1  0  0  0  0
 12 22  1  0  0  0  0
 14 10  2  0  0  0  0
 14 19  1  0  0  0  0
 15 21  1  0  0  0  0
 15  2  2  0  0  0  0
 16 10  1  0  0  0  0
 19  7  1  0  0  0  0
 20 19  2  0  0  0  0
 20  8  1  0  0  0  0
 21 12  2  0  0  0  0
 22 23  1  0  0  0  0
 23 18  2  0  0  0  0
 24 31  2  0  0  0  0
 24 28  1  0  0  0  0
 25 30  1  0  0  0  0
 27 24  1  0  0  0  0
 28 25  2  0  0  0  0
 29 26  1  0  0  0  0
 29 30  2  0  0  0  0
 30  5  1  0  0  0  0
 31 29  1  0  0  0  0
M  END
>  <MODEL>
2

>  <REMARK>
 VINA RESULT:     -11.1      3.994      6.737
  Name = 
  1 active torsions:
  status: ('A' for Active; 'I' for Inactive)
    1  A    between atoms: C_5  and  C_30
                            x       y       z     vdW  Elec       q    Type
                         _______ _______ _______ _____ _____    ______ ____

>  <TORSDO>
F 1

$$$$
=
 OpenBabel11122411113D

 31 35  0  0  0  0  0  0  0  0999 V2000
  184.8680  178.6170  145.6000 C   0  0  0  0  0  0  0  0  0  0  0  0
  188.2590  177.6720  144.2860 C   0  0  0  0  0  0  0  0  0  0  0  0
  189.0870  177.4550  145.4170 C   0  0  0  0  0  0  0  0  0  0  0  0
  186.8190  178.0150  139.2390 O   0  0  0  0  0  0  0  0  0  0  0  0
  188.0340  177.6820  139.2900 C   0  0  0  0  0  0  0  0  0  0  0  0
  189.4200  177.3880  147.7790 C   0  0  0  0  0  0  0  0  0  0  0  0
  186.8880  178.0480  144.3570 C   0  0  0  0  0  0  0  0  0  0  0  0
  184.1690  178.7960  144.4050 C   0  0  0  0  0  3  0  0  0  0  0  0
  188.6270  177.5960  146.6930 N   0  0  0  0  0  0  0  0  0  0  0  0
  188.0780  177.6960  141.8480 C   0  0  0  0  0  0  0  0  0  0  0  0
  184.2390  178.8020  146.7850 F   0  0  0  0  0  0  0  0  0  0  0  0
  190.9190  176.9370  143.9640 N   0  0  0  0  0  0  0  0  0  0  0  0
  188.9140  177.5410  149.0250 F   0  0  0  0  0  0  0  0  0  0  0  0
  186.7740  178.0560  141.9540 N   0  0  0  0  0  0  0  0  0  0  0  0
  188.8420  177.4980  143.0060 C   0  0  0  0  0  0  0  0  0  0  0  0
  188.6840  177.5160  140.5590 N   0  0  0  0  0  2  0  0  0  0  0  0
  186.2140  178.2460  145.5740 C   0  0  0  0  0  3  0  0  0  0  0  0
  190.7560  177.0200  147.6100 C   0  0  0  0  0  3  0  0  0  0  0  0
  186.1660  178.2350  143.1520 C   0  0  0  0  0  0  0  0  0  0  0  0
  184.8180  178.6060  143.1840 C   0  0  0  0  0  3  0  0  0  0  0  0
  190.1490  177.1380  142.8960 N   0  0  0  0  0  0  0  0  0  0  0  0
  190.4330  177.0840  145.2190 C   0  0  0  0  0  0  0  0  0  0  0  0
  191.2610  176.8670  146.3200 C   0  0  0  0  0  3  0  0  0  0  0  0
  190.3090  176.9510  135.7210 C   0  0  0  0  0  0  0  0  0  0  0  0
  189.7010  176.3790  137.9890 C   0  0  0  0  0  3  0  0  0  0  0  0
  187.7970  179.3710  136.8990 O   0  0  0  0  0  1  0  0  0  0  0  0
  191.0340  176.7070  134.6030 F   0  0  0  0  0  0  0  0  0  0  0  0
  190.4480  176.1270  136.8370 C   0  0  0  0  0  3  0  0  0  0  0  0
  188.6690  178.2880  136.9070 C   0  0  0  0  0  0  0  0  0  0  0  0
  188.8040  177.4580  138.0430 C   0  0  0  0  0  0  0  0  0  0  0  0
  189.4220  178.0280  135.7570 C   0  0  0  0  0  3  0  0  0  0  0  0
  1 11  1  0  0  0  0
  2  7  1  0  0  0  0
  2  3  1  0  0  0  0
  3  9  1  0  0  0  0
  4  5  2  0  0  0  0
  5 16  1  0  0  0  0
  6 13  1  0  0  0  0
  7 17  2  0  0  0  0
  8  1  2  0  0  0  0
  9  6  2  0  0  0  0
 10 14  2  0  0  0  0
 10 15  1  0  0  0  0
 12 22  1  0  0  0  0
 14 19  1  0  0  0  0
 15  2  2  0  0  0  0
 16 10  1  0  0  0  0
 17  1  1  0  0  0  0
 18  6  1  0  0  0  0
 19 20  2  0  0  0  0
 19  7  1  0  0  0  0
 20  8  1  0  0  0  0
 21 15  1  0  0  0  0
 21 12  2  0  0  0  0
 22  3  2  0  0  0  0
 22 23  1  0  0  0  0
 23 18  2  0  0  0  0
 24 31  2  0  0  0  0
 24 28  1  0  0  0  0
 25 30  1  0  0  0  0
 26 29  1  0  0  0  0
 27 24  1  0  0  0  0
 28 25  2  0  0  0  0
 29 30  2  0  0  0  0
 30  5  1  0  0  0  0
 31 29  1  0  0  0  0
M  END
>  <MODEL>
3

>  <REMARK>
 VINA RESULT:     -11.0      3.790      5.062
  Name = 
  1 active torsions:
  status: ('A' for Active; 'I' for Inactive)
    1  A    between atoms: C_5  and  C_30
                            x       y       z     vdW  Elec       q    Type
                         _______ _______ _______ _____ _____    ______ ____

>  <TORSDO>
F 1

$$$$
=
 OpenBabel11122411113D

 31 35  0  0  0  0  0  0  0  0999 V2000
  186.9600  178.1410  147.3530 C   0  0  0  0  0  0  0  0  0  0  0  0
  187.6830  177.8210  143.6800 C   0  0  0  0  0  0  0  0  0  0  0  0
  189.0670  177.5340  143.5610 C   0  0  0  0  0  0  0  0  0  0  0  0
  182.7150  178.7620  142.2330 O   0  0  0  0  0  0  0  0  0  0  0  0
  183.4070  178.5730  141.1960 C   0  0  0  0  0  0  0  0  0  0  0  0
  191.2090  177.1450  144.5360 C   0  0  0  0  0  0  0  0  0  0  0  0
  187.0080  178.0160  144.9180 C   0  0  0  0  0  0  0  0  0  0  0  0
  185.5930  178.4170  147.3240 C   0  0  0  0  0  3  0  0  0  0  0  0
  189.8820  177.4210  144.6490 N   0  0  0  0  0  0  0  0  0  0  0  0
  185.5580  178.1990  142.5300 C   0  0  0  0  0  0  0  0  0  0  0  0
  187.6100  178.0650  148.5390 F   0  0  0  0  0  0  0  0  0  0  0  0
  188.8390  177.4680  141.1790 N   0  0  0  0  0  0  0  0  0  0  0  0
  191.9750  177.0420  145.6490 F   0  0  0  0  0  0  0  0  0  0  0  0
  184.9480  178.3790  143.7290 N   0  0  0  0  0  0  0  0  0  0  0  0
  186.9310  177.9180  142.4820 C   0  0  0  0  0  0  0  0  0  0  0  0
  184.8100  178.2930  141.3080 N   0  0  0  0  0  2  0  0  0  0  0  0
  187.6590  177.9420  146.1610 C   0  0  0  0  0  3  0  0  0  0  0  0
  191.7840  176.9690  143.2770 C   0  0  0  0  0  3  0  0  0  0  0  0
  185.6200  178.2990  144.9040 C   0  0  0  0  0  0  0  0  0  0  0  0
  184.9250  178.4960  146.1010 C   0  0  0  0  0  3  0  0  0  0  0  0
  187.5390  177.7380  141.2790 N   0  0  0  0  0  0  0  0  0  0  0  0
  189.6230  177.3610  142.2770 C   0  0  0  0  0  0  0  0  0  0  0  0
  190.9820  177.0780  142.1420 C   0  0  0  0  0  3  0  0  0  0  0  0
  181.5980  178.8600  137.3120 C   0  0  0  0  0  0  0  0  0  0  0  0
  182.5060  179.8960  139.2970 C   0  0  0  0  0  3  0  0  0  0  0  0
  182.7040  176.2050  139.6110 O   0  0  0  0  0  1  0  0  0  0  0  0
  181.0280  178.9670  136.0880 F   0  0  0  0  0  0  0  0  0  0  0  0
  181.9180  180.0080  138.0360 C   0  0  0  0  0  3  0  0  0  0  0  0
  182.4550  177.4790  139.1130 C   0  0  0  0  0  0  0  0  0  0  0  0
  182.7820  178.6370  139.8540 C   0  0  0  0  0  0  0  0  0  0  0  0
  181.8650  177.6000  137.8500 C   0  0  0  0  0  3  0  0  0  0  0  0
  1 11  1  0  0  0  0
  2  7  1  0  0  0  0
  3  2  1  0  0  0  0
  3  9  1  0  0  0  0
  5 16  1  0  0  0  0
  5  4  2  0  0  0  0
  6  9  2  0  0  0  0
  6 13  1  0  0  0  0
  7 17  1  0  0  0  0
  8  1  1  0  0  0  0
 10 14  2  0  0  0  0
 12 21  2  0  0  0  0
 12 22  1  0  0  0  0
 14 19  1  0  0  0  0
 15 10  1  0  0  0  0
 15  2  2  0  0  0  0
 16 10  1  0  0  0  0
 17  1  2  0  0  0  0
 18  6  1  0  0  0  0
 19  7  2  0  0  0  0
 19 20  1  0  0  0  0
 20  8  2  0  0  0  0
 21 15  1  0  0  0  0
 22  3  2  0  0  0  0
 23 22  1  0  0  0  0
 23 18  2  0  0  0  0
 24 31  2  0  0  0  0
 24 28  1  0  0  0  0
 25 30  1  0  0  0  0
 27 24  1  0  0  0  0
 28 25  2  0  0  0  0
 29 26  1  0  0  0  0
 29 30  2  0  0  0  0
 30  5  1  0  0  0  0
 31 29  1  0  0  0  0
M  END
>  <MODEL>
4

>  <REMARK>
 VINA RESULT:     -10.6      1.234      1.443
  Name = 
  1 active torsions:
  status: ('A' for Active; 'I' for Inactive)
    1  A    between atoms: C_5  and  C_30
                            x       y       z     vdW  Elec       q    Type
                         _______ _______ _______ _____ _____    ______ ____

>  <TORSDO>
F 1

$$$$
=
 OpenBabel11122411113D

 31 35  0  0  0  0  0  0  0  0999 V2000
  189.8060  177.3930  147.3130 C   0  0  0  0  0  0  0  0  0  0  0  0
  187.6220  177.7890  144.2800 C   0  0  0  0  0  0  0  0  0  0  0  0
  186.3230  178.1080  144.7530 C   0  0  0  0  0  0  0  0  0  0  0  0
  191.5030  176.7650  140.8820 O   0  0  0  0  0  0  0  0  0  0  0  0
  190.4470  176.9860  140.2320 C   0  0  0  0  0  0  0  0  0  0  0  0
  184.7960  178.5270  146.5380 C   0  0  0  0  0  0  0  0  0  0  0  0
  188.7470  177.5590  145.1210 C   0  0  0  0  0  0  0  0  0  0  0  0
  191.0280  177.0880  146.7120 C   0  0  0  0  0  3  0  0  0  0  0  0
  186.0410  178.2210  146.0830 N   0  0  0  0  0  0  0  0  0  0  0  0
  189.0610  177.3850  142.3450 C   0  0  0  0  0  0  0  0  0  0  0  0
  189.7140  177.4630  148.6620 F   0  0  0  0  0  0  0  0  0  0  0  0
  185.5360  178.2080  142.4950 N   0  0  0  0  0  0  0  0  0  0  0  0
  184.5690  178.6270  147.8690 F   0  0  0  0  0  0  0  0  0  0  0  0
  190.1110  177.1710  143.1780 N   0  0  0  0  0  0  0  0  0  0  0  0
  187.8020  177.6960  142.8780 C   0  0  0  0  0  0  0  0  0  0  0  0
  189.2270  177.2950  140.9220 N   0  0  0  0  0  2  0  0  0  0  0  0
  188.6780  177.6260  146.5240 C   0  0  0  0  0  3  0  0  0  0  0  0
  183.7530  178.7360  145.6350 C   0  0  0  0  0  3  0  0  0  0  0  0
  189.9950  177.2470  144.5260 C   0  0  0  0  0  0  0  0  0  0  0  0
  191.1210  177.0150  145.3220 C   0  0  0  0  0  3  0  0  0  0  0  0
  186.7520  177.9090  142.0400 N   0  0  0  0  0  0  0  0  0  0  0  0
  185.2870  178.3140  143.8200 C   0  0  0  0  0  0  0  0  0  0  0  0
  184.0040  178.6280  144.2680 C   0  0  0  0  0  3  0  0  0  0  0  0
  190.5180  176.7440  135.9440 C   0  0  0  0  0  0  0  0  0  0  0  0
  191.1630  175.9010  138.1160 C   0  0  0  0  0  3  0  0  0  0  0  0
  189.0440  178.9190  138.5230 O   0  0  0  0  0  1  0  0  0  0  0  0
  190.5510  176.6530  134.5940 F   0  0  0  0  0  0  0  0  0  0  0  0
  191.1970  175.8070  136.7230 C   0  0  0  0  0  3  0  0  0  0  0  0
  189.7660  177.8760  137.9530 C   0  0  0  0  0  0  0  0  0  0  0  0
  190.4510  176.9310  138.7510 C   0  0  0  0  0  0  0  0  0  0  0  0
  189.8060  177.7750  136.5580 C   0  0  0  0  0  3  0  0  0  0  0  0
  1 11  1  0  0  0  0
  2  3  1  0  0  0  0
  2  7  1  0  0  0  0
  3  9  1  0  0  0  0
  5  4  2  0  0  0  0
  5 16  1  0  0  0  0
  6 13  1  0  0  0  0
  7 17  1  0  0  0  0
  8  1  1  0  0  0  0
  9  6  2  0  0  0  0
 10 15  1  0  0  0  0
 10 14  2  0  0  0  0
 12 22  1  0  0  0  0
 14 19  1  0  0  0  0
 15  2  2  0  0  0  0
 16 10  1  0  0  0  0
 17  1  2  0  0  0  0
 18  6  1  0  0  0  0
 19  7  2  0  0  0  0
 19 20  1  0  0  0  0
 20  8  2  0  0  0  0
 21 12  2  0  0  0  0
 21 15  1  0  0  0  0
 22 23  1  0  0  0  0
 22  3  2  0  0  0  0
 23 18  2  0  0  0  0
 24 31  2  0  0  0  0
 24 28  1  0  0  0  0
 25 30  1  0  0  0  0
 27 24  1  0  0  0  0
 28 25  2  0  0  0  0
 29 26  1  0  0  0  0
 29 30  2  0  0  0  0
 30  5  1  0  0  0  0
 31 29  1  0  0  0  0
M  END
>  <MODEL>
5

>  <REMARK>
 VINA RESULT:     -10.5      3.728      6.231
  Name = 
  1 active torsions:
  status: ('A' for Active; 'I' for Inactive)
    1  A    between atoms: C_5  and  C_30
                            x       y       z     vdW  Elec       q    Type
                         _______ _______ _______ _____ _____    ______ ____

>  <TORSDO>
F 1

$$$$
=
 OpenBabel11122411113D

 31 35  0  0  0  0  0  0  0  0999 V2000
  190.8840  177.2940  141.7210 C   0  0  0  0  0  0  0  0  0  0  0  0
  187.5430  178.0170  143.2800 C   0  0  0  0  0  0  0  0  0  0  0  0
  187.7000  177.8400  144.6790 C   0  0  0  0  0  0  0  0  0  0  0  0
  185.2040  179.0790  138.6910 O   0  0  0  0  0  0  0  0  0  0  0  0
  184.3560  179.2110  139.6150 C   0  0  0  0  0  0  0  0  0  0  0  0
  189.0410  177.3030  146.5780 C   0  0  0  0  0  0  0  0  0  0  0  0
  188.5850  177.8380  142.3280 C   0  0  0  0  0  0  0  0  0  0  0  0
  190.5900  177.5030  140.3730 C   0  0  0  0  0  3  0  0  0  0  0  0
  188.8900  177.4730  145.2370 N   0  0  0  0  0  0  0  0  0  0  0  0
  186.0390  178.5920  141.4400 C   0  0  0  0  0  0  0  0  0  0  0  0
  192.1340  176.9300  142.0920 F   0  0  0  0  0  0  0  0  0  0  0  0
  185.3970  178.4120  145.0010 N   0  0  0  0  0  0  0  0  0  0  0  0
  190.2450  176.9380  147.0810 F   0  0  0  0  0  0  0  0  0  0  0  0
  187.0570  178.4110  140.5600 N   0  0  0  0  0  0  0  0  0  0  0  0
  186.2610  178.3990  142.8100 C   0  0  0  0  0  0  0  0  0  0  0  0
  184.7360  178.9790  140.9790 N   0  0  0  0  0  2  0  0  0  0  0  0
  189.8900  177.4610  142.6870 C   0  0  0  0  0  3  0  0  0  0  0  0
  187.9600  177.5030  147.4360 C   0  0  0  0  0  3  0  0  0  0  0  0
  188.3010  178.0450  140.9550 C   0  0  0  0  0  0  0  0  0  0  0  0
  189.3000  177.8780  139.9920 C   0  0  0  0  0  3  0  0  0  0  0  0
  185.2390  178.5820  143.6890 N   0  0  0  0  0  0  0  0  0  0  0  0
  186.5910  178.0480  145.5240 C   0  0  0  0  0  0  0  0  0  0  0  0
  186.7280  177.8780  146.9020 C   0  0  0  0  0  3  0  0  0  0  0  0
  180.3510  180.4470  138.6780 C   0  0  0  0  0  0  0  0  0  0  0  0
  182.7320  180.8620  138.7190 C   0  0  0  0  0  3  0  0  0  0  0  0
  182.0200  177.5150  140.1530 O   0  0  0  0  0  1  0  0  0  0  0  0
  179.0950  180.8510  138.3770 F   0  0  0  0  0  0  0  0  0  0  0  0
  181.4370  181.2800  138.4080 C   0  0  0  0  0  3  0  0  0  0  0  0
  181.8560  178.7690  139.5750 C   0  0  0  0  0  0  0  0  0  0  0  0
  182.9620  179.6060  139.3040 C   0  0  0  0  0  0  0  0  0  0  0  0
  180.5620  179.1960  139.2600 C   0  0  0  0  0  3  0  0  0  0  0  0
  1 11  1  0  0  0  0
  1 17  1  0  0  0  0
  2  3  1  0  0  0  0
  3  9  2  0  0  0  0
  3 22  1  0  0  0  0
  4  5  2  0  0  0  0
  5 16  1  0  0  0  0
  6 13  1  0  0  0  0
  6 18  2  0  0  0  0
  7 17  2  0  0  0  0
  7  2  1  0  0  0  0
  8  1  2  0  0  0  0
  9  6  1  0  0  0  0
 10 15  1  0  0  0  0
 12 22  1  0  0  0  0
 14 19  1  0  0  0  0
 14 10  2  0  0  0  0
 15  2  2  0  0  0  0
 15 21  1  0  0  0  0
 16 10  1  0  0  0  0
 19  7  1  0  0  0  0
 20  8  1  0  0  0  0
 20 19  2  0  0  0  0
 21 12  2  0  0  0  0
 22 23  2  0  0  0  0
 23 18  1  0  0  0  0
 24 31  1  0  0  0  0
 25 30  2  0  0  0  0
 27 24  1  0  0  0  0
 28 24  2  0  0  0  0
 28 25  1  0  0  0  0
 29 26  1  0  0  0  0
 30 29  1  0  0  0  0
 30  5  1  0  0  0  0
 31 29  2  0  0  0  0
M  END
>  <MODEL>
6

>  <REMARK>
 VINA RESULT:     -10.4      1.910      4.363
  Name = 
  1 active torsions:
  status: ('A' for Active; 'I' for Inactive)
    1  A    between atoms: C_5  and  C_30
                            x       y       z     vdW  Elec       q    Type
                         _______ _______ _______ _____ _____    ______ ____

>  <TORSDO>
F 1

$$$$
=
 OpenBabel11122411113D

 31 35  0  0  0  0  0  0  0  0999 V2000
  183.8200  179.0630  140.1010 C   0  0  0  0  0  0  0  0  0  0  0  0
  187.4750  178.2030  140.2210 C   0  0  0  0  0  0  0  0  0  0  0  0
  187.9420  178.2260  138.8820 C   0  0  0  0  0  0  0  0  0  0  0  0
  187.5670  177.6690  145.4520 O   0  0  0  0  0  0  0  0  0  0  0  0
  188.7240  177.4440  145.0040 C   0  0  0  0  0  0  0  0  0  0  0  0
  187.5710  178.5410  136.5460 C   0  0  0  0  0  0  0  0  0  0  0  0
  186.1330  178.4770  140.6060 C   0  0  0  0  0  0  0  0  0  0  0  0
  183.4960  179.0050  141.4570 C   0  0  0  0  0  3  0  0  0  0  0  0
  187.1230  178.5180  137.8310 N   0  0  0  0  0  0  0  0  0  0  0  0
  188.0160  177.8460  142.5790 C   0  0  0  0  0  0  0  0  0  0  0  0
  182.8660  179.3740  139.1910 F   0  0  0  0  0  0  0  0  0  0  0  0
  190.1350  177.6420  139.6470 N   0  0  0  0  0  0  0  0  0  0  0  0
  186.7160  178.8370  135.5380 F   0  0  0  0  0  0  0  0  0  0  0  0
  186.7270  178.1130  142.9090 N   0  0  0  0  0  0  0  0  0  0  0  0
  188.4130  177.8850  141.2350 C   0  0  0  0  0  0  0  0  0  0  0  0
  188.9780  177.5240  143.5940 N   0  0  0  0  0  2  0  0  0  0  0  0
  185.1250  178.8020  139.6810 C   0  0  0  0  0  3  0  0  0  0  0  0
  188.9080  178.2580  136.2650 C   0  0  0  0  0  3  0  0  0  0  0  0
  185.7890  178.4210  141.9800 C   0  0  0  0  0  0  0  0  0  0  0  0
  184.4800  178.6850  142.3940 C   0  0  0  0  0  3  0  0  0  0  0  0
  189.7060  177.6170  140.9080 N   0  0  0  0  0  0  0  0  0  0  0  0
  189.2980  177.9360  138.6250 C   0  0  0  0  0  0  0  0  0  0  0  0
  189.7740  177.9540  137.3140 C   0  0  0  0  0  3  0  0  0  0  0  0
  191.9830  176.3920  147.5960 C   0  0  0  0  0  0  0  0  0  0  0  0
  190.9310  176.3830  145.4200 C   0  0  0  0  0  3  0  0  0  0  0  0
  188.7650  178.1630  147.8510 O   0  0  0  0  0  1  0  0  0  0  0  0
  193.0180  176.0520  148.4000 F   0  0  0  0  0  0  0  0  0  0  0  0
  191.9990  176.0330  146.2490 C   0  0  0  0  0  3  0  0  0  0  0  0
  189.8250  177.4560  147.2930 C   0  0  0  0  0  0  0  0  0  0  0  0
  189.8320  177.0970  145.9250 C   0  0  0  0  0  0  0  0  0  0  0  0
  190.8990  177.1010  148.1160 C   0  0  0  0  0  3  0  0  0  0  0  0
  1  8  1  0  0  0  0
  2  7  1  0  0  0  0
  2 15  1  0  0  0  0
  3  2  2  0  0  0  0
  5  4  2  0  0  0  0
  5 30  1  0  0  0  0
  6  9  2  0  0  0  0
  7 19  2  0  0  0  0
  8 20  2  0  0  0  0
  9  3  1  0  0  0  0
 10 14  2  0  0  0  0
 10 16  1  0  0  0  0
 11  1  1  0  0  0  0
 12 21  1  0  0  0  0
 13  6  1  0  0  0  0
 15 10  1  0  0  0  0
 16  5  1  0  0  0  0
 17  1  2  0  0  0  0
 17  7  1  0  0  0  0
 18  6  1  0  0  0  0
 18 23  2  0  0  0  0
 19 20  1  0  0  0  0
 19 14  1  0  0  0  0
 21 15  2  0  0  0  0
 22  3  1  0  0  0  0
 22 12  2  0  0  0  0
 23 22  1  0  0  0  0
 24 31  1  0  0  0  0
 24 27  1  0  0  0  0
 25 30  2  0  0  0  0
 25 28  1  0  0  0  0
 28 24  2  0  0  0  0
 29 26  1  0  0  0  0
 29 31  2  0  0  0  0
 30 29  1  0  0  0  0
M  END
>  <MODEL>
7

>  <REMARK>
 VINA RESULT:     -10.0      3.441      8.357
  Name = 
  1 active torsions:
  status: ('A' for Active; 'I' for Inactive)
    1  A    between atoms: C_5  and  C_30
                            x       y       z     vdW  Elec       q    Type
                         _______ _______ _______ _____ _____    ______ ____

>  <TORSDO>
F 1

$$$$
=
 OpenBabel11122411113D

 31 35  0  0  0  0  0  0  0  0999 V2000
  186.1230  177.9260  145.6120 C   0  0  0  0  0  0  0  0  0  0  0  0
  186.7040  178.2530  141.9150 C   0  0  0  0  0  0  0  0  0  0  0  0
  188.0620  177.9110  141.6840 C   0  0  0  0  0  0  0  0  0  0  0  0
  181.7670  179.7420  140.8840 O   0  0  0  0  0  0  0  0  0  0  0  0
  182.4110  179.7090  139.8020 C   0  0  0  0  0  0  0  0  0  0  0  0
  190.2040  177.2200  142.4770 C   0  0  0  0  0  0  0  0  0  0  0  0
  186.0840  178.2540  143.1950 C   0  0  0  0  0  0  0  0  0  0  0  0
  184.7770  178.2840  145.6940 C   0  0  0  0  0  3  0  0  0  0  0  0
  188.9020  177.5480  142.6960 N   0  0  0  0  0  0  0  0  0  0  0  0
  184.5740  178.9650  140.9480 C   0  0  0  0  0  0  0  0  0  0  0  0
  186.8030  177.5910  146.7340 F   0  0  0  0  0  0  0  0  0  0  0  0
  187.7540  178.3040  139.3430 N   0  0  0  0  0  0  0  0  0  0  0  0
  190.9960  176.8660  143.5170 F   0  0  0  0  0  0  0  0  0  0  0  0
  184.0160  178.9550  142.1850 N   0  0  0  0  0  0  0  0  0  0  0  0
  185.9230  178.6160  140.7890 C   0  0  0  0  0  0  0  0  0  0  0  0
  183.7950  179.3290  139.7980 N   0  0  0  0  0  2  0  0  0  0  0  0
  186.7690  177.9110  144.3740 C   0  0  0  0  0  3  0  0  0  0  0  0
  190.7240  177.2470  141.1820 C   0  0  0  0  0  3  0  0  0  0  0  0
  184.7180  178.6160  143.2950 C   0  0  0  0  0  0  0  0  0  0  0  0
  184.0770  178.6280  144.5370 C   0  0  0  0  0  3  0  0  0  0  0  0
  186.4780  178.6270  139.5480 N   0  0  0  0  0  0  0  0  0  0  0  0
  188.5630  177.9470  140.3670 C   0  0  0  0  0  0  0  0  0  0  0  0
  189.8950  177.6140  140.1230 C   0  0  0  0  0  3  0  0  0  0  0  0
  180.4920  180.8200  136.1230 C   0  0  0  0  0  0  0  0  0  0  0  0
  181.4300  181.4030  138.2740 C   0  0  0  0  0  3  0  0  0  0  0  0
  181.7200  177.7440  137.7320 O   0  0  0  0  0  1  0  0  0  0  0  0
  179.8870  181.1870  134.9690 F   0  0  0  0  0  0  0  0  0  0  0  0
  180.8060  181.7820  137.0840 C   0  0  0  0  0  3  0  0  0  0  0  0
  181.4280  179.0900  137.5430 C   0  0  0  0  0  0  0  0  0  0  0  0
  181.7490  180.0590  138.5220 C   0  0  0  0  0  0  0  0  0  0  0  0
  180.8030  179.4790  136.3540 C   0  0  0  0  0  3  0  0  0  0  0  0
  1  8  1  0  0  0  0
  1 11  1  0  0  0  0
  2  7  1  0  0  0  0
  3  2  1  0  0  0  0
  3  9  1  0  0  0  0
  5  4  2  0  0  0  0
  6  9  2  0  0  0  0
  6 13  1  0  0  0  0
  7 19  2  0  0  0  0
  7 17  1  0  0  0  0
 10 14  2  0  0  0  0
 12 21  2  0  0  0  0
 12 22  1  0  0  0  0
 14 19  1  0  0  0  0
 15 10  1  0  0  0  0
 15  2  2  0  0  0  0
 16  5  1  0  0  0  0
 16 10  1  0  0  0  0
 17  1  2  0  0  0  0
 18  6  1  0  0  0  0
 19 20  1  0  0  0  0
 20  8  2  0  0  0  0
 21 15  1  0  0  0  0
 22  3  2  0  0  0  0
 23 22  1  0  0  0  0
 23 18  2  0  0  0  0
 24 31  2  0  0  0  0
 24 28  1  0  0  0  0
 25 30  1  0  0  0  0
 27 24  1  0  0  0  0
 28 25  2  0  0  0  0
 29 26  1  0  0  0  0
 29 30  2  0  0  0  0
 30  5  1  0  0  0  0
 31 29  1  0  0  0  0
M  END
>  <MODEL>
8

>  <REMARK>
 VINA RESULT:      -9.9      2.363      3.145
  Name = 
  1 active torsions:
  status: ('A' for Active; 'I' for Inactive)
    1  A    between atoms: C_5  and  C_30
                            x       y       z     vdW  Elec       q    Type
                         _______ _______ _______ _____ _____    ______ ____

>  <TORSDO>
F 1

$$$$
=
 OpenBabel11122411113D

 31 35  0  0  0  0  0  0  0  0999 V2000
  187.4580  177.8290  147.0050 C   0  0  0  0  0  0  0  0  0  0  0  0
  186.5760  178.0320  143.3580 C   0  0  0  0  0  0  0  0  0  0  0  0
  185.2070  178.3970  143.2900 C   0  0  0  0  0  0  0  0  0  0  0  0
  191.4030  176.7290  141.7270 O   0  0  0  0  0  0  0  0  0  0  0  0
  190.6730  176.9140  140.7160 C   0  0  0  0  0  0  0  0  0  0  0  0
  183.1410  178.9570  144.3450 C   0  0  0  0  0  0  0  0  0  0  0  0
  187.2980  177.8500  144.5710 C   0  0  0  0  0  0  0  0  0  0  0  0
  188.8040  177.4690  146.9250 C   0  0  0  0  0  3  0  0  0  0  0  0
  184.4540  178.6070  144.4090 N   0  0  0  0  0  0  0  0  0  0  0  0
  188.6160  177.4760  142.1290 C   0  0  0  0  0  0  0  0  0  0  0  0
  186.8740  177.9960  148.2150 F   0  0  0  0  0  0  0  0  0  0  0  0
  185.3200  178.3450  140.9000 N   0  0  0  0  0  0  0  0  0  0  0  0
  182.4380  179.1550  145.4860 F   0  0  0  0  0  0  0  0  0  0  0  0
  189.2720  177.3120  143.3060 N   0  0  0  0  0  0  0  0  0  0  0  0
  187.2610  177.8380  142.1320 C   0  0  0  0  0  0  0  0  0  0  0  0
  189.2960  177.2840  140.8800 N   0  0  0  0  0  2  0  0  0  0  0  0
  186.7140  178.0180  145.8390 C   0  0  0  0  0  3  0  0  0  0  0  0
  182.5170  179.1130  143.1070 C   0  0  0  0  0  3  0  0  0  0  0  0
  188.6650  177.4840  144.5060 C   0  0  0  0  0  0  0  0  0  0  0  0
  189.4050  177.2970  145.6770 C   0  0  0  0  0  3  0  0  0  0  0  0
  186.6060  178.0020  140.9520 N   0  0  0  0  0  0  0  0  0  0  0  0
  184.6000  178.5470  142.0270 C   0  0  0  0  0  0  0  0  0  0  0  0
  183.2540  178.9060  141.9420 C   0  0  0  0  0  3  0  0  0  0  0  0
  192.1820  176.4330  136.7240 C   0  0  0  0  0  0  0  0  0  0  0  0
  190.3470  176.4590  138.2960 C   0  0  0  0  0  3  0  0  0  0  0  0
  193.5250  177.1800  140.0700 O   0  0  0  0  0  1  0  0  0  0  0  0
  192.6420  176.2780  135.4600 F   0  0  0  0  0  0  0  0  0  0  0  0
  190.8200  176.2990  136.9930 C   0  0  0  0  0  3  0  0  0  0  0  0
  192.6050  176.8890  139.0690 C   0  0  0  0  0  0  0  0  0  0  0  0
  191.2260  176.7540  139.3500 C   0  0  0  0  0  0  0  0  0  0  0  0
  193.0710  176.7260  137.7590 C   0  0  0  0  0  3  0  0  0  0  0  0
  1 11  1  0  0  0  0
  2  7  1  0  0  0  0
  3  2  1  0  0  0  0
  3  9  1  0  0  0  0
  5 16  1  0  0  0  0
  5  4  2  0  0  0  0
  6  9  2  0  0  0  0
  6 13  1  0  0  0  0
  7 17  1  0  0  0  0
  8  1  1  0  0  0  0
 10 15  1  0  0  0  0
 10 14  2  0  0  0  0
 12 21  2  0  0  0  0
 12 22  1  0  0  0  0
 14 19  1  0  0  0  0
 15  2  2  0  0  0  0
 16 10  1  0  0  0  0
 17  1  2  0  0  0  0
 18  6  1  0  0  0  0
 19  7  2  0  0  0  0
 19 20  1  0  0  0  0
 20  8  2  0  0  0  0
 21 15  1  0  0  0  0
 22  3  2  0  0  0  0
 23 22  1  0  0  0  0
 23 18  2  0  0  0  0
 24 28  2  0  0  0  0
 24 31  1  0  0  0  0
 25 30  2  0  0  0  0
 27 24  1  0  0  0  0
 28 25  1  0  0  0  0
 29 30  1  0  0  0  0
 29 26  1  0  0  0  0
 30  5  1  0  0  0  0
 31 29  2  0  0  0  0
M  END
>  <MODEL>
9

>  <REMARK>
 VINA RESULT:      -9.8      3.984      6.959
  Name = 
  1 active torsions:
  status: ('A' for Active; 'I' for Inactive)
    1  A    between atoms: C_5  and  C_30
                            x       y       z     vdW  Elec       q    Type
                         _______ _______ _______ _____ _____    ______ ____

>  <TORSDO>
F 1

$$$$
