=
 OpenBabel11122412213D

 34 42  0  0  1  0  0  0  0  0999 V2000
  185.2710  178.5010  142.4070 C   0  0  0  0  0  0  0  0  0  0  0  0
  184.9070  179.0510  139.9200 C   0  0  0  0  0  2  0  0  0  0  0  0
  189.4130  177.3080  147.5360 C   0  0  1  0  0  0  0  0  0  0  0  0
  185.9030  178.2020  144.7420 C   0  0  0  0  0  0  0  0  0  0  0  0
  188.3270  177.7300  145.2450 C   0  0  0  0  0  0  0  0  0  0  0  0
  190.6420  176.8930  146.0750 C   0  0  1  0  0  3  0  0  0  0  0  0
  190.6830  176.6610  147.4500 O   0  0  0  0  0  0  0  0  0  0  0  0
  187.4270  178.5660  148.2170 C   0  0  0  0  0  3  0  0  0  0  0  0
  186.8690  177.8890  140.5660 C   0  0  2  0  0  3  0  0  0  0  0  0
  189.3460  177.8090  138.6490 C   0  0  0  0  0  3  0  0  0  0  0  0
  188.5820  177.7840  143.8360 N   0  0  0  0  0  0  0  0  0  0  0  0
  186.7460  178.6560  147.0610 C   0  0  0  0  0  3  0  0  0  0  0  0
  188.0490  178.1630  141.4940 C   0  0  1  0  0  3  0  0  0  0  0  0
  185.7190  178.8300  138.7190 N   0  0  0  0  0  2  0  0  0  0  0  0
  186.9220  177.8350  145.7970 C   0  0  0  0  0  0  0  0  0  0  0  0
  188.6290  177.7560  148.5060 C   0  0  0  0  0  2  0  0  0  0  0  0
  187.8840  177.6320  138.3290 C   0  0  1  0  0  3  0  0  0  0  0  0
  186.2530  178.2320  143.3780 C   0  0  0  0  0  0  0  0  0  0  0  0
  189.2990  177.3780  146.0670 C   0  0  2  0  0  3  0  0  0  0  0  0
  187.6570  177.9960  142.9500 C   0  0  0  0  0  0  0  0  0  0  0  0
  183.6010  178.7210  144.1450 C   0  0  0  0  0  3  0  0  0  0  0  0
  189.9030  177.6270  139.8610 C   0  0  0  0  0  3  0  0  0  0  0  0
  184.5670  178.4310  145.1110 C   0  0  0  0  0  3  0  0  0  0  0  0
  189.1680  177.1950  141.1030 C   0  0  0  0  0  2  0  0  0  0  0  0
  187.0620  178.5480  139.2300 C   0  0  2  0  0  3  0  0  0  0  0  0
  183.9510  178.7590  142.7950 C   0  0  0  0  0  3  0  0  0  0  0  0
  185.6390  178.4710  141.0280 N   0  0  0  0  0  0  0  0  0  0  0  0
  187.6740  177.9570  136.9850 O   0  0  0  0  0  0  0  0  0  0  0  0
  188.0470  176.8130  136.2760 C   0  0  0  0  0  2  0  0  0  0  0  0
  184.9890  175.8160  136.8430 O   0  0  0  0  0  0  0  0  0  0  0  0
  185.8440  177.3780  135.3000 C   0  0  0  0  0  2  0  0  0  0  0  0
  186.8650  176.2920  135.4780 C   0  0  2  0  0  3  0  0  0  0  0  0
  184.6000  176.8110  135.9380 C   0  0  0  0  0  2  0  0  0  0  0  0
  186.1360  175.2390  136.2800 C   0  0  0  0  0  2  0  0  0  0  0  0
  1 26  2  0  0  0  0
  1 18  1  0  0  0  0
  2 27  1  0  0  0  0
  3 16  1  1  0  0  0
  4 23  1  0  0  0  0
  4 15  1  0  0  0  0
  5 15  2  0  0  0  0
  6  7  1  6  0  0  0
  6  3  1  0  0  0  0
  7  3  1  0  0  0  0
  8 16  1  0  0  0  0
  9 27  1  1  0  0  0
  9 13  1  0  0  0  0
 10 22  2  0  0  0  0
 11  5  1  0  0  0  0
 12  8  2  0  0  0  0
 13 24  1  6  0  0  0
 13 20  1  0  0  0  0
 14  2  1  0  0  0  0
 15 12  1  0  0  0  0
 17 28  1  6  0  0  0
 17 10  1  0  0  0  0
 17 25  1  0  0  0  0
 18  4  2  0  0  0  0
 19  5  1  6  0  0  0
 19  6  1  0  0  0  0
 19  3  1  0  0  0  0
 20 18  1  0  0  0  0
 20 11  2  0  0  0  0
 21 23  2  0  0  0  0
 22 24  1  0  0  0  0
 25 14  1  6  0  0  0
 25  9  1  0  0  0  0
 26 21  1  0  0  0  0
 27  1  1  0  0  0  0
 29 28  1  0  0  0  0
 31 32  1  0  0  0  0
 31 33  1  0  0  0  0
 32 29  1  1  0  0  0
 32 34  1  0  0  0  0
 33 30  1  0  0  0  0
 34 30  1  0  0  0  0
M  END
>  <MODEL>
1

>  <REMARK>
 VINA RESULT:     -10.6      0.000      0.000
  Name = 
  3 active torsions:
  status: ('A' for Active; 'I' for Inactive)
    1  A    between atoms: C_17  and  O_28
    2  A    between atoms: O_28  and  C_29
    3  A    between atoms: C_29  and  C_32
                            x       y       z     vdW  Elec       q    Type
                         _______ _______ _______ _____ _____    ______ ____

>  <TORSDO>
F 3

$$$$
=
 OpenBabel11122412213D

 34 42  0  0  1  0  0  0  0  0999 V2000
  189.1310  177.8670  140.7670 C   0  0  0  0  0  0  0  0  0  0  0  0
  187.5680  177.9810  138.7260 C   0  0  0  0  0  2  0  0  0  0  0  0
  189.9990  177.1740  147.3740 C   0  0  1  0  0  0  0  0  0  0  0  0
  190.3820  177.5080  142.8280 C   0  0  0  0  0  0  0  0  0  0  0  0
  189.0860  177.4740  144.9900 C   0  0  0  0  0  0  0  0  0  0  0  0
  188.1270  177.7300  147.3900 C   0  0  1  0  0  3  0  0  0  0  0  0
  189.0960  177.6220  148.3860 O   0  0  0  0  0  0  0  0  0  0  0  0
  191.7850  176.1070  146.0840 C   0  0  0  0  0  3  0  0  0  0  0  0
  186.7430  178.6460  140.8450 C   0  0  2  0  0  3  0  0  0  0  0  0
  183.6530  178.7990  141.3470 C   0  0  0  0  0  3  0  0  0  0  0  0
  187.8980  177.7150  144.2280 N   0  0  0  0  0  0  0  0  0  0  0  0
  191.4250  176.3970  144.8210 C   0  0  0  0  0  3  0  0  0  0  0  0
  186.5680  177.9850  142.2100 C   0  0  1  0  0  3  0  0  0  0  0  0
  186.1590  178.3530  138.5670 N   0  0  0  0  0  2  0  0  0  0  0  0
  190.4520  177.4570  144.3380 C   0  0  0  0  0  0  0  0  0  0  0  0
  191.2080  176.6340  147.3390 C   0  0  0  0  0  2  0  0  0  0  0  0
  184.4530  179.2660  140.1570 C   0  0  1  0  0  3  0  0  0  0  0  0
  189.1600  177.7480  142.1680 C   0  0  0  0  0  0  0  0  0  0  0  0
  189.0230  177.4700  146.3090 C   0  0  2  0  0  3  0  0  0  0  0  0
  187.8930  177.8620  142.9380 C   0  0  0  0  0  0  0  0  0  0  0  0
  191.5220  177.5000  140.6770 C   0  0  0  0  0  3  0  0  0  0  0  0
  184.1450  178.6030  142.5840 C   0  0  0  0  0  3  0  0  0  0  0  0
  191.5600  177.4040  142.0700 C   0  0  0  0  0  3  0  0  0  0  0  0
  185.5730  178.8360  143.0030 C   0  0  0  0  0  2  0  0  0  0  0  0
  185.6090  178.2990  139.9240 C   0  0  2  0  0  3  0  0  0  0  0  0
  190.3100  177.7290  140.0250 C   0  0  0  0  0  3  0  0  0  0  0  0
  187.8900  178.1660  140.1270 N   0  0  0  0  0  0  0  0  0  0  0  0
  183.6160  179.3020  139.0380 O   0  0  0  0  0  0  0  0  0  0  0  0
  182.4720  178.5990  139.4210 C   0  0  0  0  0  2  0  0  0  0  0  0
  180.3800  181.0570  139.9250 O   0  0  0  0  0  0  0  0  0  0  0  0
  181.6250  180.4530  138.0170 C   0  0  0  0  0  2  0  0  0  0  0  0
  181.2490  179.1950  138.7460 C   0  0  2  0  0  3  0  0  0  0  0  0
  180.7610  181.5110  138.6570 C   0  0  0  0  0  2  0  0  0  0  0  0
  180.2690  179.6660  139.7960 C   0  0  0  0  0  2  0  0  0  0  0  0
  1 18  1  0  0  0  0
  2 27  1  0  0  0  0
  3 16  1  1  0  0  0
  3  6  1  0  0  0  0
  3  7  1  0  0  0  0
  4 15  1  0  0  0  0
  6  7  1  1  0  0  0
  8 16  1  0  0  0  0
  9 27  1  6  0  0  0
  9 13  1  0  0  0  0
 10 22  2  0  0  0  0
 11  5  1  0  0  0  0
 12  8  2  0  0  0  0
 13 20  1  0  0  0  0
 13 24  1  1  0  0  0
 14  2  1  0  0  0  0
 15 12  1  0  0  0  0
 15  5  2  0  0  0  0
 17 28  1  6  0  0  0
 17 10  1  0  0  0  0
 18  4  2  0  0  0  0
 18 20  1  0  0  0  0
 19  5  1  1  0  0  0
 19  3  1  0  0  0  0
 19  6  1  0  0  0  0
 20 11  2  0  0  0  0
 21 23  2  0  0  0  0
 22 24  1  0  0  0  0
 23  4  1  0  0  0  0
 25 14  1  6  0  0  0
 25 17  1  0  0  0  0
 25  9  1  0  0  0  0
 26 21  1  0  0  0  0
 26  1  2  0  0  0  0
 27  1  1  0  0  0  0
 28 29  1  0  0  0  0
 31 33  1  0  0  0  0
 31 32  1  0  0  0  0
 32 29  1  1  0  0  0
 32 34  1  0  0  0  0
 33 30  1  0  0  0  0
 34 30  1  0  0  0  0
M  END
>  <MODEL>
2

>  <REMARK>
 VINA RESULT:     -10.6      2.478      4.850
  Name = 
  3 active torsions:
  status: ('A' for Active; 'I' for Inactive)
    1  A    between atoms: C_17  and  O_28
    2  A    between atoms: O_28  and  C_29
    3  A    between atoms: C_29  and  C_32
                            x       y       z     vdW  Elec       q    Type
                         _______ _______ _______ _____ _____    ______ ____

>  <TORSDO>
F 3

$$$$
=
 OpenBabel11122412213D

 34 42  0  0  1  0  0  0  0  0999 V2000
  185.2560  178.5110  142.4130 C   0  0  0  0  0  0  0  0  0  0  0  0
  184.8810  179.0800  139.9320 C   0  0  0  0  0  2  0  0  0  0  0  0
  189.4200  177.2900  147.5170 C   0  0  1  0  0  0  0  0  0  0  0  0
  185.8970  178.1960  144.7440 C   0  0  0  0  0  0  0  0  0  0  0  0
  188.3250  177.7270  145.2330 C   0  0  0  0  0  0  0  0  0  0  0  0
  190.6450  176.8900  146.0490 C   0  0  1  0  0  3  0  0  0  0  0  0
  190.6930  176.6480  147.4210 O   0  0  0  0  0  0  0  0  0  0  0  0
  187.4330  178.5380  148.2150 C   0  0  0  0  0  3  0  0  0  0  0  0
  186.8480  177.9180  140.5610 C   0  0  2  0  0  3  0  0  0  0  0  0
  189.3190  177.8590  138.6340 C   0  0  0  0  0  3  0  0  0  0  0  0
  188.5750  177.7930  143.8240 N   0  0  0  0  0  0  0  0  0  0  0  0
  186.7480  178.6340  147.0620 C   0  0  0  0  0  3  0  0  0  0  0  0
  188.0320  178.1880  141.4870 C   0  0  1  0  0  3  0  0  0  0  0  0
  185.6900  178.8700  138.7260 N   0  0  0  0  0  2  0  0  0  0  0  0
  186.9220  177.8230  145.7920 C   0  0  0  0  0  0  0  0  0  0  0  0
  188.6390  177.7290  148.4930 C   0  0  0  0  0  2  0  0  0  0  0  0
  187.8560  177.6820  138.3180 C   0  0  1  0  0  3  0  0  0  0  0  0
  186.2420  178.2370  143.3780 C   0  0  0  0  0  0  0  0  0  0  0  0
  189.3010  177.3720  146.0490 C   0  0  2  0  0  3  0  0  0  0  0  0
  187.6460  178.0090  142.9430 C   0  0  0  0  0  0  0  0  0  0  0  0
  183.5920  178.7130  144.1590 C   0  0  0  0  0  3  0  0  0  0  0  0
  189.8810  177.6700  139.8430 C   0  0  0  0  0  3  0  0  0  0  0  0
  184.5630  178.4180  145.1190 C   0  0  0  0  0  3  0  0  0  0  0  0
  189.1520  177.2270  141.0840 C   0  0  0  0  0  2  0  0  0  0  0  0
  187.0350  178.5880  139.2300 C   0  0  2  0  0  3  0  0  0  0  0  0
  183.9370  178.7620  142.8080 C   0  0  0  0  0  3  0  0  0  0  0  0
  185.6190  178.4920  141.0320 N   0  0  0  0  0  0  0  0  0  0  0  0
  187.6400  178.0160  136.9780 O   0  0  0  0  0  0  0  0  0  0  0  0
  188.8980  177.9250  136.3770 C   0  0  0  0  0  2  0  0  0  0  0  0
  188.1850  174.9070  135.3530 O   0  0  0  0  0  0  0  0  0  0  0  0
  187.3440  177.0050  134.6850 C   0  0  0  0  0  2  0  0  0  0  0  0
  188.7880  177.1780  135.0600 C   0  0  2  0  0  3  0  0  0  0  0  0
  187.1740  175.5090  134.5940 C   0  0  0  0  0  2  0  0  0  0  0  0
  189.2880  175.7630  135.2350 C   0  0  0  0  0  2  0  0  0  0  0  0
  1 26  2  0  0  0  0
  1 18  1  0  0  0  0
  2 27  1  0  0  0  0
  3 16  1  1  0  0  0
  4 23  1  0  0  0  0
  4 15  1  0  0  0  0
  5 15  2  0  0  0  0
  6  7  1  6  0  0  0
  6  3  1  0  0  0  0
  7  3  1  0  0  0  0
  8 16  1  0  0  0  0
  9 27  1  1  0  0  0
  9 13  1  0  0  0  0
 10 22  2  0  0  0  0
 11  5  1  0  0  0  0
 12  8  2  0  0  0  0
 13 24  1  6  0  0  0
 13 20  1  0  0  0  0
 14  2  1  0  0  0  0
 15 12  1  0  0  0  0
 17 28  1  6  0  0  0
 17 10  1  0  0  0  0
 17 25  1  0  0  0  0
 18  4  2  0  0  0  0
 19  5  1  6  0  0  0
 19  6  1  0  0  0  0
 19  3  1  0  0  0  0
 20 18  1  0  0  0  0
 20 11  2  0  0  0  0
 21 23  2  0  0  0  0
 22 24  1  0  0  0  0
 25 14  1  6  0  0  0
 25  9  1  0  0  0  0
 26 21  1  0  0  0  0
 27  1  1  0  0  0  0
 29 28  1  0  0  0  0
 31 32  1  0  0  0  0
 32 34  1  0  0  0  0
 32 29  1  1  0  0  0
 33 31  1  0  0  0  0
 33 30  1  0  0  0  0
 34 30  1  0  0  0  0
M  END
>  <MODEL>
3

>  <REMARK>
 VINA RESULT:     -10.5      0.957      1.139
  Name = 
  3 active torsions:
  status: ('A' for Active; 'I' for Inactive)
    1  A    between atoms: C_17  and  O_28
    2  A    between atoms: O_28  and  C_29
    3  A    between atoms: C_29  and  C_32
                            x       y       z     vdW  Elec       q    Type
                         _______ _______ _______ _____ _____    ______ ____

>  <TORSDO>
F 3

$$$$
=
 OpenBabel11122412213D

 34 42  0  0  1  0  0  0  0  0999 V2000
  186.9060  178.2690  141.0950 C   0  0  0  0  0  0  0  0  0  0  0  0
  184.5770  178.5730  140.0440 C   0  0  0  0  0  2  0  0  0  0  0  0
  190.7270  176.8310  146.4070 C   0  0  1  0  0  0  0  0  0  0  0  0
  188.9610  177.7100  142.2790 C   0  0  0  0  0  0  0  0  0  0  0  0
  188.8190  177.3810  144.7750 C   0  0  0  0  0  0  0  0  0  0  0  0
  189.0910  177.3210  147.3570 C   0  0  1  0  0  3  0  0  0  0  0  0
  190.4100  177.1270  147.7680 O   0  0  0  0  0  0  0  0  0  0  0  0
  191.6780  175.9800  144.3180 C   0  0  0  0  0  3  0  0  0  0  0  0
  184.8490  178.9580  142.3660 C   0  0  2  0  0  3  0  0  0  0  0  0
  182.3520  178.9530  144.2590 C   0  0  0  0  0  3  0  0  0  0  0  0
  187.4190  177.6720  144.6870 N   0  0  0  0  0  0  0  0  0  0  0  0
  190.7800  176.4050  143.4120 C   0  0  0  0  0  3  0  0  0  0  0  0
  185.3110  178.1350  143.5660 C   0  0  1  0  0  3  0  0  0  0  0  0
  183.2660  178.9160  140.6030 N   0  0  0  0  0  2  0  0  0  0  0  0
  189.7230  177.4830  143.5650 C   0  0  0  0  0  0  0  0  0  0  0  0
  191.7660  176.3370  145.7500 C   0  0  0  0  0  2  0  0  0  0  0  0
  182.5200  179.5810  142.8990 C   0  0  1  0  0  3  0  0  0  0  0  0
  187.5800  177.9870  142.2960 C   0  0  0  0  0  0  0  0  0  0  0  0
  189.3750  177.2190  145.9610 C   0  0  2  0  0  3  0  0  0  0  0  0
  186.8190  177.9690  143.5740 C   0  0  0  0  0  0  0  0  0  0  0  0
  188.9700  177.9920  139.8620 C   0  0  0  0  0  3  0  0  0  0  0  0
  183.3580  178.6270  145.0930 C   0  0  0  0  0  3  0  0  0  0  0  0
  189.6480  177.7330  141.0550 C   0  0  0  0  0  3  0  0  0  0  0  0
  184.8220  178.8550  144.8250 C   0  0  0  0  0  2  0  0  0  0  0  0
  183.4080  178.6860  142.0420 C   0  0  2  0  0  3  0  0  0  0  0  0
  187.6000  178.2570  139.8800 C   0  0  0  0  0  3  0  0  0  0  0  0
  185.5170  178.6020  141.1450 N   0  0  0  0  0  0  0  0  0  0  0  0
  181.2600  179.7230  142.3100 O   0  0  0  0  0  0  0  0  0  0  0  0
  180.5130  178.6460  142.7940 C   0  0  0  0  0  2  0  0  0  0  0  0
  180.0720  178.8410  139.5640 O   0  0  0  0  0  0  0  0  0  0  0  0
  179.9030  177.0120  141.0400 C   0  0  0  0  0  2  0  0  0  0  0  0
  179.4630  178.2450  141.7740 C   0  0  2  0  0  3  0  0  0  0  0  0
  179.9440  177.4480  139.5960 C   0  0  0  0  0  2  0  0  0  0  0  0
  179.3770  179.2970  140.6930 C   0  0  0  0  0  2  0  0  0  0  0  0
  1 27  1  0  0  0  0
  1 18  1  0  0  0  0
  2 14  1  0  0  0  0
  2 27  1  0  0  0  0
  3 16  1  6  0  0  0
  3  6  1  0  0  0  0
  3  7  1  0  0  0  0
  4 18  2  0  0  0  0
  4 15  1  0  0  0  0
  6  7  1  6  0  0  0
  8 16  1  0  0  0  0
  9 27  1  6  0  0  0
  9 13  1  0  0  0  0
 10 22  2  0  0  0  0
 11  5  1  0  0  0  0
 12 15  1  0  0  0  0
 12  8  2  0  0  0  0
 13 20  1  0  0  0  0
 13 24  1  1  0  0  0
 15  5  2  0  0  0  0
 17 28  1  6  0  0  0
 17 10  1  0  0  0  0
 18 20  1  0  0  0  0
 19  5  1  6  0  0  0
 19  3  1  0  0  0  0
 19  6  1  0  0  0  0
 20 11  2  0  0  0  0
 21 26  1  0  0  0  0
 21 23  2  0  0  0  0
 23  4  1  0  0  0  0
 24 22  1  0  0  0  0
 25 14  1  6  0  0  0
 25  9  1  0  0  0  0
 25 17  1  0  0  0  0
 26  1  2  0  0  0  0
 28 29  1  0  0  0  0
 30 33  1  0  0  0  0
 30 34  1  0  0  0  0
 31 32  1  0  0  0  0
 32 29  1  1  0  0  0
 33 31  1  0  0  0  0
 34 32  1  0  0  0  0
M  END
>  <MODEL>
4

>  <REMARK>
 VINA RESULT:     -10.2      2.743      5.550
  Name = 
  3 active torsions:
  status: ('A' for Active; 'I' for Inactive)
    1  A    between atoms: C_17  and  O_28
    2  A    between atoms: O_28  and  C_29
    3  A    between atoms: C_29  and  C_32
                            x       y       z     vdW  Elec       q    Type
                         _______ _______ _______ _____ _____    ______ ____

>  <TORSDO>
F 3

$$$$
=
 OpenBabel11122412213D

 34 42  0  0  1  0  0  0  0  0999 V2000
  190.1810  177.4990  141.6250 C   0  0  0  0  0  0  0  0  0  0  0  0
  190.2770  177.1050  139.0840 C   0  0  0  0  0  2  0  0  0  0  0  0
  186.6140  178.2490  147.2470 C   0  0  1  0  0  0  0  0  0  0  0  0
  189.8100  177.6420  144.0300 C   0  0  0  0  0  0  0  0  0  0  0  0
  187.4450  177.9970  144.8270 C   0  0  0  0  0  0  0  0  0  0  0  0
  185.2160  178.7020  145.9590 C   0  0  1  0  0  3  0  0  0  0  0  0
  185.3230  178.8530  147.3420 O   0  0  0  0  0  0  0  0  0  0  0  0
  188.7010  177.0270  147.6250 C   0  0  0  0  0  3  0  0  0  0  0  0
  188.3680  178.1570  140.0140 C   0  0  2  0  0  3  0  0  0  0  0  0
  185.6880  178.2560  138.3930 C   0  0  0  0  0  3  0  0  0  0  0  0
  187.0340  178.0140  143.4550 N   0  0  0  0  0  0  0  0  0  0  0  0
  189.2480  177.0270  146.3960 C   0  0  0  0  0  3  0  0  0  0  0  0
  187.3090  177.7880  141.0500 C   0  0  1  0  0  3  0  0  0  0  0  0
  189.3280  177.3640  137.9970 N   0  0  0  0  0  2  0  0  0  0  0  0
  188.9060  177.9120  145.2120 C   0  0  0  0  0  0  0  0  0  0  0  0
  187.5150  177.7750  148.0940 C   0  0  0  0  0  2  0  0  0  0  0  0
  187.0990  178.5030  137.9240 C   0  0  1  0  0  3  0  0  0  0  0  0
  189.3080  177.6770  142.7140 C   0  0  0  0  0  0  0  0  0  0  0  0
  186.5630  178.2660  145.7720 C   0  0  2  0  0  3  0  0  0  0  0  0
  187.8580  177.8860  142.4600 C   0  0  0  0  0  0  0  0  0  0  0  0
  192.0440  177.2420  143.1500 C   0  0  0  0  0  3  0  0  0  0  0  0
  185.2670  178.3480  139.6680 C   0  0  0  0  0  3  0  0  0  0  0  0
  191.1840  177.4410  144.2330 C   0  0  0  0  0  3  0  0  0  0  0  0
  186.1240  178.7350  140.8440 C   0  0  0  0  0  2  0  0  0  0  0  0
  188.0430  177.5680  138.6710 C   0  0  2  0  0  3  0  0  0  0  0  0
  191.5430  177.2680  141.8480 C   0  0  0  0  0  3  0  0  0  0  0  0
  189.6580  177.5950  140.3000 N   0  0  0  0  0  0  0  0  0  0  0  0
  187.1650  178.2630  136.5480 O   0  0  0  0  0  0  0  0  0  0  0  0
  186.0300  177.5000  136.2610 C   0  0  0  0  0  2  0  0  0  0  0  0
  188.6770  175.8840  135.2370 O   0  0  0  0  0  0  0  0  0  0  0  0
  186.5630  175.1060  135.9300 C   0  0  0  0  0  2  0  0  0  0  0  0
  186.3720  176.4270  135.2430 C   0  0  2  0  0  3  0  0  0  0  0  0
  187.9790  174.7200  135.5790 C   0  0  0  0  0  2  0  0  0  0  0  0
  187.7240  176.7170  134.6340 C   0  0  0  0  0  2  0  0  0  0  0  0
  1 26  2  0  0  0  0
  1 18  1  0  0  0  0
  2 27  1  0  0  0  0
  3  7  1  0  0  0  0
  3 16  1  1  0  0  0
  4 23  1  0  0  0  0
  4 15  1  0  0  0  0
  5 15  2  0  0  0  0
  6  3  1  0  0  0  0
  6  7  1  1  0  0  0
  8 16  1  0  0  0  0
  9 27  1  1  0  0  0
  9 13  1  0  0  0  0
 10 22  2  0  0  0  0
 11  5  1  0  0  0  0
 12  8  2  0  0  0  0
 13 24  1  1  0  0  0
 13 20  1  0  0  0  0
 14  2  1  0  0  0  0
 15 12  1  0  0  0  0
 17 28  1  6  0  0  0
 17 10  1  0  0  0  0
 17 25  1  0  0  0  0
 18  4  2  0  0  0  0
 19  5  1  1  0  0  0
 19  6  1  0  0  0  0
 19  3  1  0  0  0  0
 20 18  1  0  0  0  0
 20 11  2  0  0  0  0
 21 23  2  0  0  0  0
 22 24  1  0  0  0  0
 25 14  1  6  0  0  0
 25  9  1  0  0  0  0
 26 21  1  0  0  0  0
 27  1  1  0  0  0  0
 29 28  1  0  0  0  0
 30 33  1  0  0  0  0
 32 31  1  0  0  0  0
 32 29  1  1  0  0  0
 33 31  1  0  0  0  0
 34 30  1  0  0  0  0
 34 32  1  0  0  0  0
M  END
>  <MODEL>
5

>  <REMARK>
 VINA RESULT:     -10.0      1.919      3.879
  Name = 
  3 active torsions:
  status: ('A' for Active; 'I' for Inactive)
    1  A    between atoms: C_17  and  O_28
    2  A    between atoms: O_28  and  C_29
    3  A    between atoms: C_29  and  C_32
                            x       y       z     vdW  Elec       q    Type
                         _______ _______ _______ _____ _____    ______ ____

>  <TORSDO>
F 3

$$$$
=
 OpenBabel11122412213D

 34 42  0  0  1  0  0  0  0  0999 V2000
  185.9240  178.3650  141.2140 C   0  0  0  0  0  0  0  0  0  0  0  0
  186.2870  178.7560  138.6970 C   0  0  0  0  0  2  0  0  0  0  0  0
  188.4270  177.5360  147.3730 C   0  0  1  0  0  0  0  0  0  0  0  0
  185.8630  178.2190  143.6470 C   0  0  0  0  0  0  0  0  0  0  0  0
  188.0420  177.8040  144.8460 C   0  0  0  0  0  0  0  0  0  0  0  0
  190.0180  177.0440  146.3510 C   0  0  1  0  0  3  0  0  0  0  0  0
  189.6650  176.8990  147.6920 O   0  0  0  0  0  0  0  0  0  0  0  0
  186.3390  178.8140  147.3810 C   0  0  0  0  0  3  0  0  0  0  0  0
  187.9740  177.6560  139.9450 C   0  0  2  0  0  3  0  0  0  0  0  0
  190.8940  177.4820  138.8200 C   0  0  0  0  0  3  0  0  0  0  0  0
  188.6870  177.7730  143.5680 N   0  0  0  0  0  0  0  0  0  0  0  0
  186.0170  178.8250  146.0760 C   0  0  0  0  0  3  0  0  0  0  0  0
  188.8450  178.0000  141.1510 C   0  0  1  0  0  3  0  0  0  0  0  0
  187.4050  178.4690  137.7930 N   0  0  0  0  0  2  0  0  0  0  0  0
  186.5380  177.9280  144.9690 C   0  0  0  0  0  0  0  0  0  0  0  0
  187.4040  178.0360  148.0500 C   0  0  0  0  0  2  0  0  0  0  0  0
  189.5810  177.2710  138.1090 C   0  0  1  0  0  3  0  0  0  0  0  0
  186.5870  178.1670  142.4390 C   0  0  0  0  0  0  0  0  0  0  0  0
  188.7360  177.5140  145.9310 C   0  0  2  0  0  3  0  0  0  0  0  0
  188.0540  177.9190  142.4430 C   0  0  0  0  0  0  0  0  0  0  0  0
  183.8300  178.6750  142.3890 C   0  0  0  0  0  3  0  0  0  0  0  0
  191.0820  177.3830  140.1490 C   0  0  0  0  0  3  0  0  0  0  0  0
  184.4800  178.4560  143.6060 C   0  0  0  0  0  3  0  0  0  0  0  0
  190.0210  177.0210  141.1560 C   0  0  0  0  0  2  0  0  0  0  0  0
  188.5450  178.2330  138.6810 C   0  0  2  0  0  3  0  0  0  0  0  0
  184.5510  178.6330  141.1940 C   0  0  0  0  0  3  0  0  0  0  0  0
  186.6690  178.2530  140.0010 N   0  0  0  0  0  0  0  0  0  0  0  0
  189.7640  177.5100  136.7440 O   0  0  0  0  0  0  0  0  0  0  0  0
  190.0320  176.2550  136.1920 C   0  0  0  0  0  2  0  0  0  0  0  0
  188.3220  173.8100  134.8620 O   0  0  0  0  0  0  0  0  0  0  0  0
  189.5760  173.9140  136.8550 C   0  0  0  0  0  2  0  0  0  0  0  0
  188.9630  175.2650  136.6180 C   0  0  2  0  0  3  0  0  0  0  0  0
  188.8490  173.0150  135.8870 C   0  0  0  0  0  2  0  0  0  0  0  0
  188.0030  175.0300  135.4740 C   0  0  0  0  0  2  0  0  0  0  0  0
  1 18  1  0  0  0  0
  2 27  1  0  0  0  0
  3  7  1  0  0  0  0
  3 16  1  1  0  0  0
  4 15  1  0  0  0  0
  5 15  2  0  0  0  0
  6  3  1  0  0  0  0
  6  7  1  6  0  0  0
  8 16  1  0  0  0  0
  9 27  1  1  0  0  0
  9 13  1  0  0  0  0
 10 22  2  0  0  0  0
 11  5  1  0  0  0  0
 12  8  2  0  0  0  0
 13 24  1  1  0  0  0
 13 20  1  0  0  0  0
 14  2  1  0  0  0  0
 15 12  1  0  0  0  0
 17 28  1  6  0  0  0
 17 25  1  0  0  0  0
 17 10  1  0  0  0  0
 18 20  1  0  0  0  0
 18  4  2  0  0  0  0
 19  5  1  6  0  0  0
 19  6  1  0  0  0  0
 19  3  1  0  0  0  0
 20 11  2  0  0  0  0
 21 23  2  0  0  0  0
 22 24  1  0  0  0  0
 23  4  1  0  0  0  0
 25 14  1  6  0  0  0
 25  9  1  0  0  0  0
 26  1  2  0  0  0  0
 26 21  1  0  0  0  0
 27  1  1  0  0  0  0
 29 28  1  0  0  0  0
 30 34  1  0  0  0  0
 30 33  1  0  0  0  0
 32 29  1  6  0  0  0
 32 31  1  0  0  0  0
 33 31  1  0  0  0  0
 34 32  1  0  0  0  0
M  END
>  <MODEL>
6

>  <REMARK>
 VINA RESULT:     -10.0      1.585      2.061
  Name = 
  3 active torsions:
  status: ('A' for Active; 'I' for Inactive)
    1  A    between atoms: C_17  and  O_28
    2  A    between atoms: O_28  and  C_29
    3  A    between atoms: C_29  and  C_32
                            x       y       z     vdW  Elec       q    Type
                         _______ _______ _______ _____ _____    ______ ____

>  <TORSDO>
F 3

$$$$
=
 OpenBabel11122412213D

 34 42  0  0  1  0  0  0  0  0999 V2000
  186.5740  178.2960  140.7850 C   0  0  0  0  0  0  0  0  0  0  0  0
  187.4830  178.5440  138.3910 C   0  0  0  0  0  2  0  0  0  0  0  0
  187.6620  177.7080  147.3700 C   0  0  1  0  0  0  0  0  0  0  0  0
  185.9870  178.2760  143.1510 C   0  0  0  0  0  0  0  0  0  0  0  0
  187.8390  177.8570  144.8090 C   0  0  0  0  0  0  0  0  0  0  0  0
  189.4130  177.1150  146.7370 C   0  0  1  0  0  3  0  0  0  0  0  0
  188.7750  177.0510  147.9760 O   0  0  0  0  0  0  0  0  0  0  0  0
  185.6760  179.0490  146.8700 C   0  0  0  0  0  3  0  0  0  0  0  0
  188.8170  177.4590  140.0210 C   0  0  2  0  0  3  0  0  0  0  0  0
  191.9010  177.1360  139.5620 C   0  0  0  0  0  3  0  0  0  0  0  0
  188.7410  177.7400  143.7030 N   0  0  0  0  0  0  0  0  0  0  0  0
  185.6410  179.0020  145.5270 C   0  0  0  0  0  3  0  0  0  0  0  0
  189.4220  177.8370  141.3710 C   0  0  1  0  0  3  0  0  0  0  0  0
  188.7560  178.1760  137.7630 N   0  0  0  0  0  2  0  0  0  0  0  0
  186.3500  178.0340  144.5990 C   0  0  0  0  0  0  0  0  0  0  0  0
  186.5390  178.2740  147.7870 C   0  0  0  0  0  2  0  0  0  0  0  0
  190.7630  176.9300  138.5950 C   0  0  1  0  0  3  0  0  0  0  0  0
  186.9500  178.1400  142.1310 C   0  0  0  0  0  0  0  0  0  0  0  0
  188.2720  177.6020  146.0300 C   0  0  2  0  0  3  0  0  0  0  0  0
  188.3700  177.8480  142.4630 C   0  0  0  0  0  0  0  0  0  0  0  0
  184.2920  178.7310  141.4650 C   0  0  0  0  0  3  0  0  0  0  0  0
  191.7950  177.1000  140.9040 C   0  0  0  0  0  3  0  0  0  0  0  0
  184.6560  178.5540  142.8010 C   0  0  0  0  0  3  0  0  0  0  0  0
  190.5290  176.8240  141.6720 C   0  0  0  0  0  2  0  0  0  0  0  0
  189.6690  177.9510  138.8860 C   0  0  2  0  0  3  0  0  0  0  0  0
  185.2490  178.6040  140.4570 C   0  0  0  0  0  3  0  0  0  0  0  0
  187.5560  178.0970  139.7670 N   0  0  0  0  0  0  0  0  0  0  0  0
  191.2440  177.0920  137.2920 O   0  0  0  0  0  0  0  0  0  0  0  0
  191.1610  175.8210  136.7170 C   0  0  0  0  0  2  0  0  0  0  0  0
  194.3060  175.7270  137.5950 O   0  0  0  0  0  0  0  0  0  0  0  0
  192.9330  174.0980  136.5870 C   0  0  0  0  0  2  0  0  0  0  0  0
  192.4950  175.4480  136.0950 C   0  0  2  0  0  3  0  0  0  0  0  0
  194.2610  174.3710  137.2490 C   0  0  0  0  0  2  0  0  0  0  0  0
  193.5700  176.3820  136.5980 C   0  0  0  0  0  2  0  0  0  0  0  0
  1 18  1  0  0  0  0
  2 27  1  0  0  0  0
  3 16  1  1  0  0  0
  3  7  1  0  0  0  0
  4 15  1  0  0  0  0
  6  3  1  0  0  0  0
  6  7  1  6  0  0  0
  8 16  1  0  0  0  0
  9 27  1  6  0  0  0
  9 13  1  0  0  0  0
 10 22  2  0  0  0  0
 11  5  1  0  0  0  0
 12  8  2  0  0  0  0
 13 24  1  1  0  0  0
 13 20  1  0  0  0  0
 14  2  1  0  0  0  0
 15  5  2  0  0  0  0
 15 12  1  0  0  0  0
 17 28  1  6  0  0  0
 17 25  1  0  0  0  0
 17 10  1  0  0  0  0
 18 20  1  0  0  0  0
 18  4  2  0  0  0  0
 19  5  1  6  0  0  0
 19  6  1  0  0  0  0
 19  3  1  0  0  0  0
 20 11  2  0  0  0  0
 21 23  2  0  0  0  0
 22 24  1  0  0  0  0
 23  4  1  0  0  0  0
 25 14  1  6  0  0  0
 25  9  1  0  0  0  0
 26  1  2  0  0  0  0
 26 21  1  0  0  0  0
 27  1  1  0  0  0  0
 29 28  1  0  0  0  0
 31 33  1  0  0  0  0
 32 31  1  0  0  0  0
 32 34  1  0  0  0  0
 32 29  1  1  0  0  0
 33 30  1  0  0  0  0
 34 30  1  0  0  0  0
M  END
>  <MODEL>
7

>  <REMARK>
 VINA RESULT:      -9.7      2.634      3.774
  Name = 
  3 active torsions:
  status: ('A' for Active; 'I' for Inactive)
    1  A    between atoms: C_17  and  O_28
    2  A    between atoms: O_28  and  C_29
    3  A    between atoms: C_29  and  C_32
                            x       y       z     vdW  Elec       q    Type
                         _______ _______ _______ _____ _____    ______ ____

>  <TORSDO>
F 3

$$$$
=
 OpenBabel11122412213D

 34 42  0  0  1  0  0  0  0  0999 V2000
  190.5100  177.5190  142.1120 C   0  0  0  0  0  0  0  0  0  0  0  0
  191.5940  176.8730  139.8680 C   0  0  0  0  0  2  0  0  0  0  0  0
  185.0260  178.6330  145.7940 C   0  0  1  0  0  0  0  0  0  0  0  0
  189.2300  177.8860  144.1530 C   0  0  0  0  0  0  0  0  0  0  0  0
  186.7370  178.1840  143.9290 C   0  0  0  0  0  0  0  0  0  0  0  0
  184.2340  178.8710  144.0240 C   0  0  1  0  0  3  0  0  0  0  0  0
  183.7920  179.1680  145.3140 O   0  0  0  0  0  0  0  0  0  0  0  0
  186.8170  177.5780  147.0870 C   0  0  0  0  0  3  0  0  0  0  0  0
  189.4590  177.9030  139.8610 C   0  0  2  0  0  3  0  0  0  0  0  0
  187.6210  177.6820  137.3320 C   0  0  0  0  0  3  0  0  0  0  0  0
  186.8920  178.0360  142.5130 N   0  0  0  0  0  0  0  0  0  0  0  0
  187.7990  177.4850  146.1740 C   0  0  0  0  0  3  0  0  0  0  0  0
  188.0850  177.5820  140.4430 C   0  0  1  0  0  3  0  0  0  0  0  0
  191.1390  176.9650  138.4780 N   0  0  0  0  0  2  0  0  0  0  0  0
  187.9330  178.2220  144.8550 C   0  0  0  0  0  0  0  0  0  0  0  0
  185.5320  178.3010  146.9730 C   0  0  0  0  0  2  0  0  0  0  0  0
  189.1000  177.9600  137.4180 C   0  0  1  0  0  3  0  0  0  0  0  0
  189.2800  177.7570  142.7500 C   0  0  0  0  0  0  0  0  0  0  0  0
  185.5530  178.4970  144.4230 C   0  0  2  0  0  3  0  0  0  0  0  0
  188.0410  177.8550  141.9350 C   0  0  0  0  0  0  0  0  0  0  0  0
  191.6350  177.5260  144.2550 C   0  0  0  0  0  3  0  0  0  0  0  0
  186.7360  177.8790  138.3270 C   0  0  0  0  0  3  0  0  0  0  0  0
  190.4190  177.7860  144.8920 C   0  0  0  0  0  3  0  0  0  0  0  0
  187.0620  178.4330  139.6890 C   0  0  0  0  0  2  0  0  0  0  0  0
  189.6920  177.1630  138.5750 C   0  0  2  0  0  3  0  0  0  0  0  0
  191.6810  177.3900  142.8670 C   0  0  0  0  0  3  0  0  0  0  0  0
  190.5440  177.4480  140.6850 N   0  0  0  0  0  0  0  0  0  0  0  0
  189.7000  177.5840  136.2120 O   0  0  0  0  0  0  0  0  0  0  0  0
  188.7750  176.7360  135.5990 C   0  0  0  0  0  2  0  0  0  0  0  0
  191.7100  175.3130  135.7660 O   0  0  0  0  0  0  0  0  0  0  0  0
  189.5400  174.4070  135.9300 C   0  0  0  0  0  2  0  0  0  0  0  0
  189.4930  175.5580  134.9670 C   0  0  2  0  0  3  0  0  0  0  0  0
  191.0150  174.1460  136.1070 C   0  0  0  0  0  2  0  0  0  0  0  0
  190.9470  175.9060  134.7500 C   0  0  0  0  0  2  0  0  0  0  0  0
  1 18  2  0  0  0  0
  1 26  1  0  0  0  0
  2 27  1  0  0  0  0
  3 16  1  1  0  0  0
  4 15  1  0  0  0  0
  4 23  2  0  0  0  0
  5 15  2  0  0  0  0
  6 19  1  0  0  0  0
  6  7  1  1  0  0  0
  6  3  1  0  0  0  0
  7  3  1  0  0  0  0
  9 13  1  0  0  0  0
  9 27  1  1  0  0  0
 10 17  1  0  0  0  0
 10 22  2  0  0  0  0
 11  5  1  0  0  0  0
 12  8  2  0  0  0  0
 13 24  1  6  0  0  0
 13 20  1  0  0  0  0
 14  2  1  0  0  0  0
 15 12  1  0  0  0  0
 16  8  1  0  0  0  0
 17 28  1  6  0  0  0
 17 25  1  0  0  0  0
 18  4  1  0  0  0  0
 19  5  1  1  0  0  0
 19  3  1  0  0  0  0
 20 11  2  0  0  0  0
 20 18  1  0  0  0  0
 21 23  1  0  0  0  0
 22 24  1  0  0  0  0
 25 14  1  6  0  0  0
 25  9  1  0  0  0  0
 26 21  2  0  0  0  0
 27  1  1  0  0  0  0
 29 28  1  0  0  0  0
 30 33  1  0  0  0  0
 31 33  1  0  0  0  0
 32 29  1  1  0  0  0
 32 31  1  0  0  0  0
 34 32  1  0  0  0  0
 34 30  1  0  0  0  0
M  END
>  <MODEL>
8

>  <REMARK>
 VINA RESULT:      -9.7      2.552      4.545
  Name = 
  3 active torsions:
  status: ('A' for Active; 'I' for Inactive)
    1  A    between atoms: C_17  and  O_28
    2  A    between atoms: O_28  and  C_29
    3  A    between atoms: C_29  and  C_32
                            x       y       z     vdW  Elec       q    Type
                         _______ _______ _______ _____ _____    ______ ____

>  <TORSDO>
F 3

$$$$
=
 OpenBabel11122412213D

 34 42  0  0  1  0  0  0  0  0999 V2000
  185.8700  178.4110  143.4840 C   0  0  0  0  0  0  0  0  0  0  0  0
  188.2260  177.6530  142.7790 C   0  0  0  0  0  2  0  0  0  0  0  0
  179.4350  179.5050  141.9710 C   0  0  1  0  0  0  0  0  0  0  0  0
  183.5170  178.8640  143.9340 C   0  0  0  0  0  0  0  0  0  0  0  0
  181.9570  179.0060  141.9590 C   0  0  0  0  0  0  0  0  0  0  0  0
  180.1670  179.5590  140.1610 C   0  0  1  0  0  3  0  0  0  0  0  0
  178.9370  179.9320  140.7030 O   0  0  0  0  0  0  0  0  0  0  0  0
  179.7250  178.6530  144.2480 C   0  0  0  0  0  3  0  0  0  0  0  0
  186.7720  178.5600  141.1420 C   0  0  2  0  0  3  0  0  0  0  0  0
  187.3170  178.0420  138.1000 C   0  0  0  0  0  3  0  0  0  0  0  0
  183.0830  178.7570  141.1100 N   0  0  0  0  0  0  0  0  0  0  0  0
  181.0620  178.5430  144.3340 C   0  0  0  0  0  3  0  0  0  0  0  0
  185.3940  178.2100  140.5860 C   0  0  1  0  0  3  0  0  0  0  0  0
  188.9160  177.6110  141.4860 N   0  0  0  0  0  2  0  0  0  0  0  0
  182.1190  179.1820  143.4540 C   0  0  0  0  0  0  0  0  0  0  0  0
  178.9310  179.2930  143.1780 C   0  0  0  0  0  2  0  0  0  0  0  0
  188.2850  178.4070  139.1970 C   0  0  1  0  0  3  0  0  0  0  0  0
  184.5620  178.6290  143.0170 C   0  0  0  0  0  0  0  0  0  0  0  0
  180.7870  179.2910  141.4190 C   0  0  2  0  0  3  0  0  0  0  0  0
  184.2930  178.5950  141.5550 C   0  0  0  0  0  0  0  0  0  0  0  0
  185.1030  178.6470  145.7680 C   0  0  0  0  0  3  0  0  0  0  0  0
  185.9900  178.2670  138.1300 C   0  0  0  0  0  3  0  0  0  0  0  0
  183.8070  178.8880  145.3080 C   0  0  0  0  0  3  0  0  0  0  0  0
  185.2450  178.9420  139.2510 C   0  0  0  0  0  2  0  0  0  0  0  0
  187.8460  177.7360  140.4930 C   0  0  2  0  0  3  0  0  0  0  0  0
  186.1340  178.4060  144.8580 C   0  0  0  0  0  3  0  0  0  0  0  0
  186.9200  178.2310  142.5330 N   0  0  0  0  0  0  0  0  0  0  0  0
  189.5630  177.9720  138.8330 O   0  0  0  0  0  0  0  0  0  0  0  0
  189.4900  177.7520  137.4550 C   0  0  0  0  0  2  0  0  0  0  0  0
  190.7580  174.8760  138.3430 O   0  0  0  0  0  0  0  0  0  0  0  0
  190.0650  175.6770  136.2370 C   0  0  0  0  0  2  0  0  0  0  0  0
  190.6170  176.8340  137.0180 C   0  0  2  0  0  3  0  0  0  0  0  0
  190.5020  174.4690  137.0280 C   0  0  0  0  0  2  0  0  0  0  0  0
  191.2440  176.1860  138.2300 C   0  0  0  0  0  2  0  0  0  0  0  0
  1 26  1  0  0  0  0
  3 16  1  1  0  0  0
  4 23  2  0  0  0  0
  5 15  2  0  0  0  0
  6  7  1  1  0  0  0
  6 19  1  0  0  0  0
  6  3  1  0  0  0  0
  7  3  1  0  0  0  0
  8 12  2  0  0  0  0
  9 27  1  1  0  0  0
 10 22  2  0  0  0  0
 10 17  1  0  0  0  0
 11 20  2  0  0  0  0
 11  5  1  0  0  0  0
 13 24  1  6  0  0  0
 13  9  1  0  0  0  0
 13 20  1  0  0  0  0
 14  2  1  0  0  0  0
 15  4  1  0  0  0  0
 15 12  1  0  0  0  0
 16  8  1  0  0  0  0
 17 28  1  6  0  0  0
 17 25  1  0  0  0  0
 18  1  2  0  0  0  0
 18  4  1  0  0  0  0
 19  5  1  1  0  0  0
 19  3  1  0  0  0  0
 20 18  1  0  0  0  0
 22 24  1  0  0  0  0
 23 21  1  0  0  0  0
 25  9  1  0  0  0  0
 25 14  1  1  0  0  0
 26 21  2  0  0  0  0
 27  2  1  0  0  0  0
 27  1  1  0  0  0  0
 29 28  1  0  0  0  0
 31 32  1  0  0  0  0
 31 33  1  0  0  0  0
 32 29  1  1  0  0  0
 32 34  1  0  0  0  0
 33 30  1  0  0  0  0
 34 30  1  0  0  0  0
M  END
>  <MODEL>
9

>  <REMARK>
 VINA RESULT:      -9.4      2.902      6.043
  Name = 
  3 active torsions:
  status: ('A' for Active; 'I' for Inactive)
    1  A    between atoms: C_17  and  O_28
    2  A    between atoms: O_28  and  C_29
    3  A    between atoms: C_29  and  C_32
                            x       y       z     vdW  Elec       q    Type
                         _______ _______ _______ _____ _____    ______ ____

>  <TORSDO>
F 3

$$$$
