=
 OpenBabel11122410393D

 32 37  0  0  1  0  0  0  0  0999 V2000
  187.8420  176.9450  143.5780 C   0  0  0  0  0  2  0  0  0  0  0  0
  190.5490  176.9830  138.6950 C   0  0  1  0  0  3  0  0  0  0  0  0
  185.9500  175.8460  137.2350 C   0  0  0  0  0  2  0  0  0  0  0  0
  186.4710  174.8310  136.2290 C   0  0  0  0  0  2  0  0  0  0  0  0
  192.5640  175.5700  137.9840 C   0  0  1  0  0  3  0  0  0  0  0  0
  192.9860  174.4820  137.0380 C   0  0  0  0  0  0  0  0  0  0  0  0
  189.9060  177.2930  141.0900 C   0  0  1  0  0  3  0  0  0  0  0  0
  188.5930  178.4410  139.2980 C   0  0  0  0  0  2  0  0  0  0  0  0
  192.8070  172.8590  135.5620 C   0  0  0  0  0  0  0  0  0  0  0  0
  187.8390  178.6350  141.6840 C   0  0  0  0  0  2  0  0  0  0  0  0
  186.9970  176.9360  137.4300 C   0  0  0  0  0  2  0  0  0  0  0  0
  189.1640  177.4830  138.2340 C   0  0  2  0  0  3  0  0  0  0  0  0
  188.2390  176.3620  137.9630 N   0  0  2  0  0  0  0  0  0  0  0  0
  190.1550  174.8990  137.3400 C   0  0  1  0  0  3  0  0  0  0  0  0
  194.1340  173.0280  135.9270 C   0  0  0  0  0  3  0  0  0  0  0  0
  188.7950  176.0100  142.8420 C   0  0  0  0  0  2  0  0  0  0  0  0
  188.5020  177.7420  140.6500 C   0  0  2  0  0  3  0  0  0  0  0  0
  194.2390  174.0240  136.8420 N   0  0  0  0  0  2  0  0  0  0  0  0
  189.9920  176.7530  142.4550 N   0  0  0  0  0  2  0  0  0  0  0  0
  186.9900  177.7740  142.6140 C   0  0  2  0  0  3  0  0  0  0  0  0
  187.8240  174.3000  136.6830 C   0  0  0  0  0  2  0  0  0  0  0  0
  188.7920  175.4640  136.9250 C   0  0  1  0  0  3  0  0  0  0  0  0
  190.6920  174.0190  136.2980 N   0  0  0  0  0  2  0  0  0  0  0  0
  190.4800  176.3120  140.0760 C   0  0  0  0  0  2  0  0  0  0  0  0
  193.5390  176.7330  137.9060 C   0  0  0  0  0  1  0  0  0  0  0  0
  192.2700  171.8650  134.5940 C   0  0  0  0  0  1  0  0  0  0  0  0
  191.1350  176.0560  137.6340 C   0  0  1  0  0  3  0  0  0  0  0  0
  192.0950  173.7740  136.2880 C   0  0  0  0  0  0  0  0  0  0  0  0
  186.0880  178.6320  143.3680 N   0  0  0  0  0  2  0  0  0  0  0  0
  184.6770  178.6500  143.1480 C   0  0  0  0  0  0  0  0  0  0  0  0
  184.1550  177.9270  142.2580 O   0  0  0  0  0  0  0  0  0  0  0  0
  183.8150  179.5350  143.9730 C   0  0  0  0  0  1  0  0  0  0  0  0
  2 24  1  1  0  0  0
  3 11  1  0  0  0  0
  4 21  1  0  0  0  0
  4  3  1  0  0  0  0
  5 25  1  6  0  0  0
  6  5  1  0  0  0  0
  7 24  1  6  0  0  0
  7 19  1  0  0  0  0
  9 15  2  0  0  0  0
  9 28  1  0  0  0  0
 10 20  1  0  0  0  0
 12  2  1  0  0  0  0
 12  8  1  1  0  0  0
 13 11  1  6  0  0  0
 13 12  1  0  0  0  0
 14 23  1  6  0  0  0
 14 27  1  0  0  0  0
 15 18  1  0  0  0  0
 16  1  1  0  0  0  0
 17  8  1  6  0  0  0
 17  7  1  0  0  0  0
 17 10  1  0  0  0  0
 18  6  1  0  0  0  0
 19 16  1  0  0  0  0
 20 29  1  1  0  0  0
 20  1  1  0  0  0  0
 22 21  1  1  0  0  0
 22 14  1  0  0  0  0
 22 13  1  0  0  0  0
 26  9  1  0  0  0  0
 27  5  1  0  0  0  0
 27  2  1  0  0  0  0
 28 23  1  0  0  0  0
 28  6  2  0  0  0  0
 30 29  1  0  0  0  0
 30 32  1  0  0  0  0
 31 30  2  0  0  0  0
M  END
>  <MODEL>
1

>  <REMARK>
 VINA RESULT:      -7.8      0.000      0.000
  Name = 
  1 active torsions:
  status: ('A' for Active; 'I' for Inactive)
    1  A    between atoms: C_20  and  N_29
                            x       y       z     vdW  Elec       q    Type
                         _______ _______ _______ _____ _____    ______ ____

>  <TORSDO>
F 1

$$$$
=
 OpenBabel11122410393D

 32 37  0  0  1  0  0  0  0  0999 V2000
  181.3740  175.8530  138.0410 C   0  0  0  0  0  2  0  0  0  0  0  0
  184.5200  178.9260  141.4810 C   0  0  1  0  0  3  0  0  0  0  0  0
  187.7140  178.0340  137.7960 C   0  0  0  0  0  2  0  0  0  0  0  0
  188.8560  177.8130  138.7780 C   0  0  0  0  0  2  0  0  0  0  0  0
  185.1320  178.4540  143.9230 C   0  0  1  0  0  3  0  0  0  0  0  0
  186.2900  178.1240  144.8220 C   0  0  0  0  0  0  0  0  0  0  0  0
  182.6060  177.8010  140.3350 C   0  0  1  0  0  3  0  0  0  0  0  0
  183.9570  179.5030  139.1000 C   0  0  0  0  0  2  0  0  0  0  0  0
  188.3250  177.5390  145.4200 C   0  0  0  0  0  0  0  0  0  0  0  0
  182.1400  178.2680  137.8880 C   0  0  0  0  0  2  0  0  0  0  0  0
  186.7100  179.0010  138.4110 C   0  0  0  0  0  2  0  0  0  0  0  0
  185.1030  179.3680  140.1220 C   0  0  2  0  0  3  0  0  0  0  0  0
  186.1470  178.4360  139.6450 N   0  0  2  0  0  0  0  0  0  0  0  0
  186.7410  177.8600  141.9930 C   0  0  1  0  0  3  0  0  0  0  0  0
  187.5240  177.6940  146.5420 C   0  0  0  0  0  3  0  0  0  0  0  0
  182.1180  175.6220  139.3510 C   0  0  0  0  0  2  0  0  0  0  0  0
  183.2010  178.1850  138.9710 C   0  0  2  0  0  3  0  0  0  0  0  0
  186.2680  178.0480  146.1690 N   0  0  0  0  0  2  0  0  0  0  0  0
  181.7080  176.6360  140.3210 N   0  0  0  0  0  2  0  0  0  0  0  0
  182.0480  176.9210  137.1770 C   0  0  2  0  0  3  0  0  0  0  0  0
  188.3030  177.3440  140.1170 C   0  0  0  0  0  2  0  0  0  0  0  0
  187.2500  178.3340  140.6270 C   0  0  1  0  0  3  0  0  0  0  0  0
  187.8430  177.7720  142.9550 N   0  0  0  0  0  2  0  0  0  0  0  0
  183.7200  177.6200  141.3580 C   0  0  0  0  0  2  0  0  0  0  0  0
  184.3400  179.6160  144.5000 C   0  0  0  0  0  1  0  0  0  0  0  0
  189.7600  177.1470  145.3990 C   0  0  0  0  0  1  0  0  0  0  0  0
  185.6450  178.8180  142.5070 C   0  0  1  0  0  3  0  0  0  0  0  0
  187.5220  177.7970  144.3430 C   0  0  0  0  0  0  0  0  0  0  0  0
  181.3090  177.0870  135.9350 N   0  0  0  0  0  2  0  0  0  0  0  0
  179.9390  177.4910  135.9010 C   0  0  0  0  0  0  0  0  0  0  0  0
  179.3030  177.6970  136.9690 O   0  0  0  0  0  0  0  0  0  0  0  0
  179.2560  177.6640  134.5940 C   0  0  0  0  0  1  0  0  0  0  0  0
  1 16  1  0  0  0  0
  2 24  1  6  0  0  0
  2 27  1  0  0  0  0
  3 11  1  0  0  0  0
  3  4  1  0  0  0  0
  4 21  1  0  0  0  0
  5 25  1  1  0  0  0
  5  6  1  0  0  0  0
  6 18  1  0  0  0  0
  7 24  1  1  0  0  0
  9 15  2  0  0  0  0
 12  8  1  6  0  0  0
 12  2  1  0  0  0  0
 13 11  1  6  0  0  0
 13 12  1  0  0  0  0
 13 22  1  0  0  0  0
 14 27  1  0  0  0  0
 14 23  1  1  0  0  0
 16 19  1  0  0  0  0
 17 10  1  6  0  0  0
 17  8  1  0  0  0  0
 17  7  1  0  0  0  0
 18 15  1  0  0  0  0
 19  7  1  0  0  0  0
 20 29  1  6  0  0  0
 20 10  1  0  0  0  0
 20  1  1  0  0  0  0
 22 21  1  6  0  0  0
 22 14  1  0  0  0  0
 23 28  1  0  0  0  0
 26  9  1  0  0  0  0
 27  5  1  0  0  0  0
 28  6  2  0  0  0  0
 28  9  1  0  0  0  0
 30 29  1  0  0  0  0
 30 31  2  0  0  0  0
 32 30  1  0  0  0  0
M  END
>  <MODEL>
2

>  <REMARK>
 VINA RESULT:      -6.7      4.310      8.305
  Name = 
  1 active torsions:
  status: ('A' for Active; 'I' for Inactive)
    1  A    between atoms: C_20  and  N_29
                            x       y       z     vdW  Elec       q    Type
                         _______ _______ _______ _____ _____    ______ ____

>  <TORSDO>
F 1

$$$$
=
 OpenBabel11122410393D

 32 37  0  0  1  0  0  0  0  0999 V2000
  187.3470  176.7270  143.7890 C   0  0  0  0  0  2  0  0  0  0  0  0
  190.7490  177.4140  139.4150 C   0  0  1  0  0  3  0  0  0  0  0  0
  186.6560  175.7150  137.1920 C   0  0  0  0  0  2  0  0  0  0  0  0
  187.4740  174.8400  136.2530 C   0  0  0  0  0  2  0  0  0  0  0  0
  193.0380  176.3430  138.9980 C   0  0  1  0  0  3  0  0  0  0  0  0
  193.7600  175.3780  138.1010 C   0  0  0  0  0  0  0  0  0  0  0  0
  189.7000  177.4990  141.6820 C   0  0  1  0  0  3  0  0  0  0  0  0
  188.5270  178.5440  139.7360 C   0  0  0  0  0  2  0  0  0  0  0  0
  194.0580  173.8300  136.5660 C   0  0  0  0  0  0  0  0  0  0  0  0
  187.3890  178.4990  141.9730 C   0  0  0  0  0  2  0  0  0  0  0  0
  187.4850  176.9300  137.5880 C   0  0  0  0  0  2  0  0  0  0  0  0
  189.3930  177.7360  138.7510 C   0  0  2  0  0  3  0  0  0  0  0  0
  188.7000  176.5110  138.2980 N   0  0  2  0  0  0  0  0  0  0  0  0
  190.8870  175.3720  137.9510 C   0  0  1  0  0  3  0  0  0  0  0  0
  195.2720  174.1650  137.1480 C   0  0  0  0  0  3  0  0  0  0  0  0
  188.5320  175.9780  143.1890 C   0  0  0  0  0  2  0  0  0  0  0  0
  188.3310  177.7670  141.0330 C   0  0  2  0  0  3  0  0  0  0  0  0
  195.0830  175.1150  138.0980 N   0  0  0  0  0  2  0  0  0  0  0  0
  189.6510  176.9030  143.0250 N   0  0  0  0  0  2  0  0  0  0  0  0
  186.5420  177.4760  142.7250 C   0  0  2  0  0  3  0  0  0  0  0  0
  188.8030  174.4830  136.9050 C   0  0  0  0  0  2  0  0  0  0  0  0
  189.5360  175.7580  137.3370 C   0  0  1  0  0  3  0  0  0  0  0  0
  191.7050  174.6350  136.9840 N   0  0  0  0  0  2  0  0  0  0  0  0
  190.5650  176.6660  140.7450 C   0  0  0  0  0  2  0  0  0  0  0  0
  193.8280  177.6350  139.1160 C   0  0  0  0  0  1  0  0  0  0  0  0
  193.8340  172.8230  135.4930 C   0  0  0  0  0  1  0  0  0  0  0  0
  191.6250  176.6390  138.4350 C   0  0  1  0  0  3  0  0  0  0  0  0
  193.1140  174.5930  137.1940 C   0  0  0  0  0  0  0  0  0  0  0  0
  185.4160  178.1560  143.3480 N   0  0  0  0  0  2  0  0  0  0  0  0
  185.4470  178.6180  144.7000 C   0  0  0  0  0  0  0  0  0  0  0  0
  186.4620  178.4270  145.4220 O   0  0  0  0  0  0  0  0  0  0  0  0
  184.2680  179.3260  145.2610 C   0  0  0  0  0  1  0  0  0  0  0  0
  2 24  1  1  0  0  0
  3 11  1  0  0  0  0
  4 21  1  0  0  0  0
  4  3  1  0  0  0  0
  5 25  1  6  0  0  0
  6  5  1  0  0  0  0
  7 24  1  6  0  0  0
  7 19  1  0  0  0  0
  9 15  2  0  0  0  0
  9 28  1  0  0  0  0
 10 20  1  0  0  0  0
 12  2  1  0  0  0  0
 12  8  1  1  0  0  0
 13 11  1  6  0  0  0
 13 12  1  0  0  0  0
 14 23  1  6  0  0  0
 14 27  1  0  0  0  0
 15 18  1  0  0  0  0
 16  1  1  0  0  0  0
 17  8  1  6  0  0  0
 17  7  1  0  0  0  0
 17 10  1  0  0  0  0
 18  6  1  0  0  0  0
 19 16  1  0  0  0  0
 20 29  1  1  0  0  0
 20  1  1  0  0  0  0
 22 21  1  1  0  0  0
 22 14  1  0  0  0  0
 22 13  1  0  0  0  0
 23 28  1  0  0  0  0
 26  9  1  0  0  0  0
 27  5  1  0  0  0  0
 27  2  1  0  0  0  0
 28  6  2  0  0  0  0
 29 30  1  0  0  0  0
 30 32  1  0  0  0  0
 30 31  2  0  0  0  0
M  END
>  <MODEL>
3

>  <REMARK>
 VINA RESULT:      -6.7      1.214      1.347
  Name = 
  1 active torsions:
  status: ('A' for Active; 'I' for Inactive)
    1  A    between atoms: C_20  and  N_29
                            x       y       z     vdW  Elec       q    Type
                         _______ _______ _______ _____ _____    ______ ____

>  <TORSDO>
F 1

$$$$
=
 OpenBabel11122410393D

 32 37  0  0  1  0  0  0  0  0999 V2000
  183.5690  178.7330  143.2840 C   0  0  0  0  0  2  0  0  0  0  0  0
  185.1340  178.2570  137.9460 C   0  0  1  0  0  3  0  0  0  0  0  0
  181.5270  174.8650  138.1970 C   0  0  0  0  0  2  0  0  0  0  0  0
  182.3210  173.8910  137.3380 C   0  0  0  0  0  2  0  0  0  0  0  0
  187.4490  177.6780  137.0140 C   0  0  1  0  0  3  0  0  0  0  0  0
  188.2020  176.6210  136.2580 C   0  0  0  0  0  0  0  0  0  0  0  0
  184.7920  179.0560  140.2890 C   0  0  1  0  0  3  0  0  0  0  0  0
  182.8310  178.8610  138.7510 C   0  0  0  0  0  2  0  0  0  0  0  0
  188.6230  174.6820  135.3060 C   0  0  0  0  0  0  0  0  0  0  0  0
  182.4500  179.5130  141.1440 C   0  0  0  0  0  2  0  0  0  0  0  0
  181.9190  176.2890  137.8240 C   0  0  0  0  0  2  0  0  0  0  0  0
  183.6300  177.9370  137.8110 C   0  0  2  0  0  3  0  0  0  0  0  0
  183.3470  176.5110  138.0850 N   0  0  2  0  0  0  0  0  0  0  0  0
  185.6150  175.8800  137.2750 C   0  0  1  0  0  3  0  0  0  0  0  0
  189.7340  175.5080  135.2190 C   0  0  0  0  0  3  0  0  0  0  0  0
  184.7340  178.1000  142.5330 C   0  0  0  0  0  2  0  0  0  0  0  0
  183.3010  178.6920  140.1910 C   0  0  2  0  0  3  0  0  0  0  0  0
  189.4730  176.7000  135.8120 N   0  0  0  0  0  0  0  0  0  0  0  0
  185.3380  179.1000  141.6540 N   0  0  0  0  0  2  0  0  0  0  0  0
  182.2850  178.7440  142.4510 C   0  0  2  0  0  3  0  0  0  0  0  0
  183.8110  174.1690  137.4840 C   0  0  0  0  0  2  0  0  0  0  0  0
  184.1060  175.6380  137.1610 C   0  0  1  0  0  3  0  0  0  0  0  0
  186.3500  175.0130  136.3490 N   0  0  0  0  0  0  0  0  0  0  0  0
  185.6140  178.1300  139.4010 C   0  0  0  0  0  2  0  0  0  0  0  0
  187.7020  179.0420  136.3930 C   0  0  0  0  0  1  0  0  0  0  0  0
  188.5050  173.2920  134.7900 C   0  0  0  0  0  1  0  0  0  0  0  0
  185.9310  177.3650  136.9980 C   0  0  1  0  0  3  0  0  0  0  0  0
  187.6730  175.3970  135.9820 C   0  0  0  0  0  0  0  0  0  0  0  0
  181.2040  179.3410  143.2220 N   0  0  0  0  0  2  0  0  0  0  0  0
  179.9800  178.6550  143.4920 C   0  0  0  0  0  0  0  0  0  0  0  0
  179.7800  177.4950  143.0410 O   0  0  0  0  0  0  0  0  0  0  0  0
  178.9310  179.3180  144.3070 C   0  0  0  0  0  1  0  0  0  0  0  0
  2 24  1  1  0  0  0
  4 21  1  0  0  0  0
  4  3  1  0  0  0  0
  5 25  1  6  0  0  0
  6  5  1  0  0  0  0
  7 24  1  6  0  0  0
  7 19  1  0  0  0  0
  9 28  1  0  0  0  0
 10 20  1  0  0  0  0
 11  3  1  0  0  0  0
 12  2  1  0  0  0  0
 12 13  1  0  0  0  0
 12  8  1  1  0  0  0
 13 11  1  6  0  0  0
 14 23  1  6  0  0  0
 15  9  2  0  0  0  0
 15 18  1  0  0  0  0
 16  1  1  0  0  0  0
 17  8  1  6  0  0  0
 17  7  1  0  0  0  0
 17 10  1  0  0  0  0
 18  6  2  0  0  0  0
 19 16  1  0  0  0  0
 20 29  1  1  0  0  0
 20  1  1  0  0  0  0
 22 14  1  0  0  0  0
 22 21  1  1  0  0  0
 22 13  1  0  0  0  0
 26  9  1  0  0  0  0
 27  5  1  0  0  0  0
 27 14  1  0  0  0  0
 27  2  1  0  0  0  0
 28  6  1  0  0  0  0
 28 23  2  0  0  0  0
 29 30  1  0  0  0  0
 30 32  1  0  0  0  0
 31 30  2  0  0  0  0
M  END
>  <MODEL>
4

>  <REMARK>
 VINA RESULT:      -6.4      3.379      5.043
  Name = 
  1 active torsions:
  status: ('A' for Active; 'I' for Inactive)
    1  A    between atoms: C_20  and  N_29
                            x       y       z     vdW  Elec       q    Type
                         _______ _______ _______ _____ _____    ______ ____

>  <TORSDO>
F 1

$$$$
=
 OpenBabel11122410393D

 32 37  0  0  1  0  0  0  0  0999 V2000
  183.8380  178.7060  142.4450 C   0  0  0  0  0  2  0  0  0  0  0  0
  186.3240  177.8020  137.5280 C   0  0  1  0  0  3  0  0  0  0  0  0
  182.9860  174.1380  137.6050 C   0  0  0  0  0  2  0  0  0  0  0  0
  183.9850  173.1540  137.0110 C   0  0  0  0  0  2  0  0  0  0  0  0
  188.8000  177.3440  137.0590 C   0  0  1  0  0  3  0  0  0  0  0  0
  189.7480  176.2860  136.5690 C   0  0  0  0  0  0  0  0  0  0  0  0
  185.5290  178.8150  139.6690 C   0  0  1  0  0  3  0  0  0  0  0  0
  183.8790  178.2740  137.8700 C   0  0  0  0  0  2  0  0  0  0  0  0
  190.4660  174.3030  135.9410 C   0  0  0  0  0  0  0  0  0  0  0  0
  183.0480  179.1420  140.0730 C   0  0  0  0  0  2  0  0  0  0  0  0
  183.3310  175.5430  137.1290 C   0  0  0  0  0  2  0  0  0  0  0  0
  184.8930  177.3320  137.1920 C   0  0  2  0  0  3  0  0  0  0  0  0
  184.6730  175.9240  137.5880 N   0  0  2  0  0  0  0  0  0  0  0  0
  187.0860  175.4220  137.2380 C   0  0  1  0  0  3  0  0  0  0  0  0
  191.5120  175.2140  135.9340 C   0  0  0  0  0  3  0  0  0  0  0  0
  185.1580  178.1060  141.9740 C   0  0  0  0  0  2  0  0  0  0  0  0
  184.1080  178.3060  139.3770 C   0  0  2  0  0  3  0  0  0  0  0  0
  191.0660  176.4330  136.3280 N   0  0  0  0  0  0  0  0  0  0  0  0
  185.8280  179.0560  141.0890 N   0  0  0  0  0  2  0  0  0  0  0  0
  182.7190  178.5070  141.4200 C   0  0  2  0  0  3  0  0  0  0  0  0
  185.4030  173.5830  137.3600 C   0  0  0  0  0  2  0  0  0  0  0  0
  185.6400  175.0300  136.9120 C   0  0  1  0  0  3  0  0  0  0  0  0
  188.0310  174.5330  136.5550 N   0  0  0  0  0  0  0  0  0  0  0  0
  186.5560  177.8790  139.0450 C   0  0  0  0  0  2  0  0  0  0  0  0
  189.0550  178.6500  136.3250 C   0  0  0  0  0  1  0  0  0  0  0  0
  190.5400  172.8600  135.5860 C   0  0  0  0  0  1  0  0  0  0  0  0
  187.3350  176.8920  136.8370 C   0  0  1  0  0  3  0  0  0  0  0  0
  189.3640  174.9950  136.3630 C   0  0  0  0  0  0  0  0  0  0  0  0
  181.4810  179.0810  141.9280 N   0  0  0  0  0  2  0  0  0  0  0  0
  180.2030  178.4850  141.6940 C   0  0  0  0  0  0  0  0  0  0  0  0
  180.0990  177.4360  141.0050 O   0  0  0  0  0  0  0  0  0  0  0  0
  178.9850  179.1140  142.2650 C   0  0  0  0  0  1  0  0  0  0  0  0
  2 24  1  1  0  0  0
  4 21  1  0  0  0  0
  4  3  1  0  0  0  0
  5 25  1  6  0  0  0
  6  5  1  0  0  0  0
  7 24  1  1  0  0  0
  7 19  1  0  0  0  0
  9 28  1  0  0  0  0
 10 20  1  0  0  0  0
 11  3  1  0  0  0  0
 12  2  1  0  0  0  0
 12 13  1  0  0  0  0
 12  8  1  1  0  0  0
 13 11  1  6  0  0  0
 14 23  1  6  0  0  0
 15  9  2  0  0  0  0
 15 18  1  0  0  0  0
 16  1  1  0  0  0  0
 17  8  1  6  0  0  0
 17  7  1  0  0  0  0
 17 10  1  0  0  0  0
 18  6  2  0  0  0  0
 19 16  1  0  0  0  0
 20 29  1  1  0  0  0
 20  1  1  0  0  0  0
 22 14  1  0  0  0  0
 22 21  1  1  0  0  0
 22 13  1  0  0  0  0
 26  9  1  0  0  0  0
 27  5  1  0  0  0  0
 27 14  1  0  0  0  0
 27  2  1  0  0  0  0
 28 23  2  0  0  0  0
 28  6  1  0  0  0  0
 30 29  1  0  0  0  0
 30 32  1  0  0  0  0
 31 30  2  0  0  0  0
M  END
>  <MODEL>
5

>  <REMARK>
 VINA RESULT:      -6.0      2.710      4.087
  Name = 
  1 active torsions:
  status: ('A' for Active; 'I' for Inactive)
    1  A    between atoms: C_20  and  N_29
                            x       y       z     vdW  Elec       q    Type
                         _______ _______ _______ _____ _____    ______ ____

>  <TORSDO>
F 1

$$$$
=
 OpenBabel11122410393D

 32 37  0  0  1  0  0  0  0  0999 V2000
  187.4610  178.2530  140.0300 C   0  0  0  0  0  2  0  0  0  0  0  0
  191.0930  176.2660  136.2840 C   0  0  1  0  0  3  0  0  0  0  0  0
  187.1400  173.4080  135.4000 C   0  0  0  0  0  2  0  0  0  0  0  0
  188.0140  172.1750  135.2230 C   0  0  0  0  0  2  0  0  0  0  0  0
  193.4090  175.2510  136.6980 C   0  0  1  0  0  3  0  0  0  0  0  0
  194.1850  173.9690  136.6040 C   0  0  0  0  0  0  0  0  0  0  0  0
  189.9210  177.6730  137.9840 C   0  0  1  0  0  3  0  0  0  0  0  0
  188.8490  177.2710  135.7620 C   0  0  0  0  0  2  0  0  0  0  0  0
  194.5770  171.8190  136.3460 C   0  0  0  0  0  0  0  0  0  0  0  0
  187.5910  178.5520  137.5140 C   0  0  0  0  0  2  0  0  0  0  0  0
  187.9380  174.6440  135.0040 C   0  0  0  0  0  2  0  0  0  0  0  0
  189.7740  176.0640  135.5080 C   0  0  2  0  0  3  0  0  0  0  0  0
  189.1150  174.7910  135.8700 N   0  0  2  0  0  0  0  0  0  0  0  0
  191.3250  173.7620  136.3770 C   0  0  1  0  0  3  0  0  0  0  0  0
  195.7550  172.4850  136.6500 C   0  0  0  0  0  3  0  0  0  0  0  0
  188.6820  177.3410  140.0600 C   0  0  0  0  0  2  0  0  0  0  0  0
  188.5880  177.4370  137.2540 C   0  0  2  0  0  3  0  0  0  0  0  0
  195.5080  173.8100  136.8150 N   0  0  0  0  0  2  0  0  0  0  0  0
  189.8030  178.0170  139.4090 N   0  0  0  0  0  2  0  0  0  0  0  0
  186.7120  178.1680  138.6990 C   0  0  2  0  0  3  0  0  0  0  0  0
  189.3070  172.3400  136.0090 C   0  0  0  0  0  2  0  0  0  0  0  0
  190.0070  173.6410  135.6020 C   0  0  1  0  0  3  0  0  0  0  0  0
  192.1990  172.6200  136.0930 N   0  0  0  0  0  2  0  0  0  0  0  0
  190.8420  176.4760  137.7860 C   0  0  0  0  0  2  0  0  0  0  0  0
  194.1830  176.3780  136.0330 C   0  0  0  0  0  1  0  0  0  0  0  0
  194.4190  170.3590  136.1030 C   0  0  0  0  0  1  0  0  0  0  0  0
  192.0270  175.0880  136.0160 C   0  0  1  0  0  3  0  0  0  0  0  0
  193.5950  172.7700  136.3400 C   0  0  0  0  0  0  0  0  0  0  0  0
  185.5480  179.0420  138.7340 N   0  0  0  0  0  2  0  0  0  0  0  0
  184.2090  178.5450  138.7080 C   0  0  0  0  0  0  0  0  0  0  0  0
  183.9840  177.3080  138.6270 O   0  0  0  0  0  0  0  0  0  0  0  0
  183.0710  179.4960  138.7710 C   0  0  0  0  0  1  0  0  0  0  0  0
  1 16  1  0  0  0  0
  2 24  1  1  0  0  0
  4  3  1  0  0  0  0
  4 21  1  0  0  0  0
  5 25  1  6  0  0  0
  6  5  1  0  0  0  0
  6 18  1  0  0  0  0
  7 24  1  1  0  0  0
  7 19  1  0  0  0  0
  9 15  2  0  0  0  0
 10 20  1  0  0  0  0
 11  3  1  0  0  0  0
 12  8  1  1  0  0  0
 12 13  1  0  0  0  0
 12  2  1  0  0  0  0
 13 11  1  6  0  0  0
 14 23  1  6  0  0  0
 15 18  1  0  0  0  0
 17  8  1  6  0  0  0
 17 10  1  0  0  0  0
 17  7  1  0  0  0  0
 19 16  1  0  0  0  0
 20 29  1  1  0  0  0
 20  1  1  0  0  0  0
 22 13  1  0  0  0  0
 22 21  1  1  0  0  0
 22 14  1  0  0  0  0
 23 28  1  0  0  0  0
 26  9  1  0  0  0  0
 27  2  1  0  0  0  0
 27 14  1  0  0  0  0
 27  5  1  0  0  0  0
 28  9  1  0  0  0  0
 28  6  2  0  0  0  0
 30 29  1  0  0  0  0
 30 32  1  0  0  0  0
 31 30  2  0  0  0  0
M  END
>  <MODEL>
6

>  <REMARK>
 VINA RESULT:      -5.9      2.415      3.087
  Name = 
  1 active torsions:
  status: ('A' for Active; 'I' for Inactive)
    1  A    between atoms: C_20  and  N_29
                            x       y       z     vdW  Elec       q    Type
                         _______ _______ _______ _____ _____    ______ ____

>  <TORSDO>
F 1

$$$$
=
 OpenBabel11122410393D

 32 37  0  0  1  0  0  0  0  0999 V2000
  196.3020  176.2640  134.6610 C   0  0  0  0  0  2  0  0  0  0  0  0
  191.7720  175.5920  137.8550 C   0  0  1  0  0  3  0  0  0  0  0  0
  191.3020  171.7910  134.7080 C   0  0  0  0  0  2  0  0  0  0  0  0
  189.8000  172.0110  134.5940 C   0  0  0  0  0  2  0  0  0  0  0  0
  189.8510  177.2390  138.2570 C   0  0  1  0  0  3  0  0  0  0  0  0
  188.3840  177.4460  138.0100 C   0  0  0  0  0  0  0  0  0  0  0  0
  193.9850  176.3080  136.9420 C   0  0  1  0  0  3  0  0  0  0  0  0
  193.6170  173.9120  137.5560 C   0  0  0  0  0  2  0  0  0  0  0  0
  186.3740  177.1170  137.1760 C   0  0  0  0  0  0  0  0  0  0  0  0
  195.7890  174.5850  136.4940 C   0  0  0  0  0  2  0  0  0  0  0  0
  191.7710  172.2660  136.0770 C   0  0  0  0  0  2  0  0  0  0  0  0
  192.0900  174.1170  137.5320 C   0  0  2  0  0  3  0  0  0  0  0  0
  191.5080  173.7020  136.2370 N   0  0  2  0  0  0  0  0  0  0  0  0
  189.6560  175.3430  136.5150 C   0  0  1  0  0  3  0  0  0  0  0  0
  186.3760  178.2430  137.9850 C   0  0  0  0  0  3  0  0  0  0  0  0
  194.9330  176.9250  134.7810 C   0  0  0  0  0  2  0  0  0  0  0  0
  194.2950  174.8500  136.5640 C   0  0  2  0  0  3  0  0  0  0  0  0
  187.6190  178.4470  138.4910 N   0  0  0  0  0  2  0  0  0  0  0  0
  194.7130  177.3250  136.1690 N   0  0  0  0  0  2  0  0  0  0  0  0
  196.2640  174.7870  135.0580 C   0  0  2  0  0  3  0  0  0  0  0  0
  189.4690  173.4700  134.8760 C   0  0  0  0  0  2  0  0  0  0  0  0
  190.0390  173.8850  136.2380 C   0  0  1  0  0  3  0  0  0  0  0  0
  188.1990  175.5040  136.5200 N   0  0  0  0  0  2  0  0  0  0  0  0
  192.4820  176.5520  136.8870 C   0  0  0  0  0  2  0  0  0  0  0  0
  190.1720  177.4840  139.7220 C   0  0  0  0  0  1  0  0  0  0  0  0
  185.2140  176.5610  136.4270 C   0  0  0  0  0  1  0  0  0  0  0  0
  190.2590  175.7970  137.8620 C   0  0  1  0  0  3  0  0  0  0  0  0
  187.6550  176.6380  137.1900 C   0  0  0  0  0  0  0  0  0  0  0  0
  197.5890  174.2040  134.9080 N   0  0  0  0  0  2  0  0  0  0  0  0
  197.8010  172.7970  134.7750 C   0  0  0  0  0  0  0  0  0  0  0  0
  196.8310  171.9940  134.8090 O   0  0  0  0  0  0  0  0  0  0  0  0
  199.1800  172.2750  134.5990 C   0  0  0  0  0  1  0  0  0  0  0  0
  1 16  1  0  0  0  0
  1 20  1  0  0  0  0
  2 24  1  6  0  0  0
  2 27  1  0  0  0  0
  3 11  1  0  0  0  0
  4  3  1  0  0  0  0
  4 21  1  0  0  0  0
  5 25  1  1  0  0  0
  6  5  1  0  0  0  0
  6 18  1  0  0  0  0
  7 24  1  6  0  0  0
  9 28  1  0  0  0  0
  9 15  2  0  0  0  0
 12  8  1  6  0  0  0
 12  2  1  0  0  0  0
 13 11  1  1  0  0  0
 13 22  1  0  0  0  0
 13 12  1  0  0  0  0
 14 23  1  1  0  0  0
 14 27  1  0  0  0  0
 15 18  1  0  0  0  0
 16 19  1  0  0  0  0
 17 10  1  1  0  0  0
 17  7  1  0  0  0  0
 17  8  1  0  0  0  0
 19  7  1  0  0  0  0
 20 29  1  1  0  0  0
 20 10  1  0  0  0  0
 22 21  1  6  0  0  0
 22 14  1  0  0  0  0
 23 28  1  0  0  0  0
 26  9  1  0  0  0  0
 27  5  1  0  0  0  0
 28  6  2  0  0  0  0
 30 31  2  0  0  0  0
 30 29  1  0  0  0  0
 32 30  1  0  0  0  0
M  END
>  <MODEL>
7

>  <REMARK>
 VINA RESULT:      -5.5      3.900      8.709
  Name = 
  1 active torsions:
  status: ('A' for Active; 'I' for Inactive)
    1  A    between atoms: C_20  and  N_29
                            x       y       z     vdW  Elec       q    Type
                         _______ _______ _______ _____ _____    ______ ____

>  <TORSDO>
F 1

$$$$
=
 OpenBabel11122410393D

 32 37  0  0  1  0  0  0  0  0999 V2000
  190.3390  175.8520  144.2540 C   0  0  0  0  0  2  0  0  0  0  0  0
  188.2910  178.6290  139.8640 C   0  0  1  0  0  3  0  0  0  0  0  0
  184.4550  178.8220  142.9980 C   0  0  0  0  0  2  0  0  0  0  0  0
  183.4630  178.5740  141.8710 C   0  0  0  0  0  2  0  0  0  0  0  0
  188.0080  177.8080  137.4550 C   0  0  1  0  0  3  0  0  0  0  0  0
  186.9700  177.4700  136.4220 C   0  0  0  0  0  0  0  0  0  0  0  0
  189.8030  177.4950  141.5000 C   0  0  1  0  0  3  0  0  0  0  0  0
  188.5530  179.5480  142.1890 C   0  0  0  0  0  2  0  0  0  0  0  0
  184.9890  177.0490  135.5610 C   0  0  0  0  0  0  0  0  0  0  0  0
  189.9420  178.3310  143.8880 C   0  0  0  0  0  2  0  0  0  0  0  0
  185.6810  179.5280  142.4340 C   0  0  0  0  0  2  0  0  0  0  0  0
  187.5760  179.3780  141.0090 C   0  0  2  0  0  3  0  0  0  0  0  0
  186.3380  178.6850  141.4260 N   0  0  2  0  0  0  0  0  0  0  0  0
  186.0420  177.7760  139.1280 C   0  0  1  0  0  3  0  0  0  0  0  0
  185.9720  176.8970  134.5940 C   0  0  0  0  0  3  0  0  0  0  0  0
  189.7850  175.4850  142.8810 C   0  0  0  0  0  2  0  0  0  0  0  0
  189.0650  178.1900  142.6560 C   0  0  2  0  0  3  0  0  0  0  0  0
  187.1920  177.1520  135.1300 N   0  0  0  0  0  0  0  0  0  0  0  0
  190.4950  176.2480  141.8570 N   0  0  0  0  0  2  0  0  0  0  0  0
  189.7100  177.1340  144.8040 C   0  0  2  0  0  3  0  0  0  0  0  0
  184.1410  177.8060  140.7450 C   0  0  0  0  0  2  0  0  0  0  0  0
  185.4030  178.5480  140.2880 C   0  0  1  0  0  3  0  0  0  0  0  0
  185.1050  177.6570  138.0060 N   0  0  0  0  0  0  0  0  0  0  0  0
  188.8490  177.2760  140.3320 C   0  0  0  0  0  2  0  0  0  0  0  0
  189.0510  178.7380  136.8580 C   0  0  0  0  0  1  0  0  0  0  0  0
  183.5260  176.8500  135.3810 C   0  0  0  0  0  1  0  0  0  0  0  0
  187.3400  178.4810  138.6800 C   0  0  1  0  0  3  0  0  0  0  0  0
  185.6420  177.3920  136.7130 C   0  0  0  0  0  0  0  0  0  0  0  0
  190.2600  177.4250  146.1200 N   0  0  0  0  0  2  0  0  0  0  0  0
  189.4380  177.7310  147.2480 C   0  0  0  0  0  0  0  0  0  0  0  0
  188.1850  177.7840  147.1350 O   0  0  0  0  0  0  0  0  0  0  0  0
  190.0690  177.9930  148.5670 C   0  0  0  0  0  1  0  0  0  0  0  0
  1 20  1  0  0  0  0
  2 24  1  1  0  0  0
  2 12  1  0  0  0  0
  4  3  1  0  0  0  0
  5 25  1  6  0  0  0
  5 27  1  0  0  0  0
  6 28  1  0  0  0  0
  6  5  1  0  0  0  0
  7 24  1  6  0  0  0
  7 19  1  0  0  0  0
  7 17  1  0  0  0  0
  9 28  1  0  0  0  0
 10 20  1  0  0  0  0
 11  3  1  0  0  0  0
 12 13  1  0  0  0  0
 12  8  1  1  0  0  0
 13 11  1  1  0  0  0
 14 23  1  6  0  0  0
 14 22  1  0  0  0  0
 15 18  1  0  0  0  0
 15  9  2  0  0  0  0
 16  1  1  0  0  0  0
 17  8  1  6  0  0  0
 17 10  1  0  0  0  0
 18  6  2  0  0  0  0
 19 16  1  0  0  0  0
 20 29  1  1  0  0  0
 21  4  1  0  0  0  0
 22 21  1  1  0  0  0
 22 13  1  0  0  0  0
 26  9  1  0  0  0  0
 27 14  1  0  0  0  0
 27  2  1  0  0  0  0
 28 23  2  0  0  0  0
 29 30  1  0  0  0  0
 30 32  1  0  0  0  0
 31 30  2  0  0  0  0
M  END
>  <MODEL>
8

>  <REMARK>
 VINA RESULT:      -5.4      3.903      5.717
  Name = 
  1 active torsions:
  status: ('A' for Active; 'I' for Inactive)
    1  A    between atoms: C_20  and  N_29
                            x       y       z     vdW  Elec       q    Type
                         _______ _______ _______ _____ _____    ______ ____

>  <TORSDO>
F 1

$$$$
