=
 OpenBabel11122411143D

 31 35  0  0  1  0  0  0  0  0999 V2000
  191.5270  176.5160  144.8640 C   0  0  1  0  0  3  0  0  0  0  0  0
  187.7570  176.8630  143.8640 C   0  0  2  0  0  3  0  0  0  0  0  0
  187.1400  177.6920  144.9860 C   0  0  0  0  0  0  0  0  0  0  0  0
  187.0730  178.3640  147.3270 C   0  0  0  0  0  0  0  0  0  0  0  0
  189.2970  176.8930  143.7600 C   0  0  2  0  0  3  0  0  0  0  0  0
  191.9410  177.9270  144.4720 C   0  0  0  0  0  2  0  0  0  0  0  0
  187.6870  177.6750  146.2790 C   0  0  0  0  0  3  0  0  0  0  0  0
  187.7760  178.5600  141.9620 C   0  0  2  0  0  3  0  0  0  0  0  0
  192.1410  176.1680  146.0510 F   0  0  0  0  0  0  0  0  0  0  0  0
  185.2780  178.4240  143.4250 C   0  0  0  0  0  2  0  0  0  0  0  0
  187.7920  178.3460  148.9220 Cl  0  0  0  0  0  0  0  0  0  0  0  0
  189.2330  178.4610  141.8870 N   0  0  0  0  0  2  0  0  0  0  0  0
  187.1660  177.2450  142.4950 C   0  0  2  0  0  3  0  0  0  0  0  0
  190.0160  176.4480  145.0360 C   0  0  0  0  0  2  0  0  0  0  0  0
  185.8860  179.0600  147.1030 C   0  0  0  0  0  3  0  0  0  0  0  0
  189.7810  178.2530  143.2270 C   0  0  2  0  0  3  0  0  0  0  0  0
  191.3050  178.2930  143.1370 C   0  0  0  0  0  2  0  0  0  0  0  0
  185.7020  177.3090  142.5740 N   0  0  0  0  0  2  0  0  0  0  0  0
  185.9130  178.3640  144.7810 C   0  0  0  0  0  0  0  0  0  0  0  0
  185.3090  179.0610  145.8330 C   0  0  0  0  0  3  0  0  0  0  0  0
  188.4690  177.1830  139.5660 O   0  0  0  0  0  0  0  0  0  0  0  0
  187.6270  178.1190  139.4790 C   0  0  0  0  0  0  0  0  0  0  0  0
  187.2410  178.8540  140.6410 N   0  0  0  0  0  2  0  0  0  0  0  0
  187.6290  176.6090  136.1030 C   0  0  1  0  0  3  0  0  0  0  0  0
  186.1240  177.3530  137.6230 C   0  0  0  0  0  2  0  0  0  0  0  0
  189.0320  179.7160  137.5940 O   0  0  0  0  0  1  0  0  0  0  0  0
  188.2640  175.3790  135.4900 C   0  0  0  0  0  1  0  0  0  0  0  0
  186.8970  176.2360  137.2470 O   0  0  0  0  0  0  0  0  0  0  0  0
  188.0640  178.8490  137.0850 C   0  0  2  0  0  3  0  0  0  0  0  0
  187.0210  178.4790  138.1540 C   0  0  2  0  0  3  0  0  0  0  0  0
  188.7200  177.6070  136.4860 C   0  0  0  0  0  2  0  0  0  0  0  0
  1 14  1  0  0  0  0
  1  9  1  1  0  0  0
  2  3  1  1  0  0  0
  3  7  1  0  0  0  0
  4 11  1  0  0  0  0
  5  2  1  0  0  0  0
  5 14  1  1  0  0  0
  6  1  1  0  0  0  0
  7  4  2  0  0  0  0
  8 23  1  6  0  0  0
  8 13  1  0  0  0  0
 10 19  1  0  0  0  0
 12  8  1  0  0  0  0
 12 16  1  0  0  0  0
 13 18  1  1  0  0  0
 13  2  1  0  0  0  0
 15  4  1  0  0  0  0
 16 17  1  6  0  0  0
 16  5  1  0  0  0  0
 17  6  1  0  0  0  0
 18 10  1  0  0  0  0
 19  3  2  0  0  0  0
 19 20  1  0  0  0  0
 20 15  2  0  0  0  0
 22 21  2  0  0  0  0
 22 23  1  0  0  0  0
 24 27  1  1  0  0  0
 24 31  1  0  0  0  0
 24 28  1  0  0  0  0
 25 30  1  0  0  0  0
 28 25  1  0  0  0  0
 29 26  1  1  0  0  0
 29 30  1  0  0  0  0
 30 22  1  1  0  0  0
 31 29  1  0  0  0  0
M  END
>  <MODEL>
1

>  <REMARK>
 VINA RESULT:      -9.8      0.000      0.000
  Name = 
  2 active torsions:
  status: ('A' for Active; 'I' for Inactive)
    1  A    between atoms: C_5  and  C_30
    2  A    between atoms: C_10  and  N_16
                            x       y       z     vdW  Elec       q    Type
                         _______ _______ _______ _____ _____    ______ ____

>  <TORSDO>
F 2

$$$$
=
 OpenBabel11122411143D

 31 35  0  0  1  0  0  0  0  0999 V2000
  190.0050  176.0110  142.5760 C   0  0  1  0  0  3  0  0  0  0  0  0
  186.5280  177.0420  144.0520 C   0  0  2  0  0  3  0  0  0  0  0  0
  186.8650  177.7660  145.3510 C   0  0  0  0  0  0  0  0  0  0  0  0
  188.3100  178.0700  147.2880 C   0  0  0  0  0  0  0  0  0  0  0  0
  187.6860  176.8690  143.0460 C   0  0  2  0  0  3  0  0  0  0  0  0
  190.3950  177.3930  142.0700 C   0  0  0  0  0  2  0  0  0  0  0  0
  188.0430  177.4720  146.0550 C   0  0  0  0  0  3  0  0  0  0  0  0
  185.7890  178.9930  142.5870 C   0  0  2  0  0  3  0  0  0  0  0  0
  191.1060  175.4000  143.1430 F   0  0  0  0  0  0  0  0  0  0  0  0
  184.6430  178.9890  145.2490 C   0  0  0  0  0  2  0  0  0  0  0  0
  189.7990  177.7020  148.1320 Cl  0  0  0  0  0  0  0  0  0  0  0  0
  186.8730  178.7010  141.6500 N   0  0  0  0  0  2  0  0  0  0  0  0
  185.3470  177.7120  143.3260 C   0  0  2  0  0  3  0  0  0  0  0  0
  188.9010  176.1330  143.6180 C   0  0  0  0  0  2  0  0  0  0  0  0
  187.3890  178.9540  147.8490 C   0  0  0  0  0  3  0  0  0  0  0  0
  188.0390  178.2120  142.3830 C   0  0  2  0  0  3  0  0  0  0  0  0
  189.1950  178.0480  141.3990 C   0  0  0  0  0  2  0  0  0  0  0  0
  184.2520  177.9710  144.2700 N   0  0  0  0  0  2  0  0  0  0  0  0
  185.9190  178.6290  145.9500 C   0  0  0  0  0  0  0  0  0  0  0  0
  186.1970  179.2340  147.1800 C   0  0  0  0  0  3  0  0  0  0  0  0
  183.9790  177.5230  140.9490 O   0  0  0  0  0  0  0  0  0  0  0  0
  183.7870  178.7660  141.0630 C   0  0  0  0  0  0  0  0  0  0  0  0
  184.6610  179.5610  141.8630 N   0  0  0  0  0  2  0  0  0  0  0  0
  181.6020  177.8750  138.2160 C   0  0  1  0  0  3  0  0  0  0  0  0
  181.3880  178.5420  140.3690 C   0  0  0  0  0  2  0  0  0  0  0  0
  184.2110  180.4570  138.8190 O   0  0  0  0  0  1  0  0  0  0  0  0
  181.5150  176.6940  137.2710 C   0  0  0  0  0  1  0  0  0  0  0  0
  181.5670  177.4120  139.5450 O   0  0  0  0  0  0  0  0  0  0  0  0
  182.9670  179.8310  138.9080 C   0  0  2  0  0  3  0  0  0  0  0  0
  182.6410  179.4280  140.3560 C   0  0  2  0  0  3  0  0  0  0  0  0
  182.9030  178.6340  137.9620 C   0  0  0  0  0  2  0  0  0  0  0  0
  1  9  1  1  0  0  0
  1 14  1  0  0  0  0
  2  3  1  1  0  0  0
  3 19  2  0  0  0  0
  3  7  1  0  0  0  0
  4 15  1  0  0  0  0
  4 11  1  0  0  0  0
  5 14  1  1  0  0  0
  5  2  1  0  0  0  0
  6  1  1  0  0  0  0
  7  4  2  0  0  0  0
  8 23  1  6  0  0  0
  8 13  1  0  0  0  0
 10 19  1  0  0  0  0
 12 16  1  0  0  0  0
 12  8  1  0  0  0  0
 13  2  1  0  0  0  0
 13 18  1  1  0  0  0
 16 17  1  6  0  0  0
 16  5  1  0  0  0  0
 17  6  1  0  0  0  0
 18 10  1  0  0  0  0
 19 20  1  0  0  0  0
 20 15  2  0  0  0  0
 21 22  2  0  0  0  0
 22 23  1  0  0  0  0
 24 27  1  6  0  0  0
 24 28  1  0  0  0  0
 28 25  1  0  0  0  0
 29 26  1  1  0  0  0
 29 30  1  0  0  0  0
 30 25  1  0  0  0  0
 30 22  1  6  0  0  0
 31 24  1  0  0  0  0
 31 29  1  0  0  0  0
M  END
>  <MODEL>
2

>  <REMARK>
 VINA RESULT:      -9.1      3.007      3.632
  Name = 
  2 active torsions:
  status: ('A' for Active; 'I' for Inactive)
    1  A    between atoms: C_5  and  C_30
    2  A    between atoms: C_10  and  N_16
                            x       y       z     vdW  Elec       q    Type
                         _______ _______ _______ _____ _____    ______ ____

>  <TORSDO>
F 2

$$$$
=
 OpenBabel11122411143D

 31 35  0  0  1  0  0  0  0  0999 V2000
  190.9060  176.7510  145.3790 C   0  0  1  0  0  3  0  0  0  0  0  0
  187.6870  177.0920  143.1770 C   0  0  2  0  0  3  0  0  0  0  0  0
  186.7430  177.9530  144.0110 C   0  0  0  0  0  0  0  0  0  0  0  0
  185.9130  178.6850  146.1810 C   0  0  0  0  0  0  0  0  0  0  0  0
  189.1740  177.1120  143.5890 C   0  0  2  0  0  3  0  0  0  0  0  0
  191.4460  178.1500  145.1140 C   0  0  0  0  0  2  0  0  0  0  0  0
  186.8300  177.9660  145.4120 C   0  0  0  0  0  3  0  0  0  0  0  0
  188.3580  178.7390  141.3510 C   0  0  2  0  0  3  0  0  0  0  0  0
  191.0870  176.4310  146.7100 F   0  0  0  0  0  0  0  0  0  0  0  0
  185.5140  178.6530  141.9040 C   0  0  0  0  0  2  0  0  0  0  0  0
  186.0610  178.7040  147.9250 Cl  0  0  0  0  0  0  0  0  0  0  0  0
  189.7560  178.6310  141.7670 N   0  0  0  0  0  2  0  0  0  0  0  0
  187.5890  177.4420  141.6800 C   0  0  2  0  0  3  0  0  0  0  0  0
  189.4230  176.6960  145.0410 C   0  0  0  0  0  2  0  0  0  0  0  0
  184.8760  179.3810  145.5600 C   0  0  0  0  0  3  0  0  0  0  0  0
  189.8250  178.4550  143.2160 C   0  0  2  0  0  3  0  0  0  0  0  0
  191.2940  178.4840  143.6360 C   0  0  0  0  0  2  0  0  0  0  0  0
  186.1820  177.5150  141.2670 N   0  0  0  0  0  2  0  0  0  0  0  0
  185.6630  178.6250  143.3960 C   0  0  0  0  0  0  0  0  0  0  0  0
  184.7530  179.3520  144.1700 C   0  0  0  0  0  3  0  0  0  0  0  0
  189.4510  177.0620  139.3240 O   0  0  0  0  0  0  0  0  0  0  0  0
  188.8600  178.1140  138.9550 C   0  0  0  0  0  0  0  0  0  0  0  0
  188.2960  179.0020  139.9200 N   0  0  0  0  0  2  0  0  0  0  0  0
  187.1130  176.6310  136.0530 C   0  0  1  0  0  3  0  0  0  0  0  0
  187.2800  178.6410  137.0800 C   0  0  0  0  0  2  0  0  0  0  0  0
  190.6750  177.0550  137.0420 O   0  0  0  0  0  1  0  0  0  0  0  0
  186.2360  175.4140  135.8490 C   0  0  0  0  0  1  0  0  0  0  0  0
  186.5930  177.4110  137.1030 O   0  0  0  0  0  0  0  0  0  0  0  0
  189.4100  177.4180  136.5750 C   0  0  2  0  0  3  0  0  0  0  0  0
  188.7450  178.4530  137.4970 C   0  0  2  0  0  3  0  0  0  0  0  0
  188.5340  176.1810  136.3910 C   0  0  0  0  0  2  0  0  0  0  0  0
  1  9  1  1  0  0  0
  2  5  1  0  0  0  0
  2  3  1  1  0  0  0
  3  7  1  0  0  0  0
  4 11  1  0  0  0  0
  5 14  1  1  0  0  0
  6  1  1  0  0  0  0
  7  4  2  0  0  0  0
  8 23  1  6  0  0  0
  8 13  1  0  0  0  0
  8 12  1  0  0  0  0
 10 19  1  0  0  0  0
 12 16  1  0  0  0  0
 13 18  1  1  0  0  0
 13  2  1  0  0  0  0
 14  1  1  0  0  0  0
 15  4  1  0  0  0  0
 16  5  1  0  0  0  0
 16 17  1  6  0  0  0
 17  6  1  0  0  0  0
 18 10  1  0  0  0  0
 19  3  2  0  0  0  0
 19 20  1  0  0  0  0
 20 15  2  0  0  0  0
 22 21  2  0  0  0  0
 22 23  1  0  0  0  0
 24 27  1  1  0  0  0
 24 31  1  0  0  0  0
 24 28  1  0  0  0  0
 25 28  1  0  0  0  0
 25 30  1  0  0  0  0
 29 26  1  1  0  0  0
 29 30  1  0  0  0  0
 30 22  1  1  0  0  0
 31 29  1  0  0  0  0
M  END
>  <MODEL>
3

>  <REMARK>
 VINA RESULT:      -7.4      1.185      1.420
  Name = 
  2 active torsions:
  status: ('A' for Active; 'I' for Inactive)
    1  A    between atoms: C_5  and  C_30
    2  A    between atoms: C_10  and  N_16
                            x       y       z     vdW  Elec       q    Type
                         _______ _______ _______ _____ _____    ______ ____

>  <TORSDO>
F 2

$$$$
=
 OpenBabel11122411143D

 31 35  0  0  1  0  0  0  0  0999 V2000
  184.1220  178.4910  144.1010 C   0  0  1  0  0  3  0  0  0  0  0  0
  182.9640  177.8040  140.4250 C   0  0  2  0  0  3  0  0  0  0  0  0
  181.8470  178.8140  140.1820 C   0  0  0  0  0  0  0  0  0  0  0  0
  179.9980  180.1620  141.0170 C   0  0  0  0  0  0  0  0  0  0  0  0
  183.8890  178.0840  141.6290 C   0  0  2  0  0  3  0  0  0  0  0  0
  184.9090  179.7590  143.8010 C   0  0  0  0  0  2  0  0  0  0  0  0
  181.0760  179.3050  141.2470 C   0  0  0  0  0  3  0  0  0  0  0  0
  184.8290  178.7910  138.9940 C   0  0  2  0  0  3  0  0  0  0  0  0
  183.4180  178.6520  145.2780 F   0  0  0  0  0  0  0  0  0  0  0  0
  182.2490  178.6620  137.6810 C   0  0  0  0  0  2  0  0  0  0  0  0
  179.0690  180.7780  142.3670 Cl  0  0  0  0  0  0  0  0  0  0  0  0
  185.6620  178.9450  140.1860 N   0  0  0  0  0  2  0  0  0  0  0  0
  183.8370  177.6210  139.1700 C   0  0  2  0  0  3  0  0  0  0  0  0
  183.1510  178.2020  142.9650 C   0  0  0  0  0  2  0  0  0  0  0  0
  179.6580  180.5210  139.7130 C   0  0  0  0  0  3  0  0  0  0  0  0
  184.8210  179.2730  141.3360 C   0  0  2  0  0  3  0  0  0  0  0  0
  185.7270  179.5630  142.5310 C   0  0  0  0  0  2  0  0  0  0  0  0
  182.9900  177.4350  137.9850 N   0  0  0  0  0  2  0  0  0  0  0  0
  181.4660  179.1490  138.8620 C   0  0  0  0  0  0  0  0  0  0  0  0
  180.3910  180.0160  138.6390 C   0  0  0  0  0  3  0  0  0  0  0  0
  187.3520  177.4690  139.0520 O   0  0  0  0  0  0  0  0  0  0  0  0
  186.9310  177.8750  137.9340 C   0  0  0  0  0  0  0  0  0  0  0  0
  185.6780  178.5510  137.8360 N   0  0  0  0  0  2  0  0  0  0  0  0
  190.0220  176.0180  137.1140 C   0  0  1  0  0  3  0  0  0  0  0  0
  187.8890  176.1660  136.3690 C   0  0  0  0  0  2  0  0  0  0  0  0
  189.0710  179.6130  137.2430 O   0  0  0  0  0  1  0  0  0  0  0  0
  191.0000  175.1790  137.9090 C   0  0  0  0  0  1  0  0  0  0  0  0
  188.7160  175.5310  137.3170 O   0  0  0  0  0  0  0  0  0  0  0  0
  189.1350  178.3090  136.7480 C   0  0  2  0  0  3  0  0  0  0  0  0
  187.7420  177.6590  136.6900 C   0  0  2  0  0  3  0  0  0  0  0  0
  190.1130  177.4730  137.5710 C   0  0  0  0  0  2  0  0  0  0  0  0
  1  9  1  1  0  0  0
  2  3  1  6  0  0  0
  2  5  1  0  0  0  0
  3  7  1  0  0  0  0
  4  7  2  0  0  0  0
  4 11  1  0  0  0  0
  5 14  1  1  0  0  0
  6  1  1  0  0  0  0
  8 23  1  6  0  0  0
  8 13  1  0  0  0  0
  8 12  1  0  0  0  0
 10 18  1  0  0  0  0
 10 19  1  0  0  0  0
 12 16  1  0  0  0  0
 13 18  1  6  0  0  0
 13  2  1  0  0  0  0
 14  1  1  0  0  0  0
 15  4  1  0  0  0  0
 16  5  1  0  0  0  0
 16 17  1  1  0  0  0
 17  6  1  0  0  0  0
 19  3  2  0  0  0  0
 20 19  1  0  0  0  0
 20 15  2  0  0  0  0
 22 21  2  0  0  0  0
 23 22  1  0  0  0  0
 24 28  1  0  0  0  0
 24 31  1  0  0  0  0
 24 27  1  1  0  0  0
 25 30  1  0  0  0  0
 25 28  1  0  0  0  0
 29 26  1  1  0  0  0
 29 31  1  0  0  0  0
 30 29  1  0  0  0  0
 30 22  1  1  0  0  0
M  END
>  <MODEL>
4

>  <REMARK>
 VINA RESULT:      -7.3      4.197      6.045
  Name = 
  2 active torsions:
  status: ('A' for Active; 'I' for Inactive)
    1  A    between atoms: C_5  and  C_30
    2  A    between atoms: C_10  and  N_16
                            x       y       z     vdW  Elec       q    Type
                         _______ _______ _______ _____ _____    ______ ____

>  <TORSDO>
F 2

$$$$
=
 OpenBabel11122411143D

 31 35  0  0  1  0  0  0  0  0999 V2000
  189.2580  178.0030  143.9830 C   0  0  1  0  0  3  0  0  0  0  0  0
  186.9910  179.0620  140.9710 C   0  0  2  0  0  3  0  0  0  0  0  0
  187.3860  178.1120  139.8450 C   0  0  0  0  0  0  0  0  0  0  0  0
  189.0610  176.7480  138.7200 C   0  0  0  0  0  0  0  0  0  0  0  0
  187.4130  178.6440  142.3960 C   0  0  2  0  0  3  0  0  0  0  0  0
  188.4820  176.7460  144.3500 C   0  0  0  0  0  2  0  0  0  0  0  0
  188.6690  177.5470  139.7950 C   0  0  0  0  0  3  0  0  0  0  0  0
  184.6880  178.1580  141.5830 C   0  0  2  0  0  3  0  0  0  0  0  0
  190.6130  177.7530  144.0780 F   0  0  0  0  0  0  0  0  0  0  0  0
  185.1320  178.4840  138.7380 C   0  0  0  0  0  2  0  0  0  0  0  0
  190.6600  176.0360  138.6970 Cl  0  0  0  0  0  0  0  0  0  0  0  0
  185.1600  177.8690  142.9370 N   0  0  0  0  0  2  0  0  0  0  0  0
  185.4760  179.3350  140.9700 C   0  0  2  0  0  3  0  0  0  0  0  0
  188.9190  178.4240  142.5600 C   0  0  0  0  0  2  0  0  0  0  0  0
  188.1800  176.5220  137.6620 C   0  0  0  0  0  3  0  0  0  0  0  0
  186.5630  177.4610  142.8920 C   0  0  2  0  0  3  0  0  0  0  0  0
  186.9880  177.0350  144.2960 C   0  0  0  0  0  2  0  0  0  0  0  0
  185.0190  179.6550  139.6120 N   0  0  0  0  0  2  0  0  0  0  0  0
  186.5180  177.9130  138.7460 C   0  0  0  0  0  0  0  0  0  0  0  0
  186.9120  177.1020  137.6770 C   0  0  0  0  0  3  0  0  0  0  0  0
  182.6550  176.8010  140.1180 O   0  0  0  0  0  0  0  0  0  0  0  0
  182.3000  177.7530  140.8670 C   0  0  0  0  0  0  0  0  0  0  0  0
  183.2690  178.4790  141.6220 N   0  0  0  0  0  2  0  0  0  0  0  0
  179.2330  176.9660  138.9550 C   0  0  1  0  0  3  0  0  0  0  0  0
  179.9500  176.9080  141.1020 C   0  0  0  0  0  2  0  0  0  0  0  0
  181.2760  180.0270  139.5020 O   0  0  0  0  0  1  0  0  0  0  0  0
  178.9310  176.1320  137.7280 C   0  0  0  0  0  1  0  0  0  0  0  0
  179.9240  176.1790  139.8960 O   0  0  0  0  0  0  0  0  0  0  0  0
  180.3670  179.0090  139.7970 C   0  0  2  0  0  3  0  0  0  0  0  0
  180.8530  178.1420  140.9710 C   0  0  2  0  0  3  0  0  0  0  0  0
  180.0870  178.1680  138.5540 C   0  0  0  0  0  2  0  0  0  0  0  0
  1  9  1  6  0  0  0
  1  6  1  0  0  0  0
  2  3  1  6  0  0  0
  2  5  1  0  0  0  0
  4  7  2  0  0  0  0
  5 14  1  6  0  0  0
  5 16  1  0  0  0  0
  7  3  1  0  0  0  0
  8 23  1  1  0  0  0
  8 12  1  0  0  0  0
 10 19  1  0  0  0  0
 10 18  1  0  0  0  0
 11  4  1  0  0  0  0
 13 18  1  6  0  0  0
 13  2  1  0  0  0  0
 13  8  1  0  0  0  0
 14  1  1  0  0  0  0
 15 20  2  0  0  0  0
 15  4  1  0  0  0  0
 16 12  1  0  0  0  0
 16 17  1  1  0  0  0
 17  6  1  0  0  0  0
 19  3  2  0  0  0  0
 20 19  1  0  0  0  0
 21 22  2  0  0  0  0
 22 23  1  0  0  0  0
 24 27  1  6  0  0  0
 24 28  1  0  0  0  0
 28 25  1  0  0  0  0
 29 26  1  6  0  0  0
 29 30  1  0  0  0  0
 30 22  1  6  0  0  0
 30 25  1  0  0  0  0
 31 24  1  0  0  0  0
 31 29  1  0  0  0  0
M  END
>  <MODEL>
5

>  <REMARK>
 VINA RESULT:      -7.3      4.261      6.387
  Name = 
  2 active torsions:
  status: ('A' for Active; 'I' for Inactive)
    1  A    between atoms: C_5  and  C_30
    2  A    between atoms: C_10  and  N_16
                            x       y       z     vdW  Elec       q    Type
                         _______ _______ _______ _____ _____    ______ ____

>  <TORSDO>
F 2

$$$$
=
 OpenBabel11122411143D

 31 35  0  0  1  0  0  0  0  0999 V2000
  179.5740  178.5960  141.5430 C   0  0  1  0  0  3  0  0  0  0  0  0
  183.2150  179.2620  140.2690 C   0  0  2  0  0  3  0  0  0  0  0  0
  184.1090  178.8490  141.4340 C   0  0  0  0  0  0  0  0  0  0  0  0
  184.4820  178.6070  143.8290 C   0  0  0  0  0  0  0  0  0  0  0  0
  181.7600  178.7470  140.3070 C   0  0  2  0  0  3  0  0  0  0  0  0
  179.6090  177.0830  141.3870 C   0  0  0  0  0  2  0  0  0  0  0  0
  183.6390  178.9010  142.7550 C   0  0  0  0  0  3  0  0  0  0  0  0
  183.6520  177.3620  138.6260 C   0  0  2  0  0  3  0  0  0  0  0  0
  178.9320  178.9230  142.7220 F   0  0  0  0  0  0  0  0  0  0  0  0
  186.0390  178.4830  139.8280 C   0  0  0  0  0  2  0  0  0  0  0  0
  183.8620  178.6570  145.4650 Cl  0  0  0  0  0  0  0  0  0  0  0  0
  182.2360  176.9990  138.6690 N   0  0  0  0  0  2  0  0  0  0  0  0
  183.8380  178.8670  138.9170 C   0  0  2  0  0  3  0  0  0  0  0  0
  180.9920  179.1480  141.5700 C   0  0  0  0  0  2  0  0  0  0  0  0
  185.8180  178.2800  143.5970 C   0  0  0  0  0  3  0  0  0  0  0  0
  181.7080  177.2380  140.0100 C   0  0  2  0  0  3  0  0  0  0  0  0
  180.2710  176.7220  140.0630 C   0  0  0  0  0  2  0  0  0  0  0  0
  185.2500  179.2660  138.8730 N   0  0  0  0  0  2  0  0  0  0  0  0
  185.4750  178.5590  141.2140 C   0  0  0  0  0  0  0  0  0  0  0  0
  186.3120  178.2550  142.2930 C   0  0  0  0  0  3  0  0  0  0  0  0
  184.3310  174.7460  137.7250 O   0  0  0  0  0  0  0  0  0  0  0  0
  184.5090  175.7040  136.9240 C   0  0  0  0  0  0  0  0  0  0  0  0
  184.1960  177.0410  137.3140 N   0  0  0  0  0  2  0  0  0  0  0  0
  185.6560  172.7220  135.0620 C   0  0  1  0  0  3  0  0  0  0  0  0
  184.2050  174.4370  134.7810 C   0  0  0  0  0  2  0  0  0  0  0  0
  187.3040  175.7730  136.4110 O   0  0  0  0  0  1  0  0  0  0  0  0
  185.7830  171.2490  135.3890 C   0  0  0  0  0  1  0  0  0  0  0  0
  184.3440  173.1500  135.3390 O   0  0  0  0  0  0  0  0  0  0  0  0
  186.5260  174.9960  135.5500 C   0  0  2  0  0  3  0  0  0  0  0  0
  185.0580  175.4560  135.5490 C   0  0  2  0  0  3  0  0  0  0  0  0
  186.6520  173.5160  135.9050 C   0  0  0  0  0  2  0  0  0  0  0  0
  1 14  1  0  0  0  0
  1  9  1  1  0  0  0
  2  5  1  0  0  0  0
  2  3  1  1  0  0  0
  3  7  1  0  0  0  0
  4 11  1  0  0  0  0
  5 14  1  1  0  0  0
  6  1  1  0  0  0  0
  7  4  2  0  0  0  0
  8 23  1  6  0  0  0
  8 12  1  0  0  0  0
  8 13  1  0  0  0  0
 10 19  1  0  0  0  0
 12 16  1  0  0  0  0
 13 18  1  1  0  0  0
 13  2  1  0  0  0  0
 15  4  1  0  0  0  0
 16 17  1  6  0  0  0
 16  5  1  0  0  0  0
 17  6  1  0  0  0  0
 18 10  1  0  0  0  0
 19  3  2  0  0  0  0
 19 20  1  0  0  0  0
 20 15  2  0  0  0  0
 22 23  1  0  0  0  0
 22 21  2  0  0  0  0
 24 28  1  0  0  0  0
 24 27  1  1  0  0  0
 24 31  1  0  0  0  0
 25 28  1  0  0  0  0
 25 30  1  0  0  0  0
 29 31  1  0  0  0  0
 29 26  1  1  0  0  0
 30 29  1  0  0  0  0
 30 22  1  1  0  0  0
M  END
>  <MODEL>
6

>  <REMARK>
 VINA RESULT:      -7.2      4.477      6.865
  Name = 
  2 active torsions:
  status: ('A' for Active; 'I' for Inactive)
    1  A    between atoms: C_5  and  C_30
    2  A    between atoms: C_10  and  N_16
                            x       y       z     vdW  Elec       q    Type
                         _______ _______ _______ _____ _____    ______ ____

>  <TORSDO>
F 2

$$$$
=
 OpenBabel11122411143D

 31 35  0  0  1  0  0  0  0  0999 V2000
  191.5420  177.6080  140.7350 C   0  0  1  0  0  3  0  0  0  0  0  0
  189.2180  177.9770  137.6050 C   0  0  2  0  0  3  0  0  0  0  0  0
  189.1980  176.5860  136.9790 C   0  0  0  0  0  0  0  0  0  0  0  0
  190.3000  174.4660  136.5030 C   0  0  0  0  0  0  0  0  0  0  0  0
  189.7160  178.0630  139.0640 C   0  0  2  0  0  3  0  0  0  0  0  0
  190.5330  176.8850  141.6150 C   0  0  0  0  0  2  0  0  0  0  0  0
  190.2780  175.7050  137.1470 C   0  0  0  0  0  3  0  0  0  0  0  0
  186.8700  178.0980  138.5900 C   0  0  2  0  0  3  0  0  0  0  0  0
  192.7900  177.0390  140.8980 F   0  0  0  0  0  0  0  0  0  0  0  0
  186.9800  177.1160  135.8660 C   0  0  0  0  0  2  0  0  0  0  0  0
  191.6480  173.3780  136.7510 Cl  0  0  0  0  0  0  0  0  0  0  0  0
  187.4390  178.2530  139.9290 N   0  0  0  0  0  2  0  0  0  0  0  0
  187.8360  178.6500  137.5200 C   0  0  2  0  0  3  0  0  0  0  0  0
  191.1250  177.5020  139.2740 C   0  0  0  0  0  2  0  0  0  0  0  0
  189.2520  174.1000  135.6590 C   0  0  0  0  0  3  0  0  0  0  0  0
  188.6720  177.4760  140.0310 C   0  0  2  0  0  3  0  0  0  0  0  0
  189.1680  177.5440  141.4750 C   0  0  0  0  0  2  0  0  0  0  0  0
  187.2890  178.5170  136.1640 N   0  0  0  0  0  2  0  0  0  0  0  0
  188.1630  176.2230  136.0870 C   0  0  0  0  0  0  0  0  0  0  0  0
  188.1860  174.9760  135.4530 C   0  0  0  0  0  3  0  0  0  0  0  0
  184.3170  176.8580  138.3440 O   0  0  0  0  0  0  0  0  0  0  0  0
  184.3510  178.1180  138.4020 C   0  0  0  0  0  0  0  0  0  0  0  0
  185.5980  178.8020  138.5190 N   0  0  0  0  0  2  0  0  0  0  0  0
  180.8680  177.5860  139.5260 C   0  0  1  0  0  3  0  0  0  0  0  0
  182.4980  179.1420  139.7460 C   0  0  0  0  0  2  0  0  0  0  0  0
  182.5470  177.8780  136.2190 O   0  0  0  0  0  1  0  0  0  0  0  0
  180.1350  176.4560  140.2160 C   0  0  0  0  0  1  0  0  0  0  0  0
  182.0050  177.9350  140.2800 O   0  0  0  0  0  0  0  0  0  0  0  0
  182.0080  178.2960  137.4370 C   0  0  2  0  0  3  0  0  0  0  0  0
  183.0820  178.9180  138.3450 C   0  0  2  0  0  3  0  0  0  0  0  0
  181.2870  177.1400  138.1270 C   0  0  0  0  0  2  0  0  0  0  0  0
  1  9  1  6  0  0  0
  1  6  1  0  0  0  0
  2  3  1  1  0  0  0
  2  5  1  0  0  0  0
  3  7  1  0  0  0  0
  4 11  1  0  0  0  0
  4  7  2  0  0  0  0
  5 14  1  6  0  0  0
  5 16  1  0  0  0  0
  8 23  1  1  0  0  0
  8 12  1  0  0  0  0
 10 19  1  0  0  0  0
 10 18  1  0  0  0  0
 12 16  1  0  0  0  0
 13 18  1  6  0  0  0
 13  2  1  0  0  0  0
 13  8  1  0  0  0  0
 14  1  1  0  0  0  0
 15  4  1  0  0  0  0
 16 17  1  1  0  0  0
 17  6  1  0  0  0  0
 19  3  2  0  0  0  0
 20 15  2  0  0  0  0
 20 19  1  0  0  0  0
 21 22  2  0  0  0  0
 22 23  1  0  0  0  0
 24 27  1  1  0  0  0
 24 28  1  0  0  0  0
 25 28  1  0  0  0  0
 29 26  1  6  0  0  0
 29 31  1  0  0  0  0
 29 30  1  0  0  0  0
 30 22  1  1  0  0  0
 30 25  1  0  0  0  0
 31 24  1  0  0  0  0
M  END
>  <MODEL>
7

>  <REMARK>
 VINA RESULT:      -7.1      4.282      7.212
  Name = 
  2 active torsions:
  status: ('A' for Active; 'I' for Inactive)
    1  A    between atoms: C_5  and  C_30
    2  A    between atoms: C_10  and  N_16
                            x       y       z     vdW  Elec       q    Type
                         _______ _______ _______ _____ _____    ______ ____

>  <TORSDO>
F 2

$$$$
=
 OpenBabel11122411143D

 31 35  0  0  1  0  0  0  0  0999 V2000
  195.0980  175.2600  136.2150 C   0  0  1  0  0  3  0  0  0  0  0  0
  191.3900  176.3940  136.7610 C   0  0  2  0  0  3  0  0  0  0  0  0
  190.5730  175.1170  136.5980 C   0  0  0  0  0  0  0  0  0  0  0  0
  190.2530  172.9280  135.5780 C   0  0  0  0  0  0  0  0  0  0  0  0
  192.9040  176.2100  137.0010 C   0  0  2  0  0  3  0  0  0  0  0  0
  195.2790  174.5980  137.5740 C   0  0  0  0  0  2  0  0  0  0  0  0
  191.0380  174.0610  135.7990 C   0  0  0  0  0  3  0  0  0  0  0  0
  191.2200  176.7590  139.2780 C   0  0  2  0  0  3  0  0  0  0  0  0
  195.6940  174.4830  135.2410 F   0  0  0  0  0  0  0  0  0  0  0  0
  188.7040  176.1310  137.9840 C   0  0  0  0  0  2  0  0  0  0  0  0
  190.8700  171.6160  134.5960 Cl  0  0  0  0  0  0  0  0  0  0  0  0
  192.6740  176.6470  139.3940 N   0  0  0  0  0  2  0  0  0  0  0  0
  190.8220  177.2840  137.8820 C   0  0  2  0  0  3  0  0  0  0  0  0
  193.6150  175.4110  135.9060 C   0  0  0  0  0  2  0  0  0  0  0  0
  188.9760  172.8450  136.1330 C   0  0  0  0  0  3  0  0  0  0  0  0
  193.1710  175.6770  138.4200 C   0  0  2  0  0  3  0  0  0  0  0  0
  194.6670  175.4790  138.6560 C   0  0  0  0  0  2  0  0  0  0  0  0
  189.3670  177.4150  137.7380 N   0  0  0  0  0  2  0  0  0  0  0  0
  189.2610  175.0410  137.1190 C   0  0  0  0  0  0  0  0  0  0  0  0
  188.4830  173.8980  136.9030 C   0  0  0  0  0  3  0  0  0  0  0  0
  190.5030  175.9910  141.9270 O   0  0  0  0  0  0  0  0  0  0  0  0
  190.3840  177.2100  141.6190 C   0  0  0  0  0  0  0  0  0  0  0  0
  190.7190  177.6590  140.3070 N   0  0  0  0  0  2  0  0  0  0  0  0
  190.5610  177.5260  145.3000 C   0  0  1  0  0  3  0  0  0  0  0  0
  191.0310  178.7730  143.4700 C   0  0  0  0  0  2  0  0  0  0  0  0
  187.8340  176.9230  142.8410 O   0  0  0  0  0  1  0  0  0  0  0  0
  191.1540  176.6860  146.4110 C   0  0  0  0  0  1  0  0  0  0  0  0
  191.5510  177.7880  144.3340 O   0  0  0  0  0  0  0  0  0  0  0  0
  188.7960  177.6390  143.5560 C   0  0  2  0  0  3  0  0  0  0  0  0
  189.8830  178.2050  142.6260 C   0  0  2  0  0  3  0  0  0  0  0  0
  189.3950  176.7720  144.6610 C   0  0  0  0  0  2  0  0  0  0  0  0
  1  9  1  6  0  0  0
  1  6  1  0  0  0  0
  2  3  1  1  0  0  0
  2  5  1  0  0  0  0
  2 13  1  0  0  0  0
  3 19  1  0  0  0  0
  4  7  1  0  0  0  0
  4 15  2  0  0  0  0
  5 14  1  6  0  0  0
  5 16  1  0  0  0  0
  6 17  1  0  0  0  0
  7  3  2  0  0  0  0
  8 12  1  0  0  0  0
  8 23  1  1  0  0  0
 11  4  1  0  0  0  0
 13 18  1  1  0  0  0
 13  8  1  0  0  0  0
 14  1  1  0  0  0  0
 15 20  1  0  0  0  0
 16 17  1  1  0  0  0
 16 12  1  0  0  0  0
 18 10  1  0  0  0  0
 19 10  1  0  0  0  0
 20 19  2  0  0  0  0
 22 21  2  0  0  0  0
 23 22  1  0  0  0  0
 24 27  1  1  0  0  0
 25 28  1  0  0  0  0
 28 24  1  0  0  0  0
 29 26  1  6  0  0  0
 29 31  1  0  0  0  0
 30 22  1  6  0  0  0
 30 25  1  0  0  0  0
 30 29  1  0  0  0  0
 31 24  1  0  0  0  0
M  END
>  <MODEL>
8

>  <REMARK>
 VINA RESULT:      -7.1      5.047      8.712
  Name = 
  2 active torsions:
  status: ('A' for Active; 'I' for Inactive)
    1  A    between atoms: C_5  and  C_30
    2  A    between atoms: C_10  and  N_16
                            x       y       z     vdW  Elec       q    Type
                         _______ _______ _______ _____ _____    ______ ____

>  <TORSDO>
F 2

$$$$
=
 OpenBabel11122411143D

 31 35  0  0  1  0  0  0  0  0999 V2000
  184.7280  178.1780  137.9350 C   0  0  1  0  0  3  0  0  0  0  0  0
  188.5410  178.3040  138.8130 C   0  0  2  0  0  3  0  0  0  0  0  0
  188.6280  177.7190  140.2190 C   0  0  0  0  0  0  0  0  0  0  0  0
  187.6480  177.3480  142.4180 C   0  0  0  0  0  0  0  0  0  0  0  0
  187.2380  178.0230  138.0360 C   0  0  2  0  0  3  0  0  0  0  0  0
  184.6630  176.6830  137.6550 C   0  0  0  0  0  2  0  0  0  0  0  0
  187.5410  177.8040  141.1030 C   0  0  0  0  0  3  0  0  0  0  0  0
  189.5550  176.4110  137.4390 C   0  0  2  0  0  3  0  0  0  0  0  0
  183.6040  178.5650  138.6380 F   0  0  0  0  0  0  0  0  0  0  0  0
  191.0580  177.1050  139.8170 C   0  0  0  0  0  2  0  0  0  0  0  0
  186.2680  177.4440  143.4900 Cl  0  0  0  0  0  0  0  0  0  0  0  0
  188.2990  176.2730  136.7020 N   0  0  0  0  0  2  0  0  0  0  0  0
  189.7340  177.8580  137.9460 C   0  0  2  0  0  3  0  0  0  0  0  0
  185.9710  178.5000  138.7530 C   0  0  0  0  0  2  0  0  0  0  0  0
  188.8550  176.8230  142.8780 C   0  0  0  0  0  3  0  0  0  0  0  0
  187.1740  176.5510  137.5920 C   0  0  2  0  0  3  0  0  0  0  0  0
  185.8770  176.2650  136.8360 C   0  0  0  0  0  2  0  0  0  0  0  0
  190.9910  178.0310  138.6840 N   0  0  0  0  0  2  0  0  0  0  0  0
  189.8590  177.2260  140.7100 C   0  0  0  0  0  0  0  0  0  0  0  0
  189.9570  176.7610  142.0250 C   0  0  0  0  0  3  0  0  0  0  0  0
  191.3170  174.2130  137.8620 O   0  0  0  0  0  0  0  0  0  0  0  0
  191.5100  174.9280  136.8400 C   0  0  0  0  0  0  0  0  0  0  0  0
  190.6680  176.0490  136.5730 N   0  0  0  0  0  2  0  0  0  0  0  0
  194.5880  172.8850  137.0070 C   0  0  1  0  0  3  0  0  0  0  0  0
  192.7740  173.1050  135.6710 C   0  0  0  0  0  2  0  0  0  0  0  0
  193.8600  176.5250  136.7500 O   0  0  0  0  0  1  0  0  0  0  0  0
  195.2440  172.0360  138.0750 C   0  0  0  0  0  1  0  0  0  0  0  0
  193.2530  172.4730  136.8360 O   0  0  0  0  0  0  0  0  0  0  0  0
  193.9850  175.1980  136.3330 C   0  0  2  0  0  3  0  0  0  0  0  0
  192.6320  174.6160  135.8920 C   0  0  2  0  0  3  0  0  0  0  0  0
  194.6310  174.3530  137.4280 C   0  0  0  0  0  2  0  0  0  0  0  0
  1  9  1  1  0  0  0
  1 14  1  0  0  0  0
  2  3  1  1  0  0  0
  3 19  2  0  0  0  0
  3  7  1  0  0  0  0
  4 15  1  0  0  0  0
  4 11  1  0  0  0  0
  5 14  1  1  0  0  0
  5  2  1  0  0  0  0
  6  1  1  0  0  0  0
  7  4  2  0  0  0  0
  8 23  1  6  0  0  0
  8 13  1  0  0  0  0
 10 19  1  0  0  0  0
 12  8  1  0  0  0  0
 12 16  1  0  0  0  0
 13 18  1  1  0  0  0
 13  2  1  0  0  0  0
 16 17  1  6  0  0  0
 16  5  1  0  0  0  0
 17  6  1  0  0  0  0
 18 10  1  0  0  0  0
 19 20  1  0  0  0  0
 20 15  2  0  0  0  0
 22 21  2  0  0  0  0
 23 22  1  0  0  0  0
 24 31  1  0  0  0  0
 24 27  1  1  0  0  0
 25 30  1  0  0  0  0
 25 28  1  0  0  0  0
 28 24  1  0  0  0  0
 29 26  1  1  0  0  0
 29 31  1  0  0  0  0
 30 29  1  0  0  0  0
 30 22  1  1  0  0  0
M  END
>  <MODEL>
9

>  <REMARK>
 VINA RESULT:      -6.9      4.556      6.931
  Name = 
  2 active torsions:
  status: ('A' for Active; 'I' for Inactive)
    1  A    between atoms: C_5  and  C_30
    2  A    between atoms: C_10  and  N_16
                            x       y       z     vdW  Elec       q    Type
                         _______ _______ _______ _____ _____    ______ ____

>  <TORSDO>
F 2

$$$$
