=
 OpenBabel11122412053D

 34 41  0  0  1  0  0  0  0  0999 V2000
  188.2190  177.8560  141.3020 C   0  0  0  0  0  0  0  0  0  0  0  0
  186.5100  178.2770  139.4710 C   0  0  0  0  0  2  0  0  0  0  0  0
  189.8710  177.3700  147.5770 C   0  0  0  0  0  0  0  0  0  0  0  0
  189.5520  177.0950  143.1590 C   0  0  0  0  0  0  0  0  0  0  0  0
  188.6730  177.1520  145.4360 C   0  0  0  0  0  0  0  0  0  0  0  0
  187.6980  177.5450  147.7190 C   0  0  0  0  0  2  0  0  0  0  0  0
  188.8750  178.0740  148.4660 C   0  0  0  0  0  2  0  0  0  0  0  0
  191.6860  176.5270  146.2380 C   0  0  0  0  0  3  0  0  0  0  0  0
  186.0570  179.0990  141.7000 C   0  0  2  0  0  3  0  0  0  0  0  0
  183.0700  178.3330  142.6810 C   0  0  0  0  0  3  0  0  0  0  0  0
  187.4830  177.6770  144.8980 O   0  0  0  0  0  0  0  0  0  0  0  0
  191.0530  176.3580  145.0640 C   0  0  0  0  0  3  0  0  0  0  0  0
  186.0290  178.3990  143.0730 C   0  0  1  0  0  3  0  0  0  0  0  0
  185.1330  178.9210  139.4690 C   0  0  0  0  0  2  0  0  0  0  0  0
  189.7340  176.9020  144.6190 C   0  0  0  0  0  0  0  0  0  0  0  0
  191.1720  177.2830  147.3870 C   0  0  0  0  0  3  0  0  0  0  0  0
  183.7800  177.9880  141.3960 C   0  0  2  0  0  3  0  0  0  0  0  0
  188.4120  177.7460  142.6830 C   0  0  0  0  0  0  0  0  0  0  0  0
  188.6760  176.7750  146.8910 C   0  0  2  0  0  3  0  0  0  0  0  0
  187.4480  178.3710  143.6510 C   0  0  2  0  0  3  0  0  0  0  0  0
  190.2560  176.7170  140.9270 C   0  0  0  0  0  3  0  0  0  0  0  0
  183.6420  178.7970  143.8060 C   0  0  0  0  0  3  0  0  0  0  0  0
  190.4540  176.5980  142.2670 N   0  0  0  0  0  0  0  0  0  0  0  0
  185.0920  179.1590  143.9980 C   0  0  0  0  0  2  0  0  0  0  0  0
  184.7270  179.1100  140.9340 C   0  0  1  0  0  3  0  0  0  0  0  0
  189.1400  177.3340  140.4500 N   0  0  0  0  0  0  0  0  0  0  0  0
  187.0180  178.4650  140.8130 N   0  0  0  0  0  0  0  0  0  0  0  0
  182.8210  177.7070  140.4170 O   0  0  0  0  0  0  0  0  0  0  0  0
  181.7330  178.5260  140.7360 C   0  0  0  0  0  2  0  0  0  0  0  0
  179.9150  175.6140  140.4150 C   0  0  0  0  0  2  0  0  0  0  0  0
  179.5050  177.6010  141.3370 C   0  0  0  0  0  2  0  0  0  0  0  0
  180.4510  177.9150  140.2000 C   0  0  2  0  0  3  0  0  0  0  0  0
  178.9310  176.3430  141.0970 O   0  0  0  0  0  0  0  0  0  0  0  0
  180.7390  176.5760  139.5910 C   0  0  0  0  0  2  0  0  0  0  0  0
  1 18  1  0  0  0  0
  2 27  1  0  0  0  0
  3  7  1  0  0  0  0
  4 15  1  0  0  0  0
  5 19  1  0  0  0  0
  6  7  1  0  0  0  0
  8 16  1  0  0  0  0
  9 27  1  6  0  0  0
  9 13  1  0  0  0  0
 10 22  2  0  0  0  0
 11  5  1  0  0  0  0
 12  8  2  0  0  0  0
 13 20  1  0  0  0  0
 13 24  1  1  0  0  0
 14  2  1  0  0  0  0
 15 12  1  0  0  0  0
 15  5  2  0  0  0  0
 16  3  2  0  0  0  0
 17 28  1  6  0  0  0
 17 10  1  0  0  0  0
 18  4  2  0  0  0  0
 19  3  1  0  0  0  0
 19  6  1  1  0  0  0
 20 18  1  6  0  0  0
 20 11  1  0  0  0  0
 21 23  2  0  0  0  0
 22 24  1  0  0  0  0
 23  4  1  0  0  0  0
 25 14  1  6  0  0  0
 25 17  1  0  0  0  0
 25  9  1  0  0  0  0
 26 21  1  0  0  0  0
 26  1  2  0  0  0  0
 27  1  1  0  0  0  0
 28 29  1  0  0  0  0
 30 33  1  0  0  0  0
 32 29  1  1  0  0  0
 32 31  1  0  0  0  0
 33 31  1  0  0  0  0
 34 32  1  0  0  0  0
 34 30  1  0  0  0  0
M  END
>  <MODEL>
1

>  <REMARK>
 VINA RESULT:     -10.5      0.000      0.000
  Name = 
  3 active torsions:
  status: ('A' for Active; 'I' for Inactive)
    1  A    between atoms: C_17  and  O_28
    2  A    between atoms: O_28  and  C_29
    3  A    between atoms: C_29  and  C_32
                            x       y       z     vdW  Elec       q    Type
                         _______ _______ _______ _____ _____    ______ ____

>  <TORSDO>
F 3

$$$$
=
 OpenBabel11122412053D

 34 41  0  0  1  0  0  0  0  0999 V2000
  188.1670  177.8430  140.8110 C   0  0  0  0  0  0  0  0  0  0  0  0
  186.4990  178.2520  138.9410 C   0  0  0  0  0  2  0  0  0  0  0  0
  189.6790  177.3900  147.1240 C   0  0  0  0  0  0  0  0  0  0  0  0
  189.4590  177.0930  142.7020 C   0  0  0  0  0  0  0  0  0  0  0  0
  188.5290  177.1600  144.9580 C   0  0  0  0  0  0  0  0  0  0  0  0
  187.5020  177.5620  147.2160 C   0  0  0  0  0  2  0  0  0  0  0  0
  188.6620  178.0970  147.9870 C   0  0  0  0  0  2  0  0  0  0  0  0
  191.5240  176.5440  145.8300 C   0  0  0  0  0  3  0  0  0  0  0  0
  185.9950  179.0850  141.1550 C   0  0  2  0  0  3  0  0  0  0  0  0
  182.9880  178.3190  142.0720 C   0  0  0  0  0  3  0  0  0  0  0  0
  187.3510  177.6800  144.3900 O   0  0  0  0  0  0  0  0  0  0  0  0
  190.9180  176.3680  144.6430 C   0  0  0  0  0  3  0  0  0  0  0  0
  185.9360  178.3910  142.5290 C   0  0  1  0  0  3  0  0  0  0  0  0
  185.1210  178.8940  138.9040 C   0  0  0  0  0  2  0  0  0  0  0  0
  189.6080  176.9080  144.1660 C   0  0  0  0  0  0  0  0  0  0  0  0
  190.9840  177.3040  146.9640 C   0  0  0  0  0  3  0  0  0  0  0  0
  183.7260  177.9690  140.8050 C   0  0  2  0  0  3  0  0  0  0  0  0
  188.3290  177.7400  142.1960 C   0  0  0  0  0  0  0  0  0  0  0  0
  188.5000  176.7900  146.4140 C   0  0  2  0  0  3  0  0  0  0  0  0
  187.3430  178.3680  143.1390 C   0  0  2  0  0  3  0  0  0  0  0  0
  190.2130  176.7050  140.4870 C   0  0  0  0  0  3  0  0  0  0  0  0
  183.5340  178.7890  143.2070 C   0  0  0  0  0  3  0  0  0  0  0  0
  190.3820  176.5930  141.8330 N   0  0  0  0  0  0  0  0  0  0  0  0
  184.9790  179.1550  143.4300 C   0  0  0  0  0  2  0  0  0  0  0  0
  184.6820  179.0900  140.3590 C   0  0  1  0  0  3  0  0  0  0  0  0
  189.1080  177.3180  139.9830 N   0  0  0  0  0  0  0  0  0  0  0  0
  186.9770  178.4480  140.2920 N   0  0  0  0  0  0  0  0  0  0  0  0
  182.7900  177.6820  139.8060 O   0  0  0  0  0  0  0  0  0  0  0  0
  182.6470  176.2920  139.8370 C   0  0  0  0  0  2  0  0  0  0  0  0
  183.2740  176.7590  136.4790 C   0  0  0  0  0  2  0  0  0  0  0  0
  183.6010  175.0690  137.8930 C   0  0  0  0  0  2  0  0  0  0  0  0
  182.3760  175.7680  138.4380 C   0  0  2  0  0  3  0  0  0  0  0  0
  183.7640  175.4470  136.5520 O   0  0  0  0  0  0  0  0  0  0  0  0
  182.1670  176.9140  137.4960 C   0  0  0  0  0  2  0  0  0  0  0  0
  1 18  1  0  0  0  0
  2 27  1  0  0  0  0
  3  7  1  0  0  0  0
  4 15  1  0  0  0  0
  5 19  1  0  0  0  0
  6  7  1  0  0  0  0
  8 16  1  0  0  0  0
  9 27  1  6  0  0  0
  9 13  1  0  0  0  0
 10 22  2  0  0  0  0
 11  5  1  0  0  0  0
 12  8  2  0  0  0  0
 13 20  1  0  0  0  0
 13 24  1  1  0  0  0
 14  2  1  0  0  0  0
 15 12  1  0  0  0  0
 15  5  2  0  0  0  0
 16  3  2  0  0  0  0
 17 28  1  6  0  0  0
 17 10  1  0  0  0  0
 18  4  2  0  0  0  0
 19  3  1  0  0  0  0
 19  6  1  1  0  0  0
 20 18  1  6  0  0  0
 20 11  1  0  0  0  0
 21 23  2  0  0  0  0
 22 24  1  0  0  0  0
 23  4  1  0  0  0  0
 25 14  1  6  0  0  0
 25 17  1  0  0  0  0
 25  9  1  0  0  0  0
 26 21  1  0  0  0  0
 26  1  2  0  0  0  0
 27  1  1  0  0  0  0
 28 29  1  0  0  0  0
 30 33  1  0  0  0  0
 30 34  1  0  0  0  0
 31 32  1  0  0  0  0
 32 29  1  1  0  0  0
 33 31  1  0  0  0  0
 34 32  1  0  0  0  0
M  END
>  <MODEL>
2

>  <REMARK>
 VINA RESULT:     -10.1      1.466      2.030
  Name = 
  3 active torsions:
  status: ('A' for Active; 'I' for Inactive)
    1  A    between atoms: C_17  and  O_28
    2  A    between atoms: O_28  and  C_29
    3  A    between atoms: C_29  and  C_32
                            x       y       z     vdW  Elec       q    Type
                         _______ _______ _______ _____ _____    ______ ____

>  <TORSDO>
F 3

$$$$
=
 OpenBabel11122412053D

 34 41  0  0  1  0  0  0  0  0999 V2000
  190.2570  177.2780  141.6940 C   0  0  0  0  0  0  0  0  0  0  0  0
  191.3780  176.7720  139.4720 C   0  0  0  0  0  2  0  0  0  0  0  0
  185.0520  178.9610  145.2190 C   0  0  0  0  0  0  0  0  0  0  0  0
  188.9110  177.3890  143.6890 C   0  0  0  0  0  0  0  0  0  0  0  0
  186.5240  177.8860  143.5620 C   0  0  0  0  0  0  0  0  0  0  0  0
  184.1590  178.6750  143.2450 C   0  0  0  0  0  2  0  0  0  0  0  0
  184.0080  179.6440  144.3700 C   0  0  0  0  0  2  0  0  0  0  0  0
  186.7820  178.2050  146.7140 C   0  0  0  0  0  3  0  0  0  0  0  0
  189.3340  178.0640  139.4790 C   0  0  2  0  0  3  0  0  0  0  0  0
  187.2020  176.9540  137.3130 C   0  0  0  0  0  3  0  0  0  0  0  0
  186.6770  177.9570  142.1640 O   0  0  0  0  0  0  0  0  0  0  0  0
  187.5880  177.5750  145.8430 C   0  0  0  0  0  3  0  0  0  0  0  0
  187.9420  177.7900  140.0810 C   0  0  1  0  0  3  0  0  0  0  0  0
  190.9950  177.0630  138.0290 C   0  0  0  0  0  2  0  0  0  0  0  0
  187.6120  177.6620  144.3500 C   0  0  0  0  0  0  0  0  0  0  0  0
  185.6870  179.1180  146.3630 C   0  0  0  0  0  3  0  0  0  0  0  0
  188.5680  176.4310  137.6740 C   0  0  2  0  0  3  0  0  0  0  0  0
  189.0490  177.6070  142.3170 C   0  0  0  0  0  0  0  0  0  0  0  0
  185.1290  177.9440  144.1160 C   0  0  2  0  0  3  0  0  0  0  0  0
  187.9300  178.2460  141.5440 C   0  0  2  0  0  3  0  0  0  0  0  0
  191.1340  176.5670  143.7710 C   0  0  0  0  0  3  0  0  0  0  0  0
  186.4730  177.8320  138.0230 C   0  0  0  0  0  3  0  0  0  0  0  0
  189.9620  176.8780  144.3890 N   0  0  0  0  0  0  0  0  0  0  0  0
  186.8970  178.5500  139.2790 C   0  0  0  0  0  2  0  0  0  0  0  0
  189.5460  177.5610  138.0440 C   0  0  1  0  0  3  0  0  0  0  0  0
  191.2740  176.7590  142.4310 N   0  0  0  0  0  0  0  0  0  0  0  0
  190.3770  177.4390  140.2750 N   0  0  0  0  0  0  0  0  0  0  0  0
  189.0570  175.6780  136.6000 O   0  0  0  0  0  0  0  0  0  0  0  0
  188.2870  174.5110  136.6000 C   0  0  0  0  0  2  0  0  0  0  0  0
  190.3650  172.3250  134.9310 C   0  0  0  0  0  2  0  0  0  0  0  0
  190.6390  173.7080  136.6560 C   0  0  0  0  0  2  0  0  0  0  0  0
  189.1870  173.2980  136.7450 C   0  0  2  0  0  3  0  0  0  0  0  0
  191.3150  172.7680  135.8630 O   0  0  0  0  0  0  0  0  0  0  0  0
  188.9990  172.3800  135.5750 C   0  0  0  0  0  2  0  0  0  0  0  0
  1 18  2  0  0  0  0
  1 26  1  0  0  0  0
  2 27  1  0  0  0  0
  3 16  2  0  0  0  0
  4 15  1  0  0  0  0
  4 23  2  0  0  0  0
  5 19  1  0  0  0  0
  5 15  2  0  0  0  0
  6  7  1  0  0  0  0
  7  3  1  0  0  0  0
  9 13  1  0  0  0  0
  9 27  1  1  0  0  0
 10 17  1  0  0  0  0
 10 22  2  0  0  0  0
 11  5  1  0  0  0  0
 12  8  2  0  0  0  0
 13 24  1  6  0  0  0
 13 20  1  0  0  0  0
 14  2  1  0  0  0  0
 15 12  1  0  0  0  0
 16  8  1  0  0  0  0
 17 28  1  6  0  0  0
 17 25  1  0  0  0  0
 18  4  1  0  0  0  0
 19  6  1  6  0  0  0
 19  3  1  0  0  0  0
 20 11  1  1  0  0  0
 20 18  1  0  0  0  0
 21 23  1  0  0  0  0
 22 24  1  0  0  0  0
 25 14  1  1  0  0  0
 25  9  1  0  0  0  0
 26 21  2  0  0  0  0
 27  1  1  0  0  0  0
 29 28  1  0  0  0  0
 30 34  1  0  0  0  0
 30 33  1  0  0  0  0
 31 32  1  0  0  0  0
 32 29  1  6  0  0  0
 33 31  1  0  0  0  0
 34 32  1  0  0  0  0
M  END
>  <MODEL>
3

>  <REMARK>
 VINA RESULT:     -10.1      3.625      6.435
  Name = 
  3 active torsions:
  status: ('A' for Active; 'I' for Inactive)
    1  A    between atoms: C_17  and  O_28
    2  A    between atoms: O_28  and  C_29
    3  A    between atoms: C_29  and  C_32
                            x       y       z     vdW  Elec       q    Type
                         _______ _______ _______ _____ _____    ______ ____

>  <TORSDO>
F 3

$$$$
=
 OpenBabel11122412053D

 34 41  0  0  1  0  0  0  0  0999 V2000
  190.1400  177.4810  141.5200 C   0  0  0  0  0  0  0  0  0  0  0  0
  190.3900  177.4360  138.9930 C   0  0  0  0  0  2  0  0  0  0  0  0
  186.5540  178.2530  146.8950 C   0  0  0  0  0  0  0  0  0  0  0  0
  189.5900  177.1680  143.8440 C   0  0  0  0  0  0  0  0  0  0  0  0
  187.3230  177.5650  144.6580 C   0  0  0  0  0  0  0  0  0  0  0  0
  185.0140  178.2840  145.3450 C   0  0  0  0  0  2  0  0  0  0  0  0
  185.2900  179.0270  146.6090 C   0  0  0  0  0  2  0  0  0  0  0  0
  188.6870  177.3260  147.5200 C   0  0  0  0  0  3  0  0  0  0  0  0
  188.5060  178.6060  139.9570 C   0  0  2  0  0  3  0  0  0  0  0  0
  185.7240  177.8020  138.5130 C   0  0  0  0  0  3  0  0  0  0  0  0
  186.9710  177.8930  143.3350 O   0  0  0  0  0  0  0  0  0  0  0  0
  189.1200  176.9020  146.3210 C   0  0  0  0  0  3  0  0  0  0  0  0
  187.4130  178.1630  140.9480 C   0  0  1  0  0  3  0  0  0  0  0  0
  189.5270  177.9620  137.8570 C   0  0  0  0  0  2  0  0  0  0  0  0
  188.6140  177.2550  144.9590 C   0  0  0  0  0  0  0  0  0  0  0  0
  187.5560  178.2330  147.7510 C   0  0  0  0  0  3  0  0  0  0  0  0
  187.1200  177.2880  138.2670 C   0  0  2  0  0  3  0  0  0  0  0  0
  189.2370  177.6350  142.5770 C   0  0  0  0  0  0  0  0  0  0  0  0
  186.2160  177.4560  145.6690 C   0  0  2  0  0  3  0  0  0  0  0  0
  187.9290  178.3470  142.3790 C   0  0  2  0  0  3  0  0  0  0  0  0
  191.6810  176.4520  142.9860 C   0  0  0  0  0  3  0  0  0  0  0  0
  185.3110  178.5030  139.5840 C   0  0  0  0  0  3  0  0  0  0  0  0
  190.8110  176.5900  144.0230 N   0  0  0  0  0  0  0  0  0  0  0  0
  186.1670  179.0030  140.7190 C   0  0  0  0  0  2  0  0  0  0  0  0
  188.1870  178.3790  138.4720 C   0  0  1  0  0  3  0  0  0  0  0  0
  191.3410  176.8870  141.7420 N   0  0  0  0  0  0  0  0  0  0  0  0
  189.7520  177.8990  140.2050 N   0  0  0  0  0  0  0  0  0  0  0  0
  187.1820  176.7650  136.9710 O   0  0  0  0  0  0  0  0  0  0  0  0
  187.0130  175.3860  137.1330 C   0  0  0  0  0  2  0  0  0  0  0  0
  189.8000  175.6320  135.1180 C   0  0  0  0  0  2  0  0  0  0  0  0
  189.2480  174.3370  136.8450 C   0  0  0  0  0  2  0  0  0  0  0  0
  187.9250  174.6380  136.1790 C   0  0  2  0  0  3  0  0  0  0  0  0
  190.2740  174.5840  135.9200 O   0  0  0  0  0  0  0  0  0  0  0  0
  188.2950  175.5210  135.0260 C   0  0  0  0  0  2  0  0  0  0  0  0
  1 26  2  0  0  0  0
  1 18  1  0  0  0  0
  2 27  1  0  0  0  0
  3 16  2  0  0  0  0
  4 23  1  0  0  0  0
  4 15  1  0  0  0  0
  5 15  2  0  0  0  0
  5 19  1  0  0  0  0
  6  7  1  0  0  0  0
  7  3  1  0  0  0  0
  8 16  1  0  0  0  0
  9 27  1  1  0  0  0
  9 13  1  0  0  0  0
 10 22  2  0  0  0  0
 11  5  1  0  0  0  0
 12  8  2  0  0  0  0
 13 24  1  1  0  0  0
 13 20  1  0  0  0  0
 14  2  1  0  0  0  0
 15 12  1  0  0  0  0
 17 28  1  6  0  0  0
 17 25  1  0  0  0  0
 17 10  1  0  0  0  0
 18  4  2  0  0  0  0
 19  6  1  6  0  0  0
 19  3  1  0  0  0  0
 20 18  1  6  0  0  0
 20 11  1  0  0  0  0
 21 23  2  0  0  0  0
 22 24  1  0  0  0  0
 25 14  1  6  0  0  0
 25  9  1  0  0  0  0
 26 21  1  0  0  0  0
 27  1  1  0  0  0  0
 28 29  1  0  0  0  0
 30 33  1  0  0  0  0
 32 31  1  0  0  0  0
 32 29  1  1  0  0  0
 33 31  1  0  0  0  0
 34 30  1  0  0  0  0
 34 32  1  0  0  0  0
M  END
>  <MODEL>
4

>  <REMARK>
 VINA RESULT:      -9.9      3.031      5.220
  Name = 
  3 active torsions:
  status: ('A' for Active; 'I' for Inactive)
    1  A    between atoms: C_17  and  O_28
    2  A    between atoms: O_28  and  C_29
    3  A    between atoms: C_29  and  C_32
                            x       y       z     vdW  Elec       q    Type
                         _______ _______ _______ _____ _____    ______ ____

>  <TORSDO>
F 3

$$$$
=
 OpenBabel11122412053D

 34 41  0  0  1  0  0  0  0  0999 V2000
  188.2550  177.8250  140.6340 C   0  0  0  0  0  0  0  0  0  0  0  0
  187.4310  177.8180  138.2310 C   0  0  0  0  0  2  0  0  0  0  0  0
  187.1910  178.2480  147.0390 C   0  0  0  0  0  0  0  0  0  0  0  0
  188.7500  177.4510  142.9610 C   0  0  0  0  0  0  0  0  0  0  0  0
  187.0060  177.6440  144.6580 C   0  0  0  0  0  0  0  0  0  0  0  0
  185.1470  178.1550  146.2710 C   0  0  0  0  0  2  0  0  0  0  0  0
  185.8670  178.9110  147.3360 C   0  0  0  0  0  2  0  0  0  0  0  0
  189.4530  177.5060  146.6830 C   0  0  0  0  0  3  0  0  0  0  0  0
  186.0380  178.8140  139.9380 C   0  0  2  0  0  3  0  0  0  0  0  0
  182.9770  177.7800  139.7460 C   0  0  0  0  0  3  0  0  0  0  0  0
  186.1110  177.9480  143.6160 O   0  0  0  0  0  0  0  0  0  0  0  0
  189.3780  177.1290  145.3950 C   0  0  0  0  0  3  0  0  0  0  0  0
  185.4940  178.2710  141.2740 C   0  0  1  0  0  3  0  0  0  0  0  0
  186.1350  178.2740  137.5790 C   0  0  0  0  0  2  0  0  0  0  0  0
  188.3250  177.4460  144.3820 C   0  0  0  0  0  0  0  0  0  0  0  0
  188.4560  178.3100  147.4010 C   0  0  0  0  0  3  0  0  0  0  0  0
  184.1780  177.3910  138.9220 C   0  0  2  0  0  3  0  0  0  0  0  0
  187.8660  177.8930  141.9750 C   0  0  0  0  0  0  0  0  0  0  0  0
  186.4340  177.4320  146.0310 C   0  0  2  0  0  3  0  0  0  0  0  0
  186.5450  178.4910  142.3680 C   0  0  2  0  0  3  0  0  0  0  0  0
  190.3410  176.9250  141.2830 C   0  0  0  0  0  3  0  0  0  0  0  0
  182.9960  178.4350  140.9200 C   0  0  0  0  0  3  0  0  0  0  0  0
  189.9750  176.9810  142.5920 N   0  0  0  0  0  0  0  0  0  0  0  0
  184.2060  179.0010  141.6190 C   0  0  0  0  0  2  0  0  0  0  0  0
  185.1470  178.5690  138.7120 C   0  0  1  0  0  3  0  0  0  0  0  0
  189.4810  177.3370  140.3120 N   0  0  0  0  0  0  0  0  0  0  0  0
  187.3230  178.2170  139.6170 N   0  0  0  0  0  0  0  0  0  0  0  0
  183.7340  176.8830  137.6960 O   0  0  0  0  0  0  0  0  0  0  0  0
  183.3280  175.5750  137.9770 C   0  0  0  0  0  2  0  0  0  0  0  0
  185.6380  173.0590  137.5110 C   0  0  0  0  0  2  0  0  0  0  0  0
  183.4360  173.2120  137.2120 C   0  0  0  0  0  2  0  0  0  0  0  0
  183.9350  174.6180  136.9680 C   0  0  2  0  0  3  0  0  0  0  0  0
  184.5200  172.3310  137.0820 O   0  0  0  0  0  0  0  0  0  0  0  0
  185.4140  174.5180  137.1840 C   0  0  0  0  0  2  0  0  0  0  0  0
  1 18  1  0  0  0  0
  2 27  1  0  0  0  0
  3  7  1  0  0  0  0
  3 16  2  0  0  0  0
  4 15  1  0  0  0  0
  5 19  1  0  0  0  0
  6  7  1  0  0  0  0
  8 16  1  0  0  0  0
  9 27  1  6  0  0  0
  9 13  1  0  0  0  0
 10 22  2  0  0  0  0
 11  5  1  0  0  0  0
 12  8  2  0  0  0  0
 13 24  1  1  0  0  0
 13 20  1  0  0  0  0
 14  2  1  0  0  0  0
 15  5  2  0  0  0  0
 15 12  1  0  0  0  0
 17 28  1  6  0  0  0
 17 10  1  0  0  0  0
 18  4  2  0  0  0  0
 19  6  1  6  0  0  0
 19  3  1  0  0  0  0
 20 18  1  6  0  0  0
 20 11  1  0  0  0  0
 21 23  2  0  0  0  0
 22 24  1  0  0  0  0
 23  4  1  0  0  0  0
 25 14  1  6  0  0  0
 25 17  1  0  0  0  0
 25  9  1  0  0  0  0
 26  1  2  0  0  0  0
 26 21  1  0  0  0  0
 27  1  1  0  0  0  0
 28 29  1  0  0  0  0
 32 34  1  0  0  0  0
 32 31  1  0  0  0  0
 32 29  1  1  0  0  0
 33 31  1  0  0  0  0
 33 30  1  0  0  0  0
 34 30  1  0  0  0  0
M  END
>  <MODEL>
5

>  <REMARK>
 VINA RESULT:      -9.8      2.474      3.324
  Name = 
  3 active torsions:
  status: ('A' for Active; 'I' for Inactive)
    1  A    between atoms: C_17  and  O_28
    2  A    between atoms: O_28  and  C_29
    3  A    between atoms: C_29  and  C_32
                            x       y       z     vdW  Elec       q    Type
                         _______ _______ _______ _____ _____    ______ ____

>  <TORSDO>
F 3

$$$$
=
 OpenBabel11122412053D

 34 41  0  0  1  0  0  0  0  0999 V2000
  190.6040  177.2870  142.1970 C   0  0  0  0  0  0  0  0  0  0  0  0
  191.8900  176.7470  140.0740 C   0  0  0  0  0  2  0  0  0  0  0  0
  185.1250  178.9280  145.3000 C   0  0  0  0  0  0  0  0  0  0  0  0
  189.1190  177.4190  144.0890 C   0  0  0  0  0  0  0  0  0  0  0  0
  186.7350  177.8460  143.7820 C   0  0  0  0  0  0  0  0  0  0  0  0
  184.3790  178.5620  143.2790 C   0  0  0  0  0  2  0  0  0  0  0  0
  184.1260  179.5580  144.3600 C   0  0  0  0  0  2  0  0  0  0  0  0
  186.7640  178.2640  146.9330 C   0  0  0  0  0  3  0  0  0  0  0  0
  189.8180  177.9830  139.9000 C   0  0  2  0  0  3  0  0  0  0  0  0
  187.8720  176.7530  137.6260 C   0  0  0  0  0  3  0  0  0  0  0  0
  186.9830  177.8810  142.3970 O   0  0  0  0  0  0  0  0  0  0  0  0
  187.6450  177.6310  146.1400 C   0  0  0  0  0  3  0  0  0  0  0  0
  188.3950  177.6890  140.4120 C   0  0  1  0  0  3  0  0  0  0  0  0
  191.6020  176.9850  138.6000 C   0  0  0  0  0  2  0  0  0  0  0  0
  187.7700  177.6750  144.6500 C   0  0  0  0  0  0  0  0  0  0  0  0
  185.6730  179.1360  146.4800 C   0  0  0  0  0  3  0  0  0  0  0  0
  189.2220  176.2770  138.0970 C   0  0  2  0  0  3  0  0  0  0  0  0
  189.3480  177.6000  142.7240 C   0  0  0  0  0  0  0  0  0  0  0  0
  185.3040  177.8820  144.2370 C   0  0  2  0  0  3  0  0  0  0  0  0
  188.2690  178.1860  141.8570 C   0  0  2  0  0  3  0  0  0  0  0  0
  191.3510  176.6600  144.3490 C   0  0  0  0  0  3  0  0  0  0  0  0
  187.0730  177.6310  138.2580 C   0  0  0  0  0  3  0  0  0  0  0  0
  190.1320  176.9570  144.8750 N   0  0  0  0  0  0  0  0  0  0  0  0
  187.3900  178.3960  139.5170 C   0  0  0  0  0  2  0  0  0  0  0  0
  190.1430  177.4440  138.4990 C   0  0  1  0  0  3  0  0  0  0  0  0
  191.5800  176.8170  143.0170 N   0  0  0  0  0  0  0  0  0  0  0  0
  190.8180  177.4100  140.7850 N   0  0  0  0  0  0  0  0  0  0  0  0
  189.8040  175.5070  137.0830 O   0  0  0  0  0  0  0  0  0  0  0  0
  189.5710  176.2280  135.9080 C   0  0  0  0  0  2  0  0  0  0  0  0
  192.5190  174.7110  134.9640 C   0  0  0  0  0  2  0  0  0  0  0  0
  190.3790  174.0930  134.9220 C   0  0  0  0  0  2  0  0  0  0  0  0
  190.3280  175.5950  134.7550 C   0  0  2  0  0  3  0  0  0  0  0  0
  191.6720  173.6580  134.5940 O   0  0  0  0  0  0  0  0  0  0  0  0
  191.7670  176.0120  134.7990 C   0  0  0  0  0  2  0  0  0  0  0  0
  1 18  2  0  0  0  0
  1 26  1  0  0  0  0
  2 27  1  0  0  0  0
  3 16  2  0  0  0  0
  4 15  1  0  0  0  0
  4 23  2  0  0  0  0
  5 19  1  0  0  0  0
  5 15  2  0  0  0  0
  6  7  1  0  0  0  0
  7  3  1  0  0  0  0
  9 13  1  0  0  0  0
  9 27  1  1  0  0  0
 10 17  1  0  0  0  0
 10 22  2  0  0  0  0
 11  5  1  0  0  0  0
 12  8  2  0  0  0  0
 13 24  1  6  0  0  0
 13 20  1  0  0  0  0
 14  2  1  0  0  0  0
 15 12  1  0  0  0  0
 16  8  1  0  0  0  0
 17 28  1  6  0  0  0
 17 25  1  0  0  0  0
 18  4  1  0  0  0  0
 19  6  1  6  0  0  0
 19  3  1  0  0  0  0
 20 11  1  1  0  0  0
 20 18  1  0  0  0  0
 21 23  1  0  0  0  0
 22 24  1  0  0  0  0
 25 14  1  1  0  0  0
 25  9  1  0  0  0  0
 26 21  2  0  0  0  0
 27  1  1  0  0  0  0
 29 28  1  0  0  0  0
 32 34  1  0  0  0  0
 32 31  1  0  0  0  0
 32 29  1  1  0  0  0
 33 31  1  0  0  0  0
 33 30  1  0  0  0  0
 34 30  1  0  0  0  0
M  END
>  <MODEL>
6

>  <REMARK>
 VINA RESULT:      -9.8      3.712      6.852
  Name = 
  3 active torsions:
  status: ('A' for Active; 'I' for Inactive)
    1  A    between atoms: C_17  and  O_28
    2  A    between atoms: O_28  and  C_29
    3  A    between atoms: C_29  and  C_32
                            x       y       z     vdW  Elec       q    Type
                         _______ _______ _______ _____ _____    ______ ____

>  <TORSDO>
F 3

$$$$
=
 OpenBabel11122412053D

 34 41  0  0  1  0  0  0  0  0999 V2000
  188.1510  177.8510  140.7570 C   0  0  0  0  0  0  0  0  0  0  0  0
  186.5800  178.1930  138.7910 C   0  0  0  0  0  2  0  0  0  0  0  0
  189.3230  177.5360  147.1490 C   0  0  0  0  0  0  0  0  0  0  0  0
  189.3520  177.1600  142.7270 C   0  0  0  0  0  0  0  0  0  0  0  0
  188.2990  177.2450  144.9280 C   0  0  0  0  0  0  0  0  0  0  0  0
  187.1420  177.6620  147.1200 C   0  0  0  0  0  2  0  0  0  0  0  0
  188.2470  178.2340  147.9430 C   0  0  0  0  0  2  0  0  0  0  0  0
  191.2540  176.7080  145.9720 C   0  0  0  0  0  3  0  0  0  0  0  0
  185.9380  179.0510  140.9590 C   0  0  2  0  0  3  0  0  0  0  0  0
  182.9020  178.2360  141.7250 C   0  0  0  0  0  3  0  0  0  0  0  0
  187.1440  177.7300  144.2880 O   0  0  0  0  0  0  0  0  0  0  0  0
  190.7180  176.5000  144.7580 C   0  0  0  0  0  3  0  0  0  0  0  0
  185.8190  178.3790  142.3410 C   0  0  1  0  0  3  0  0  0  0  0  0
  185.1930  178.8040  138.6680 C   0  0  0  0  0  2  0  0  0  0  0  0
  189.4250  177.0030  144.2000 C   0  0  0  0  0  0  0  0  0  0  0  0
  190.6370  177.4750  147.0620 C   0  0  0  0  0  3  0  0  0  0  0  0
  183.7160  177.8800  140.5060 C   0  0  2  0  0  3  0  0  0  0  0  0
  188.2390  177.7740  142.1500 C   0  0  0  0  0  0  0  0  0  0  0  0
  188.1980  176.8980  146.3870 C   0  0  2  0  0  3  0  0  0  0  0  0
  187.1900  178.3970  143.0270 C   0  0  2  0  0  3  0  0  0  0  0  0
  190.2350  176.7520  140.5650 C   0  0  0  0  0  3  0  0  0  0  0  0
  183.3750  178.7360  142.8790 C   0  0  0  0  0  3  0  0  0  0  0  0
  190.3320  176.6660  141.9190 N   0  0  0  0  0  0  0  0  0  0  0  0
  184.7980  179.1370  143.1740 C   0  0  0  0  0  2  0  0  0  0  0  0
  184.6710  179.0150  140.0930 C   0  0  1  0  0  3  0  0  0  0  0  0
  189.1460  177.3330  139.9900 N   0  0  0  0  0  0  0  0  0  0  0  0
  186.9790  178.4210  140.1620 N   0  0  0  0  0  0  0  0  0  0  0  0
  182.8420  177.5570  139.4630 O   0  0  0  0  0  0  0  0  0  0  0  0
  182.4430  176.2430  139.7240 C   0  0  0  0  0  2  0  0  0  0  0  0
  180.4340  173.9120  138.1700 C   0  0  0  0  0  2  0  0  0  0  0  0
  180.2510  175.1110  140.0380 C   0  0  0  0  0  2  0  0  0  0  0  0
  181.0740  175.9880  139.1210 C   0  0  2  0  0  3  0  0  0  0  0  0
  179.5810  174.1610  139.2540 O   0  0  0  0  0  0  0  0  0  0  0  0
  181.2090  175.1740  137.8700 C   0  0  0  0  0  2  0  0  0  0  0  0
  1 18  1  0  0  0  0
  2 27  1  0  0  0  0
  3  7  1  0  0  0  0
  4 15  1  0  0  0  0
  5 19  1  0  0  0  0
  6  7  1  0  0  0  0
  8 16  1  0  0  0  0
  9 27  1  6  0  0  0
  9 13  1  0  0  0  0
 10 22  2  0  0  0  0
 11  5  1  0  0  0  0
 12  8  2  0  0  0  0
 13 20  1  0  0  0  0
 13 24  1  1  0  0  0
 14  2  1  0  0  0  0
 15 12  1  0  0  0  0
 15  5  2  0  0  0  0
 16  3  2  0  0  0  0
 17 28  1  6  0  0  0
 17 10  1  0  0  0  0
 18  4  2  0  0  0  0
 19  6  1  1  0  0  0
 19  3  1  0  0  0  0
 20 18  1  6  0  0  0
 20 11  1  0  0  0  0
 21 23  2  0  0  0  0
 22 24  1  0  0  0  0
 23  4  1  0  0  0  0
 25 14  1  6  0  0  0
 25 17  1  0  0  0  0
 25  9  1  0  0  0  0
 26 21  1  0  0  0  0
 26  1  2  0  0  0  0
 27  1  1  0  0  0  0
 28 29  1  0  0  0  0
 30 33  1  0  0  0  0
 32 29  1  1  0  0  0
 32 31  1  0  0  0  0
 33 31  1  0  0  0  0
 34 30  1  0  0  0  0
 34 32  1  0  0  0  0
M  END
>  <MODEL>
7

>  <REMARK>
 VINA RESULT:      -9.8      1.078      1.289
  Name = 
  3 active torsions:
  status: ('A' for Active; 'I' for Inactive)
    1  A    between atoms: C_17  and  O_28
    2  A    between atoms: O_28  and  C_29
    3  A    between atoms: C_29  and  C_32
                            x       y       z     vdW  Elec       q    Type
                         _______ _______ _______ _____ _____    ______ ____

>  <TORSDO>
F 3

$$$$
=
 OpenBabel11122412053D

 34 41  0  0  1  0  0  0  0  0999 V2000
  187.7850  177.8940  140.7780 C   0  0  0  0  0  0  0  0  0  0  0  0
  186.7180  177.9310  138.4740 C   0  0  0  0  0  2  0  0  0  0  0  0
  187.4000  178.2790  147.2620 C   0  0  0  0  0  0  0  0  0  0  0  0
  188.5080  177.4840  143.0390 C   0  0  0  0  0  0  0  0  0  0  0  0
  186.9550  177.7030  144.9090 C   0  0  0  0  0  0  0  0  0  0  0  0
  185.2860  178.2440  146.7090 C   0  0  0  0  0  2  0  0  0  0  0  0
  186.1320  178.9710  147.7000 C   0  0  0  0  0  2  0  0  0  0  0  0
  189.5940  177.4840  146.6690 C   0  0  0  0  0  3  0  0  0  0  0  0
  185.5340  178.9440  140.3230 C   0  0  2  0  0  3  0  0  0  0  0  0
  182.4450  177.9890  140.4420 C   0  0  0  0  0  3  0  0  0  0  0  0
  185.9650  178.0400  143.9670 O   0  0  0  0  0  0  0  0  0  0  0  0
  189.3760  177.1220  145.3930 C   0  0  0  0  0  3  0  0  0  0  0  0
  185.1180  178.4010  141.7040 C   0  0  1  0  0  3  0  0  0  0  0  0
  185.3740  178.4260  137.9630 C   0  0  0  0  0  2  0  0  0  0  0  0
  188.2320  177.4750  144.4960 C   0  0  0  0  0  0  0  0  0  0  0  0
  188.6970  178.3060  147.4920 C   0  0  0  0  0  3  0  0  0  0  0  0
  183.5430  177.5780  139.4950 C   0  0  2  0  0  3  0  0  0  0  0  0
  187.5390  177.9580  142.1530 C   0  0  0  0  0  0  0  0  0  0  0  0
  186.5220  177.4920  146.3320 C   0  0  2  0  0  3  0  0  0  0  0  0
  186.2810  178.5840  142.6850 C   0  0  2  0  0  3  0  0  0  0  0  0
  189.9030  176.9360  141.2020 C   0  0  0  0  0  3  0  0  0  0  0  0
  182.6020  178.6310  141.6130 C   0  0  0  0  0  3  0  0  0  0  0  0
  189.6760  176.9870  142.5420 N   0  0  0  0  0  0  0  0  0  0  0  0
  183.8910  179.1590  142.1860 C   0  0  0  0  0  2  0  0  0  0  0  0
  184.5150  178.7340  139.1940 C   0  0  1  0  0  3  0  0  0  0  0  0
  188.9590  177.3780  140.3280 N   0  0  0  0  0  0  0  0  0  0  0  0
  186.7640  178.3180  139.8670 N   0  0  0  0  0  0  0  0  0  0  0  0
  182.9620  177.0940  138.3180 O   0  0  0  0  0  0  0  0  0  0  0  0
  181.7350  177.7570  138.2250 C   0  0  0  0  0  2  0  0  0  0  0  0
  180.3900  178.5750  135.1590 C   0  0  0  0  0  2  0  0  0  0  0  0
  180.5420  179.6330  137.1130 C   0  0  0  0  0  2  0  0  0  0  0  0
  181.7690  178.7510  137.0800 C   0  0  2  0  0  3  0  0  0  0  0  0
  180.0690  179.7800  135.8010 O   0  0  0  0  0  0  0  0  0  0  0  0
  181.6580  178.0290  135.7720 C   0  0  0  0  0  2  0  0  0  0  0  0
  1 18  1  0  0  0  0
  2 27  1  0  0  0  0
  3 16  2  0  0  0  0
  3  7  1  0  0  0  0
  4 15  1  0  0  0  0
  5 19  1  0  0  0  0
  6  7  1  0  0  0  0
  8 16  1  0  0  0  0
  9 27  1  6  0  0  0
  9 13  1  0  0  0  0
 10 22  2  0  0  0  0
 11  5  1  0  0  0  0
 12  8  2  0  0  0  0
 13 24  1  1  0  0  0
 13 20  1  0  0  0  0
 14  2  1  0  0  0  0
 15  5  2  0  0  0  0
 15 12  1  0  0  0  0
 17 28  1  6  0  0  0
 17 10  1  0  0  0  0
 18  4  2  0  0  0  0
 19  6  1  6  0  0  0
 19  3  1  0  0  0  0
 20 18  1  6  0  0  0
 20 11  1  0  0  0  0
 21 23  2  0  0  0  0
 22 24  1  0  0  0  0
 23  4  1  0  0  0  0
 25 14  1  6  0  0  0
 25 17  1  0  0  0  0
 25  9  1  0  0  0  0
 26  1  2  0  0  0  0
 26 21  1  0  0  0  0
 27  1  1  0  0  0  0
 29 28  1  0  0  0  0
 30 34  1  0  0  0  0
 30 33  1  0  0  0  0
 32 31  1  0  0  0  0
 32 29  1  1  0  0  0
 33 31  1  0  0  0  0
 34 32  1  0  0  0  0
M  END
>  <MODEL>
8

>  <REMARK>
 VINA RESULT:      -9.2      2.111      2.633
  Name = 
  3 active torsions:
  status: ('A' for Active; 'I' for Inactive)
    1  A    between atoms: C_17  and  O_28
    2  A    between atoms: O_28  and  C_29
    3  A    between atoms: C_29  and  C_32
                            x       y       z     vdW  Elec       q    Type
                         _______ _______ _______ _____ _____    ______ ____

>  <TORSDO>
F 3

$$$$
=
 OpenBabel11122412053D

 34 41  0  0  1  0  0  0  0  0999 V2000
  182.2140  178.8000  143.5590 C   0  0  0  0  0  0  0  0  0  0  0  0
  183.8060  178.9960  145.5300 C   0  0  0  0  0  2  0  0  0  0  0  0
  181.0530  177.9520  137.2130 C   0  0  0  0  0  0  0  0  0  0  0  0
  180.8950  178.1770  141.6430 C   0  0  0  0  0  0  0  0  0  0  0  0
  181.9530  177.7100  139.4930 C   0  0  0  0  0  0  0  0  0  0  0  0
  183.1960  177.5380  137.3150 C   0  0  0  0  0  2  0  0  0  0  0  0
  182.2770  178.2530  136.3830 C   0  0  0  0  0  2  0  0  0  0  0  0
  178.9670  177.7900  138.4050 C   0  0  0  0  0  3  0  0  0  0  0  0
  184.6590  179.3780  143.2990 C   0  0  2  0  0  3  0  0  0  0  0  0
  187.4000  177.7430  142.7650 C   0  0  0  0  0  3  0  0  0  0  0  0
  183.1880  177.9730  140.1140 O   0  0  0  0  0  0  0  0  0  0  0  0
  179.4240  177.6160  139.6570 C   0  0  0  0  0  3  0  0  0  0  0  0
  184.6180  178.5230  142.0180 C   0  0  1  0  0  3  0  0  0  0  0  0
  185.3000  179.2560  145.6320 C   0  0  0  0  0  2  0  0  0  0  0  0
  180.7970  177.8520  140.1990 C   0  0  0  0  0  0  0  0  0  0  0  0
  179.7650  178.2310  137.2550 C   0  0  0  0  0  3  0  0  0  0  0  0
  186.5130  177.7630  143.9840 C   0  0  2  0  0  3  0  0  0  0  0  0
  182.1210  178.5660  142.1840 C   0  0  0  0  0  0  0  0  0  0  0  0
  181.9760  177.1620  138.0940 C   0  0  2  0  0  3  0  0  0  0  0  0
  183.3000  178.7900  141.2800 C   0  0  2  0  0  3  0  0  0  0  0  0
  179.9200  178.2870  143.8020 C   0  0  0  0  0  3  0  0  0  0  0  0
  187.0770  178.1900  141.5390 C   0  0  0  0  0  3  0  0  0  0  0  0
  179.8160  178.0510  142.4660 N   0  0  0  0  0  0  0  0  0  0  0  0
  185.8030  178.8880  141.1390 C   0  0  0  0  0  2  0  0  0  0  0  0
  185.8700  179.1430  144.2130 C   0  0  1  0  0  3  0  0  0  0  0  0
  181.1150  178.6500  144.3440 N   0  0  0  0  0  0  0  0  0  0  0  0
  183.4880  179.1350  144.1250 N   0  0  0  0  0  0  0  0  0  0  0  0
  187.2700  177.3720  145.0940 O   0  0  0  0  0  0  0  0  0  0  0  0
  188.5510  177.1340  144.5880 C   0  0  0  0  0  2  0  0  0  0  0  0
  190.7120  176.7430  147.2460 C   0  0  0  0  0  2  0  0  0  0  0  0
  190.9740  177.3300  145.1130 C   0  0  0  0  0  2  0  0  0  0  0  0
  189.5870  177.8220  145.4590 C   0  0  2  0  0  3  0  0  0  0  0  0
  191.6800  177.1280  146.3080 O   0  0  0  0  0  0  0  0  0  0  0  0
  189.4060  177.4130  146.8890 C   0  0  0  0  0  2  0  0  0  0  0  0
  1 27  1  0  0  0  0
  1 26  1  0  0  0  0
  2 14  1  0  0  0  0
  3 16  2  0  0  0  0
  3 19  1  0  0  0  0
  4 18  1  0  0  0  0
  4 23  2  0  0  0  0
  5 11  1  0  0  0  0
  5 15  2  0  0  0  0
  7  3  1  0  0  0  0
  7  6  1  0  0  0  0
  8 12  2  0  0  0  0
  9 27  1  1  0  0  0
  9 25  1  0  0  0  0
 10 17  1  0  0  0  0
 12 15  1  0  0  0  0
 13 24  1  6  0  0  0
 13  9  1  0  0  0  0
 15  4  1  0  0  0  0
 16  8  1  0  0  0  0
 17 25  1  0  0  0  0
 17 28  1  1  0  0  0
 18  1  2  0  0  0  0
 19  6  1  6  0  0  0
 19  5  1  0  0  0  0
 20 11  1  6  0  0  0
 20 13  1  0  0  0  0
 20 18  1  0  0  0  0
 21 26  2  0  0  0  0
 22 10  2  0  0  0  0
 23 21  1  0  0  0  0
 24 22  1  0  0  0  0
 25 14  1  1  0  0  0
 27  2  1  0  0  0  0
 29 28  1  0  0  0  0
 31 32  1  0  0  0  0
 31 33  1  0  0  0  0
 32 29  1  6  0  0  0
 32 34  1  0  0  0  0
 33 30  1  0  0  0  0
 34 30  1  0  0  0  0
M  END
>  <MODEL>
9

>  <REMARK>
 VINA RESULT:      -9.1      2.609      9.398
  Name = 
  3 active torsions:
  status: ('A' for Active; 'I' for Inactive)
    1  A    between atoms: C_17  and  O_28
    2  A    between atoms: O_28  and  C_29
    3  A    between atoms: C_29  and  C_32
                            x       y       z     vdW  Elec       q    Type
                         _______ _______ _______ _____ _____    ______ ____

>  <TORSDO>
F 3

$$$$
