=
 OpenBabel11122411533D

 28 31  0  0  1  0  0  0  0  0999 V2000
  180.8850  179.3020  142.5980 C   0  0  0  0  0  0  0  0  0  0  0  0
  179.4620  176.5800  140.2360 O   0  0  0  0  0  0  0  0  0  0  0  0
  179.4020  180.7320  140.7050 C   0  0  0  0  0  3  0  0  0  0  0  0
  181.6870  178.6680  143.5470 O   0  0  0  0  0  0  0  0  0  0  0  0
  180.2020  177.8880  138.2730 O   0  0  0  0  0  0  0  0  0  0  0  0
  180.5520  176.7730  139.2190 S   0  0  0  0  0  0  0  0  0  0  0  0
  182.1300  175.3730  137.4840 C   0  0  2  0  0  3  0  0  0  0  0  0
  182.0790  177.0420  139.9930 N   0  0  1  0  0  0  0  0  0  0  0  0
  185.2780  179.1370  144.6050 C   0  0  0  0  0  1  0  0  0  0  0  0
  183.5900  178.8970  140.4720 C   0  0  2  0  0  3  0  0  0  0  0  0
  183.3410  175.8050  138.3270 C   0  0  0  0  0  2  0  0  0  0  0  0
  180.8210  175.2740  138.2880 C   0  0  0  0  0  2  0  0  0  0  0  0
  184.0870  178.4800  143.9270 C   0  0  2  0  0  3  0  0  0  0  0  0
  181.1330  179.1150  141.2290 C   0  0  0  0  0  0  0  0  0  0  0  0
  182.3970  174.1470  136.8770 O   0  0  0  0  0  1  0  0  0  0  0  0
  184.3960  178.0610  142.6080 O   0  0  0  0  0  0  0  0  0  0  0  0
  180.4180  179.8680  140.2890 C   0  0  0  0  0  3  0  0  0  0  0  0
  179.8610  180.1630  143.0120 C   0  0  0  0  0  3  0  0  0  0  0  0
  179.1150  180.8710  142.0660 C   0  0  0  0  0  3  0  0  0  0  0  0
  182.8240  179.3410  144.0680 C   0  0  0  0  0  2  0  0  0  0  0  0
  184.2520  177.9010  139.5280 C   0  0  1  0  0  3  0  0  0  0  0  0
  184.4160  179.1750  141.7400 C   0  0  1  0  0  3  0  0  0  0  0  0
  183.0590  177.1750  138.9340 C   0  0  2  0  0  3  0  0  0  0  0  0
  182.2770  178.2270  140.8340 C   0  0  1  0  0  3  0  0  0  0  0  0
  186.4900  178.4020  141.8000 C   0  0  0  0  0  1  0  0  0  0  0  0
  185.7330  179.5100  141.4160 O   0  0  0  0  0  0  0  0  0  0  0  0
  185.0170  178.6500  138.4490 C   0  0  0  0  0  2  0  0  0  0  0  0
  186.3250  177.9470  138.1410 C   0  0  0  0  0  1  0  0  0  0  0  0
  1 18  1  0  0  0  0
  1  4  1  0  0  0  0
  3 19  1  0  0  0  0
  4 20  1  0  0  0  0
  5  6  2  0  0  0  0
  6  2  2  0  0  0  0
  7 15  1  1  0  0  0
  7 12  1  0  0  0  0
  7 11  1  0  0  0  0
  8  6  1  6  0  0  0
  8 24  1  0  0  0  0
 10 24  1  0  0  0  0
 10 22  1  0  0  0  0
 11 23  1  0  0  0  0
 12  6  1  0  0  0  0
 13 20  1  0  0  0  0
 13  9  1  0  0  0  0
 14  1  2  0  0  0  0
 16 13  1  0  0  0  0
 17  3  2  0  0  0  0
 17 14  1  0  0  0  0
 19 18  2  0  0  0  0
 21 10  1  0  0  0  0
 22 16  1  0  0  0  0
 23 21  1  0  0  0  0
 23  8  1  0  0  0  0
 24 14  1  0  0  0  0
 26 22  1  0  0  0  0
 26 25  1  0  0  0  0
 27 21  1  0  0  0  0
 28 27  1  0  0  0  0
M  END
>  <MODEL>
1

>  <REMARK>
 VINA RESULT:      -6.5      0.000      0.000
  Name = 
  2 active torsions:
  status: ('A' for Active; 'I' for Inactive)
    1  A    between atoms: C_5  and  C_24
    2  A    between atoms: O_17  and  C_25
                            x       y       z     vdW  Elec       q    Type
                         _______ _______ _______ _____ _____    ______ ____

>  <TORSDO>
F 2

$$$$
=
 OpenBabel11122411533D

 28 31  0  0  1  0  0  0  0  0999 V2000
  185.4070  175.5930  136.0900 C   0  0  0  0  0  0  0  0  0  0  0  0
  181.7390  176.8110  135.8150 O   0  0  0  0  0  0  0  0  0  0  0  0
  183.9270  173.6540  137.4610 C   0  0  0  0  0  3  0  0  0  0  0  0
  186.2200  176.5430  135.4720 O   0  0  0  0  0  0  0  0  0  0  0  0
  181.4300  176.4470  138.2400 O   0  0  0  0  0  0  0  0  0  0  0  0
  181.7610  177.4530  137.1740 S   0  0  0  0  0  0  0  0  0  0  0  0
  180.8450  179.6480  138.5170 C   0  0  2  0  0  3  0  0  0  0  0  0
  183.2860  178.2230  137.4690 N   0  0  1  0  0  0  0  0  0  0  0  0
  189.2130  178.5210  136.6430 C   0  0  0  0  0  1  0  0  0  0  0  0
  185.3280  177.8210  138.7430 C   0  0  2  0  0  3  0  0  0  0  0  0
  182.3100  180.0830  138.6910 C   0  0  0  0  0  2  0  0  0  0  0  0
  180.5960  178.8030  137.2560 C   0  0  0  0  0  2  0  0  0  0  0  0
  187.7680  178.2580  136.2500 C   0  0  2  0  0  3  0  0  0  0  0  0
  184.5340  175.9780  137.1200 C   0  0  0  0  0  0  0  0  0  0  0  0
  180.0240  180.7730  138.4930 O   0  0  0  0  0  1  0  0  0  0  0  0
  186.8570  178.8520  137.1600 O   0  0  0  0  0  0  0  0  0  0  0  0
  183.8310  174.9980  137.8310 C   0  0  0  0  0  3  0  0  0  0  0  0
  185.4970  174.2470  135.7160 C   0  0  0  0  0  3  0  0  0  0  0  0
  184.7510  173.2800  136.3960 C   0  0  0  0  0  3  0  0  0  0  0  0
  187.5350  176.7680  135.9620 C   0  0  0  0  0  2  0  0  0  0  0  0
  184.6090  179.0590  139.2660 C   0  0  1  0  0  3  0  0  0  0  0  0
  186.7890  178.0890  138.3450 C   0  0  1  0  0  3  0  0  0  0  0  0
  183.1890  178.8400  138.7770 C   0  0  2  0  0  3  0  0  0  0  0  0
  184.5140  177.4240  137.5240 C   0  0  1  0  0  3  0  0  0  0  0  0
  188.2650  177.7430  139.9600 C   0  0  0  0  0  1  0  0  0  0  0  0
  187.4780  178.7360  139.3750 O   0  0  0  0  0  0  0  0  0  0  0  0
  184.6580  179.0740  140.7850 C   0  0  0  0  0  2  0  0  0  0  0  0
  183.7990  177.9600  141.3550 C   0  0  0  0  0  1  0  0  0  0  0  0
  1 14  1  0  0  0  0
  2  6  2  0  0  0  0
  3 17  1  0  0  0  0
  4 20  1  0  0  0  0
  4  1  1  0  0  0  0
  6 12  1  0  0  0  0
  6  5  2  0  0  0  0
  7 15  1  6  0  0  0
  7 11  1  0  0  0  0
  8  6  1  1  0  0  0
  8 24  1  0  0  0  0
  8 23  1  0  0  0  0
 10 21  1  0  0  0  0
 11 23  1  0  0  0  0
 12  7  1  0  0  0  0
 13  9  1  0  0  0  0
 13 16  1  0  0  0  0
 14 24  1  0  0  0  0
 14 17  2  0  0  0  0
 16 22  1  0  0  0  0
 18  1  2  0  0  0  0
 18 19  1  0  0  0  0
 19  3  2  0  0  0  0
 20 13  1  0  0  0  0
 21 27  1  0  0  0  0
 22 10  1  0  0  0  0
 22 26  1  0  0  0  0
 23 21  1  0  0  0  0
 24 10  1  0  0  0  0
 26 25  1  0  0  0  0
 27 28  1  0  0  0  0
M  END
>  <MODEL>
2

>  <REMARK>
 VINA RESULT:      -6.4      2.838      6.226
  Name = 
  2 active torsions:
  status: ('A' for Active; 'I' for Inactive)
    1  A    between atoms: C_5  and  C_24
    2  A    between atoms: O_17  and  C_25
                            x       y       z     vdW  Elec       q    Type
                         _______ _______ _______ _____ _____    ______ ____

>  <TORSDO>
F 2

$$$$
=
 OpenBabel11122411533D

 28 31  0  0  1  0  0  0  0  0999 V2000
  186.3450  175.0040  136.6140 C   0  0  0  0  0  0  0  0  0  0  0  0
  183.0180  175.0720  134.6300 O   0  0  0  0  0  0  0  0  0  0  0  0
  184.8300  172.9300  137.7270 C   0  0  0  0  0  3  0  0  0  0  0  0
  187.1410  176.0510  136.1510 O   0  0  0  0  0  0  0  0  0  0  0  0
  181.7450  174.9720  136.7470 O   0  0  0  0  0  0  0  0  0  0  0  0
  182.3080  175.8750  135.6840 S   0  0  0  0  0  0  0  0  0  0  0  0
  180.4750  177.8790  135.9720 C   0  0  2  0  0  3  0  0  0  0  0  0
  183.3560  177.0810  136.3530 N   0  0  1  0  0  0  0  0  0  0  0  0
  188.8440  178.9440  137.8750 C   0  0  0  0  0  1  0  0  0  0  0  0
  184.6570  177.4590  138.3830 C   0  0  2  0  0  3  0  0  0  0  0  0
  181.5920  178.7340  136.5930 C   0  0  0  0  0  2  0  0  0  0  0  0
  180.9840  176.8330  134.9650 C   0  0  0  0  0  2  0  0  0  0  0  0
  187.8070  178.2270  137.0250 C   0  0  2  0  0  3  0  0  0  0  0  0
  185.0490  175.2610  137.0880 C   0  0  0  0  0  0  0  0  0  0  0  0
  179.5440  178.7080  135.3500 O   0  0  0  0  0  1  0  0  0  0  0  0
  186.4900  178.6560  137.3260 O   0  0  0  0  0  0  0  0  0  0  0  0
  184.3140  174.2280  137.6850 C   0  0  0  0  0  3  0  0  0  0  0  0
  186.8570  173.7010  136.6510 C   0  0  0  0  0  3  0  0  0  0  0  0
  186.0960  172.6640  137.1990 C   0  0  0  0  0  3  0  0  0  0  0  0
  188.0280  176.7080  137.0460 C   0  0  0  0  0  2  0  0  0  0  0  0
  183.5510  178.4990  138.2580 C   0  0  1  0  0  3  0  0  0  0  0  0
  186.0580  178.0760  138.5380 C   0  0  1  0  0  3  0  0  0  0  0  0
  182.5690  177.8190  137.3210 C   0  0  2  0  0  3  0  0  0  0  0  0
  184.5640  176.6820  137.0820 C   0  0  1  0  0  3  0  0  0  0  0  0
  186.7090  178.3950  140.6300 C   0  0  0  0  0  1  0  0  0  0  0  0
  186.0750  179.0280  139.5610 O   0  0  0  0  0  0  0  0  0  0  0  0
  182.9170  178.7370  139.6190 C   0  0  0  0  0  2  0  0  0  0  0  0
  182.8730  177.4470  140.4160 C   0  0  0  0  0  1  0  0  0  0  0  0
  1 18  2  0  0  0  0
  1 14  1  0  0  0  0
  2  6  2  0  0  0  0
  4  1  1  0  0  0  0
  4 20  1  0  0  0  0
  6  5  2  0  0  0  0
  7 15  1  6  0  0  0
  7 11  1  0  0  0  0
  8  6  1  1  0  0  0
  8 24  1  0  0  0  0
  8 23  1  0  0  0  0
 10 22  1  0  0  0  0
 11 23  1  0  0  0  0
 12  6  1  0  0  0  0
 12  7  1  0  0  0  0
 13 20  1  0  0  0  0
 13 16  1  0  0  0  0
 13  9  1  0  0  0  0
 14 17  2  0  0  0  0
 16 22  1  0  0  0  0
 17  3  1  0  0  0  0
 18 19  1  0  0  0  0
 19  3  2  0  0  0  0
 21 10  1  0  0  0  0
 21 27  1  0  0  0  0
 22 26  1  0  0  0  0
 23 21  1  0  0  0  0
 24 14  1  0  0  0  0
 24 10  1  0  0  0  0
 26 25  1  0  0  0  0
 27 28  1  0  0  0  0
M  END
>  <MODEL>
3

>  <REMARK>
 VINA RESULT:      -6.1      3.232      6.328
  Name = 
  2 active torsions:
  status: ('A' for Active; 'I' for Inactive)
    1  A    between atoms: C_5  and  C_24
    2  A    between atoms: O_17  and  C_25
                            x       y       z     vdW  Elec       q    Type
                         _______ _______ _______ _____ _____    ______ ____

>  <TORSDO>
F 2

$$$$
=
 OpenBabel11122411533D

 28 31  0  0  1  0  0  0  0  0999 V2000
  183.8220  176.8520  138.6910 C   0  0  0  0  0  0  0  0  0  0  0  0
  186.0240  177.4570  141.8210 O   0  0  0  0  0  0  0  0  0  0  0  0
  185.2160  179.2100  138.1150 C   0  0  0  0  0  3  0  0  0  0  0  0
  183.0500  175.7140  138.9250 O   0  0  0  0  0  0  0  0  0  0  0  0
  185.2870  179.8150  141.8930 O   0  0  0  0  0  0  0  0  0  0  0  0
  185.0490  178.4290  142.4240 S   0  0  0  0  0  0  0  0  0  0  0  0
  183.9960  179.1890  144.8270 C   0  0  2  0  0  3  0  0  0  0  0  0
  183.4160  177.9100  142.1600 N   0  0  1  0  0  0  0  0  0  0  0  0
  179.3350  175.0610  138.8250 C   0  0  0  0  0  1  0  0  0  0  0  0
  181.5250  178.4670  140.7220 C   0  0  2  0  0  3  0  0  0  0  0  0
  182.6310  178.6960  144.3200 C   0  0  0  0  0  2  0  0  0  0  0  0
  185.1920  178.4480  144.2040 C   0  0  0  0  0  2  0  0  0  0  0  0
  180.7050  175.2970  139.4410 C   0  0  2  0  0  3  0  0  0  0  0  0
  183.7830  177.9260  139.5940 C   0  0  0  0  0  0  0  0  0  0  0  0
  184.0490  179.0730  146.2140 O   0  0  0  0  0  1  0  0  0  0  0  0
  180.6460  176.2090  140.5250 O   0  0  0  0  0  0  0  0  0  0  0  0
  184.4460  179.1190  139.2780 C   0  0  0  0  0  3  0  0  0  0  0  0
  184.6000  176.9420  137.5310 C   0  0  0  0  0  3  0  0  0  0  0  0
  185.3030  178.1170  137.2470 C   0  0  0  0  0  3  0  0  0  0  0  0
  181.7490  175.6210  138.3630 C   0  0  0  0  0  2  0  0  0  0  0  0
  181.1900  178.7580  142.1790 C   0  0  1  0  0  3  0  0  0  0  0  0
  180.5140  177.5290  140.0410 C   0  0  1  0  0  3  0  0  0  0  0  0
  182.5640  178.8870  142.8100 C   0  0  2  0  0  3  0  0  0  0  0  0
  182.8910  177.8060  140.7950 C   0  0  1  0  0  3  0  0  0  0  0  0
  178.9360  178.7720  139.1090 C   0  0  0  0  0  1  0  0  0  0  0  0
  179.2060  177.9820  140.2280 O   0  0  0  0  0  0  0  0  0  0  0  0
  180.4300  180.0710  142.2750 C   0  0  0  0  0  2  0  0  0  0  0  0
  179.2360  179.9260  143.2000 C   0  0  0  0  0  1  0  0  0  0  0  0
  1  4  1  0  0  0  0
  1 14  1  0  0  0  0
  2  6  2  0  0  0  0
  3 17  1  0  0  0  0
  5  6  2  0  0  0  0
  6 12  1  0  0  0  0
  7 15  1  1  0  0  0
  8  6  1  6  0  0  0
  8 23  1  0  0  0  0
  9 13  1  0  0  0  0
 10 24  1  0  0  0  0
 10 21  1  0  0  0  0
 11  7  1  0  0  0  0
 12  7  1  0  0  0  0
 13 16  1  0  0  0  0
 14 24  1  0  0  0  0
 17 14  2  0  0  0  0
 18  1  2  0  0  0  0
 19 18  1  0  0  0  0
 19  3  2  0  0  0  0
 20  4  1  0  0  0  0
 20 13  1  0  0  0  0
 21 27  1  0  0  0  0
 21 23  1  0  0  0  0
 22 26  1  0  0  0  0
 22 16  1  0  0  0  0
 22 10  1  0  0  0  0
 23 11  1  0  0  0  0
 24  8  1  0  0  0  0
 25 26  1  0  0  0  0
 27 28  1  0  0  0  0
M  END
>  <MODEL>
4

>  <REMARK>
 VINA RESULT:      -6.0      1.946      6.481
  Name = 
  2 active torsions:
  status: ('A' for Active; 'I' for Inactive)
    1  A    between atoms: C_5  and  C_24
    2  A    between atoms: O_17  and  C_25
                            x       y       z     vdW  Elec       q    Type
                         _______ _______ _______ _____ _____    ______ ____

>  <TORSDO>
F 2

$$$$
=
 OpenBabel11122411533D

 28 31  0  0  1  0  0  0  0  0999 V2000
  186.9560  176.3530  137.2430 C   0  0  0  0  0  0  0  0  0  0  0  0
  186.2260  178.4940  140.3900 O   0  0  0  0  0  0  0  0  0  0  0  0
  187.1960  178.9970  136.3560 C   0  0  0  0  0  3  0  0  0  0  0  0
  186.8020  175.0120  137.5940 O   0  0  0  0  0  0  0  0  0  0  0  0
  184.6650  179.8950  139.0820 O   0  0  0  0  0  0  0  0  0  0  0  0
  184.7890  178.7170  140.0080 S   0  0  0  0  0  0  0  0  0  0  0  0
  182.2930  178.9090  141.0980 C   0  0  2  0  0  3  0  0  0  0  0  0
  184.1020  177.2830  139.3190 N   0  0  1  0  0  0  0  0  0  0  0  0
  184.7020  172.2110  136.1870 C   0  0  0  0  0  1  0  0  0  0  0  0
  183.4940  176.4130  137.1220 C   0  0  2  0  0  3  0  0  0  0  0  0
  181.9180  177.6340  140.3240 C   0  0  0  0  0  2  0  0  0  0  0  0
  183.7860  178.9990  141.4570 C   0  0  0  0  0  2  0  0  0  0  0  0
  185.1240  173.2980  137.1610 C   0  0  2  0  0  3  0  0  0  0  0  0
  185.9080  177.2620  137.4600 C   0  0  0  0  0  0  0  0  0  0  0  0
  181.5290  178.9910  142.2600 O   0  0  0  0  0  1  0  0  0  0  0  0
  184.0220  174.0860  137.5830 O   0  0  0  0  0  0  0  0  0  0  0  0
  186.0170  178.5700  136.9730 C   0  0  0  0  0  3  0  0  0  0  0  0
  188.1390  176.7840  136.6320 C   0  0  0  0  0  3  0  0  0  0  0  0
  188.2620  178.1070  136.1970 C   0  0  0  0  0  3  0  0  0  0  0  0
  186.3300  174.0840  136.6280 C   0  0  0  0  0  2  0  0  0  0  0  0
  182.2530  176.5830  137.9900 C   0  0  1  0  0  3  0  0  0  0  0  0
  183.6550  174.9900  136.5630 C   0  0  1  0  0  3  0  0  0  0  0  0
  182.7160  177.5910  139.0260 C   0  0  2  0  0  3  0  0  0  0  0  0
  184.6370  176.7410  138.0660 C   0  0  1  0  0  3  0  0  0  0  0  0
  182.6410  174.9010  134.5960 C   0  0  0  0  0  1  0  0  0  0  0  0
  182.4800  174.5610  135.9390 O   0  0  0  0  0  0  0  0  0  0  0  0
  181.1190  177.1550  137.1540 C   0  0  0  0  0  2  0  0  0  0  0  0
  181.6150  178.3150  136.3120 C   0  0  0  0  0  1  0  0  0  0  0  0
  1 14  1  0  0  0  0
  1  4  1  0  0  0  0
  3 17  1  0  0  0  0
  5  6  2  0  0  0  0
  6  2  2  0  0  0  0
  6 12  1  0  0  0  0
  7 12  1  0  0  0  0
  7 15  1  1  0  0  0
  8  6  1  6  0  0  0
  9 13  1  0  0  0  0
 10 21  1  0  0  0  0
 10 24  1  0  0  0  0
 11  7  1  0  0  0  0
 13 16  1  0  0  0  0
 14 24  1  0  0  0  0
 17 14  2  0  0  0  0
 18  1  2  0  0  0  0
 19  3  2  0  0  0  0
 19 18  1  0  0  0  0
 20 13  1  0  0  0  0
 20  4  1  0  0  0  0
 21 23  1  0  0  0  0
 22 10  1  0  0  0  0
 22 16  1  0  0  0  0
 23  8  1  0  0  0  0
 23 11  1  0  0  0  0
 24  8  1  0  0  0  0
 25 26  1  0  0  0  0
 26 22  1  0  0  0  0
 27 21  1  0  0  0  0
 28 27  1  0  0  0  0
M  END
>  <MODEL>
5

>  <REMARK>
 VINA RESULT:      -5.4      2.489      7.043
  Name = 
  2 active torsions:
  status: ('A' for Active; 'I' for Inactive)
    1  A    between atoms: C_5  and  C_24
    2  A    between atoms: O_17  and  C_25
                            x       y       z     vdW  Elec       q    Type
                         _______ _______ _______ _____ _____    ______ ____

>  <TORSDO>
F 2

$$$$
=
 OpenBabel11122411533D

 28 31  0  0  1  0  0  0  0  0999 V2000
  189.2770  173.2150  136.1710 C   0  0  0  0  0  0  0  0  0  0  0  0
  191.1340  175.2610  138.8870 O   0  0  0  0  0  0  0  0  0  0  0  0
  191.0850  174.7950  134.7340 C   0  0  0  0  0  3  0  0  0  0  0  0
  188.3120  172.4350  136.8090 O   0  0  0  0  0  0  0  0  0  0  0  0
  190.7740  177.3310  137.5840 O   0  0  0  0  0  0  0  0  0  0  0  0
  190.2560  176.4670  138.7000 S   0  0  0  0  0  0  0  0  0  0  0  0
  189.0430  178.4670  140.1080 C   0  0  2  0  0  3  0  0  0  0  0  0
  188.6090  175.9970  138.4370 N   0  0  1  0  0  0  0  0  0  0  0  0
  184.5830  172.0780  136.3560 C   0  0  0  0  0  1  0  0  0  0  0  0
  187.0260  175.8160  136.5890 C   0  0  2  0  0  3  0  0  0  0  0  0
  187.6910  177.8710  139.6810 C   0  0  0  0  0  2  0  0  0  0  0  0
  190.1750  177.4300  140.2000 C   0  0  0  0  0  2  0  0  0  0  0  0
  185.8840  172.5170  137.0080 C   0  0  2  0  0  3  0  0  0  0  0  0
  189.2940  174.6060  136.3600 C   0  0  0  0  0  0  0  0  0  0  0  0
  188.9010  179.1120  141.3350 O   0  0  0  0  0  1  0  0  0  0  0  0
  185.8330  173.8710  137.4280 O   0  0  0  0  0  0  0  0  0  0  0  0
  190.1710  175.3940  135.6040 C   0  0  0  0  0  3  0  0  0  0  0  0
  190.1990  172.6160  135.3050 C   0  0  0  0  0  3  0  0  0  0  0  0
  191.1080  173.4040  134.5940 C   0  0  0  0  0  3  0  0  0  0  0  0
  187.0930  172.1400  136.1410 C   0  0  0  0  0  2  0  0  0  0  0  0
  186.5600  176.8670  137.5900 C   0  0  1  0  0  3  0  0  0  0  0  0
  185.9730  174.7280  136.3150 C   0  0  1  0  0  3  0  0  0  0  0  0
  187.8470  177.2230  138.3100 C   0  0  2  0  0  3  0  0  0  0  0  0
  188.2500  175.2100  137.2530 C   0  0  1  0  0  3  0  0  0  0  0  0
  184.7620  175.4260  134.5980 C   0  0  0  0  0  1  0  0  0  0  0  0
  184.7400  175.2960  135.9870 O   0  0  0  0  0  0  0  0  0  0  0  0
  186.0100  178.0720  136.8440 C   0  0  0  0  0  2  0  0  0  0  0  0
  186.8660  178.3810  135.6310 C   0  0  0  0  0  1  0  0  0  0  0  0
  1 14  1  0  0  0  0
  1  4  1  0  0  0  0
  3 17  1  0  0  0  0
  5  6  2  0  0  0  0
  6  2  2  0  0  0  0
  6 12  1  0  0  0  0
  7 12  1  0  0  0  0
  7 15  1  1  0  0  0
  8  6  1  6  0  0  0
  9 13  1  0  0  0  0
 10 24  1  0  0  0  0
 10 21  1  0  0  0  0
 11  7  1  0  0  0  0
 13 16  1  0  0  0  0
 14 24  1  0  0  0  0
 17 14  2  0  0  0  0
 18  1  2  0  0  0  0
 19  3  2  0  0  0  0
 19 18  1  0  0  0  0
 20  4  1  0  0  0  0
 20 13  1  0  0  0  0
 21 23  1  0  0  0  0
 22 10  1  0  0  0  0
 22 16  1  0  0  0  0
 23  8  1  0  0  0  0
 23 11  1  0  0  0  0
 24  8  1  0  0  0  0
 25 26  1  0  0  0  0
 26 22  1  0  0  0  0
 27 21  1  0  0  0  0
 28 27  1  0  0  0  0
M  END
>  <MODEL>
6

>  <REMARK>
 VINA RESULT:      -5.3      5.844      9.565
  Name = 
  2 active torsions:
  status: ('A' for Active; 'I' for Inactive)
    1  A    between atoms: C_5  and  C_24
    2  A    between atoms: O_17  and  C_25
                            x       y       z     vdW  Elec       q    Type
                         _______ _______ _______ _____ _____    ______ ____

>  <TORSDO>
F 2

$$$$
=
 OpenBabel11122411533D

 28 31  0  0  1  0  0  0  0  0999 V2000
  181.4670  179.5940  137.7150 C   0  0  0  0  0  0  0  0  0  0  0  0
  178.9470  176.7850  136.8350 O   0  0  0  0  0  0  0  0  0  0  0  0
  180.7940  180.0780  135.0420 C   0  0  0  0  0  3  0  0  0  0  0  0
  181.8950  179.3890  139.0260 O   0  0  0  0  0  0  0  0  0  0  0  0
  180.1950  176.3090  134.7540 O   0  0  0  0  0  0  0  0  0  0  0  0
  180.0010  175.9240  136.1940 S   0  0  0  0  0  0  0  0  0  0  0  0
  180.7570  173.3140  135.9270 C   0  0  2  0  0  3  0  0  0  0  0  0
  181.4850  175.9990  137.0860 N   0  0  1  0  0  0  0  0  0  0  0  0
  185.3080  179.0020  140.5880 C   0  0  0  0  0  1  0  0  0  0  0  0
  183.6790  177.0520  136.9080 C   0  0  2  0  0  3  0  0  0  0  0  0
  182.0360  173.6640  136.7060 C   0  0  0  0  0  2  0  0  0  0  0  0
  179.5510  174.1990  136.2880 C   0  0  0  0  0  2  0  0  0  0  0  0
  183.9450  178.5770  140.0650 C   0  0  2  0  0  3  0  0  0  0  0  0
  181.5960  178.5690  136.7640 C   0  0  0  0  0  0  0  0  0  0  0  0
  180.4310  171.9760  136.1410 O   0  0  0  0  0  1  0  0  0  0  0  0
  184.0230  177.3910  139.2910 O   0  0  0  0  0  0  0  0  0  0  0  0
  181.3000  178.8320  135.4210 C   0  0  0  0  0  3  0  0  0  0  0  0
  180.9520  180.8390  137.3350 C   0  0  0  0  0  3  0  0  0  0  0  0
  180.6080  181.0780  136.0010 C   0  0  0  0  0  3  0  0  0  0  0  0
  183.2160  179.7530  139.3990 C   0  0  0  0  0  2  0  0  0  0  0  0
  183.8080  175.5360  136.8330 C   0  0  1  0  0  3  0  0  0  0  0  0
  184.5460  177.6820  138.0120 C   0  0  1  0  0  3  0  0  0  0  0  0
  182.4130  175.1110  136.4140 C   0  0  2  0  0  3  0  0  0  0  0  0
  182.2060  177.2700  137.2050 C   0  0  1  0  0  3  0  0  0  0  0  0
  186.5350  178.2500  137.2210 C   0  0  0  0  0  1  0  0  0  0  0  0
  185.8690  177.2430  137.9210 O   0  0  0  0  0  0  0  0  0  0  0  0
  184.8270  175.1620  135.7680 C   0  0  0  0  0  2  0  0  0  0  0  0
  184.7560  176.1330  134.6040 C   0  0  0  0  0  1  0  0  0  0  0  0
  1  4  1  0  0  0  0
  3 17  2  0  0  0  0
  3 19  1  0  0  0  0
  4 20  1  0  0  0  0
  5  6  2  0  0  0  0
  6 12  1  0  0  0  0
  6  2  2  0  0  0  0
  7 15  1  1  0  0  0
  7 12  1  0  0  0  0
  7 11  1  0  0  0  0
  8  6  1  6  0  0  0
  8 24  1  0  0  0  0
 10 24  1  0  0  0  0
 10 22  1  0  0  0  0
 13  9  1  0  0  0  0
 14 24  1  0  0  0  0
 14  1  2  0  0  0  0
 16 13  1  0  0  0  0
 17 14  1  0  0  0  0
 18  1  1  0  0  0  0
 19 18  2  0  0  0  0
 20 13  1  0  0  0  0
 21 10  1  0  0  0  0
 22 16  1  0  0  0  0
 23 11  1  0  0  0  0
 23 21  1  0  0  0  0
 23  8  1  0  0  0  0
 25 26  1  0  0  0  0
 26 22  1  0  0  0  0
 27 21  1  0  0  0  0
 28 27  1  0  0  0  0
M  END
>  <MODEL>
7

>  <REMARK>
 VINA RESULT:      -5.0      3.037      4.184
  Name = 
  2 active torsions:
  status: ('A' for Active; 'I' for Inactive)
    1  A    between atoms: C_5  and  C_24
    2  A    between atoms: O_17  and  C_25
                            x       y       z     vdW  Elec       q    Type
                         _______ _______ _______ _____ _____    ______ ____

>  <TORSDO>
F 2

$$$$
=
 OpenBabel11122411533D

 28 31  0  0  1  0  0  0  0  0999 V2000
  191.2380  174.4290  137.5930 C   0  0  0  0  0  0  0  0  0  0  0  0
  190.5560  175.9900  141.0730 O   0  0  0  0  0  0  0  0  0  0  0  0
  193.1640  176.4450  137.8400 C   0  0  0  0  0  3  0  0  0  0  0  0
  190.2780  173.4430  137.3710 O   0  0  0  0  0  0  0  0  0  0  0  0
  190.6450  178.2530  140.0840 O   0  0  0  0  0  0  0  0  0  0  0  0
  189.7480  177.1210  140.5020 S   0  0  0  0  0  0  0  0  0  0  0  0
  187.5390  178.6430  141.0130 C   0  0  2  0  0  3  0  0  0  0  0  0
  188.7540  176.5710  139.1930 N   0  0  1  0  0  0  0  0  0  0  0  0
  187.7920  172.8540  134.5940 C   0  0  0  0  0  1  0  0  0  0  0  0
  188.7200  176.6570  136.7540 C   0  0  2  0  0  3  0  0  0  0  0  0
  186.8980  178.0340  139.7550 C   0  0  0  0  0  2  0  0  0  0  0  0
  188.5630  177.7190  141.6950 C   0  0  0  0  0  2  0  0  0  0  0  0
  188.2900  173.2560  135.9720 C   0  0  2  0  0  3  0  0  0  0  0  0
  190.8430  175.7400  137.9020 C   0  0  0  0  0  0  0  0  0  0  0  0
  186.5430  178.9860  141.9250 O   0  0  0  0  0  1  0  0  0  0  0  0
  187.7080  174.4740  136.4090 O   0  0  0  0  0  0  0  0  0  0  0  0
  191.8070  176.7520  137.9790 C   0  0  0  0  0  3  0  0  0  0  0  0
  192.5980  174.1220  137.4620 C   0  0  0  0  0  3  0  0  0  0  0  0
  193.5600  175.1280  137.5940 C   0  0  0  0  0  3  0  0  0  0  0  0
  189.8220  173.1920  136.0490 C   0  0  0  0  0  2  0  0  0  0  0  0
  187.5310  177.4150  137.3310 C   0  0  1  0  0  3  0  0  0  0  0  0
  188.3170  175.5640  135.7500 C   0  0  1  0  0  3  0  0  0  0  0  0
  187.9930  177.7200  138.7430 C   0  0  2  0  0  3  0  0  0  0  0  0
  189.3730  176.0350  137.9760 C   0  0  1  0  0  3  0  0  0  0  0  0
  186.1870  175.6410  135.1470 C   0  0  0  0  0  1  0  0  0  0  0  0
  187.4590  176.0750  134.7720 O   0  0  0  0  0  0  0  0  0  0  0  0
  187.3150  178.6990  136.5460 C   0  0  0  0  0  2  0  0  0  0  0  0
  188.4210  179.6940  136.8440 C   0  0  0  0  0  1  0  0  0  0  0  0
  1 14  1  0  0  0  0
  3 17  1  0  0  0  0
  4  1  1  0  0  0  0
  5  6  2  0  0  0  0
  6  2  2  0  0  0  0
  6 12  1  0  0  0  0
  7 12  1  0  0  0  0
  7 15  1  1  0  0  0
  8  6  1  1  0  0  0
  9 13  1  0  0  0  0
 10 21  1  0  0  0  0
 10 24  1  0  0  0  0
 11  7  1  0  0  0  0
 13 20  1  0  0  0  0
 13 16  1  0  0  0  0
 14 24  1  0  0  0  0
 14 17  2  0  0  0  0
 18  1  2  0  0  0  0
 18 19  1  0  0  0  0
 19  3  2  0  0  0  0
 20  4  1  0  0  0  0
 21 23  1  0  0  0  0
 22 16  1  0  0  0  0
 22 10  1  0  0  0  0
 23  8  1  0  0  0  0
 23 11  1  0  0  0  0
 24  8  1  0  0  0  0
 26 25  1  0  0  0  0
 26 22  1  0  0  0  0
 27 28  1  0  0  0  0
 27 21  1  0  0  0  0
M  END
>  <MODEL>
8

>  <REMARK>
 VINA RESULT:      -5.0      5.563      9.742
  Name = 
  2 active torsions:
  status: ('A' for Active; 'I' for Inactive)
    1  A    between atoms: C_5  and  C_24
    2  A    between atoms: O_17  and  C_25
                            x       y       z     vdW  Elec       q    Type
                         _______ _______ _______ _____ _____    ______ ____

>  <TORSDO>
F 2

$$$$
=
 OpenBabel11122411533D

 28 31  0  0  1  0  0  0  0  0999 V2000
  180.0710  172.5870  137.5040 C   0  0  0  0  0  0  0  0  0  0  0  0
  183.5600  171.0440  136.8270 O   0  0  0  0  0  0  0  0  0  0  0  0
  180.0320  171.9500  134.7790 C   0  0  0  0  0  3  0  0  0  0  0  0
  180.0310  172.9830  138.8400 O   0  0  0  0  0  0  0  0  0  0  0  0
  183.8200  172.4880  134.8380 O   0  0  0  0  0  0  0  0  0  0  0  0
  184.1230  172.3350  136.3020 S   0  0  0  0  0  0  0  0  0  0  0  0
  186.4080  173.8300  136.3080 C   0  0  2  0  0  3  0  0  0  0  0  0
  183.5410  173.6830  137.2230 N   0  0  1  0  0  0  0  0  0  0  0  0
  179.2650  176.2710  140.5270 C   0  0  0  0  0  1  0  0  0  0  0  0
  181.9080  175.4830  137.0070 C   0  0  2  0  0  3  0  0  0  0  0  0
  185.6340  174.9070  137.0850 C   0  0  0  0  0  2  0  0  0  0  0  0
  185.8900  172.4010  136.5480 C   0  0  0  0  0  2  0  0  0  0  0  0
  180.1140  175.1210  140.0090 C   0  0  2  0  0  3  0  0  0  0  0  0
  181.0880  173.0600  136.6600 C   0  0  0  0  0  0  0  0  0  0  0  0
  187.7600  173.8960  136.6400 O   0  0  0  0  0  1  0  0  0  0  0  0
  181.2840  175.5820  139.3550 O   0  0  0  0  0  0  0  0  0  0  0  0
  181.0370  172.7750  135.2900 C   0  0  0  0  0  3  0  0  0  0  0  0
  179.0690  171.7540  136.9920 C   0  0  0  0  0  3  0  0  0  0  0  0
  179.0540  171.4290  135.6320 C   0  0  0  0  0  3  0  0  0  0  0  0
  179.2640  174.1200  139.2140 C   0  0  0  0  0  2  0  0  0  0  0  0
  183.3200  176.0500  137.0810 C   0  0  1  0  0  3  0  0  0  0  0  0
  180.9600  176.0670  138.0690 C   0  0  1  0  0  3  0  0  0  0  0  0
  184.1690  174.8640  136.6660 C   0  0  2  0  0  3  0  0  0  0  0  0
  182.1080  173.9960  137.2410 C   0  0  1  0  0  3  0  0  0  0  0  0
  179.9530  177.8440  137.2130 C   0  0  0  0  0  1  0  0  0  0  0  0
  180.9970  177.4640  138.0580 O   0  0  0  0  0  0  0  0  0  0  0  0
  183.4650  177.1900  136.0860 C   0  0  0  0  0  2  0  0  0  0  0  0
  182.7570  176.8520  134.7870 C   0  0  0  0  0  1  0  0  0  0  0  0
  1  4  1  0  0  0  0
  3 17  2  0  0  0  0
  3 19  1  0  0  0  0
  4 20  1  0  0  0  0
  5  6  2  0  0  0  0
  6 12  1  0  0  0  0
  6  2  2  0  0  0  0
  7 12  1  0  0  0  0
  7 15  1  1  0  0  0
  7 11  1  0  0  0  0
  8  6  1  6  0  0  0
  8 24  1  0  0  0  0
 10 21  1  0  0  0  0
 10 24  1  0  0  0  0
 10 22  1  0  0  0  0
 13  9  1  0  0  0  0
 14 24  1  0  0  0  0
 14  1  2  0  0  0  0
 16 13  1  0  0  0  0
 17 14  1  0  0  0  0
 18  1  1  0  0  0  0
 19 18  2  0  0  0  0
 20 13  1  0  0  0  0
 22 16  1  0  0  0  0
 23 21  1  0  0  0  0
 23 11  1  0  0  0  0
 23  8  1  0  0  0  0
 25 26  1  0  0  0  0
 26 22  1  0  0  0  0
 27 21  1  0  0  0  0
 28 27  1  0  0  0  0
M  END
>  <MODEL>
9

>  <REMARK>
 VINA RESULT:      -4.9      4.432      6.888
  Name = 
  2 active torsions:
  status: ('A' for Active; 'I' for Inactive)
    1  A    between atoms: C_5  and  C_24
    2  A    between atoms: O_17  and  C_25
                            x       y       z     vdW  Elec       q    Type
                         _______ _______ _______ _____ _____    ______ ____

>  <TORSDO>
F 2

$$$$
