=
 OpenBabel11122411143D

 31 35  0  0  1  0  0  0  0  0999 V2000
  191.4420  176.3970  144.8110 C   0  0  1  0  0  3  0  0  0  0  0  0
  187.6940  176.9200  143.8320 C   0  0  2  0  0  3  0  0  0  0  0  0
  187.0830  177.7530  144.9590 C   0  0  0  0  0  0  0  0  0  0  0  0
  187.1140  178.5040  147.2760 C   0  0  0  0  0  0  0  0  0  0  0  0
  189.2340  176.9320  143.7340 C   0  0  2  0  0  3  0  0  0  0  0  0
  191.9040  177.8220  144.5330 C   0  0  0  0  0  2  0  0  0  0  0  0
  187.7070  177.8200  146.2150 C   0  0  0  0  0  3  0  0  0  0  0  0
  187.6520  178.6670  141.9780 C   0  0  2  0  0  3  0  0  0  0  0  0
  192.0460  175.9310  145.9770 O   0  0  0  0  0  1  0  0  0  0  0  0
  185.0740  178.3480  143.4940 C   0  0  0  0  0  2  0  0  0  0  0  0
  187.8040  178.5750  148.5910 C   0  0  0  0  0  1  0  0  0  0  0  0
  189.1820  178.6870  141.9690 C   0  0  0  0  0  2  0  0  0  0  0  0
  187.1180  177.3020  142.4570 C   0  0  2  0  0  3  0  0  0  0  0  0
  189.9270  176.3620  144.9750 C   0  0  0  0  0  2  0  0  0  0  0  0
  185.8730  179.1160  147.1060 C   0  0  0  0  0  3  0  0  0  0  0  0
  189.7540  178.3210  143.3340 C   0  0  2  0  0  3  0  0  0  0  0  0
  191.2780  178.3220  143.2370 C   0  0  0  0  0  2  0  0  0  0  0  0
  185.5910  177.2830  142.5280 C   0  0  0  0  0  2  0  0  0  0  0  0
  185.8040  178.3470  144.8060 C   0  0  0  0  0  0  0  0  0  0  0  0
  185.2220  179.0380  145.8730 C   0  0  0  0  0  3  0  0  0  0  0  0
  188.3720  177.2500  139.6110 O   0  0  0  0  0  0  0  0  0  0  0  0
  187.5490  178.1990  139.4950 C   0  0  0  0  0  0  0  0  0  0  0  0
  187.1540  178.9560  140.6410 N   0  0  0  0  0  2  0  0  0  0  0  0
  187.5110  176.6030  136.1600 C   0  0  1  0  0  3  0  0  0  0  0  0
  186.0310  177.4650  137.6400 C   0  0  0  0  0  2  0  0  0  0  0  0
  189.0590  179.6700  137.5900 O   0  0  0  0  0  1  0  0  0  0  0  0
  188.0890  175.3280  135.5850 C   0  0  0  0  0  1  0  0  0  0  0  0
  186.7470  176.3000  137.3020 O   0  0  0  0  0  0  0  0  0  0  0  0
  188.0530  178.8420  137.0890 C   0  0  2  0  0  3  0  0  0  0  0  0
  186.9790  178.5570  138.1540 C   0  0  2  0  0  3  0  0  0  0  0  0
  188.6500  177.5530  136.5310 C   0  0  0  0  0  2  0  0  0  0  0  0
  1 14  1  0  0  0  0
  1  9  1  1  0  0  0
  2  3  1  1  0  0  0
  3  7  1  0  0  0  0
  4 11  1  0  0  0  0
  5  2  1  0  0  0  0
  5 14  1  1  0  0  0
  6  1  1  0  0  0  0
  7  4  2  0  0  0  0
  8 23  1  6  0  0  0
  8 13  1  0  0  0  0
 10 19  1  0  0  0  0
 12  8  1  0  0  0  0
 13 18  1  1  0  0  0
 13  2  1  0  0  0  0
 15  4  1  0  0  0  0
 16 12  1  6  0  0  0
 16  5  1  0  0  0  0
 17 16  1  0  0  0  0
 17  6  1  0  0  0  0
 18 10  1  0  0  0  0
 19  3  2  0  0  0  0
 19 20  1  0  0  0  0
 20 15  2  0  0  0  0
 22 21  2  0  0  0  0
 22 23  1  0  0  0  0
 24 27  1  1  0  0  0
 24 31  1  0  0  0  0
 24 28  1  0  0  0  0
 25 30  1  0  0  0  0
 28 25  1  0  0  0  0
 29 26  1  1  0  0  0
 29 30  1  0  0  0  0
 30 22  1  1  0  0  0
 31 29  1  0  0  0  0
M  END
>  <MODEL>
1

>  <REMARK>
 VINA RESULT:      -9.3      0.000      0.000
  Name = 
  2 active torsions:
  status: ('A' for Active; 'I' for Inactive)
    1  A    between atoms: C_5  and  C_30
    2  A    between atoms: C_10  and  N_16
                            x       y       z     vdW  Elec       q    Type
                         _______ _______ _______ _____ _____    ______ ____

>  <TORSDO>
F 2

$$$$
=
 OpenBabel11122411143D

 31 35  0  0  1  0  0  0  0  0999 V2000
  190.3030  175.9360  142.8050 C   0  0  1  0  0  3  0  0  0  0  0  0
  186.6330  177.0920  143.4980 C   0  0  2  0  0  3  0  0  0  0  0  0
  186.6800  177.8460  144.8280 C   0  0  0  0  0  0  0  0  0  0  0  0
  187.7630  178.2750  146.9680 C   0  0  0  0  0  0  0  0  0  0  0  0
  187.9830  176.9050  142.7740 C   0  0  2  0  0  3  0  0  0  0  0  0
  190.8620  177.3080  142.4530 C   0  0  0  0  0  2  0  0  0  0  0  0
  187.7520  177.6620  145.7150 C   0  0  0  0  0  3  0  0  0  0  0  0
  186.1720  179.0570  141.9430 C   0  0  2  0  0  3  0  0  0  0  0  0
  191.2260  175.2430  143.5860 O   0  0  0  0  0  1  0  0  0  0  0  0
  184.3960  178.8980  144.3660 C   0  0  0  0  0  2  0  0  0  0  0  0
  188.9180  178.0770  147.8820 C   0  0  0  0  0  1  0  0  0  0  0  0
  187.5490  178.8680  141.3040 C   0  0  0  0  0  2  0  0  0  0  0  0
  185.6370  177.7270  142.5130 C   0  0  2  0  0  3  0  0  0  0  0  0
  188.9980  176.0880  143.5780 C   0  0  0  0  0  2  0  0  0  0  0  0
  186.6870  179.0680  147.3650 C   0  0  0  0  0  3  0  0  0  0  0  0
  188.5400  178.2510  142.2850 C   0  0  2  0  0  3  0  0  0  0  0  0
  189.8740  178.0550  141.5660 C   0  0  0  0  0  2  0  0  0  0  0  0
  184.2870  177.9080  143.2070 C   0  0  0  0  0  2  0  0  0  0  0  0
  185.5740  178.6240  145.2560 C   0  0  0  0  0  0  0  0  0  0  0  0
  185.5980  179.2420  146.5100 C   0  0  0  0  0  3  0  0  0  0  0  0
  185.4750  177.7760  139.4940 O   0  0  0  0  0  0  0  0  0  0  0  0
  184.9310  178.8860  139.7470 C   0  0  0  0  0  0  0  0  0  0  0  0
  185.2440  179.5850  140.9530 N   0  0  0  0  0  2  0  0  0  0  0  0
  181.2980  178.5530  139.1440 C   0  0  1  0  0  3  0  0  0  0  0  0
  182.8070  180.1970  139.5220 C   0  0  0  0  0  2  0  0  0  0  0  0
  184.3720  177.6740  137.2390 O   0  0  0  0  0  1  0  0  0  0  0  0
  180.1910  177.7220  139.7560 C   0  0  0  0  0  1  0  0  0  0  0  0
  181.9720  179.2570  140.1580 O   0  0  0  0  0  0  0  0  0  0  0  0
  183.3730  178.4860  137.7800 C   0  0  2  0  0  3  0  0  0  0  0  0
  183.9550  179.4960  138.7840 C   0  0  2  0  0  3  0  0  0  0  0  0
  182.2740  177.6340  138.4090 C   0  0  0  0  0  2  0  0  0  0  0  0
  1 14  1  0  0  0  0
  1  9  1  1  0  0  0
  2  3  1  1  0  0  0
  3 19  2  0  0  0  0
  3  7  1  0  0  0  0
  4 15  1  0  0  0  0
  4 11  1  0  0  0  0
  5  2  1  0  0  0  0
  5 14  1  1  0  0  0
  6  1  1  0  0  0  0
  7  4  2  0  0  0  0
  8 23  1  6  0  0  0
  8 13  1  0  0  0  0
 10 19  1  0  0  0  0
 12  8  1  0  0  0  0
 13 18  1  1  0  0  0
 13  2  1  0  0  0  0
 16 12  1  6  0  0  0
 16  5  1  0  0  0  0
 17 16  1  0  0  0  0
 17  6  1  0  0  0  0
 18 10  1  0  0  0  0
 19 20  1  0  0  0  0
 20 15  2  0  0  0  0
 21 22  2  0  0  0  0
 22 23  1  0  0  0  0
 24 27  1  1  0  0  0
 24 28  1  0  0  0  0
 25 28  1  0  0  0  0
 29 26  1  1  0  0  0
 29 31  1  0  0  0  0
 29 30  1  0  0  0  0
 30 25  1  0  0  0  0
 30 22  1  1  0  0  0
 31 24  1  0  0  0  0
M  END
>  <MODEL>
2

>  <REMARK>
 VINA RESULT:      -8.7      2.603      3.455
  Name = 
  2 active torsions:
  status: ('A' for Active; 'I' for Inactive)
    1  A    between atoms: C_5  and  C_30
    2  A    between atoms: C_10  and  N_16
                            x       y       z     vdW  Elec       q    Type
                         _______ _______ _______ _____ _____    ______ ____

>  <TORSDO>
F 2

$$$$
=
 OpenBabel11122411143D

 31 35  0  0  1  0  0  0  0  0999 V2000
  193.9010  175.6110  135.7170 C   0  0  1  0  0  3  0  0  0  0  0  0
  190.2670  176.6640  136.7010 C   0  0  2  0  0  3  0  0  0  0  0  0
  189.4120  175.4080  136.5350 C   0  0  0  0  0  0  0  0  0  0  0  0
  189.0510  173.2250  135.5130 C   0  0  0  0  0  0  0  0  0  0  0  0
  191.7910  176.4420  136.8020 C   0  0  2  0  0  3  0  0  0  0  0  0
  194.1920  174.7790  136.9590 C   0  0  0  0  0  2  0  0  0  0  0  0
  189.8590  174.3390  135.7430 C   0  0  0  0  0  3  0  0  0  0  0  0
  190.2150  176.8510  139.2410 C   0  0  2  0  0  3  0  0  0  0  0  0
  194.4130  174.9650  134.5940 O   0  0  0  0  0  1  0  0  0  0  0  0
  187.5370  176.4430  137.9320 C   0  0  0  0  0  2  0  0  0  0  0  0
  189.5560  172.1000  134.6840 C   0  0  0  0  0  1  0  0  0  0  0  0
  191.7160  176.5610  139.2890 C   0  0  0  0  0  2  0  0  0  0  0  0
  189.8180  177.5110  137.9040 C   0  0  2  0  0  3  0  0  0  0  0  0
  192.3970  175.7950  135.5540 C   0  0  0  0  0  2  0  0  0  0  0  0
  187.7680  173.1710  136.0560 C   0  0  0  0  0  3  0  0  0  0  0  0
  192.1590  175.7110  138.1030 C   0  0  2  0  0  3  0  0  0  0  0  0
  193.6680  175.4990  138.1960 C   0  0  0  0  0  2  0  0  0  0  0  0
  188.3120  177.7540  137.8160 C   0  0  0  0  0  2  0  0  0  0  0  0
  188.0920  175.3600  137.0530 C   0  0  0  0  0  0  0  0  0  0  0  0
  187.2920  174.2350  136.8250 C   0  0  0  0  0  3  0  0  0  0  0  0
  190.1580  176.0740  141.9830 O   0  0  0  0  0  0  0  0  0  0  0  0
  189.8520  177.2670  141.7080 C   0  0  0  0  0  0  0  0  0  0  0  0
  189.8510  177.7180  140.3530 N   0  0  0  0  0  2  0  0  0  0  0  0
  190.5550  177.5280  145.3280 C   0  0  1  0  0  3  0  0  0  0  0  0
  190.7170  178.8190  143.4760 C   0  0  0  0  0  2  0  0  0  0  0  0
  187.5170  176.8810  143.2800 O   0  0  0  0  0  1  0  0  0  0  0  0
  191.3260  176.6880  146.3250 C   0  0  0  0  0  1  0  0  0  0  0  0
  191.3850  177.8380  144.2350 O   0  0  0  0  0  0  0  0  0  0  0  0
  188.5520  177.6150  143.8630 C   0  0  2  0  0  3  0  0  0  0  0  0
  189.4740  178.2300  142.7960 C   0  0  2  0  0  3  0  0  0  0  0  0
  189.3300  176.7490  144.8510 C   0  0  0  0  0  2  0  0  0  0  0  0
  1  9  1  6  0  0  0
  1  6  1  0  0  0  0
  2  3  1  1  0  0  0
  2  5  1  0  0  0  0
  2 13  1  0  0  0  0
  3 19  1  0  0  0  0
  4  7  1  0  0  0  0
  4 15  2  0  0  0  0
  5 14  1  6  0  0  0
  5 16  1  0  0  0  0
  6 17  1  0  0  0  0
  7  3  2  0  0  0  0
  8 12  1  0  0  0  0
  8 23  1  1  0  0  0
 11  4  1  0  0  0  0
 13 18  1  1  0  0  0
 13  8  1  0  0  0  0
 14  1  1  0  0  0  0
 15 20  1  0  0  0  0
 16 17  1  1  0  0  0
 16 12  1  0  0  0  0
 18 10  1  0  0  0  0
 19 10  1  0  0  0  0
 20 19  2  0  0  0  0
 22 21  2  0  0  0  0
 23 22  1  0  0  0  0
 24 27  1  1  0  0  0
 25 28  1  0  0  0  0
 28 24  1  0  0  0  0
 29 26  1  6  0  0  0
 29 31  1  0  0  0  0
 30 22  1  6  0  0  0
 30 25  1  0  0  0  0
 30 29  1  0  0  0  0
 31 24  1  0  0  0  0
M  END
>  <MODEL>
3

>  <REMARK>
 VINA RESULT:      -7.8      3.285      8.518
  Name = 
  2 active torsions:
  status: ('A' for Active; 'I' for Inactive)
    1  A    between atoms: C_5  and  C_30
    2  A    between atoms: C_10  and  N_16
                            x       y       z     vdW  Elec       q    Type
                         _______ _______ _______ _____ _____    ______ ____

>  <TORSDO>
F 2

$$$$
=
 OpenBabel11122411143D

 31 35  0  0  1  0  0  0  0  0999 V2000
  189.8840  175.7830  142.5450 C   0  0  1  0  0  3  0  0  0  0  0  0
  186.7020  176.9840  144.4720 C   0  0  2  0  0  3  0  0  0  0  0  0
  187.2190  177.7260  145.7040 C   0  0  0  0  0  0  0  0  0  0  0  0
  188.9840  178.1250  147.3370 C   0  0  0  0  0  0  0  0  0  0  0  0
  187.7140  176.7840  143.3240 C   0  0  2  0  0  3  0  0  0  0  0  0
  190.3080  177.1500  142.0240 C   0  0  0  0  0  2  0  0  0  0  0  0
  188.5290  177.5210  146.1640 C   0  0  0  0  0  3  0  0  0  0  0  0
  185.7600  178.9660  143.1790 C   0  0  2  0  0  3  0  0  0  0  0  0
  191.0100  175.0720  142.9550 O   0  0  0  0  0  1  0  0  0  0  0  0
  184.9330  178.8130  146.0670 C   0  0  0  0  0  2  0  0  0  0  0  0
  190.3810  177.9040  147.7920 C   0  0  0  0  0  1  0  0  0  0  0  0
  186.8270  178.7630  142.1000 C   0  0  0  0  0  2  0  0  0  0  0  0
  185.4360  177.6390  143.8950 C   0  0  2  0  0  3  0  0  0  0  0  0
  188.9320  175.9470  143.7230 C   0  0  0  0  0  2  0  0  0  0  0  0
  188.1250  178.9290  148.0850 C   0  0  0  0  0  3  0  0  0  0  0  0
  188.0870  178.1260  142.6750 C   0  0  2  0  0  3  0  0  0  0  0  0
  189.0850  177.9170  141.5370 C   0  0  0  0  0  2  0  0  0  0  0  0
  184.4140  177.8340  145.0150 C   0  0  0  0  0  2  0  0  0  0  0  0
  186.3420  178.5160  146.4920 C   0  0  0  0  0  0  0  0  0  0  0  0
  186.8100  179.1250  147.6610 C   0  0  0  0  0  3  0  0  0  0  0  0
  184.1300  177.6310  141.2580 O   0  0  0  0  0  0  0  0  0  0  0  0
  183.7760  178.7870  141.6210 C   0  0  0  0  0  0  0  0  0  0  0  0
  184.5540  179.5140  142.5740 N   0  0  0  0  0  2  0  0  0  0  0  0
  180.6390  177.5230  140.1270 C   0  0  1  0  0  3  0  0  0  0  0  0
  181.2790  178.9330  141.7790 C   0  0  0  0  0  2  0  0  0  0  0  0
  183.5750  179.4260  138.8600 O   0  0  0  0  0  1  0  0  0  0  0  0
  180.0880  176.1480  139.8160 C   0  0  0  0  0  1  0  0  0  0  0  0
  181.0220  177.5800  141.4800 O   0  0  0  0  0  0  0  0  0  0  0  0
  182.3780  179.1970  139.5400 C   0  0  2  0  0  3  0  0  0  0  0  0
  182.5400  179.4210  141.0540 C   0  0  2  0  0  3  0  0  0  0  0  0
  181.8450  177.8010  139.2300 C   0  0  0  0  0  2  0  0  0  0  0  0
  1  9  1  1  0  0  0
  1 14  1  0  0  0  0
  2  3  1  1  0  0  0
  3  7  2  0  0  0  0
  3 19  1  0  0  0  0
  4 11  1  0  0  0  0
  4 15  2  0  0  0  0
  5 14  1  1  0  0  0
  5  2  1  0  0  0  0
  6  1  1  0  0  0  0
  7  4  1  0  0  0  0
  8 23  1  6  0  0  0
  8 13  1  0  0  0  0
 10 19  1  0  0  0  0
 12 16  1  0  0  0  0
 12  8  1  0  0  0  0
 13  2  1  0  0  0  0
 13 18  1  1  0  0  0
 16 17  1  6  0  0  0
 16  5  1  0  0  0  0
 17  6  1  0  0  0  0
 18 10  1  0  0  0  0
 19 20  2  0  0  0  0
 20 15  1  0  0  0  0
 21 22  2  0  0  0  0
 22 23  1  0  0  0  0
 24 27  1  6  0  0  0
 24 28  1  0  0  0  0
 28 25  1  0  0  0  0
 29 26  1  6  0  0  0
 29 30  1  0  0  0  0
 30 22  1  1  0  0  0
 30 25  1  0  0  0  0
 31 29  1  0  0  0  0
 31 24  1  0  0  0  0
M  END
>  <MODEL>
4

>  <REMARK>
 VINA RESULT:      -7.4      3.114      4.202
  Name = 
  2 active torsions:
  status: ('A' for Active; 'I' for Inactive)
    1  A    between atoms: C_5  and  C_30
    2  A    between atoms: C_10  and  N_16
                            x       y       z     vdW  Elec       q    Type
                         _______ _______ _______ _____ _____    ______ ____

>  <TORSDO>
F 2

$$$$
=
 OpenBabel11122411143D

 31 35  0  0  1  0  0  0  0  0999 V2000
  190.9430  176.5390  146.0940 C   0  0  1  0  0  3  0  0  0  0  0  0
  187.8980  176.9580  143.6790 C   0  0  2  0  0  3  0  0  0  0  0  0
  186.9400  177.9200  144.3820 C   0  0  0  0  0  0  0  0  0  0  0  0
  186.1070  178.9380  146.4340 C   0  0  0  0  0  0  0  0  0  0  0  0
  189.3530  176.9530  144.1900 C   0  0  2  0  0  3  0  0  0  0  0  0
  191.5460  177.9200  145.8680 C   0  0  0  0  0  2  0  0  0  0  0  0
  187.0300  178.1320  145.7670 C   0  0  0  0  0  3  0  0  0  0  0  0
  188.6630  178.4760  141.7820 C   0  0  2  0  0  3  0  0  0  0  0  0
  191.0240  176.2120  147.4460 O   0  0  0  0  0  1  0  0  0  0  0  0
  185.6870  178.3470  142.1950 C   0  0  0  0  0  2  0  0  0  0  0  0
  186.2360  179.1590  147.8970 C   0  0  0  0  0  1  0  0  0  0  0  0
  190.0770  178.4890  142.3690 C   0  0  0  0  0  2  0  0  0  0  0  0
  187.9180  177.1780  142.1570 C   0  0  2  0  0  3  0  0  0  0  0  0
  189.4830  176.5300  145.6560 C   0  0  0  0  0  2  0  0  0  0  0  0
  185.0610  179.5300  145.7280 C   0  0  0  0  0  3  0  0  0  0  0  0
  190.0550  178.2840  143.8790 C   0  0  2  0  0  3  0  0  0  0  0  0
  191.4960  178.2670  144.3850 C   0  0  0  0  0  2  0  0  0  0  0  0
  186.4850  177.1740  141.6270 C   0  0  0  0  0  2  0  0  0  0  0  0
  185.8500  178.4960  143.6800 C   0  0  0  0  0  0  0  0  0  0  0  0
  184.9360  179.3100  144.3550 C   0  0  0  0  0  3  0  0  0  0  0  0
  190.3460  176.9350  140.0720 O   0  0  0  0  0  0  0  0  0  0  0  0
  189.5970  177.7960  139.5320 C   0  0  0  0  0  0  0  0  0  0  0  0
  188.7370  178.6080  140.3330 N   0  0  0  0  0  2  0  0  0  0  0  0
  187.0330  177.6890  136.8710 C   0  0  1  0  0  3  0  0  0  0  0  0
  188.6340  179.1020  137.6210 C   0  0  0  0  0  2  0  0  0  0  0  0
  189.9910  175.6130  137.7580 O   0  0  0  0  0  1  0  0  0  0  0  0
  185.5460  177.4060  136.8370 C   0  0  0  0  0  1  0  0  0  0  0  0
  187.2970  178.7000  137.8130 O   0  0  0  0  0  0  0  0  0  0  0  0
  189.2810  176.7060  137.2590 C   0  0  2  0  0  3  0  0  0  0  0  0
  189.6040  177.9900  138.0440 C   0  0  2  0  0  3  0  0  0  0  0  0
  187.7830  176.4120  137.2490 C   0  0  0  0  0  2  0  0  0  0  0  0
  1  9  1  1  0  0  0
  2  5  1  0  0  0  0
  2  3  1  1  0  0  0
  3  7  1  0  0  0  0
  4 11  1  0  0  0  0
  5 14  1  1  0  0  0
  6  1  1  0  0  0  0
  7  4  2  0  0  0  0
  8 23  1  6  0  0  0
  8 13  1  0  0  0  0
  8 12  1  0  0  0  0
 10 19  1  0  0  0  0
 13 18  1  1  0  0  0
 13  2  1  0  0  0  0
 14  1  1  0  0  0  0
 15  4  1  0  0  0  0
 16 12  1  6  0  0  0
 16  5  1  0  0  0  0
 16 17  1  0  0  0  0
 17  6  1  0  0  0  0
 18 10  1  0  0  0  0
 19 20  1  0  0  0  0
 19  3  2  0  0  0  0
 20 15  2  0  0  0  0
 22 21  2  0  0  0  0
 22 23  1  0  0  0  0
 24 27  1  1  0  0  0
 24 31  1  0  0  0  0
 24 28  1  0  0  0  0
 25 28  1  0  0  0  0
 25 30  1  0  0  0  0
 29 26  1  1  0  0  0
 29 30  1  0  0  0  0
 30 22  1  1  0  0  0
 31 29  1  0  0  0  0
M  END
>  <MODEL>
5

>  <REMARK>
 VINA RESULT:      -7.1      1.310      1.830
  Name = 
  2 active torsions:
  status: ('A' for Active; 'I' for Inactive)
    1  A    between atoms: C_5  and  C_30
    2  A    between atoms: C_10  and  N_16
                            x       y       z     vdW  Elec       q    Type
                         _______ _______ _______ _____ _____    ______ ____

>  <TORSDO>
F 2

$$$$
=
 OpenBabel11122411143D

 31 35  0  0  1  0  0  0  0  0999 V2000
  179.5690  178.9270  141.4290 C   0  0  1  0  0  3  0  0  0  0  0  0
  183.2550  179.1350  140.1440 C   0  0  2  0  0  3  0  0  0  0  0  0
  184.1330  178.7760  141.3420 C   0  0  0  0  0  0  0  0  0  0  0  0
  184.4430  178.6180  143.7540 C   0  0  0  0  0  0  0  0  0  0  0  0
  181.7730  178.7170  140.2370 C   0  0  2  0  0  3  0  0  0  0  0  0
  179.4950  177.4080  141.5230 C   0  0  0  0  0  2  0  0  0  0  0  0
  183.6270  178.8580  142.6480 C   0  0  0  0  0  3  0  0  0  0  0  0
  183.6580  177.0630  138.7180 C   0  0  2  0  0  3  0  0  0  0  0  0
  178.9320  179.4930  142.5320 O   0  0  0  0  0  1  0  0  0  0  0  0
  186.1390  178.3670  139.8100 C   0  0  0  0  0  2  0  0  0  0  0  0
  183.8770  178.6940  145.1260 C   0  0  0  0  0  1  0  0  0  0  0  0
  182.1920  176.6600  138.8980 C   0  0  0  0  0  2  0  0  0  0  0  0
  183.8310  178.5920  138.8250 C   0  0  2  0  0  3  0  0  0  0  0  0
  181.0250  179.3760  141.3990 C   0  0  0  0  0  2  0  0  0  0  0  0
  185.7910  178.3120  143.5710 C   0  0  0  0  0  3  0  0  0  0  0  0
  181.6250  177.1880  140.2100 C   0  0  2  0  0  3  0  0  0  0  0  0
  180.1550  176.7840  140.2990 C   0  0  0  0  0  2  0  0  0  0  0  0
  185.2970  179.0070  138.7060 C   0  0  0  0  0  2  0  0  0  0  0  0
  185.5140  178.5010  141.1680 C   0  0  0  0  0  0  0  0  0  0  0  0
  186.3230  178.2530  142.2820 C   0  0  0  0  0  3  0  0  0  0  0  0
  184.1280  174.3380  138.0250 O   0  0  0  0  0  0  0  0  0  0  0  0
  184.3430  175.2110  137.1390 C   0  0  0  0  0  0  0  0  0  0  0  0
  184.1360  176.5950  137.4250 N   0  0  0  0  0  2  0  0  0  0  0  0
  184.5930  172.0250  135.2790 C   0  0  1  0  0  3  0  0  0  0  0  0
  183.7290  174.0960  134.9790 C   0  0  0  0  0  2  0  0  0  0  0  0
  187.0420  174.4430  136.6930 O   0  0  0  0  0  1  0  0  0  0  0  0
  184.2690  170.5810  135.5950 C   0  0  0  0  0  1  0  0  0  0  0  0
  183.4630  172.8250  135.5270 O   0  0  0  0  0  0  0  0  0  0  0  0
  186.0910  173.9350  135.8070 C   0  0  2  0  0  3  0  0  0  0  0  0
  184.8280  174.8130  135.7750 C   0  0  2  0  0  3  0  0  0  0  0  0
  185.7610  172.4850  136.1510 C   0  0  0  0  0  2  0  0  0  0  0  0
  1  6  1  0  0  0  0
  1  9  1  1  0  0  0
  2  5  1  0  0  0  0
  2  3  1  1  0  0  0
  3  7  1  0  0  0  0
  4 11  1  0  0  0  0
  5 14  1  1  0  0  0
  7  4  2  0  0  0  0
  8 23  1  6  0  0  0
  8 13  1  0  0  0  0
  8 12  1  0  0  0  0
 10 19  1  0  0  0  0
 13 18  1  1  0  0  0
 13  2  1  0  0  0  0
 14  1  1  0  0  0  0
 15  4  1  0  0  0  0
 16 12  1  6  0  0  0
 16  5  1  0  0  0  0
 16 17  1  0  0  0  0
 17  6  1  0  0  0  0
 18 10  1  0  0  0  0
 19  3  2  0  0  0  0
 19 20  1  0  0  0  0
 20 15  2  0  0  0  0
 22 23  1  0  0  0  0
 22 21  2  0  0  0  0
 24 28  1  0  0  0  0
 24 27  1  1  0  0  0
 24 31  1  0  0  0  0
 25 28  1  0  0  0  0
 25 30  1  0  0  0  0
 29 31  1  0  0  0  0
 29 26  1  1  0  0  0
 30 29  1  0  0  0  0
 30 22  1  1  0  0  0
M  END
>  <MODEL>
6

>  <REMARK>
 VINA RESULT:      -7.0      4.109      7.066
  Name = 
  2 active torsions:
  status: ('A' for Active; 'I' for Inactive)
    1  A    between atoms: C_5  and  C_30
    2  A    between atoms: C_10  and  N_16
                            x       y       z     vdW  Elec       q    Type
                         _______ _______ _______ _____ _____    ______ ____

>  <TORSDO>
F 2

$$$$
=
 OpenBabel11122411143D

 31 35  0  0  1  0  0  0  0  0999 V2000
  183.6530  178.5910  143.3460 C   0  0  1  0  0  3  0  0  0  0  0  0
  183.0690  177.5530  139.6220 C   0  0  2  0  0  3  0  0  0  0  0  0
  182.1790  178.6410  139.0230 C   0  0  0  0  0  0  0  0  0  0  0  0
  180.5440  180.4240  139.3170 C   0  0  0  0  0  0  0  0  0  0  0  0
  183.8060  177.9180  140.9280 C   0  0  2  0  0  3  0  0  0  0  0  0
  184.5980  179.7520  143.0650 C   0  0  0  0  0  2  0  0  0  0  0  0
  181.4260  179.4860  139.8530 C   0  0  0  0  0  3  0  0  0  0  0  0
  185.2260  178.0640  138.3670 C   0  0  2  0  0  3  0  0  0  0  0  0
  182.7710  178.9450  144.3650 O   0  0  0  0  0  1  0  0  0  0  0  0
  182.7610  177.8780  136.6530 C   0  0  0  0  0  2  0  0  0  0  0  0
  179.7720  181.3170  140.2180 C   0  0  0  0  0  1  0  0  0  0  0  0
  185.8880  178.4780  139.6820 C   0  0  0  0  0  2  0  0  0  0  0  0
  184.1040  177.0330  138.6100 C   0  0  2  0  0  3  0  0  0  0  0  0
  182.8630  178.2470  142.0890 C   0  0  0  0  0  2  0  0  0  0  0  0
  180.3830  180.5190  137.9350 C   0  0  0  0  0  3  0  0  0  0  0  0
  184.8640  179.0040  140.6820 C   0  0  2  0  0  3  0  0  0  0  0  0
  185.5900  179.3570  141.9780 C   0  0  0  0  0  2  0  0  0  0  0  0
  183.3920  176.6520  137.3120 C   0  0  0  0  0  2  0  0  0  0  0  0
  181.9810  178.7200  137.6200 C   0  0  0  0  0  0  0  0  0  0  0  0
  181.1010  179.6700  137.0910 C   0  0  0  0  0  3  0  0  0  0  0  0
  187.0970  179.5830  136.8440 O   0  0  0  0  0  0  0  0  0  0  0  0
  187.1450  178.3260  136.7420 C   0  0  0  0  0  0  0  0  0  0  0  0
  186.2290  177.5070  137.4710 N   0  0  0  0  0  2  0  0  0  0  0  0
  188.2340  174.8440  136.1390 C   0  0  1  0  0  3  0  0  0  0  0  0
  187.5020  176.6190  134.9410 C   0  0  0  0  0  2  0  0  0  0  0  0
  189.8140  177.8770  137.6060 O   0  0  0  0  0  1  0  0  0  0  0  0
  187.8550  173.4970  136.7160 C   0  0  0  0  0  1  0  0  0  0  0  0
  187.0760  175.5050  135.6910 O   0  0  0  0  0  0  0  0  0  0  0  0
  189.3240  177.0250  136.6150 C   0  0  2  0  0  3  0  0  0  0  0  0
  188.1570  177.6700  135.8480 C   0  0  2  0  0  3  0  0  0  0  0  0
  188.9290  175.6780  137.2150 C   0  0  0  0  0  2  0  0  0  0  0  0
  1  9  1  1  0  0  0
  2  3  1  6  0  0  0
  2  5  1  0  0  0  0
  3  7  1  0  0  0  0
  4  7  2  0  0  0  0
  4 11  1  0  0  0  0
  5 14  1  1  0  0  0
  6  1  1  0  0  0  0
  8 23  1  6  0  0  0
  8 13  1  0  0  0  0
  8 12  1  0  0  0  0
 10 18  1  0  0  0  0
 10 19  1  0  0  0  0
 13 18  1  6  0  0  0
 13  2  1  0  0  0  0
 14  1  1  0  0  0  0
 15  4  1  0  0  0  0
 16 12  1  6  0  0  0
 16  5  1  0  0  0  0
 16 17  1  0  0  0  0
 17  6  1  0  0  0  0
 19  3  2  0  0  0  0
 20 19  1  0  0  0  0
 20 15  2  0  0  0  0
 22 21  2  0  0  0  0
 22 23  1  0  0  0  0
 24 27  1  1  0  0  0
 24 31  1  0  0  0  0
 25 28  1  0  0  0  0
 25 30  1  0  0  0  0
 28 24  1  0  0  0  0
 29 31  1  0  0  0  0
 29 26  1  1  0  0  0
 30 29  1  0  0  0  0
 30 22  1  1  0  0  0
M  END
>  <MODEL>
7

>  <REMARK>
 VINA RESULT:      -6.8      4.071      6.537
  Name = 
  2 active torsions:
  status: ('A' for Active; 'I' for Inactive)
    1  A    between atoms: C_5  and  C_30
    2  A    between atoms: C_10  and  N_16
                            x       y       z     vdW  Elec       q    Type
                         _______ _______ _______ _____ _____    ______ ____

>  <TORSDO>
F 2

$$$$
=
 OpenBabel11122411143D

 31 35  0  0  1  0  0  0  0  0999 V2000
  191.6070  177.6310  140.4990 C   0  0  1  0  0  3  0  0  0  0  0  0
  189.1470  177.9760  137.4820 C   0  0  2  0  0  3  0  0  0  0  0  0
  189.0940  176.5950  136.8290 C   0  0  0  0  0  0  0  0  0  0  0  0
  190.1210  174.4270  136.4030 C   0  0  0  0  0  0  0  0  0  0  0  0
  189.6860  178.0260  138.9260 C   0  0  2  0  0  3  0  0  0  0  0  0
  190.6840  176.8140  141.3940 C   0  0  0  0  0  2  0  0  0  0  0  0
  190.1110  175.6560  137.0610 C   0  0  0  0  0  3  0  0  0  0  0  0
  186.7930  178.0480  138.4530 C   0  0  2  0  0  3  0  0  0  0  0  0
  192.9060  177.1330  140.5920 O   0  0  0  0  0  1  0  0  0  0  0  0
  186.9610  177.2210  135.5660 C   0  0  0  0  0  2  0  0  0  0  0  0
  191.2000  173.4440  136.6800 C   0  0  0  0  0  1  0  0  0  0  0  0
  187.3800  178.0290  139.8660 C   0  0  0  0  0  2  0  0  0  0  0  0
  187.7790  178.6800  137.4490 C   0  0  2  0  0  3  0  0  0  0  0  0
  191.1360  177.5500  139.0520 C   0  0  0  0  0  2  0  0  0  0  0  0
  189.1200  174.1220  135.4810 C   0  0  0  0  0  3  0  0  0  0  0  0
  188.7300  177.3210  139.9000 C   0  0  2  0  0  3  0  0  0  0  0  0
  189.2700  177.3790  141.3270 C   0  0  0  0  0  2  0  0  0  0  0  0
  187.2320  178.6540  136.0230 C   0  0  0  0  0  2  0  0  0  0  0  0
  188.1020  176.2910  135.8610 C   0  0  0  0  0  0  0  0  0  0  0  0
  188.1140  175.0520  135.2130 C   0  0  0  0  0  3  0  0  0  0  0  0
  184.1950  176.8930  138.2350 O   0  0  0  0  0  0  0  0  0  0  0  0
  184.2680  178.1480  138.3530 C   0  0  0  0  0  0  0  0  0  0  0  0
  185.5400  178.7900  138.4570 N   0  0  0  0  0  2  0  0  0  0  0  0
  180.8380  177.7040  139.6600 C   0  0  1  0  0  3  0  0  0  0  0  0
  182.5240  179.2060  139.8100 C   0  0  0  0  0  2  0  0  0  0  0  0
  182.3430  177.9970  136.2690 O   0  0  0  0  0  1  0  0  0  0  0  0
  180.1080  176.5850  140.3710 C   0  0  0  0  0  1  0  0  0  0  0  0
  182.0230  178.0070  140.3540 O   0  0  0  0  0  0  0  0  0  0  0  0
  181.8820  178.4110  137.5200 C   0  0  2  0  0  3  0  0  0  0  0  0
  183.0240  178.9870  138.3760 C   0  0  2  0  0  3  0  0  0  0  0  0
  181.1650  177.2670  138.2320 C   0  0  0  0  0  2  0  0  0  0  0  0
  1  9  1  6  0  0  0
  1  6  1  0  0  0  0
  2  3  1  1  0  0  0
  2  5  1  0  0  0  0
  3  7  1  0  0  0  0
  4 11  1  0  0  0  0
  4  7  2  0  0  0  0
  5 14  1  6  0  0  0
  5 16  1  0  0  0  0
  8 23  1  1  0  0  0
  8 12  1  0  0  0  0
 10 19  1  0  0  0  0
 10 18  1  0  0  0  0
 13 18  1  6  0  0  0
 13  2  1  0  0  0  0
 13  8  1  0  0  0  0
 14  1  1  0  0  0  0
 15  4  1  0  0  0  0
 16 12  1  1  0  0  0
 16 17  1  0  0  0  0
 17  6  1  0  0  0  0
 19  3  2  0  0  0  0
 20 15  2  0  0  0  0
 20 19  1  0  0  0  0
 21 22  2  0  0  0  0
 22 23  1  0  0  0  0
 24 28  1  0  0  0  0
 24 27  1  1  0  0  0
 25 28  1  0  0  0  0
 29 26  1  6  0  0  0
 29 31  1  0  0  0  0
 29 30  1  0  0  0  0
 30 22  1  1  0  0  0
 30 25  1  0  0  0  0
 31 24  1  0  0  0  0
M  END
>  <MODEL>
8

>  <REMARK>
 VINA RESULT:      -6.6      3.861      7.286
  Name = 
  2 active torsions:
  status: ('A' for Active; 'I' for Inactive)
    1  A    between atoms: C_5  and  C_30
    2  A    between atoms: C_10  and  N_16
                            x       y       z     vdW  Elec       q    Type
                         _______ _______ _______ _____ _____    ______ ____

>  <TORSDO>
F 2

$$$$
=
 OpenBabel11122411143D

 31 35  0  0  1  0  0  0  0  0999 V2000
  179.5660  177.9780  141.2750 C   0  0  1  0  0  3  0  0  0  0  0  0
  183.0350  178.8600  139.7040 C   0  0  2  0  0  3  0  0  0  0  0  0
  184.0600  178.6590  140.8200 C   0  0  0  0  0  0  0  0  0  0  0  0
  184.5900  178.5450  143.1960 C   0  0  0  0  0  0  0  0  0  0  0  0
  181.6650  178.1800  139.9060 C   0  0  2  0  0  3  0  0  0  0  0  0
  179.7750  176.4710  141.3420 C   0  0  0  0  0  2  0  0  0  0  0  0
  183.6560  178.6390  142.1650 C   0  0  0  0  0  3  0  0  0  0  0  0
  183.6870  176.9040  138.2080 C   0  0  2  0  0  3  0  0  0  0  0  0
  178.9310  178.4120  142.4370 O   0  0  0  0  0  1  0  0  0  0  0  0
  185.9730  178.6310  139.1250 C   0  0  0  0  0  2  0  0  0  0  0  0
  184.1340  178.5090  144.6100 C   0  0  0  0  0  1  0  0  0  0  0  0
  182.3380  176.2410  138.4950 C   0  0  0  0  0  2  0  0  0  0  0  0
  183.5900  178.4380  138.3320 C   0  0  2  0  0  3  0  0  0  0  0  0
  180.9100  178.6840  141.1380 C   0  0  0  0  0  2  0  0  0  0  0  0
  185.9520  178.4900  142.9000 C   0  0  0  0  0  3  0  0  0  0  0  0
  181.7950  176.6490  139.8590 C   0  0  2  0  0  3  0  0  0  0  0  0
  180.4340  175.9850  140.0560 C   0  0  0  0  0  2  0  0  0  0  0  0
  184.9420  179.1130  138.1060 C   0  0  0  0  0  2  0  0  0  0  0  0
  185.4490  178.6400  140.5310 C   0  0  0  0  0  0  0  0  0  0  0  0
  186.3770  178.5360  141.5710 C   0  0  0  0  0  3  0  0  0  0  0  0
  186.0900  175.4940  137.6030 O   0  0  0  0  0  0  0  0  0  0  0  0
  185.3470  175.8230  136.6370 C   0  0  0  0  0  0  0  0  0  0  0  0
  184.1340  176.5390  136.8710 N   0  0  0  0  0  2  0  0  0  0  0  0
  188.4510  174.7050  134.9680 C   0  0  1  0  0  3  0  0  0  0  0  0
  186.2910  174.0520  135.1350 C   0  0  0  0  0  2  0  0  0  0  0  0
  186.3690  177.7860  134.8560 O   0  0  0  0  0  1  0  0  0  0  0  0
  189.8670  174.4320  135.4290 C   0  0  0  0  0  1  0  0  0  0  0  0
  187.5510  173.9690  135.7600 O   0  0  0  0  0  0  0  0  0  0  0  0
  186.7340  176.4620  134.6060 C   0  0  2  0  0  3  0  0  0  0  0  0
  185.7290  175.4760  135.2270 C   0  0  2  0  0  3  0  0  0  0  0  0
  188.1570  176.1990  135.0930 C   0  0  0  0  0  2  0  0  0  0  0  0
  1  6  1  0  0  0  0
  1  9  1  1  0  0  0
  2  5  1  0  0  0  0
  2  3  1  1  0  0  0
  3  7  1  0  0  0  0
  4 11  1  0  0  0  0
  5 14  1  1  0  0  0
  7  4  2  0  0  0  0
  8 23  1  6  0  0  0
  8 13  1  0  0  0  0
  8 12  1  0  0  0  0
 10 19  1  0  0  0  0
 13 18  1  1  0  0  0
 13  2  1  0  0  0  0
 14  1  1  0  0  0  0
 15  4  1  0  0  0  0
 16 12  1  6  0  0  0
 16  5  1  0  0  0  0
 16 17  1  0  0  0  0
 17  6  1  0  0  0  0
 18 10  1  0  0  0  0
 19  3  2  0  0  0  0
 19 20  1  0  0  0  0
 20 15  2  0  0  0  0
 22 23  1  0  0  0  0
 22 21  2  0  0  0  0
 24 31  1  0  0  0  0
 24 27  1  1  0  0  0
 24 28  1  0  0  0  0
 25 30  1  0  0  0  0
 25 28  1  0  0  0  0
 29 26  1  1  0  0  0
 29 31  1  0  0  0  0
 29 30  1  0  0  0  0
 30 22  1  1  0  0  0
M  END
>  <MODEL>
9

>  <REMARK>
 VINA RESULT:      -6.5      3.808      6.788
  Name = 
  2 active torsions:
  status: ('A' for Active; 'I' for Inactive)
    1  A    between atoms: C_5  and  C_30
    2  A    between atoms: C_10  and  N_16
                            x       y       z     vdW  Elec       q    Type
                         _______ _______ _______ _____ _____    ______ ____

>  <TORSDO>
F 2

$$$$
