=
 OpenBabel11122411073D

 31 35  0  0  1  0  0  0  0  0999 V2000
  189.7540  177.0940  145.2820 C   0  0  0  0  0  0  0  0  0  0  0  0
  187.0540  178.2010  142.8970 C   0  0  0  0  0  0  0  0  0  0  0  0
  185.8800  178.4450  143.6840 C   0  0  0  0  0  0  0  0  0  0  0  0
  184.6910  178.5170  145.8200 C   0  0  0  0  0  0  0  0  0  0  0  0
  188.3070  177.7630  143.4300 C   0  0  0  0  0  0  0  0  0  0  0  0
  190.8150  176.8950  144.4000 C   0  0  0  0  0  3  0  0  0  0  0  0
  185.8500  178.2720  145.0800 C   0  0  0  0  0  3  0  0  0  0  0  0
  188.0890  178.1870  140.6710 C   0  0  0  0  0  0  0  0  0  0  0  0
  189.9250  176.8710  146.6070 F   0  0  0  0  0  0  0  0  0  0  0  0
  184.6450  179.0710  141.6740 C   0  0  0  0  0  3  0  0  0  0  0  0
  184.6960  178.3370  147.1960 O   0  0  0  0  0  1  0  0  0  0  0  0
  189.2580  177.7690  141.2190 N   0  0  0  0  0  0  0  0  0  0  0  0
  186.9700  178.4100  141.4890 C   0  0  0  0  0  0  0  0  0  0  0  0
  188.0040  178.3930  139.2550 N   0  0  0  0  0  2  0  0  0  0  0  0
  188.5170  177.5220  144.8000 C   0  0  0  0  0  3  0  0  0  0  0  0
  183.5300  178.9430  145.1770 C   0  0  0  0  0  3  0  0  0  0  0  0
  189.3980  177.5550  142.5480 C   0  0  0  0  0  0  0  0  0  0  0  0
  190.6360  177.1250  143.0370 C   0  0  0  0  0  3  0  0  0  0  0  0
  185.7740  178.8380  140.9040 C   0  0  0  0  0  3  0  0  0  0  0  0
  184.6860  178.8800  143.0490 C   0  0  0  0  0  0  0  0  0  0  0  0
  183.5280  179.1240  143.7950 C   0  0  0  0  0  3  0  0  0  0  0  0
  189.0740  179.2170  137.2170 C   0  0  0  0  0  1  0  0  0  0  0  0
  189.1360  178.2130  138.3560 C   0  0  2  0  0  3  0  0  0  0  0  0
  189.2170  174.1920  136.8300 C   0  0  0  0  0  0  0  0  0  0  0  0
  188.0040  176.2390  137.2720 C   0  0  0  0  0  3  0  0  0  0  0  0
  191.4770  176.5960  138.4040 F   0  0  0  0  0  0  0  0  0  0  0  0
  189.2460  172.8940  136.3380 O   0  0  0  0  0  1  0  0  0  0  0  0
  188.0340  174.9320  136.7770 C   0  0  0  0  0  3  0  0  0  0  0  0
  190.3460  176.0640  137.8750 C   0  0  0  0  0  0  0  0  0  0  0  0
  189.1600  176.8120  137.8260 C   0  0  0  0  0  0  0  0  0  0  0  0
  190.3710  174.7570  137.3780 C   0  0  0  0  0  3  0  0  0  0  0  0
  1  9  1  0  0  0  0
  2  5  1  0  0  0  0
  2  3  1  0  0  0  0
  3  7  1  0  0  0  0
  4 11  1  0  0  0  0
  5 15  2  0  0  0  0
  6  1  2  0  0  0  0
  7  4  2  0  0  0  0
  8 12  2  0  0  0  0
  8 13  1  0  0  0  0
 10 20  1  0  0  0  0
 12 17  1  0  0  0  0
 13  2  2  0  0  0  0
 14  8  1  0  0  0  0
 15  1  1  0  0  0  0
 16  4  1  0  0  0  0
 17 18  2  0  0  0  0
 17  5  1  0  0  0  0
 18  6  1  0  0  0  0
 19 13  1  0  0  0  0
 19 10  2  0  0  0  0
 20  3  2  0  0  0  0
 20 21  1  0  0  0  0
 21 16  2  0  0  0  0
 23 22  1  6  0  0  0
 23 14  1  0  0  0  0
 24 31  1  0  0  0  0
 25 30  2  0  0  0  0
 27 24  1  0  0  0  0
 28 24  2  0  0  0  0
 28 25  1  0  0  0  0
 29 26  1  0  0  0  0
 30 29  1  0  0  0  0
 30 23  1  0  0  0  0
 31 29  2  0  0  0  0
M  END
>  <MODEL>
1

>  <REMARK>
 VINA RESULT:     -11.4      0.000      0.000
  Name = 
  2 active torsions:
  status: ('A' for Active; 'I' for Inactive)
    1  A    between atoms: C_5  and  N_16
    2  A    between atoms: C_5  and  C_30
                            x       y       z     vdW  Elec       q    Type
                         _______ _______ _______ _____ _____    ______ ____

>  <TORSDO>
F 2

$$$$
=
 OpenBabel11122411073D

 31 35  0  0  1  0  0  0  0  0999 V2000
  189.7150  177.0860  145.3020 C   0  0  0  0  0  0  0  0  0  0  0  0
  187.0270  178.1920  142.9030 C   0  0  0  0  0  0  0  0  0  0  0  0
  185.8510  178.4440  143.6850 C   0  0  0  0  0  0  0  0  0  0  0  0
  184.6560  178.5320  145.8170 C   0  0  0  0  0  0  0  0  0  0  0  0
  188.2760  177.7510  143.4420 C   0  0  0  0  0  0  0  0  0  0  0  0
  190.7770  176.8790  144.4240 C   0  0  0  0  0  3  0  0  0  0  0  0
  185.8160  178.2790  145.0820 C   0  0  0  0  0  3  0  0  0  0  0  0
  188.0680  178.1620  140.6800 C   0  0  0  0  0  0  0  0  0  0  0  0
  189.8810  176.8700  146.6290 F   0  0  0  0  0  0  0  0  0  0  0  0
  184.6240  179.0650  141.6680 C   0  0  0  0  0  3  0  0  0  0  0  0
  184.6560  178.3600  147.1940 O   0  0  0  0  0  1  0  0  0  0  0  0
  189.2330  177.7420  141.2340 N   0  0  0  0  0  0  0  0  0  0  0  0
  186.9480  178.3930  141.4940 C   0  0  0  0  0  0  0  0  0  0  0  0
  187.9880  178.3610  139.2630 N   0  0  0  0  0  2  0  0  0  0  0  0
  188.4800  177.5170  144.8140 C   0  0  0  0  0  3  0  0  0  0  0  0
  183.4990  178.9590  145.1690 C   0  0  0  0  0  3  0  0  0  0  0  0
  189.3690  177.5340  142.5640 C   0  0  0  0  0  0  0  0  0  0  0  0
  190.6040  177.1020  143.0600 C   0  0  0  0  0  3  0  0  0  0  0  0
  185.7550  178.8240  140.9020 C   0  0  0  0  0  3  0  0  0  0  0  0
  184.6610  178.8810  143.0440 C   0  0  0  0  0  0  0  0  0  0  0  0
  183.5020  179.1330  143.7850 C   0  0  0  0  0  3  0  0  0  0  0  0
  189.0730  179.1760  137.2300 C   0  0  0  0  0  1  0  0  0  0  0  0
  189.1230  178.1710  138.3690 C   0  0  2  0  0  3  0  0  0  0  0  0
  189.1490  174.1480  136.8460 C   0  0  0  0  0  0  0  0  0  0  0  0
  190.3140  176.0060  137.8700 C   0  0  0  0  0  3  0  0  0  0  0  0
  186.8130  176.9280  137.2670 F   0  0  0  0  0  0  0  0  0  0  0  0
  189.1550  172.8500  136.3540 O   0  0  0  0  0  1  0  0  0  0  0  0
  190.3190  174.6990  137.3740 C   0  0  0  0  0  3  0  0  0  0  0  0
  187.9640  176.2100  137.3080 C   0  0  0  0  0  0  0  0  0  0  0  0
  189.1360  176.7700  137.8380 C   0  0  0  0  0  0  0  0  0  0  0  0
  187.9740  174.9020  136.8140 C   0  0  0  0  0  3  0  0  0  0  0  0
  1  9  1  0  0  0  0
  2  5  1  0  0  0  0
  2  3  1  0  0  0  0
  3  7  1  0  0  0  0
  4 11  1  0  0  0  0
  5 15  2  0  0  0  0
  6  1  2  0  0  0  0
  7  4  2  0  0  0  0
  8 12  2  0  0  0  0
  8 13  1  0  0  0  0
 10 20  1  0  0  0  0
 12 17  1  0  0  0  0
 13  2  2  0  0  0  0
 14  8  1  0  0  0  0
 15  1  1  0  0  0  0
 16  4  1  0  0  0  0
 17 18  2  0  0  0  0
 17  5  1  0  0  0  0
 18  6  1  0  0  0  0
 19 13  1  0  0  0  0
 19 10  2  0  0  0  0
 20  3  2  0  0  0  0
 20 21  1  0  0  0  0
 21 16  2  0  0  0  0
 23 22  1  6  0  0  0
 23 14  1  0  0  0  0
 24 28  1  0  0  0  0
 26 29  1  0  0  0  0
 27 24  1  0  0  0  0
 28 25  2  0  0  0  0
 29 30  2  0  0  0  0
 30 25  1  0  0  0  0
 30 23  1  0  0  0  0
 31 24  2  0  0  0  0
 31 29  1  0  0  0  0
M  END
>  <MODEL>
2

>  <REMARK>
 VINA RESULT:     -11.2      0.866      1.227
  Name = 
  2 active torsions:
  status: ('A' for Active; 'I' for Inactive)
    1  A    between atoms: C_5  and  N_16
    2  A    between atoms: C_5  and  C_30
                            x       y       z     vdW  Elec       q    Type
                         _______ _______ _______ _____ _____    ______ ____

>  <TORSDO>
F 2

$$$$
=
 OpenBabel11122411073D

 31 35  0  0  1  0  0  0  0  0999 V2000
  190.7730  177.1390  141.9610 C   0  0  0  0  0  0  0  0  0  0  0  0
  187.3800  178.0600  143.3210 C   0  0  0  0  0  0  0  0  0  0  0  0
  187.4620  177.9500  144.7490 C   0  0  0  0  0  0  0  0  0  0  0  0
  188.6880  177.4660  146.8090 C   0  0  0  0  0  0  0  0  0  0  0  0
  188.4650  177.7930  142.4270 C   0  0  0  0  0  0  0  0  0  0  0  0
  190.5520  177.2840  140.5930 C   0  0  0  0  0  3  0  0  0  0  0  0
  188.6380  177.5640  145.4170 C   0  0  0  0  0  3  0  0  0  0  0  0
  186.0000  178.5840  141.3600 C   0  0  0  0  0  0  0  0  0  0  0  0
  191.9900  176.7530  142.4140 F   0  0  0  0  0  0  0  0  0  0  0  0
  185.1260  178.6280  144.9490 C   0  0  0  0  0  3  0  0  0  0  0  0
  189.8650  177.0820  147.4350 O   0  0  0  0  0  1  0  0  0  0  0  0
  187.0550  178.3190  140.5490 N   0  0  0  0  0  0  0  0  0  0  0  0
  186.1360  178.4610  142.7510 C   0  0  0  0  0  0  0  0  0  0  0  0
  184.7480  178.9840  140.7870 N   0  0  0  0  0  2  0  0  0  0  0  0
  189.7390  177.3900  142.8650 C   0  0  0  0  0  3  0  0  0  0  0  0
  187.5560  177.7540  147.5690 C   0  0  0  0  0  3  0  0  0  0  0  0
  188.2600  177.9350  141.0310 C   0  0  0  0  0  0  0  0  0  0  0  0
  189.2990  177.6810  140.1300 C   0  0  0  0  0  3  0  0  0  0  0  0
  185.0350  178.7360  143.5700 C   0  0  0  0  0  3  0  0  0  0  0  0
  186.3200  178.2400  145.5420 C   0  0  0  0  0  0  0  0  0  0  0  0
  186.3750  178.1410  146.9360 C   0  0  0  0  0  3  0  0  0  0  0  0
  183.4070  180.1280  139.0940 C   0  0  0  0  0  1  0  0  0  0  0  0
  184.5520  179.1630  139.3540 C   0  0  2  0  0  3  0  0  0  0  0  0
  183.8060  175.3760  137.4550 C   0  0  0  0  0  0  0  0  0  0  0  0
  183.2610  177.0060  139.1590 C   0  0  0  0  0  3  0  0  0  0  0  0
  186.0720  178.2270  137.1390 F   0  0  0  0  0  0  0  0  0  0  0  0
  183.5670  174.1550  136.8400 O   0  0  0  0  0  1  0  0  0  0  0  0
  183.0220  175.7760  138.5400 C   0  0  0  0  0  3  0  0  0  0  0  0
  185.0730  177.4360  137.6050 C   0  0  0  0  0  0  0  0  0  0  0  0
  184.2900  177.8430  138.6970 C   0  0  0  0  0  0  0  0  0  0  0  0
  184.8290  176.2050  136.9890 C   0  0  0  0  0  3  0  0  0  0  0  0
  1  9  1  0  0  0  0
  1 15  1  0  0  0  0
  2  3  1  0  0  0  0
  3  7  2  0  0  0  0
  3 20  1  0  0  0  0
  4 11  1  0  0  0  0
  4 16  2  0  0  0  0
  5 15  2  0  0  0  0
  5  2  1  0  0  0  0
  6  1  2  0  0  0  0
  7  4  1  0  0  0  0
  8 13  1  0  0  0  0
 10 20  1  0  0  0  0
 12 17  1  0  0  0  0
 12  8  2  0  0  0  0
 13  2  2  0  0  0  0
 13 19  1  0  0  0  0
 14  8  1  0  0  0  0
 17  5  1  0  0  0  0
 18  6  1  0  0  0  0
 18 17  2  0  0  0  0
 19 10  2  0  0  0  0
 20 21  2  0  0  0  0
 21 16  1  0  0  0  0
 23 22  1  1  0  0  0
 23 14  1  0  0  0  0
 24 28  1  0  0  0  0
 26 29  1  0  0  0  0
 27 24  1  0  0  0  0
 28 25  2  0  0  0  0
 29 30  2  0  0  0  0
 30 25  1  0  0  0  0
 30 23  1  0  0  0  0
 31 24  2  0  0  0  0
 31 29  1  0  0  0  0
M  END
>  <MODEL>
3

>  <REMARK>
 VINA RESULT:     -10.8      2.862      4.122
  Name = 
  2 active torsions:
  status: ('A' for Active; 'I' for Inactive)
    1  A    between atoms: C_5  and  N_16
    2  A    between atoms: C_5  and  C_30
                            x       y       z     vdW  Elec       q    Type
                         _______ _______ _______ _____ _____    ______ ____

>  <TORSDO>
F 2

$$$$
=
 OpenBabel11122411073D

 31 35  0  0  1  0  0  0  0  0999 V2000
  189.8830  177.0920  147.1440 C   0  0  0  0  0  0  0  0  0  0  0  0
  187.9660  177.6680  143.9510 C   0  0  0  0  0  0  0  0  0  0  0  0
  186.6360  178.0500  144.3290 C   0  0  0  0  0  0  0  0  0  0  0  0
  184.9260  178.5360  146.0080 C   0  0  0  0  0  0  0  0  0  0  0  0
  189.0110  177.3590  144.8770 C   0  0  0  0  0  0  0  0  0  0  0  0
  191.1310  176.7330  146.6370 C   0  0  0  0  0  3  0  0  0  0  0  0
  186.2280  178.1610  145.6700 C   0  0  0  0  0  3  0  0  0  0  0  0
  189.5540  177.2190  142.1330 C   0  0  0  0  0  0  0  0  0  0  0  0
  189.6850  177.1420  148.4830 F   0  0  0  0  0  0  0  0  0  0  0  0
  186.0090  178.2470  141.9780 C   0  0  0  0  0  3  0  0  0  0  0  0
  184.5570  178.6360  147.3420 O   0  0  0  0  0  1  0  0  0  0  0  0
  190.5160  176.9330  143.0470 N   0  0  0  0  0  0  0  0  0  0  0  0
  188.2690  177.5880  142.5590 C   0  0  0  0  0  0  0  0  0  0  0  0
  189.8580  177.1360  140.7350 N   0  0  0  0  0  2  0  0  0  0  0  0
  188.8380  177.4010  146.2720 C   0  0  0  0  0  3  0  0  0  0  0  0
  183.9970  178.8110  145.0050 C   0  0  0  0  0  3  0  0  0  0  0  0
  190.2880  176.9910  144.3790 C   0  0  0  0  0  0  0  0  0  0  0  0
  191.3310  176.6830  145.2580 C   0  0  0  0  0  3  0  0  0  0  0  0
  187.2910  177.8770  141.6010 C   0  0  0  0  0  3  0  0  0  0  0  0
  185.6740  178.3360  143.3220 C   0  0  0  0  0  0  0  0  0  0  0  0
  184.3710  178.7110  143.6660 C   0  0  0  0  0  3  0  0  0  0  0  0
  192.1820  177.8780  140.5830 C   0  0  0  0  0  1  0  0  0  0  0  0
  191.1800  176.7920  140.2280 C   0  0  2  0  0  3  0  0  0  0  0  0
  191.0480  176.1940  135.9710 C   0  0  0  0  0  0  0  0  0  0  0  0
  189.9330  176.7780  138.0370 C   0  0  0  0  0  3  0  0  0  0  0  0
  193.4550  176.0010  138.7150 F   0  0  0  0  0  0  0  0  0  0  0  0
  191.0090  176.0010  134.5960 O   0  0  0  0  0  1  0  0  0  0  0  0
  189.8940  176.5830  136.6540 C   0  0  0  0  0  3  0  0  0  0  0  0
  192.2870  176.1940  138.0530 C   0  0  0  0  0  0  0  0  0  0  0  0
  191.1300  176.5820  138.7460 C   0  0  0  0  0  0  0  0  0  0  0  0
  192.2420  176.0010  136.6690 C   0  0  0  0  0  3  0  0  0  0  0  0
  1  9  1  0  0  0  0
  2  3  1  0  0  0  0
  2  5  1  0  0  0  0
  3  7  1  0  0  0  0
  4 11  1  0  0  0  0
  5 15  1  0  0  0  0
  6  1  1  0  0  0  0
  7  4  2  0  0  0  0
  8 13  1  0  0  0  0
  8 12  2  0  0  0  0
 10 20  1  0  0  0  0
 12 17  1  0  0  0  0
 13  2  2  0  0  0  0
 14  8  1  0  0  0  0
 15  1  2  0  0  0  0
 16  4  1  0  0  0  0
 17  5  2  0  0  0  0
 17 18  1  0  0  0  0
 18  6  2  0  0  0  0
 19 10  2  0  0  0  0
 19 13  1  0  0  0  0
 20 21  1  0  0  0  0
 20  3  2  0  0  0  0
 21 16  2  0  0  0  0
 23 22  1  6  0  0  0
 23 14  1  0  0  0  0
 24 28  2  0  0  0  0
 24 31  1  0  0  0  0
 25 30  2  0  0  0  0
 27 24  1  0  0  0  0
 28 25  1  0  0  0  0
 29 26  1  0  0  0  0
 29 30  1  0  0  0  0
 30 23  1  0  0  0  0
 31 29  2  0  0  0  0
M  END
>  <MODEL>
4

>  <REMARK>
 VINA RESULT:     -10.5      1.608      2.182
  Name = 
  2 active torsions:
  status: ('A' for Active; 'I' for Inactive)
    1  A    between atoms: C_5  and  N_16
    2  A    between atoms: C_5  and  C_30
                            x       y       z     vdW  Elec       q    Type
                         _______ _______ _______ _____ _____    ______ ____

>  <TORSDO>
F 2

$$$$
=
 OpenBabel11122411073D

 31 35  0  0  1  0  0  0  0  0999 V2000
  191.2860  176.6120  145.0210 C   0  0  0  0  0  0  0  0  0  0  0  0
  187.9640  177.7680  143.6660 C   0  0  0  0  0  0  0  0  0  0  0  0
  187.1300  178.0480  144.7980 C   0  0  0  0  0  0  0  0  0  0  0  0
  186.7320  178.1710  147.2080 C   0  0  0  0  0  0  0  0  0  0  0  0
  189.3130  177.3020  143.7540 C   0  0  0  0  0  0  0  0  0  0  0  0
  191.9820  176.3780  143.8370 C   0  0  0  0  0  3  0  0  0  0  0  0
  187.5680  177.8900  146.1250 C   0  0  0  0  0  3  0  0  0  0  0  0
  188.1880  177.7060  141.2220 C   0  0  0  0  0  0  0  0  0  0  0  0
  191.8880  176.3970  146.2150 F   0  0  0  0  0  0  0  0  0  0  0  0
  185.3030  178.6880  143.3110 C   0  0  0  0  0  3  0  0  0  0  0  0
  187.1970  178.0030  148.5050 O   0  0  0  0  0  1  0  0  0  0  0  0
  189.4630  177.2640  141.3520 N   0  0  0  0  0  0  0  0  0  0  0  0
  187.4150  177.9660  142.3650 C   0  0  0  0  0  0  0  0  0  0  0  0
  187.6350  177.9020  139.9140 N   0  0  0  0  0  2  0  0  0  0  0  0
  189.9670  177.0680  144.9760 C   0  0  0  0  0  3  0  0  0  0  0  0
  185.4310  178.6210  146.9860 C   0  0  0  0  0  3  0  0  0  0  0  0
  190.0390  177.0580  142.5590 C   0  0  0  0  0  0  0  0  0  0  0  0
  191.3600  176.6000  142.6100 C   0  0  0  0  0  3  0  0  0  0  0  0
  186.1010  178.4190  142.2090 C   0  0  0  0  0  3  0  0  0  0  0  0
  185.8000  178.5090  144.5940 C   0  0  0  0  0  0  0  0  0  0  0  0
  184.9680  178.7890  145.6820 C   0  0  0  0  0  3  0  0  0  0  0  0
  189.0490  178.9780  138.2360 C   0  0  0  0  0  1  0  0  0  0  0  0
  188.3940  177.6840  138.6900 C   0  0  2  0  0  3  0  0  0  0  0  0
  185.8470  176.1120  135.6010 C   0  0  0  0  0  0  0  0  0  0  0  0
  186.1830  177.5960  137.4830 C   0  0  0  0  0  3  0  0  0  0  0  0
  189.2620  175.7040  136.8390 F   0  0  0  0  0  0  0  0  0  0  0  0
  185.0270  175.6030  134.6020 O   0  0  0  0  0  1  0  0  0  0  0  0
  185.3580  177.0830  136.4770 C   0  0  0  0  0  3  0  0  0  0  0  0
  187.9890  176.1630  136.7310 C   0  0  0  0  0  0  0  0  0  0  0  0
  187.5030  177.1370  137.6160 C   0  0  0  0  0  0  0  0  0  0  0  0
  187.1600  175.6540  135.7270 C   0  0  0  0  0  3  0  0  0  0  0  0
  1  9  1  0  0  0  0
  2  5  1  0  0  0  0
  2  3  1  0  0  0  0
  3  7  1  0  0  0  0
  4 11  1  0  0  0  0
  5 15  2  0  0  0  0
  6  1  2  0  0  0  0
  7  4  2  0  0  0  0
  8 12  2  0  0  0  0
  8 13  1  0  0  0  0
 10 20  1  0  0  0  0
 12 17  1  0  0  0  0
 13  2  2  0  0  0  0
 14  8  1  0  0  0  0
 15  1  1  0  0  0  0
 16  4  1  0  0  0  0
 17 18  2  0  0  0  0
 17  5  1  0  0  0  0
 18  6  1  0  0  0  0
 19 13  1  0  0  0  0
 19 10  2  0  0  0  0
 20  3  2  0  0  0  0
 20 21  1  0  0  0  0
 21 16  2  0  0  0  0
 23 22  1  6  0  0  0
 23 14  1  0  0  0  0
 24 31  2  0  0  0  0
 24 28  1  0  0  0  0
 25 30  1  0  0  0  0
 27 24  1  0  0  0  0
 28 25  2  0  0  0  0
 29 26  1  0  0  0  0
 29 30  2  0  0  0  0
 30 23  1  0  0  0  0
 31 29  1  0  0  0  0
M  END
>  <MODEL>
5

>  <REMARK>
 VINA RESULT:     -10.3      1.769      2.253
  Name = 
  2 active torsions:
  status: ('A' for Active; 'I' for Inactive)
    1  A    between atoms: C_5  and  N_16
    2  A    between atoms: C_5  and  C_30
                            x       y       z     vdW  Elec       q    Type
                         _______ _______ _______ _____ _____    ______ ____

>  <TORSDO>
F 2

$$$$
=
 OpenBabel11122411073D

 31 35  0  0  1  0  0  0  0  0999 V2000
  184.5320  178.6120  144.6650 C   0  0  0  0  0  0  0  0  0  0  0  0
  188.0950  177.8180  143.7260 C   0  0  0  0  0  0  0  0  0  0  0  0
  188.7830  177.5000  144.9440 C   0  0  0  0  0  0  0  0  0  0  0  0
  188.8490  177.1980  147.3700 C   0  0  0  0  0  0  0  0  0  0  0  0
  186.7130  178.1780  143.6510 C   0  0  0  0  0  0  0  0  0  0  0  0
  183.9910  178.8980  143.4130 C   0  0  0  0  0  3  0  0  0  0  0  0
  188.1520  177.5120  146.2010 C   0  0  0  0  0  3  0  0  0  0  0  0
  188.2110  178.0750  141.2870 C   0  0  0  0  0  0  0  0  0  0  0  0
  183.7520  178.6790  145.7710 F   0  0  0  0  0  0  0  0  0  0  0  0
  190.8470  177.1230  143.6950 C   0  0  0  0  0  3  0  0  0  0  0  0
  188.1950  177.2190  148.5940 O   0  0  0  0  0  1  0  0  0  0  0  0
  186.8970  178.4130  141.2630 N   0  0  0  0  0  0  0  0  0  0  0  0
  188.8350  177.7730  142.5080 C   0  0  0  0  0  0  0  0  0  0  0  0
  188.9560  178.0340  140.0640 N   0  0  0  0  0  2  0  0  0  0  0  0
  185.8770  178.2570  144.7790 C   0  0  0  0  0  3  0  0  0  0  0  0
  190.2000  176.8630  147.3070 C   0  0  0  0  0  3  0  0  0  0  0  0
  186.1440  178.4720  142.3850 C   0  0  0  0  0  0  0  0  0  0  0  0
  184.7950  178.8280  142.2770 C   0  0  0  0  0  3  0  0  0  0  0  0
  190.1910  177.4290  142.5120 C   0  0  0  0  0  3  0  0  0  0  0  0
  190.1610  177.1550  144.9020 C   0  0  0  0  0  0  0  0  0  0  0  0
  190.8540  176.8410  146.0760 C   0  0  0  0  0  3  0  0  0  0  0  0
  186.9160  177.8270  138.7320 C   0  0  0  0  0  1  0  0  0  0  0  0
  188.3600  178.3020  138.7610 C   0  0  2  0  0  3  0  0  0  0  0  0
  190.6370  176.4040  135.6450 C   0  0  0  0  0  0  0  0  0  0  0  0
  190.2310  176.7950  137.9990 C   0  0  0  0  0  3  0  0  0  0  0  0
  187.7930  178.6730  135.9980 F   0  0  0  0  0  0  0  0  0  0  0  0
  191.3710  175.7920  134.6380 O   0  0  0  0  0  1  0  0  0  0  0  0
  190.9680  176.1790  136.9830 C   0  0  0  0  0  3  0  0  0  0  0  0
  188.8280  177.8610  136.3320 C   0  0  0  0  0  0  0  0  0  0  0  0
  189.1570  177.6410  137.6790 C   0  0  0  0  0  0  0  0  0  0  0  0
  189.5690  177.2420  135.3210 C   0  0  0  0  0  3  0  0  0  0  0  0
  1 15  1  0  0  0  0
  1  9  1  0  0  0  0
  2  3  1  0  0  0  0
  3  7  1  0  0  0  0
  4 11  1  0  0  0  0
  5  2  1  0  0  0  0
  5 15  2  0  0  0  0
  6  1  2  0  0  0  0
  7  4  2  0  0  0  0
  8 13  1  0  0  0  0
 10 20  1  0  0  0  0
 12  8  2  0  0  0  0
 12 17  1  0  0  0  0
 13 19  1  0  0  0  0
 13  2  2  0  0  0  0
 14  8  1  0  0  0  0
 16  4  1  0  0  0  0
 17  5  1  0  0  0  0
 18 17  2  0  0  0  0
 18  6  1  0  0  0  0
 19 10  2  0  0  0  0
 20  3  2  0  0  0  0
 20 21  1  0  0  0  0
 21 16  2  0  0  0  0
 23 22  1  1  0  0  0
 23 14  1  0  0  0  0
 24 28  1  0  0  0  0
 26 29  1  0  0  0  0
 27 24  1  0  0  0  0
 28 25  2  0  0  0  0
 29 30  2  0  0  0  0
 30 25  1  0  0  0  0
 30 23  1  0  0  0  0
 31 24  2  0  0  0  0
 31 29  1  0  0  0  0
M  END
>  <MODEL>
6

>  <REMARK>
 VINA RESULT:     -10.2      2.176      4.288
  Name = 
  2 active torsions:
  status: ('A' for Active; 'I' for Inactive)
    1  A    between atoms: C_5  and  N_16
    2  A    between atoms: C_5  and  C_30
                            x       y       z     vdW  Elec       q    Type
                         _______ _______ _______ _____ _____    ______ ____

>  <TORSDO>
F 2

$$$$
=
 OpenBabel11122411073D

 31 35  0  0  1  0  0  0  0  0999 V2000
  191.1040  177.1070  142.4330 C   0  0  0  0  0  0  0  0  0  0  0  0
  188.0770  177.6840  144.6020 C   0  0  0  0  0  0  0  0  0  0  0  0
  188.5340  177.6780  145.9610 C   0  0  0  0  0  0  0  0  0  0  0  0
  190.2980  177.4840  147.6440 C   0  0  0  0  0  0  0  0  0  0  0  0
  188.9240  177.4970  143.4650 C   0  0  0  0  0  0  0  0  0  0  0  0
  190.5250  177.1340  141.1660 C   0  0  0  0  0  3  0  0  0  0  0  0
  189.8820  177.4850  146.3110 C   0  0  0  0  0  3  0  0  0  0  0  0
  186.1840  177.9050  143.0540 C   0  0  0  0  0  0  0  0  0  0  0  0
  192.4380  176.9050  142.5640 F   0  0  0  0  0  0  0  0  0  0  0  0
  186.2550  178.0720  146.7440 C   0  0  0  0  0  3  0  0  0  0  0  0
  191.6370  177.2910  147.9530 O   0  0  0  0  0  1  0  0  0  0  0  0
  187.0240  177.7220  142.0040 N   0  0  0  0  0  0  0  0  0  0  0  0
  186.6860  177.8900  144.3650 C   0  0  0  0  0  0  0  0  0  0  0  0
  184.7860  178.1090  142.8160 N   0  0  0  0  0  2  0  0  0  0  0  0
  190.3100  177.2850  143.5670 C   0  0  0  0  0  3  0  0  0  0  0  0
  189.3680  177.6780  148.6640 C   0  0  0  0  0  3  0  0  0  0  0  0
  188.3530  177.5230  142.1670 C   0  0  0  0  0  0  0  0  0  0  0  0
  189.1530  177.3420  141.0340 C   0  0  0  0  0  3  0  0  0  0  0  0
  185.8020  178.0790  145.4340 C   0  0  0  0  0  3  0  0  0  0  0  0
  187.6020  177.8750  147.0170 C   0  0  0  0  0  0  0  0  0  0  0  0
  188.0240  177.8730  148.3500 C   0  0  0  0  0  3  0  0  0  0  0  0
  185.0890  178.9990  140.5590 C   0  0  0  0  0  1  0  0  0  0  0  0
  184.2080  178.1690  141.4790 C   0  0  2  0  0  3  0  0  0  0  0  0
  180.2310  179.8020  141.6350 C   0  0  0  0  0  0  0  0  0  0  0  0
  182.2290  179.0460  142.7720 C   0  0  0  0  0  3  0  0  0  0  0  0
  182.6610  178.6770  139.1460 F   0  0  0  0  0  0  0  0  0  0  0  0
  178.9480  180.3290  141.6820 O   0  0  0  0  0  1  0  0  0  0  0  0
  180.9370  179.5760  142.8190 C   0  0  0  0  0  3  0  0  0  0  0  0
  182.1090  178.9670  140.3510 C   0  0  0  0  0  0  0  0  0  0  0  0
  182.8220  178.7360  141.5380 C   0  0  0  0  0  0  0  0  0  0  0  0
  180.8170  179.4980  140.4040 C   0  0  0  0  0  3  0  0  0  0  0  0
  1  9  1  0  0  0  0
  1 15  1  0  0  0  0
  2  3  1  0  0  0  0
  3  7  2  0  0  0  0
  3 20  1  0  0  0  0
  4 11  1  0  0  0  0
  4 16  2  0  0  0  0
  5 15  2  0  0  0  0
  5  2  1  0  0  0  0
  6  1  2  0  0  0  0
  7  4  1  0  0  0  0
  8 13  1  0  0  0  0
 10 20  1  0  0  0  0
 12 17  1  0  0  0  0
 12  8  2  0  0  0  0
 13  2  2  0  0  0  0
 13 19  1  0  0  0  0
 14  8  1  0  0  0  0
 17  5  1  0  0  0  0
 18  6  1  0  0  0  0
 18 17  2  0  0  0  0
 19 10  2  0  0  0  0
 20 21  2  0  0  0  0
 21 16  1  0  0  0  0
 23 22  1  6  0  0  0
 23 30  1  0  0  0  0
 23 14  1  0  0  0  0
 24 27  1  0  0  0  0
 24 28  1  0  0  0  0
 25 28  2  0  0  0  0
 26 29  1  0  0  0  0
 29 31  1  0  0  0  0
 29 30  2  0  0  0  0
 30 25  1  0  0  0  0
 31 24  2  0  0  0  0
M  END
>  <MODEL>
7

>  <REMARK>
 VINA RESULT:     -10.2      3.725      6.480
  Name = 
  2 active torsions:
  status: ('A' for Active; 'I' for Inactive)
    1  A    between atoms: C_5  and  N_16
    2  A    between atoms: C_5  and  C_30
                            x       y       z     vdW  Elec       q    Type
                         _______ _______ _______ _____ _____    ______ ____

>  <TORSDO>
F 2

$$$$
=
 OpenBabel11122411073D

 31 35  0  0  1  0  0  0  0  0999 V2000
  184.7670  178.5570  144.4380 C   0  0  0  0  0  0  0  0  0  0  0  0
  188.3990  177.7100  143.8950 C   0  0  0  0  0  0  0  0  0  0  0  0
  188.9710  177.4850  145.1910 C   0  0  0  0  0  0  0  0  0  0  0  0
  188.8100  177.3610  147.6280 C   0  0  0  0  0  0  0  0  0  0  0  0
  187.0310  178.0580  143.6650 C   0  0  0  0  0  0  0  0  0  0  0  0
  184.3450  178.7480  143.1240 C   0  0  0  0  0  3  0  0  0  0  0  0
  188.2260  177.5860  146.3800 C   0  0  0  0  0  3  0  0  0  0  0  0
  188.7420  177.7890  141.4650 C   0  0  0  0  0  0  0  0  0  0  0  0
  183.8880  178.7010  145.4590 F   0  0  0  0  0  0  0  0  0  0  0  0
  191.1400  177.0260  144.1710 C   0  0  0  0  0  3  0  0  0  0  0  0
  188.0450  177.4690  148.7810 O   0  0  0  0  0  1  0  0  0  0  0  0
  187.4380  178.1190  141.2940 N   0  0  0  0  0  0  0  0  0  0  0  0
  189.2490  177.5800  142.7570 C   0  0  0  0  0  0  0  0  0  0  0  0
  189.5980  177.6610  140.3220 N   0  0  0  0  0  2  0  0  0  0  0  0
  186.0940  178.2160  144.7020 C   0  0  0  0  0  3  0  0  0  0  0  0
  190.1600  177.0280  147.7160 C   0  0  0  0  0  3  0  0  0  0  0  0
  186.5830  178.2570  142.3340 C   0  0  0  0  0  0  0  0  0  0  0  0
  185.2520  178.5980  142.0750 C   0  0  0  0  0  3  0  0  0  0  0  0
  190.5980  177.2430  142.9130 C   0  0  0  0  0  3  0  0  0  0  0  0
  190.3460  177.1430  145.3030 C   0  0  0  0  0  0  0  0  0  0  0  0
  190.9260  176.9190  146.5560 C   0  0  0  0  0  3  0  0  0  0  0  0
  187.6650  178.2540  138.9470 C   0  0  0  0  0  1  0  0  0  0  0  0
  189.1260  177.8320  138.9540 C   0  0  2  0  0  3  0  0  0  0  0  0
  189.6790  174.1960  136.7230 C   0  0  0  0  0  0  0  0  0  0  0  0
  188.2180  175.9300  137.5700 C   0  0  0  0  0  3  0  0  0  0  0  0
  191.6690  176.6000  138.6270 F   0  0  0  0  0  0  0  0  0  0  0  0
  189.8600  173.0230  136.0030 O   0  0  0  0  0  1  0  0  0  0  0  0
  188.4020  174.7490  136.8460 C   0  0  0  0  0  3  0  0  0  0  0  0
  190.5950  176.0050  138.0500 C   0  0  0  0  0  0  0  0  0  0  0  0
  189.3140  176.5640  138.1780 C   0  0  0  0  0  0  0  0  0  0  0  0
  190.7730  174.8240  137.3230 C   0  0  0  0  0  3  0  0  0  0  0  0
  1 15  1  0  0  0  0
  1  9  1  0  0  0  0
  2  3  1  0  0  0  0
  3 20  2  0  0  0  0
  3  7  1  0  0  0  0
  4 16  1  0  0  0  0
  4 11  1  0  0  0  0
  5  2  1  0  0  0  0
  5 15  2  0  0  0  0
  6  1  2  0  0  0  0
  7  4  2  0  0  0  0
  8 13  1  0  0  0  0
 10 20  1  0  0  0  0
 12  8  2  0  0  0  0
 12 17  1  0  0  0  0
 13 19  1  0  0  0  0
 13  2  2  0  0  0  0
 14  8  1  0  0  0  0
 17  5  1  0  0  0  0
 18 17  2  0  0  0  0
 18  6  1  0  0  0  0
 19 10  2  0  0  0  0
 20 21  1  0  0  0  0
 21 16  2  0  0  0  0
 23 22  1  1  0  0  0
 23 14  1  0  0  0  0
 24 28  2  0  0  0  0
 24 31  1  0  0  0  0
 25 30  2  0  0  0  0
 27 24  1  0  0  0  0
 28 25  1  0  0  0  0
 29 30  1  0  0  0  0
 29 26  1  0  0  0  0
 30 23  1  0  0  0  0
 31 29  2  0  0  0  0
M  END
>  <MODEL>
8

>  <REMARK>
 VINA RESULT:      -9.7      1.696      3.985
  Name = 
  2 active torsions:
  status: ('A' for Active; 'I' for Inactive)
    1  A    between atoms: C_5  and  N_16
    2  A    between atoms: C_5  and  C_30
                            x       y       z     vdW  Elec       q    Type
                         _______ _______ _______ _____ _____    ______ ____

>  <TORSDO>
F 2

$$$$
=
 OpenBabel11122411073D

 31 35  0  0  1  0  0  0  0  0999 V2000
  186.0860  177.9810  145.0380 C   0  0  0  0  0  0  0  0  0  0  0  0
  184.6970  178.5600  141.5830 C   0  0  0  0  0  0  0  0  0  0  0  0
  183.2840  178.7590  141.7320 C   0  0  0  0  0  0  0  0  0  0  0  0
  181.2610  178.9240  143.0950 C   0  0  0  0  0  0  0  0  0  0  0  0
  185.5950  178.3080  142.6660 C   0  0  0  0  0  0  0  0  0  0  0  0
  187.4380  177.8040  144.7480 C   0  0  0  0  0  3  0  0  0  0  0  0
  182.6380  178.7260  142.9810 C   0  0  0  0  0  3  0  0  0  0  0  0
  186.6210  178.4280  140.0630 C   0  0  0  0  0  0  0  0  0  0  0  0
  185.6540  177.9110  146.3200 F   0  0  0  0  0  0  0  0  0  0  0  0
  183.0560  179.0510  139.3190 C   0  0  0  0  0  3  0  0  0  0  0  0
  180.6560  178.8850  144.3440 O   0  0  0  0  0  1  0  0  0  0  0  0
  187.4370  178.1890  141.1210 N   0  0  0  0  0  0  0  0  0  0  0  0
  185.2450  178.6160  140.2670 C   0  0  0  0  0  0  0  0  0  0  0  0
  187.1710  178.4810  138.7410 N   0  0  0  0  0  2  0  0  0  0  0  0
  185.1790  178.2290  144.0070 C   0  0  0  0  0  3  0  0  0  0  0  0
  180.4940  179.1620  141.9560 C   0  0  0  0  0  3  0  0  0  0  0  0
  186.9750  178.1250  142.3910 C   0  0  0  0  0  0  0  0  0  0  0  0
  187.8800  177.8760  143.4280 C   0  0  0  0  0  3  0  0  0  0  0  0
  184.4200  178.8590  139.1630 C   0  0  0  0  0  3  0  0  0  0  0  0
  182.4840  179.0040  140.5830 C   0  0  0  0  0  0  0  0  0  0  0  0
  181.1050  179.2020  140.7030 C   0  0  0  0  0  3  0  0  0  0  0  0
  189.0550  179.3750  137.4660 C   0  0  0  0  0  1  0  0  0  0  0  0
  188.5940  178.3280  138.4660 C   0  0  2  0  0  3  0  0  0  0  0  0
  189.4240  174.3700  136.9990 C   0  0  0  0  0  0  0  0  0  0  0  0
  187.8720  176.1980  137.3270 C   0  0  0  0  0  3  0  0  0  0  0  0
  191.1520  177.1050  138.7020 F   0  0  0  0  0  0  0  0  0  0  0  0
  189.6950  173.0930  136.5270 O   0  0  0  0  0  1  0  0  0  0  0  0
  188.1450  174.9120  136.8510 C   0  0  0  0  0  3  0  0  0  0  0  0
  190.1620  176.3990  138.1000 C   0  0  0  0  0  0  0  0  0  0  0  0
  188.8780  176.9480  137.9560 C   0  0  0  0  0  0  0  0  0  0  0  0
  190.4300  175.1130  137.6220 C   0  0  0  0  0  3  0  0  0  0  0  0
  1  9  1  0  0  0  0
  2  3  1  0  0  0  0
  2  5  1  0  0  0  0
  3  7  1  0  0  0  0
  4 11  1  0  0  0  0
  5 15  1  0  0  0  0
  6  1  1  0  0  0  0
  7  4  2  0  0  0  0
  8 13  1  0  0  0  0
  8 12  2  0  0  0  0
 10 20  1  0  0  0  0
 12 17  1  0  0  0  0
 13  2  2  0  0  0  0
 14  8  1  0  0  0  0
 15  1  2  0  0  0  0
 16  4  1  0  0  0  0
 17  5  2  0  0  0  0
 17 18  1  0  0  0  0
 18  6  2  0  0  0  0
 19 10  2  0  0  0  0
 19 13  1  0  0  0  0
 20 21  1  0  0  0  0
 20  3  2  0  0  0  0
 21 16  2  0  0  0  0
 23 22  1  6  0  0  0
 23 14  1  0  0  0  0
 24 31  1  0  0  0  0
 25 30  2  0  0  0  0
 27 24  1  0  0  0  0
 28 24  2  0  0  0  0
 28 25  1  0  0  0  0
 29 26  1  0  0  0  0
 30 29  1  0  0  0  0
 30 23  1  0  0  0  0
 31 29  2  0  0  0  0
M  END
>  <MODEL>
9

>  <REMARK>
 VINA RESULT:      -9.1      1.890      2.727
  Name = 
  2 active torsions:
  status: ('A' for Active; 'I' for Inactive)
    1  A    between atoms: C_5  and  N_16
    2  A    between atoms: C_5  and  C_30
                            x       y       z     vdW  Elec       q    Type
                         _______ _______ _______ _____ _____    ______ ____

>  <TORSDO>
F 2

$$$$
