=
 OpenBabel11122412053D

 34 40  0  0  1  0  0  0  0  0999 V2000
  185.1780  178.2880  144.7120 C   0  0  0  0  0  0  0  0  0  0  0  0
  183.0790  179.0020  143.4890 C   0  0  0  0  0  2  0  0  0  0  0  0
  191.6750  177.8970  144.5690 C   0  0  1  0  0  3  0  0  0  0  0  0
  187.3550  178.0070  145.6980 C   0  0  0  0  0  0  0  0  0  0  0  0
  189.1450  177.2010  144.1340 C   0  0  2  0  0  3  0  0  0  0  0  0
  191.0410  175.6150  143.6730 C   0  0  0  0  0  1  0  0  0  0  0  0
  191.7420  179.3100  144.0250 C   0  0  0  0  0  1  0  0  0  0  0  0
  190.9060  176.7240  146.5590 C   0  0  0  0  0  2  0  0  0  0  0  0
  184.8030  177.8160  142.2600 C   0  0  2  0  0  3  0  0  0  0  0  0
  185.1440  178.7940  139.3110 C   0  0  0  0  0  2  0  0  0  0  0  0
  188.4620  177.9390  143.1480 O   0  0  0  0  0  0  0  0  0  0  0  0
  189.3880  176.8770  146.6540 C   0  0  0  0  0  2  0  0  0  0  0  0
  186.2990  178.1500  142.0730 C   0  0  1  0  0  3  0  0  0  0  0  0
  182.6370  178.9260  142.0380 C   0  0  0  0  0  2  0  0  0  0  0  0
  188.8340  177.7680  145.5390 C   0  0  2  0  0  3  0  0  0  0  0  0
  191.5070  177.9460  146.0330 N   0  0  0  0  0  2  0  0  0  0  0  0
  184.4480  179.4610  140.4070 N   0  0  0  0  0  0  0  0  0  0  0  0
  186.5310  177.9740  144.5690 C   0  0  0  0  0  0  0  0  0  0  0  0
  190.6350  177.0740  143.7700 C   0  0  2  0  0  3  0  0  0  0  0  0
  187.1070  177.5530  143.2350 C   0  0  2  0  0  3  0  0  0  0  0  0
  185.5130  178.6890  147.0190 C   0  0  0  0  0  3  0  0  0  0  0  0
  186.6180  178.6190  139.6410 C   0  0  0  0  0  2  0  0  0  0  0  0
  186.8320  178.3800  146.8970 N   0  0  0  0  0  0  0  0  0  0  0  0
  186.8140  177.5980  140.7510 C   0  0  0  0  0  2  0  0  0  0  0  0
  183.8290  178.4030  141.2220 C   0  0  1  0  0  3  0  0  0  0  0  0
  184.6960  178.6450  145.9320 N   0  0  0  0  0  0  0  0  0  0  0  0
  184.3370  178.2920  143.5520 N   0  0  0  0  0  0  0  0  0  0  0  0
  183.4660  180.1970  139.8240 O   0  0  0  0  0  0  0  0  0  0  0  0
  183.1240  179.4860  138.6690 C   0  0  0  0  0  2  0  0  0  0  0  0
  180.1210  179.9140  139.8180 O   0  0  0  0  0  0  0  0  0  0  0  0
  181.5280  181.3740  138.6100 C   0  0  0  0  0  2  0  0  0  0  0  0
  181.7870  179.9730  138.1360 C   0  0  2  0  0  3  0  0  0  0  0  0
  180.2700  181.2530  139.4350 C   0  0  0  0  0  2  0  0  0  0  0  0
  180.6730  179.1680  138.7660 C   0  0  0  0  0  2  0  0  0  0  0  0
  1 26  1  0  0  0  0
  2 27  1  0  0  0  0
  3  7  1  6  0  0  0
  3 16  1  0  0  0  0
  4 23  2  0  0  0  0
  5 11  1  6  0  0  0
  5 15  1  0  0  0  0
  8 12  1  0  0  0  0
  9 27  1  1  0  0  0
 10 22  1  0  0  0  0
 10 17  1  0  0  0  0
 13 24  1  6  0  0  0
 13  9  1  0  0  0  0
 13 20  1  0  0  0  0
 14  2  1  0  0  0  0
 15  4  1  0  0  0  0
 15 12  1  1  0  0  0
 16  8  1  0  0  0  0
 17 25  1  0  0  0  0
 18  1  2  0  0  0  0
 18  4  1  0  0  0  0
 19  6  1  1  0  0  0
 19  5  1  0  0  0  0
 19  3  1  0  0  0  0
 20 11  1  1  0  0  0
 20 18  1  0  0  0  0
 22 24  1  0  0  0  0
 23 21  1  0  0  0  0
 25 14  1  1  0  0  0
 25  9  1  0  0  0  0
 26 21  2  0  0  0  0
 27  1  1  0  0  0  0
 28 17  1  0  0  0  0
 29 28  1  0  0  0  0
 31 33  1  0  0  0  0
 32 31  1  0  0  0  0
 32 29  1  1  0  0  0
 32 34  1  0  0  0  0
 33 30  1  0  0  0  0
 34 30  1  0  0  0  0
M  END
>  <MODEL>
1

>  <REMARK>
 VINA RESULT:      -8.6      0.000      0.000
  Name = 
  3 active torsions:
  status: ('A' for Active; 'I' for Inactive)
    1  A    between atoms: N_17  and  O_28
    2  A    between atoms: O_28  and  C_29
    3  A    between atoms: C_29  and  C_32
                            x       y       z     vdW  Elec       q    Type
                         _______ _______ _______ _____ _____    ______ ____

>  <TORSDO>
F 3

$$$$
=
 OpenBabel11122412053D

 34 40  0  0  1  0  0  0  0  0999 V2000
  187.4360  178.1470  139.0830 C   0  0  0  0  0  0  0  0  0  0  0  0
  186.1920  178.6640  141.2280 C   0  0  0  0  0  2  0  0  0  0  0  0
  191.9300  174.4410  136.1760 C   0  0  1  0  0  3  0  0  0  0  0  0
  188.5700  177.2060  137.1810 C   0  0  0  0  0  0  0  0  0  0  0  0
  190.9250  176.4490  137.6020 C   0  0  2  0  0  3  0  0  0  0  0  0
  193.3360  176.4260  136.8850 C   0  0  0  0  0  1  0  0  0  0  0  0
  191.3450  173.2160  136.8480 C   0  0  0  0  0  1  0  0  0  0  0  0
  191.2650  176.1720  134.5990 C   0  0  0  0  0  2  0  0  0  0  0  0
  188.5890  178.3000  141.3250 C   0  0  2  0  0  3  0  0  0  0  0  0
  189.5310  176.8090  143.9060 C   0  0  0  0  0  2  0  0  0  0  0  0
  190.4730  176.1230  138.8950 O   0  0  0  0  0  0  0  0  0  0  0  0
  190.1490  177.0020  135.2350 C   0  0  0  0  0  2  0  0  0  0  0  0
  189.4320  177.0930  140.8580 C   0  0  1  0  0  3  0  0  0  0  0  0
  186.6070  178.7330  142.6860 C   0  0  0  0  0  2  0  0  0  0  0  0
  189.7430  176.4550  136.6060 C   0  0  2  0  0  3  0  0  0  0  0  0
  191.1340  174.7690  134.9810 N   0  0  0  0  0  2  0  0  0  0  0  0
  188.1780  176.9190  143.3720 N   0  0  0  0  0  0  0  0  0  0  0  0
  188.5670  177.5340  138.5400 C   0  0  0  0  0  0  0  0  0  0  0  0
  192.1280  175.5690  137.2190 C   0  0  2  0  0  3  0  0  0  0  0  0
  189.7980  177.2660  139.3770 C   0  0  2  0  0  3  0  0  0  0  0  0
  186.3670  178.0470  136.9770 C   0  0  0  0  0  3  0  0  0  0  0  0
  190.4410  176.1000  142.9150 C   0  0  0  0  0  2  0  0  0  0  0  0
  187.4630  177.4540  136.4300 N   0  0  0  0  0  0  0  0  0  0  0  0
  190.6990  176.9650  141.6910 C   0  0  0  0  0  2  0  0  0  0  0  0
  188.0660  178.2590  142.7730 C   0  0  1  0  0  3  0  0  0  0  0  0
  186.3560  178.3870  138.2940 N   0  0  0  0  0  0  0  0  0  0  0  0
  187.4130  178.4520  140.4840 N   0  0  0  0  0  0  0  0  0  0  0  0
  187.3520  176.8500  144.4480 O   0  0  0  0  0  0  0  0  0  0  0  0
  187.9210  177.7120  145.3920 C   0  0  0  0  0  2  0  0  0  0  0  0
  189.5100  177.8510  148.2160 O   0  0  0  0  0  0  0  0  0  0  0  0
  187.2250  178.1770  147.7190 C   0  0  0  0  0  2  0  0  0  0  0  0
  187.7650  177.1310  146.7860 C   0  0  2  0  0  3  0  0  0  0  0  0
  188.3110  178.3360  148.7550 C   0  0  0  0  0  2  0  0  0  0  0  0
  189.1300  176.8130  147.3520 C   0  0  0  0  0  2  0  0  0  0  0  0
  1 27  1  0  0  0  0
  2 14  1  0  0  0  0
  3  7  1  1  0  0  0
  3 19  1  0  0  0  0
  4 18  2  0  0  0  0
  5 11  1  1  0  0  0
  8 16  1  0  0  0  0
  8 12  1  0  0  0  0
  9 27  1  6  0  0  0
  9 25  1  0  0  0  0
 11 20  1  0  0  0  0
 13  9  1  0  0  0  0
 13 24  1  1  0  0  0
 15 12  1  6  0  0  0
 15  4  1  0  0  0  0
 15  5  1  0  0  0  0
 16  3  1  0  0  0  0
 17 10  1  0  0  0  0
 17 28  1  0  0  0  0
 18  1  1  0  0  0  0
 19  6  1  6  0  0  0
 19  5  1  0  0  0  0
 20 18  1  6  0  0  0
 20 13  1  0  0  0  0
 21 26  1  0  0  0  0
 22 10  1  0  0  0  0
 23 21  2  0  0  0  0
 23  4  1  0  0  0  0
 24 22  1  0  0  0  0
 25 14  1  6  0  0  0
 25 17  1  0  0  0  0
 26  1  2  0  0  0  0
 27  2  1  0  0  0  0
 28 29  1  0  0  0  0
 30 33  1  0  0  0  0
 31 33  1  0  0  0  0
 32 29  1  6  0  0  0
 32 34  1  0  0  0  0
 32 31  1  0  0  0  0
 34 30  1  0  0  0  0
M  END
>  <MODEL>
2

>  <REMARK>
 VINA RESULT:      -8.3      4.313      8.290
  Name = 
  3 active torsions:
  status: ('A' for Active; 'I' for Inactive)
    1  A    between atoms: N_17  and  O_28
    2  A    between atoms: O_28  and  C_29
    3  A    between atoms: C_29  and  C_32
                            x       y       z     vdW  Elec       q    Type
                         _______ _______ _______ _____ _____    ______ ____

>  <TORSDO>
F 3

$$$$
=
 OpenBabel11122412053D

 34 40  0  0  1  0  0  0  0  0999 V2000
  182.1070  178.8240  143.6050 C   0  0  0  0  0  0  0  0  0  0  0  0
  183.8100  178.6790  145.4740 C   0  0  0  0  0  2  0  0  0  0  0  0
  180.7470  177.4590  137.3870 C   0  0  1  0  0  3  0  0  0  0  0  0
  180.6390  178.5270  141.7220 C   0  0  0  0  0  0  0  0  0  0  0  0
  181.7130  178.8000  139.4700 C   0  0  2  0  0  3  0  0  0  0  0  0
  181.6530  179.8140  137.1690 C   0  0  0  0  0  1  0  0  0  0  0  0
  181.3290  176.0720  137.5700 C   0  0  0  0  0  1  0  0  0  0  0  0
  178.9310  178.8250  138.2590 C   0  0  0  0  0  2  0  0  0  0  0  0
  184.5550  179.3420  143.2610 C   0  0  2  0  0  3  0  0  0  0  0  0
  187.3930  178.2630  142.5150 C   0  0  0  0  0  2  0  0  0  0  0  0
  182.8630  178.2570  140.0750 O   0  0  0  0  0  0  0  0  0  0  0  0
  179.1920  179.0860  139.7430 C   0  0  0  0  0  2  0  0  0  0  0  0
  184.4120  178.6170  141.9050 C   0  0  1  0  0  3  0  0  0  0  0  0
  185.3180  178.8490  145.5300 C   0  0  0  0  0  2  0  0  0  0  0  0
  180.4450  178.3580  140.2370 C   0  0  2  0  0  3  0  0  0  0  0  0
  179.3640  177.4790  137.8970 N   0  0  0  0  0  2  0  0  0  0  0  0
  186.5180  177.8240  143.5960 N   0  0  0  0  0  0  0  0  0  0  0  0
  181.9230  178.7620  142.2220 C   0  0  0  0  0  0  0  0  0  0  0  0
  181.7210  178.5190  137.9570 C   0  0  2  0  0  3  0  0  0  0  0  0
  183.0690  178.9930  141.2620 C   0  0  2  0  0  3  0  0  0  0  0  0
  179.8080  178.3830  143.9340 C   0  0  0  0  0  3  0  0  0  0  0  0
  186.7270  178.0420  141.1650 C   0  0  0  0  0  2  0  0  0  0  0  0
  179.6100  178.3250  142.5880 N   0  0  0  0  0  0  0  0  0  0  0  0
  185.5540  178.9900  140.9700 C   0  0  0  0  0  2  0  0  0  0  0  0
  185.8150  179.0210  144.0860 C   0  0  1  0  0  3  0  0  0  0  0  0
  181.0490  178.6270  144.4340 N   0  0  0  0  0  0  0  0  0  0  0  0
  183.4280  179.0280  144.1240 N   0  0  0  0  0  0  0  0  0  0  0  0
  187.3440  177.3690  144.5740 O   0  0  0  0  0  0  0  0  0  0  0  0
  188.6340  177.5590  144.0700 C   0  0  0  0  0  2  0  0  0  0  0  0
  189.5060  176.7490  147.0870 O   0  0  0  0  0  0  0  0  0  0  0  0
  190.8160  177.3290  145.2110 C   0  0  0  0  0  2  0  0  0  0  0  0
  189.5390  178.1170  145.1540 C   0  0  2  0  0  3  0  0  0  0  0  0
  190.8200  176.7410  146.6010 C   0  0  0  0  0  2  0  0  0  0  0  0
  188.9070  177.8780  146.5060 C   0  0  0  0  0  2  0  0  0  0  0  0
  1 27  1  0  0  0  0
  1 26  1  0  0  0  0
  2 14  1  0  0  0  0
  3  7  1  1  0  0  0
  3 16  1  0  0  0  0
  3 19  1  0  0  0  0
  4 18  1  0  0  0  0
  4 23  2  0  0  0  0
  5 11  1  1  0  0  0
  5 15  1  0  0  0  0
  8 12  1  0  0  0  0
  9 25  1  0  0  0  0
  9 27  1  1  0  0  0
 10 17  1  0  0  0  0
 13 24  1  6  0  0  0
 13  9  1  0  0  0  0
 15 12  1  6  0  0  0
 15  4  1  0  0  0  0
 16  8  1  0  0  0  0
 17 25  1  0  0  0  0
 17 28  1  0  0  0  0
 18  1  2  0  0  0  0
 19  6  1  6  0  0  0
 19  5  1  0  0  0  0
 20 11  1  6  0  0  0
 20 13  1  0  0  0  0
 20 18  1  0  0  0  0
 21 26  2  0  0  0  0
 22 10  1  0  0  0  0
 23 21  1  0  0  0  0
 24 22  1  0  0  0  0
 25 14  1  1  0  0  0
 27  2  1  0  0  0  0
 29 28  1  0  0  0  0
 31 33  1  0  0  0  0
 32 29  1  6  0  0  0
 32 31  1  0  0  0  0
 32 34  1  0  0  0  0
 33 30  1  0  0  0  0
 34 30  1  0  0  0  0
M  END
>  <MODEL>
3

>  <REMARK>
 VINA RESULT:      -7.9      2.221      8.690
  Name = 
  3 active torsions:
  status: ('A' for Active; 'I' for Inactive)
    1  A    between atoms: N_17  and  O_28
    2  A    between atoms: O_28  and  C_29
    3  A    between atoms: C_29  and  C_32
                            x       y       z     vdW  Elec       q    Type
                         _______ _______ _______ _____ _____    ______ ____

>  <TORSDO>
F 3

$$$$
=
 OpenBabel11122412053D

 34 40  0  0  1  0  0  0  0  0999 V2000
  185.8350  178.5270  142.6210 C   0  0  0  0  0  0  0  0  0  0  0  0
  188.2260  177.9860  141.9880 C   0  0  0  0  0  2  0  0  0  0  0  0
  179.5480  178.0210  141.0100 C   0  0  1  0  0  3  0  0  0  0  0  0
  183.4700  178.6070  143.0620 C   0  0  0  0  0  0  0  0  0  0  0  0
  182.0180  179.0060  141.0550 C   0  0  2  0  0  3  0  0  0  0  0  0
  180.1200  180.2690  139.9930 C   0  0  0  0  0  1  0  0  0  0  0  0
  179.7640  176.5670  140.6470 C   0  0  0  0  0  1  0  0  0  0  0  0
  179.6980  179.4780  142.9550 C   0  0  0  0  0  2  0  0  0  0  0  0
  186.7170  178.8020  140.2710 C   0  0  2  0  0  3  0  0  0  0  0  0
  187.1820  177.5020  137.4670 C   0  0  0  0  0  2  0  0  0  0  0  0
  182.9880  178.2750  140.3440 O   0  0  0  0  0  0  0  0  0  0  0  0
  181.1600  179.5410  143.3990 C   0  0  0  0  0  2  0  0  0  0  0  0
  185.3510  178.2530  139.8040 C   0  0  1  0  0  3  0  0  0  0  0  0
  188.9830  177.9780  140.6720 C   0  0  0  0  0  2  0  0  0  0  0  0
  182.0520  178.6280  142.5540 C   0  0  2  0  0  3  0  0  0  0  0  0
  179.3740  178.1400  142.4690 N   0  0  0  0  0  2  0  0  0  0  0  0
  187.6710  177.0460  138.7640 N   0  0  0  0  0  0  0  0  0  0  0  0
  184.5260  178.6400  142.1460 C   0  0  0  0  0  0  0  0  0  0  0  0
  180.6490  178.8960  140.3610 C   0  0  2  0  0  3  0  0  0  0  0  0
  184.2350  178.8460  140.6760 C   0  0  2  0  0  3  0  0  0  0  0  0
  185.0170  178.3130  144.8300 C   0  0  0  0  0  3  0  0  0  0  0  0
  185.6610  177.5080  137.4410 C   0  0  0  0  0  2  0  0  0  0  0  0
  183.7370  178.4280  144.3840 N   0  0  0  0  0  0  0  0  0  0  0  0
  185.1020  178.5970  138.3430 C   0  0  0  0  0  2  0  0  0  0  0  0
  187.9640  178.2530  139.5540 C   0  0  1  0  0  3  0  0  0  0  0  0
  186.0550  178.3600  143.9520 N   0  0  0  0  0  0  0  0  0  0  0  0
  186.9190  178.5230  141.6840 N   0  0  0  0  0  0  0  0  0  0  0  0
  188.8370  176.3960  138.5080 O   0  0  0  0  0  0  0  0  0  0  0  0
  189.2770  176.9180  137.2870 C   0  0  0  0  0  2  0  0  0  0  0  0
  191.4790  174.6350  137.9680 O   0  0  0  0  0  0  0  0  0  0  0  0
  191.1040  175.8700  135.9920 C   0  0  0  0  0  2  0  0  0  0  0  0
  190.7820  176.7510  137.1640 C   0  0  2  0  0  3  0  0  0  0  0  0
  191.8110  174.6870  136.6080 C   0  0  0  0  0  2  0  0  0  0  0  0
  191.2990  175.9730  138.3520 C   0  0  0  0  0  2  0  0  0  0  0  0
  1 26  1  0  0  0  0
  3  7  1  1  0  0  0
  3 16  1  0  0  0  0
  4 23  2  0  0  0  0
  5 11  1  6  0  0  0
  5 15  1  0  0  0  0
  8 12  1  0  0  0  0
  9 27  1  1  0  0  0
 10 17  1  0  0  0  0
 13 24  1  6  0  0  0
 13  9  1  0  0  0  0
 13 20  1  0  0  0  0
 14  2  1  0  0  0  0
 15  4  1  0  0  0  0
 15 12  1  1  0  0  0
 16  8  1  0  0  0  0
 17 25  1  0  0  0  0
 18  1  2  0  0  0  0
 18  4  1  0  0  0  0
 19  6  1  1  0  0  0
 19  3  1  0  0  0  0
 19  5  1  0  0  0  0
 20 11  1  6  0  0  0
 20 18  1  0  0  0  0
 22 10  1  0  0  0  0
 22 24  1  0  0  0  0
 23 21  1  0  0  0  0
 25  9  1  0  0  0  0
 25 14  1  1  0  0  0
 26 21  2  0  0  0  0
 27  2  1  0  0  0  0
 27  1  1  0  0  0  0
 28 17  1  0  0  0  0
 29 28  1  0  0  0  0
 30 34  1  0  0  0  0
 31 33  1  0  0  0  0
 31 32  1  0  0  0  0
 32 29  1  1  0  0  0
 32 34  1  0  0  0  0
 33 30  1  0  0  0  0
M  END
>  <MODEL>
4

>  <REMARK>
 VINA RESULT:      -7.4      3.253      7.977
  Name = 
  3 active torsions:
  status: ('A' for Active; 'I' for Inactive)
    1  A    between atoms: N_17  and  O_28
    2  A    between atoms: O_28  and  C_29
    3  A    between atoms: C_29  and  C_32
                            x       y       z     vdW  Elec       q    Type
                         _______ _______ _______ _____ _____    ______ ____

>  <TORSDO>
F 3

$$$$
=
 OpenBabel11122412053D

 34 40  0  0  1  0  0  0  0  0999 V2000
  187.2150  178.1270  142.1960 C   0  0  0  0  0  0  0  0  0  0  0  0
  189.6340  177.5020  141.7800 C   0  0  0  0  0  2  0  0  0  0  0  0
  181.1030  177.9500  139.9600 C   0  0  1  0  0  3  0  0  0  0  0  0
  184.8240  178.2970  142.4060 C   0  0  0  0  0  0  0  0  0  0  0  0
  183.5940  178.8230  140.2830 C   0  0  2  0  0  3  0  0  0  0  0  0
  181.8640  180.2020  139.0860 C   0  0  0  0  0  1  0  0  0  0  0  0
  181.2950  176.4990  139.5670 C   0  0  0  0  0  1  0  0  0  0  0  0
  181.1190  179.3350  141.9620 C   0  0  0  0  0  2  0  0  0  0  0  0
  188.3360  178.4390  139.9550 C   0  0  2  0  0  3  0  0  0  0  0  0
  189.0240  177.2100  137.1640 C   0  0  0  0  0  2  0  0  0  0  0  0
  184.6000  178.0730  139.6430 O   0  0  0  0  0  0  0  0  0  0  0  0
  182.5310  179.3190  142.5490 C   0  0  0  0  0  2  0  0  0  0  0  0
  187.0030  177.9650  139.3370 C   0  0  1  0  0  3  0  0  0  0  0  0
  190.5160  177.5040  140.5440 C   0  0  0  0  0  2  0  0  0  0  0  0
  183.4650  178.3950  141.7620 C   0  0  2  0  0  3  0  0  0  0  0  0
  180.7910  178.0290  141.3980 N   0  0  0  0  0  2  0  0  0  0  0  0
  189.3640  176.6920  138.4850 N   0  0  0  0  0  0  0  0  0  0  0  0
  185.9660  178.3120  141.5990 C   0  0  0  0  0  0  0  0  0  0  0  0
  182.2980  178.7950  139.4540 C   0  0  2  0  0  3  0  0  0  0  0  0
  185.8300  178.5780  140.1160 C   0  0  2  0  0  3  0  0  0  0  0  0
  186.1740  177.8780  144.3050 C   0  0  0  0  0  3  0  0  0  0  0  0
  187.5150  177.2840  136.9900 C   0  0  0  0  0  2  0  0  0  0  0  0
  184.9500  178.0630  143.7400 N   0  0  0  0  0  0  0  0  0  0  0  0
  186.9140  178.3670  137.8720 C   0  0  0  0  0  2  0  0  0  0  0  0
  189.6250  177.8580  139.3430 C   0  0  1  0  0  3  0  0  0  0  0  0
  187.2950  177.9070  143.5350 N   0  0  0  0  0  0  0  0  0  0  0  0
  188.3850  178.1060  141.3690 N   0  0  0  0  0  0  0  0  0  0  0  0
  190.5210  176.0000  138.3210 O   0  0  0  0  0  0  0  0  0  0  0  0
  191.1110  176.5540  137.1800 C   0  0  0  0  0  2  0  0  0  0  0  0
  194.2820  175.9600  137.5160 O   0  0  0  0  0  0  0  0  0  0  0  0
  192.4270  174.5020  137.5940 C   0  0  0  0  0  2  0  0  0  0  0  0
  192.1300  175.5880  136.6010 C   0  0  2  0  0  3  0  0  0  0  0  0
  193.9020  174.6610  137.8780 C   0  0  0  0  0  2  0  0  0  0  0  0
  193.4550  176.2970  136.4340 C   0  0  0  0  0  2  0  0  0  0  0  0
  1 26  1  0  0  0  0
  3  7  1  1  0  0  0
  3 16  1  0  0  0  0
  4 23  2  0  0  0  0
  5 11  1  6  0  0  0
  5 15  1  0  0  0  0
  8 12  1  0  0  0  0
  9 27  1  1  0  0  0
 10 17  1  0  0  0  0
 13 24  1  6  0  0  0
 13  9  1  0  0  0  0
 13 20  1  0  0  0  0
 14  2  1  0  0  0  0
 15  4  1  0  0  0  0
 15 12  1  1  0  0  0
 16  8  1  0  0  0  0
 17 25  1  0  0  0  0
 18  1  2  0  0  0  0
 18  4  1  0  0  0  0
 19  6  1  1  0  0  0
 19  3  1  0  0  0  0
 19  5  1  0  0  0  0
 20 11  1  6  0  0  0
 20 18  1  0  0  0  0
 22 10  1  0  0  0  0
 22 24  1  0  0  0  0
 23 21  1  0  0  0  0
 25  9  1  0  0  0  0
 25 14  1  1  0  0  0
 26 21  2  0  0  0  0
 27  2  1  0  0  0  0
 27  1  1  0  0  0  0
 28 17  1  0  0  0  0
 29 28  1  0  0  0  0
 30 33  1  0  0  0  0
 31 33  1  0  0  0  0
 32 29  1  1  0  0  0
 32 31  1  0  0  0  0
 34 32  1  0  0  0  0
 34 30  1  0  0  0  0
M  END
>  <MODEL>
5

>  <REMARK>
 VINA RESULT:      -7.4      3.773      8.343
  Name = 
  3 active torsions:
  status: ('A' for Active; 'I' for Inactive)
    1  A    between atoms: N_17  and  O_28
    2  A    between atoms: O_28  and  C_29
    3  A    between atoms: C_29  and  C_32
                            x       y       z     vdW  Elec       q    Type
                         _______ _______ _______ _____ _____    ______ ____

>  <TORSDO>
F 3

$$$$
=
 OpenBabel11122412053D

 34 40  0  0  1  0  0  0  0  0999 V2000
  186.1790  178.2220  138.7210 C   0  0  0  0  0  0  0  0  0  0  0  0
  183.7060  178.4570  138.2270 C   0  0  0  0  0  2  0  0  0  0  0  0
  190.7080  176.6510  143.1260 C   0  0  1  0  0  3  0  0  0  0  0  0
  188.3980  177.6130  139.4270 C   0  0  0  0  0  0  0  0  0  0  0  0
  188.9510  178.1560  141.8140 C   0  0  2  0  0  3  0  0  0  0  0  0
  190.5540  179.1550  143.4750 C   0  0  0  0  0  1  0  0  0  0  0  0
  189.8930  175.4370  143.5220 C   0  0  0  0  0  1  0  0  0  0  0  0
  191.8540  177.5450  141.1740 C   0  0  0  0  0  2  0  0  0  0  0  0
  184.5650  179.3010  140.3350 C   0  0  2  0  0  3  0  0  0  0  0  0
  182.5970  178.9250  142.7340 C   0  0  0  0  0  2  0  0  0  0  0  0
  187.5930  177.8900  142.0740 O   0  0  0  0  0  0  0  0  0  0  0  0
  190.8110  177.8420  140.0950 C   0  0  0  0  0  2  0  0  0  0  0  0
  185.3550  178.5790  141.4480 C   0  0  1  0  0  3  0  0  0  0  0  0
  182.5250  178.9730  139.0290 C   0  0  0  0  0  2  0  0  0  0  0  0
  189.4050  177.4220  140.5320 C   0  0  2  0  0  3  0  0  0  0  0  0
  191.4880  176.3420  141.9150 N   0  0  0  0  0  2  0  0  0  0  0  0
  182.5560  178.2800  141.4260 N   0  0  0  0  0  0  0  0  0  0  0  0
  187.1380  178.1350  139.7330 C   0  0  0  0  0  0  0  0  0  0  0  0
  189.7970  177.9030  143.0740 C   0  0  2  0  0  3  0  0  0  0  0  0
  186.8560  178.6390  141.1320 C   0  0  2  0  0  3  0  0  0  0  0  0
  187.7020  177.2520  137.1930 C   0  0  0  0  0  3  0  0  0  0  0  0
  183.8830  178.5710  143.4650 C   0  0  0  0  0  2  0  0  0  0  0  0
  188.6490  177.1660  138.1670 N   0  0  0  0  0  0  0  0  0  0  0  0
  185.0870  179.2200  142.8020 C   0  0  0  0  0  2  0  0  0  0  0  0
  183.0290  179.2740  140.4490 C   0  0  1  0  0  3  0  0  0  0  0  0
  186.4770  177.7740  137.4730 N   0  0  0  0  0  0  0  0  0  0  0  0
  184.8750  178.7230  139.0370 N   0  0  0  0  0  0  0  0  0  0  0  0
  181.2450  178.0200  141.1860 O   0  0  0  0  0  0  0  0  0  0  0  0
  180.5640  178.5830  142.2700 C   0  0  0  0  0  2  0  0  0  0  0  0
  179.7750  181.3430  140.7580 O   0  0  0  0  0  0  0  0  0  0  0  0
  179.1640  179.1090  140.3000 C   0  0  0  0  0  2  0  0  0  0  0  0
  179.2950  179.2650  141.7880 C   0  0  2  0  0  3  0  0  0  0  0  0
  179.1890  180.5260  139.7810 C   0  0  0  0  0  2  0  0  0  0  0  0
  179.4220  180.7580  141.9840 C   0  0  0  0  0  2  0  0  0  0  0  0
  1 27  1  0  0  0  0
  1 18  1  0  0  0  0
  2 14  1  0  0  0  0
  2 27  1  0  0  0  0
  3  7  1  6  0  0  0
  4 18  2  0  0  0  0
  4 15  1  0  0  0  0
  5 11  1  1  0  0  0
  5 19  1  0  0  0  0
  8 16  1  0  0  0  0
  9 27  1  6  0  0  0
  9 25  1  0  0  0  0
  9 13  1  0  0  0  0
 10 22  1  0  0  0  0
 12  8  1  0  0  0  0
 13 24  1  1  0  0  0
 15 12  1  6  0  0  0
 15  5  1  0  0  0  0
 16  3  1  0  0  0  0
 17 10  1  0  0  0  0
 19  3  1  0  0  0  0
 19  6  1  6  0  0  0
 20 18  1  6  0  0  0
 20 13  1  0  0  0  0
 20 11  1  0  0  0  0
 21 26  1  0  0  0  0
 21 23  2  0  0  0  0
 23  4  1  0  0  0  0
 24 22  1  0  0  0  0
 25 14  1  6  0  0  0
 25 17  1  0  0  0  0
 26  1  2  0  0  0  0
 28 17  1  0  0  0  0
 28 29  1  0  0  0  0
 30 34  1  0  0  0  0
 31 32  1  0  0  0  0
 32 34  1  0  0  0  0
 32 29  1  6  0  0  0
 33 31  1  0  0  0  0
 33 30  1  0  0  0  0
M  END
>  <MODEL>
6

>  <REMARK>
 VINA RESULT:      -7.3      2.597      4.676
  Name = 
  3 active torsions:
  status: ('A' for Active; 'I' for Inactive)
    1  A    between atoms: N_17  and  O_28
    2  A    between atoms: O_28  and  C_29
    3  A    between atoms: C_29  and  C_32
                            x       y       z     vdW  Elec       q    Type
                         _______ _______ _______ _____ _____    ______ ____

>  <TORSDO>
F 3

$$$$
=
 OpenBabel11122412053D

 34 40  0  0  1  0  0  0  0  0999 V2000
  184.0060  178.6130  144.1100 C   0  0  0  0  0  0  0  0  0  0  0  0
  181.8760  179.3680  142.9650 C   0  0  0  0  0  2  0  0  0  0  0  0
  190.4890  178.1490  143.7490 C   0  0  1  0  0  3  0  0  0  0  0  0
  186.2100  178.2940  145.0200 C   0  0  0  0  0  0  0  0  0  0  0  0
  187.9380  177.4880  143.3880 C   0  0  2  0  0  3  0  0  0  0  0  0
  189.7990  175.8850  142.8450 C   0  0  0  0  0  1  0  0  0  0  0  0
  190.5550  179.5670  143.2200 C   0  0  0  0  0  1  0  0  0  0  0  0
  189.7720  176.9590  145.7480 C   0  0  0  0  0  2  0  0  0  0  0  0
  183.5450  178.1770  141.6660 C   0  0  2  0  0  3  0  0  0  0  0  0
  183.8010  179.1890  138.7200 C   0  0  0  0  0  2  0  0  0  0  0  0
  187.2320  178.2460  142.4350 O   0  0  0  0  0  0  0  0  0  0  0  0
  188.2590  177.1280  145.8940 C   0  0  0  0  0  2  0  0  0  0  0  0
  185.0380  178.4960  141.4340 C   0  0  1  0  0  3  0  0  0  0  0  0
  181.3870  179.3150  141.5290 C   0  0  0  0  0  2  0  0  0  0  0  0
  187.6810  178.0400  144.8090 C   0  0  2  0  0  3  0  0  0  0  0  0
  190.3700  178.1800  145.2170 N   0  0  0  0  0  2  0  0  0  0  0  0
  183.1500  179.8500  139.8460 N   0  0  0  0  0  0  0  0  0  0  0  0
  185.3490  178.2850  143.9190 C   0  0  0  0  0  0  0  0  0  0  0  0
  189.4130  177.3470  142.9740 C   0  0  2  0  0  3  0  0  0  0  0  0
  185.8760  177.8750  142.5610 C   0  0  2  0  0  3  0  0  0  0  0  0
  184.4210  178.9800  146.4090 C   0  0  0  0  0  3  0  0  0  0  0  0
  185.2830  178.9930  138.9990 C   0  0  0  0  0  2  0  0  0  0  0  0
  185.7320  178.6580  146.2400 N   0  0  0  0  0  0  0  0  0  0  0  0
  185.5030  177.9550  140.0890 C   0  0  0  0  0  2  0  0  0  0  0  0
  182.5450  178.7890  140.6670 C   0  0  1  0  0  3  0  0  0  0  0  0
  183.5680  178.9600  145.3490 N   0  0  0  0  0  0  0  0  0  0  0  0
  183.1270  178.6410  142.9790 N   0  0  0  0  0  0  0  0  0  0  0  0
  182.1580  180.6040  139.3050 O   0  0  0  0  0  0  0  0  0  0  0  0
  181.9100  180.0270  138.0550 C   0  0  0  0  0  2  0  0  0  0  0  0
  180.4240  182.8900  137.7090 O   0  0  0  0  0  0  0  0  0  0  0  0
  180.8100  181.1590  136.1510 C   0  0  0  0  0  2  0  0  0  0  0  0
  180.5910  180.5370  137.5000 C   0  0  2  0  0  3  0  0  0  0  0  0
  180.3880  182.5960  136.3390 C   0  0  0  0  0  2  0  0  0  0  0  0
  180.0990  181.6850  138.3510 C   0  0  0  0  0  2  0  0  0  0  0  0
  1 26  1  0  0  0  0
  2 27  1  0  0  0  0
  3  7  1  6  0  0  0
  3 16  1  0  0  0  0
  4 23  2  0  0  0  0
  5 11  1  6  0  0  0
  5 15  1  0  0  0  0
  8 12  1  0  0  0  0
  9 27  1  1  0  0  0
 10 22  1  0  0  0  0
 10 17  1  0  0  0  0
 13 24  1  6  0  0  0
 13  9  1  0  0  0  0
 13 20  1  0  0  0  0
 14  2  1  0  0  0  0
 15  4  1  0  0  0  0
 15 12  1  1  0  0  0
 16  8  1  0  0  0  0
 17 25  1  0  0  0  0
 18  1  2  0  0  0  0
 18  4  1  0  0  0  0
 19  6  1  1  0  0  0
 19  5  1  0  0  0  0
 19  3  1  0  0  0  0
 20 11  1  6  0  0  0
 20 18  1  0  0  0  0
 22 24  1  0  0  0  0
 23 21  1  0  0  0  0
 25 14  1  1  0  0  0
 25  9  1  0  0  0  0
 26 21  2  0  0  0  0
 27  1  1  0  0  0  0
 28 17  1  0  0  0  0
 29 28  1  0  0  0  0
 30 34  1  0  0  0  0
 31 33  1  0  0  0  0
 31 32  1  0  0  0  0
 32 29  1  1  0  0  0
 32 34  1  0  0  0  0
 33 30  1  0  0  0  0
M  END
>  <MODEL>
7

>  <REMARK>
 VINA RESULT:      -7.3      1.422      1.710
  Name = 
  3 active torsions:
  status: ('A' for Active; 'I' for Inactive)
    1  A    between atoms: N_17  and  O_28
    2  A    between atoms: O_28  and  C_29
    3  A    between atoms: C_29  and  C_32
                            x       y       z     vdW  Elec       q    Type
                         _______ _______ _______ _____ _____    ______ ____

>  <TORSDO>
F 3

$$$$
=
 OpenBabel11122412053D

 34 40  0  0  1  0  0  0  0  0999 V2000
  184.4250  178.6590  143.5480 C   0  0  0  0  0  0  0  0  0  0  0  0
  186.6270  178.0780  144.6570 C   0  0  0  0  0  2  0  0  0  0  0  0
  180.7440  178.1600  138.2020 C   0  0  1  0  0  3  0  0  0  0  0  0
  182.3590  178.7740  142.3210 C   0  0  0  0  0  0  0  0  0  0  0  0
  182.5980  179.1240  139.8470 C   0  0  2  0  0  3  0  0  0  0  0  0
  181.9040  180.3710  137.7760 C   0  0  0  0  0  1  0  0  0  0  0  0
  181.1070  176.6930  138.0960 C   0  0  0  0  0  1  0  0  0  0  0  0
  179.6160  179.6730  139.7390 C   0  0  0  0  0  2  0  0  0  0  0  0
  186.6440  178.8550  142.3580 C   0  0  2  0  0  3  0  0  0  0  0  0
  188.8060  177.4670  140.5780 C   0  0  0  0  0  2  0  0  0  0  0  0
  183.7770  178.3630  139.9640 O   0  0  0  0  0  0  0  0  0  0  0  0
  180.4250  179.7370  141.0350 C   0  0  0  0  0  2  0  0  0  0  0  0
  185.9090  178.3040  141.1160 C   0  0  1  0  0  3  0  0  0  0  0  0
  188.0620  178.0240  144.1660 C   0  0  0  0  0  2  0  0  0  0  0  0
  181.6270  178.7910  141.0030 C   0  0  2  0  0  3  0  0  0  0  0  0
  179.6560  178.3240  139.1820 N   0  0  0  0  0  2  0  0  0  0  0  0
  188.3080  177.0470  141.8830 N   0  0  0  0  0  0  0  0  0  0  0  0
  183.7570  178.7690  142.3270 C   0  0  0  0  0  0  0  0  0  0  0  0
  182.0240  179.0040  138.4250 C   0  0  2  0  0  3  0  0  0  0  0  0
  184.5120  178.9330  141.0260 C   0  0  2  0  0  3  0  0  0  0  0  0
  182.3500  178.5200  144.6740 C   0  0  0  0  0  3  0  0  0  0  0  0
  187.6790  177.4860  139.5560 C   0  0  0  0  0  2  0  0  0  0  0  0
  181.6840  178.6320  143.4930 N   0  0  0  0  0  0  0  0  0  0  0  0
  186.6930  178.6060  139.8470 C   0  0  0  0  0  2  0  0  0  0  0  0
  188.0390  178.2740  142.6500 C   0  0  1  0  0  3  0  0  0  0  0  0
  183.7110  178.5310  144.6970 N   0  0  0  0  0  0  0  0  0  0  0  0
  185.8580  178.6180  143.5570 N   0  0  0  0  0  0  0  0  0  0  0  0
  189.3350  176.3790  142.4690 O   0  0  0  0  0  0  0  0  0  0  0  0
  190.4800  176.8240  141.8000 C   0  0  0  0  0  2  0  0  0  0  0  0
  191.2310  178.0580  144.7040 O   0  0  0  0  0  0  0  0  0  0  0  0
  191.4150  175.8560  143.8750 C   0  0  0  0  0  2  0  0  0  0  0  0
  191.6710  176.8080  142.7420 C   0  0  2  0  0  3  0  0  0  0  0  0
  191.4490  176.7330  145.1030 C   0  0  0  0  0  2  0  0  0  0  0  0
  191.7920  178.1530  143.4220 C   0  0  0  0  0  2  0  0  0  0  0  0
  1 27  1  0  0  0  0
  1 26  1  0  0  0  0
  3  7  1  1  0  0  0
  3 19  1  0  0  0  0
  3 16  1  0  0  0  0
  4 18  1  0  0  0  0
  4 23  2  0  0  0  0
  5 11  1  6  0  0  0
  5 15  1  0  0  0  0
  8 12  1  0  0  0  0
  9 25  1  0  0  0  0
  9 27  1  1  0  0  0
 10 17  1  0  0  0  0
 13 24  1  6  0  0  0
 13  9  1  0  0  0  0
 14  2  1  0  0  0  0
 15 12  1  1  0  0  0
 15  4  1  0  0  0  0
 16  8  1  0  0  0  0
 17 28  1  0  0  0  0
 17 25  1  0  0  0  0
 18  1  2  0  0  0  0
 19  6  1  1  0  0  0
 19  5  1  0  0  0  0
 20 11  1  6  0  0  0
 20 13  1  0  0  0  0
 20 18  1  0  0  0  0
 21 26  2  0  0  0  0
 22 24  1  0  0  0  0
 22 10  1  0  0  0  0
 23 21  1  0  0  0  0
 25 14  1  1  0  0  0
 27  2  1  0  0  0  0
 29 28  1  0  0  0  0
 30 33  1  0  0  0  0
 31 33  1  0  0  0  0
 32 29  1  6  0  0  0
 32 34  1  0  0  0  0
 32 31  1  0  0  0  0
 34 30  1  0  0  0  0
M  END
>  <MODEL>
8

>  <REMARK>
 VINA RESULT:      -7.0      1.952      8.320
  Name = 
  3 active torsions:
  status: ('A' for Active; 'I' for Inactive)
    1  A    between atoms: N_17  and  O_28
    2  A    between atoms: O_28  and  C_29
    3  A    between atoms: C_29  and  C_32
                            x       y       z     vdW  Elec       q    Type
                         _______ _______ _______ _____ _____    ______ ____

>  <TORSDO>
F 3

$$$$
=
 OpenBabel11122412053D

 34 40  0  0  1  0  0  0  0  0999 V2000
  186.5600  178.5550  140.3670 C   0  0  0  0  0  0  0  0  0  0  0  0
  186.3120  178.9140  142.8610 C   0  0  0  0  0  2  0  0  0  0  0  0
  189.2140  174.9470  135.6420 C   0  0  1  0  0  3  0  0  0  0  0  0
  186.7680  177.7560  138.1060 C   0  0  0  0  0  0  0  0  0  0  0  0
  189.0260  176.8480  137.4930 C   0  0  2  0  0  3  0  0  0  0  0  0
  190.9470  176.7800  135.8710 C   0  0  0  0  0  1  0  0  0  0  0  0
  188.8410  173.6900  136.4010 C   0  0  0  0  0  1  0  0  0  0  0  0
  188.1290  176.8570  134.5940 C   0  0  0  0  0  2  0  0  0  0  0  0
  188.5130  178.4270  141.9630 C   0  0  2  0  0  3  0  0  0  0  0  0
  190.2680  176.6410  143.8350 C   0  0  0  0  0  2  0  0  0  0  0  0
  189.0940  176.4160  138.8310 O   0  0  0  0  0  0  0  0  0  0  0  0
  187.4280  177.6720  135.6820 C   0  0  0  0  0  2  0  0  0  0  0  0
  188.9980  177.2330  141.1120 C   0  0  1  0  0  3  0  0  0  0  0  0
  187.2730  178.8160  144.0320 C   0  0  0  0  0  2  0  0  0  0  0  0
  187.5510  177.0110  137.0570 C   0  0  2  0  0  3  0  0  0  0  0  0
  188.0410  175.4310  134.8930 N   0  0  0  0  0  2  0  0  0  0  0  0
  188.8280  176.8690  143.8970 N   0  0  0  0  0  0  0  0  0  0  0  0
  187.3290  177.9460  139.3730 C   0  0  0  0  0  0  0  0  0  0  0  0
  189.9020  175.9540  136.5970 C   0  0  2  0  0  3  0  0  0  0  0  0
  188.7640  177.5360  139.6250 C   0  0  2  0  0  3  0  0  0  0  0  0
  184.7420  178.7180  138.8640 C   0  0  0  0  0  3  0  0  0  0  0  0
  190.6500  175.9920  142.5140 C   0  0  0  0  0  2  0  0  0  0  0  0
  185.4800  178.1310  137.8820 N   0  0  0  0  0  0  0  0  0  0  0  0
  190.4760  176.9610  141.3550 C   0  0  0  0  0  2  0  0  0  0  0  0
  188.6020  178.2660  143.4920 C   0  0  1  0  0  3  0  0  0  0  0  0
  185.2810  178.9240  140.0960 N   0  0  0  0  0  0  0  0  0  0  0  0
  187.1180  178.7180  141.6770 N   0  0  0  0  0  0  0  0  0  0  0  0
  188.4910  176.7320  145.2060 O   0  0  0  0  0  0  0  0  0  0  0  0
  189.6450  177.0890  145.9120 C   0  0  0  0  0  2  0  0  0  0  0  0
  189.0540  178.7110  148.6580 O   0  0  0  0  0  0  0  0  0  0  0  0
  188.0200  176.7910  147.7520 C   0  0  0  0  0  2  0  0  0  0  0  0
  189.4760  176.7590  147.3850 C   0  0  2  0  0  3  0  0  0  0  0  0
  187.9310  177.8830  148.7900 C   0  0  0  0  0  2  0  0  0  0  0  0
  190.0830  177.8640  148.2190 C   0  0  0  0  0  2  0  0  0  0  0  0
  1 27  1  0  0  0  0
  2 14  1  0  0  0  0
  3  7  1  1  0  0  0
  3 19  1  0  0  0  0
  4 18  1  0  0  0  0
  5 11  1  1  0  0  0
  8 16  1  0  0  0  0
  8 12  1  0  0  0  0
  9 27  1  1  0  0  0
  9 25  1  0  0  0  0
 10 17  1  0  0  0  0
 13 24  1  6  0  0  0
 13  9  1  0  0  0  0
 15 12  1  6  0  0  0
 15  5  1  0  0  0  0
 15  4  1  0  0  0  0
 16  3  1  0  0  0  0
 17 28  1  0  0  0  0
 18 20  1  0  0  0  0
 18  1  2  0  0  0  0
 19  6  1  6  0  0  0
 19  5  1  0  0  0  0
 20 11  1  6  0  0  0
 20 13  1  0  0  0  0
 21 26  2  0  0  0  0
 22 10  1  0  0  0  0
 23  4  2  0  0  0  0
 23 21  1  0  0  0  0
 24 22  1  0  0  0  0
 25 17  1  0  0  0  0
 25 14  1  1  0  0  0
 26  1  1  0  0  0  0
 27  2  1  0  0  0  0
 28 29  1  0  0  0  0
 30 33  1  0  0  0  0
 31 33  1  0  0  0  0
 32 29  1  6  0  0  0
 32 31  1  0  0  0  0
 32 34  1  0  0  0  0
 34 30  1  0  0  0  0
M  END
>  <MODEL>
9

>  <REMARK>
 VINA RESULT:      -6.7      3.464      8.353
  Name = 
  3 active torsions:
  status: ('A' for Active; 'I' for Inactive)
    1  A    between atoms: N_17  and  O_28
    2  A    between atoms: O_28  and  C_29
    3  A    between atoms: C_29  and  C_32
                            x       y       z     vdW  Elec       q    Type
                         _______ _______ _______ _____ _____    ______ ____

>  <TORSDO>
F 3

$$$$
