=
 OpenBabel11122410363D

 32 38  0  0  1  0  0  0  0  0999 V2000
  187.5970  178.4140  136.9820 C   0  0  2  0  0  3  0  0  0  0  0  0
  187.6570  177.9340  142.4450 C   0  0  1  0  0  3  0  0  0  0  0  0
  183.0470  179.1310  143.8550 C   0  0  0  0  0  3  0  0  0  0  0  0
  183.3650  178.7790  145.1660 C   0  0  0  0  0  3  0  0  0  0  0  0
  189.5290  177.6740  144.2300 C   0  0  2  0  0  3  0  0  0  0  0  0
  189.9380  177.9530  145.6850 C   0  0  2  0  0  3  0  0  0  0  0  0
  188.0740  177.9310  139.9450 C   0  0  1  0  0  3  0  0  0  0  0  0
  185.8380  178.1430  140.9100 O   0  0  0  0  0  0  0  0  0  0  0  0
  189.0600  176.8560  147.4820 C   0  0  0  0  0  0  0  0  0  0  0  0
  185.8500  178.3000  138.5290 C   0  0  0  0  0  2  0  0  0  0  0  0
  184.0330  179.0930  142.8670 C   0  0  0  0  0  3  0  0  0  0  0  0
  186.3760  178.6990  142.0820 C   0  0  1  0  0  3  0  0  0  0  0  0
  185.3430  178.6990  143.1760 C   0  0  0  0  0  0  0  0  0  0  0  0
  187.0730  177.9340  144.8790 C   0  0  2  0  0  3  0  0  0  0  0  0
  190.3630  176.3640  147.2620 N   0  0  0  0  0  0  0  0  0  0  0  0
  188.9100  177.8780  137.5030 C   0  0  0  0  0  2  0  0  0  0  0  0
  186.6410  178.5700  139.8360 C   0  0  2  0  0  3  0  0  0  0  0  0
  190.9480  176.9810  146.1410 N   0  0  0  0  0  0  0  0  0  0  0  0
  189.0950  178.4560  138.9120 C   0  0  0  0  0  2  0  0  0  0  0  0
  186.6350  177.4190  137.5890 C   0  0  1  0  0  3  0  0  0  0  0  0
  184.6720  178.4090  145.4900 C   0  0  0  0  0  3  0  0  0  0  0  0
  185.6810  178.3980  144.5130 C   0  0  0  0  0  0  0  0  0  0  0  0
  187.4540  178.3630  146.2970 C   0  0  0  0  0  2  0  0  0  0  0  0
  188.6570  178.2260  141.3270 C   0  0  0  0  0  2  0  0  0  0  0  0
  190.6720  178.1780  143.3610 C   0  0  0  0  0  1  0  0  0  0  0  0
  188.1190  176.2960  148.4900 C   0  0  0  0  0  1  0  0  0  0  0  0
  188.1640  178.3380  143.8480 C   0  0  2  0  0  3  0  0  0  0  0  0
  188.7820  177.7760  146.5940 C   0  0  0  0  0  0  0  0  0  0  0  0
  186.6150  177.6520  136.0970 C   0  0  2  0  0  3  0  0  0  0  0  0
  187.2820  176.5280  135.3690 C   0  0  0  0  0  0  0  0  0  0  0  0
  186.8150  175.2260  135.5120 O   0  0  0  0  0  1  0  0  0  0  0  0
  188.2450  176.7630  134.5940 O   0  0  0  0  0  0  0  0  0  0  0  0
  1 16  1  6  0  0  0
  1 20  1  0  0  0  0
  2 24  1  6  0  0  0
  2 27  1  0  0  0  0
  3  4  1  0  0  0  0
  4 21  2  0  0  0  0
  5 25  1  6  0  0  0
  5  6  1  0  0  0  0
  6 18  1  1  0  0  0
  6 28  1  0  0  0  0
  7 19  1  6  0  0  0
  7 24  1  0  0  0  0
  9 26  1  0  0  0  0
 11 13  1  0  0  0  0
 11  3  2  0  0  0  0
 12  8  1  6  0  0  0
 12  2  1  0  0  0  0
 12 13  1  0  0  0  0
 13 22  2  0  0  0  0
 14 23  1  1  0  0  0
 15  9  1  0  0  0  0
 16 19  1  0  0  0  0
 17 10  1  6  0  0  0
 17  7  1  0  0  0  0
 17  8  1  0  0  0  0
 18 15  2  0  0  0  0
 20 10  1  1  0  0  0
 22 14  1  0  0  0  0
 22 21  1  0  0  0  0
 23 28  1  0  0  0  0
 27  5  1  0  0  0  0
 27 14  1  0  0  0  0
 28  9  2  0  0  0  0
 29  1  1  0  0  0  0
 29 20  1  0  0  0  0
 30 31  1  0  0  0  0
 30 29  1  0  0  0  0
 32 30  2  0  0  0  0
M  END
>  <MODEL>
1

>  <REMARK>
 VINA RESULT:     -10.5      0.000      0.000
  Name = 
  1 active torsions:
  status: ('A' for Active; 'I' for Inactive)
    1  A    between atoms: C_29  and  C_30
                            x       y       z     vdW  Elec       q    Type
                         _______ _______ _______ _____ _____    ______ ____

>  <TORSDO>
F 1

$$$$
=
 OpenBabel11122410363D

 32 38  0  0  1  0  0  0  0  0999 V2000
  181.3320  179.3480  140.2400 C   0  0  2  0  0  3  0  0  0  0  0  0
  186.2050  178.1020  142.4280 C   0  0  1  0  0  3  0  0  0  0  0  0
  185.5120  178.5010  147.3300 C   0  0  0  0  0  3  0  0  0  0  0  0
  186.7980  178.0080  147.5440 C   0  0  0  0  0  3  0  0  0  0  0  0
  188.6090  177.8240  141.4800 C   0  0  2  0  0  3  0  0  0  0  0  0
  190.1110  177.9400  141.7850 C   0  0  2  0  0  3  0  0  0  0  0  0
  184.1550  178.5080  140.9930 C   0  0  1  0  0  3  0  0  0  0  0  0
  184.0430  178.3000  143.4260 O   0  0  0  0  0  0  0  0  0  0  0  0
  191.2460  176.4970  143.1370 C   0  0  0  0  0  0  0  0  0  0  0  0
  181.9330  178.7970  142.4300 C   0  0  0  0  0  2  0  0  0  0  0  0
  185.0620  178.7280  146.0280 C   0  0  0  0  0  3  0  0  0  0  0  0
  185.3700  178.7460  143.5450 C   0  0  1  0  0  3  0  0  0  0  0  0
  185.8900  178.4600  144.9270 C   0  0  0  0  0  0  0  0  0  0  0  0
  188.1210  177.6810  143.9820 C   0  0  2  0  0  3  0  0  0  0  0  0
  191.5910  176.2080  141.8020 N   0  0  0  0  0  0  0  0  0  0  0  0
  182.3390  178.9110  139.2030 C   0  0  0  0  0  2  0  0  0  0  0  0
  183.4710  178.9740  142.3310 C   0  0  2  0  0  3  0  0  0  0  0  0
  190.8940  177.0460  140.9120 N   0  0  0  0  0  2  0  0  0  0  0  0
  183.7230  179.2990  139.7380 C   0  0  0  0  0  2  0  0  0  0  0  0
  181.3750  178.1640  141.1790 C   0  0  1  0  0  3  0  0  0  0  0  0
  187.6390  177.7600  146.4580 C   0  0  0  0  0  3  0  0  0  0  0  0
  187.2120  178.0150  145.1430 C   0  0  0  0  0  0  0  0  0  0  0  0
  189.5880  177.9460  144.3220 C   0  0  0  0  0  2  0  0  0  0  0  0
  185.6700  178.6730  141.1150 C   0  0  0  0  0  2  0  0  0  0  0  0
  188.3760  178.5850  140.1840 C   0  0  0  0  0  1  0  0  0  0  0  0
  191.6890  175.6860  144.3040 C   0  0  0  0  0  1  0  0  0  0  0  0
  187.7130  178.3600  142.6450 C   0  0  2  0  0  3  0  0  0  0  0  0
  190.3980  177.4920  143.1670 C   0  0  2  0  0  3  0  0  0  0  0  0
  180.0500  178.6050  140.6020 C   0  0  2  0  0  3  0  0  0  0  0  0
  179.6120  177.6870  139.5040 C   0  0  0  0  0  0  0  0  0  0  0  0
  179.9160  176.3330  139.5590 O   0  0  0  0  0  1  0  0  0  0  0  0
  178.9310  178.1350  138.5440 O   0  0  0  0  0  0  0  0  0  0  0  0
  1 16  1  6  0  0  0
  1 29  1  0  0  0  0
  1 20  1  0  0  0  0
  2 24  1  6  0  0  0
  2 27  1  0  0  0  0
  2 12  1  0  0  0  0
  3  4  1  0  0  0  0
  5 25  1  6  0  0  0
  5  6  1  0  0  0  0
  5 27  1  0  0  0  0
  6 18  1  6  0  0  0
  6 28  1  0  0  0  0
  7 19  1  6  0  0  0
  7 24  1  0  0  0  0
  7 17  1  0  0  0  0
  9 28  1  0  0  0  0
  9 26  1  0  0  0  0
 11  3  2  0  0  0  0
 12  8  1  1  0  0  0
 12 13  1  0  0  0  0
 13 22  2  0  0  0  0
 13 11  1  0  0  0  0
 14 23  1  1  0  0  0
 14 22  1  0  0  0  0
 15  9  2  0  0  0  0
 16 19  1  0  0  0  0
 17 10  1  6  0  0  0
 17  8  1  0  0  0  0
 18 15  1  0  0  0  0
 20 10  1  1  0  0  0
 21  4  2  0  0  0  0
 22 21  1  0  0  0  0
 27 14  1  0  0  0  0
 28 23  1  0  0  0  0
 29 20  1  0  0  0  0
 30 31  1  0  0  0  0
 30 29  1  0  0  0  0
 32 30  2  0  0  0  0
M  END
>  <MODEL>
2

>  <REMARK>
 VINA RESULT:     -10.5      3.234      5.036
  Name = 
  1 active torsions:
  status: ('A' for Active; 'I' for Inactive)
    1  A    between atoms: C_29  and  C_30
                            x       y       z     vdW  Elec       q    Type
                         _______ _______ _______ _____ _____    ______ ____

>  <TORSDO>
F 1

$$$$
=
 OpenBabel11122410363D

 32 38  0  0  1  0  0  0  0  0999 V2000
  189.6940  177.2760  136.7650 C   0  0  2  0  0  3  0  0  0  0  0  0
  188.8640  177.3880  142.1850 C   0  0  1  0  0  3  0  0  0  0  0  0
  184.1590  178.8960  142.6970 C   0  0  0  0  0  3  0  0  0  0  0  0
  184.2470  178.6770  144.0720 C   0  0  0  0  0  3  0  0  0  0  0  0
  190.4130  177.2530  144.2690 C   0  0  2  0  0  3  0  0  0  0  0  0
  190.6010  177.6730  145.7350 C   0  0  2  0  0  3  0  0  0  0  0  0
  189.6700  177.0980  139.8000 C   0  0  1  0  0  3  0  0  0  0  0  0
  187.3240  177.4950  140.3610 O   0  0  0  0  0  0  0  0  0  0  0  0
  189.3930  176.8100  147.4660 C   0  0  0  0  0  0  0  0  0  0  0  0
  187.7210  177.3930  138.0110 C   0  0  0  0  0  2  0  0  0  0  0  0
  185.2850  178.7160  141.8920 C   0  0  0  0  0  3  0  0  0  0  0  0
  187.6980  178.1550  141.5430 C   0  0  1  0  0  3  0  0  0  0  0  0
  186.5070  178.3110  142.4490 C   0  0  0  0  0  0  0  0  0  0  0  0
  187.9030  177.6720  144.4800 C   0  0  2  0  0  3  0  0  0  0  0  0
  190.6850  176.2500  147.5130 N   0  0  0  0  0  0  0  0  0  0  0  0
  190.8770  176.7520  137.5450 C   0  0  0  0  0  2  0  0  0  0  0  0
  188.3080  177.7740  139.3950 C   0  0  2  0  0  3  0  0  0  0  0  0
  191.4730  176.7200  146.4450 N   0  0  0  0  0  0  0  0  0  0  0  0
  190.8680  177.4710  138.8990 C   0  0  0  0  0  2  0  0  0  0  0  0
  188.5960  176.3870  137.3050 C   0  0  1  0  0  3  0  0  0  0  0  0
  185.4640  178.2970  144.6400 C   0  0  0  0  0  3  0  0  0  0  0  0
  186.6130  178.1430  143.8460 C   0  0  0  0  0  0  0  0  0  0  0  0
  188.0770  178.2370  145.8890 C   0  0  0  0  0  2  0  0  0  0  0  0
  190.0420  177.5190  141.2220 C   0  0  0  0  0  2  0  0  0  0  0  0
  191.7040  177.6180  143.5510 C   0  0  0  0  0  1  0  0  0  0  0  0
  188.2750  176.3970  148.3590 C   0  0  0  0  0  1  0  0  0  0  0  0
  189.1630  177.9210  143.6040 C   0  0  2  0  0  3  0  0  0  0  0  0
  189.3080  177.6370  146.4570 C   0  0  0  0  0  0  0  0  0  0  0  0
  188.8250  176.4590  135.8140 C   0  0  2  0  0  3  0  0  0  0  0  0
  189.5380  175.2380  135.3220 C   0  0  0  0  0  0  0  0  0  0  0  0
  190.7150  175.3610  134.5940 O   0  0  0  0  0  0  0  0  0  0  0  0
  189.0940  174.0940  135.6010 O   0  0  0  0  0  1  0  0  0  0  0  0
  1 20  1  0  0  0  0
  1 16  1  1  0  0  0
  2 24  1  6  0  0  0
  2 27  1  0  0  0  0
  3  4  1  0  0  0  0
  4 21  2  0  0  0  0
  5 25  1  6  0  0  0
  5  6  1  0  0  0  0
  6 18  1  1  0  0  0
  6 28  1  0  0  0  0
  7 19  1  6  0  0  0
  7 24  1  0  0  0  0
  9 15  1  0  0  0  0
  9 26  1  0  0  0  0
 11 13  1  0  0  0  0
 11  3  2  0  0  0  0
 12  8  1  6  0  0  0
 12  2  1  0  0  0  0
 12 13  1  0  0  0  0
 13 22  2  0  0  0  0
 14 23  1  1  0  0  0
 16 19  1  0  0  0  0
 17 10  1  6  0  0  0
 17  7  1  0  0  0  0
 17  8  1  0  0  0  0
 18 15  2  0  0  0  0
 20 10  1  6  0  0  0
 22 14  1  0  0  0  0
 22 21  1  0  0  0  0
 23 28  1  0  0  0  0
 27  5  1  0  0  0  0
 27 14  1  0  0  0  0
 28  9  2  0  0  0  0
 29  1  1  0  0  0  0
 29 20  1  0  0  0  0
 30 32  1  0  0  0  0
 30 29  1  0  0  0  0
 31 30  2  0  0  0  0
M  END
>  <MODEL>
3

>  <REMARK>
 VINA RESULT:     -10.4      1.371      1.748
  Name = 
  1 active torsions:
  status: ('A' for Active; 'I' for Inactive)
    1  A    between atoms: C_29  and  C_30
                            x       y       z     vdW  Elec       q    Type
                         _______ _______ _______ _____ _____    ______ ____

>  <TORSDO>
F 1

$$$$
=
 OpenBabel11122410363D

 32 38  0  0  1  0  0  0  0  0999 V2000
  191.1750  176.3490  136.8240 C   0  0  2  0  0  3  0  0  0  0  0  0
  189.4120  177.0810  141.9660 C   0  0  1  0  0  3  0  0  0  0  0  0
  184.8010  178.8590  141.4640 C   0  0  0  0  0  3  0  0  0  0  0  0
  184.6300  178.7850  142.8460 C   0  0  0  0  0  3  0  0  0  0  0  0
  190.5570  177.0970  144.3000 C   0  0  2  0  0  3  0  0  0  0  0  0
  190.5110  177.6620  145.7280 C   0  0  2  0  0  3  0  0  0  0  0  0
  190.6050  176.4990  139.8060 C   0  0  1  0  0  3  0  0  0  0  0  0
  188.2280  177.0650  139.8900 O   0  0  0  0  0  0  0  0  0  0  0  0
  188.9620  177.0480  147.2850 C   0  0  0  0  0  0  0  0  0  0  0  0
  189.0250  176.6940  137.6720 C   0  0  0  0  0  2  0  0  0  0  0  0
  186.0370  178.5400  140.8980 C   0  0  0  0  0  3  0  0  0  0  0  0
  188.4310  177.8300  141.0510 C   0  0  1  0  0  3  0  0  0  0  0  0
  187.1120  178.1380  141.7050 C   0  0  0  0  0  0  0  0  0  0  0  0
  188.0820  177.6550  144.0080 C   0  0  2  0  0  3  0  0  0  0  0  0
  190.1860  176.4360  147.6200 N   0  0  0  0  0  0  0  0  0  0  0  0
  192.1650  175.8560  137.8530 C   0  0  0  0  0  2  0  0  0  0  0  0
  189.3830  177.1930  139.0970 C   0  0  2  0  0  3  0  0  0  0  0  0
  191.1790  176.7500  146.6740 N   0  0  0  0  0  0  0  0  0  0  0  0
  191.9650  176.7160  139.1080 C   0  0  0  0  0  2  0  0  0  0  0  0
  189.9430  175.5770  137.2390 C   0  0  1  0  0  3  0  0  0  0  0  0
  185.7000  178.4100  143.6600 C   0  0  0  0  0  3  0  0  0  0  0  0
  186.9590  178.1170  143.1080 C   0  0  0  0  0  0  0  0  0  0  0  0
  188.0430  178.3600  145.3650 C   0  0  0  0  0  2  0  0  0  0  0  0
  190.7470  177.0530  141.2250 C   0  0  0  0  0  2  0  0  0  0  0  0
  191.9760  177.3210  143.7970 C   0  0  0  0  0  1  0  0  0  0  0  0
  187.6800  176.7870  147.9950 C   0  0  0  0  0  1  0  0  0  0  0  0
  189.4910  177.7490  143.3570 C   0  0  2  0  0  3  0  0  0  0  0  0
  189.1110  177.7660  146.2020 C   0  0  0  0  0  0  0  0  0  0  0  0
  190.4360  175.4780  135.8140 C   0  0  2  0  0  3  0  0  0  0  0  0
  191.1410  174.1790  135.5810 C   0  0  0  0  0  0  0  0  0  0  0  0
  192.2330  174.1190  134.7230 O   0  0  0  0  0  0  0  0  0  0  0  0
  190.7720  173.1430  136.1930 O   0  0  0  0  0  1  0  0  0  0  0  0
  1 20  1  0  0  0  0
  1 16  1  1  0  0  0
  2 24  1  6  0  0  0
  2 27  1  0  0  0  0
  3  4  1  0  0  0  0
  4 21  2  0  0  0  0
  5 25  1  6  0  0  0
  5  6  1  0  0  0  0
  6 28  1  1  0  0  0
  6 18  1  0  0  0  0
  7 19  1  6  0  0  0
  7 24  1  0  0  0  0
  9 15  1  0  0  0  0
  9 26  1  0  0  0  0
 11  3  2  0  0  0  0
 11 13  1  0  0  0  0
 12  8  1  6  0  0  0
 12 13  1  0  0  0  0
 12  2  1  0  0  0  0
 13 22  2  0  0  0  0
 14 23  1  1  0  0  0
 16 19  1  0  0  0  0
 17 10  1  6  0  0  0
 17  7  1  0  0  0  0
 17  8  1  0  0  0  0
 18 15  2  0  0  0  0
 20 10  1  6  0  0  0
 22 21  1  0  0  0  0
 22 14  1  0  0  0  0
 23 28  1  0  0  0  0
 27 14  1  0  0  0  0
 27  5  1  0  0  0  0
 28  9  2  0  0  0  0
 29  1  1  0  0  0  0
 29 20  1  0  0  0  0
 30 29  1  0  0  0  0
 30 32  1  0  0  0  0
 31 30  2  0  0  0  0
M  END
>  <MODEL>
4

>  <REMARK>
 VINA RESULT:      -9.7      2.214      2.826
  Name = 
  1 active torsions:
  status: ('A' for Active; 'I' for Inactive)
    1  A    between atoms: C_29  and  C_30
                            x       y       z     vdW  Elec       q    Type
                         _______ _______ _______ _____ _____    ______ ____

>  <TORSDO>
F 1

$$$$
=
 OpenBabel11122410363D

 32 38  0  0  1  0  0  0  0  0999 V2000
  190.6390  177.7280  146.4060 C   0  0  2  0  0  3  0  0  0  0  0  0
  186.1000  178.0550  143.3450 C   0  0  1  0  0  3  0  0  0  0  0  0
  187.7590  178.2530  138.6670 C   0  0  0  0  0  3  0  0  0  0  0  0
  186.4460  178.1810  138.2060 C   0  0  0  0  0  3  0  0  0  0  0  0
  183.5930  178.5230  143.8490 C   0  0  2  0  0  3  0  0  0  0  0  0
  182.2780  179.0980  143.2990 C   0  0  2  0  0  3  0  0  0  0  0  0
  187.8810  177.8010  145.1310 C   0  0  1  0  0  3  0  0  0  0  0  0
  188.3650  177.5850  142.7450 O   0  0  0  0  0  0  0  0  0  0  0  0
  181.0260  178.0830  141.6860 C   0  0  0  0  0  0  0  0  0  0  0  0
  190.3080  177.4020  144.1160 C   0  0  0  0  0  2  0  0  0  0  0  0
  188.0120  178.3220  140.0390 C   0  0  0  0  0  3  0  0  0  0  0  0
  187.2780  178.4180  142.4290 C   0  0  1  0  0  3  0  0  0  0  0  0
  186.9560  178.3150  140.9630 C   0  0  0  0  0  0  0  0  0  0  0  0
  184.4610  178.2530  141.4620 C   0  0  2  0  0  3  0  0  0  0  0  0
  180.3740  177.9040  142.9220 N   0  0  0  0  0  0  0  0  0  0  0  0
  189.3760  177.6140  147.2270 C   0  0  0  0  0  2  0  0  0  0  0  0
  188.9040  178.0430  143.9610 C   0  0  2  0  0  3  0  0  0  0  0  0
  181.1170  178.4820  143.9680 N   0  0  0  0  0  0  0  0  0  0  0  0
  188.2950  178.4130  146.4870 C   0  0  0  0  0  2  0  0  0  0  0  0
  190.4130  176.6200  145.4020 C   0  0  1  0  0  3  0  0  0  0  0  0
  185.3870  178.1970  139.1160 C   0  0  0  0  0  3  0  0  0  0  0  0
  185.6240  178.2990  140.4970 C   0  0  0  0  0  0  0  0  0  0  0  0
  183.2300  178.9590  140.8940 C   0  0  0  0  0  2  0  0  0  0  0  0
  186.5340  178.4240  144.7620 C   0  0  0  0  0  2  0  0  0  0  0  0
  183.8050  179.1670  145.2100 C   0  0  0  0  0  1  0  0  0  0  0  0
  180.5790  177.4540  140.4120 C   0  0  0  0  0  1  0  0  0  0  0  0
  184.8060  178.7650  142.8890 C   0  0  2  0  0  3  0  0  0  0  0  0
  182.1250  178.7690  141.8630 C   0  0  0  0  0  0  0  0  0  0  0  0
  191.6810  176.6280  146.2230 C   0  0  2  0  0  3  0  0  0  0  0  0
  191.6150  175.6140  147.3210 C   0  0  0  0  0  0  0  0  0  0  0  0
  192.5570  175.6250  148.3420 O   0  0  0  0  0  1  0  0  0  0  0  0
  190.6810  174.7700  147.3440 O   0  0  0  0  0  0  0  0  0  0  0  0
  1 16  1  1  0  0  0
  2 24  1  1  0  0  0
  3 11  1  0  0  0  0
  4  3  2  0  0  0  0
  4 21  1  0  0  0  0
  5 25  1  1  0  0  0
  6 28  1  6  0  0  0
  6  5  1  0  0  0  0
  6 18  1  0  0  0  0
  7 24  1  6  0  0  0
  7 19  1  0  0  0  0
  8 17  1  0  0  0  0
  9 28  2  0  0  0  0
  9 15  1  0  0  0  0
 11 13  2  0  0  0  0
 12 13  1  6  0  0  0
 12  8  1  0  0  0  0
 12  2  1  0  0  0  0
 14 23  1  6  0  0  0
 14 27  1  0  0  0  0
 15 18  2  0  0  0  0
 17 10  1  1  0  0  0
 17  7  1  0  0  0  0
 19 16  1  0  0  0  0
 20 10  1  6  0  0  0
 20 29  1  0  0  0  0
 20  1  1  0  0  0  0
 21 22  2  0  0  0  0
 22 13  1  0  0  0  0
 22 14  1  0  0  0  0
 23 28  1  0  0  0  0
 26  9  1  0  0  0  0
 27  2  1  0  0  0  0
 27  5  1  0  0  0  0
 29  1  1  0  0  0  0
 29 30  1  0  0  0  0
 30 32  2  0  0  0  0
 30 31  1  0  0  0  0
M  END
>  <MODEL>
5

>  <REMARK>
 VINA RESULT:      -9.2      3.903      8.035
  Name = 
  1 active torsions:
  status: ('A' for Active; 'I' for Inactive)
    1  A    between atoms: C_29  and  C_30
                            x       y       z     vdW  Elec       q    Type
                         _______ _______ _______ _____ _____    ______ ____

>  <TORSDO>
F 1

$$$$
=
 OpenBabel11122410363D

 32 38  0  0  1  0  0  0  0  0999 V2000
  182.6080  179.0470  139.4880 C   0  0  2  0  0  3  0  0  0  0  0  0
  186.4380  178.3210  143.3460 C   0  0  1  0  0  3  0  0  0  0  0  0
  190.5450  177.1280  140.8200 C   0  0  0  0  0  3  0  0  0  0  0  0
  191.2770  177.1650  142.0070 C   0  0  0  0  0  3  0  0  0  0  0  0
  186.3930  178.0720  145.9340 C   0  0  2  0  0  3  0  0  0  0  0  0
  187.0900  177.4580  147.1580 C   0  0  2  0  0  3  0  0  0  0  0  0
  184.3970  178.8440  141.9370 C   0  0  1  0  0  3  0  0  0  0  0  0
  186.6270  178.5630  140.9760 O   0  0  0  0  0  0  0  0  0  0  0  0
  189.0880  178.1880  147.9780 C   0  0  0  0  0  0  0  0  0  0  0  0
  184.9370  178.9280  139.3330 C   0  0  0  0  0  2  0  0  0  0  0  0
  189.1630  177.3200  140.8500 C   0  0  0  0  0  3  0  0  0  0  0  0
  187.0040  177.7320  142.0450 C   0  0  1  0  0  3  0  0  0  0  0  0
  188.4980  177.5570  142.0620 C   0  0  0  0  0  0  0  0  0  0  0  0
  188.5520  177.8260  144.5930 C   0  0  2  0  0  3  0  0  0  0  0  0
  188.0700  178.6350  148.8440 N   0  0  0  0  0  0  0  0  0  0  0  0
  182.1060  179.3770  140.8740 C   0  0  0  0  0  2  0  0  0  0  0  0
  185.2610  178.3310  140.7270 C   0  0  2  0  0  3  0  0  0  0  0  0
  186.8040  178.2440  148.3720 N   0  0  0  0  0  0  0  0  0  0  0  0
  182.8940  178.4950  141.8510 C   0  0  0  0  0  2  0  0  0  0  0  0
  183.8250  179.9430  139.4190 C   0  0  1  0  0  3  0  0  0  0  0  0
  190.6220  177.3760  143.2220 C   0  0  0  0  0  3  0  0  0  0  0  0
  189.2270  177.5390  143.2700 C   0  0  0  0  0  0  0  0  0  0  0  0
  189.2250  177.0760  145.7430 C   0  0  0  0  0  2  0  0  0  0  0  0
  184.9180  178.2200  143.2320 C   0  0  0  0  0  2  0  0  0  0  0  0
  184.9220  177.7010  146.0480 C   0  0  0  0  0  1  0  0  0  0  0  0
  190.5210  178.5700  148.1120 C   0  0  0  0  0  1  0  0  0  0  0  0
  187.0150  177.5910  144.5800 C   0  0  2  0  0  3  0  0  0  0  0  0
  188.5610  177.5030  146.9970 C   0  0  0  0  0  0  0  0  0  0  0  0
  182.7690  180.0420  138.3430 C   0  0  2  0  0  3  0  0  0  0  0  0
  181.9160  181.2560  138.5380 C   0  0  0  0  0  0  0  0  0  0  0  0
  180.5310  181.1420  138.5660 O   0  0  0  0  0  0  0  0  0  0  0  0
  182.4520  182.3800  138.7190 O   0  0  0  0  0  1  0  0  0  0  0  0
  1 16  1  1  0  0  0
  2 24  1  6  0  0  0
  2 27  1  0  0  0  0
  3 11  2  0  0  0  0
  3  4  1  0  0  0  0
  4 21  2  0  0  0  0
  5 25  1  6  0  0  0
  5  6  1  0  0  0  0
  6 28  1  6  0  0  0
  6 18  1  0  0  0  0
  7 19  1  6  0  0  0
  7 24  1  0  0  0  0
  9 26  1  0  0  0  0
  9 15  1  0  0  0  0
 11 13  1  0  0  0  0
 12  8  1  6  0  0  0
 12 13  1  0  0  0  0
 12  2  1  0  0  0  0
 13 22  2  0  0  0  0
 14 23  1  1  0  0  0
 16 19  1  0  0  0  0
 17 10  1  6  0  0  0
 17  8  1  0  0  0  0
 17  7  1  0  0  0  0
 18 15  2  0  0  0  0
 20 10  1  6  0  0  0
 20  1  1  0  0  0  0
 21 22  1  0  0  0  0
 22 14  1  0  0  0  0
 23 28  1  0  0  0  0
 27 14  1  0  0  0  0
 27  5  1  0  0  0  0
 28  9  2  0  0  0  0
 29 30  1  0  0  0  0
 29 20  1  0  0  0  0
 29  1  1  0  0  0  0
 30 31  2  0  0  0  0
 30 32  1  0  0  0  0
M  END
>  <MODEL>
6

>  <REMARK>
 VINA RESULT:      -8.7      2.698      5.077
  Name = 
  1 active torsions:
  status: ('A' for Active; 'I' for Inactive)
    1  A    between atoms: C_29  and  C_30
                            x       y       z     vdW  Elec       q    Type
                         _______ _______ _______ _____ _____    ______ ____

>  <TORSDO>
F 1

$$$$
=
 OpenBabel11122410363D

 32 38  0  0  1  0  0  0  0  0999 V2000
  190.9190  177.7290  145.4690 C   0  0  2  0  0  3  0  0  0  0  0  0
  186.8130  177.9880  141.8430 C   0  0  1  0  0  3  0  0  0  0  0  0
  189.0550  178.6450  137.4600 C   0  0  0  0  0  3  0  0  0  0  0  0
  187.8230  178.5220  136.8200 C   0  0  0  0  0  3  0  0  0  0  0  0
  184.2330  178.2530  142.0290 C   0  0  2  0  0  3  0  0  0  0  0  0
  182.9630  178.7800  141.3430 C   0  0  2  0  0  3  0  0  0  0  0  0
  188.3560  177.7180  143.8360 C   0  0  1  0  0  3  0  0  0  0  0  0
  189.1660  177.7130  141.5290 O   0  0  0  0  0  0  0  0  0  0  0  0
  182.0140  177.8100  139.5100 C   0  0  0  0  0  0  0  0  0  0  0  0
  190.9190  177.5560  143.1380 C   0  0  0  0  0  2  0  0  0  0  0  0
  189.1180  178.6280  138.8550 C   0  0  0  0  0  3  0  0  0  0  0  0
  188.0710  178.4950  141.1230 C   0  0  1  0  0  3  0  0  0  0  0  0
  187.9540  178.4820  139.6230 C   0  0  0  0  0  0  0  0  0  0  0  0
  185.4260  178.2200  139.7710 C   0  0  2  0  0  3  0  0  0  0  0  0
  181.2200  177.4970  140.6320 N   0  0  0  0  0  0  0  0  0  0  0  0
  189.5710  177.4720  146.0990 C   0  0  0  0  0  2  0  0  0  0  0  0
  189.5040  178.1130  142.8350 C   0  0  2  0  0  3  0  0  0  0  0  0
  181.7730  178.0420  141.8050 N   0  0  0  0  0  0  0  0  0  0  0  0
  188.5400  178.2520  145.2730 C   0  0  0  0  0  2  0  0  0  0  0  0
  190.9110  176.6870  144.3720 C   0  0  1  0  0  3  0  0  0  0  0  0
  186.6550  178.4010  137.5750 C   0  0  0  0  0  3  0  0  0  0  0  0
  186.7000  178.4140  138.9790 C   0  0  0  0  0  0  0  0  0  0  0  0
  184.2310  178.8850  139.0870 C   0  0  0  0  0  2  0  0  0  0  0  0
  187.0270  178.2780  143.3270 C   0  0  0  0  0  2  0  0  0  0  0  0
  184.2150  178.8060  143.4460 C   0  0  0  0  0  1  0  0  0  0  0  0
  181.7870  177.2510  138.1490 C   0  0  0  0  0  1  0  0  0  0  0  0
  185.5400  178.6450  141.2620 C   0  0  2  0  0  3  0  0  0  0  0  0
  183.0260  178.5510  139.8810 C   0  0  0  0  0  0  0  0  0  0  0  0
  192.0550  176.7170  145.3580 C   0  0  2  0  0  3  0  0  0  0  0  0
  191.9210  175.6200  146.3680 C   0  0  0  0  0  0  0  0  0  0  0  0
  191.6860  175.9230  147.7030 O   0  0  0  0  0  1  0  0  0  0  0  0
  191.9820  174.4170  146.0030 O   0  0  0  0  0  0  0  0  0  0  0  0
  1 16  1  1  0  0  0
  2 24  1  1  0  0  0
  3 11  1  0  0  0  0
  4  3  2  0  0  0  0
  4 21  1  0  0  0  0
  5 25  1  1  0  0  0
  6 28  1  6  0  0  0
  6 18  1  0  0  0  0
  6  5  1  0  0  0  0
  7 24  1  6  0  0  0
  7 19  1  0  0  0  0
  8 17  1  0  0  0  0
  9 28  2  0  0  0  0
  9 15  1  0  0  0  0
 11 13  2  0  0  0  0
 12 13  1  6  0  0  0
 12  8  1  0  0  0  0
 12  2  1  0  0  0  0
 14 23  1  6  0  0  0
 14 27  1  0  0  0  0
 15 18  2  0  0  0  0
 17 10  1  1  0  0  0
 17  7  1  0  0  0  0
 19 16  1  0  0  0  0
 20 10  1  6  0  0  0
 20 29  1  0  0  0  0
 20  1  1  0  0  0  0
 21 22  2  0  0  0  0
 22 13  1  0  0  0  0
 22 14  1  0  0  0  0
 23 28  1  0  0  0  0
 26  9  1  0  0  0  0
 27  2  1  0  0  0  0
 27  5  1  0  0  0  0
 29  1  1  0  0  0  0
 29 30  1  0  0  0  0
 30 31  1  0  0  0  0
 32 30  2  0  0  0  0
M  END
>  <MODEL>
7

>  <REMARK>
 VINA RESULT:      -8.6      3.911      8.098
  Name = 
  1 active torsions:
  status: ('A' for Active; 'I' for Inactive)
    1  A    between atoms: C_29  and  C_30
                            x       y       z     vdW  Elec       q    Type
                         _______ _______ _______ _____ _____    ______ ____

>  <TORSDO>
F 1

$$$$
=
 OpenBabel11122410363D

 32 38  0  0  1  0  0  0  0  0999 V2000
  180.7860  179.3780  139.7050 C   0  0  2  0  0  3  0  0  0  0  0  0
  185.9530  178.6020  141.3700 C   0  0  1  0  0  3  0  0  0  0  0  0
  188.5660  178.1540  137.1690 C   0  0  0  0  0  3  0  0  0  0  0  0
  189.7440  178.1270  137.9140 C   0  0  0  0  0  3  0  0  0  0  0  0
  187.0670  178.0440  143.6520 C   0  0  2  0  0  3  0  0  0  0  0  0
  188.2590  177.3660  144.3460 C   0  0  2  0  0  3  0  0  0  0  0  0
  183.4800  179.0730  141.0790 C   0  0  1  0  0  3  0  0  0  0  0  0
  185.0640  179.1430  139.2190 O   0  0  0  0  0  0  0  0  0  0  0  0
  190.3820  178.1980  144.3240 C   0  0  0  0  0  0  0  0  0  0  0  0
  182.8080  179.5220  138.5430 C   0  0  0  0  0  2  0  0  0  0  0  0
  187.3320  178.1960  137.8220 C   0  0  0  0  0  3  0  0  0  0  0  0
  185.9090  178.2350  139.8790 C   0  0  1  0  0  3  0  0  0  0  0  0
  187.2620  178.2160  139.2230 C   0  0  0  0  0  0  0  0  0  0  0  0
  188.4190  178.1870  141.4900 C   0  0  2  0  0  3  0  0  0  0  0  0
  189.8340  178.4300  145.6010 N   0  0  0  0  0  0  0  0  0  0  0  0
  180.9350  179.4860  141.2040 C   0  0  0  0  0  2  0  0  0  0  0  0
  183.7410  178.8010  139.5520 C   0  0  2  0  0  3  0  0  0  0  0  0
  188.5070  177.9680  145.6690 N   0  0  0  0  0  0  0  0  0  0  0  0
  182.1100  178.5820  141.5980 C   0  0  0  0  0  2  0  0  0  0  0  0
  181.8080  180.3990  139.2550 C   0  0  1  0  0  3  0  0  0  0  0  0
  189.6860  178.1220  139.3090 C   0  0  0  0  0  3  0  0  0  0  0  0
  188.4510  178.1310  139.9790 C   0  0  0  0  0  0  0  0  0  0  0  0
  189.5620  177.3800  142.1070 C   0  0  0  0  0  2  0  0  0  0  0  0
  184.5460  178.3580  141.9100 C   0  0  0  0  0  2  0  0  0  0  0  0
  185.8160  177.5110  144.3320 C   0  0  0  0  0  1  0  0  0  0  0  0
  191.7080  178.7090  143.8820 C   0  0  0  0  0  1  0  0  0  0  0  0
  187.0470  177.7960  142.1070 C   0  0  2  0  0  3  0  0  0  0  0  0
  189.5040  177.5830  143.5740 C   0  0  0  0  0  0  0  0  0  0  0  0
  180.3820  180.5140  138.7690 C   0  0  2  0  0  3  0  0  0  0  0  0
  179.6530  181.6000  139.4970 C   0  0  0  0  0  0  0  0  0  0  0  0
  178.9440  181.3120  140.6560 O   0  0  0  0  0  1  0  0  0  0  0  0
  179.7150  182.7870  139.0820 O   0  0  0  0  0  0  0  0  0  0  0  0
  1 16  1  1  0  0  0
  2 24  1  1  0  0  0
  2 27  1  0  0  0  0
  3 11  2  0  0  0  0
  3  4  1  0  0  0  0
  4 21  2  0  0  0  0
  5 25  1  1  0  0  0
  5  6  1  0  0  0  0
  6 28  1  6  0  0  0
  6 18  1  0  0  0  0
  7 19  1  1  0  0  0
  7 24  1  0  0  0  0
  8 17  1  0  0  0  0
  9 15  1  0  0  0  0
 11 13  1  0  0  0  0
 12  8  1  6  0  0  0
 12  2  1  0  0  0  0
 13 12  1  0  0  0  0
 13 22  2  0  0  0  0
 14 23  1  1  0  0  0
 14 27  1  0  0  0  0
 15 18  2  0  0  0  0
 16 19  1  0  0  0  0
 17 10  1  6  0  0  0
 17  7  1  0  0  0  0
 20 10  1  6  0  0  0
 20  1  1  0  0  0  0
 21 22  1  0  0  0  0
 22 14  1  0  0  0  0
 23 28  1  0  0  0  0
 26  9  1  0  0  0  0
 27  5  1  0  0  0  0
 28  9  2  0  0  0  0
 29 20  1  0  0  0  0
 29 30  1  0  0  0  0
 29  1  1  0  0  0  0
 30 31  1  0  0  0  0
 32 30  2  0  0  0  0
M  END
>  <MODEL>
8

>  <REMARK>
 VINA RESULT:      -8.3      3.049      6.080
  Name = 
  1 active torsions:
  status: ('A' for Active; 'I' for Inactive)
    1  A    between atoms: C_29  and  C_30
                            x       y       z     vdW  Elec       q    Type
                         _______ _______ _______ _____ _____    ______ ____

>  <TORSDO>
F 1

$$$$
=
 OpenBabel11122410363D

 32 38  0  0  1  0  0  0  0  0999 V2000
  189.0400  178.2240  146.1360 C   0  0  2  0  0  3  0  0  0  0  0  0
  184.7710  178.0540  142.6980 C   0  0  1  0  0  3  0  0  0  0  0  0
  186.8050  178.2280  138.1700 C   0  0  0  0  0  3  0  0  0  0  0  0
  185.5460  178.0270  137.6050 C   0  0  0  0  0  3  0  0  0  0  0  0
  182.1990  178.3230  142.9720 C   0  0  2  0  0  3  0  0  0  0  0  0
  180.8940  178.7640  142.2910 C   0  0  2  0  0  3  0  0  0  0  0  0
  186.4050  178.0170  144.6350 C   0  0  1  0  0  3  0  0  0  0  0  0
  187.1100  177.7580  142.3090 O   0  0  0  0  0  0  0  0  0  0  0  0
  179.8730  177.5890  140.6250 C   0  0  0  0  0  0  0  0  0  0  0  0
  188.9360  177.7910  143.8430 C   0  0  0  0  0  2  0  0  0  0  0  0
  186.9320  178.3670  139.5540 C   0  0  0  0  0  3  0  0  0  0  0  0
  185.9900  178.4830  141.8680 C   0  0  1  0  0  3  0  0  0  0  0  0
  185.8050  178.3020  140.3870 C   0  0  0  0  0  0  0  0  0  0  0  0
  183.2900  178.0450  140.6800 C   0  0  2  0  0  3  0  0  0  0  0  0
  179.1340  177.3990  141.8090 N   0  0  0  0  0  0  0  0  0  0  0  0
  187.7250  178.0320  146.8540 C   0  0  0  0  0  2  0  0  0  0  0  0
  187.5030  178.3030  143.5450 C   0  0  2  0  0  3  0  0  0  0  0  0
  179.7340  178.0750  142.8880 N   0  0  0  0  0  0  0  0  0  0  0  0
  186.6490  178.7090  145.9940 C   0  0  0  0  0  2  0  0  0  0  0  0
  188.9930  177.0660  145.1650 C   0  0  1  0  0  3  0  0  0  0  0  0
  184.4150  177.9850  138.4220 C   0  0  0  0  0  3  0  0  0  0  0  0
  184.5240  178.1560  139.8130 C   0  0  0  0  0  0  0  0  0  0  0  0
  182.0580  178.6230  139.9820 C   0  0  0  0  0  2  0  0  0  0  0  0
  185.0490  178.5090  144.1290 C   0  0  0  0  0  2  0  0  0  0  0  0
  182.2400  179.0310  144.3180 C   0  0  0  0  0  1  0  0  0  0  0  0
  179.5910  176.8800  139.3460 C   0  0  0  0  0  1  0  0  0  0  0  0
  183.4660  178.6350  142.1070 C   0  0  2  0  0  3  0  0  0  0  0  0
  180.8930  178.3720  140.8630 C   0  0  0  0  0  0  0  0  0  0  0  0
  190.1810  177.2120  146.0870 C   0  0  2  0  0  3  0  0  0  0  0  0
  190.1040  176.2350  147.2180 C   0  0  0  0  0  0  0  0  0  0  0  0
  191.1920  175.4250  147.5180 O   0  0  0  0  0  0  0  0  0  0  0  0
  189.0660  176.1720  147.9270 O   0  0  0  0  0  1  0  0  0  0  0  0
  1 16  1  1  0  0  0
  2 24  1  1  0  0  0
  3 11  1  0  0  0  0
  4  3  2  0  0  0  0
  4 21  1  0  0  0  0
  5 25  1  1  0  0  0
  6 28  1  6  0  0  0
  6 18  1  0  0  0  0
  6  5  1  0  0  0  0
  7 24  1  6  0  0  0
  7 19  1  0  0  0  0
  8 17  1  0  0  0  0
  9 28  2  0  0  0  0
  9 15  1  0  0  0  0
 11 13  2  0  0  0  0
 12 13  1  6  0  0  0
 12  8  1  0  0  0  0
 12  2  1  0  0  0  0
 14 23  1  6  0  0  0
 14 27  1  0  0  0  0
 15 18  2  0  0  0  0
 17 10  1  1  0  0  0
 17  7  1  0  0  0  0
 19 16  1  0  0  0  0
 20 10  1  6  0  0  0
 20 29  1  0  0  0  0
 20  1  1  0  0  0  0
 21 22  2  0  0  0  0
 22 13  1  0  0  0  0
 22 14  1  0  0  0  0
 23 28  1  0  0  0  0
 26  9  1  0  0  0  0
 27  2  1  0  0  0  0
 27  5  1  0  0  0  0
 29  1  1  0  0  0  0
 29 30  1  0  0  0  0
 30 31  2  0  0  0  0
 30 32  1  0  0  0  0
M  END
>  <MODEL>
9

>  <REMARK>
 VINA RESULT:      -8.2      4.188      8.379
  Name = 
  1 active torsions:
  status: ('A' for Active; 'I' for Inactive)
    1  A    between atoms: C_29  and  C_30
                            x       y       z     vdW  Elec       q    Type
                         _______ _______ _______ _____ _____    ______ ____

>  <TORSDO>
F 1

$$$$
