=
 OpenBabel11122411133D

 31 35  0  0  1  0  0  0  0  0999 V2000
  181.4530  178.7150  143.5700 C   0  0  0  0  0  0  0  0  0  0  0  0
  181.7930  178.0020  139.8530 C   0  0  2  0  0  3  0  0  0  0  0  0
  181.4010  179.1660  138.9630 C   0  0  0  0  0  0  0  0  0  0  0  0
  180.3130  181.3160  138.6420 C   0  0  0  0  0  0  0  0  0  0  0  0
  182.1170  178.4080  141.2620 C   0  0  0  0  0  0  0  0  0  0  0  0
  182.7390  179.1700  143.8810 C   0  0  0  0  0  3  0  0  0  0  0  0
  180.7060  180.2690  139.4810 C   0  0  0  0  0  3  0  0  0  0  0  0
  184.3830  177.8170  139.4850 C   0  0  1  0  0  3  0  0  0  0  0  0
  180.5080  178.6450  144.5390 F   0  0  0  0  0  0  0  0  0  0  0  0
  182.3410  177.9770  137.0160 N   0  0  0  0  0  2  0  0  0  0  0  0
  179.6220  182.4360  139.1800 N   0  0  0  0  0  1  0  0  0  0  0  0
  184.4290  178.9830  140.4920 C   0  0  0  0  0  2  0  0  0  0  0  0
  182.9680  177.1970  139.2610 C   0  0  2  0  0  3  0  0  0  0  0  0
  181.1400  178.3360  142.2610 C   0  0  0  0  0  3  0  0  0  0  0  0
  180.5980  181.2610  137.2760 C   0  0  0  0  0  3  0  0  0  0  0  0
  183.4090  178.8520  141.5770 C   0  0  0  0  0  0  0  0  0  0  0  0
  183.7160  179.2430  142.8830 C   0  0  0  0  0  3  0  0  0  0  0  0
  182.6590  176.7960  137.8140 C   0  0  0  0  0  2  0  0  0  0  0  0
  181.6550  179.1020  137.5760 C   0  0  0  0  0  0  0  0  0  0  0  0
  181.2660  180.1560  136.7440 C   0  0  0  0  0  3  0  0  0  0  0  0
  187.1530  177.5060  138.7810 O   0  0  0  0  0  0  0  0  0  0  0  0
  186.3940  178.0750  137.9520 C   0  0  0  0  0  0  0  0  0  0  0  0
  185.0030  178.2380  138.2340 N   0  0  0  0  0  2  0  0  0  0  0  0
  188.8940  176.8710  135.1660 C   0  0  1  0  0  3  0  0  0  0  0  0
  186.5720  177.6880  135.4940 C   0  0  0  0  0  2  0  0  0  0  0  0
  188.9240  179.7200  137.4510 O   0  0  0  0  0  0  0  0  0  0  0  0
  189.8000  175.6590  135.1610 C   0  0  0  0  0  1  0  0  0  0  0  0
  187.4550  176.4450  135.4210 C   0  0  0  0  0  2  0  0  0  0  0  0
  188.4550  178.7680  136.7750 C   0  0  0  0  0  0  0  0  0  0  0  0
  186.9640  178.5920  136.6690 C   0  0  2  0  0  3  0  0  0  0  0  0
  189.3440  177.8180  136.1800 N   0  0  0  0  0  2  0  0  0  0  0  0
  1  6  1  0  0  0  0
  1  9  1  0  0  0  0
  2  3  1  6  0  0  0
  2  5  1  0  0  0  0
  3  7  1  0  0  0  0
  4 11  1  0  0  0  0
  4  7  2  0  0  0  0
  5 16  2  0  0  0  0
  5 14  1  0  0  0  0
  8 23  1  6  0  0  0
  8 12  1  0  0  0  0
 10 19  1  0  0  0  0
 10 18  1  0  0  0  0
 12 16  1  0  0  0  0
 13 18  1  6  0  0  0
 13  8  1  0  0  0  0
 13  2  1  0  0  0  0
 14  1  2  0  0  0  0
 15  4  1  0  0  0  0
 16 17  1  0  0  0  0
 17  6  2  0  0  0  0
 19  3  2  0  0  0  0
 20 15  2  0  0  0  0
 20 19  1  0  0  0  0
 22 23  1  0  0  0  0
 22 21  2  0  0  0  0
 24 27  1  1  0  0  0
 24 28  1  0  0  0  0
 24 31  1  0  0  0  0
 25 30  1  0  0  0  0
 28 25  1  0  0  0  0
 29 26  2  0  0  0  0
 30 29  1  0  0  0  0
 30 22  1  1  0  0  0
 31 29  1  0  0  0  0
M  END
>  <MODEL>
1

>  <REMARK>
 VINA RESULT:      -6.8      0.000      0.000
  Name = 
  2 active torsions:
  status: ('A' for Active; 'I' for Inactive)
    1  A    between atoms: C_5  and  C_30
    2  A    between atoms: C_10  and  N_16
                            x       y       z     vdW  Elec       q    Type
                         _______ _______ _______ _____ _____    ______ ____

>  <TORSDO>
F 2

$$$$
=
 OpenBabel11122411133D

 31 35  0  0  1  0  0  0  0  0999 V2000
  191.8320  176.5860  138.3620 C   0  0  0  0  0  0  0  0  0  0  0  0
  188.4400  177.0510  136.7120 C   0  0  2  0  0  3  0  0  0  0  0  0
  187.5960  175.7910  136.6690 C   0  0  0  0  0  0  0  0  0  0  0  0
  187.3810  173.3770  136.8620 C   0  0  0  0  0  0  0  0  0  0  0  0
  189.5280  177.0080  137.7460 C   0  0  0  0  0  0  0  0  0  0  0  0
  191.5420  176.9340  139.6850 C   0  0  0  0  0  3  0  0  0  0  0  0
  188.1590  174.5350  136.9470 C   0  0  0  0  0  3  0  0  0  0  0  0
  187.1320  178.5850  138.3890 C   0  0  1  0  0  3  0  0  0  0  0  0
  193.0880  176.2130  138.0200 F   0  0  0  0  0  0  0  0  0  0  0  0
  185.6560  177.1290  135.9410 N   0  0  0  0  0  2  0  0  0  0  0  0
  187.9580  172.1120  137.1600 N   0  0  0  0  0  1  0  0  0  0  0  0
  187.8410  177.7230  139.4520 C   0  0  0  0  0  2  0  0  0  0  0  0
  187.5760  178.3130  136.9170 C   0  0  2  0  0  3  0  0  0  0  0  0
  190.8250  176.6210  137.3920 C   0  0  0  0  0  3  0  0  0  0  0  0
  186.0400  173.4620  136.4840 C   0  0  0  0  0  3  0  0  0  0  0  0
  189.2420  177.3690  139.0700 C   0  0  0  0  0  0  0  0  0  0  0  0
  190.2460  177.3200  140.0410 C   0  0  0  0  0  3  0  0  0  0  0  0
  186.4480  178.3560  135.8820 C   0  0  0  0  0  2  0  0  0  0  0  0
  186.2500  175.8650  136.2540 C   0  0  0  0  0  0  0  0  0  0  0  0
  185.4750  174.7030  136.1790 C   0  0  0  0  0  3  0  0  0  0  0  0
  185.6170  179.4690  140.6670 O   0  0  0  0  0  0  0  0  0  0  0  0
  184.9940  178.9050  139.7280 C   0  0  0  0  0  0  0  0  0  0  0  0
  185.6890  178.4650  138.5590 N   0  0  0  0  0  2  0  0  0  0  0  0
  182.1400  177.0470  137.7640 C   0  0  1  0  0  3  0  0  0  0  0  0
  183.1990  177.1960  140.0050 C   0  0  0  0  0  2  0  0  0  0  0  0
  182.6700  180.5570  138.6230 O   0  0  0  0  0  0  0  0  0  0  0  0
  182.1940  176.3930  136.4000 C   0  0  0  0  0  1  0  0  0  0  0  0
  183.2260  176.4710  138.6620 C   0  0  0  0  0  2  0  0  0  0  0  0
  182.7870  179.3060  138.6910 C   0  0  0  0  0  0  0  0  0  0  0  0
  183.5200  178.6880  139.8500 C   0  0  2  0  0  3  0  0  0  0  0  0
  182.2910  178.4910  137.6240 N   0  0  0  0  0  2  0  0  0  0  0  0
  1  6  1  0  0  0  0
  2  3  1  1  0  0  0
  2 13  1  0  0  0  0
  2  5  1  0  0  0  0
  3  7  1  0  0  0  0
  4  7  2  0  0  0  0
  4 11  1  0  0  0  0
  5 16  2  0  0  0  0
  6 17  2  0  0  0  0
  8 23  1  6  0  0  0
  8 12  1  0  0  0  0
  9  1  1  0  0  0  0
 10 19  1  0  0  0  0
 13 18  1  6  0  0  0
 13  8  1  0  0  0  0
 14  5  1  0  0  0  0
 14  1  2  0  0  0  0
 15  4  1  0  0  0  0
 16 12  1  0  0  0  0
 16 17  1  0  0  0  0
 18 10  1  0  0  0  0
 19  3  2  0  0  0  0
 20 19  1  0  0  0  0
 20 15  2  0  0  0  0
 22 21  2  0  0  0  0
 23 22  1  0  0  0  0
 24 27  1  6  0  0  0
 24 28  1  0  0  0  0
 26 29  2  0  0  0  0
 28 25  1  0  0  0  0
 29 30  1  0  0  0  0
 30 22  1  6  0  0  0
 30 25  1  0  0  0  0
 31 24  1  0  0  0  0
 31 29  1  0  0  0  0
M  END
>  <MODEL>
2

>  <REMARK>
 VINA RESULT:      -6.5      3.689      7.686
  Name = 
  2 active torsions:
  status: ('A' for Active; 'I' for Inactive)
    1  A    between atoms: C_5  and  C_30
    2  A    between atoms: C_10  and  N_16
                            x       y       z     vdW  Elec       q    Type
                         _______ _______ _______ _____ _____    ______ ____

>  <TORSDO>
F 2

$$$$
=
 OpenBabel11122411133D

 31 35  0  0  1  0  0  0  0  0999 V2000
  187.9320  177.6410  148.6640 C   0  0  0  0  0  0  0  0  0  0  0  0
  187.8990  176.7530  144.9680 C   0  0  2  0  0  3  0  0  0  0  0  0
  186.9940  177.6350  144.1300 C   0  0  0  0  0  0  0  0  0  0  0  0
  185.1950  179.2600  143.9480 C   0  0  0  0  0  0  0  0  0  0  0  0
  188.2840  177.3680  146.2840 C   0  0  0  0  0  0  0  0  0  0  0  0
  189.0140  178.5240  148.7230 C   0  0  0  0  0  3  0  0  0  0  0  0
  186.0530  178.4840  144.7320 C   0  0  0  0  0  3  0  0  0  0  0  0
  190.3000  177.4120  144.1450 C   0  0  1  0  0  3  0  0  0  0  0  0
  187.2360  177.3450  149.7880 F   0  0  0  0  0  0  0  0  0  0  0  0
  187.9620  176.6600  142.0820 N   0  0  0  0  0  2  0  0  0  0  0  0
  184.2560  180.1280  144.5690 N   0  0  0  0  0  1  0  0  0  0  0  0
  190.1020  178.6100  145.0930 C   0  0  0  0  0  2  0  0  0  0  0  0
  189.1690  176.3370  144.1980 C   0  0  2  0  0  3  0  0  0  0  0  0
  187.5640  177.0640  147.4440 C   0  0  0  0  0  3  0  0  0  0  0  0
  185.2600  179.1820  142.5550 C   0  0  0  0  0  3  0  0  0  0  0  0
  189.3770  178.2440  146.3470 C   0  0  0  0  0  0  0  0  0  0  0  0
  189.7340  178.8300  147.5650 C   0  0  0  0  0  3  0  0  0  0  0  0
  188.7910  175.7280  142.8440 C   0  0  0  0  0  2  0  0  0  0  0  0
  187.0300  177.5360  142.7230 C   0  0  0  0  0  0  0  0  0  0  0  0
  186.1740  178.3210  141.9440 C   0  0  0  0  0  3  0  0  0  0  0  0
  192.1460  176.3100  142.2370 O   0  0  0  0  0  0  0  0  0  0  0  0
  191.4800  177.3230  141.8950 C   0  0  0  0  0  0  0  0  0  0  0  0
  190.5290  177.9020  142.7910 N   0  0  0  0  0  2  0  0  0  0  0  0
  191.3360  176.1960  138.1310 C   0  0  1  0  0  3  0  0  0  0  0  0
  190.4140  177.8780  139.7090 C   0  0  0  0  0  2  0  0  0  0  0  0
  194.0320  177.5030  140.2190 O   0  0  0  0  0  0  0  0  0  0  0  0
  191.1770  174.8030  137.5600 C   0  0  0  0  0  1  0  0  0  0  0  0
  190.1950  176.4990  139.0930 C   0  0  0  0  0  2  0  0  0  0  0  0
  192.8550  177.2660  139.8420 C   0  0  0  0  0  0  0  0  0  0  0  0
  191.7000  177.9260  140.5440 C   0  0  2  0  0  3  0  0  0  0  0  0
  192.6250  176.3100  138.8020 N   0  0  0  0  0  2  0  0  0  0  0  0
  1  6  1  0  0  0  0
  1  9  1  0  0  0  0
  2  3  1  6  0  0  0
  2  5  1  0  0  0  0
  3  7  1  0  0  0  0
  4 11  1  0  0  0  0
  4  7  2  0  0  0  0
  5 16  2  0  0  0  0
  5 14  1  0  0  0  0
  8 23  1  6  0  0  0
  8 13  1  0  0  0  0
  8 12  1  0  0  0  0
 10 19  1  0  0  0  0
 10 18  1  0  0  0  0
 12 16  1  0  0  0  0
 13 18  1  6  0  0  0
 13  2  1  0  0  0  0
 14  1  2  0  0  0  0
 15  4  1  0  0  0  0
 16 17  1  0  0  0  0
 17  6  2  0  0  0  0
 19  3  2  0  0  0  0
 20 15  2  0  0  0  0
 20 19  1  0  0  0  0
 22 21  2  0  0  0  0
 22 23  1  0  0  0  0
 24 27  1  1  0  0  0
 24 31  1  0  0  0  0
 24 28  1  0  0  0  0
 25 30  1  0  0  0  0
 28 25  1  0  0  0  0
 29 26  2  0  0  0  0
 29 30  1  0  0  0  0
 30 22  1  1  0  0  0
 31 29  1  0  0  0  0
M  END
>  <MODEL>
3

>  <REMARK>
 VINA RESULT:      -6.3      5.591      7.081
  Name = 
  2 active torsions:
  status: ('A' for Active; 'I' for Inactive)
    1  A    between atoms: C_5  and  C_30
    2  A    between atoms: C_10  and  N_16
                            x       y       z     vdW  Elec       q    Type
                         _______ _______ _______ _____ _____    ______ ____

>  <TORSDO>
F 2

$$$$
=
 OpenBabel11122411133D

 31 35  0  0  1  0  0  0  0  0999 V2000
  191.2810  176.8680  138.0690 C   0  0  0  0  0  0  0  0  0  0  0  0
  187.9100  176.7410  136.3190 C   0  0  2  0  0  3  0  0  0  0  0  0
  187.2300  175.3870  136.3870 C   0  0  0  0  0  0  0  0  0  0  0  0
  187.3080  172.9950  136.8150 C   0  0  0  0  0  0  0  0  0  0  0  0
  188.9630  176.9350  137.3720 C   0  0  0  0  0  0  0  0  0  0  0  0
  190.9100  177.3030  139.3460 C   0  0  0  0  0  3  0  0  0  0  0  0
  187.9340  174.2450  136.7980 C   0  0  0  0  0  3  0  0  0  0  0  0
  186.3730  178.2530  137.8120 C   0  0  1  0  0  3  0  0  0  0  0  0
  192.5840  176.6240  137.7880 F   0  0  0  0  0  0  0  0  0  0  0  0
  185.1630  176.3940  135.4940 N   0  0  0  0  0  2  0  0  0  0  0  0
  188.0270  171.8470  137.2480 N   0  0  0  0  0  1  0  0  0  0  0  0
  187.1500  177.5940  138.9670 C   0  0  0  0  0  2  0  0  0  0  0  0
  186.8910  177.8980  136.3820 C   0  0  2  0  0  3  0  0  0  0  0  0
  190.3080  176.6820  137.0820 C   0  0  0  0  0  3  0  0  0  0  0  0
  185.9780  172.8740  136.4060 C   0  0  0  0  0  3  0  0  0  0  0  0
  188.5940  177.3830  138.6480 C   0  0  0  0  0  0  0  0  0  0  0  0
  189.5670  177.5550  139.6380 C   0  0  0  0  0  3  0  0  0  0  0  0
  185.7980  177.6990  135.3270 C   0  0  0  0  0  2  0  0  0  0  0  0
  185.8970  175.2500  135.9420 C   0  0  0  0  0  0  0  0  0  0  0  0
  185.2750  173.9990  135.9690 C   0  0  0  0  0  3  0  0  0  0  0  0
  184.4680  179.8770  139.2260 O   0  0  0  0  0  0  0  0  0  0  0  0
  184.0560  178.8070  138.7020 C   0  0  0  0  0  0  0  0  0  0  0  0
  184.9500  177.9700  137.9660 N   0  0  0  0  0  2  0  0  0  0  0  0
  180.5280  180.5420  138.7250 C   0  0  1  0  0  3  0  0  0  0  0  0
  181.8180  178.7420  137.6030 C   0  0  0  0  0  2  0  0  0  0  0  0
  182.3520  178.6150  141.2350 O   0  0  0  0  0  0  0  0  0  0  0  0
  180.1940  182.0190  138.7320 C   0  0  0  0  0  1  0  0  0  0  0  0
  181.4370  180.2190  137.5470 C   0  0  0  0  0  2  0  0  0  0  0  0
  182.0290  179.0430  140.0960 C   0  0  0  0  0  0  0  0  0  0  0  0
  182.6230  178.4120  138.8660 C   0  0  2  0  0  3  0  0  0  0  0  0
  181.1610  180.1750  139.9870 N   0  0  0  0  0  2  0  0  0  0  0  0
  1  6  1  0  0  0  0
  2 13  1  0  0  0  0
  2  3  1  1  0  0  0
  2  5  1  0  0  0  0
  3  7  1  0  0  0  0
  4 11  1  0  0  0  0
  5 16  2  0  0  0  0
  6 17  2  0  0  0  0
  7  4  2  0  0  0  0
  8 23  1  6  0  0  0
  8 12  1  0  0  0  0
  9  1  1  0  0  0  0
 10 19  1  0  0  0  0
 13 18  1  6  0  0  0
 13  8  1  0  0  0  0
 14  5  1  0  0  0  0
 14  1  2  0  0  0  0
 15  4  1  0  0  0  0
 16 12  1  0  0  0  0
 16 17  1  0  0  0  0
 18 10  1  0  0  0  0
 19 20  1  0  0  0  0
 19  3  2  0  0  0  0
 20 15  2  0  0  0  0
 22 21  2  0  0  0  0
 23 22  1  0  0  0  0
 24 27  1  1  0  0  0
 24 31  1  0  0  0  0
 25 30  1  0  0  0  0
 28 25  1  0  0  0  0
 28 24  1  0  0  0  0
 29 26  2  0  0  0  0
 30 22  1  6  0  0  0
 30 29  1  0  0  0  0
 31 29  1  0  0  0  0
M  END
>  <MODEL>
4

>  <REMARK>
 VINA RESULT:      -6.0      3.653      8.069
  Name = 
  2 active torsions:
  status: ('A' for Active; 'I' for Inactive)
    1  A    between atoms: C_5  and  C_30
    2  A    between atoms: C_10  and  N_16
                            x       y       z     vdW  Elec       q    Type
                         _______ _______ _______ _____ _____    ______ ____

>  <TORSDO>
F 2

$$$$
=
 OpenBabel11122411133D

 31 35  0  0  1  0  0  0  0  0999 V2000
  179.7810  178.7380  143.2720 C   0  0  0  0  0  0  0  0  0  0  0  0
  182.6570  179.5230  140.9150 C   0  0  2  0  0  3  0  0  0  0  0  0
  184.0060  179.0280  141.4010 C   0  0  0  0  0  0  0  0  0  0  0  0
  185.4410  178.1850  143.1730 C   0  0  0  0  0  0  0  0  0  0  0  0
  181.4940  178.8280  141.5640 C   0  0  0  0  0  0  0  0  0  0  0  0
  179.3320  177.5170  142.7590 C   0  0  0  0  0  3  0  0  0  0  0  0
  184.1830  178.5970  142.7250 C   0  0  0  0  0  3  0  0  0  0  0  0
  182.1860  178.0090  138.8270 C   0  0  1  0  0  3  0  0  0  0  0  0
  179.1680  179.2860  144.3490 F   0  0  0  0  0  0  0  0  0  0  0  0
  184.9770  179.5460  139.1940 N   0  0  0  0  0  2  0  0  0  0  0  0
  185.6050  177.7360  144.5120 N   0  0  0  0  0  1  0  0  0  0  0  0
  181.7530  176.9830  139.8910 C   0  0  0  0  0  2  0  0  0  0  0  0
  182.5300  179.4270  139.3810 C   0  0  2  0  0  3  0  0  0  0  0  0
  180.8630  179.3930  142.6770 C   0  0  0  0  0  3  0  0  0  0  0  0
  186.5350  178.2130  142.3060 C   0  0  0  0  0  3  0  0  0  0  0  0
  181.0360  177.6090  141.0430 C   0  0  0  0  0  0  0  0  0  0  0  0
  179.9620  176.9490  141.6480 C   0  0  0  0  0  3  0  0  0  0  0  0
  183.7220  180.1140  138.7070 C   0  0  0  0  0  2  0  0  0  0  0  0
  185.1230  179.0880  140.5420 C   0  0  0  0  0  0  0  0  0  0  0  0
  186.3770  178.6660  140.9940 C   0  0  0  0  0  3  0  0  0  0  0  0
  182.3120  177.9090  135.9560 O   0  0  0  0  0  0  0  0  0  0  0  0
  183.2690  177.4100  136.6060 C   0  0  0  0  0  0  0  0  0  0  0  0
  183.2750  177.4500  138.0350 N   0  0  0  0  0  2  0  0  0  0  0  0
  185.2610  174.0210  136.7040 C   0  0  1  0  0  3  0  0  0  0  0  0
  183.9320  175.4690  135.1860 C   0  0  0  0  0  2  0  0  0  0  0  0
  186.2770  177.5010  137.1520 O   0  0  0  0  0  0  0  0  0  0  0  0
  185.2070  172.9160  137.7370 C   0  0  0  0  0  1  0  0  0  0  0  0
  183.8640  174.3050  136.1700 C   0  0  0  0  0  2  0  0  0  0  0  0
  185.5710  176.5270  136.7820 C   0  0  0  0  0  0  0  0  0  0  0  0
  184.3980  176.7610  135.8690 C   0  0  2  0  0  3  0  0  0  0  0  0
  185.8450  175.2200  137.2960 N   0  0  0  0  0  2  0  0  0  0  0  0
  1  9  1  0  0  0  0
  2  3  1  1  0  0  0
  2  5  1  0  0  0  0
  3  7  1  0  0  0  0
  4 11  1  0  0  0  0
  5 14  1  0  0  0  0
  6  1  1  0  0  0  0
  7  4  2  0  0  0  0
  8 23  1  1  0  0  0
  8 13  1  0  0  0  0
  8 12  1  0  0  0  0
 10 19  1  0  0  0  0
 12 16  1  0  0  0  0
 13 18  1  6  0  0  0
 13  2  1  0  0  0  0
 14  1  2  0  0  0  0
 15  4  1  0  0  0  0
 16  5  2  0  0  0  0
 16 17  1  0  0  0  0
 17  6  2  0  0  0  0
 18 10  1  0  0  0  0
 19 20  1  0  0  0  0
 19  3  2  0  0  0  0
 20 15  2  0  0  0  0
 21 22  2  0  0  0  0
 22 23  1  0  0  0  0
 24 31  1  0  0  0  0
 24 27  1  1  0  0  0
 25 30  1  0  0  0  0
 25 28  1  0  0  0  0
 28 24  1  0  0  0  0
 29 26  2  0  0  0  0
 29 31  1  0  0  0  0
 30 22  1  1  0  0  0
 30 29  1  0  0  0  0
M  END
>  <MODEL>
5

>  <REMARK>
 VINA RESULT:      -6.0      2.558      4.454
  Name = 
  2 active torsions:
  status: ('A' for Active; 'I' for Inactive)
    1  A    between atoms: C_5  and  C_30
    2  A    between atoms: C_10  and  N_16
                            x       y       z     vdW  Elec       q    Type
                         _______ _______ _______ _____ _____    ______ ____

>  <TORSDO>
F 2

$$$$
=
 OpenBabel11122411133D

 31 35  0  0  1  0  0  0  0  0999 V2000
  180.7020  179.0910  143.1020 C   0  0  0  0  0  0  0  0  0  0  0  0
  180.6690  177.7810  139.5340 C   0  0  2  0  0  3  0  0  0  0  0  0
  180.7310  178.8680  138.4770 C   0  0  0  0  0  0  0  0  0  0  0  0
  180.5340  181.2000  137.8220 C   0  0  0  0  0  0  0  0  0  0  0  0
  181.1520  178.2300  140.8830 C   0  0  0  0  0  0  0  0  0  0  0  0
  182.0700  179.0640  143.3910 C   0  0  0  0  0  3  0  0  0  0  0  0
  180.5170  180.2140  138.8120 C   0  0  0  0  0  3  0  0  0  0  0  0
  182.9870  176.5800  139.2870 C   0  0  1  0  0  3  0  0  0  0  0  0
  179.8210  179.5220  144.0360 F   0  0  0  0  0  0  0  0  0  0  0  0
  181.1090  177.1480  136.7500 N   0  0  0  0  0  2  0  0  0  0  0  0
  180.3310  182.5630  138.1750 N   0  0  0  0  0  1  0  0  0  0  0  0
  183.4930  177.7710  140.1230 C   0  0  0  0  0  2  0  0  0  0  0  0
  181.4380  176.5160  139.1010 C   0  0  2  0  0  3  0  0  0  0  0  0
  180.2420  178.6770  141.8480 C   0  0  0  0  0  3  0  0  0  0  0  0
  180.7490  180.8480  136.4880 C   0  0  0  0  0  3  0  0  0  0  0  0
  182.5220  178.1920  141.1790 C   0  0  0  0  0  0  0  0  0  0  0  0
  182.9810  178.6200  142.4280 C   0  0  0  0  0  3  0  0  0  0  0  0
  180.9700  176.0610  137.7150 C   0  0  0  0  0  2  0  0  0  0  0  0
  180.9130  178.5160  137.1230 C   0  0  0  0  0  0  0  0  0  0  0  0
  180.9360  179.5090  136.1390 C   0  0  0  0  0  3  0  0  0  0  0  0
  184.0970  174.2510  138.0190 O   0  0  0  0  0  0  0  0  0  0  0  0
  184.2450  175.3620  137.4430 C   0  0  0  0  0  0  0  0  0  0  0  0
  183.6950  176.5530  138.0120 N   0  0  0  0  0  2  0  0  0  0  0  0
  187.4050  177.2190  136.0210 C   0  0  1  0  0  3  0  0  0  0  0  0
  186.4550  174.9500  136.3630 C   0  0  0  0  0  2  0  0  0  0  0  0
  183.8880  177.2190  135.0390 O   0  0  0  0  0  0  0  0  0  0  0  0
  188.2090  178.3410  136.6430 C   0  0  0  0  0  1  0  0  0  0  0  0
  187.3290  176.0380  136.9800 C   0  0  0  0  0  2  0  0  0  0  0  0
  184.9530  176.8130  135.5710 C   0  0  0  0  0  0  0  0  0  0  0  0
  185.0120  175.4300  136.1610 C   0  0  2  0  0  3  0  0  0  0  0  0
  186.0710  177.6990  135.6800 N   0  0  0  0  0  2  0  0  0  0  0  0
  1  6  1  0  0  0  0
  1  9  1  0  0  0  0
  2  3  1  6  0  0  0
  2  5  1  0  0  0  0
  3  7  1  0  0  0  0
  4 11  1  0  0  0  0
  4  7  2  0  0  0  0
  5 16  2  0  0  0  0
  5 14  1  0  0  0  0
  8 23  1  6  0  0  0
  8 12  1  0  0  0  0
 10 19  1  0  0  0  0
 10 18  1  0  0  0  0
 12 16  1  0  0  0  0
 13 18  1  6  0  0  0
 13  8  1  0  0  0  0
 13  2  1  0  0  0  0
 14  1  2  0  0  0  0
 15  4  1  0  0  0  0
 16 17  1  0  0  0  0
 17  6  2  0  0  0  0
 19  3  2  0  0  0  0
 20 15  2  0  0  0  0
 20 19  1  0  0  0  0
 22 23  1  0  0  0  0
 22 21  2  0  0  0  0
 24 27  1  1  0  0  0
 24 28  1  0  0  0  0
 25 28  1  0  0  0  0
 26 29  2  0  0  0  0
 29 31  1  0  0  0  0
 29 30  1  0  0  0  0
 30 25  1  0  0  0  0
 30 22  1  1  0  0  0
 31 24  1  0  0  0  0
M  END
>  <MODEL>
6

>  <REMARK>
 VINA RESULT:      -5.9      1.939      2.364
  Name = 
  2 active torsions:
  status: ('A' for Active; 'I' for Inactive)
    1  A    between atoms: C_5  and  C_30
    2  A    between atoms: C_10  and  N_16
                            x       y       z     vdW  Elec       q    Type
                         _______ _______ _______ _____ _____    ______ ____

>  <TORSDO>
F 2

$$$$
=
 OpenBabel11122411133D

 31 35  0  0  1  0  0  0  0  0999 V2000
  191.5950  176.9460  139.1260 C   0  0  0  0  0  0  0  0  0  0  0  0
  188.6720  177.1270  136.7030 C   0  0  2  0  0  3  0  0  0  0  0  0
  188.0110  175.7890  136.4320 C   0  0  0  0  0  0  0  0  0  0  0  0
  188.0280  173.3600  136.5230 C   0  0  0  0  0  0  0  0  0  0  0  0
  189.4760  177.1520  137.9710 C   0  0  0  0  0  0  0  0  0  0  0  0
  190.9570  177.2020  140.3440 C   0  0  0  0  0  3  0  0  0  0  0  0
  188.6270  174.5880  136.8160 C   0  0  0  0  0  3  0  0  0  0  0  0
  186.8340  178.4390  138.0370 C   0  0  1  0  0  3  0  0  0  0  0  0
  192.9310  176.7210  139.0950 F   0  0  0  0  0  0  0  0  0  0  0  0
  186.1660  176.9490  135.2760 N   0  0  0  0  0  2  0  0  0  0  0  0
  188.6540  172.1500  136.9300 N   0  0  0  0  0  1  0  0  0  0  0  0
  187.3580  177.6090  139.2250 C   0  0  0  0  0  2  0  0  0  0  0  0
  187.6480  178.2810  136.7140 C   0  0  2  0  0  3  0  0  0  0  0  0
  190.8550  176.9190  137.9390 C   0  0  0  0  0  3  0  0  0  0  0  0
  186.8170  173.3210  135.8290 C   0  0  0  0  0  3  0  0  0  0  0  0
  188.8400  177.4210  139.1920 C   0  0  0  0  0  0  0  0  0  0  0  0
  189.5790  177.4340  140.3780 C   0  0  0  0  0  3  0  0  0  0  0  0
  186.8050  178.2530  135.4350 C   0  0  0  0  0  2  0  0  0  0  0  0
  186.8050  175.7400  135.7020 C   0  0  0  0  0  0  0  0  0  0  0  0
  186.2070  174.5090  135.4180 C   0  0  0  0  0  3  0  0  0  0  0  0
  184.6570  179.7530  139.3780 O   0  0  0  0  0  0  0  0  0  0  0  0
  184.3780  178.8360  138.5610 C   0  0  0  0  0  0  0  0  0  0  0  0
  185.4150  178.1610  137.8450 N   0  0  0  0  0  2  0  0  0  0  0  0
  180.9830  179.0000  140.5380 C   0  0  1  0  0  3  0  0  0  0  0  0
  182.0370  179.6800  138.3940 C   0  0  0  0  0  2  0  0  0  0  0  0
  182.9410  176.2160  139.2140 O   0  0  0  0  0  0  0  0  0  0  0  0
  180.7420  179.3780  141.9840 C   0  0  0  0  0  1  0  0  0  0  0  0
  181.7420  180.1130  139.8280 C   0  0  0  0  0  2  0  0  0  0  0  0
  182.5270  177.3970  139.3420 C   0  0  0  0  0  0  0  0  0  0  0  0
  182.9480  178.4470  138.3520 C   0  0  2  0  0  3  0  0  0  0  0  0
  181.7220  177.7440  140.4740 N   0  0  0  0  0  2  0  0  0  0  0  0
  1  6  1  0  0  0  0
  2  3  1  1  0  0  0
  2 13  1  0  0  0  0
  2  5  1  0  0  0  0
  3  7  1  0  0  0  0
  4  7  2  0  0  0  0
  4 11  1  0  0  0  0
  5 16  2  0  0  0  0
  6 17  2  0  0  0  0
  8 23  1  6  0  0  0
  8 12  1  0  0  0  0
  9  1  1  0  0  0  0
 10 18  1  0  0  0  0
 10 19  1  0  0  0  0
 13 18  1  6  0  0  0
 13  8  1  0  0  0  0
 14  5  1  0  0  0  0
 14  1  2  0  0  0  0
 15  4  1  0  0  0  0
 16 12  1  0  0  0  0
 16 17  1  0  0  0  0
 19  3  2  0  0  0  0
 20 19  1  0  0  0  0
 20 15  2  0  0  0  0
 22 21  2  0  0  0  0
 23 22  1  0  0  0  0
 24 27  1  1  0  0  0
 25 28  1  0  0  0  0
 26 29  2  0  0  0  0
 28 24  1  0  0  0  0
 29 31  1  0  0  0  0
 30 25  1  0  0  0  0
 30 22  1  1  0  0  0
 30 29  1  0  0  0  0
 31 24  1  0  0  0  0
M  END
>  <MODEL>
7

>  <REMARK>
 VINA RESULT:      -5.9      3.621      8.117
  Name = 
  2 active torsions:
  status: ('A' for Active; 'I' for Inactive)
    1  A    between atoms: C_5  and  C_30
    2  A    between atoms: C_10  and  N_16
                            x       y       z     vdW  Elec       q    Type
                         _______ _______ _______ _____ _____    ______ ____

>  <TORSDO>
F 2

$$$$
=
 OpenBabel11122411133D

 31 35  0  0  1  0  0  0  0  0999 V2000
  191.4830  177.0840  142.4040 C   0  0  0  0  0  0  0  0  0  0  0  0
  190.2520  178.0080  138.9290 C   0  0  2  0  0  3  0  0  0  0  0  0
  190.3340  176.8750  137.9240 C   0  0  0  0  0  0  0  0  0  0  0  0
  191.1740  174.6960  137.2510 C   0  0  0  0  0  0  0  0  0  0  0  0
  190.2740  177.5440  140.3580 C   0  0  0  0  0  0  0  0  0  0  0  0
  190.2940  176.6760  143.0160 C   0  0  0  0  0  3  0  0  0  0  0  0
  191.0710  175.7140  138.2030 C   0  0  0  0  0  3  0  0  0  0  0  0
  187.6700  178.3360  139.2470 C   0  0  1  0  0  3  0  0  0  0  0  0
  192.6460  177.0580  143.0990 F   0  0  0  0  0  0  0  0  0  0  0  0
  189.0030  178.2090  136.3320 N   0  0  0  0  0  2  0  0  0  0  0  0
  191.9110  173.5170  137.5500 N   0  0  0  0  0  1  0  0  0  0  0  0
  187.8120  177.1230  140.1860 C   0  0  0  0  0  2  0  0  0  0  0  0
  189.0150  178.8990  138.6900 C   0  0  2  0  0  3  0  0  0  0  0  0
  191.4750  177.5160  141.0740 C   0  0  0  0  0  3  0  0  0  0  0  0
  190.5550  174.8360  136.0070 C   0  0  0  0  0  3  0  0  0  0  0  0
  189.0800  177.1470  140.9760 C   0  0  0  0  0  0  0  0  0  0  0  0
  189.0930  176.7020  142.3010 C   0  0  0  0  0  3  0  0  0  0  0  0
  188.9700  179.3600  137.2300 C   0  0  0  0  0  2  0  0  0  0  0  0
  189.7400  177.0240  136.6520 C   0  0  0  0  0  0  0  0  0  0  0  0
  189.8410  175.9990  135.7080 C   0  0  0  0  0  3  0  0  0  0  0  0
  184.8410  178.8470  139.2760 O   0  0  0  0  0  0  0  0  0  0  0  0
  185.3250  178.2720  138.2650 C   0  0  0  0  0  0  0  0  0  0  0  0
  186.7280  178.0120  138.1810 N   0  0  0  0  0  2  0  0  0  0  0  0
  183.7780  174.9440  136.8560 C   0  0  1  0  0  3  0  0  0  0  0  0
  183.1480  177.1900  137.7070 C   0  0  0  0  0  2  0  0  0  0  0  0
  185.9870  177.4570  135.3930 O   0  0  0  0  0  0  0  0  0  0  0  0
  184.0980  173.5120  137.2310 C   0  0  0  0  0  1  0  0  0  0  0  0
  183.3950  175.7350  138.0990 C   0  0  0  0  0  2  0  0  0  0  0  0
  185.1380  176.9610  136.1780 C   0  0  0  0  0  0  0  0  0  0  0  0
  184.4170  177.8500  137.1540 C   0  0  2  0  0  3  0  0  0  0  0  0
  184.9260  175.5460  136.1880 N   0  0  0  0  0  2  0  0  0  0  0  0
  1  6  1  0  0  0  0
  1  9  1  0  0  0  0
  2  3  1  6  0  0  0
  2  5  1  0  0  0  0
  3  7  1  0  0  0  0
  4 11  1  0  0  0  0
  4  7  2  0  0  0  0
  5 16  2  0  0  0  0
  5 14  1  0  0  0  0
  8 23  1  6  0  0  0
  8 12  1  0  0  0  0
 10 19  1  0  0  0  0
 10 18  1  0  0  0  0
 12 16  1  0  0  0  0
 13 18  1  6  0  0  0
 13  2  1  0  0  0  0
 13  8  1  0  0  0  0
 14  1  2  0  0  0  0
 15  4  1  0  0  0  0
 16 17  1  0  0  0  0
 17  6  2  0  0  0  0
 19  3  2  0  0  0  0
 20 15  2  0  0  0  0
 20 19  1  0  0  0  0
 22 21  2  0  0  0  0
 23 22  1  0  0  0  0
 24 27  1  1  0  0  0
 24 28  1  0  0  0  0
 25 28  1  0  0  0  0
 26 29  2  0  0  0  0
 29 31  1  0  0  0  0
 29 30  1  0  0  0  0
 30 25  1  0  0  0  0
 30 22  1  1  0  0  0
 31 24  1  0  0  0  0
M  END
>  <MODEL>
8

>  <REMARK>
 VINA RESULT:      -5.6      4.240      7.844
  Name = 
  2 active torsions:
  status: ('A' for Active; 'I' for Inactive)
    1  A    between atoms: C_5  and  C_30
    2  A    between atoms: C_10  and  N_16
                            x       y       z     vdW  Elec       q    Type
                         _______ _______ _______ _____ _____    ______ ____

>  <TORSDO>
F 2

$$$$
=
 OpenBabel11122411133D

 31 35  0  0  1  0  0  0  0  0999 V2000
  179.8900  179.7010  141.7160 C   0  0  0  0  0  0  0  0  0  0  0  0
  181.6550  178.6830  138.5080 C   0  0  2  0  0  3  0  0  0  0  0  0
  183.1570  178.5280  138.6520 C   0  0  0  0  0  0  0  0  0  0  0  0
  185.2170  178.9000  139.8890 C   0  0  0  0  0  0  0  0  0  0  0  0
  180.9170  178.6100  139.8140 C   0  0  0  0  0  0  0  0  0  0  0  0
  179.5440  178.4530  142.2460 C   0  0  0  0  0  3  0  0  0  0  0  0
  183.8270  179.0100  139.7880 C   0  0  0  0  0  3  0  0  0  0  0  0
  180.8410  176.2240  138.0990 C   0  0  1  0  0  3  0  0  0  0  0  0
  179.5600  180.8340  142.3820 F   0  0  0  0  0  0  0  0  0  0  0  0
  183.2540  177.4990  136.4130 N   0  0  0  0  0  2  0  0  0  0  0  0
  185.8830  179.3780  141.0500 N   0  0  0  0  0  1  0  0  0  0  0  0
  180.9760  176.1140  139.6290 C   0  0  0  0  0  2  0  0  0  0  0  0
  181.0650  177.6560  137.5190 C   0  0  2  0  0  3  0  0  0  0  0  0
  180.5790  179.7800  140.5020 C   0  0  0  0  0  3  0  0  0  0  0  0
  185.9500  178.3210  138.8510 C   0  0  0  0  0  3  0  0  0  0  0  0
  180.5590  177.3610  140.3390 C   0  0  0  0  0  0  0  0  0  0  0  0
  179.8820  177.2830  141.5600 C   0  0  0  0  0  3  0  0  0  0  0  0
  181.8250  177.7060  136.1890 C   0  0  0  0  0  2  0  0  0  0  0  0
  183.9080  177.9770  137.5930 C   0  0  0  0  0  0  0  0  0  0  0  0
  185.2970  177.8620  137.7040 C   0  0  0  0  0  3  0  0  0  0  0  0
  180.3780  173.3880  138.0020 O   0  0  0  0  0  0  0  0  0  0  0  0
  181.4310  173.8320  137.4720 C   0  0  0  0  0  0  0  0  0  0  0  0
  181.7060  175.2350  137.4670 N   0  0  0  0  0  2  0  0  0  0  0  0
  184.9220  173.9660  135.6670 C   0  0  1  0  0  3  0  0  0  0  0  0
  183.7490  172.9180  137.5890 C   0  0  0  0  0  2  0  0  0  0  0  0
  181.6260  172.8150  134.5940 O   0  0  0  0  0  0  0  0  0  0  0  0
  185.6990  175.1740  135.1890 C   0  0  0  0  0  1  0  0  0  0  0  0
  184.5940  174.1100  137.1470 C   0  0  0  0  0  2  0  0  0  0  0  0
  182.5530  173.1370  135.3820 C   0  0  0  0  0  0  0  0  0  0  0  0
  182.4030  172.8760  136.8560 C   0  0  2  0  0  3  0  0  0  0  0  0
  183.7050  173.8190  134.8770 N   0  0  0  0  0  2  0  0  0  0  0  0
  1  6  1  0  0  0  0
  1  9  1  0  0  0  0
  2  3  1  1  0  0  0
  2  5  1  0  0  0  0
  3  7  1  0  0  0  0
  4 11  1  0  0  0  0
  5 16  2  0  0  0  0
  5 14  1  0  0  0  0
  7  4  2  0  0  0  0
  8 23  1  6  0  0  0
  8 12  1  0  0  0  0
 10 19  1  0  0  0  0
 12 16  1  0  0  0  0
 13 18  1  6  0  0  0
 13  8  1  0  0  0  0
 13  2  1  0  0  0  0
 14  1  2  0  0  0  0
 15  4  1  0  0  0  0
 16 17  1  0  0  0  0
 17  6  2  0  0  0  0
 18 10  1  0  0  0  0
 19 20  1  0  0  0  0
 19  3  2  0  0  0  0
 20 15  2  0  0  0  0
 22 21  2  0  0  0  0
 23 22  1  0  0  0  0
 24 27  1  6  0  0  0
 24 28  1  0  0  0  0
 26 29  2  0  0  0  0
 28 25  1  0  0  0  0
 29 30  1  0  0  0  0
 30 22  1  1  0  0  0
 30 25  1  0  0  0  0
 31 29  1  0  0  0  0
 31 24  1  0  0  0  0
M  END
>  <MODEL>
9

>  <REMARK>
 VINA RESULT:      -5.5      3.599      5.055
  Name = 
  2 active torsions:
  status: ('A' for Active; 'I' for Inactive)
    1  A    between atoms: C_5  and  C_30
    2  A    between atoms: C_10  and  N_16
                            x       y       z     vdW  Elec       q    Type
                         _______ _______ _______ _____ _____    ______ ____

>  <TORSDO>
F 2

$$$$
