=
 OpenBabel11122412123D

 34 40  0  0  1  0  0  0  0  0999 V2000
  184.0920  178.5810  144.4100 C   0  0  0  0  0  0  0  0  0  0  0  0
  181.6170  179.0570  143.9240 C   0  0  0  0  0  2  0  0  0  0  0  0
  191.2390  176.1140  144.3810 C   0  0  0  0  0  2  0  0  0  0  0  0
  186.4500  178.1490  144.7330 C   0  0  0  0  0  0  0  0  0  0  0  0
  187.8550  177.7390  142.7940 C   0  0  0  0  0  0  0  0  0  0  0  0
  189.7150  176.1180  142.4130 C   0  0  0  0  0  2  0  0  0  0  0  0
  191.1630  176.2140  142.8650 C   0  0  0  0  0  2  0  0  0  0  0  0
  190.2730  178.7420  144.8020 S   0  0  0  0  0  0  0  0  0  0  0  0
  183.1570  178.5760  142.1830 C   0  0  0  0  0  0  0  0  0  0  0  0
  182.4290  178.7550  139.0280 C   0  0  0  0  0  2  0  0  0  0  0  0
  186.7670  177.8860  141.9890 N   0  0  0  0  0  0  0  0  0  0  0  0
  188.8650  177.6360  145.1450 C   0  0  0  0  0  2  0  0  0  0  0  0
  184.4190  178.2880  141.6110 C   0  0  0  0  0  0  0  0  0  0  0  0
  180.9260  179.2970  142.5810 C   0  0  0  0  0  2  0  0  0  0  0  0
  187.7190  177.8710  144.2000 C   0  0  0  0  0  0  0  0  0  0  0  0
  191.5530  177.4540  145.0480 C   0  0  0  0  0  2  0  0  0  0  0  0
  181.9580  179.5830  140.2330 C   0  0  2  0  0  3  0  0  0  0  0  0
  185.3530  178.2900  143.8720 C   0  0  0  0  0  0  0  0  0  0  0  0
  189.1810  177.5120  142.1370 C   0  0  0  0  0  2  0  0  0  0  0  0
  185.5260  178.1480  142.4780 C   0  0  0  0  0  0  0  0  0  0  0  0
  185.0960  178.5610  146.6700 C   0  0  0  0  0  3  0  0  0  0  0  0
  183.4680  177.6800  139.3530 C   0  0  0  0  0  2  0  0  0  0  0  0
  186.2600  178.2910  146.1540 N   0  0  0  0  0  0  0  0  0  0  0  0
  184.6460  178.2600  140.1210 C   0  0  0  0  0  2  0  0  0  0  0  0
  181.8410  178.7110  141.4920 C   0  0  1  0  0  3  0  0  0  0  0  0
  183.9480  178.7240  145.8270 N   0  0  0  0  0  0  0  0  0  0  0  0
  183.0080  178.7270  143.5430 C   0  0  1  0  0  3  0  0  0  0  0  0
  180.6380  180.2540  139.8670 C   0  0  0  0  0  2  0  0  0  0  0  0
  180.8910  181.4690  139.1100 N   0  0  0  0  0  2  0  0  0  0  0  0
  180.2990  183.4060  136.6660 O   0  0  0  0  0  0  0  0  0  0  0  0
  180.5610  181.0610  136.7540 C   0  0  0  0  0  2  0  0  0  0  0  0
  179.9170  181.5130  138.0320 C   0  0  2  0  0  3  0  0  0  0  0  0
  180.4970  182.2770  135.8610 C   0  0  0  0  0  2  0  0  0  0  0  0
  179.5420  182.9510  137.7550 C   0  0  0  0  0  2  0  0  0  0  0  0
  1 26  2  0  0  0  0
  3 16  1  0  0  0  0
  4 23  1  0  0  0  0
  5 15  1  0  0  0  0
  6  7  1  0  0  0  0
  7  3  1  0  0  0  0
  8 16  1  0  0  0  0
  8 12  1  0  0  0  0
  9 27  1  0  0  0  0
 10 22  1  0  0  0  0
 10 17  1  0  0  0  0
 11 20  1  0  0  0  0
 11  5  2  0  0  0  0
 13  9  2  0  0  0  0
 13 20  1  0  0  0  0
 14  2  1  0  0  0  0
 15  4  2  0  0  0  0
 15 12  1  0  0  0  0
 17 28  1  6  0  0  0
 17 25  1  0  0  0  0
 18  1  1  0  0  0  0
 18  4  1  0  0  0  0
 19  6  1  0  0  0  0
 19  5  1  0  0  0  0
 20 18  2  0  0  0  0
 22 24  1  0  0  0  0
 23 21  2  0  0  0  0
 24 13  1  0  0  0  0
 25  9  1  0  0  0  0
 25 14  1  1  0  0  0
 26 21  1  0  0  0  0
 27  2  1  6  0  0  0
 27  1  1  0  0  0  0
 29 28  1  0  0  0  0
 30 34  1  0  0  0  0
 31 32  1  0  0  0  0
 32 29  1  1  0  0  0
 33 30  1  0  0  0  0
 33 31  1  0  0  0  0
 34 32  1  0  0  0  0
M  END
>  <MODEL>
1

>  <REMARK>
 VINA RESULT:      -9.6      0.000      0.000
  Name = 
  3 active torsions:
  status: ('A' for Active; 'I' for Inactive)
    1  A    between atoms: C_17  and  C_28
    2  A    between atoms: C_28  and  N_29
    3  A    between atoms: N_29  and  C_32
                            x       y       z     vdW  Elec       q    Type
                         _______ _______ _______ _____ _____    ______ ____

>  <TORSDO>
F 3

$$$$
=
 OpenBabel11122412123D

 34 40  0  0  1  0  0  0  0  0999 V2000
  185.6850  178.6490  140.1010 C   0  0  0  0  0  0  0  0  0  0  0  0
  183.4830  179.3110  138.9610 C   0  0  0  0  0  2  0  0  0  0  0  0
  191.4650  177.6000  144.8610 C   0  0  0  0  0  2  0  0  0  0  0  0
  187.6880  177.9890  141.2850 C   0  0  0  0  0  0  0  0  0  0  0  0
  187.5660  177.5700  143.6750 C   0  0  0  0  0  0  0  0  0  0  0  0
  189.1310  178.1380  145.5350 C   0  0  0  0  0  2  0  0  0  0  0  0
  190.4120  177.4300  145.9450 C   0  0  0  0  0  2  0  0  0  0  0  0
  190.2500  175.7350  143.1110 S   0  0  0  0  0  0  0  0  0  0  0  0
  183.6040  178.9080  141.2980 C   0  0  0  0  0  0  0  0  0  0  0  0
  181.0180  178.8400  143.2550 C   0  0  0  0  0  2  0  0  0  0  0  0
  186.2390  177.8710  143.6490 N   0  0  0  0  0  0  0  0  0  0  0  0
  189.8130  177.3820  142.4610 C   0  0  0  0  0  2  0  0  0  0  0  0
  184.2170  178.5490  142.5220 C   0  0  0  0  0  0  0  0  0  0  0  0
  182.0630  179.3090  139.5310 C   0  0  0  0  0  2  0  0  0  0  0  0
  188.3270  177.6200  142.4800 C   0  0  0  0  0  0  0  0  0  0  0  0
  191.7040  176.3180  144.0610 C   0  0  0  0  0  2  0  0  0  0  0  0
  181.2030  178.4100  141.7920 C   0  0  2  0  0  3  0  0  0  0  0  0
  186.3200  178.2960  141.2990 C   0  0  0  0  0  0  0  0  0  0  0  0
  188.1510  177.1210  144.9790 C   0  0  0  0  0  2  0  0  0  0  0  0
  185.5950  178.2370  142.5080 C   0  0  0  0  0  0  0  0  0  0  0  0
  187.8440  178.3830  138.9240 C   0  0  0  0  0  3  0  0  0  0  0  0
  182.2880  179.3490  143.9400 C   0  0  0  0  0  2  0  0  0  0  0  0
  188.4190  178.0560  140.0460 N   0  0  0  0  0  0  0  0  0  0  0  0
  183.4330  178.3580  143.7950 C   0  0  0  0  0  2  0  0  0  0  0  0
  182.1910  179.3320  141.0640 C   0  0  1  0  0  3  0  0  0  0  0  0
  186.4450  178.6950  138.8890 N   0  0  0  0  0  2  0  0  0  0  0  0
  184.3220  178.9450  140.1240 C   0  0  0  0  0  0  0  0  0  0  0  0
  179.8320  178.3840  141.1230 C   0  0  0  0  0  2  0  0  0  0  0  0
  179.2880  177.0370  141.1570 N   0  0  0  0  0  2  0  0  0  0  0  0
  178.9310  174.3530  139.4990 O   0  0  0  0  0  0  0  0  0  0  0  0
  179.8290  176.4470  138.8800 C   0  0  0  0  0  2  0  0  0  0  0  0
  180.1450  176.2070  140.3270 C   0  0  2  0  0  3  0  0  0  0  0  0
  179.3210  175.1130  138.3890 C   0  0  0  0  0  2  0  0  0  0  0  0
  179.7870  174.7530  140.5350 C   0  0  0  0  0  2  0  0  0  0  0  0
  1 27  2  0  0  0  0
  1 18  1  0  0  0  0
  2 14  1  0  0  0  0
  2 27  1  0  0  0  0
  3  7  1  0  0  0  0
  4 18  2  0  0  0  0
  4 15  1  0  0  0  0
  5 19  1  0  0  0  0
  6  7  1  0  0  0  0
  8 16  1  0  0  0  0
  9 13  2  0  0  0  0
 10 22  1  0  0  0  0
 11  5  1  0  0  0  0
 12 15  1  0  0  0  0
 12  8  1  0  0  0  0
 13 24  1  0  0  0  0
 15  5  2  0  0  0  0
 16  3  1  0  0  0  0
 17 28  1  6  0  0  0
 17 10  1  0  0  0  0
 18 20  1  0  0  0  0
 19  6  1  0  0  0  0
 20 13  1  0  0  0  0
 20 11  2  0  0  0  0
 21 23  2  0  0  0  0
 23  4  1  0  0  0  0
 24 22  1  0  0  0  0
 25 14  1  6  0  0  0
 25  9  1  0  0  0  0
 25 17  1  0  0  0  0
 26 21  1  0  0  0  0
 26  1  1  0  0  0  0
 27  9  1  0  0  0  0
 28 29  1  0  0  0  0
 30 34  1  0  0  0  0
 31 32  1  0  0  0  0
 32 34  1  0  0  0  0
 32 29  1  1  0  0  0
 33 31  1  0  0  0  0
 33 30  1  0  0  0  0
M  END
>  <MODEL>
2

>  <REMARK>
 VINA RESULT:      -9.5      2.747      4.571
  Name = 
  3 active torsions:
  status: ('A' for Active; 'I' for Inactive)
    1  A    between atoms: C_17  and  C_28
    2  A    between atoms: C_28  and  N_29
    3  A    between atoms: N_29  and  C_32
                            x       y       z     vdW  Elec       q    Type
                         _______ _______ _______ _____ _____    ______ ____

>  <TORSDO>
F 3

$$$$
=
 OpenBabel11122412123D

 34 40  0  0  1  0  0  0  0  0999 V2000
  186.4170  178.6070  140.2210 C   0  0  0  0  0  0  0  0  0  0  0  0
  184.3620  179.3870  138.8960 C   0  0  0  0  0  2  0  0  0  0  0  0
  191.6820  177.2350  145.4710 C   0  0  0  0  0  2  0  0  0  0  0  0
  188.2700  177.8400  141.5740 C   0  0  0  0  0  0  0  0  0  0  0  0
  187.9110  177.4070  143.9370 C   0  0  0  0  0  0  0  0  0  0  0  0
  189.3250  177.8810  145.9390 C   0  0  0  0  0  2  0  0  0  0  0  0
  190.5280  177.1080  146.4530 C   0  0  0  0  0  2  0  0  0  0  0  0
  190.5430  175.4480  143.5940 S   0  0  0  0  0  0  0  0  0  0  0  0
  184.2500  178.9590  141.2290 C   0  0  0  0  0  0  0  0  0  0  0  0
  181.4970  179.0010  142.9420 C   0  0  0  0  0  2  0  0  0  0  0  0
  186.6080  177.7730  143.7950 N   0  0  0  0  0  0  0  0  0  0  0  0
  190.2470  177.1190  142.9290 C   0  0  0  0  0  2  0  0  0  0  0  0
  184.7320  178.5590  142.4980 C   0  0  0  0  0  0  0  0  0  0  0  0
  182.8980  179.4500  139.3340 C   0  0  0  0  0  2  0  0  0  0  0  0
  188.7790  177.4300  142.8160 C   0  0  0  0  0  0  0  0  0  0  0  0
  191.9310  175.9500  144.6800 C   0  0  0  0  0  2  0  0  0  0  0  0
  181.7940  178.5740  141.4970 C   0  0  2  0  0  3  0  0  0  0  0  0
  186.9230  178.2140  141.4670 C   0  0  0  0  0  0  0  0  0  0  0  0
  188.3520  176.9180  145.2820 C   0  0  0  0  0  2  0  0  0  0  0  0
  186.0890  178.1800  142.6050 C   0  0  0  0  0  0  0  0  0  0  0  0
  188.6590  178.2470  139.2420 C   0  0  0  0  0  3  0  0  0  0  0  0
  182.7220  179.4410  143.7460 C   0  0  0  0  0  2  0  0  0  0  0  0
  189.1130  177.8820  140.4070 N   0  0  0  0  0  0  0  0  0  0  0  0
  183.8270  178.3960  143.6920 C   0  0  0  0  0  2  0  0  0  0  0  0
  182.8870  179.4530  140.8730 C   0  0  1  0  0  3  0  0  0  0  0  0
  187.2860  178.6270  139.0840 N   0  0  0  0  0  2  0  0  0  0  0  0
  185.0730  178.9700  140.1250 C   0  0  0  0  0  0  0  0  0  0  0  0
  180.4900  178.6220  140.7060 C   0  0  0  0  0  2  0  0  0  0  0  0
  179.7080  179.7800  141.1060 N   0  0  0  0  0  2  0  0  0  0  0  0
  180.2100  181.6490  138.5890 O   0  0  0  0  0  0  0  0  0  0  0  0
  179.3950  179.4380  138.7370 C   0  0  0  0  0  2  0  0  0  0  0  0
  178.9330  180.1950  139.9480 C   0  0  2  0  0  3  0  0  0  0  0  0
  179.9400  180.5090  137.8220 C   0  0  0  0  0  2  0  0  0  0  0  0
  179.2570  181.6330  139.6170 C   0  0  0  0  0  2  0  0  0  0  0  0
  1 18  1  0  0  0  0
  2 14  1  0  0  0  0
  2 27  1  0  0  0  0
  3  7  1  0  0  0  0
  4 15  1  0  0  0  0
  5 19  1  0  0  0  0
  6  7  1  0  0  0  0
  8 16  1  0  0  0  0
  9 13  2  0  0  0  0
 10 22  1  0  0  0  0
 11  5  1  0  0  0  0
 12  8  1  0  0  0  0
 13 20  1  0  0  0  0
 13 24  1  0  0  0  0
 15 12  1  0  0  0  0
 15  5  2  0  0  0  0
 16  3  1  0  0  0  0
 17 28  1  6  0  0  0
 17 10  1  0  0  0  0
 18  4  2  0  0  0  0
 18 20  1  0  0  0  0
 19  6  1  0  0  0  0
 20 11  2  0  0  0  0
 21 23  2  0  0  0  0
 23  4  1  0  0  0  0
 24 22  1  0  0  0  0
 25 14  1  6  0  0  0
 25  9  1  0  0  0  0
 25 17  1  0  0  0  0
 26 21  1  0  0  0  0
 26  1  1  0  0  0  0
 27  1  2  0  0  0  0
 27  9  1  0  0  0  0
 28 29  1  0  0  0  0
 30 34  1  0  0  0  0
 31 32  1  0  0  0  0
 32 29  1  1  0  0  0
 33 30  1  0  0  0  0
 33 31  1  0  0  0  0
 34 32  1  0  0  0  0
M  END
>  <MODEL>
3

>  <REMARK>
 VINA RESULT:      -9.0      1.733      3.652
  Name = 
  3 active torsions:
  status: ('A' for Active; 'I' for Inactive)
    1  A    between atoms: C_17  and  C_28
    2  A    between atoms: C_28  and  N_29
    3  A    between atoms: N_29  and  C_32
                            x       y       z     vdW  Elec       q    Type
                         _______ _______ _______ _____ _____    ______ ____

>  <TORSDO>
F 3

$$$$
=
 OpenBabel11122412123D

 34 40  0  0  1  0  0  0  0  0999 V2000
  184.1450  178.5420  144.3550 C   0  0  0  0  0  0  0  0  0  0  0  0
  181.6820  179.0310  143.8210 C   0  0  0  0  0  2  0  0  0  0  0  0
  191.2940  176.0840  144.4320 C   0  0  0  0  0  2  0  0  0  0  0  0
  186.4940  178.1010  144.7250 C   0  0  0  0  0  0  0  0  0  0  0  0
  187.9500  177.7580  142.8120 C   0  0  0  0  0  0  0  0  0  0  0  0
  189.8230  176.1530  142.4260 C   0  0  0  0  0  2  0  0  0  0  0  0
  191.2580  176.2360  142.9190 C   0  0  0  0  0  2  0  0  0  0  0  0
  190.3130  178.6950  144.9160 S   0  0  0  0  0  0  0  0  0  0  0  0
  183.2690  178.6100  142.1050 C   0  0  0  0  0  0  0  0  0  0  0  0
  182.6240  178.8950  138.9400 C   0  0  0  0  0  2  0  0  0  0  0  0
  186.8840  177.9310  141.9840 N   0  0  0  0  0  0  0  0  0  0  0  0
  188.8980  177.5770  145.1840 C   0  0  0  0  0  2  0  0  0  0  0  0
  184.5460  178.3430  141.5570 C   0  0  0  0  0  0  0  0  0  0  0  0
  181.0260  179.3150  142.4680 C   0  0  0  0  0  2  0  0  0  0  0  0
  187.7770  177.8430  144.2170 C   0  0  0  0  0  0  0  0  0  0  0  0
  191.5880  177.4010  145.1520 C   0  0  0  0  0  2  0  0  0  0  0  0
  182.1190  179.6810  140.1590 C   0  0  2  0  0  3  0  0  0  0  0  0
  185.4190  178.2700  143.8410 C   0  0  0  0  0  0  0  0  0  0  0  0
  189.2940  177.5550  142.1820 C   0  0  0  0  0  2  0  0  0  0  0  0
  185.6300  178.1760  142.4490 C   0  0  0  0  0  0  0  0  0  0  0  0
  185.0880  178.4460  146.6390 C   0  0  0  0  0  3  0  0  0  0  0  0
  183.6560  177.8110  139.2560 C   0  0  0  0  0  2  0  0  0  0  0  0
  186.2670  178.1960  146.1450 N   0  0  0  0  0  0  0  0  0  0  0  0
  184.8120  178.3660  140.0740 C   0  0  0  0  0  2  0  0  0  0  0  0
  181.9710  178.7680  141.3840 C   0  0  1  0  0  3  0  0  0  0  0  0
  183.9630  178.6360  145.7710 N   0  0  0  0  0  0  0  0  0  0  0  0
  183.0840  178.7160  143.4650 C   0  0  1  0  0  3  0  0  0  0  0  0
  180.8080  180.3630  139.7810 C   0  0  0  0  0  2  0  0  0  0  0  0
  180.7930  180.6560  138.3570 N   0  0  0  0  0  2  0  0  0  0  0  0
  179.8380  177.9590  136.9810 O   0  0  0  0  0  0  0  0  0  0  0  0
  178.9420  179.1700  138.8000 C   0  0  0  0  0  2  0  0  0  0  0  0
  179.5380  180.1470  137.8280 C   0  0  2  0  0  3  0  0  0  0  0  0
  178.9310  177.8630  138.0440 C   0  0  0  0  0  2  0  0  0  0  0  0
  179.8150  179.3080  136.6020 C   0  0  0  0  0  2  0  0  0  0  0  0
  1 26  2  0  0  0  0
  3 16  1  0  0  0  0
  4 23  1  0  0  0  0
  5 15  1  0  0  0  0
  6  7  1  0  0  0  0
  7  3  1  0  0  0  0
  8 16  1  0  0  0  0
  8 12  1  0  0  0  0
  9 27  1  0  0  0  0
 10 22  1  0  0  0  0
 10 17  1  0  0  0  0
 11 20  1  0  0  0  0
 11  5  2  0  0  0  0
 13  9  2  0  0  0  0
 13 20  1  0  0  0  0
 14  2  1  0  0  0  0
 15  4  2  0  0  0  0
 15 12  1  0  0  0  0
 17 28  1  6  0  0  0
 17 25  1  0  0  0  0
 18  1  1  0  0  0  0
 18  4  1  0  0  0  0
 19  6  1  0  0  0  0
 19  5  1  0  0  0  0
 20 18  2  0  0  0  0
 22 24  1  0  0  0  0
 23 21  2  0  0  0  0
 24 13  1  0  0  0  0
 25  9  1  0  0  0  0
 25 14  1  1  0  0  0
 26 21  1  0  0  0  0
 27  2  1  6  0  0  0
 27  1  1  0  0  0  0
 29 28  1  0  0  0  0
 30 33  1  0  0  0  0
 32 29  1  1  0  0  0
 32 31  1  0  0  0  0
 33 31  1  0  0  0  0
 34 30  1  0  0  0  0
 34 32  1  0  0  0  0
M  END
>  <MODEL>
4

>  <REMARK>
 VINA RESULT:      -8.9      1.268      1.587
  Name = 
  3 active torsions:
  status: ('A' for Active; 'I' for Inactive)
    1  A    between atoms: C_17  and  C_28
    2  A    between atoms: C_28  and  N_29
    3  A    between atoms: N_29  and  C_32
                            x       y       z     vdW  Elec       q    Type
                         _______ _______ _______ _____ _____    ______ ____

>  <TORSDO>
F 3

$$$$
=
 OpenBabel11122412123D

 34 40  0  0  1  0  0  0  0  0999 V2000
  182.6880  178.6780  143.5530 C   0  0  0  0  0  0  0  0  0  0  0  0
  184.1760  178.7380  145.6440 C   0  0  0  0  0  2  0  0  0  0  0  0
  179.7340  179.3110  136.6220 C   0  0  0  0  0  2  0  0  0  0  0  0
  181.3950  178.5780  141.5110 C   0  0  0  0  0  0  0  0  0  0  0  0
  182.5490  178.3050  139.3910 C   0  0  0  0  0  0  0  0  0  0  0  0
  182.1650  179.3420  137.1530 C   0  0  0  0  0  2  0  0  0  0  0  0
  181.1250  178.9770  136.1060 C   0  0  0  0  0  2  0  0  0  0  0  0
  179.6440  177.1030  138.3920 S   0  0  0  0  0  0  0  0  0  0  0  0
  185.0970  178.5330  143.4650 C   0  0  0  0  0  0  0  0  0  0  0  0
  188.2430  178.0050  142.8780 C   0  0  0  0  0  2  0  0  0  0  0  0
  183.7380  178.2900  140.0530 N   0  0  0  0  0  0  0  0  0  0  0  0
  180.0010  178.5570  139.4320 C   0  0  0  0  0  2  0  0  0  0  0  0
  185.0780  178.4080  142.0560 C   0  0  0  0  0  0  0  0  0  0  0  0
  185.6720  178.4480  145.7720 C   0  0  0  0  0  2  0  0  0  0  0  0
  181.3380  178.4480  140.1140 C   0  0  0  0  0  0  0  0  0  0  0  0
  178.9310  178.0670  137.0060 C   0  0  0  0  0  2  0  0  0  0  0  0
  187.3220  177.5300  144.0120 C   0  0  2  0  0  3  0  0  0  0  0  0
  182.6390  178.5620  142.1570 C   0  0  2  0  0  3  0  0  0  0  0  0
  182.5770  178.0910  137.9090 C   0  0  0  0  0  2  0  0  0  0  0  0
  183.8240  178.4210  141.4040 C   0  0  0  0  0  0  0  0  0  0  0  0
  180.2200  178.8370  143.5860 C   0  0  0  0  0  3  0  0  0  0  0  0
  187.5520  178.8370  141.7960 C   0  0  0  0  0  2  0  0  0  0  0  0
  180.1920  178.7270  142.2890 N   0  0  0  0  0  0  0  0  0  0  0  0
  186.3220  178.1280  141.2510 C   0  0  0  0  0  2  0  0  0  0  0  0
  186.2840  178.6040  144.3690 C   0  0  1  0  0  3  0  0  0  0  0  0
  181.4690  178.8160  144.2900 N   0  0  0  0  0  0  0  0  0  0  0  0
  183.9310  178.6530  144.1870 C   0  0  0  0  0  0  0  0  0  0  0  0
  188.1910  177.1450  145.2050 C   0  0  0  0  0  2  0  0  0  0  0  0
  189.5780  177.0170  144.7890 N   0  0  0  0  0  2  0  0  0  0  0  0
  190.3990  176.0420  147.6970 O   0  0  0  0  0  0  0  0  0  0  0  0
  191.7140  176.8170  145.8950 C   0  0  0  0  0  2  0  0  0  0  0  0
  190.4000  177.5410  145.8670 C   0  0  2  0  0  3  0  0  0  0  0  0
  191.7180  176.1180  147.2330 C   0  0  0  0  0  2  0  0  0  0  0  0
  189.7690  177.1890  147.1950 C   0  0  0  0  0  2  0  0  0  0  0  0
  1 27  1  0  0  0  0
  1 26  2  0  0  0  0
  2 14  1  0  0  0  0
  3 16  1  0  0  0  0
  4 18  1  0  0  0  0
  4 23  1  0  0  0  0
  5 11  2  0  0  0  0
  5 15  1  0  0  0  0
  6 19  1  0  0  0  0
  7  3  1  0  0  0  0
  7  6  1  0  0  0  0
  8 12  1  0  0  0  0
  9 27  2  0  0  0  0
  9 25  1  0  0  0  0
 10 17  1  0  0  0  0
 11 20  1  0  0  0  0
 12 15  1  0  0  0  0
 13  9  1  0  0  0  0
 15  4  2  0  0  0  0
 16  8  1  0  0  0  0
 17 25  1  0  0  0  0
 17 28  1  1  0  0  0
 18 20  1  1  0  0  0
 18  1  1  0  0  0  0
 19  5  1  0  0  0  0
 20 13  2  0  0  0  0
 21 26  1  0  0  0  0
 22 10  1  0  0  0  0
 23 21  2  0  0  0  0
 24 22  1  0  0  0  0
 24 13  1  0  0  0  0
 25 14  1  1  0  0  0
 27  2  1  0  0  0  0
 29 28  1  0  0  0  0
 31 33  1  0  0  0  0
 32 29  1  6  0  0  0
 32 31  1  0  0  0  0
 32 34  1  0  0  0  0
 33 30  1  0  0  0  0
 34 30  1  0  0  0  0
M  END
>  <MODEL>
5

>  <REMARK>
 VINA RESULT:      -8.9      4.068      9.238
  Name = 
  3 active torsions:
  status: ('A' for Active; 'I' for Inactive)
    1  A    between atoms: C_17  and  C_28
    2  A    between atoms: C_28  and  N_29
    3  A    between atoms: N_29  and  C_32
                            x       y       z     vdW  Elec       q    Type
                         _______ _______ _______ _____ _____    ______ ____

>  <TORSDO>
F 3

$$$$
=
 OpenBabel11122412123D

 34 40  0  0  1  0  0  0  0  0999 V2000
  186.9730  178.2470  140.4970 C   0  0  0  0  0  0  0  0  0  0  0  0
  189.2690  177.7320  141.5240 C   0  0  0  0  0  2  0  0  0  0  0  0
  179.6150  178.7100  138.8210 C   0  0  0  0  0  2  0  0  0  0  0  0
  184.7630  178.7560  139.6560 C   0  0  0  0  0  0  0  0  0  0  0  0
  182.9070  178.8980  141.2160 C   0  0  0  0  0  0  0  0  0  0  0  0
  180.5440  178.1110  141.0510 C   0  0  0  0  0  2  0  0  0  0  0  0
  179.3780  178.7600  140.3220 C   0  0  0  0  0  2  0  0  0  0  0  0
  181.5570  180.7710  138.8600 S   0  0  0  0  0  0  0  0  0  0  0  0
  187.3090  177.8630  142.8580 C   0  0  0  0  0  0  0  0  0  0  0  0
  187.3170  177.7190  146.0970 C   0  0  0  0  0  2  0  0  0  0  0  0
  183.7580  178.6090  142.2380 N   0  0  0  0  0  0  0  0  0  0  0  0
  182.4910  179.2120  138.7090 C   0  0  0  0  0  2  0  0  0  0  0  0
  185.9360  178.0750  143.1280 C   0  0  0  0  0  0  0  0  0  0  0  0
  189.6760  177.6760  142.9970 C   0  0  0  0  0  2  0  0  0  0  0  0
  183.3970  178.9810  139.8890 C   0  0  0  0  0  0  0  0  0  0  0  0
  179.9810  180.0750  138.2340 C   0  0  0  0  0  2  0  0  0  0  0  0
  188.3220  178.3140  145.1000 C   0  0  2  0  0  3  0  0  0  0  0  0
  185.6080  178.4570  140.7340 C   0  0  0  0  0  0  0  0  0  0  0  0
  181.4790  179.1910  141.5630 C   0  0  0  0  0  2  0  0  0  0  0  0
  185.0840  178.3790  142.0420 C   0  0  0  0  0  0  0  0  0  0  0  0
  186.5740  178.6350  138.0870 C   0  0  0  0  0  3  0  0  0  0  0  0
  186.0560  177.1280  145.4650 C   0  0  0  0  0  2  0  0  0  0  0  0
  185.3090  178.8280  138.3250 N   0  0  0  0  0  0  0  0  0  0  0  0
  185.3850  178.1230  144.5300 C   0  0  0  0  0  2  0  0  0  0  0  0
  188.3880  177.4760  143.8140 C   0  0  1  0  0  3  0  0  0  0  0  0
  187.4770  178.3370  139.1600 N   0  0  0  0  0  2  0  0  0  0  0  0
  187.8070  177.9580  141.5780 C   0  0  0  0  0  0  0  0  0  0  0  0
  189.6760  178.4230  145.7910 C   0  0  0  0  0  2  0  0  0  0  0  0
  189.9870  177.1790  146.4760 N   0  0  0  0  0  2  0  0  0  0  0  0
  192.0540  175.0010  147.5060 O   0  0  0  0  0  0  0  0  0  0  0  0
  191.7870  175.9990  145.3830 C   0  0  0  0  0  2  0  0  0  0  0  0
  191.4310  177.0130  146.4300 C   0  0  2  0  0  3  0  0  0  0  0  0
  192.4300  174.8780  146.1620 C   0  0  0  0  0  2  0  0  0  0  0  0
  191.9020  176.3780  147.7180 C   0  0  0  0  0  2  0  0  0  0  0  0
  1 18  1  0  0  0  0
  1 27  2  0  0  0  0
  2 27  1  0  0  0  0
  2 14  1  0  0  0  0
  3  7  1  0  0  0  0
  4 15  1  0  0  0  0
  4 18  2  0  0  0  0
  5 19  1  0  0  0  0
  5 11  1  0  0  0  0
  6 19  1  0  0  0  0
  7  6  1  0  0  0  0
  9 13  2  0  0  0  0
  9 25  1  0  0  0  0
 12  8  1  0  0  0  0
 12 15  1  0  0  0  0
 13 24  1  0  0  0  0
 15  5  2  0  0  0  0
 16  3  1  0  0  0  0
 16  8  1  0  0  0  0
 17 28  1  1  0  0  0
 17 10  1  0  0  0  0
 18 20  1  0  0  0  0
 20 11  2  0  0  0  0
 20 13  1  0  0  0  0
 21 23  2  0  0  0  0
 21 26  1  0  0  0  0
 22 10  1  0  0  0  0
 23  4  1  0  0  0  0
 24 22  1  0  0  0  0
 25 14  1  6  0  0  0
 25 17  1  0  0  0  0
 26  1  1  0  0  0  0
 27  9  1  0  0  0  0
 28 29  1  0  0  0  0
 30 34  1  0  0  0  0
 31 33  1  0  0  0  0
 31 32  1  0  0  0  0
 32 29  1  1  0  0  0
 32 34  1  0  0  0  0
 33 30  1  0  0  0  0
M  END
>  <MODEL>
6

>  <REMARK>
 VINA RESULT:      -8.6      4.108      9.851
  Name = 
  3 active torsions:
  status: ('A' for Active; 'I' for Inactive)
    1  A    between atoms: C_17  and  C_28
    2  A    between atoms: C_28  and  N_29
    3  A    between atoms: N_29  and  C_32
                            x       y       z     vdW  Elec       q    Type
                         _______ _______ _______ _____ _____    ______ ____

>  <TORSDO>
F 3

$$$$
=
 OpenBabel11122412123D

 34 40  0  0  1  0  0  0  0  0999 V2000
  186.2200  178.6150  141.3950 C   0  0  0  0  0  0  0  0  0  0  0  0
  184.6160  178.9960  139.4280 C   0  0  0  0  0  2  0  0  0  0  0  0
  189.7020  178.4440  148.1050 C   0  0  0  0  0  2  0  0  0  0  0  0
  187.6230  178.2240  143.3260 C   0  0  0  0  0  0  0  0  0  0  0  0
  186.5910  177.9890  145.5120 C   0  0  0  0  0  0  0  0  0  0  0  0
  187.2680  178.8340  147.7610 C   0  0  0  0  0  2  0  0  0  0  0  0
  188.3160  178.2730  148.7080 C   0  0  0  0  0  2  0  0  0  0  0  0
  189.3620  176.3490  146.2310 S   0  0  0  0  0  0  0  0  0  0  0  0
  183.8260  178.7930  141.6580 C   0  0  0  0  0  0  0  0  0  0  0  0
  180.6850  178.6630  142.4560 C   0  0  0  0  0  2  0  0  0  0  0  0
  185.3680  178.1730  144.9420 N   0  0  0  0  0  0  0  0  0  0  0  0
  189.1400  177.8950  145.2900 C   0  0  0  0  0  2  0  0  0  0  0  0
  183.9240  178.5860  143.0550 C   0  0  0  0  0  0  0  0  0  0  0  0
  183.0880  178.9190  139.4000 C   0  0  0  0  0  2  0  0  0  0  0  0
  187.7580  178.0080  144.7070 C   0  0  0  0  0  0  0  0  0  0  0  0
  190.2960  177.1270  147.6020 C   0  0  0  0  0  2  0  0  0  0  0  0
  181.4510  178.1340  141.2340 C   0  0  2  0  0  3  0  0  0  0  0  0
  186.3480  178.4150  142.7760 C   0  0  0  0  0  0  0  0  0  0  0  0
  186.6360  177.6960  146.9810 C   0  0  0  0  0  2  0  0  0  0  0  0
  185.2090  178.3920  143.6090 C   0  0  0  0  0  0  0  0  0  0  0  0
  188.6780  178.4410  141.1820 C   0  0  0  0  0  3  0  0  0  0  0  0
  181.5570  179.3300  143.5210 C   0  0  0  0  0  2  0  0  0  0  0  0
  188.7790  178.2540  142.4670 N   0  0  0  0  0  0  0  0  0  0  0  0
  182.7120  178.4310  143.9370 C   0  0  0  0  0  2  0  0  0  0  0  0
  182.6020  179.0760  140.8510 C   0  0  1  0  0  3  0  0  0  0  0  0
  187.3930  178.6290  140.5750 N   0  0  0  0  0  2  0  0  0  0  0  0
  184.9460  178.7960  140.8570 C   0  0  0  0  0  0  0  0  0  0  0  0
  180.4570  177.9390  140.0940 C   0  0  0  0  0  2  0  0  0  0  0  0
  179.7110  176.7070  140.2900 N   0  0  0  0  0  2  0  0  0  0  0  0
  181.3540  174.9930  138.1830 O   0  0  0  0  0  0  0  0  0  0  0  0
  179.1980  174.6750  139.0920 C   0  0  0  0  0  2  0  0  0  0  0  0
  179.4480  176.1500  138.9730 C   0  0  2  0  0  3  0  0  0  0  0  0
  180.3290  174.0470  138.3130 C   0  0  0  0  0  2  0  0  0  0  0  0
  180.7030  176.2340  138.1350 C   0  0  0  0  0  2  0  0  0  0  0  0
  1 18  1  0  0  0  0
  2 27  1  0  0  0  0
  3  7  1  0  0  0  0
  4 15  1  0  0  0  0
  5 19  1  0  0  0  0
  6  7  1  0  0  0  0
  8 16  1  0  0  0  0
  9 13  2  0  0  0  0
 10 22  1  0  0  0  0
 11  5  1  0  0  0  0
 12  8  1  0  0  0  0
 13 20  1  0  0  0  0
 13 24  1  0  0  0  0
 14  2  1  0  0  0  0
 15 12  1  0  0  0  0
 15  5  2  0  0  0  0
 16  3  1  0  0  0  0
 17 28  1  6  0  0  0
 17 10  1  0  0  0  0
 18  4  2  0  0  0  0
 18 20  1  0  0  0  0
 19  6  1  0  0  0  0
 20 11  2  0  0  0  0
 21 23  2  0  0  0  0
 22 24  1  0  0  0  0
 23  4  1  0  0  0  0
 25 14  1  6  0  0  0
 25 17  1  0  0  0  0
 25  9  1  0  0  0  0
 26 21  1  0  0  0  0
 26  1  1  0  0  0  0
 27  1  2  0  0  0  0
 27  9  1  0  0  0  0
 28 29  1  0  0  0  0
 30 33  1  0  0  0  0
 32 31  1  0  0  0  0
 32 29  1  1  0  0  0
 33 31  1  0  0  0  0
 34 30  1  0  0  0  0
 34 32  1  0  0  0  0
M  END
>  <MODEL>
7

>  <REMARK>
 VINA RESULT:      -8.4      2.826      4.612
  Name = 
  3 active torsions:
  status: ('A' for Active; 'I' for Inactive)
    1  A    between atoms: C_17  and  C_28
    2  A    between atoms: C_28  and  N_29
    3  A    between atoms: N_29  and  C_32
                            x       y       z     vdW  Elec       q    Type
                         _______ _______ _______ _____ _____    ______ ____

>  <TORSDO>
F 3

$$$$
=
 OpenBabel11122412123D

 34 40  0  0  1  0  0  0  0  0999 V2000
  186.6580  178.2020  142.3290 C   0  0  0  0  0  0  0  0  0  0  0  0
  189.1730  177.7510  142.5650 C   0  0  0  0  0  2  0  0  0  0  0  0
  179.7800  180.5120  140.2030 C   0  0  0  0  0  2  0  0  0  0  0  0
  184.3000  178.6030  141.9710 C   0  0  0  0  0  0  0  0  0  0  0  0
  183.4740  178.8660  139.7020 C   0  0  0  0  0  0  0  0  0  0  0  0
  181.7820  180.4210  138.7280 C   0  0  0  0  0  2  0  0  0  0  0  0
  180.2660  180.3220  138.7750 C   0  0  0  0  0  2  0  0  0  0  0  0
  180.6040  177.9350  141.0370 S   0  0  0  0  0  0  0  0  0  0  0  0
  188.1640  178.0930  140.4440 C   0  0  0  0  0  0  0  0  0  0  0  0
  189.7250  177.7400  137.6230 C   0  0  0  0  0  2  0  0  0  0  0  0
  184.7400  178.6940  139.2340 N   0  0  0  0  0  0  0  0  0  0  0  0
  181.8620  179.0890  141.6790 C   0  0  0  0  0  2  0  0  0  0  0  0
  187.1040  178.3200  139.5340 C   0  0  0  0  0  0  0  0  0  0  0  0
  190.2050  177.4450  141.4780 C   0  0  0  0  0  2  0  0  0  0  0  0
  183.2230  178.8210  141.0970 C   0  0  0  0  0  0  0  0  0  0  0  0
  179.3000  179.2080  140.8440 C   0  0  0  0  0  2  0  0  0  0  0  0
  189.8530  176.9960  138.9610 C   0  0  2  0  0  3  0  0  0  0  0  0
  185.5900  178.4340  141.4510 C   0  0  2  0  0  3  0  0  0  0  0  0
  182.3760  179.0250  138.6960 C   0  0  0  0  0  2  0  0  0  0  0  0
  185.8030  178.4880  140.0570 C   0  0  0  0  0  0  0  0  0  0  0  0
  185.0760  178.3380  144.2260 C   0  0  0  0  0  3  0  0  0  0  0  0
  188.6320  178.8100  137.5850 C   0  0  0  0  0  2  0  0  0  0  0  0
  184.0950  178.5510  143.3970 N   0  0  0  0  0  0  0  0  0  0  0  0
  187.2920  178.2530  138.0400 C   0  0  0  0  0  2  0  0  0  0  0  0
  189.6190  177.9440  140.1460 C   0  0  1  0  0  3  0  0  0  0  0  0
  186.4110  178.1480  143.7380 N   0  0  0  0  0  0  0  0  0  0  0  0
  187.9370  178.0270  141.8000 C   0  0  0  0  0  0  0  0  0  0  0  0
  191.2250  176.3320  139.0110 C   0  0  0  0  0  2  0  0  0  0  0  0
  191.2050  175.0920  138.2530 N   0  0  0  0  0  2  0  0  0  0  0  0
  194.3490  175.5380  138.2550 O   0  0  0  0  0  0  0  0  0  0  0  0
  193.0170  173.9100  137.1810 C   0  0  0  0  0  2  0  0  0  0  0  0
  192.2410  175.1940  137.2380 C   0  0  2  0  0  3  0  0  0  0  0  0
  194.4160  174.3090  137.5850 C   0  0  0  0  0  2  0  0  0  0  0  0
  193.2690  176.2140  137.6710 C   0  0  0  0  0  2  0  0  0  0  0  0
  1 26  2  0  0  0  0
  3 16  1  0  0  0  0
  4 23  1  0  0  0  0
  5 15  1  0  0  0  0
  6  7  1  0  0  0  0
  7  3  1  0  0  0  0
  8 12  1  0  0  0  0
  9 27  2  0  0  0  0
 10 17  1  0  0  0  0
 11  5  2  0  0  0  0
 11 20  1  0  0  0  0
 13 20  2  0  0  0  0
 13  9  1  0  0  0  0
 14  2  1  0  0  0  0
 15 12  1  0  0  0  0
 15  4  2  0  0  0  0
 16  8  1  0  0  0  0
 17 28  1  1  0  0  0
 17 25  1  0  0  0  0
 18 20  1  6  0  0  0
 18  4  1  0  0  0  0
 18  1  1  0  0  0  0
 19  6  1  0  0  0  0
 19  5  1  0  0  0  0
 22 10  1  0  0  0  0
 22 24  1  0  0  0  0
 23 21  2  0  0  0  0
 24 13  1  0  0  0  0
 25  9  1  0  0  0  0
 25 14  1  1  0  0  0
 26 21  1  0  0  0  0
 27  1  1  0  0  0  0
 27  2  1  0  0  0  0
 29 28  1  0  0  0  0
 31 32  1  0  0  0  0
 31 33  1  0  0  0  0
 32 34  1  0  0  0  0
 32 29  1  1  0  0  0
 33 30  1  0  0  0  0
 34 30  1  0  0  0  0
M  END
>  <MODEL>
8

>  <REMARK>
 VINA RESULT:      -8.3      4.521      9.136
  Name = 
  3 active torsions:
  status: ('A' for Active; 'I' for Inactive)
    1  A    between atoms: C_17  and  C_28
    2  A    between atoms: C_28  and  N_29
    3  A    between atoms: N_29  and  C_32
                            x       y       z     vdW  Elec       q    Type
                         _______ _______ _______ _____ _____    ______ ____

>  <TORSDO>
F 3

$$$$
=
 OpenBabel11122412123D

 34 40  0  0  1  0  0  0  0  0999 V2000
  191.1530  177.5190  142.0470 C   0  0  0  0  0  0  0  0  0  0  0  0
  193.0140  177.1390  140.3200 C   0  0  0  0  0  2  0  0  0  0  0  0
  184.8650  179.4930  145.7520 C   0  0  0  0  0  2  0  0  0  0  0  0
  189.3090  177.8410  143.5780 C   0  0  0  0  0  0  0  0  0  0  0  0
  187.0410  177.8780  142.7080 C   0  0  0  0  0  0  0  0  0  0  0  0
  185.0730  179.3040  143.2790 C   0  0  0  0  0  2  0  0  0  0  0  0
  184.1250  179.1810  144.4610 C   0  0  0  0  0  2  0  0  0  0  0  0
  186.2440  177.0210  145.7930 S   0  0  0  0  0  0  0  0  0  0  0  0
  190.7300  177.2640  139.6830 C   0  0  0  0  0  0  0  0  0  0  0  0
  189.6600  176.6800  136.6770 C   0  0  0  0  0  2  0  0  0  0  0  0
  187.5310  177.6860  141.4530 N   0  0  0  0  0  0  0  0  0  0  0  0
  187.4540  178.2530  145.2070 C   0  0  0  0  0  2  0  0  0  0  0  0
  189.3340  177.3860  139.8790 C   0  0  0  0  0  0  0  0  0  0  0  0
  192.8970  176.7530  138.8450 C   0  0  0  0  0  2  0  0  0  0  0  0
  187.9290  177.9570  143.8110 C   0  0  0  0  0  0  0  0  0  0  0  0
  185.1410  178.2460  146.5930 C   0  0  0  0  0  2  0  0  0  0  0  0
  190.8110  176.0670  137.4890 C   0  0  2  0  0  3  0  0  0  0  0  0
  189.7760  177.6490  142.2700 C   0  0  0  0  0  0  0  0  0  0  0  0
  185.5530  177.9220  142.8740 C   0  0  0  0  0  2  0  0  0  0  0  0
  188.8620  177.5770  141.1970 C   0  0  0  0  0  0  0  0  0  0  0  0
  191.5340  177.8010  144.4740 C   0  0  0  0  0  3  0  0  0  0  0  0
  188.8290  177.7220  137.4290 C   0  0  0  0  0  2  0  0  0  0  0  0
  190.2510  177.9170  144.6650 N   0  0  0  0  0  0  0  0  0  0  0  0
  188.3390  177.1840  138.7650 C   0  0  0  0  0  2  0  0  0  0  0  0
  191.4710  177.1160  138.3950 C   0  0  1  0  0  3  0  0  0  0  0  0
  192.0560  177.5920  143.1550 N   0  0  0  0  0  0  0  0  0  0  0  0
  191.6070  177.3200  140.7420 C   0  0  1  0  0  3  0  0  0  0  0  0
  191.8010  175.4360  136.5140 C   0  0  0  0  0  2  0  0  0  0  0  0
  192.2140  174.1300  137.0010 N   0  0  0  0  0  2  0  0  0  0  0  0
  194.9990  175.6060  136.6210 O   0  0  0  0  0  0  0  0  0  0  0  0
  194.4910  173.4350  137.4000 C   0  0  0  0  0  2  0  0  0  0  0  0
  193.4780  173.8130  136.3580 C   0  0  2  0  0  3  0  0  0  0  0  0
  195.5520  174.5020  137.2830 C   0  0  0  0  0  2  0  0  0  0  0  0
  194.0530  175.0660  135.7380 C   0  0  0  0  0  2  0  0  0  0  0  0
  1 18  1  0  0  0  0
  1 26  2  0  0  0  0
  3 16  1  0  0  0  0
  4 15  2  0  0  0  0
  4 23  1  0  0  0  0
  5 19  1  0  0  0  0
  5 15  1  0  0  0  0
  6  7  1  0  0  0  0
  7  3  1  0  0  0  0
  8 16  1  0  0  0  0
  9 13  2  0  0  0  0
  9 27  1  0  0  0  0
 10 22  1  0  0  0  0
 10 17  1  0  0  0  0
 11  5  2  0  0  0  0
 12  8  1  0  0  0  0
 13 20  1  0  0  0  0
 14  2  1  0  0  0  0
 15 12  1  0  0  0  0
 17 28  1  6  0  0  0
 17 25  1  0  0  0  0
 18  4  1  0  0  0  0
 19  6  1  0  0  0  0
 20 11  1  0  0  0  0
 20 18  2  0  0  0  0
 21 23  2  0  0  0  0
 22 24  1  0  0  0  0
 24 13  1  0  0  0  0
 25 14  1  1  0  0  0
 25  9  1  0  0  0  0
 26 21  1  0  0  0  0
 27  2  1  1  0  0  0
 27  1  1  0  0  0  0
 28 29  1  0  0  0  0
 30 33  1  0  0  0  0
 32 29  1  1  0  0  0
 32 31  1  0  0  0  0
 33 31  1  0  0  0  0
 34 32  1  0  0  0  0
 34 30  1  0  0  0  0
M  END
>  <MODEL>
9

>  <REMARK>
 VINA RESULT:      -8.2      5.027      9.330
  Name = 
  3 active torsions:
  status: ('A' for Active; 'I' for Inactive)
    1  A    between atoms: C_17  and  C_28
    2  A    between atoms: C_28  and  N_29
    3  A    between atoms: N_29  and  C_32
                            x       y       z     vdW  Elec       q    Type
                         _______ _______ _______ _____ _____    ______ ____

>  <TORSDO>
F 3

$$$$
