=
 OpenBabel11122410243D

 30 35  0  0  1  0  0  0  0  0999 V2000
  189.7370  176.8900  143.5960 C   0  0  1  0  0  3  0  0  0  0  0  0
  191.5640  175.8150  145.1120 C   0  0  0  0  0  0  0  0  0  0  0  0
  187.6300  178.2480  147.1210 C   0  0  0  0  0  2  0  0  0  0  0  0
  188.4550  177.7540  143.5480 C   0  0  1  0  0  3  0  0  0  0  0  0
  190.7230  177.4640  142.5890 C   0  0  0  0  0  2  0  0  0  0  0  0
  188.2240  177.5860  139.8840 O   0  0  0  0  0  0  0  0  0  0  0  0
  185.3160  177.6350  142.8190 C   0  0  1  0  0  3  0  0  0  0  0  0
  188.6940  177.5500  141.0550 C   0  0  0  0  0  0  0  0  0  0  0  0
  185.1660  178.1380  144.2500 C   0  0  2  0  0  3  0  0  0  0  0  0
  186.4010  178.6320  146.3880 C   0  0  0  0  0  0  0  0  0  0  0  0
  190.1250  177.5270  141.2540 N   0  0  0  0  0  0  0  0  0  0  0  0
  187.7480  177.4260  142.2300 C   0  0  2  0  0  3  0  0  0  0  0  0
  192.2760  175.6960  146.4300 C   0  0  0  0  0  2  0  0  0  0  0  0
  184.3770  179.4320  144.2010 C   0  0  0  0  0  2  0  0  0  0  0  0
  183.9950  177.8760  142.1130 C   0  0  0  0  0  2  0  0  0  0  0  0
  192.0300  175.2050  144.1120 O   0  0  0  0  0  0  0  0  0  0  0  0
  188.5340  177.9710  145.9420 C   0  0  2  0  0  3  0  0  0  0  0  0
  191.4330  176.1420  147.5930 C   0  0  0  0  0  3  0  0  0  0  0  0
  190.3580  176.6650  144.9760 C   0  0  0  0  0  0  0  0  0  0  0  0
  187.6340  177.5000  144.8140 C   0  0  1  0  0  3  0  0  0  0  0  0
  185.4050  179.1550  146.9550 O   0  0  0  0  0  0  0  0  0  0  0  0
  186.4230  178.2990  144.9950 N   0  0  0  0  0  0  0  0  0  0  0  0
  183.1270  179.2760  142.8920 S   0  0  0  0  0  0  0  0  0  0  0  0
  186.6560  179.7390  142.1240 C   0  0  0  0  0  1  0  0  0  0  0  0
  190.2850  176.8040  147.4350 C   0  0  0  0  0  3  0  0  0  0  0  0
  189.7380  177.0990  146.0950 C   0  0  0  0  0  0  0  0  0  0  0  0
  186.4690  178.2260  142.0060 C   0  0  2  0  0  3  0  0  0  0  0  0
  191.0350  177.5950  140.1180 C   0  0  0  0  0  2  0  0  0  0  0  0
  193.3010  177.1950  139.5190 O   0  0  0  0  0  1  0  0  0  0  0  0
  192.4750  177.5290  140.5920 C   0  0  0  0  0  2  0  0  0  0  0  0
  1  5  1  6  0  0  0
  1 19  1  0  0  0  0
  2 13  1  0  0  0  0
  4  1  1  0  0  0  0
  4 20  1  0  0  0  0
  6  8  2  0  0  0  0
  7  9  1  0  0  0  0
  8 11  1  0  0  0  0
  8 12  1  0  0  0  0
  9 22  1  0  0  0  0
 10 21  2  0  0  0  0
 10  3  1  0  0  0  0
 11  5  1  0  0  0  0
 12  4  1  0  0  0  0
 13 18  1  0  0  0  0
 14  9  1  0  0  0  0
 15  7  1  0  0  0  0
 15 23  1  0  0  0  0
 16  2  2  0  0  0  0
 17 26  1  0  0  0  0
 17  3  1  0  0  0  0
 19  2  1  0  0  0  0
 19 26  2  0  0  0  0
 20 22  1  0  0  0  0
 20 17  1  0  0  0  0
 22 10  1  0  0  0  0
 23 14  1  0  0  0  0
 25 18  2  0  0  0  0
 26 25  1  0  0  0  0
 27 24  1  0  0  0  0
 27 12  1  0  0  0  0
 27  7  1  0  0  0  0
 28 30  1  0  0  0  0
 28 11  1  0  0  0  0
 29 30  1  0  0  0  0
M  END
>  <MODEL>
1

>  <REMARK>
 VINA RESULT:      -9.4      0.000      0.000
  Name = 
  2 active torsions:
  status: ('A' for Active; 'I' for Inactive)
    1  A    between atoms: N_11  and  C_28
    2  A    between atoms: C_28  and  C_30
                            x       y       z     vdW  Elec       q    Type
                         _______ _______ _______ _____ _____    ______ ____

>  <TORSDO>
F 2

$$$$
=
 OpenBabel11122410243D

 30 35  0  0  1  0  0  0  0  0999 V2000
  186.6460  177.9280  142.0180 C   0  0  1  0  0  3  0  0  0  0  0  0
  187.9240  177.3580  144.2170 C   0  0  0  0  0  0  0  0  0  0  0  0
  183.1780  179.0600  144.3410 C   0  0  0  0  0  2  0  0  0  0  0  0
  185.3510  178.5050  141.3990 C   0  0  1  0  0  3  0  0  0  0  0  0
  187.8280  178.6230  141.3560 C   0  0  0  0  0  2  0  0  0  0  0  0
  186.5420  178.0440  137.9520 O   0  0  0  0  0  0  0  0  0  0  0  0
  182.7820  177.6920  139.6290 C   0  0  1  0  0  3  0  0  0  0  0  0
  186.5380  178.1850  139.2070 C   0  0  0  0  0  0  0  0  0  0  0  0
  182.0250  178.2500  140.8290 C   0  0  2  0  0  3  0  0  0  0  0  0
  182.2680  179.1320  143.1740 C   0  0  0  0  0  0  0  0  0  0  0  0
  187.7720  178.4710  139.9010 N   0  0  0  0  0  0  0  0  0  0  0  0
  185.2550  177.9500  139.9750 C   0  0  2  0  0  3  0  0  0  0  0  0
  188.0990  177.4780  145.7040 C   0  0  0  0  0  2  0  0  0  0  0  0
  181.1080  179.3480  140.3230 C   0  0  0  0  0  2  0  0  0  0  0  0
  181.8010  177.6080  138.4730 C   0  0  0  0  0  2  0  0  0  0  0  0
  188.8240  176.7900  143.5430 O   0  0  0  0  0  0  0  0  0  0  0  0
  184.4910  178.8950  143.6100 C   0  0  2  0  0  3  0  0  0  0  0  0
  186.8200  177.8190  146.4180 C   0  0  0  0  0  3  0  0  0  0  0  0
  186.7330  177.9300  143.5460 C   0  0  0  0  0  0  0  0  0  0  0  0
  184.1710  178.1740  142.3140 C   0  0  1  0  0  3  0  0  0  0  0  0
  181.0600  179.4760  143.2720 O   0  0  0  0  0  0  0  0  0  0  0  0
  182.8650  178.7160  141.9410 N   0  0  0  0  0  0  0  0  0  0  0  0
  180.4850  178.8490  138.6920 S   0  0  0  0  0  0  0  0  0  0  0  0
  183.9140  179.9750  139.1680 C   0  0  0  0  0  1  0  0  0  0  0  0
  185.7210  178.2180  145.7740 C   0  0  0  0  0  3  0  0  0  0  0  0
  185.6760  178.3030  144.3000 C   0  0  0  0  0  0  0  0  0  0  0  0
  184.0390  178.4520  139.2030 C   0  0  2  0  0  3  0  0  0  0  0  0
  189.0160  178.6470  139.1640 C   0  0  0  0  0  2  0  0  0  0  0  0
  190.9260  177.5240  140.0270 O   0  0  0  0  0  1  0  0  0  0  0  0
  189.8270  177.3640  139.1840 C   0  0  0  0  0  2  0  0  0  0  0  0
  1  5  1  6  0  0  0
  1 19  1  0  0  0  0
  2 13  1  0  0  0  0
  4  1  1  0  0  0  0
  4 20  1  0  0  0  0
  6  8  2  0  0  0  0
  7  9  1  0  0  0  0
  8 11  1  0  0  0  0
  8 12  1  0  0  0  0
  9 22  1  0  0  0  0
 10 21  2  0  0  0  0
 10  3  1  0  0  0  0
 11  5  1  0  0  0  0
 12  4  1  0  0  0  0
 13 18  1  0  0  0  0
 14  9  1  0  0  0  0
 15 23  1  0  0  0  0
 15  7  1  0  0  0  0
 16  2  2  0  0  0  0
 17 26  1  0  0  0  0
 17  3  1  0  0  0  0
 19  2  1  0  0  0  0
 19 26  2  0  0  0  0
 20 17  1  0  0  0  0
 22 20  1  0  0  0  0
 22 10  1  0  0  0  0
 23 14  1  0  0  0  0
 24 27  1  0  0  0  0
 25 18  2  0  0  0  0
 26 25  1  0  0  0  0
 27  7  1  0  0  0  0
 27 12  1  0  0  0  0
 28 30  1  0  0  0  0
 28 11  1  0  0  0  0
 30 29  1  0  0  0  0
M  END
>  <MODEL>
2

>  <REMARK>
 VINA RESULT:      -9.1      2.707      4.179
  Name = 
  2 active torsions:
  status: ('A' for Active; 'I' for Inactive)
    1  A    between atoms: N_11  and  C_28
    2  A    between atoms: C_28  and  C_30
                            x       y       z     vdW  Elec       q    Type
                         _______ _______ _______ _____ _____    ______ ____

>  <TORSDO>
F 2

$$$$
=
 OpenBabel11122410243D

 30 35  0  0  1  0  0  0  0  0999 V2000
  186.8200  178.4480  140.7450 C   0  0  1  0  0  3  0  0  0  0  0  0
  184.4530  179.3120  140.0770 C   0  0  0  0  0  0  0  0  0  0  0  0
  185.4110  177.7390  144.7720 C   0  0  0  0  0  2  0  0  0  0  0  0
  187.6870  177.8120  141.8560 C   0  0  1  0  0  3  0  0  0  0  0  0
  187.0290  177.6400  139.4720 C   0  0  0  0  0  2  0  0  0  0  0  0
  190.7010  177.7360  139.7540 O   0  0  0  0  0  0  0  0  0  0  0  0
  190.1910  178.4040  143.8000 C   0  0  1  0  0  3  0  0  0  0  0  0
  189.4900  177.7810  140.1050 C   0  0  0  0  0  0  0  0  0  0  0  0
  189.1820  178.0440  144.8840 C   0  0  2  0  0  3  0  0  0  0  0  0
  186.7630  177.5130  145.3360 C   0  0  0  0  0  0  0  0  0  0  0  0
  188.4500  177.5770  139.1230 N   0  0  0  0  0  0  0  0  0  0  0  0
  189.1440  178.1530  141.5320 C   0  0  2  0  0  3  0  0  0  0  0  0
  182.9730  179.4080  140.3180 C   0  0  0  0  0  2  0  0  0  0  0  0
  189.7650  176.9020  145.6930 C   0  0  0  0  0  2  0  0  0  0  0  0
  191.5720  178.3360  144.4260 C   0  0  0  0  0  2  0  0  0  0  0  0
  184.9240  179.7560  138.9960 O   0  0  0  0  0  0  0  0  0  0  0  0
  185.7670  177.7680  143.3040 C   0  0  2  0  0  3  0  0  0  0  0  0
  182.6000  179.2010  141.7600 C   0  0  0  0  0  3  0  0  0  0  0  0
  185.3420  178.6690  141.0740 C   0  0  0  0  0  0  0  0  0  0  0  0
  187.1870  178.2970  143.2190 C   0  0  1  0  0  3  0  0  0  0  0  0
  186.9550  177.2100  146.5440 O   0  0  0  0  0  0  0  0  0  0  0  0
  187.8280  177.7300  144.4050 N   0  0  0  0  0  0  0  0  0  0  0  0
  191.5570  177.1660  145.8230 S   0  0  0  0  0  0  0  0  0  0  0  0
  190.0050  176.0570  142.7220 C   0  0  0  0  0  1  0  0  0  0  0  0
  183.4620  178.7330  142.6650 C   0  0  0  0  0  3  0  0  0  0  0  0
  184.8650  178.4330  142.3150 C   0  0  0  0  0  0  0  0  0  0  0  0
  190.1450  177.5650  142.5210 C   0  0  2  0  0  3  0  0  0  0  0  0
  188.7840  177.2700  137.7390 C   0  0  0  0  0  2  0  0  0  0  0  0
  188.9230  179.6030  137.3020 O   0  0  0  0  0  1  0  0  0  0  0  0
  188.3700  178.4130  136.8310 C   0  0  0  0  0  2  0  0  0  0  0  0
  1  5  1  6  0  0  0
  1 19  1  0  0  0  0
  1  4  1  0  0  0  0
  2 13  1  0  0  0  0
  2 19  1  0  0  0  0
  3 10  1  0  0  0  0
  4 20  1  0  0  0  0
  6  8  2  0  0  0  0
  7 15  1  0  0  0  0
  7  9  1  0  0  0  0
  8 12  1  0  0  0  0
  9 14  1  0  0  0  0
 10 21  2  0  0  0  0
 11  5  1  0  0  0  0
 11  8  1  0  0  0  0
 12  4  1  0  0  0  0
 12 27  1  0  0  0  0
 13 18  1  0  0  0  0
 14 23  1  0  0  0  0
 15 23  1  0  0  0  0
 16  2  2  0  0  0  0
 17  3  1  0  0  0  0
 18 25  2  0  0  0  0
 19 26  2  0  0  0  0
 20 17  1  0  0  0  0
 20 22  1  0  0  0  0
 22  9  1  0  0  0  0
 22 10  1  0  0  0  0
 26 25  1  0  0  0  0
 26 17  1  0  0  0  0
 27 24  1  0  0  0  0
 27  7  1  0  0  0  0
 28 11  1  0  0  0  0
 30 29  1  0  0  0  0
 30 28  1  0  0  0  0
M  END
>  <MODEL>
3

>  <REMARK>
 VINA RESULT:      -8.8      2.644      5.901
  Name = 
  2 active torsions:
  status: ('A' for Active; 'I' for Inactive)
    1  A    between atoms: N_11  and  C_28
    2  A    between atoms: C_28  and  C_30
                            x       y       z     vdW  Elec       q    Type
                         _______ _______ _______ _____ _____    ______ ____

>  <TORSDO>
F 2

$$$$
=
 OpenBabel11122410243D

 30 35  0  0  1  0  0  0  0  0999 V2000
  187.9440  177.7800  142.7680 C   0  0  1  0  0  3  0  0  0  0  0  0
  186.6390  177.7890  145.0240 C   0  0  0  0  0  0  0  0  0  0  0  0
  184.4160  179.2430  140.7360 C   0  0  0  0  0  2  0  0  0  0  0  0
  187.9070  178.1370  141.2630 C   0  0  1  0  0  3  0  0  0  0  0  0
  189.2220  178.3610  143.3530 C   0  0  0  0  0  2  0  0  0  0  0  0
  191.3410  176.9590  140.6850 O   0  0  0  0  0  0  0  0  0  0  0  0
  187.9550  176.8180  138.3210 C   0  0  1  0  0  3  0  0  0  0  0  0
  190.3050  177.3820  141.2680 C   0  0  0  0  0  0  0  0  0  0  0  0
  186.6540  177.5980  138.1650 C   0  0  2  0  0  3  0  0  0  0  0  0
  184.9510  179.0030  139.3750 C   0  0  0  0  0  0  0  0  0  0  0  0
  190.3960  177.8780  142.6230 N   0  0  0  0  0  0  0  0  0  0  0  0
  188.9640  177.2670  140.5750 C   0  0  2  0  0  3  0  0  0  0  0  0
  185.4930  178.2540  145.8780 C   0  0  0  0  0  2  0  0  0  0  0  0
  186.8050  178.5060  136.9600 C   0  0  0  0  0  2  0  0  0  0  0  0
  188.4170  176.4250  136.9290 C   0  0  0  0  0  2  0  0  0  0  0  0
  187.5670  177.1260  145.5600 O   0  0  0  0  0  0  0  0  0  0  0  0
  185.6720  178.9790  141.5360 C   0  0  2  0  0  3  0  0  0  0  0  0
  184.3000  178.6870  145.0710 C   0  0  0  0  0  3  0  0  0  0  0  0
  186.6990  178.1350  143.5840 C   0  0  0  0  0  0  0  0  0  0  0  0
  186.4780  177.9660  140.7440 C   0  0  1  0  0  3  0  0  0  0  0  0
  184.3140  179.3020  138.3300 O   0  0  0  0  0  0  0  0  0  0  0  0
  186.2230  178.3460  139.3550 N   0  0  0  0  0  0  0  0  0  0  0  0
  187.7780  177.6180  135.7090 S   0  0  0  0  0  0  0  0  0  0  0  0
  189.3140  178.9870  138.7130 C   0  0  0  0  0  1  0  0  0  0  0  0
  184.3550  178.8740  143.7510 C   0  0  0  0  0  3  0  0  0  0  0  0
  185.5900  178.6180  142.9830 C   0  0  0  0  0  0  0  0  0  0  0  0
  189.0840  177.5210  139.0760 C   0  0  2  0  0  3  0  0  0  0  0  0
  191.6800  177.9420  143.3060 C   0  0  0  0  0  2  0  0  0  0  0  0
  191.6800  175.6950  144.0840 O   0  0  0  0  0  1  0  0  0  0  0  0
  191.6800  177.0210  144.5130 C   0  0  0  0  0  2  0  0  0  0  0  0
  1  5  1  1  0  0  0
  1 19  1  0  0  0  0
  2 16  2  0  0  0  0
  2 13  1  0  0  0  0
  3 17  1  0  0  0  0
  4  1  1  0  0  0  0
  6  8  2  0  0  0  0
  7 27  1  0  0  0  0
  8 11  1  0  0  0  0
  9  7  1  0  0  0  0
  9 22  1  0  0  0  0
 10  3  1  0  0  0  0
 11 28  1  0  0  0  0
 11  5  1  0  0  0  0
 12  4  1  0  0  0  0
 12  8  1  0  0  0  0
 14  9  1  0  0  0  0
 15  7  1  0  0  0  0
 17 26  1  0  0  0  0
 18 13  1  0  0  0  0
 19  2  1  0  0  0  0
 20  4  1  0  0  0  0
 20 17  1  0  0  0  0
 21 10  2  0  0  0  0
 22 10  1  0  0  0  0
 22 20  1  0  0  0  0
 23 15  1  0  0  0  0
 23 14  1  0  0  0  0
 24 27  1  0  0  0  0
 25 18  2  0  0  0  0
 26 19  2  0  0  0  0
 26 25  1  0  0  0  0
 27 12  1  0  0  0  0
 28 30  1  0  0  0  0
 29 30  1  0  0  0  0
M  END
>  <MODEL>
4

>  <REMARK>
 VINA RESULT:      -8.4      2.822      5.479
  Name = 
  2 active torsions:
  status: ('A' for Active; 'I' for Inactive)
    1  A    between atoms: N_11  and  C_28
    2  A    between atoms: C_28  and  C_30
                            x       y       z     vdW  Elec       q    Type
                         _______ _______ _______ _____ _____    ______ ____

>  <TORSDO>
F 2

$$$$
=
 OpenBabel11122410243D

 30 35  0  0  1  0  0  0  0  0999 V2000
  185.5930  178.6130  142.5710 C   0  0  1  0  0  3  0  0  0  0  0  0
  185.1630  178.9320  145.1220 C   0  0  0  0  0  0  0  0  0  0  0  0
  189.2740  176.5240  143.4660 C   0  0  0  0  0  2  0  0  0  0  0  0
  186.5010  177.9750  141.4930 C   0  0  1  0  0  3  0  0  0  0  0  0
  184.1530  178.2530  142.2380 C   0  0  0  0  0  2  0  0  0  0  0  0
  184.4790  179.2820  138.7160 O   0  0  0  0  0  0  0  0  0  0  0  0
  188.5520  178.7110  139.1150 C   0  0  1  0  0  3  0  0  0  0  0  0
  184.8200  178.8990  139.8690 C   0  0  0  0  0  0  0  0  0  0  0  0
  189.4920  177.8190  139.9170 C   0  0  2  0  0  3  0  0  0  0  0  0
  189.7670  176.5420  142.0690 C   0  0  0  0  0  0  0  0  0  0  0  0
  183.8110  178.6770  140.8790 N   0  0  0  0  0  0  0  0  0  0  0  0
  186.2910  178.7770  140.2050 C   0  0  2  0  0  3  0  0  0  0  0  0
  185.4090  178.5500  146.5540 C   0  0  0  0  0  2  0  0  0  0  0  0
  189.9710  176.7130  138.9950 C   0  0  0  0  0  2  0  0  0  0  0  0
  189.1470  178.8680  137.7280 C   0  0  0  0  0  2  0  0  0  0  0  0
  184.2430  179.7530  144.8600 O   0  0  0  0  0  0  0  0  0  0  0  0
  187.8690  177.0300  143.2300 C   0  0  2  0  0  3  0  0  0  0  0  0
  186.7400  177.8820  146.7610 C   0  0  0  0  0  3  0  0  0  0  0  0
  185.9590  178.3240  144.0290 C   0  0  0  0  0  0  0  0  0  0  0  0
  187.9400  177.9340  142.0120 C   0  0  1  0  0  3  0  0  0  0  0  0
  190.8510  176.0030  141.7220 O   0  0  0  0  0  0  0  0  0  0  0  0
  188.9360  177.2790  141.1650 N   0  0  0  0  0  0  0  0  0  0  0  0
  190.1800  177.4190  137.3350 S   0  0  0  0  0  0  0  0  0  0  0  0
  186.8840  176.7670  138.7370 C   0  0  0  0  0  1  0  0  0  0  0  0
  187.4940  177.4520  145.7470 C   0  0  0  0  0  3  0  0  0  0  0  0
  187.0880  177.6520  144.3410 C   0  0  0  0  0  0  0  0  0  0  0  0
  187.0950  178.2540  139.0200 C   0  0  2  0  0  3  0  0  0  0  0  0
  182.3980  178.8440  140.5670 C   0  0  0  0  0  2  0  0  0  0  0  0
  180.7970  179.7750  142.0590 O   0  0  0  0  0  1  0  0  0  0  0  0
  181.5550  178.6310  141.8120 C   0  0  0  0  0  2  0  0  0  0  0  0
  1  5  1  6  0  0  0
  1 19  1  0  0  0  0
  2 13  1  0  0  0  0
  4 20  1  0  0  0  0
  4  1  1  0  0  0  0
  6  8  2  0  0  0  0
  7  9  1  0  0  0  0
  8 12  1  0  0  0  0
  8 11  1  0  0  0  0
  9 22  1  0  0  0  0
 10  3  1  0  0  0  0
 11  5  1  0  0  0  0
 12  4  1  0  0  0  0
 13 18  1  0  0  0  0
 14  9  1  0  0  0  0
 15  7  1  0  0  0  0
 16  2  2  0  0  0  0
 17  3  1  0  0  0  0
 17 26  1  0  0  0  0
 19 26  2  0  0  0  0
 19  2  1  0  0  0  0
 20 17  1  0  0  0  0
 21 10  2  0  0  0  0
 22 20  1  0  0  0  0
 22 10  1  0  0  0  0
 23 15  1  0  0  0  0
 23 14  1  0  0  0  0
 24 27  1  0  0  0  0
 25 18  2  0  0  0  0
 26 25  1  0  0  0  0
 27  7  1  0  0  0  0
 27 12  1  0  0  0  0
 28 11  1  0  0  0  0
 28 30  1  0  0  0  0
 30 29  1  0  0  0  0
M  END
>  <MODEL>
5

>  <REMARK>
 VINA RESULT:      -8.3      2.934      6.412
  Name = 
  2 active torsions:
  status: ('A' for Active; 'I' for Inactive)
    1  A    between atoms: N_11  and  C_28
    2  A    between atoms: C_28  and  C_30
                            x       y       z     vdW  Elec       q    Type
                         _______ _______ _______ _____ _____    ______ ____

>  <TORSDO>
F 2

$$$$
=
 OpenBabel11122410243D

 30 35  0  0  1  0  0  0  0  0999 V2000
  188.0790  177.4800  143.8240 C   0  0  1  0  0  3  0  0  0  0  0  0
  186.1490  177.7280  145.5580 C   0  0  0  0  0  0  0  0  0  0  0  0
  185.4850  179.0400  140.7330 C   0  0  0  0  0  2  0  0  0  0  0  0
  188.5380  177.7370  142.3690 C   0  0  1  0  0  3  0  0  0  0  0  0
  189.1600  178.0110  144.7530 C   0  0  0  0  0  2  0  0  0  0  0  0
  191.8690  176.2930  142.9410 O   0  0  0  0  0  0  0  0  0  0  0  0
  189.3750  176.2240  139.6470 C   0  0  1  0  0  3  0  0  0  0  0  0
  190.7440  176.8240  143.1540 C   0  0  0  0  0  0  0  0  0  0  0  0
  188.2570  177.0780  139.0610 C   0  0  2  0  0  3  0  0  0  0  0  0
  186.3900  178.6730  139.6180 C   0  0  0  0  0  0  0  0  0  0  0  0
  190.4550  177.4020  144.4470 N   0  0  0  0  0  0  0  0  0  0  0  0
  189.6760  176.7540  142.0830 C   0  0  2  0  0  3  0  0  0  0  0  0
  184.8400  178.3260  145.9910 C   0  0  0  0  0  2  0  0  0  0  0  0
  188.8480  177.8910  137.9250 C   0  0  0  0  0  2  0  0  0  0  0  0
  190.2070  175.7090  138.4870 C   0  0  0  0  0  2  0  0  0  0  0  0
  186.8070  177.0420  146.3840 O   0  0  0  0  0  0  0  0  0  0  0  0
  186.4070  178.7450  141.8950 C   0  0  2  0  0  3  0  0  0  0  0  0
  183.9940  178.7840  144.8350 C   0  0  0  0  0  3  0  0  0  0  0  0
  186.6780  177.9720  144.1950 C   0  0  0  0  0  0  0  0  0  0  0  0
  187.3280  177.6300  141.4380 C   0  0  1  0  0  3  0  0  0  0  0  0
  186.1330  178.9440  138.4150 O   0  0  0  0  0  0  0  0  0  0  0  0
  187.5460  177.9320  140.0240 N   0  0  0  0  0  0  0  0  0  0  0  0
  190.0790  176.8580  137.0790 S   0  0  0  0  0  0  0  0  0  0  0  0
  190.7270  178.3180  140.3510 C   0  0  0  0  0  1  0  0  0  0  0  0
  184.4680  178.8780  143.5920 C   0  0  0  0  0  3  0  0  0  0  0  0
  185.8530  178.4880  143.2580 C   0  0  0  0  0  0  0  0  0  0  0  0
  190.2730  176.8980  140.6870 C   0  0  2  0  0  3  0  0  0  0  0  0
  191.4680  177.4240  145.4940 C   0  0  0  0  0  2  0  0  0  0  0  0
  191.8780  176.9000  147.7760 O   0  0  0  0  0  1  0  0  0  0  0  0
  190.9250  176.7970  146.7640 C   0  0  0  0  0  2  0  0  0  0  0  0
  1 19  1  0  0  0  0
  1  5  1  1  0  0  0
  2 13  1  0  0  0  0
  2 16  2  0  0  0  0
  3 17  1  0  0  0  0
  4  1  1  0  0  0  0
  6  8  2  0  0  0  0
  7 27  1  0  0  0  0
  8 11  1  0  0  0  0
  9  7  1  0  0  0  0
  9 22  1  0  0  0  0
 10 22  1  0  0  0  0
 10  3  1  0  0  0  0
 11  5  1  0  0  0  0
 11 28  1  0  0  0  0
 12  4  1  0  0  0  0
 12  8  1  0  0  0  0
 14  9  1  0  0  0  0
 15  7  1  0  0  0  0
 17 26  1  0  0  0  0
 18 13  1  0  0  0  0
 19  2  1  0  0  0  0
 20 17  1  0  0  0  0
 20  4  1  0  0  0  0
 21 10  2  0  0  0  0
 22 20  1  0  0  0  0
 23 14  1  0  0  0  0
 23 15  1  0  0  0  0
 24 27  1  0  0  0  0
 25 18  2  0  0  0  0
 26 25  1  0  0  0  0
 26 19  2  0  0  0  0
 27 12  1  0  0  0  0
 28 30  1  0  0  0  0
 30 29  1  0  0  0  0
M  END
>  <MODEL>
6

>  <REMARK>
 VINA RESULT:      -7.8      2.551      5.865
  Name = 
  2 active torsions:
  status: ('A' for Active; 'I' for Inactive)
    1  A    between atoms: N_11  and  C_28
    2  A    between atoms: C_28  and  C_30
                            x       y       z     vdW  Elec       q    Type
                         _______ _______ _______ _____ _____    ______ ____

>  <TORSDO>
F 2

$$$$
=
 OpenBabel11122410243D

 30 35  0  0  1  0  0  0  0  0999 V2000
  187.6270  178.2500  142.4390 C   0  0  1  0  0  3  0  0  0  0  0  0
  190.1930  178.1530  142.8840 C   0  0  0  0  0  0  0  0  0  0  0  0
  188.3230  177.2610  138.2860 C   0  0  0  0  0  2  0  0  0  0  0  0
  186.4940  178.0290  141.4090 C   0  0  1  0  0  3  0  0  0  0  0  0
  187.2440  177.5180  143.7160 C   0  0  0  0  0  2  0  0  0  0  0  0
  183.8580  178.9670  143.7920 O   0  0  0  0  0  0  0  0  0  0  0  0
  184.2300  179.5880  139.7240 C   0  0  1  0  0  3  0  0  0  0  0  0
  184.9650  178.5810  143.3260 C   0  0  0  0  0  0  0  0  0  0  0  0
  184.9370  178.9340  138.5430 C   0  0  2  0  0  3  0  0  0  0  0  0
  186.9400  177.5730  137.8530 C   0  0  0  0  0  0  0  0  0  0  0  0
  185.9360  177.9650  144.2000 N   0  0  0  0  0  0  0  0  0  0  0  0
  185.3000  178.8660  141.8770 C   0  0  2  0  0  3  0  0  0  0  0  0
  191.5770  177.7110  142.5020 C   0  0  0  0  0  2  0  0  0  0  0  0
  183.9060  178.1240  137.7810 C   0  0  0  0  0  2  0  0  0  0  0  0
  182.8730  180.0610  139.2340 C   0  0  0  0  0  2  0  0  0  0  0  0
  190.0150  178.6890  144.0110 O   0  0  0  0  0  0  0  0  0  0  0  0
  188.1300  177.3510  139.7820 C   0  0  2  0  0  3  0  0  0  0  0  0
  191.7230  177.4490  141.0290 C   0  0  0  0  0  3  0  0  0  0  0  0
  189.0480  177.9290  141.9700 C   0  0  0  0  0  0  0  0  0  0  0  0
  187.0190  178.3600  140.0110 C   0  0  1  0  0  3  0  0  0  0  0  0
  186.5470  177.4190  136.6660 O   0  0  0  0  0  0  0  0  0  0  0  0
  186.1150  178.1230  138.8860 N   0  0  0  0  0  0  0  0  0  0  0  0
  182.3340  179.0340  137.8290 S   0  0  0  0  0  0  0  0  0  0  0  0
  183.6260  177.2900  140.7520 C   0  0  0  0  0  1  0  0  0  0  0  0
  190.6750  177.3720  140.2060 C   0  0  0  0  0  3  0  0  0  0  0  0
  189.2950  177.5920  140.6860 C   0  0  0  0  0  0  0  0  0  0  0  0
  184.0720  178.7330  140.9830 C   0  0  2  0  0  3  0  0  0  0  0  0
  185.6320  177.7380  145.6070 C   0  0  0  0  0  2  0  0  0  0  0  0
  185.5880  179.5000  147.2030 O   0  0  0  0  0  1  0  0  0  0  0  0
  186.4480  178.6740  146.4800 C   0  0  0  0  0  2  0  0  0  0  0  0
  1  5  1  1  0  0  0
  2 16  2  0  0  0  0
  3 17  1  0  0  0  0
  4 12  1  0  0  0  0
  4  1  1  0  0  0  0
  5 11  1  0  0  0  0
  7 27  1  0  0  0  0
  8  6  2  0  0  0  0
  8 11  1  0  0  0  0
  9 22  1  0  0  0  0
  9  7  1  0  0  0  0
 10  3  1  0  0  0  0
 10 22  1  0  0  0  0
 11 28  1  0  0  0  0
 12  8  1  0  0  0  0
 13  2  1  0  0  0  0
 14 23  1  0  0  0  0
 14  9  1  0  0  0  0
 15  7  1  0  0  0  0
 17 20  1  0  0  0  0
 17 26  1  0  0  0  0
 18 13  1  0  0  0  0
 19  1  1  0  0  0  0
 19  2  1  0  0  0  0
 20  4  1  0  0  0  0
 21 10  2  0  0  0  0
 22 20  1  0  0  0  0
 23 15  1  0  0  0  0
 24 27  1  0  0  0  0
 25 26  1  0  0  0  0
 25 18  2  0  0  0  0
 26 19  2  0  0  0  0
 27 12  1  0  0  0  0
 28 30  1  0  0  0  0
 30 29  1  0  0  0  0
M  END
>  <MODEL>
7

>  <REMARK>
 VINA RESULT:      -7.5      2.783      6.011
  Name = 
  2 active torsions:
  status: ('A' for Active; 'I' for Inactive)
    1  A    between atoms: N_11  and  C_28
    2  A    between atoms: C_28  and  C_30
                            x       y       z     vdW  Elec       q    Type
                         _______ _______ _______ _____ _____    ______ ____

>  <TORSDO>
F 2

$$$$
=
 OpenBabel11122410243D

 30 35  0  0  1  0  0  0  0  0999 V2000
  188.3700  177.5120  142.5450 C   0  0  1  0  0  3  0  0  0  0  0  0
  190.3640  176.5800  143.9420 C   0  0  0  0  0  0  0  0  0  0  0  0
  186.2320  178.3830  146.2030 C   0  0  0  0  0  2  0  0  0  0  0  0
  186.9910  178.2130  142.5860 C   0  0  1  0  0  3  0  0  0  0  0  0
  189.2450  178.2630  141.5520 C   0  0  0  0  0  2  0  0  0  0  0  0
  186.6610  178.2400  138.9250 O   0  0  0  0  0  0  0  0  0  0  0  0
  183.8680  177.7520  141.9310 C   0  0  1  0  0  3  0  0  0  0  0  0
  187.1710  178.1910  140.0790 C   0  0  0  0  0  0  0  0  0  0  0  0
  183.7060  178.1450  143.3950 C   0  0  2  0  0  3  0  0  0  0  0  0
  184.9410  178.6570  145.5270 C   0  0  0  0  0  0  0  0  0  0  0  0
  188.6000  178.3330  140.2400 N   0  0  0  0  0  0  0  0  0  0  0  0
  186.2860  177.8810  141.2680 C   0  0  2  0  0  3  0  0  0  0  0  0
  191.1270  176.4700  145.2310 C   0  0  0  0  0  2  0  0  0  0  0  0
  182.7640  179.3320  143.4490 C   0  0  0  0  0  2  0  0  0  0  0  0
  182.5040  177.8710  141.2760 C   0  0  0  0  0  2  0  0  0  0  0  0
  190.8660  176.0940  142.8940 O   0  0  0  0  0  0  0  0  0  0  0  0
  187.1230  178.2910  144.9860 C   0  0  2  0  0  3  0  0  0  0  0  0
  190.2750  176.7370  146.4410 C   0  0  0  0  0  3  0  0  0  0  0  0
  189.0590  177.2820  143.8920 C   0  0  0  0  0  0  0  0  0  0  0  0
  186.2500  177.7830  143.8530 C   0  0  1  0  0  3  0  0  0  0  0  0
  183.9090  179.0180  146.1520 O   0  0  0  0  0  0  0  0  0  0  0  0
  184.9570  178.4140  144.1160 N   0  0  0  0  0  0  0  0  0  0  0  0
  181.5000  179.1040  142.1650 S   0  0  0  0  0  0  0  0  0  0  0  0
  184.9190  180.0430  141.3390 C   0  0  0  0  0  1  0  0  0  0  0  0
  189.0510  177.2610  146.3560 C   0  0  0  0  0  3  0  0  0  0  0  0
  188.4280  177.5670  145.0520 C   0  0  0  0  0  0  0  0  0  0  0  0
  184.9130  178.5290  141.1280 C   0  0  2  0  0  3  0  0  0  0  0  0
  189.4560  178.5810  139.0880 C   0  0  0  0  0  2  0  0  0  0  0  0
  189.4950  177.0880  137.2380 O   0  0  0  0  0  1  0  0  0  0  0  0
  189.9830  177.2710  138.5310 C   0  0  0  0  0  2  0  0  0  0  0  0
  1  5  1  6  0  0  0
  1  4  1  0  0  0  0
  1 19  1  0  0  0  0
  2 13  1  0  0  0  0
  4 20  1  0  0  0  0
  6  8  2  0  0  0  0
  7  9  1  0  0  0  0
  8 11  1  0  0  0  0
  8 12  1  0  0  0  0
  9 14  1  0  0  0  0
  9 22  1  0  0  0  0
 10 21  2  0  0  0  0
 10  3  1  0  0  0  0
 11  5  1  0  0  0  0
 12  4  1  0  0  0  0
 13 18  1  0  0  0  0
 15  7  1  0  0  0  0
 15 23  1  0  0  0  0
 16  2  2  0  0  0  0
 17 26  1  0  0  0  0
 17  3  1  0  0  0  0
 19  2  1  0  0  0  0
 19 26  2  0  0  0  0
 20 22  1  0  0  0  0
 20 17  1  0  0  0  0
 22 10  1  0  0  0  0
 23 14  1  0  0  0  0
 25 18  2  0  0  0  0
 26 25  1  0  0  0  0
 27 12  1  0  0  0  0
 27 24  1  0  0  0  0
 27  7  1  0  0  0  0
 28 11  1  0  0  0  0
 29 30  1  0  0  0  0
 30 28  1  0  0  0  0
M  END
>  <MODEL>
8

>  <REMARK>
 VINA RESULT:      -7.0      1.654      2.018
  Name = 
  2 active torsions:
  status: ('A' for Active; 'I' for Inactive)
    1  A    between atoms: N_11  and  C_28
    2  A    between atoms: C_28  and  C_30
                            x       y       z     vdW  Elec       q    Type
                         _______ _______ _______ _____ _____    ______ ____

>  <TORSDO>
F 2

$$$$
=
 OpenBabel11122410243D

 30 35  0  0  1  0  0  0  0  0999 V2000
  186.8650  177.9770  145.1440 C   0  0  1  0  0  3  0  0  0  0  0  0
  184.3210  178.1890  145.6720 C   0  0  0  0  0  0  0  0  0  0  0  0
  186.0690  178.9080  140.9950 C   0  0  0  0  0  2  0  0  0  0  0  0
  187.9710  178.1300  144.0730 C   0  0  1  0  0  3  0  0  0  0  0  0
  187.3210  178.7190  146.3920 C   0  0  0  0  0  2  0  0  0  0  0  0
  190.6460  177.1320  146.3870 O   0  0  0  0  0  0  0  0  0  0  0  0
  190.1110  176.4440  142.3480 C   0  0  1  0  0  3  0  0  0  0  0  0
  189.5400  177.5540  145.9500 C   0  0  0  0  0  0  0  0  0  0  0  0
  189.3910  177.1030  141.1770 C   0  0  2  0  0  3  0  0  0  0  0  0
  187.4230  178.5300  140.5240 C   0  0  0  0  0  0  0  0  0  0  0  0
  188.6250  178.2280  146.8420 N   0  0  0  0  0  0  0  0  0  0  0  0
  189.1450  177.2540  144.5190 C   0  0  2  0  0  3  0  0  0  0  0  0
  182.9440  178.6800  145.3260 C   0  0  0  0  0  2  0  0  0  0  0  0
  190.4280  177.8530  140.3640 C   0  0  0  0  0  2  0  0  0  0  0  0
  191.4290  175.9050  141.8240 C   0  0  0  0  0  2  0  0  0  0  0  0
  184.5160  177.6700  146.8030 O   0  0  0  0  0  0  0  0  0  0  0  0
  186.3090  178.8410  142.4860 C   0  0  2  0  0  3  0  0  0  0  0  0
  182.7600  178.9180  143.8530 C   0  0  0  0  0  3  0  0  0  0  0  0
  185.4430  178.3470  144.7160 C   0  0  0  0  0  0  0  0  0  0  0  0
  187.3850  177.7930  142.7000 C   0  0  1  0  0  3  0  0  0  0  0  0
  187.7810  178.6440  139.3220 O   0  0  0  0  0  0  0  0  0  0  0  0
  188.2590  177.9680  141.5410 N   0  0  0  0  0  0  0  0  0  0  0  0
  191.9620  176.8800  140.3800 S   0  0  0  0  0  0  0  0  0  0  0  0
  190.8420  178.7360  143.3050 C   0  0  0  0  0  1  0  0  0  0  0  0
  183.7820  178.9350  142.9940 C   0  0  0  0  0  3  0  0  0  0  0  0
  185.1660  178.6680  143.4330 C   0  0  0  0  0  0  0  0  0  0  0  0
  190.3460  177.3170  143.5820 C   0  0  2  0  0  3  0  0  0  0  0  0
  188.9860  178.4710  148.2320 C   0  0  0  0  0  2  0  0  0  0  0  0
  187.7630  176.5070  148.7810 O   0  0  0  0  0  1  0  0  0  0  0  0
  187.9680  177.8330  149.1600 C   0  0  0  0  0  2  0  0  0  0  0  0
  1  5  1  1  0  0  0
  2 16  2  0  0  0  0
  3 17  1  0  0  0  0
  4 12  1  0  0  0  0
  4  1  1  0  0  0  0
  5 11  1  0  0  0  0
  7 27  1  0  0  0  0
  8  6  2  0  0  0  0
  8 11  1  0  0  0  0
  9 22  1  0  0  0  0
  9  7  1  0  0  0  0
 10  3  1  0  0  0  0
 10 22  1  0  0  0  0
 11 28  1  0  0  0  0
 12  8  1  0  0  0  0
 13  2  1  0  0  0  0
 14 23  1  0  0  0  0
 14  9  1  0  0  0  0
 15  7  1  0  0  0  0
 17 20  1  0  0  0  0
 17 26  1  0  0  0  0
 18 13  1  0  0  0  0
 19  1  1  0  0  0  0
 19  2  1  0  0  0  0
 20  4  1  0  0  0  0
 21 10  2  0  0  0  0
 22 20  1  0  0  0  0
 23 15  1  0  0  0  0
 24 27  1  0  0  0  0
 25 26  1  0  0  0  0
 25 18  2  0  0  0  0
 26 19  2  0  0  0  0
 27 12  1  0  0  0  0
 28 30  1  0  0  0  0
 29 30  1  0  0  0  0
M  END
>  <MODEL>
9

>  <REMARK>
 VINA RESULT:      -6.9      2.587      6.719
  Name = 
  2 active torsions:
  status: ('A' for Active; 'I' for Inactive)
    1  A    between atoms: N_11  and  C_28
    2  A    between atoms: C_28  and  C_30
                            x       y       z     vdW  Elec       q    Type
                         _______ _______ _______ _____ _____    ______ ____

>  <TORSDO>
F 2

$$$$
