=
 OpenBabel11122411513D

 28 32  0  0  1  0  0  0  0  0999 V2000
  186.8380  177.6320  136.3640 C   0  0  0  0  0  0  0  0  0  0  0  0
  182.2030  175.8070  137.0580 O   0  0  0  0  0  0  0  0  0  0  0  0
  186.0500  177.9380  142.3650 O   0  0  0  0  0  1  0  0  0  0  0  0
  186.0810  175.0340  135.6180 C   0  0  0  0  0  3  0  0  0  0  0  0
  184.5040  179.1480  140.9650 C   0  0  1  0  0  3  0  0  0  0  0  0
  187.3570  178.9850  136.7460 C   0  0  0  0  0  2  0  0  0  0  0  0
  182.9450  175.8200  139.3920 O   0  0  0  0  0  0  0  0  0  0  0  0
  182.4400  176.6730  138.2610 S   0  0  0  0  0  0  0  0  0  0  0  0
  181.2650  178.4070  139.7460 C   0  0  2  0  0  3  0  0  0  0  0  0
  183.6250  177.9500  137.8450 C   0  0  1  0  0  3  0  0  0  0  0  0
  189.1840  176.9900  138.8120 O   0  0  0  0  0  0  0  0  0  0  0  0
  185.6820  178.6840  138.9080 N   0  0  1  0  0  0  0  0  0  0  0  0
  181.9890  179.5990  139.1330 C   0  0  0  0  0  2  0  0  0  0  0  0
  180.9520  177.4230  138.7220 N   0  0  0  0  0  2  0  0  0  0  0  0
  188.6250  178.1140  138.7280 C   0  0  0  0  0  0  0  0  0  0  0  0
  185.8200  176.9560  137.0950 C   0  0  0  0  0  0  0  0  0  0  0  0
  185.9450  178.8280  141.2940 C   0  0  2  0  0  3  0  0  0  0  0  0
  179.9810  178.8830  140.3930 C   0  0  0  0  0  1  0  0  0  0  0  0
  187.8730  178.6160  139.8310 N   0  0  0  0  0  2  0  0  0  0  0  0
  185.4650  175.6570  136.7040 C   0  0  0  0  0  3  0  0  0  0  0  0
  187.4460  176.9950  135.2750 C   0  0  0  0  0  3  0  0  0  0  0  0
  187.0700  175.7050  134.9000 C   0  0  0  0  0  3  0  0  0  0  0  0
  188.7110  178.8930  137.4540 C   0  0  0  0  0  2  0  0  0  0  0  0
  184.6030  179.4850  139.4770 C   0  0  1  0  0  3  0  0  0  0  0  0
  186.4920  178.2020  140.0250 C   0  0  2  0  0  3  0  0  0  0  0  0
  183.3850  179.2490  138.5970 C   0  0  1  0  0  3  0  0  0  0  0  0
  183.7130  178.0150  141.1770 O   0  0  0  0  0  1  0  0  0  0  0  0
  185.0380  177.5390  138.2560 C   0  0  2  0  0  3  0  0  0  0  0  0
  1  6  1  0  0  0  0
  1 16  1  0  0  0  0
  2  8  2  0  0  0  0
  4 20  1  0  0  0  0
  5 27  1  6  0  0  0
  5 17  1  0  0  0  0
  6 23  1  0  0  0  0
  8 14  1  0  0  0  0
  8  7  2  0  0  0  0
  9 18  1  6  0  0  0
 10 28  1  0  0  0  0
 10  8  1  1  0  0  0
 10 26  1  0  0  0  0
 12 24  1  0  0  0  0
 12 25  1  0  0  0  0
 13  9  1  0  0  0  0
 14  9  1  0  0  0  0
 15 11  2  0  0  0  0
 15 19  1  0  0  0  0
 16 28  1  0  0  0  0
 17  3  1  0  0  0  0
 19 25  1  0  0  0  0
 20 16  2  0  0  0  0
 21  1  2  0  0  0  0
 22 21  1  0  0  0  0
 22  4  2  0  0  0  0
 23 15  1  0  0  0  0
 24  5  1  0  0  0  0
 25 17  1  0  0  0  0
 26 13  1  0  0  0  0
 26 24  1  0  0  0  0
 28 12  1  0  0  0  0
M  END
>  <MODEL>
1

>  <REMARK>
 VINA RESULT:      -6.5      0.000      0.000
  Name = 
  0 active torsions:
  status: ('A' for Active; 'I' for Inactive)
                            x       y       z     vdW  Elec       q    Type
                         _______ _______ _______ _____ _____    ______ ____

>  <TORSDO>
F 0

$$$$
=
 OpenBabel11122411513D

 28 32  0  0  1  0  0  0  0  0999 V2000
  188.2060  176.9250  142.4590 C   0  0  0  0  0  0  0  0  0  0  0  0
  186.7240  178.5430  137.9340 O   0  0  0  0  0  0  0  0  0  0  0  0
  193.3980  178.2620  139.6340 O   0  0  0  0  0  1  0  0  0  0  0  0
  186.5340  179.1480  142.0940 C   0  0  0  0  0  3  0  0  0  0  0  0
  191.9650  176.6030  138.6290 C   0  0  1  0  0  3  0  0  0  0  0  0
  189.1140  175.7730  142.7690 C   0  0  0  0  0  2  0  0  0  0  0  0
  189.0700  179.2370  137.8220 O   0  0  0  0  0  0  0  0  0  0  0  0
  188.1310  178.0680  137.7110 S   0  0  0  0  0  0  0  0  0  0  0  0
  189.5590  176.7430  136.0370 C   0  0  2  0  0  3  0  0  0  0  0  0
  188.5290  176.8120  138.9240 C   0  0  1  0  0  3  0  0  0  0  0  0
  191.0110  178.3900  143.8330 O   0  0  0  0  0  0  0  0  0  0  0  0
  190.3920  176.5510  140.4610 N   0  0  1  0  0  0  0  0  0  0  0  0
  189.5990  175.4810  136.8900 C   0  0  0  0  0  2  0  0  0  0  0  0
  188.2520  177.3760  136.1310 N   0  0  0  0  0  2  0  0  0  0  0  0
  191.0690  177.2520  143.3010 C   0  0  0  0  0  0  0  0  0  0  0  0
  188.3190  177.7060  141.2750 C   0  0  0  0  0  0  0  0  0  0  0  0
  192.6580  177.1020  139.8770 C   0  0  2  0  0  3  0  0  0  0  0  0
  189.8370  176.3800  134.5940 C   0  0  0  0  0  1  0  0  0  0  0  0
  191.9450  177.0280  142.1970 N   0  0  0  0  0  2  0  0  0  0  0  0
  187.4750  178.8140  141.1200 C   0  0  0  0  0  3  0  0  0  0  0  0
  187.2550  177.2710  143.4280 C   0  0  0  0  0  3  0  0  0  0  0  0
  186.4200  178.3730  143.2470 C   0  0  0  0  0  3  0  0  0  0  0  0
  190.1820  176.1550  143.7970 C   0  0  0  0  0  2  0  0  0  0  0  0
  190.7640  175.8690  139.2250 C   0  0  1  0  0  3  0  0  0  0  0  0
  191.5300  177.3830  140.8500 C   0  0  2  0  0  3  0  0  0  0  0  0
  189.4940  175.7630  138.3960 C   0  0  1  0  0  3  0  0  0  0  0  0
  191.5600  177.6920  137.8510 O   0  0  0  0  0  1  0  0  0  0  0  0
  189.2590  177.4190  140.1200 C   0  0  2  0  0  3  0  0  0  0  0  0
  1  6  1  0  0  0  0
  1 21  1  0  0  0  0
  3 17  1  0  0  0  0
  4 22  1  0  0  0  0
  5 27  1  6  0  0  0
  5 24  1  0  0  0  0
  5 17  1  0  0  0  0
  6 23  1  0  0  0  0
  8  7  2  0  0  0  0
  8  2  2  0  0  0  0
  9 18  1  6  0  0  0
  9 14  1  0  0  0  0
  9 13  1  0  0  0  0
 10  8  1  6  0  0  0
 10 28  1  0  0  0  0
 12 25  1  0  0  0  0
 13 26  1  0  0  0  0
 14  8  1  0  0  0  0
 15 23  1  0  0  0  0
 15 11  2  0  0  0  0
 16  1  2  0  0  0  0
 17 25  1  0  0  0  0
 19 15  1  0  0  0  0
 20 16  1  0  0  0  0
 20  4  2  0  0  0  0
 22 21  2  0  0  0  0
 24 12  1  0  0  0  0
 25 19  1  0  0  0  0
 26 10  1  0  0  0  0
 26 24  1  0  0  0  0
 28 12  1  0  0  0  0
 28 16  1  0  0  0  0
M  END
>  <MODEL>
2

>  <REMARK>
 VINA RESULT:      -6.4      4.192      7.112
  Name = 
  0 active torsions:
  status: ('A' for Active; 'I' for Inactive)
                            x       y       z     vdW  Elec       q    Type
                         _______ _______ _______ _____ _____    ______ ____

>  <TORSDO>
F 0

$$$$
=
 OpenBabel11122411513D

 28 32  0  0  1  0  0  0  0  0999 V2000
  183.2370  178.0020  137.3830 C   0  0  0  0  0  0  0  0  0  0  0  0
  188.1060  179.1370  137.9260 O   0  0  0  0  0  0  0  0  0  0  0  0
  185.9400  172.5940  137.8010 O   0  0  0  0  0  1  0  0  0  0  0  0
  184.2310  179.5290  139.5170 C   0  0  0  0  0  3  0  0  0  0  0  0
  186.6190  174.0550  136.0060 C   0  0  1  0  0  3  0  0  0  0  0  0
  182.6030  177.1770  136.3040 C   0  0  0  0  0  2  0  0  0  0  0  0
  188.2210  176.7540  138.4820 O   0  0  0  0  0  0  0  0  0  0  0  0
  188.1150  177.7470  137.3570 S   0  0  0  0  0  0  0  0  0  0  0  0
  189.3270  176.3000  135.6160 C   0  0  2  0  0  3  0  0  0  0  0  0
  186.6150  177.4860  136.4140 C   0  0  1  0  0  3  0  0  0  0  0  0
  182.0620  175.2040  139.0240 O   0  0  0  0  0  0  0  0  0  0  0  0
  184.9380  175.7300  136.4570 N   0  0  1  0  0  0  0  0  0  0  0  0
  188.1990  176.3760  134.5940 C   0  0  0  0  0  2  0  0  0  0  0  0
  189.4740  177.5740  136.3030 N   0  0  0  0  0  2  0  0  0  0  0  0
  182.3050  175.1770  137.7900 C   0  0  0  0  0  0  0  0  0  0  0  0
  184.5620  177.7800  137.8520 C   0  0  0  0  0  0  0  0  0  0  0  0
  185.4800  173.4080  136.7630 C   0  0  2  0  0  3  0  0  0  0  0  0
  190.6210  175.9600  134.9070 C   0  0  0  0  0  1  0  0  0  0  0  0
  183.2620  174.2540  137.2750 N   0  0  0  0  0  2  0  0  0  0  0  0
  185.0320  178.5540  138.9230 C   0  0  0  0  0  3  0  0  0  0  0  0
  182.4450  178.9860  137.9870 C   0  0  0  0  0  3  0  0  0  0  0  0
  182.9380  179.7490  139.0460 C   0  0  0  0  0  3  0  0  0  0  0  0
  181.6250  176.1490  136.8790 C   0  0  0  0  0  2  0  0  0  0  0  0
  185.9480  175.3260  135.4840 C   0  0  1  0  0  3  0  0  0  0  0  0
  184.6800  174.5730  137.3120 C   0  0  2  0  0  3  0  0  0  0  0  0
  186.8140  176.5510  135.2320 C   0  0  1  0  0  3  0  0  0  0  0  0
  187.6580  174.3560  136.8930 O   0  0  0  0  0  1  0  0  0  0  0  0
  185.5500  176.7930  137.2610 C   0  0  2  0  0  3  0  0  0  0  0  0
  1 16  2  0  0  0  0
  1 21  1  0  0  0  0
  5 17  1  0  0  0  0
  5 27  1  1  0  0  0
  6 23  1  0  0  0  0
  6  1  1  0  0  0  0
  8  2  2  0  0  0  0
  8  7  2  0  0  0  0
  9 18  1  6  0  0  0
  9 14  1  0  0  0  0
 10 28  1  0  0  0  0
 10  8  1  1  0  0  0
 12 28  1  0  0  0  0
 12 25  1  0  0  0  0
 13 26  1  0  0  0  0
 13  9  1  0  0  0  0
 14  8  1  0  0  0  0
 15 11  2  0  0  0  0
 16 20  1  0  0  0  0
 17 25  1  0  0  0  0
 17  3  1  0  0  0  0
 19 25  1  0  0  0  0
 19 15  1  0  0  0  0
 20  4  2  0  0  0  0
 21 22  2  0  0  0  0
 22  4  1  0  0  0  0
 23 15  1  0  0  0  0
 24  5  1  0  0  0  0
 24 12  1  0  0  0  0
 26 24  1  0  0  0  0
 26 10  1  0  0  0  0
 28 16  1  0  0  0  0
M  END
>  <MODEL>
3

>  <REMARK>
 VINA RESULT:      -5.8      2.540      6.565
  Name = 
  0 active torsions:
  status: ('A' for Active; 'I' for Inactive)
                            x       y       z     vdW  Elec       q    Type
                         _______ _______ _______ _____ _____    ______ ____

>  <TORSDO>
F 0

$$$$
=
 OpenBabel11122411513D

 28 32  0  0  1  0  0  0  0  0999 V2000
  186.6070  177.3690  146.0040 C   0  0  0  0  0  0  0  0  0  0  0  0
  186.3400  178.7080  141.1640 O   0  0  0  0  0  0  0  0  0  0  0  0
  192.2300  179.2200  144.7080 O   0  0  0  0  0  1  0  0  0  0  0  0
  184.8940  179.3810  145.0580 C   0  0  0  0  0  3  0  0  0  0  0  0
  191.3250  177.3880  143.4270 C   0  0  1  0  0  3  0  0  0  0  0  0
  187.4980  176.3340  146.6210 C   0  0  0  0  0  2  0  0  0  0  0  0
  188.5350  179.6600  141.6870 O   0  0  0  0  0  0  0  0  0  0  0  0
  187.7920  178.3900  141.3770 S   0  0  0  0  0  0  0  0  0  0  0  0
  189.7700  177.1980  140.2540 C   0  0  2  0  0  3  0  0  0  0  0  0
  187.9480  177.2140  142.7190 C   0  0  1  0  0  3  0  0  0  0  0  0
  188.7300  179.1720  148.0390 O   0  0  0  0  0  0  0  0  0  0  0  0
  189.3030  177.2000  144.7350 N   0  0  1  0  0  0  0  0  0  0  0  0
  189.6900  175.9670  141.1490 C   0  0  0  0  0  2  0  0  0  0  0  0
  188.4340  177.6810  139.9370 N   0  0  0  0  0  2  0  0  0  0  0  0
  189.0550  178.0360  147.6080 C   0  0  0  0  0  0  0  0  0  0  0  0
  186.9770  178.1310  144.8610 C   0  0  0  0  0  0  0  0  0  0  0  0
  191.5730  177.9900  144.7920 C   0  0  2  0  0  3  0  0  0  0  0  0
  190.4890  176.8360  138.9710 C   0  0  0  0  0  1  0  0  0  0  0  0
  190.2310  177.8880  146.8130 N   0  0  0  0  0  2  0  0  0  0  0  0
  186.1060  179.1330  144.4120 C   0  0  0  0  0  3  0  0  0  0  0  0
  185.3860  177.6270  146.6410 C   0  0  0  0  0  3  0  0  0  0  0  0
  184.5320  178.6240  146.1710 C   0  0  0  0  0  3  0  0  0  0  0  0
  188.1790  176.8570  147.8890 C   0  0  0  0  0  2  0  0  0  0  0  0
  190.0840  176.5360  143.6950 C   0  0  1  0  0  3  0  0  0  0  0  0
  190.1890  178.1630  145.3860 C   0  0  2  0  0  3  0  0  0  0  0  0
  189.1250  176.2700  142.5450 C   0  0  1  0  0  3  0  0  0  0  0  0
  191.0540  178.4070  142.5080 O   0  0  0  0  0  1  0  0  0  0  0  0
  188.2350  177.9270  144.0390 C   0  0  2  0  0  3  0  0  0  0  0  0
  1  6  1  0  0  0  0
  1 21  1  0  0  0  0
  2  8  2  0  0  0  0
  3 17  1  0  0  0  0
  4 22  1  0  0  0  0
  5 27  1  6  0  0  0
  5 24  1  0  0  0  0
  5 17  1  0  0  0  0
  6 23  1  0  0  0  0
  8  7  2  0  0  0  0
  9 18  1  6  0  0  0
  9 13  1  0  0  0  0
 10  8  1  6  0  0  0
 10 28  1  0  0  0  0
 12 25  1  0  0  0  0
 13 26  1  0  0  0  0
 14  9  1  0  0  0  0
 14  8  1  0  0  0  0
 15 23  1  0  0  0  0
 15 11  2  0  0  0  0
 16  1  2  0  0  0  0
 17 25  1  0  0  0  0
 19 15  1  0  0  0  0
 20 16  1  0  0  0  0
 20  4  2  0  0  0  0
 22 21  2  0  0  0  0
 24 12  1  0  0  0  0
 25 19  1  0  0  0  0
 26 10  1  0  0  0  0
 26 24  1  0  0  0  0
 28 12  1  0  0  0  0
 28 16  1  0  0  0  0
M  END
>  <MODEL>
4

>  <REMARK>
 VINA RESULT:      -5.7      5.004      8.470
  Name = 
  0 active torsions:
  status: ('A' for Active; 'I' for Inactive)
                            x       y       z     vdW  Elec       q    Type
                         _______ _______ _______ _____ _____    ______ ____

>  <TORSDO>
F 0

$$$$
=
 OpenBabel11122411513D

 28 32  0  0  1  0  0  0  0  0999 V2000
  185.7910  176.2530  136.1390 C   0  0  0  0  0  0  0  0  0  0  0  0
  181.3290  174.5470  137.7110 O   0  0  0  0  0  0  0  0  0  0  0  0
  185.1080  178.8100  141.5910 O   0  0  0  0  0  1  0  0  0  0  0  0
  185.2240  173.5270  136.4890 C   0  0  0  0  0  3  0  0  0  0  0  0
  183.4430  179.2810  139.9120 C   0  0  1  0  0  3  0  0  0  0  0  0
  186.2110  177.6790  135.9440 C   0  0  0  0  0  2  0  0  0  0  0  0
  182.1160  175.5110  139.8200 O   0  0  0  0  0  0  0  0  0  0  0  0
  181.5230  175.8250  138.4750 S   0  0  0  0  0  0  0  0  0  0  0  0
  180.2460  177.9190  139.2350 C   0  0  2  0  0  3  0  0  0  0  0  0
  182.5950  176.9140  137.5410 C   0  0  1  0  0  3  0  0  0  0  0  0
  188.2310  176.7610  138.5250 O   0  0  0  0  0  0  0  0  0  0  0  0
  184.6100  178.1320  138.1360 N   0  0  1  0  0  0  0  0  0  0  0  0
  180.8620  178.8250  138.1750 C   0  0  0  0  0  2  0  0  0  0  0  0
  179.9900  176.5970  138.6850 N   0  0  0  0  0  2  0  0  0  0  0  0
  187.5840  177.7270  138.0440 C   0  0  0  0  0  0  0  0  0  0  0  0
  184.8450  175.8500  137.1230 C   0  0  0  0  0  0  0  0  0  0  0  0
  184.9110  179.2060  140.2660 C   0  0  2  0  0  3  0  0  0  0  0  0
  178.9430  178.5250  139.7110 C   0  0  0  0  0  1  0  0  0  0  0  0
  186.8180  178.5680  138.9040 N   0  0  0  0  0  2  0  0  0  0  0  0
  184.5840  174.4810  137.2800 C   0  0  0  0  0  3  0  0  0  0  0  0
  186.4250  175.2850  135.3500 C   0  0  0  0  0  3  0  0  0  0  0  0
  186.1420  173.9290  135.5200 C   0  0  0  0  0  3  0  0  0  0  0  0
  187.5820  177.9550  136.5660 C   0  0  0  0  0  2  0  0  0  0  0  0
  183.4840  179.0210  138.4060 C   0  0  1  0  0  3  0  0  0  0  0  0
  185.4790  178.1740  139.3110 C   0  0  2  0  0  3  0  0  0  0  0  0
  182.2700  178.3840  137.7460 C   0  0  1  0  0  3  0  0  0  0  0  0
  182.7470  178.2700  140.5830 O   0  0  0  0  0  1  0  0  0  0  0  0
  184.0440  176.7850  138.0080 C   0  0  2  0  0  3  0  0  0  0  0  0
  1 16  1  0  0  0  0
  2  8  2  0  0  0  0
  4 20  1  0  0  0  0
  5 17  1  0  0  0  0
  5 27  1  1  0  0  0
  6  1  1  0  0  0  0
  6 23  1  0  0  0  0
  8 14  1  0  0  0  0
  8  7  2  0  0  0  0
  9 18  1  6  0  0  0
 10 26  1  0  0  0  0
 10 28  1  0  0  0  0
 10  8  1  1  0  0  0
 12 24  1  0  0  0  0
 12 25  1  0  0  0  0
 13  9  1  0  0  0  0
 14  9  1  0  0  0  0
 15 11  2  0  0  0  0
 15 19  1  0  0  0  0
 16 20  2  0  0  0  0
 16 28  1  0  0  0  0
 17  3  1  0  0  0  0
 19 25  1  0  0  0  0
 21 22  1  0  0  0  0
 21  1  2  0  0  0  0
 22  4  2  0  0  0  0
 23 15  1  0  0  0  0
 24  5  1  0  0  0  0
 25 17  1  0  0  0  0
 26 13  1  0  0  0  0
 26 24  1  0  0  0  0
 28 12  1  0  0  0  0
M  END
>  <MODEL>
5

>  <REMARK>
 VINA RESULT:      -5.4      1.235      1.524
  Name = 
  0 active torsions:
  status: ('A' for Active; 'I' for Inactive)
                            x       y       z     vdW  Elec       q    Type
                         _______ _______ _______ _____ _____    ______ ____

>  <TORSDO>
F 0

$$$$
=
 OpenBabel11122411513D

 28 32  0  0  1  0  0  0  0  0999 V2000
  182.0740  177.8930  140.2790 C   0  0  0  0  0  0  0  0  0  0  0  0
  179.2410  175.4490  136.9200 O   0  0  0  0  0  0  0  0  0  0  0  0
  185.5800  177.6500  135.3420 O   0  0  0  0  0  1  0  0  0  0  0  0
  179.5750  178.8260  139.4060 C   0  0  0  0  0  3  0  0  0  0  0  0
  184.8380  175.5640  136.2990 C   0  0  1  0  0  3  0  0  0  0  0  0
  183.4270  177.5040  140.7940 C   0  0  0  0  0  2  0  0  0  0  0  0
  181.0000  176.2400  135.4090 O   0  0  0  0  0  0  0  0  0  0  0  0
  180.6490  175.2140  136.4520 S   0  0  0  0  0  0  0  0  0  0  0  0
  182.1730  173.3670  135.5250 C   0  0  2  0  0  3  0  0  0  0  0  0
  181.7610  175.3200  137.8510 C   0  0  1  0  0  3  0  0  0  0  0  0
  184.1810  180.3550  139.0930 O   0  0  0  0  0  0  0  0  0  0  0  0
  183.8020  176.5800  138.2300 N   0  0  1  0  0  0  0  0  0  0  0  0
  182.9050  173.1450  136.8430 C   0  0  0  0  0  2  0  0  0  0  0  0
  180.7630  173.6310  135.7670 N   0  0  0  0  0  2  0  0  0  0  0  0
  184.6220  179.2190  139.4050 C   0  0  0  0  0  0  0  0  0  0  0  0
  181.6230  177.5800  138.9660 C   0  0  0  0  0  0  0  0  0  0  0  0
  185.4660  176.9200  136.5280 C   0  0  2  0  0  3  0  0  0  0  0  0
  182.3100  172.1300  134.6630 C   0  0  0  0  0  1  0  0  0  0  0  0
  185.2910  178.4240  138.4280 N   0  0  0  0  0  2  0  0  0  0  0  0
  180.3730  178.0620  138.5540 C   0  0  0  0  0  3  0  0  0  0  0  0
  181.2610  178.6590  141.1250 C   0  0  0  0  0  3  0  0  0  0  0  0
  180.0180  179.1210  140.6950 C   0  0  0  0  0  3  0  0  0  0  0  0
  184.3970  178.6880  140.7850 C   0  0  0  0  0  2  0  0  0  0  0  0
  184.1980  175.2950  137.6610 C   0  0  1  0  0  3  0  0  0  0  0  0
  184.5250  177.6150  137.4930 C   0  0  2  0  0  3  0  0  0  0  0  0
  182.9670  174.4040  137.7200 C   0  0  1  0  0  3  0  0  0  0  0  0
  183.8700  175.6600  135.2930 O   0  0  0  0  0  1  0  0  0  0  0  0
  182.3660  176.7180  137.9650 C   0  0  2  0  0  3  0  0  0  0  0  0
  1  6  1  0  0  0  0
  1 21  1  0  0  0  0
  3 17  1  0  0  0  0
  4 22  1  0  0  0  0
  5 27  1  6  0  0  0
  5 17  1  0  0  0  0
  5 24  1  0  0  0  0
  7  8  2  0  0  0  0
  8  2  2  0  0  0  0
  9 18  1  6  0  0  0
  9 14  1  0  0  0  0
  9 13  1  0  0  0  0
 10  8  1  6  0  0  0
 10 28  1  0  0  0  0
 11 15  2  0  0  0  0
 13 26  1  0  0  0  0
 14  8  1  0  0  0  0
 15 23  1  0  0  0  0
 16  1  2  0  0  0  0
 17 25  1  0  0  0  0
 19 15  1  0  0  0  0
 20 16  1  0  0  0  0
 20  4  2  0  0  0  0
 22 21  2  0  0  0  0
 23  6  1  0  0  0  0
 24 26  1  0  0  0  0
 24 12  1  0  0  0  0
 25 12  1  0  0  0  0
 25 19  1  0  0  0  0
 26 10  1  0  0  0  0
 28 12  1  0  0  0  0
 28 16  1  0  0  0  0
M  END
>  <MODEL>
6

>  <REMARK>
 VINA RESULT:      -5.3      2.541      5.771
  Name = 
  0 active torsions:
  status: ('A' for Active; 'I' for Inactive)
                            x       y       z     vdW  Elec       q    Type
                         _______ _______ _______ _____ _____    ______ ____

>  <TORSDO>
F 0

$$$$
=
 OpenBabel11122411513D

 28 32  0  0  1  0  0  0  0  0999 V2000
  189.0710  176.2490  136.2450 C   0  0  0  0  0  0  0  0  0  0  0  0
  186.2480  172.0970  135.9810 O   0  0  0  0  0  0  0  0  0  0  0  0
  184.1000  177.6820  139.4010 O   0  0  0  0  0  1  0  0  0  0  0  0
  189.9110  173.7550  137.2180 C   0  0  0  0  0  3  0  0  0  0  0  0
  183.8230  177.0580  137.0880 C   0  0  1  0  0  3  0  0  0  0  0  0
  188.7160  177.6310  135.7850 C   0  0  0  0  0  2  0  0  0  0  0  0
  184.9890  173.2860  137.7130 O   0  0  0  0  0  0  0  0  0  0  0  0
  185.2580  173.1970  136.2360 S   0  0  0  0  0  0  0  0  0  0  0  0
  182.9410  174.0210  135.4980 C   0  0  2  0  0  3  0  0  0  0  0  0
  185.9190  174.7400  135.6130 C   0  0  1  0  0  3  0  0  0  0  0  0
  188.9070  178.1030  139.1500 O   0  0  0  0  0  0  0  0  0  0  0  0
  186.1900  176.9320  136.6230 N   0  0  1  0  0  0  0  0  0  0  0  0
  183.4880  175.1400  134.6200 C   0  0  0  0  0  2  0  0  0  0  0  0
  183.7870  172.8420  135.4000 N   0  0  0  0  0  2  0  0  0  0  0  0
  188.2970  178.4690  138.1130 C   0  0  0  0  0  0  0  0  0  0  0  0
  188.1080  175.3190  136.7270 C   0  0  0  0  0  0  0  0  0  0  0  0
  184.5610  177.9040  138.1020 C   0  0  2  0  0  3  0  0  0  0  0  0
  181.5390  173.6720  135.0450 C   0  0  0  0  0  1  0  0  0  0  0  0
  186.8790  178.6280  138.1420 N   0  0  0  0  0  2  0  0  0  0  0  0
  188.5550  174.0820  137.2120 C   0  0  0  0  0  3  0  0  0  0  0  0
  190.4300  175.9060  136.2550 C   0  0  0  0  0  3  0  0  0  0  0  0
  190.8490  174.6660  136.7350 C   0  0  0  0  0  3  0  0  0  0  0  0
  189.0560  178.6850  136.8420 C   0  0  0  0  0  2  0  0  0  0  0  0
  184.8760  176.9190  135.9880 C   0  0  1  0  0  3  0  0  0  0  0  0
  186.0100  177.4750  137.9690 C   0  0  2  0  0  3  0  0  0  0  0  0
  184.8410  175.6830  135.1030 C   0  0  1  0  0  3  0  0  0  0  0  0
  183.5120  175.8170  137.6530 O   0  0  0  0  0  1  0  0  0  0  0  0
  186.6060  175.5290  136.7260 C   0  0  2  0  0  3  0  0  0  0  0  0
  1 21  2  0  0  0  0
  1 16  1  0  0  0  0
  2  8  2  0  0  0  0
  5 27  1  1  0  0  0
  5 17  1  0  0  0  0
  6  1  1  0  0  0  0
  6 23  1  0  0  0  0
  8  7  2  0  0  0  0
  9 18  1  6  0  0  0
 10  8  1  1  0  0  0
 10 28  1  0  0  0  0
 12 28  1  0  0  0  0
 12 25  1  0  0  0  0
 13 26  1  0  0  0  0
 13  9  1  0  0  0  0
 14  9  1  0  0  0  0
 14  8  1  0  0  0  0
 15 19  1  0  0  0  0
 15 11  2  0  0  0  0
 16 20  2  0  0  0  0
 17  3  1  0  0  0  0
 20  4  1  0  0  0  0
 21 22  1  0  0  0  0
 22  4  2  0  0  0  0
 23 15  1  0  0  0  0
 24 12  1  0  0  0  0
 24  5  1  0  0  0  0
 25 17  1  0  0  0  0
 25 19  1  0  0  0  0
 26 10  1  0  0  0  0
 26 24  1  0  0  0  0
 28 16  1  0  0  0  0
M  END
>  <MODEL>
7

>  <REMARK>
 VINA RESULT:      -5.3      2.952      4.175
  Name = 
  0 active torsions:
  status: ('A' for Active; 'I' for Inactive)
                            x       y       z     vdW  Elec       q    Type
                         _______ _______ _______ _____ _____    ______ ____

>  <TORSDO>
F 0

$$$$
=
 OpenBabel11122411513D

 28 32  0  0  1  0  0  0  0  0999 V2000
  192.3530  174.6820  135.2770 C   0  0  0  0  0  0  0  0  0  0  0  0
  187.5070  173.3560  135.0640 O   0  0  0  0  0  0  0  0  0  0  0  0
  190.0130  176.9430  140.3900 O   0  0  0  0  0  1  0  0  0  0  0  0
  191.4930  172.0140  135.1490 C   0  0  0  0  0  3  0  0  0  0  0  0
  189.0770  177.6920  138.2970 C   0  0  1  0  0  3  0  0  0  0  0  0
  192.9220  176.0650  135.3750 C   0  0  0  0  0  2  0  0  0  0  0  0
  187.5820  174.0960  137.3980 O   0  0  0  0  0  0  0  0  0  0  0  0
  187.5190  174.5560  135.9670 S   0  0  0  0  0  0  0  0  0  0  0  0
  186.2220  176.7200  136.4450 C   0  0  2  0  0  3  0  0  0  0  0  0
  188.9290  175.5830  135.5640 C   0  0  1  0  0  3  0  0  0  0  0  0
  193.8410  174.7780  138.3880 O   0  0  0  0  0  0  0  0  0  0  0  0
  190.6980  176.5430  136.9230 N   0  0  1  0  0  0  0  0  0  0  0  0
  187.2360  177.6210  135.7500 C   0  0  0  0  0  2  0  0  0  0  0  0
  186.0730  175.4700  135.7170 N   0  0  0  0  0  2  0  0  0  0  0  0
  193.4780  175.8350  137.8110 C   0  0  0  0  0  0  0  0  0  0  0  0
  191.0960  174.3180  135.8360 C   0  0  0  0  0  0  0  0  0  0  0  0
  190.3200  177.4410  139.1220 C   0  0  2  0  0  3  0  0  0  0  0  0
  184.8850  177.4280  136.5050 C   0  0  0  0  0  1  0  0  0  0  0  0
  192.5270  176.6950  138.4360 N   0  0  0  0  0  2  0  0  0  0  0  0
  190.6930  172.9770  135.7630 C   0  0  0  0  0  3  0  0  0  0  0  0
  193.1450  173.7040  134.6620 C   0  0  0  0  0  3  0  0  0  0  0  0
  192.7190  172.3780  134.5940 C   0  0  0  0  0  3  0  0  0  0  0  0
  194.0080  176.1560  136.4500 C   0  0  0  0  0  2  0  0  0  0  0  0
  189.6200  177.5260  136.8780 C   0  0  1  0  0  3  0  0  0  0  0  0
  191.1040  176.4190  138.3220 C   0  0  2  0  0  3  0  0  0  0  0  0
  188.6660  177.0640  135.7860 C   0  0  1  0  0  3  0  0  0  0  0  0
  188.1170  176.7190  138.5910 O   0  0  0  0  0  1  0  0  0  0  0  0
  190.1110  175.2740  136.4810 C   0  0  2  0  0  3  0  0  0  0  0  0
  1  6  1  0  0  0  0
  1 16  1  0  0  0  0
  2  8  2  0  0  0  0
  4 20  1  0  0  0  0
  5 27  1  1  0  0  0
  5 17  1  0  0  0  0
  6 23  1  0  0  0  0
  8  7  2  0  0  0  0
  9 18  1  6  0  0  0
 10 26  1  0  0  0  0
 10  8  1  1  0  0  0
 10 28  1  0  0  0  0
 12 25  1  0  0  0  0
 13 26  1  0  0  0  0
 13  9  1  0  0  0  0
 14  8  1  0  0  0  0
 14  9  1  0  0  0  0
 15 11  2  0  0  0  0
 15 19  1  0  0  0  0
 16 28  1  0  0  0  0
 17  3  1  0  0  0  0
 20 16  2  0  0  0  0
 21  1  2  0  0  0  0
 22 21  1  0  0  0  0
 22  4  2  0  0  0  0
 23 15  1  0  0  0  0
 24 12  1  0  0  0  0
 24  5  1  0  0  0  0
 25 19  1  0  0  0  0
 25 17  1  0  0  0  0
 26 24  1  0  0  0  0
 28 12  1  0  0  0  0
M  END
>  <MODEL>
8

>  <REMARK>
 VINA RESULT:      -5.2      4.215      5.908
  Name = 
  0 active torsions:
  status: ('A' for Active; 'I' for Inactive)
                            x       y       z     vdW  Elec       q    Type
                         _______ _______ _______ _____ _____    ______ ____

>  <TORSDO>
F 0

$$$$
=
 OpenBabel11122411513D

 28 32  0  0  1  0  0  0  0  0999 V2000
  188.6780  173.9100  135.2470 C   0  0  0  0  0  0  0  0  0  0  0  0
  183.7410  173.2700  135.9600 O   0  0  0  0  0  0  0  0  0  0  0  0
  187.2640  178.1030  139.3890 O   0  0  0  0  0  1  0  0  0  0  0  0
  187.5560  171.5080  136.1670 C   0  0  0  0  0  3  0  0  0  0  0  0
  186.1360  178.2000  137.2590 C   0  0  1  0  0  3  0  0  0  0  0  0
  189.3850  175.1490  134.7890 C   0  0  0  0  0  2  0  0  0  0  0  0
  184.1950  174.7560  137.8540 O   0  0  0  0  0  0  0  0  0  0  0  0
  183.9880  174.6950  136.3660 S   0  0  0  0  0  0  0  0  0  0  0  0
  182.9810  177.0470  136.1450 C   0  0  2  0  0  3  0  0  0  0  0  0
  185.4250  175.3150  135.4950 C   0  0  1  0  0  3  0  0  0  0  0  0
  190.5670  174.8750  137.9690 O   0  0  0  0  0  0  0  0  0  0  0  0
  187.4430  176.4350  136.2530 N   0  0  1  0  0  0  0  0  0  0  0  0
  183.9750  177.5030  135.0850 C   0  0  0  0  0  2  0  0  0  0  0  0
  182.6170  175.6540  135.9330 N   0  0  0  0  0  2  0  0  0  0  0  0
  190.2340  175.7040  137.0830 C   0  0  0  0  0  0  0  0  0  0  0  0
  187.4770  173.9390  136.0100 C   0  0  0  0  0  0  0  0  0  0  0  0
  187.4470  178.0830  138.0040 C   0  0  2  0  0  3  0  0  0  0  0  0
  181.7380  177.9070  136.0660 C   0  0  0  0  0  1  0  0  0  0  0  0
  189.4620  176.8500  137.4390 N   0  0  0  0  0  2  0  0  0  0  0  0
  186.9400  172.7240  136.4610 C   0  0  0  0  0  3  0  0  0  0  0  0
  189.2840  172.6810  134.9570 C   0  0  0  0  0  3  0  0  0  0  0  0
  188.7270  171.4850  135.4100 C   0  0  0  0  0  3  0  0  0  0  0  0
  190.6080  175.4570  135.6570 C   0  0  0  0  0  2  0  0  0  0  0  0
  186.4670  177.4790  135.9530 C   0  0  1  0  0  3  0  0  0  0  0  0
  188.0160  176.7490  137.5600 C   0  0  2  0  0  3  0  0  0  0  0  0
  185.3380  176.8020  135.1910 C   0  0  1  0  0  3  0  0  0  0  0  0
  185.1340  177.5300  137.9680 O   0  0  0  0  0  1  0  0  0  0  0  0
  186.6830  175.1840  136.3520 C   0  0  2  0  0  3  0  0  0  0  0  0
  1 16  1  0  0  0  0
  2  8  2  0  0  0  0
  4 20  1  0  0  0  0
  5 27  1  1  0  0  0
  5 17  1  0  0  0  0
  6  1  1  0  0  0  0
  6 23  1  0  0  0  0
  8  7  2  0  0  0  0
  9 18  1  6  0  0  0
 10 28  1  0  0  0  0
 10  8  1  1  0  0  0
 12 28  1  0  0  0  0
 12 25  1  0  0  0  0
 13 26  1  0  0  0  0
 13  9  1  0  0  0  0
 14  9  1  0  0  0  0
 14  8  1  0  0  0  0
 15 19  1  0  0  0  0
 15 11  2  0  0  0  0
 16 28  1  0  0  0  0
 16 20  2  0  0  0  0
 17  3  1  0  0  0  0
 19 25  1  0  0  0  0
 21  1  2  0  0  0  0
 21 22  1  0  0  0  0
 22  4  2  0  0  0  0
 23 15  1  0  0  0  0
 24 12  1  0  0  0  0
 24  5  1  0  0  0  0
 25 17  1  0  0  0  0
 26 10  1  0  0  0  0
 26 24  1  0  0  0  0
M  END
>  <MODEL>
9

>  <REMARK>
 VINA RESULT:      -4.9      2.774      3.888
  Name = 
  0 active torsions:
  status: ('A' for Active; 'I' for Inactive)
                            x       y       z     vdW  Elec       q    Type
                         _______ _______ _______ _____ _____    ______ ____

>  <TORSDO>
F 0

$$$$
