=
 OpenBabel11122410243D

 30 35  0  0  1  0  0  0  0  0999 V2000
  186.0090  178.4460  140.2720 C   0  0  0  0  0  0  0  0  0  0  0  0
  187.4640  178.3230  138.2580 C   0  0  0  0  0  0  0  0  0  0  0  0
  189.1630  177.5950  142.7680 N   0  0  0  0  0  2  0  0  0  0  0  0
  185.8630  178.4130  141.6830 C   0  0  0  0  0  0  0  0  0  0  0  0
  184.8720  178.6680  139.4880 O   0  0  0  0  0  0  0  0  0  0  0  0
  182.1150  178.9120  142.0430 C   0  0  0  0  0  1  0  0  0  0  0  0
  184.7100  178.0630  144.5820 C   0  0  1  0  0  3  0  0  0  0  0  0
  183.4670  179.1720  141.3830 C   0  0  2  0  0  3  0  0  0  0  0  0
  186.1550  177.6770  144.8640 C   0  0  2  0  0  3  0  0  0  0  0  0
  188.4630  177.5830  143.9220 C   0  0  0  0  0  0  0  0  0  0  0  0
  183.5620  178.4850  140.0160 C   0  0  2  0  0  3  0  0  0  0  0  0
  184.5990  178.8180  142.2590 N   0  0  0  0  0  0  0  0  0  0  0  0
  188.7350  178.1280  137.7080 C   0  0  0  0  0  3  0  0  0  0  0  0
  186.5260  178.4090  146.1380 C   0  0  0  0  0  2  0  0  0  0  0  0
  184.1010  178.3840  145.9370 C   0  0  0  0  0  2  0  0  0  0  0  0
  186.4060  178.5780  137.3930 O   0  0  0  0  0  1  0  0  0  0  0  0
  188.2250  177.9040  141.8570 C   0  0  0  0  0  0  0  0  0  0  0  0
  189.8340  177.8680  138.5260 C   0  0  0  0  0  3  0  0  0  0  0  0
  187.2810  178.2590  139.6600 C   0  0  0  0  0  0  0  0  0  0  0  0
  187.0010  178.0830  142.4530 C   0  0  0  0  0  0  0  0  0  0  0  0
  188.9940  177.2750  145.0230 O   0  0  0  0  0  0  0  0  0  0  0  0
  187.1440  177.8870  143.7890 N   0  0  0  0  0  0  0  0  0  0  0  0
  185.2430  178.4690  146.9390 C   0  0  0  0  0  2  0  0  0  0  0  0
  185.3920  180.4670  143.9300 C   0  0  0  0  0  1  0  0  0  0  0  0
  189.6720  177.7960  139.9080 C   0  0  0  0  0  3  0  0  0  0  0  0
  188.4090  177.9920  140.4790 C   0  0  0  0  0  0  0  0  0  0  0  0
  184.5150  179.2480  143.6480 C   0  0  2  0  0  3  0  0  0  0  0  0
  183.2500  176.9920  140.1030 C   0  0  0  0  0  2  0  0  0  0  0  0
  183.1090  175.5520  138.4380 C   0  0  0  0  0  1  0  0  0  0  0  0
  182.4330  176.6150  139.0370 O   0  0  0  0  0  0  0  0  0  0  0  0
  1  4  1  0  0  0  0
  2 19  1  0  0  0  0
  3 10  1  0  0  0  0
  4 12  1  0  0  0  0
  4 20  2  0  0  0  0
  5 11  1  0  0  0  0
  5  1  1  0  0  0  0
  7  9  1  0  0  0  0
  7 15  1  1  0  0  0
  8  6  1  1  0  0  0
  8 12  1  0  0  0  0
  9 14  1  1  0  0  0
 10 21  2  0  0  0  0
 11 28  1  1  0  0  0
 11  8  1  0  0  0  0
 12 27  1  0  0  0  0
 13  2  2  0  0  0  0
 13 18  1  0  0  0  0
 14 23  1  0  0  0  0
 15 23  1  0  0  0  0
 16  2  1  0  0  0  0
 17 20  1  0  0  0  0
 17  3  1  0  0  0  0
 18 25  2  0  0  0  0
 19  1  2  0  0  0  0
 19 26  1  0  0  0  0
 20 22  1  0  0  0  0
 22 10  1  0  0  0  0
 22  9  1  0  0  0  0
 25 26  1  0  0  0  0
 26 17  2  0  0  0  0
 27 24  1  1  0  0  0
 27  7  1  0  0  0  0
 29 30  1  0  0  0  0
 30 28  1  0  0  0  0
M  END
>  <MODEL>
1

>  <REMARK>
 VINA RESULT:      -7.4      0.000      0.000
  Name = 
  2 active torsions:
  status: ('A' for Active; 'I' for Inactive)
    1  A    between atoms: C_11  and  C_28
    2  A    between atoms: C_28  and  O_30
                            x       y       z     vdW  Elec       q    Type
                         _______ _______ _______ _____ _____    ______ ____

>  <TORSDO>
F 2

$$$$
=
 OpenBabel11122410243D

 30 35  0  0  1  0  0  0  0  0999 V2000
  186.7790  177.9190  140.8430 C   0  0  0  0  0  0  0  0  0  0  0  0
  184.4220  178.3620  140.1780 C   0  0  0  0  0  0  0  0  0  0  0  0
  185.8900  178.4160  144.8250 N   0  0  0  0  0  2  0  0  0  0  0  0
  187.7520  177.7360  141.8580 C   0  0  0  0  0  0  0  0  0  0  0  0
  187.1780  177.8060  139.5070 O   0  0  0  0  0  0  0  0  0  0  0  0
  190.8770  177.1460  139.7810 C   0  0  0  0  0  1  0  0  0  0  0  0
  190.4550  177.6300  143.4530 C   0  0  1  0  0  3  0  0  0  0  0  0
  189.3830  177.0050  140.0660 C   0  0  2  0  0  3  0  0  0  0  0  0
  189.5250  177.9840  144.6050 C   0  0  2  0  0  3  0  0  0  0  0  0
  187.1430  178.2450  145.2980 C   0  0  0  0  0  0  0  0  0  0  0  0
  188.5500  177.8930  139.1350 C   0  0  2  0  0  3  0  0  0  0  0  0
  189.0570  177.2350  141.4860 N   0  0  0  0  0  0  0  0  0  0  0  0
  183.1060  178.6520  140.5510 C   0  0  0  0  0  3  0  0  0  0  0  0
  189.9300  177.0720  145.7450 C   0  0  0  0  0  2  0  0  0  0  0  0
  191.7240  177.1000  144.1010 C   0  0  0  0  0  2  0  0  0  0  0  0
  184.7080  178.2290  138.8240 O   0  0  0  0  0  1  0  0  0  0  0  0
  186.0470  178.2390  143.5030 C   0  0  0  0  0  0  0  0  0  0  0  0
  182.7620  178.7970  141.8950 C   0  0  0  0  0  3  0  0  0  0  0  0
  185.4230  178.2100  141.1670 C   0  0  0  0  0  0  0  0  0  0  0  0
  187.3550  177.9580  143.1960 C   0  0  0  0  0  0  0  0  0  0  0  0
  187.4230  178.3890  146.5190 O   0  0  0  0  0  0  0  0  0  0  0  0
  188.0720  177.9510  144.3500 N   0  0  0  0  0  0  0  0  0  0  0  0
  191.4210  176.8770  145.5750 C   0  0  0  0  0  2  0  0  0  0  0  0
  189.2770  175.3600  143.0920 C   0  0  0  0  0  1  0  0  0  0  0  0
  183.7350  178.6560  142.8830 C   0  0  0  0  0  3  0  0  0  0  0  0
  185.0570  178.3620  142.5310 C   0  0  0  0  0  0  0  0  0  0  0  0
  189.9220  176.5980  142.4700 C   0  0  2  0  0  3  0  0  0  0  0  0
  189.0000  179.3520  139.1800 C   0  0  0  0  0  2  0  0  0  0  0  0
  189.0780  178.7650  137.0560 C   0  0  0  0  0  1  0  0  0  0  0  0
  189.0220  179.8810  137.8900 O   0  0  0  0  0  0  0  0  0  0  0  0
  1 19  2  0  0  0  0
  1  4  1  0  0  0  0
  2 13  2  0  0  0  0
  2 19  1  0  0  0  0
  3 10  1  0  0  0  0
  4 20  2  0  0  0  0
  5  1  1  0  0  0  0
  7 15  1  1  0  0  0
  7  9  1  0  0  0  0
  8  6  1  1  0  0  0
  8 12  1  0  0  0  0
  9 14  1  1  0  0  0
 10 21  2  0  0  0  0
 11 28  1  1  0  0  0
 11  5  1  0  0  0  0
 11  8  1  0  0  0  0
 12  4  1  0  0  0  0
 12 27  1  0  0  0  0
 13 18  1  0  0  0  0
 15 23  1  0  0  0  0
 16  2  1  0  0  0  0
 17  3  1  0  0  0  0
 18 25  2  0  0  0  0
 19 26  1  0  0  0  0
 20 17  1  0  0  0  0
 20 22  1  0  0  0  0
 22  9  1  0  0  0  0
 22 10  1  0  0  0  0
 23 14  1  0  0  0  0
 26 25  1  0  0  0  0
 26 17  2  0  0  0  0
 27 24  1  1  0  0  0
 27  7  1  0  0  0  0
 29 30  1  0  0  0  0
 30 28  1  0  0  0  0
M  END
>  <MODEL>
2

>  <REMARK>
 VINA RESULT:      -7.1      1.751      5.150
  Name = 
  2 active torsions:
  status: ('A' for Active; 'I' for Inactive)
    1  A    between atoms: C_11  and  C_28
    2  A    between atoms: C_28  and  O_30
                            x       y       z     vdW  Elec       q    Type
                         _______ _______ _______ _____ _____    ______ ____

>  <TORSDO>
F 2

$$$$
=
 OpenBabel11122410243D

 30 35  0  0  1  0  0  0  0  0999 V2000
  182.1690  178.2830  141.6190 C   0  0  0  0  0  0  0  0  0  0  0  0
  182.5650  178.7430  144.0320 C   0  0  0  0  0  0  0  0  0  0  0  0
  186.1670  178.6750  140.7490 N   0  0  0  0  0  2  0  0  0  0  0  0
  182.6770  178.0730  140.3120 C   0  0  0  0  0  0  0  0  0  0  0  0
  180.7860  178.2060  141.8180 O   0  0  0  0  0  0  0  0  0  0  0  0
  179.4660  177.5400  138.3540 C   0  0  0  0  0  1  0  0  0  0  0  0
  182.9870  177.9260  137.1900 C   0  0  1  0  0  3  0  0  0  0  0  0
  180.3490  177.3910  139.5910 C   0  0  2  0  0  3  0  0  0  0  0  0
  184.4310  178.2500  137.5470 C   0  0  2  0  0  3  0  0  0  0  0  0
  186.0660  178.4920  139.4160 C   0  0  0  0  0  0  0  0  0  0  0  0
  179.8750  178.3020  140.7290 C   0  0  2  0  0  3  0  0  0  0  0  0
  181.7790  177.5830  139.2890 N   0  0  0  0  0  0  0  0  0  0  0  0
  183.4630  179.0230  145.0670 C   0  0  0  0  0  3  0  0  0  0  0  0
  185.2740  177.3070  136.7110 C   0  0  0  0  0  2  0  0  0  0  0  0
  183.0300  177.3800  135.7730 C   0  0  0  0  0  2  0  0  0  0  0  0
  181.2130  178.6460  144.3430 O   0  0  0  0  0  1  0  0  0  0  0  0
  184.8970  178.5320  141.1640 C   0  0  0  0  0  0  0  0  0  0  0  0
  184.8300  179.1320  144.8140 C   0  0  0  0  0  3  0  0  0  0  0  0
  183.0390  178.5650  142.7100 C   0  0  0  0  0  0  0  0  0  0  0  0
  184.0630  178.2600  140.1080 C   0  0  0  0  0  0  0  0  0  0  0  0
  187.0600  178.6030  138.6480 O   0  0  0  0  0  0  0  0  0  0  0  0
  184.8080  178.2220  138.9730 N   0  0  0  0  0  0  0  0  0  0  0  0
  184.4890  177.1170  135.4320 C   0  0  0  0  0  2  0  0  0  0  0  0
  183.0990  175.6660  138.4360 C   0  0  0  0  0  1  0  0  0  0  0  0
  185.3150  178.9650  143.5180 C   0  0  0  0  0  3  0  0  0  0  0  0
  184.4340  178.6810  142.4690 C   0  0  0  0  0  0  0  0  0  0  0  0
  182.2940  176.9200  138.0980 C   0  0  2  0  0  3  0  0  0  0  0  0
  179.7620  179.7600  140.2850 C   0  0  0  0  0  2  0  0  0  0  0  0
  178.9310  181.6240  141.1210 C   0  0  0  0  0  1  0  0  0  0  0  0
  179.8380  180.6000  141.3950 O   0  0  0  0  0  0  0  0  0  0  0  0
  1  5  1  0  0  0  0
  1 19  1  0  0  0  0
  2 16  1  0  0  0  0
  2 13  1  0  0  0  0
  3 17  1  0  0  0  0
  4  1  2  0  0  0  0
  7 15  1  6  0  0  0
  7  9  1  0  0  0  0
  7 27  1  0  0  0  0
  8  6  1  6  0  0  0
  8 11  1  0  0  0  0
  9 14  1  6  0  0  0
  9 22  1  0  0  0  0
 10  3  1  0  0  0  0
 11 28  1  6  0  0  0
 11  5  1  0  0  0  0
 12  8  1  0  0  0  0
 12  4  1  0  0  0  0
 17 26  1  0  0  0  0
 18 13  2  0  0  0  0
 19  2  2  0  0  0  0
 20  4  1  0  0  0  0
 20 17  2  0  0  0  0
 21 10  2  0  0  0  0
 22 10  1  0  0  0  0
 22 20  1  0  0  0  0
 23 15  1  0  0  0  0
 23 14  1  0  0  0  0
 25 18  1  0  0  0  0
 26 19  1  0  0  0  0
 26 25  2  0  0  0  0
 27 24  1  1  0  0  0
 27 12  1  0  0  0  0
 28 30  1  0  0  0  0
 29 30  1  0  0  0  0
M  END
>  <MODEL>
3

>  <REMARK>
 VINA RESULT:      -7.0      2.803      6.538
  Name = 
  2 active torsions:
  status: ('A' for Active; 'I' for Inactive)
    1  A    between atoms: C_11  and  C_28
    2  A    between atoms: C_28  and  O_30
                            x       y       z     vdW  Elec       q    Type
                         _______ _______ _______ _____ _____    ______ ____

>  <TORSDO>
F 2

$$$$
=
 OpenBabel11122410243D

 30 35  0  0  1  0  0  0  0  0999 V2000
  187.0160  177.6760  138.5880 C   0  0  0  0  0  0  0  0  0  0  0  0
  184.7450  178.6880  138.6920 C   0  0  0  0  0  0  0  0  0  0  0  0
  185.7770  174.8480  135.8740 N   0  0  0  0  0  2  0  0  0  0  0  0
  187.9120  176.7310  138.0260 C   0  0  0  0  0  0  0  0  0  0  0  0
  187.4980  178.5560  139.5630 O   0  0  0  0  0  0  0  0  0  0  0  0
  191.0890  177.4920  139.9630 C   0  0  0  0  0  1  0  0  0  0  0  0
  190.2930  174.7320  137.5870 C   0  0  1  0  0  3  0  0  0  0  0  0
  189.7960  177.8910  139.2560 C   0  0  2  0  0  3  0  0  0  0  0  0
  189.2390  174.0170  136.7530 C   0  0  2  0  0  3  0  0  0  0  0  0
  186.9500  174.1850  135.7780 C   0  0  0  0  0  0  0  0  0  0  0  0
  188.7110  178.2950  140.2610 C   0  0  2  0  0  3  0  0  0  0  0  0
  189.3230  176.8540  138.3200 N   0  0  0  0  0  0  0  0  0  0  0  0
  183.4170  178.6990  138.2560 C   0  0  0  0  0  3  0  0  0  0  0  0
  189.9380  173.6270  135.4670 C   0  0  0  0  0  2  0  0  0  0  0  0
  191.6270  174.1590  137.1370 C   0  0  0  0  0  2  0  0  0  0  0  0
  185.1360  179.6340  139.6340 O   0  0  0  0  0  1  0  0  0  0  0  0
  186.0700  175.8420  136.7290 C   0  0  0  0  0  0  0  0  0  0  0  0
  182.9690  177.7740  137.3130 C   0  0  0  0  0  3  0  0  0  0  0  0
  185.6540  177.7340  138.1760 C   0  0  0  0  0  0  0  0  0  0  0  0
  187.3840  175.7820  137.1230 C   0  0  0  0  0  0  0  0  0  0  0  0
  187.0690  173.1340  135.0930 O   0  0  0  0  0  0  0  0  0  0  0  0
  187.9650  174.7200  136.5070 N   0  0  0  0  0  0  0  0  0  0  0  0
  191.3710  173.3540  135.8710 C   0  0  0  0  0  2  0  0  0  0  0  0
  190.2530  176.7870  136.0230 C   0  0  0  0  0  1  0  0  0  0  0  0
  183.8480  176.8230  136.7970 C   0  0  0  0  0  3  0  0  0  0  0  0
  185.1820  176.7980  137.2180 C   0  0  0  0  0  0  0  0  0  0  0  0
  190.3230  176.2470  137.4510 C   0  0  2  0  0  3  0  0  0  0  0  0
  188.4730  177.2120  141.3120 C   0  0  0  0  0  2  0  0  0  0  0  0
  189.3450  177.9920  143.1810 C   0  0  0  0  0  1  0  0  0  0  0  0
  188.1270  177.8010  142.5280 O   0  0  0  0  0  0  0  0  0  0  0  0
  1  5  1  0  0  0  0
  2 16  1  0  0  0  0
  3 17  1  0  0  0  0
  4 12  1  0  0  0  0
  4  1  2  0  0  0  0
  5 11  1  0  0  0  0
  7 15  1  6  0  0  0
  8  6  1  1  0  0  0
  8 11  1  0  0  0  0
  9 14  1  6  0  0  0
  9  7  1  0  0  0  0
 10  3  1  0  0  0  0
 10 22  1  0  0  0  0
 11 28  1  1  0  0  0
 12  8  1  0  0  0  0
 13  2  1  0  0  0  0
 14 23  1  0  0  0  0
 17 20  2  0  0  0  0
 17 26  1  0  0  0  0
 18 13  2  0  0  0  0
 19  1  1  0  0  0  0
 19  2  2  0  0  0  0
 20  4  1  0  0  0  0
 21 10  2  0  0  0  0
 22  9  1  0  0  0  0
 22 20  1  0  0  0  0
 23 15  1  0  0  0  0
 25 26  2  0  0  0  0
 25 18  1  0  0  0  0
 26 19  1  0  0  0  0
 27 24  1  6  0  0  0
 27  7  1  0  0  0  0
 27 12  1  0  0  0  0
 28 30  1  0  0  0  0
 30 29  1  0  0  0  0
M  END
>  <MODEL>
4

>  <REMARK>
 VINA RESULT:      -6.7      3.510      7.717
  Name = 
  2 active torsions:
  status: ('A' for Active; 'I' for Inactive)
    1  A    between atoms: C_11  and  C_28
    2  A    between atoms: C_28  and  O_30
                            x       y       z     vdW  Elec       q    Type
                         _______ _______ _______ _____ _____    ______ ____

>  <TORSDO>
F 2

$$$$
=
 OpenBabel11122410243D

 30 35  0  0  1  0  0  0  0  0999 V2000
  183.5690  178.5050  140.3770 C   0  0  0  0  0  0  0  0  0  0  0  0
  183.0250  178.8230  142.7830 C   0  0  0  0  0  0  0  0  0  0  0  0
  187.6010  178.3740  141.1670 N   0  0  0  0  0  2  0  0  0  0  0  0
  184.5270  178.2730  139.3570 C   0  0  0  0  0  0  0  0  0  0  0  0
  182.2210  178.6120  140.0150 O   0  0  0  0  0  0  0  0  0  0  0  0
  182.3180  178.2530  136.2670 C   0  0  0  0  0  1  0  0  0  0  0  0
  186.0310  178.1920  136.6020 C   0  0  1  0  0  3  0  0  0  0  0  0
  182.6150  177.9410  137.7320 C   0  0  2  0  0  3  0  0  0  0  0  0
  187.2410  178.3020  137.5180 C   0  0  2  0  0  3  0  0  0  0  0  0
  188.0170  178.2530  139.8880 C   0  0  0  0  0  0  0  0  0  0  0  0
  181.8340  178.8700  138.6690 C   0  0  2  0  0  3  0  0  0  0  0  0
  184.0590  177.9460  138.0270 N   0  0  0  0  0  0  0  0  0  0  0  0
  183.4640  178.9410  144.1060 C   0  0  0  0  0  3  0  0  0  0  0  0
  188.2350  177.2820  136.9980 C   0  0  0  0  0  2  0  0  0  0  0  0
  186.5710  177.6940  135.2710 C   0  0  0  0  0  2  0  0  0  0  0  0
  181.6590  178.9020  142.5350 O   0  0  0  0  0  1  0  0  0  0  0  0
  186.2630  178.3930  141.0410 C   0  0  0  0  0  0  0  0  0  0  0  0
  184.8220  178.8710  144.4140 C   0  0  0  0  0  3  0  0  0  0  0  0
  183.9600  178.6280  141.7400 C   0  0  0  0  0  0  0  0  0  0  0  0
  185.8910  178.2740  139.7250 C   0  0  0  0  0  0  0  0  0  0  0  0
  189.2390  178.2530  139.5800 O   0  0  0  0  0  0  0  0  0  0  0  0
  187.0160  178.1740  138.9710 N   0  0  0  0  0  0  0  0  0  0  0  0
  188.0060  177.2450  135.5030 C   0  0  0  0  0  2  0  0  0  0  0  0
  185.3850  175.8960  137.5940 C   0  0  0  0  0  1  0  0  0  0  0  0
  185.7590  178.6840  143.4000 C   0  0  0  0  0  3  0  0  0  0  0  0
  185.3400  178.5590  142.0710 C   0  0  0  0  0  0  0  0  0  0  0  0
  184.9260  177.2600  137.0780 C   0  0  2  0  0  3  0  0  0  0  0  0
  182.0710  180.3430  138.3430 C   0  0  0  0  0  2  0  0  0  0  0  0
  181.0760  182.2750  137.9690 C   0  0  0  0  0  1  0  0  0  0  0  0
  180.9500  181.0930  138.6980 O   0  0  0  0  0  0  0  0  0  0  0  0
  1 19  1  0  0  0  0
  2 13  1  0  0  0  0
  4 20  1  0  0  0  0
  4  1  2  0  0  0  0
  5  1  1  0  0  0  0
  7 15  1  6  0  0  0
  7 27  1  0  0  0  0
  7  9  1  0  0  0  0
  8  6  1  6  0  0  0
  8 12  1  0  0  0  0
  8 11  1  0  0  0  0
  9 14  1  6  0  0  0
  9 22  1  0  0  0  0
 10  3  1  0  0  0  0
 11 28  1  6  0  0  0
 11  5  1  0  0  0  0
 12  4  1  0  0  0  0
 13 18  2  0  0  0  0
 15 23  1  0  0  0  0
 16  2  1  0  0  0  0
 17  3  1  0  0  0  0
 17 26  1  0  0  0  0
 19 26  1  0  0  0  0
 19  2  2  0  0  0  0
 20 17  2  0  0  0  0
 21 10  2  0  0  0  0
 22 20  1  0  0  0  0
 22 10  1  0  0  0  0
 23 14  1  0  0  0  0
 25 18  1  0  0  0  0
 26 25  2  0  0  0  0
 27 24  1  1  0  0  0
 27 12  1  0  0  0  0
 28 30  1  0  0  0  0
 29 30  1  0  0  0  0
M  END
>  <MODEL>
5

>  <REMARK>
 VINA RESULT:      -6.6      2.604      6.122
  Name = 
  2 active torsions:
  status: ('A' for Active; 'I' for Inactive)
    1  A    between atoms: C_11  and  C_28
    2  A    between atoms: C_28  and  O_30
                            x       y       z     vdW  Elec       q    Type
                         _______ _______ _______ _____ _____    ______ ____

>  <TORSDO>
F 2

$$$$
=
 OpenBabel11122410243D

 30 35  0  0  1  0  0  0  0  0999 V2000
  189.8790  177.1790  141.0340 C   0  0  0  0  0  0  0  0  0  0  0  0
  190.5450  177.0620  138.6400 C   0  0  0  0  0  0  0  0  0  0  0  0
  186.2330  178.8190  140.0800 N   0  0  0  0  0  2  0  0  0  0  0  0
  188.9040  177.4680  142.0230 C   0  0  0  0  0  0  0  0  0  0  0  0
  191.1250  176.6930  141.4480 O   0  0  0  0  0  0  0  0  0  0  0  0
  190.8200  176.6590  145.2020 C   0  0  0  0  0  1  0  0  0  0  0  0
  187.4830  178.2490  144.7120 C   0  0  1  0  0  3  0  0  0  0  0  0
  190.4370  176.4200  143.7430 C   0  0  2  0  0  3  0  0  0  0  0  0
  186.4660  178.8310  143.7400 C   0  0  2  0  0  3  0  0  0  0  0  0
  185.7880  178.9810  141.3450 C   0  0  0  0  0  0  0  0  0  0  0  0
  191.5660  176.8360  142.7930 C   0  0  2  0  0  3  0  0  0  0  0  0
  189.1540  177.0530  143.3860 N   0  0  0  0  0  0  0  0  0  0  0  0
  190.2260  177.2780  137.2960 C   0  0  0  0  0  3  0  0  0  0  0  0
  185.1120  178.4010  144.2690 C   0  0  0  0  0  2  0  0  0  0  0  0
  186.7570  178.1340  146.0420 C   0  0  0  0  0  2  0  0  0  0  0  0
  191.7960  176.5350  138.9430 O   0  0  0  0  0  1  0  0  0  0  0  0
  187.4340  178.2440  140.2620 C   0  0  0  0  0  0  0  0  0  0  0  0
  188.9860  177.8050  136.9330 C   0  0  0  0  0  3  0  0  0  0  0  0
  189.6060  177.3750  139.6510 C   0  0  0  0  0  0  0  0  0  0  0  0
  187.6920  178.0570  141.5970 C   0  0  0  0  0  0  0  0  0  0  0  0
  184.6920  179.5500  141.6000 O   0  0  0  0  0  0  0  0  0  0  0  0
  186.6310  178.5210  142.3070 N   0  0  0  0  0  0  0  0  0  0  0  0
  185.2770  178.3630  145.7720 C   0  0  0  0  0  2  0  0  0  0  0  0
  187.0410  175.8490  143.8670 C   0  0  0  0  0  1  0  0  0  0  0  0
  188.0510  178.1240  137.9150 C   0  0  0  0  0  3  0  0  0  0  0  0
  188.3480  177.9120  139.2660 C   0  0  0  0  0  0  0  0  0  0  0  0
  188.0560  176.8920  144.3310 C   0  0  2  0  0  3  0  0  0  0  0  0
  192.0130  178.2770  143.0330 C   0  0  0  0  0  2  0  0  0  0  0  0
  191.2090  179.9410  144.2360 C   0  0  0  0  0  1  0  0  0  0  0  0
  191.7250  178.6510  144.3460 O   0  0  0  0  0  0  0  0  0  0  0  0
  1  5  1  0  0  0  0
  1  4  1  0  0  0  0
  2 16  1  0  0  0  0
  2 19  1  0  0  0  0
  3 17  1  0  0  0  0
  3 10  1  0  0  0  0
  4 12  1  0  0  0  0
  5 11  1  0  0  0  0
  7 15  1  1  0  0  0
  8  6  1  1  0  0  0
  9 14  1  1  0  0  0
  9  7  1  0  0  0  0
 10 21  2  0  0  0  0
 10 22  1  0  0  0  0
 11 28  1  1  0  0  0
 11  8  1  0  0  0  0
 12  8  1  0  0  0  0
 12 27  1  0  0  0  0
 13  2  2  0  0  0  0
 14 23  1  0  0  0  0
 17 20  1  0  0  0  0
 18 13  1  0  0  0  0
 18 25  2  0  0  0  0
 19  1  2  0  0  0  0
 20  4  2  0  0  0  0
 20 22  1  0  0  0  0
 22  9  1  0  0  0  0
 23 15  1  0  0  0  0
 25 26  1  0  0  0  0
 26 19  1  0  0  0  0
 26 17  2  0  0  0  0
 27 24  1  6  0  0  0
 27  7  1  0  0  0  0
 28 30  1  0  0  0  0
 29 30  1  0  0  0  0
M  END
>  <MODEL>
6

>  <REMARK>
 VINA RESULT:      -6.6      2.259      5.357
  Name = 
  2 active torsions:
  status: ('A' for Active; 'I' for Inactive)
    1  A    between atoms: C_11  and  C_28
    2  A    between atoms: C_28  and  O_30
                            x       y       z     vdW  Elec       q    Type
                         _______ _______ _______ _____ _____    ______ ____

>  <TORSDO>
F 2

$$$$
=
 OpenBabel11122410243D

 30 35  0  0  1  0  0  0  0  0999 V2000
  188.3780  177.8610  144.8170 C   0  0  0  0  0  0  0  0  0  0  0  0
  189.3730  177.8300  147.0970 C   0  0  0  0  0  0  0  0  0  0  0  0
  184.6060  178.4870  146.3270 N   0  0  0  0  0  2  0  0  0  0  0  0
  187.2510  178.0390  143.9740 C   0  0  0  0  0  0  0  0  0  0  0  0
  189.6140  177.5760  144.2280 O   0  0  0  0  0  0  0  0  0  0  0  0
  188.7880  177.4160  140.5570 C   0  0  0  0  0  1  0  0  0  0  0  0
  185.2310  177.8800  141.5750 C   0  0  1  0  0  3  0  0  0  0  0  0
  188.8140  177.9560  141.9850 C   0  0  2  0  0  3  0  0  0  0  0  0
  184.2260  178.0150  142.7100 C   0  0  2  0  0  3  0  0  0  0  0  0
  183.9490  178.4680  145.1470 C   0  0  0  0  0  0  0  0  0  0  0  0
  189.7040  177.0970  142.8900 C   0  0  2  0  0  3  0  0  0  0  0  0
  187.4620  178.1320  142.5460 N   0  0  0  0  0  0  0  0  0  0  0  0
  189.2030  177.9400  148.4810 C   0  0  0  0  0  3  0  0  0  0  0  0
  183.2190  179.0430  142.2360 C   0  0  0  0  0  2  0  0  0  0  0  0
  184.4690  178.2370  140.3100 C   0  0  0  0  0  2  0  0  0  0  0  0
  190.6530  177.5870  146.6090 O   0  0  0  0  0  1  0  0  0  0  0  0
  185.8860  178.3220  145.9550 C   0  0  0  0  0  0  0  0  0  0  0  0
  187.9430  178.1830  149.0260 C   0  0  0  0  0  3  0  0  0  0  0  0
  188.2620  177.9670  146.2320 C   0  0  0  0  0  0  0  0  0  0  0  0
  185.9920  178.2200  144.5890 C   0  0  0  0  0  0  0  0  0  0  0  0
  182.6930  178.5420  145.0800 O   0  0  0  0  0  0  0  0  0  0  0  0
  184.7480  178.3220  144.0560 N   0  0  0  0  0  0  0  0  0  0  0  0
  183.1430  178.8490  140.7370 C   0  0  0  0  0  2  0  0  0  0  0  0
  186.2160  180.2180  142.0580 C   0  0  0  0  0  1  0  0  0  0  0  0
  186.8350  178.3160  148.1910 C   0  0  0  0  0  3  0  0  0  0  0  0
  186.9850  178.2130  146.8040 C   0  0  0  0  0  0  0  0  0  0  0  0
  186.4690  178.7590  141.6830 C   0  0  2  0  0  3  0  0  0  0  0  0
  189.3080  175.6220  142.8480 C   0  0  0  0  0  2  0  0  0  0  0  0
  191.4070  175.6460  143.5260 C   0  0  0  0  0  1  0  0  0  0  0  0
  190.4480  174.8230  142.9350 O   0  0  0  0  0  0  0  0  0  0  0  0
  1 19  1  0  0  0  0
  2 13  1  0  0  0  0
  4 20  1  0  0  0  0
  4  1  2  0  0  0  0
  5  1  1  0  0  0  0
  7 15  1  6  0  0  0
  7 27  1  0  0  0  0
  7  9  1  0  0  0  0
  8  6  1  6  0  0  0
  8 12  1  0  0  0  0
  8 11  1  0  0  0  0
  9 14  1  6  0  0  0
  9 22  1  0  0  0  0
 10  3  1  0  0  0  0
 11 28  1  1  0  0  0
 11  5  1  0  0  0  0
 12  4  1  0  0  0  0
 13 18  2  0  0  0  0
 15 23  1  0  0  0  0
 16  2  1  0  0  0  0
 17  3  1  0  0  0  0
 17 26  1  0  0  0  0
 19 26  1  0  0  0  0
 19  2  2  0  0  0  0
 20 17  2  0  0  0  0
 21 10  2  0  0  0  0
 22 20  1  0  0  0  0
 22 10  1  0  0  0  0
 23 14  1  0  0  0  0
 25 18  1  0  0  0  0
 26 25  2  0  0  0  0
 27 24  1  1  0  0  0
 27 12  1  0  0  0  0
 28 30  1  0  0  0  0
 30 29  1  0  0  0  0
M  END
>  <MODEL>
7

>  <REMARK>
 VINA RESULT:      -6.4      2.619      6.539
  Name = 
  2 active torsions:
  status: ('A' for Active; 'I' for Inactive)
    1  A    between atoms: C_11  and  C_28
    2  A    between atoms: C_28  and  O_30
                            x       y       z     vdW  Elec       q    Type
                         _______ _______ _______ _____ _____    ______ ____

>  <TORSDO>
F 2

$$$$
=
 OpenBabel11122410243D

 30 35  0  0  1  0  0  0  0  0999 V2000
  185.5890  177.6660  137.8540 C   0  0  0  0  0  0  0  0  0  0  0  0
  183.7750  179.1240  138.7330 C   0  0  0  0  0  0  0  0  0  0  0  0
  183.0810  174.4140  137.6910 N   0  0  0  0  0  2  0  0  0  0  0  0
  186.0180  176.4120  137.3480 C   0  0  0  0  0  0  0  0  0  0  0  0
  186.5250  178.7030  137.9470 O   0  0  0  0  0  0  0  0  0  0  0  0
  189.7080  177.0840  136.7500 C   0  0  0  0  0  1  0  0  0  0  0  0
  187.7540  173.9140  136.5700 C   0  0  1  0  0  3  0  0  0  0  0  0
  188.2340  177.4840  136.7610 C   0  0  2  0  0  3  0  0  0  0  0  0
  186.4310  173.2030  136.8190 C   0  0  2  0  0  3  0  0  0  0  0  0
  183.9970  173.5180  137.2630 C   0  0  0  0  0  0  0  0  0  0  0  0
  187.9240  178.4420  137.9160 C   0  0  2  0  0  3  0  0  0  0  0  0
  187.3340  176.3160  136.7550 N   0  0  0  0  0  0  0  0  0  0  0  0
  182.4400  179.2730  139.1220 C   0  0  0  0  0  3  0  0  0  0  0  0
  186.2640  172.2440  135.6580 C   0  0  0  0  0  2  0  0  0  0  0  0
  188.5940  172.9410  135.7580 C   0  0  0  0  0  2  0  0  0  0  0  0
  184.6150  180.2290  138.8250 O   0  0  0  0  0  1  0  0  0  0  0  0
  183.7890  175.5540  137.7520 C   0  0  0  0  0  0  0  0  0  0  0  0
  181.5530  178.1990  139.0510 C   0  0  0  0  0  3  0  0  0  0  0  0
  184.2410  177.8740  138.2590 C   0  0  0  0  0  0  0  0  0  0  0  0
  185.0890  175.3470  137.3600 C   0  0  0  0  0  0  0  0  0  0  0  0
  183.7250  172.2950  137.1300 O   0  0  0  0  0  0  0  0  0  0  0  0
  185.2330  174.0370  137.0330 N   0  0  0  0  0  0  0  0  0  0  0  0
  187.6720  171.8210  135.2980 C   0  0  0  0  0  2  0  0  0  0  0  0
  186.7590  175.2470  134.5940 C   0  0  0  0  0  1  0  0  0  0  0  0
  181.9940  176.9600  138.5920 C   0  0  0  0  0  3  0  0  0  0  0  0
  183.3250  176.7900  138.1940 C   0  0  0  0  0  0  0  0  0  0  0  0
  187.6590  175.2400  135.8280 C   0  0  2  0  0  3  0  0  0  0  0  0
  188.3680  177.8770  139.2640 C   0  0  0  0  0  2  0  0  0  0  0  0
  188.5400  178.2290  141.4340 C   0  0  0  0  0  1  0  0  0  0  0  0
  187.8540  178.6590  140.2980 O   0  0  0  0  0  0  0  0  0  0  0  0
  1  5  1  0  0  0  0
  1 19  1  0  0  0  0
  2 16  1  0  0  0  0
  2 13  1  0  0  0  0
  3 17  1  0  0  0  0
  4 20  1  0  0  0  0
  4  1  2  0  0  0  0
  7 15  1  6  0  0  0
  7  9  1  0  0  0  0
  8  6  1  1  0  0  0
  8 11  1  0  0  0  0
  9 14  1  6  0  0  0
  9 22  1  0  0  0  0
 10  3  1  0  0  0  0
 11  5  1  0  0  0  0
 11 28  1  1  0  0  0
 12  8  1  0  0  0  0
 12  4  1  0  0  0  0
 17 26  1  0  0  0  0
 18 13  2  0  0  0  0
 19  2  2  0  0  0  0
 20 17  2  0  0  0  0
 21 10  2  0  0  0  0
 22 10  1  0  0  0  0
 22 20  1  0  0  0  0
 23 14  1  0  0  0  0
 23 15  1  0  0  0  0
 25 18  1  0  0  0  0
 26 19  1  0  0  0  0
 26 25  2  0  0  0  0
 27 24  1  6  0  0  0
 27  7  1  0  0  0  0
 27 12  1  0  0  0  0
 28 30  1  0  0  0  0
 30 29  1  0  0  0  0
M  END
>  <MODEL>
8

>  <REMARK>
 VINA RESULT:      -6.2      3.785      7.882
  Name = 
  2 active torsions:
  status: ('A' for Active; 'I' for Inactive)
    1  A    between atoms: C_11  and  C_28
    2  A    between atoms: C_28  and  O_30
                            x       y       z     vdW  Elec       q    Type
                         _______ _______ _______ _____ _____    ______ ____

>  <TORSDO>
F 2

$$$$
=
 OpenBabel11122410243D

 30 35  0  0  1  0  0  0  0  0999 V2000
  187.4390  178.1870  141.9110 C   0  0  0  0  0  0  0  0  0  0  0  0
  185.8200  178.6720  143.7370 C   0  0  0  0  0  0  0  0  0  0  0  0
  184.4580  178.2080  139.0810 N   0  0  0  0  0  2  0  0  0  0  0  0
  187.7130  178.0110  140.5310 C   0  0  0  0  0  0  0  0  0  0  0  0
  188.4990  178.0900  142.8200 O   0  0  0  0  0  0  0  0  0  0  0  0
  191.4380  177.2700  140.6110 C   0  0  0  0  0  1  0  0  0  0  0  0
  188.9870  177.1120  137.8050 C   0  0  1  0  0  3  0  0  0  0  0  0
  190.1810  177.9900  141.0940 C   0  0  2  0  0  3  0  0  0  0  0  0
  187.5330  177.1850  137.3630 C   0  0  2  0  0  3  0  0  0  0  0  0
  185.2340  177.8940  138.0210 C   0  0  0  0  0  0  0  0  0  0  0  0
  189.7270  177.4650  142.4610 C   0  0  2  0  0  3  0  0  0  0  0  0
  189.0930  177.9530  140.0990 N   0  0  0  0  0  0  0  0  0  0  0  0
  184.5050  178.9290  144.1350 C   0  0  0  0  0  3  0  0  0  0  0  0
  187.5530  177.9070  136.0300 C   0  0  0  0  0  2  0  0  0  0  0  0
  189.8050  177.1280  136.5240 C   0  0  0  0  0  2  0  0  0  0  0  0
  186.8090  178.6380  144.7150 O   0  0  0  0  0  1  0  0  0  0  0  0
  185.3460  178.2660  140.0880 C   0  0  0  0  0  0  0  0  0  0  0  0
  183.4730  178.9740  143.1980 C   0  0  0  0  0  3  0  0  0  0  0  0
  186.1190  178.4560  142.3710 C   0  0  0  0  0  0  0  0  0  0  0  0
  186.6170  178.0060  139.6390 C   0  0  0  0  0  0  0  0  0  0  0  0
  184.7490  177.6940  136.8740 O   0  0  0  0  0  0  0  0  0  0  0  0
  186.5590  177.7720  138.3020 N   0  0  0  0  0  0  0  0  0  0  0  0
  188.8630  177.5010  135.3890 C   0  0  0  0  0  2  0  0  0  0  0  0
  189.0540  179.6470  138.2910 C   0  0  0  0  0  1  0  0  0  0  0  0
  183.7460  178.7590  141.8490 C   0  0  0  0  0  3  0  0  0  0  0  0
  185.0560  178.5040  141.4300 C   0  0  0  0  0  0  0  0  0  0  0  0
  189.4560  178.2360  138.7170 C   0  0  2  0  0  3  0  0  0  0  0  0
  189.5470  175.9480  142.4610 C   0  0  0  0  0  2  0  0  0  0  0  0
  190.9520  176.3260  144.1180 C   0  0  0  0  0  1  0  0  0  0  0  0
  190.5680  175.3500  143.1990 O   0  0  0  0  0  0  0  0  0  0  0  0
  1 19  1  0  0  0  0
  1  5  1  0  0  0  0
  2 13  1  0  0  0  0
  2 16  1  0  0  0  0
  3 17  1  0  0  0  0
  4  1  2  0  0  0  0
  7 15  1  6  0  0  0
  7 27  1  0  0  0  0
  8  6  1  6  0  0  0
  8 11  1  0  0  0  0
  9 14  1  6  0  0  0
  9  7  1  0  0  0  0
  9 22  1  0  0  0  0
 10 22  1  0  0  0  0
 10  3  1  0  0  0  0
 11 28  1  6  0  0  0
 11  5  1  0  0  0  0
 12  4  1  0  0  0  0
 12  8  1  0  0  0  0
 17 26  1  0  0  0  0
 18 13  2  0  0  0  0
 19  2  2  0  0  0  0
 20 17  2  0  0  0  0
 20  4  1  0  0  0  0
 21 10  2  0  0  0  0
 22 20  1  0  0  0  0
 23 14  1  0  0  0  0
 23 15  1  0  0  0  0
 25 18  1  0  0  0  0
 26 25  2  0  0  0  0
 26 19  1  0  0  0  0
 27 24  1  6  0  0  0
 27 12  1  0  0  0  0
 28 30  1  0  0  0  0
 30 29  1  0  0  0  0
M  END
>  <MODEL>
9

>  <REMARK>
 VINA RESULT:      -6.2      2.033      7.185
  Name = 
  2 active torsions:
  status: ('A' for Active; 'I' for Inactive)
    1  A    between atoms: C_11  and  C_28
    2  A    between atoms: C_28  and  O_30
                            x       y       z     vdW  Elec       q    Type
                         _______ _______ _______ _____ _____    ______ ____

>  <TORSDO>
F 2

$$$$
