=
 OpenBabel11122411213D

 37 43  0  0  1  0  0  0  0  0999 V2000
  181.3660  180.4460  137.8700 C   0  0  0  0  0  2  0  0  0  0  0  0
  180.7130  178.7500  143.1970 C   0  0  0  0  0  0  0  0  0  0  0  0
  183.9680  178.8960  140.5520 C   0  0  0  0  0  0  0  0  0  0  0  0
  180.2370  181.1530  137.1150 C   0  0  2  0  0  3  0  0  0  0  0  0
  182.9120  177.2330  137.3960 O   0  0  0  0  0  0  0  0  0  0  0  0
  183.2620  178.9020  142.8620 C   0  0  0  0  0  0  0  0  0  0  0  0
  183.2880  178.8880  139.2180 C   0  0  1  0  0  3  0  0  0  0  0  0
  180.1910  179.1340  135.4840 C   0  0  2  0  0  3  0  0  0  0  0  0
  183.0030  179.0470  141.5030 C   0  0  0  0  0  0  0  0  0  0  0  0
  183.8280  177.9010  138.2110 C   0  0  0  0  0  0  0  0  0  0  0  0
  184.5930  178.7200  143.2640 C   0  0  0  0  0  3  0  0  0  0  0  0
  179.4010  180.2290  136.2160 C   0  0  0  0  0  2  0  0  0  0  0  0
  181.6710  179.1250  140.8950 C   0  0  2  0  0  3  0  0  0  0  0  0
  180.1260  180.1480  143.2930 C   0  0  0  0  0  1  0  0  0  0  0  0
  186.4250  178.4920  139.9480 C   0  0  0  0  0  2  0  0  0  0  0  0
  185.6140  178.6430  142.2970 C   0  0  0  0  0  3  0  0  0  0  0  0
  180.7100  178.2780  141.7270 C   0  0  0  0  0  2  0  0  0  0  0  0
  180.8160  178.0630  136.4100 C   0  0  1  0  0  3  0  0  0  0  0  0
  182.3430  177.9350  136.2990 C   0  0  0  0  0  2  0  0  0  0  0  0
  185.3140  178.7140  140.9240 C   0  0  0  0  0  0  0  0  0  0  0  0
  181.8720  178.5950  139.5440 N   0  0  1  0  0  0  0  0  0  0  0  0
  182.1240  178.7470  143.8380 C   0  0  0  0  0  2  0  0  0  0  0  0
  185.1510  177.8180  137.9590 C   0  0  0  0  0  0  0  0  0  0  0  0
  179.8300  177.8150  143.9970 C   0  0  0  0  0  1  0  0  0  0  0  0
  180.3020  178.1300  137.7880 N   0  0  0  0  0  2  0  0  0  0  0  0
  181.1180  179.6920  134.5970 O   0  0  0  0  0  1  0  0  0  0  0  0
  180.8880  179.1880  138.6290 C   0  0  2  0  0  3  0  0  0  0  0  0
  186.0190  178.7010  138.6040 O   0  0  0  0  0  0  0  0  0  0  0  0
  186.2630  177.3920  135.7720 C   0  0  0  0  0  3  0  0  0  0  0  0
  185.7330  176.8800  136.9660 C   0  0  0  0  0  0  0  0  0  0  0  0
  185.8170  175.4970  137.2040 C   0  0  0  0  0  3  0  0  0  0  0  0
  186.4720  173.1860  136.5230 C   0  0  0  0  0  1  0  0  0  0  0  0
  186.9100  175.1690  135.0700 C   0  0  0  0  0  3  0  0  0  0  0  0
  186.3980  174.6460  136.2590 C   0  0  0  0  0  0  0  0  0  0  0  0
  186.8450  176.5430  134.8260 C   0  0  0  0  0  3  0  0  0  0  0  0
  181.0330  183.5170  137.1820 C   0  0  0  0  0  1  0  0  0  0  0  0
  180.7930  182.3080  136.2980 C   0  0  0  0  0  2  0  0  0  0  0  0
  1 27  1  0  0  0  0
  2 14  1  0  0  0  0
  2 22  1  0  0  0  0
  2 24  1  0  0  0  0
  3 20  2  0  0  0  0
  3  9  1  0  0  0  0
  4 37  1  6  0  0  0
  4  1  1  0  0  0  0
  5 10  1  0  0  0  0
  6 11  1  0  0  0  0
  6 22  1  0  0  0  0
  7 10  1  6  0  0  0
  7 21  1  0  0  0  0
  7  3  1  0  0  0  0
  8 26  1  1  0  0  0
  8 12  1  0  0  0  0
  8 18  1  0  0  0  0
  9  6  2  0  0  0  0
 12  4  1  0  0  0  0
 13  9  1  0  0  0  0
 13 17  1  1  0  0  0
 15 20  1  0  0  0  0
 16 11  2  0  0  0  0
 17  2  1  0  0  0  0
 18 19  1  1  0  0  0
 18 25  1  0  0  0  0
 19  5  1  0  0  0  0
 20 16  1  0  0  0  0
 21 13  1  0  0  0  0
 23 10  2  0  0  0  0
 23 28  1  0  0  0  0
 25 27  1  0  0  0  0
 27 21  1  0  0  0  0
 28 15  1  0  0  0  0
 29 30  1  0  0  0  0
 30 31  2  0  0  0  0
 30 23  1  0  0  0  0
 33 34  2  0  0  0  0
 34 32  1  0  0  0  0
 34 31  1  0  0  0  0
 35 33  1  0  0  0  0
 35 29  2  0  0  0  0
 37 36  1  0  0  0  0
M  END
>  <MODEL>
1

>  <REMARK>
 VINA RESULT:      -7.7      0.000      0.000
  Name = 
  2 active torsions:
  status: ('A' for Active; 'I' for Inactive)
    1  A    between atoms: C_4  and  C_37
    2  A    between atoms: C_23  and  C_30
                            x       y       z     vdW  Elec       q    Type
                         _______ _______ _______ _____ _____    ______ ____

>  <TORSDO>
F 2

$$$$
=
 OpenBabel11122411213D

 37 43  0  0  1  0  0  0  0  0999 V2000
  181.5080  179.7550  139.7480 C   0  0  0  0  0  2  0  0  0  0  0  0
  185.0110  178.9520  144.0790 C   0  0  0  0  0  0  0  0  0  0  0  0
  185.3090  178.3810  139.9320 C   0  0  0  0  0  0  0  0  0  0  0  0
  180.1550  180.4470  139.9340 C   0  0  2  0  0  3  0  0  0  0  0  0
  182.3620  176.3730  138.8710 O   0  0  0  0  0  0  0  0  0  0  0  0
  186.5060  178.8030  141.9880 C   0  0  0  0  0  0  0  0  0  0  0  0
  183.8730  178.2390  139.5320 C   0  0  1  0  0  3  0  0  0  0  0  0
  179.0250  178.2200  139.2260 C   0  0  2  0  0  3  0  0  0  0  0  0
  185.3330  178.7660  141.2400 C   0  0  0  0  0  0  0  0  0  0  0  0
  183.5530  177.0630  138.6390 C   0  0  0  0  0  0  0  0  0  0  0  0
  187.7170  178.5550  141.3270 C   0  0  0  0  0  3  0  0  0  0  0  0
  178.9690  179.4840  140.0960 C   0  0  0  0  0  2  0  0  0  0  0  0
  183.9760  178.8820  141.7810 C   0  0  2  0  0  3  0  0  0  0  0  0
  184.6170  180.3990  144.3250 C   0  0  0  0  0  1  0  0  0  0  0  0
  186.5690  177.6540  137.8230 C   0  0  0  0  0  2  0  0  0  0  0  0
  187.7170  178.2350  139.9560 C   0  0  0  0  0  3  0  0  0  0  0  0
  183.9590  178.2670  143.1800 C   0  0  0  0  0  2  0  0  0  0  0  0
  180.1730  177.2440  139.5800 C   0  0  1  0  0  3  0  0  0  0  0  0
  181.1440  176.9540  138.4260 C   0  0  0  0  0  2  0  0  0  0  0  0
  186.5080  178.1280  139.2410 C   0  0  0  0  0  0  0  0  0  0  0  0
  183.1530  178.1370  140.8240 N   0  0  1  0  0  0  0  0  0  0  0  0
  186.4430  178.9080  143.4900 C   0  0  0  0  0  2  0  0  0  0  0  0
  184.2800  176.8160  137.5290 C   0  0  0  0  0  0  0  0  0  0  0  0
  185.0290  178.2380  145.4150 C   0  0  0  0  0  1  0  0  0  0  0  0
  180.8210  177.5680  140.8630 N   0  0  0  0  0  2  0  0  0  0  0  0
  178.9900  178.5450  137.8660 O   0  0  0  0  0  1  0  0  0  0  0  0
  181.7880  178.6790  140.8190 C   0  0  2  0  0  3  0  0  0  0  0  0
  185.3040  177.6970  137.1800 O   0  0  0  0  0  0  0  0  0  0  0  0
  183.1630  175.9030  135.4990 C   0  0  0  0  0  3  0  0  0  0  0  0
  183.9960  175.6870  136.6070 C   0  0  0  0  0  0  0  0  0  0  0  0
  184.5770  174.4180  136.7780 C   0  0  0  0  0  3  0  0  0  0  0  0
  184.9280  172.0480  136.0730 C   0  0  0  0  0  1  0  0  0  0  0  0
  183.4700  173.6120  134.7820 C   0  0  0  0  0  3  0  0  0  0  0  0
  184.3120  173.3860  135.8740 C   0  0  0  0  0  0  0  0  0  0  0  0
  182.8970  174.8720  134.5940 C   0  0  0  0  0  3  0  0  0  0  0  0
  181.1210  181.5370  137.9080 C   0  0  0  0  0  1  0  0  0  0  0  0
  179.8910  181.4070  138.7850 C   0  0  0  0  0  2  0  0  0  0  0  0
  1  4  1  0  0  0  0
  1 27  1  0  0  0  0
  2 14  1  0  0  0  0
  2 24  1  0  0  0  0
  3  9  1  0  0  0  0
  4 37  1  6  0  0  0
  4 12  1  0  0  0  0
  6 22  1  0  0  0  0
  7 10  1  6  0  0  0
  7  3  1  0  0  0  0
  7 21  1  0  0  0  0
  8 26  1  6  0  0  0
  8 18  1  0  0  0  0
  8 12  1  0  0  0  0
  9 13  1  0  0  0  0
  9  6  2  0  0  0  0
 10  5  1  0  0  0  0
 11  6  1  0  0  0  0
 13 17  1  1  0  0  0
 15 20  1  0  0  0  0
 16 11  2  0  0  0  0
 17  2  1  0  0  0  0
 18 19  1  6  0  0  0
 18 25  1  0  0  0  0
 19  5  1  0  0  0  0
 20  3  2  0  0  0  0
 20 16  1  0  0  0  0
 21 13  1  0  0  0  0
 22  2  1  0  0  0  0
 23 10  2  0  0  0  0
 27 21  1  0  0  0  0
 27 25  1  0  0  0  0
 28 23  1  0  0  0  0
 28 15  1  0  0  0  0
 29 30  1  0  0  0  0
 30 31  2  0  0  0  0
 30 23  1  0  0  0  0
 33 34  2  0  0  0  0
 34 32  1  0  0  0  0
 34 31  1  0  0  0  0
 35 33  1  0  0  0  0
 35 29  2  0  0  0  0
 36 37  1  0  0  0  0
M  END
>  <MODEL>
2

>  <REMARK>
 VINA RESULT:      -6.6      2.110      3.047
  Name = 
  2 active torsions:
  status: ('A' for Active; 'I' for Inactive)
    1  A    between atoms: C_4  and  C_37
    2  A    between atoms: C_23  and  C_30
                            x       y       z     vdW  Elec       q    Type
                         _______ _______ _______ _____ _____    ______ ____

>  <TORSDO>
F 2

$$$$
=
 OpenBabel11122411213D

 37 43  0  0  1  0  0  0  0  0999 V2000
  183.0430  176.7670  139.4970 C   0  0  0  0  0  2  0  0  0  0  0  0
  179.8790  173.7200  135.9790 C   0  0  0  0  0  0  0  0  0  0  0  0
  183.8950  173.5570  137.1870 C   0  0  0  0  0  0  0  0  0  0  0  0
  182.4280  177.8520  140.3860 C   0  0  2  0  0  3  0  0  0  0  0  0
  185.3330  176.9580  136.7300 O   0  0  0  0  0  0  0  0  0  0  0  0
  182.0060  172.3140  136.3370 C   0  0  0  0  0  0  0  0  0  0  0  0
  184.1450  174.9640  137.6340 C   0  0  1  0  0  3  0  0  0  0  0  0
  183.8540  179.5900  139.0870 C   0  0  2  0  0  3  0  0  0  0  0  0
  182.5580  173.4340  136.9500 C   0  0  0  0  0  0  0  0  0  0  0  0
  185.3980  175.6110  137.0950 C   0  0  0  0  0  0  0  0  0  0  0  0
  182.8480  171.2250  136.0730 C   0  0  0  0  0  3  0  0  0  0  0  0
  182.5390  179.2740  139.8160 C   0  0  0  0  0  2  0  0  0  0  0  0
  181.8600  174.7010  137.1910 C   0  0  2  0  0  3  0  0  0  0  0  0
  179.0120  173.6640  137.2260 C   0  0  0  0  0  1  0  0  0  0  0  0
  186.2480  172.5470  137.1200 C   0  0  0  0  0  2  0  0  0  0  0  0
  184.2190  171.3050  136.3870 C   0  0  0  0  0  3  0  0  0  0  0  0
  180.8500  174.9180  136.0660 C   0  0  0  0  0  2  0  0  0  0  0  0
  184.0730  178.7920  137.7790 C   0  0  1  0  0  3  0  0  0  0  0  0
  185.3510  177.9400  137.7580 C   0  0  0  0  0  2  0  0  0  0  0  0
  184.7660  172.4800  136.9350 C   0  0  0  0  0  0  0  0  0  0  0  0
  182.9340  175.6970  137.1900 N   0  0  1  0  0  0  0  0  0  0  0  0
  180.5990  172.3600  135.7990 C   0  0  0  0  0  2  0  0  0  0  0  0
  186.5890  174.9790  137.1580 C   0  0  0  0  0  0  0  0  0  0  0  0
  178.9700  173.9330  134.7870 C   0  0  0  0  0  1  0  0  0  0  0  0
  182.8580  178.0930  137.3280 N   0  0  0  0  0  2  0  0  0  0  0  0
  184.9430  179.5090  139.9600 O   0  0  0  0  0  1  0  0  0  0  0  0
  182.5530  176.8370  138.0340 C   0  0  2  0  0  3  0  0  0  0  0  0
  186.6610  173.7330  137.7830 O   0  0  0  0  0  0  0  0  0  0  0  0
  187.9620  175.9200  135.3060 C   0  0  0  0  0  3  0  0  0  0  0  0
  187.8550  175.5770  136.6620 C   0  0  0  0  0  0  0  0  0  0  0  0
  188.9330  175.8590  137.5180 C   0  0  0  0  0  3  0  0  0  0  0  0
  191.2340  176.7340  137.9400 C   0  0  0  0  0  1  0  0  0  0  0  0
  190.1970  176.7740  135.6680 C   0  0  0  0  0  3  0  0  0  0  0  0
  190.0990  176.4490  137.0230 C   0  0  0  0  0  0  0  0  0  0  0  0
  189.1270  176.5110  134.8090 C   0  0  0  0  0  3  0  0  0  0  0  0
  182.4780  178.9130  142.6440 C   0  0  0  0  0  1  0  0  0  0  0  0
  183.0380  177.8020  141.7770 C   0  0  0  0  0  2  0  0  0  0  0  0
  1  4  1  0  0  0  0
  2 17  1  0  0  0  0
  2 14  1  0  0  0  0
  3  7  1  0  0  0  0
  4 37  1  1  0  0  0
  5 10  1  0  0  0  0
  5 19  1  0  0  0  0
  6  9  2  0  0  0  0
  7 10  1  6  0  0  0
  8 12  1  0  0  0  0
  8 26  1  1  0  0  0
  9  3  1  0  0  0  0
  9 13  1  0  0  0  0
 10 23  2  0  0  0  0
 11  6  1  0  0  0  0
 11 16  2  0  0  0  0
 12  4  1  0  0  0  0
 13 17  1  6  0  0  0
 15 28  1  0  0  0  0
 16 20  1  0  0  0  0
 18 19  1  1  0  0  0
 18  8  1  0  0  0  0
 20 15  1  0  0  0  0
 20  3  2  0  0  0  0
 21 13  1  0  0  0  0
 21  7  1  0  0  0  0
 21 27  1  0  0  0  0
 22  2  1  0  0  0  0
 22  6  1  0  0  0  0
 23 28  1  0  0  0  0
 24  2  1  0  0  0  0
 25 18  1  0  0  0  0
 25 27  1  0  0  0  0
 27  1  1  0  0  0  0
 29 30  1  0  0  0  0
 30 23  1  0  0  0  0
 30 31  2  0  0  0  0
 33 34  2  0  0  0  0
 34 31  1  0  0  0  0
 34 32  1  0  0  0  0
 35 29  2  0  0  0  0
 35 33  1  0  0  0  0
 37 36  1  0  0  0  0
M  END
>  <MODEL>
3

>  <REMARK>
 VINA RESULT:      -6.0      3.047      6.132
  Name = 
  2 active torsions:
  status: ('A' for Active; 'I' for Inactive)
    1  A    between atoms: C_4  and  C_37
    2  A    between atoms: C_23  and  C_30
                            x       y       z     vdW  Elec       q    Type
                         _______ _______ _______ _____ _____    ______ ____

>  <TORSDO>
F 2

$$$$
=
 OpenBabel11122411213D

 37 43  0  0  1  0  0  0  0  0999 V2000
  187.2580  176.3490  138.3430 C   0  0  0  0  0  2  0  0  0  0  0  0
  189.5150  178.2530  143.1340 C   0  0  0  0  0  0  0  0  0  0  0  0
  185.5960  177.9590  141.6620 C   0  0  0  0  0  0  0  0  0  0  0  0
  188.1090  175.6310  137.2910 C   0  0  2  0  0  3  0  0  0  0  0  0
  185.5580  179.5190  138.2840 O   0  0  0  0  0  0  0  0  0  0  0  0
  186.9960  178.0500  143.6290 C   0  0  0  0  0  0  0  0  0  0  0  0
  185.8200  177.9270  140.1810 C   0  0  1  0  0  3  0  0  0  0  0  0
  187.5840  177.5880  135.6680 C   0  0  2  0  0  3  0  0  0  0  0  0
  186.8160  177.8590  142.2620 C   0  0  0  0  0  0  0  0  0  0  0  0
  184.9640  178.8680  139.3670 C   0  0  0  0  0  0  0  0  0  0  0  0
  185.8560  178.2270  144.4250 C   0  0  0  0  0  3  0  0  0  0  0  0
  188.5930  176.5330  136.1460 C   0  0  0  0  0  2  0  0  0  0  0  0
  187.8900  177.7770  141.2670 C   0  0  2  0  0  3  0  0  0  0  0  0
  190.1390  176.8680  143.0830 C   0  0  0  0  0  1  0  0  0  0  0  0
  183.0650  178.3040  141.8540 C   0  0  0  0  0  2  0  0  0  0  0  0
  184.5800  178.2530  143.8300 C   0  0  0  0  0  3  0  0  0  0  0  0
  189.0420  178.6690  141.7250 C   0  0  0  0  0  2  0  0  0  0  0  0
  187.2560  178.6840  136.7110 C   0  0  1  0  0  3  0  0  0  0  0  0
  185.7690  178.7840  137.0850 C   0  0  0  0  0  2  0  0  0  0  0  0
  184.4330  178.1350  142.4350 C   0  0  0  0  0  0  0  0  0  0  0  0
  187.2590  178.2530  140.0330 N   0  0  1  0  0  0  0  0  0  0  0  0
  188.3800  178.2580  144.1890 C   0  0  0  0  0  2  0  0  0  0  0  0
  183.6280  178.9210  139.5450 C   0  0  0  0  0  0  0  0  0  0  0  0
  190.5810  179.2300  143.5840 C   0  0  0  0  0  1  0  0  0  0  0  0
  188.1810  178.6750  137.8570 N   0  0  0  0  0  2  0  0  0  0  0  0
  186.4390  176.9830  135.1380 O   0  0  0  0  0  1  0  0  0  0  0  0
  187.9180  177.6410  138.8730 C   0  0  2  0  0  3  0  0  0  0  0  0
  183.0310  178.0500  140.4580 O   0  0  0  0  0  0  0  0  0  0  0  0
  182.6800  181.1770  139.0800 C   0  0  0  0  0  3  0  0  0  0  0  0
  182.7370  179.8130  138.7580 C   0  0  0  0  0  0  0  0  0  0  0  0
  181.9860  179.3440  137.6670 C   0  0  0  0  0  3  0  0  0  0  0  0
  180.3860  179.7030  135.7830 C   0  0  0  0  0  1  0  0  0  0  0  0
  181.1240  181.5700  137.2690 C   0  0  0  0  0  3  0  0  0  0  0  0
  181.1800  180.2160  136.9300 C   0  0  0  0  0  0  0  0  0  0  0  0
  181.8760  182.0510  138.3440 C   0  0  0  0  0  3  0  0  0  0  0  0
  185.9180  174.4380  137.2190 C   0  0  0  0  0  1  0  0  0  0  0  0
  187.3530  174.4380  136.7290 C   0  0  0  0  0  2  0  0  0  0  0  0
  1 27  1  0  0  0  0
  2 24  1  0  0  0  0
  2 22  1  0  0  0  0
  3  9  2  0  0  0  0
  3 20  1  0  0  0  0
  4 37  1  6  0  0  0
  4  1  1  0  0  0  0
  5 10  1  0  0  0  0
  6 22  1  0  0  0  0
  6 11  2  0  0  0  0
  7 10  1  6  0  0  0
  7  3  1  0  0  0  0
  8 26  1  1  0  0  0
  8 12  1  0  0  0  0
  8 18  1  0  0  0  0
  9  6  1  0  0  0  0
 10 23  2  0  0  0  0
 12  4  1  0  0  0  0
 13 17  1  1  0  0  0
 13  9  1  0  0  0  0
 14  2  1  0  0  0  0
 15 20  1  0  0  0  0
 16 11  1  0  0  0  0
 17  2  1  0  0  0  0
 18 19  1  1  0  0  0
 18 25  1  0  0  0  0
 19  5  1  0  0  0  0
 20 16  2  0  0  0  0
 21  7  1  0  0  0  0
 21 13  1  0  0  0  0
 23 28  1  0  0  0  0
 25 27  1  0  0  0  0
 27 21  1  0  0  0  0
 28 15  1  0  0  0  0
 30 29  1  0  0  0  0
 30 23  1  0  0  0  0
 31 30  2  0  0  0  0
 32 34  1  0  0  0  0
 33 35  1  0  0  0  0
 34 33  2  0  0  0  0
 34 31  1  0  0  0  0
 35 29  2  0  0  0  0
 37 36  1  0  0  0  0
M  END
>  <MODEL>
4

>  <REMARK>
 VINA RESULT:      -5.8      2.582      6.741
  Name = 
  2 active torsions:
  status: ('A' for Active; 'I' for Inactive)
    1  A    between atoms: C_4  and  C_37
    2  A    between atoms: C_23  and  C_30
                            x       y       z     vdW  Elec       q    Type
                         _______ _______ _______ _____ _____    ______ ____

>  <TORSDO>
F 2

$$$$
=
 OpenBabel11122411213D

 37 43  0  0  1  0  0  0  0  0999 V2000
  183.9520  174.7270  136.7260 C   0  0  0  0  0  2  0  0  0  0  0  0
  189.0800  176.8220  135.7290 C   0  0  0  0  0  0  0  0  0  0  0  0
  186.1510  177.5240  138.6530 C   0  0  0  0  0  0  0  0  0  0  0  0
  183.4050  173.5430  135.9240 C   0  0  2  0  0  3  0  0  0  0  0  0
  182.9460  178.1770  136.8810 O   0  0  0  0  0  0  0  0  0  0  0  0
  188.5070  177.5950  138.1180 C   0  0  0  0  0  0  0  0  0  0  0  0
  184.9030  177.0760  137.9580 C   0  0  1  0  0  3  0  0  0  0  0  0
  181.5600  175.1300  135.0200 C   0  0  2  0  0  3  0  0  0  0  0  0
  187.2080  177.1630  137.8690 C   0  0  0  0  0  0  0  0  0  0  0  0
  183.7360  178.0330  138.0230 C   0  0  0  0  0  0  0  0  0  0  0  0
  188.7460  178.3220  139.2920 C   0  0  0  0  0  3  0  0  0  0  0  0
  182.4940  173.9390  134.7530 C   0  0  0  0  0  2  0  0  0  0  0  0
  186.7530  176.4980  136.6440 C   0  0  2  0  0  3  0  0  0  0  0  0
  189.4010  175.3360  135.7360 C   0  0  0  0  0  1  0  0  0  0  0  0
  185.2560  178.7300  140.7280 C   0  0  0  0  0  2  0  0  0  0  0  0
  187.6770  178.6350  140.1550 C   0  0  0  0  0  3  0  0  0  0  0  0
  187.5730  177.0340  135.4710 C   0  0  0  0  0  2  0  0  0  0  0  0
  182.2840  176.4820  135.2250 C   0  0  1  0  0  3  0  0  0  0  0  0
  182.0040  177.1580  136.5760 C   0  0  0  0  0  2  0  0  0  0  0  0
  186.3600  178.2520  139.8390 C   0  0  0  0  0  0  0  0  0  0  0  0
  185.3350  176.8580  136.5570 N   0  0  1  0  0  0  0  0  0  0  0  0
  189.5680  177.4520  137.0580 C   0  0  0  0  0  2  0  0  0  0  0  0
  183.3420  178.5700  139.1960 C   0  0  0  0  0  0  0  0  0  0  0  0
  189.8500  177.4620  134.5940 C   0  0  0  0  0  1  0  0  0  0  0  0
  183.7060  176.4310  134.8450 N   0  0  0  0  0  2  0  0  0  0  0  0
  180.6560  174.8380  136.0450 O   0  0  0  0  0  1  0  0  0  0  0  0
  184.6020  175.8090  135.8360 C   0  0  2  0  0  3  0  0  0  0  0  0
  183.9940  178.1860  140.3690 O   0  0  0  0  0  0  0  0  0  0  0  0
  181.1910  179.2260  140.2650 C   0  0  0  0  0  3  0  0  0  0  0  0
  182.1910  179.5000  139.3200 C   0  0  0  0  0  0  0  0  0  0  0  0
  182.0940  180.6750  138.5550 C   0  0  0  0  0  3  0  0  0  0  0  0
  180.9190  182.7770  137.8950 C   0  0  0  0  0  1  0  0  0  0  0  0
  180.0160  181.2520  139.6530 C   0  0  0  0  0  3  0  0  0  0  0  0
  181.0110  181.5430  138.7170 C   0  0  0  0  0  0  0  0  0  0  0  0
  180.1070  180.0930  140.4290 C   0  0  0  0  0  3  0  0  0  0  0  0
  183.2190  171.1690  136.6710 C   0  0  0  0  0  1  0  0  0  0  0  0
  182.6780  172.5750  136.8440 C   0  0  0  0  0  2  0  0  0  0  0  0
  2 14  1  0  0  0  0
  2 22  1  0  0  0  0
  3 20  1  0  0  0  0
  4  1  1  0  0  0  0
  4 37  1  1  0  0  0
  5 10  1  0  0  0  0
  6 11  2  0  0  0  0
  7 10  1  6  0  0  0
  7  3  1  0  0  0  0
  8 18  1  0  0  0  0
  8 26  1  1  0  0  0
  9  6  1  0  0  0  0
  9  3  2  0  0  0  0
 10 23  2  0  0  0  0
 11 16  1  0  0  0  0
 12  8  1  0  0  0  0
 12  4  1  0  0  0  0
 13 17  1  6  0  0  0
 13  9  1  0  0  0  0
 17  2  1  0  0  0  0
 18 19  1  1  0  0  0
 19  5  1  0  0  0  0
 20 16  2  0  0  0  0
 20 15  1  0  0  0  0
 21 13  1  0  0  0  0
 21  7  1  0  0  0  0
 22  6  1  0  0  0  0
 23 30  1  0  0  0  0
 23 28  1  0  0  0  0
 24  2  1  0  0  0  0
 25 18  1  0  0  0  0
 25 27  1  0  0  0  0
 27 21  1  0  0  0  0
 27  1  1  0  0  0  0
 28 15  1  0  0  0  0
 29 35  1  0  0  0  0
 30 29  2  0  0  0  0
 31 34  2  0  0  0  0
 31 30  1  0  0  0  0
 32 34  1  0  0  0  0
 33 35  2  0  0  0  0
 34 33  1  0  0  0  0
 36 37  1  0  0  0  0
M  END
>  <MODEL>
5

>  <REMARK>
 VINA RESULT:      -5.5      2.452      7.275
  Name = 
  2 active torsions:
  status: ('A' for Active; 'I' for Inactive)
    1  A    between atoms: C_4  and  C_37
    2  A    between atoms: C_23  and  C_30
                            x       y       z     vdW  Elec       q    Type
                         _______ _______ _______ _____ _____    ______ ____

>  <TORSDO>
F 2

$$$$
=
 OpenBabel11122411213D

 37 43  0  0  1  0  0  0  0  0999 V2000
  183.9900  178.2570  141.1970 C   0  0  0  0  0  2  0  0  0  0  0  0
  179.8320  180.9040  138.4820 C   0  0  0  0  0  0  0  0  0  0  0  0
  181.4900  177.0560  138.2520 C   0  0  0  0  0  0  0  0  0  0  0  0
  184.6900  178.8950  142.4010 C   0  0  2  0  0  3  0  0  0  0  0  0
  185.1720  177.4520  137.8960 O   0  0  0  0  0  0  0  0  0  0  0  0
  179.5280  178.4170  137.8860 C   0  0  0  0  0  0  0  0  0  0  0  0
  182.8630  177.2730  138.8100 C   0  0  1  0  0  3  0  0  0  0  0  0
  186.8760  178.9140  141.0000 C   0  0  2  0  0  3  0  0  0  0  0  0
  180.7800  178.2020  138.4540 C   0  0  0  0  0  0  0  0  0  0  0  0
  184.0000  176.7000  137.9980 C   0  0  0  0  0  0  0  0  0  0  0  0
  178.9310  177.3590  137.1870 C   0  0  0  0  0  3  0  0  0  0  0  0
  186.0080  179.6070  142.0620 C   0  0  0  0  0  2  0  0  0  0  0  0
  181.6010  179.2230  139.1120 C   0  0  2  0  0  3  0  0  0  0  0  0
  179.3990  181.1420  139.9200 C   0  0  0  0  0  1  0  0  0  0  0  0
  181.6410  174.7030  137.2490 C   0  0  0  0  0  2  0  0  0  0  0  0
  179.6170  176.1390  137.0390 C   0  0  0  0  0  3  0  0  0  0  0  0
  181.3380  180.5670  138.4350 C   0  0  0  0  0  2  0  0  0  0  0  0
  186.2540  178.8790  139.5830 C   0  0  1  0  0  3  0  0  0  0  0  0
  186.0630  177.4690  139.0040 C   0  0  0  0  0  2  0  0  0  0  0  0
  180.9160  175.9750  137.5570 C   0  0  0  0  0  0  0  0  0  0  0  0
  182.9730  178.7480  138.9150 N   0  0  1  0  0  0  0  0  0  0  0  0
  178.9370  179.8030  137.8590 C   0  0  0  0  0  2  0  0  0  0  0  0
  183.9680  175.4240  137.5620 C   0  0  0  0  0  0  0  0  0  0  0  0
  179.6090  182.1870  137.7080 C   0  0  0  0  0  1  0  0  0  0  0  0
  185.0820  179.7620  139.4530 N   0  0  0  0  0  2  0  0  0  0  0  0
  187.2950  177.6550  141.4390 O   0  0  0  0  0  1  0  0  0  0  0  0
  183.8260  179.2300  140.0090 C   0  0  2  0  0  3  0  0  0  0  0  0
  182.8900  174.6130  137.9190 O   0  0  0  0  0  0  0  0  0  0  0  0
  185.2890  175.2300  135.4600 C   0  0  0  0  0  3  0  0  0  0  0  0
  185.0670  174.8040  136.7780 C   0  0  0  0  0  0  0  0  0  0  0  0
  185.9280  173.8400  137.3300 C   0  0  0  0  0  3  0  0  0  0  0  0
  187.8660  172.2740  137.1700 C   0  0  0  0  0  1  0  0  0  0  0  0
  187.1720  173.7230  135.2580 C   0  0  0  0  0  3  0  0  0  0  0  0
  186.9700  173.2990  136.5730 C   0  0  0  0  0  0  0  0  0  0  0  0
  186.3320  174.6910  134.7010 C   0  0  0  0  0  3  0  0  0  0  0  0
  185.4790  178.5080  144.7370 C   0  0  0  0  0  1  0  0  0  0  0  0
  184.9250  177.8560  143.4850 C   0  0  0  0  0  2  0  0  0  0  0  0
  1  4  1  0  0  0  0
  2 14  1  0  0  0  0
  3  9  1  0  0  0  0
  3  7  1  0  0  0  0
  4 37  1  1  0  0  0
  5 10  1  0  0  0  0
  5 19  1  0  0  0  0
  6  9  2  0  0  0  0
  7 10  1  6  0  0  0
  7 21  1  0  0  0  0
  8 26  1  1  0  0  0
  8 12  1  0  0  0  0
  9 13  1  0  0  0  0
 11  6  1  0  0  0  0
 12  4  1  0  0  0  0
 13 17  1  6  0  0  0
 15 20  1  0  0  0  0
 15 28  1  0  0  0  0
 16 11  2  0  0  0  0
 16 20  1  0  0  0  0
 17  2  1  0  0  0  0
 18 19  1  1  0  0  0
 18  8  1  0  0  0  0
 20  3  2  0  0  0  0
 21 13  1  0  0  0  0
 21 27  1  0  0  0  0
 22  6  1  0  0  0  0
 22  2  1  0  0  0  0
 23 28  1  0  0  0  0
 23 10  2  0  0  0  0
 24  2  1  0  0  0  0
 25 18  1  0  0  0  0
 25 27  1  0  0  0  0
 27  1  1  0  0  0  0
 29 30  1  0  0  0  0
 30 31  2  0  0  0  0
 30 23  1  0  0  0  0
 33 34  2  0  0  0  0
 34 32  1  0  0  0  0
 34 31  1  0  0  0  0
 35 33  1  0  0  0  0
 35 29  2  0  0  0  0
 37 36  1  0  0  0  0
M  END
>  <MODEL>
6

>  <REMARK>
 VINA RESULT:      -5.0      2.235      5.545
  Name = 
  2 active torsions:
  status: ('A' for Active; 'I' for Inactive)
    1  A    between atoms: C_4  and  C_37
    2  A    between atoms: C_23  and  C_30
                            x       y       z     vdW  Elec       q    Type
                         _______ _______ _______ _____ _____    ______ ____

>  <TORSDO>
F 2

$$$$
=
 OpenBabel11122411213D

 37 43  0  0  1  0  0  0  0  0999 V2000
  184.6000  177.2680  137.2910 C   0  0  0  0  0  2  0  0  0  0  0  0
  180.6980  181.2980  137.7490 C   0  0  0  0  0  0  0  0  0  0  0  0
  180.9010  177.2760  138.9300 C   0  0  0  0  0  0  0  0  0  0  0  0
  186.0030  177.5730  136.7580 C   0  0  2  0  0  3  0  0  0  0  0  0
  181.9100  175.2910  135.9500 O   0  0  0  0  0  0  0  0  0  0  0  0
  179.9180  179.4420  139.3540 C   0  0  0  0  0  0  0  0  0  0  0  0
  181.9240  176.7240  137.9860 C   0  0  1  0  0  3  0  0  0  0  0  0
  185.4830  175.9970  134.7610 C   0  0  2  0  0  3  0  0  0  0  0  0
  180.8870  178.6300  138.7720 C   0  0  0  0  0  0  0  0  0  0  0  0
  181.5490  175.4370  137.2900 C   0  0  0  0  0  0  0  0  0  0  0  0
  179.0040  178.8480  140.2350 C   0  0  0  0  0  3  0  0  0  0  0  0
  186.1930  177.2620  135.2650 C   0  0  0  0  0  2  0  0  0  0  0  0
  181.8430  179.0520  137.7440 C   0  0  2  0  0  3  0  0  0  0  0  0
  181.8940  182.0220  138.3460 C   0  0  0  0  0  1  0  0  0  0  0  0
  179.9120  175.1700  140.0030 C   0  0  0  0  0  2  0  0  0  0  0  0
  179.0550  177.4610  140.4720 C   0  0  0  0  0  3  0  0  0  0  0  0
  181.1800  180.1190  136.8750 C   0  0  0  0  0  2  0  0  0  0  0  0
  183.9370  176.0700  134.7930 C   0  0  1  0  0  3  0  0  0  0  0  0
  183.2640  174.9820  135.6420 C   0  0  0  0  0  2  0  0  0  0  0  0
  179.9970  176.6510  139.8090 C   0  0  0  0  0  0  0  0  0  0  0  0
  182.1300  177.8180  137.0070 N   0  0  1  0  0  0  0  0  0  0  0  0
  179.7450  180.8650  138.8910 C   0  0  0  0  0  2  0  0  0  0  0  0
  181.0720  174.3840  137.9860 C   0  0  0  0  0  0  0  0  0  0  0  0
  179.9570  182.2740  136.8600 C   0  0  0  0  0  1  0  0  0  0  0  0
  183.4360  177.4350  135.0290 N   0  0  0  0  0  2  0  0  0  0  0  0
  185.9850  174.8550  135.3920 O   0  0  0  0  0  1  0  0  0  0  0  0
  183.4790  177.8890  136.4300 C   0  0  2  0  0  3  0  0  0  0  0  0
  180.9800  174.4770  139.3760 O   0  0  0  0  0  0  0  0  0  0  0  0
  179.3530  172.7400  137.2490 C   0  0  0  0  0  3  0  0  0  0  0  0
  180.7070  173.0900  137.3560 C   0  0  0  0  0  0  0  0  0  0  0  0
  181.6740  172.2240  136.8140 C   0  0  0  0  0  3  0  0  0  0  0  0
  182.3270  170.1190  135.6410 C   0  0  0  0  0  1  0  0  0  0  0  0
  179.9420  170.6860  136.1130 C   0  0  0  0  0  3  0  0  0  0  0  0
  181.2930  171.0270  136.2020 C   0  0  0  0  0  0  0  0  0  0  0  0
  178.9710  171.5440  136.6360 C   0  0  0  0  0  3  0  0  0  0  0  0
  187.8570  177.8160  138.4100 C   0  0  0  0  0  1  0  0  0  0  0  0
  187.0490  176.8380  137.5790 C   0  0  0  0  0  2  0  0  0  0  0  0
  2 14  1  0  0  0  0
  2 22  1  0  0  0  0
  3 20  1  0  0  0  0
  4  1  1  0  0  0  0
  4 37  1  1  0  0  0
  5 10  1  0  0  0  0
  6 11  2  0  0  0  0
  7 10  1  6  0  0  0
  7  3  1  0  0  0  0
  8 18  1  0  0  0  0
  8 12  1  0  0  0  0
  8 26  1  1  0  0  0
  9  3  2  0  0  0  0
  9  6  1  0  0  0  0
 10 23  2  0  0  0  0
 11 16  1  0  0  0  0
 12  4  1  0  0  0  0
 13 17  1  6  0  0  0
 13  9  1  0  0  0  0
 17  2  1  0  0  0  0
 18 25  1  0  0  0  0
 18 19  1  1  0  0  0
 19  5  1  0  0  0  0
 20 15  1  0  0  0  0
 20 16  2  0  0  0  0
 21 13  1  0  0  0  0
 21  7  1  0  0  0  0
 22  6  1  0  0  0  0
 23 28  1  0  0  0  0
 24  2  1  0  0  0  0
 25 27  1  0  0  0  0
 27 21  1  0  0  0  0
 27  1  1  0  0  0  0
 28 15  1  0  0  0  0
 29 30  1  0  0  0  0
 30 23  1  0  0  0  0
 31 30  2  0  0  0  0
 32 34  1  0  0  0  0
 33 34  2  0  0  0  0
 33 35  1  0  0  0  0
 34 31  1  0  0  0  0
 35 29  2  0  0  0  0
 37 36  1  0  0  0  0
M  END
>  <MODEL>
7

>  <REMARK>
 VINA RESULT:      -4.9      3.301      5.986
  Name = 
  2 active torsions:
  status: ('A' for Active; 'I' for Inactive)
    1  A    between atoms: C_4  and  C_37
    2  A    between atoms: C_23  and  C_30
                            x       y       z     vdW  Elec       q    Type
                         _______ _______ _______ _____ _____    ______ ____

>  <TORSDO>
F 2

$$$$
