=
 OpenBabel11122411213D

 37 43  0  0  1  0  0  0  0  0999 V2000
  187.6680  178.1640  139.4960 C   0  0  0  0  0  2  0  0  0  0  0  0
  190.2340  176.9150  143.2240 C   0  0  0  0  0  0  0  0  0  0  0  0
  186.2280  177.9730  144.0190 C   0  0  0  0  0  0  0  0  0  0  0  0
  187.4360  179.0230  138.2690 C   0  0  2  0  0  3  0  0  0  0  0  0
  183.5930  177.5410  141.4750 O   0  0  0  0  0  0  0  0  0  0  0  0
  188.4840  177.6720  144.8290 C   0  0  0  0  0  0  0  0  0  0  0  0
  185.6470  177.9740  142.8280 C   0  0  0  0  0  0  0  0  0  0  0  0
  185.0410  178.3370  138.1030 C   0  0  0  0  0  0  0  0  0  0  0  0
  187.5960  177.6450  143.8580 C   0  0  0  0  0  0  0  0  0  0  0  0
  184.1820  178.1380  142.6040 C   0  0  0  0  0  0  0  0  0  0  0  0
  188.0150  177.9970  146.1950 C   0  0  0  0  0  3  0  0  0  0  0  0
  186.3130  178.5320  137.5490 O   0  0  0  0  0  0  0  0  0  0  0  0
  187.9150  177.3960  142.5210 N   0  0  0  0  0  0  0  0  0  0  0  0
  190.2170  175.3980  143.2640 C   0  0  0  0  0  1  0  0  0  0  0  0
  184.8410  179.3860  145.3930 N   0  0  0  0  0  0  0  0  0  0  0  0
  186.7060  178.2280  146.4430 C   0  0  0  0  0  3  0  0  0  0  0  0
  189.3090  177.3980  142.0780 C   0  0  0  0  0  2  0  0  0  0  0  0
  184.7370  178.4980  139.5720 C   0  0  1  0  0  3  0  0  0  0  0  0
  184.2930  177.2150  140.2790 C   0  0  0  0  0  2  0  0  0  0  0  0
  185.6210  178.1620  145.3700 C   0  0  2  0  0  3  0  0  0  0  0  0
  186.6770  177.5930  141.7580 C   0  0  2  0  0  3  0  0  0  0  0  0
  189.8290  177.4260  144.5120 O   0  0  0  0  0  0  0  0  0  0  0  0
  183.3790  178.8550  143.4390 C   0  0  0  0  0  0  0  0  0  0  0  0
  191.6480  177.3710  142.9350 C   0  0  0  0  0  1  0  0  0  0  0  0
  185.6300  179.3280  140.3030 O   0  0  0  0  0  0  0  0  0  0  0  0
  184.1030  177.9900  137.3400 O   0  0  0  0  0  0  0  0  0  0  0  0
  186.8390  178.6730  140.6760 C   0  0  2  0  0  3  0  0  0  0  0  0
  183.8610  179.6720  144.5890 C   0  0  0  0  0  3  0  0  0  0  0  0
  180.9720  178.6630  144.0740 C   0  0  0  0  0  3  0  0  0  0  0  0
  181.9390  179.0340  143.1280 C   0  0  0  0  0  0  0  0  0  0  0  0
  181.5210  179.6230  141.9230 C   0  0  0  0  0  3  0  0  0  0  0  0
  179.7520  180.4030  140.4330 N   0  0  0  0  0  1  0  0  0  0  0  0
  179.2080  179.4280  142.6040 C   0  0  0  0  0  3  0  0  0  0  0  0
  180.1620  179.8140  141.6600 C   0  0  0  0  0  0  0  0  0  0  0  0
  179.6130  178.8540  143.8110 C   0  0  0  0  0  3  0  0  0  0  0  0
  189.6130  178.1150  137.9030 O   0  0  0  0  0  1  0  0  0  0  0  0
  188.6580  178.9810  137.3700 C   0  0  0  0  0  2  0  0  0  0  0  0
  2 14  1  0  0  0  0
  2 22  1  0  0  0  0
  3 20  1  0  0  0  0
  4 37  1  6  0  0  0
  4  1  1  0  0  0  0
  5 10  1  0  0  0  0
  6 11  1  0  0  0  0
  7  3  2  0  0  0  0
  8 18  1  0  0  0  0
  9  3  1  0  0  0  0
  9  6  2  0  0  0  0
 10  7  1  0  0  0  0
 10 23  2  0  0  0  0
 11 16  2  0  0  0  0
 12  8  1  0  0  0  0
 12  4  1  0  0  0  0
 13  9  1  0  0  0  0
 17 13  1  0  0  0  0
 17  2  1  0  0  0  0
 18 19  1  1  0  0  0
 18 25  1  0  0  0  0
 19  5  1  0  0  0  0
 20 15  1  0  0  0  0
 20 16  1  1  0  0  0
 21 13  1  0  0  0  0
 21  7  1  1  0  0  0
 22  6  1  0  0  0  0
 23 28  1  0  0  0  0
 24  2  1  0  0  0  0
 25 27  1  0  0  0  0
 26  8  2  0  0  0  0
 27  1  1  6  0  0  0
 27 21  1  0  0  0  0
 28 15  2  0  0  0  0
 30 23  1  0  0  0  0
 30 29  2  0  0  0  0
 31 30  1  0  0  0  0
 32 34  1  0  0  0  0
 33 35  2  0  0  0  0
 34 31  2  0  0  0  0
 34 33  1  0  0  0  0
 35 29  1  0  0  0  0
 37 36  1  0  0  0  0
M  END
>  <MODEL>
1

>  <REMARK>
 VINA RESULT:      -8.7      0.000      0.000
  Name = 
  2 active torsions:
  status: ('A' for Active; 'I' for Inactive)
    1  A    between atoms: C_4  and  C_37
    2  A    between atoms: C_23  and  C_30
                            x       y       z     vdW  Elec       q    Type
                         _______ _______ _______ _____ _____    ______ ____

>  <TORSDO>
F 2

$$$$
=
 OpenBabel11122411213D

 37 43  0  0  1  0  0  0  0  0999 V2000
  185.9050  178.3770  140.1910 C   0  0  0  0  0  2  0  0  0  0  0  0
  188.8340  176.9670  136.8040 C   0  0  0  0  0  0  0  0  0  0  0  0
  190.4460  177.0800  140.7020 C   0  0  0  0  0  0  0  0  0  0  0  0
  184.9430  179.3900  140.7800 C   0  0  2  0  0  3  0  0  0  0  0  0
  188.3050  176.6360  143.6720 O   0  0  0  0  0  0  0  0  0  0  0  0
  190.8140  177.0670  138.3140 C   0  0  0  0  0  0  0  0  0  0  0  0
  189.3860  177.1910  141.4900 C   0  0  0  0  0  0  0  0  0  0  0  0
  185.0030  178.3040  143.0290 C   0  0  0  0  0  0  0  0  0  0  0  0
  190.0090  177.0530  139.3550 C   0  0  2  0  0  3  0  0  0  0  0  0
  189.4320  177.1130  142.9790 C   0  0  0  0  0  0  0  0  0  0  0  0
  192.2740  177.0370  138.5600 C   0  0  0  0  0  3  0  0  0  0  0  0
  184.3150  178.8370  141.9300 O   0  0  0  0  0  0  0  0  0  0  0  0
  188.6170  177.1210  139.2600 N   0  0  2  0  0  0  0  0  0  0  0  0
  188.5470  175.4940  136.5790 C   0  0  0  0  0  1  0  0  0  0  0  0
  192.2890  177.9230  142.0050 N   0  0  0  0  0  0  0  0  0  0  0  0
  192.7640  176.9660  139.8190 C   0  0  0  0  0  3  0  0  0  0  0  0
  187.9760  177.4700  137.9920 C   0  0  0  0  0  2  0  0  0  0  0  0
  186.5000  178.1290  143.0700 C   0  0  1  0  0  3  0  0  0  0  0  0
  186.9730  176.6770  143.1690 C   0  0  0  0  0  2  0  0  0  0  0  0
  191.8820  176.8950  141.0640 C   0  0  0  0  0  0  0  0  0  0  0  0
  188.1140  177.2190  140.6360 C   0  0  2  0  0  3  0  0  0  0  0  0
  190.2490  177.1440  137.0320 O   0  0  0  0  0  0  0  0  0  0  0  0
  190.5150  177.4970  143.7100 C   0  0  0  0  0  0  0  0  0  0  0  0
  188.4370  177.7280  135.5580 C   0  0  0  0  0  1  0  0  0  0  0  0
  187.2470  178.9620  142.1940 O   0  0  0  0  0  0  0  0  0  0  0  0
  184.3360  177.9340  144.0290 O   0  0  0  0  0  0  0  0  0  0  0  0
  187.2790  178.4920  140.8500 C   0  0  2  0  0  3  0  0  0  0  0  0
  191.7260  178.1630  143.1510 C   0  0  0  0  0  3  0  0  0  0  0  0
  189.3680  177.9860  145.8730 C   0  0  0  0  0  3  0  0  0  0  0  0
  190.4750  177.4550  145.1930 C   0  0  0  0  0  0  0  0  0  0  0  0
  191.4990  176.8420  145.9340 C   0  0  0  0  0  3  0  0  0  0  0  0
  192.4760  176.1670  148.0660 N   0  0  0  0  0  1  0  0  0  0  0  0
  190.3290  177.3270  147.9950 C   0  0  0  0  0  3  0  0  0  0  0  0
  191.4280  176.7830  147.3280 C   0  0  0  0  0  0  0  0  0  0  0  0
  189.2980  177.9260  147.2670 C   0  0  0  0  0  3  0  0  0  0  0  0
  184.4410  180.5020  138.7290 O   0  0  0  0  0  1  0  0  0  0  0  0
  183.8790  179.7480  139.7600 C   0  0  0  0  0  2  0  0  0  0  0  0
  1  4  1  0  0  0  0
  2 22  1  0  0  0  0
  2 17  1  0  0  0  0
  3 20  1  0  0  0  0
  3  7  2  0  0  0  0
  4 37  1  6  0  0  0
  4 12  1  0  0  0  0
  6 11  2  0  0  0  0
  7 10  1  0  0  0  0
  8 18  1  0  0  0  0
  8 26  2  0  0  0  0
  9  6  1  6  0  0  0
  9  3  1  0  0  0  0
 10  5  1  0  0  0  0
 10 23  2  0  0  0  0
 11 16  1  0  0  0  0
 12  8  1  0  0  0  0
 13 17  1  6  0  0  0
 13  9  1  0  0  0  0
 13 21  1  0  0  0  0
 14  2  1  0  0  0  0
 15 28  2  0  0  0  0
 16 20  2  0  0  0  0
 18 19  1  6  0  0  0
 19  5  1  0  0  0  0
 20 15  1  0  0  0  0
 21 27  1  0  0  0  0
 21  7  1  1  0  0  0
 22  6  1  0  0  0  0
 23 30  1  0  0  0  0
 24  2  1  0  0  0  0
 25 18  1  0  0  0  0
 27  1  1  1  0  0  0
 27 25  1  0  0  0  0
 28 23  1  0  0  0  0
 29 35  1  0  0  0  0
 30 29  2  0  0  0  0
 30 31  1  0  0  0  0
 31 34  2  0  0  0  0
 34 33  1  0  0  0  0
 34 32  1  0  0  0  0
 35 33  2  0  0  0  0
 36 37  1  0  0  0  0
M  END
>  <MODEL>
2

>  <REMARK>
 VINA RESULT:      -8.4      3.122      7.325
  Name = 
  2 active torsions:
  status: ('A' for Active; 'I' for Inactive)
    1  A    between atoms: C_4  and  C_37
    2  A    between atoms: C_23  and  C_30
                            x       y       z     vdW  Elec       q    Type
                         _______ _______ _______ _____ _____    ______ ____

>  <TORSDO>
F 2

$$$$
=
 OpenBabel11122411213D

 37 43  0  0  1  0  0  0  0  0999 V2000
  185.6080  178.6590  139.7090 C   0  0  0  0  0  2  0  0  0  0  0  0
  189.3090  177.0960  137.2810 C   0  0  0  0  0  0  0  0  0  0  0  0
  189.8490  177.4210  141.4530 C   0  0  0  0  0  0  0  0  0  0  0  0
  184.5320  179.6940  139.9750 C   0  0  2  0  0  3  0  0  0  0  0  0
  187.0050  177.1160  143.7800 O   0  0  0  0  0  0  0  0  0  0  0  0
  190.8280  177.2870  139.2480 C   0  0  0  0  0  0  0  0  0  0  0  0
  188.6220  177.5660  141.9310 C   0  0  0  0  0  0  0  0  0  0  0  0
  183.9970  178.7270  142.2140 C   0  0  0  0  0  0  0  0  0  0  0  0
  189.7790  177.3210  140.0410 C   0  0  2  0  0  3  0  0  0  0  0  0
  188.2770  177.5650  143.3810 C   0  0  0  0  0  0  0  0  0  0  0  0
  192.1730  177.2800  139.8670 C   0  0  0  0  0  3  0  0  0  0  0  0
  183.6230  179.1970  140.9470 O   0  0  0  0  0  0  0  0  0  0  0  0
  188.4600  177.3750  139.5830 N   0  0  2  0  0  0  0  0  0  0  0  0
  189.0810  175.6120  137.0650 C   0  0  0  0  0  1  0  0  0  0  0  0
  191.2950  178.3420  143.1460 N   0  0  0  0  0  0  0  0  0  0  0  0
  192.3170  177.2770  141.2120 C   0  0  0  0  0  3  0  0  0  0  0  0
  188.1740  177.6540  138.1770 C   0  0  0  0  0  2  0  0  0  0  0  0
  185.4300  178.5640  142.6530 C   0  0  1  0  0  3  0  0  0  0  0  0
  185.8510  177.1220  142.9460 C   0  0  0  0  0  2  0  0  0  0  0  0
  191.1400  177.2640  142.1860 C   0  0  0  0  0  0  0  0  0  0  0  0
  187.6170  177.5400  140.7740 C   0  0  2  0  0  3  0  0  0  0  0  0
  190.6170  177.2940  137.8610 O   0  0  0  0  0  0  0  0  0  0  0  0
  189.1350  177.9930  144.3490 C   0  0  0  0  0  0  0  0  0  0  0  0
  189.2560  177.7890  135.9360 C   0  0  0  0  0  1  0  0  0  0  0  0
  186.3850  179.3560  141.9600 O   0  0  0  0  0  0  0  0  0  0  0  0
  183.0890  178.4040  143.0230 O   0  0  0  0  0  0  0  0  0  0  0  0
  186.7640  178.8170  140.6970 C   0  0  2  0  0  3  0  0  0  0  0  0
  190.4540  178.6370  144.0920 C   0  0  0  0  0  3  0  0  0  0  0  0
  189.6650  177.8670  146.7860 C   0  0  0  0  0  3  0  0  0  0  0  0
  188.7090  178.0270  145.7700 C   0  0  0  0  0  0  0  0  0  0  0  0
  187.3730  178.2740  146.1260 C   0  0  0  0  0  3  0  0  0  0  0  0
  185.6390  178.5770  147.8170 N   0  0  0  0  0  1  0  0  0  0  0  0
  187.9530  178.1600  148.4720 C   0  0  0  0  0  3  0  0  0  0  0  0
  186.9960  178.3350  147.4700 C   0  0  0  0  0  0  0  0  0  0  0  0
  189.2880  177.9280  148.1300 C   0  0  0  0  0  3  0  0  0  0  0  0
  183.2640  178.8100  138.1560 O   0  0  0  0  0  1  0  0  0  0  0  0
  183.7740  179.9920  138.6950 C   0  0  0  0  0  2  0  0  0  0  0  0
  1  4  1  0  0  0  0
  2 22  1  0  0  0  0
  2 17  1  0  0  0  0
  3  7  2  0  0  0  0
  3 20  1  0  0  0  0
  4 37  1  6  0  0  0
  4 12  1  0  0  0  0
  6 11  2  0  0  0  0
  7 10  1  0  0  0  0
  8 18  1  0  0  0  0
  8 26  2  0  0  0  0
  9  6  1  6  0  0  0
  9  3  1  0  0  0  0
 10  5  1  0  0  0  0
 10 23  2  0  0  0  0
 11 16  1  0  0  0  0
 12  8  1  0  0  0  0
 13 17  1  6  0  0  0
 13  9  1  0  0  0  0
 13 21  1  0  0  0  0
 14  2  1  0  0  0  0
 15 28  2  0  0  0  0
 16 20  2  0  0  0  0
 18 19  1  6  0  0  0
 19  5  1  0  0  0  0
 20 15  1  0  0  0  0
 21  7  1  1  0  0  0
 22  6  1  0  0  0  0
 23 30  1  0  0  0  0
 24  2  1  0  0  0  0
 25 18  1  0  0  0  0
 27  1  1  6  0  0  0
 27 21  1  0  0  0  0
 27 25  1  0  0  0  0
 28 23  1  0  0  0  0
 29 35  1  0  0  0  0
 30 31  1  0  0  0  0
 30 29  2  0  0  0  0
 31 34  2  0  0  0  0
 34 32  1  0  0  0  0
 34 33  1  0  0  0  0
 35 33  2  0  0  0  0
 36 37  1  0  0  0  0
M  END
>  <MODEL>
3

>  <REMARK>
 VINA RESULT:      -8.2      2.651      6.107
  Name = 
  2 active torsions:
  status: ('A' for Active; 'I' for Inactive)
    1  A    between atoms: C_4  and  C_37
    2  A    between atoms: C_23  and  C_30
                            x       y       z     vdW  Elec       q    Type
                         _______ _______ _______ _____ _____    ______ ____

>  <TORSDO>
F 2

$$$$
=
 OpenBabel11122411213D

 37 43  0  0  1  0  0  0  0  0999 V2000
  188.5290  177.4070  139.3820 C   0  0  0  0  0  2  0  0  0  0  0  0
  184.1270  179.0300  139.2290 C   0  0  0  0  0  0  0  0  0  0  0  0
  185.7530  178.4840  143.0830 C   0  0  0  0  0  0  0  0  0  0  0  0
  189.5800  176.3770  139.0160 C   0  0  2  0  0  3  0  0  0  0  0  0
  189.3850  178.7160  143.6780 O   0  0  0  0  0  0  0  0  0  0  0  0
  183.8000  178.7140  141.6790 C   0  0  0  0  0  0  0  0  0  0  0  0
  187.0530  178.3350  142.8710 C   0  0  0  0  0  0  0  0  0  0  0  0
  191.1790  177.2380  140.7300 C   0  0  0  0  0  0  0  0  0  0  0  0
  185.1050  178.6570  141.8350 C   0  0  0  0  0  0  0  0  0  0  0  0
  188.0800  178.2680  143.9500 C   0  0  0  0  0  0  0  0  0  0  0  0
  182.9490  178.6680  142.8890 C   0  0  0  0  0  3  0  0  0  0  0  0
  190.8610  176.8390  139.4250 O   0  0  0  0  0  0  0  0  0  0  0  0
  186.0150  178.6480  140.7740 N   0  0  0  0  0  0  0  0  0  0  0  0
  184.2320  180.5270  139.0050 C   0  0  0  0  0  1  0  0  0  0  0  0
  185.3440  177.4530  145.2220 N   0  0  0  0  0  0  0  0  0  0  0  0
  183.5010  178.5990  144.1230 C   0  0  0  0  0  3  0  0  0  0  0  0
  185.5510  178.4460  139.4020 C   0  0  0  0  0  2  0  0  0  0  0  0
  190.1630  177.3540  141.8380 C   0  0  1  0  0  3  0  0  0  0  0  0
  189.9630  178.7720  142.3780 C   0  0  0  0  0  2  0  0  0  0  0  0
  185.0070  178.5810  144.3730 C   0  0  2  0  0  3  0  0  0  0  0  0
  187.3400  178.4360  141.3690 C   0  0  2  0  0  3  0  0  0  0  0  0
  183.2850  178.7810  140.3760 O   0  0  0  0  0  0  0  0  0  0  0  0
  187.8200  177.7760  145.1940 C   0  0  0  0  0  0  0  0  0  0  0  0
  183.4890  178.4070  138.0050 C   0  0  0  0  0  1  0  0  0  0  0  0
  188.9800  176.5830  141.6790 O   0  0  0  0  0  0  0  0  0  0  0  0
  192.3740  177.5340  140.9890 O   0  0  0  0  0  0  0  0  0  0  0  0
  188.0240  177.1790  140.8070 C   0  0  2  0  0  3  0  0  0  0  0  0
  186.5430  177.1250  145.6010 C   0  0  0  0  0  3  0  0  0  0  0  0
  188.7310  178.2670  147.4660 C   0  0  0  0  0  3  0  0  0  0  0  0
  188.9020  177.6770  146.2040 C   0  0  0  0  0  0  0  0  0  0  0  0
  190.0770  176.9530  145.9460 C   0  0  0  0  0  3  0  0  0  0  0  0
  192.2610  176.1150  146.6430 N   0  0  0  0  0  1  0  0  0  0  0  0
  190.8960  177.4460  148.1690 C   0  0  0  0  0  3  0  0  0  0  0  0
  191.0720  176.8430  146.9210 C   0  0  0  0  0  0  0  0  0  0  0  0
  189.7250  178.1560  148.4420 C   0  0  0  0  0  3  0  0  0  0  0  0
  189.8670  177.3570  136.8590 O   0  0  0  0  0  1  0  0  0  0  0  0
  189.5890  176.1570  137.5150 C   0  0  0  0  0  2  0  0  0  0  0  0
  2 17  1  0  0  0  0
  2 22  1  0  0  0  0
  3 20  1  0  0  0  0
  4 37  1  6  0  0  0
  4  1  1  0  0  0  0
  4 12  1  0  0  0  0
  5 10  1  0  0  0  0
  6  9  2  0  0  0  0
  6 11  1  0  0  0  0
  7  3  2  0  0  0  0
  7 10  1  0  0  0  0
  8 26  2  0  0  0  0
  8 18  1  0  0  0  0
  9  3  1  0  0  0  0
 10 23  2  0  0  0  0
 11 16  2  0  0  0  0
 12  8  1  0  0  0  0
 13 21  1  0  0  0  0
 13  9  1  0  0  0  0
 14  2  1  0  0  0  0
 15 28  2  0  0  0  0
 17 13  1  0  0  0  0
 18 19  1  6  0  0  0
 19  5  1  0  0  0  0
 20 16  1  6  0  0  0
 20 15  1  0  0  0  0
 21  7  1  1  0  0  0
 22  6  1  0  0  0  0
 23 28  1  0  0  0  0
 23 30  1  0  0  0  0
 24  2  1  0  0  0  0
 25 18  1  0  0  0  0
 27  1  1  6  0  0  0
 27 21  1  0  0  0  0
 27 25  1  0  0  0  0
 29 35  1  0  0  0  0
 30 29  2  0  0  0  0
 31 30  1  0  0  0  0
 31 34  2  0  0  0  0
 32 34  1  0  0  0  0
 33 35  2  0  0  0  0
 34 33  1  0  0  0  0
 36 37  1  0  0  0  0
M  END
>  <MODEL>
4

>  <REMARK>
 VINA RESULT:      -8.2      2.234      6.771
  Name = 
  2 active torsions:
  status: ('A' for Active; 'I' for Inactive)
    1  A    between atoms: C_4  and  C_37
    2  A    between atoms: C_23  and  C_30
                            x       y       z     vdW  Elec       q    Type
                         _______ _______ _______ _____ _____    ______ ____

>  <TORSDO>
F 2

$$$$
=
 OpenBabel11122411213D

 37 43  0  0  1  0  0  0  0  0999 V2000
  186.1720  177.5420  137.0830 C   0  0  0  0  0  2  0  0  0  0  0  0
  182.1270  179.2510  138.7440 C   0  0  0  0  0  0  0  0  0  0  0  0
  185.1920  178.6890  141.5870 C   0  0  0  0  0  0  0  0  0  0  0  0
  186.9600  176.4900  136.3280 C   0  0  2  0  0  3  0  0  0  0  0  0
  188.7490  178.8520  140.6250 O   0  0  0  0  0  0  0  0  0  0  0  0
  182.8380  178.9520  141.1130 C   0  0  0  0  0  0  0  0  0  0  0  0
  186.2860  178.5140  140.8590 C   0  0  0  0  0  0  0  0  0  0  0  0
  189.1390  177.3260  137.2170 C   0  0  0  0  0  0  0  0  0  0  0  0
  184.0900  178.8690  140.7170 C   0  0  0  0  0  0  0  0  0  0  0  0
  187.6660  178.4310  141.4170 C   0  0  0  0  0  0  0  0  0  0  0  0
  182.5630  178.9270  142.5680 C   0  0  0  0  0  3  0  0  0  0  0  0
  188.3030  176.9290  136.1650 O   0  0  0  0  0  0  0  0  0  0  0  0
  184.4790  178.8380  139.3750 N   0  0  0  0  0  0  0  0  0  0  0  0
  182.1550  180.7450  138.4790 C   0  0  0  0  0  1  0  0  0  0  0  0
  185.6880  177.6760  143.7170 N   0  0  0  0  0  0  0  0  0  0  0  0
  183.5740  178.8530  143.4640 C   0  0  0  0  0  3  0  0  0  0  0  0
  183.4860  178.6400  138.3200 C   0  0  0  0  0  2  0  0  0  0  0  0
  188.6740  177.4670  138.6440 C   0  0  1  0  0  3  0  0  0  0  0  0
  188.7390  178.8910  139.2020 C   0  0  0  0  0  2  0  0  0  0  0  0
  185.0490  178.8070  143.0690 C   0  0  2  0  0  3  0  0  0  0  0  0
  185.9280  178.6030  139.3710 C   0  0  2  0  0  3  0  0  0  0  0  0
  181.8310  179.0240  140.1390 O   0  0  0  0  0  0  0  0  0  0  0  0
  187.9350  177.9500  142.6630 C   0  0  0  0  0  0  0  0  0  0  0  0
  181.0300  178.6360  137.9000 C   0  0  0  0  0  1  0  0  0  0  0  0
  187.5190  176.7190  138.9980 O   0  0  0  0  0  0  0  0  0  0  0  0
  190.3390  177.6000  136.9560 O   0  0  0  0  0  0  0  0  0  0  0  0
  186.2980  177.3310  138.5920 C   0  0  2  0  0  3  0  0  0  0  0  0
  186.9300  177.3250  143.5690 C   0  0  0  0  0  3  0  0  0  0  0  0
  190.0520  178.9900  143.4820 C   0  0  0  0  0  3  0  0  0  0  0  0
  189.3370  177.8330  143.1380 C   0  0  0  0  0  0  0  0  0  0  0  0
  189.9490  176.5800  143.3040 C   0  0  0  0  0  3  0  0  0  0  0  0
  191.8690  175.2130  143.9370 N   0  0  0  0  0  1  0  0  0  0  0  0
  191.9650  177.6470  144.1090 C   0  0  0  0  0  3  0  0  0  0  0  0
  191.2580  176.4880  143.7820 C   0  0  0  0  0  0  0  0  0  0  0  0
  191.3620  178.8970  143.9610 C   0  0  0  0  0  3  0  0  0  0  0  0
  185.5770  177.3710  134.5940 O   0  0  0  0  0  1  0  0  0  0  0  0
  186.3440  176.2640  134.9600 C   0  0  0  0  0  2  0  0  0  0  0  0
  2 22  1  0  0  0  0
  3 20  1  0  0  0  0
  4 37  1  6  0  0  0
  4  1  1  0  0  0  0
  5 10  1  0  0  0  0
  6 11  1  0  0  0  0
  7 10  1  0  0  0  0
  7  3  2  0  0  0  0
  8 18  1  0  0  0  0
  9  6  2  0  0  0  0
  9  3  1  0  0  0  0
 10 23  2  0  0  0  0
 11 16  2  0  0  0  0
 12  4  1  0  0  0  0
 12  8  1  0  0  0  0
 13  9  1  0  0  0  0
 14  2  1  0  0  0  0
 17  2  1  0  0  0  0
 17 13  1  0  0  0  0
 18 25  1  0  0  0  0
 18 19  1  6  0  0  0
 19  5  1  0  0  0  0
 20 16  1  6  0  0  0
 20 15  1  0  0  0  0
 21 13  1  0  0  0  0
 21  7  1  1  0  0  0
 22  6  1  0  0  0  0
 23 30  1  0  0  0  0
 23 28  1  0  0  0  0
 24  2  1  0  0  0  0
 26  8  2  0  0  0  0
 27  1  1  6  0  0  0
 27 25  1  0  0  0  0
 27 21  1  0  0  0  0
 28 15  2  0  0  0  0
 29 35  1  0  0  0  0
 30 31  1  0  0  0  0
 30 29  2  0  0  0  0
 31 34  2  0  0  0  0
 34 32  1  0  0  0  0
 34 33  1  0  0  0  0
 35 33  2  0  0  0  0
 36 37  1  0  0  0  0
M  END
>  <MODEL>
5

>  <REMARK>
 VINA RESULT:      -8.0      2.316      6.968
  Name = 
  2 active torsions:
  status: ('A' for Active; 'I' for Inactive)
    1  A    between atoms: C_4  and  C_37
    2  A    between atoms: C_23  and  C_30
                            x       y       z     vdW  Elec       q    Type
                         _______ _______ _______ _____ _____    ______ ____

>  <TORSDO>
F 2

$$$$
=
 OpenBabel11122411213D

 37 43  0  0  1  0  0  0  0  0999 V2000
  186.0130  177.6630  136.9170 C   0  0  0  0  0  2  0  0  0  0  0  0
  182.0770  179.5130  138.6860 C   0  0  0  0  0  0  0  0  0  0  0  0
  185.1280  178.6670  141.4750 C   0  0  0  0  0  0  0  0  0  0  0  0
  186.7380  176.6040  136.1100 C   0  0  2  0  0  3  0  0  0  0  0  0
  188.6810  178.6810  140.4870 O   0  0  0  0  0  0  0  0  0  0  0  0
  182.7880  179.0750  141.0340 C   0  0  0  0  0  0  0  0  0  0  0  0
  186.2050  178.4650  140.7290 C   0  0  0  0  0  0  0  0  0  0  0  0
  188.9650  177.2840  137.0130 C   0  0  0  0  0  0  0  0  0  0  0  0
  184.0310  178.9430  140.6230 C   0  0  0  0  0  0  0  0  0  0  0  0
  187.5830  178.2840  141.2710 C   0  0  0  0  0  0  0  0  0  0  0  0
  182.5220  179.0030  142.4890 C   0  0  0  0  0  3  0  0  0  0  0  0
  188.1010  176.9770  135.9530 O   0  0  0  0  0  0  0  0  0  0  0  0
  184.4080  178.9480  139.2770 N   0  0  0  0  0  0  0  0  0  0  0  0
  182.1840  181.0130  138.4850 C   0  0  0  0  0  1  0  0  0  0  0  0
  185.5830  177.5380  143.5540 N   0  0  0  0  0  0  0  0  0  0  0  0
  183.5340  178.8360  143.3710 C   0  0  0  0  0  3  0  0  0  0  0  0
  183.3990  178.8490  138.2240 C   0  0  0  0  0  2  0  0  0  0  0  0
  188.5180  177.3880  138.4500 C   0  0  1  0  0  3  0  0  0  0  0  0
  188.6630  178.7810  139.0660 C   0  0  0  0  0  2  0  0  0  0  0  0
  185.0010  178.7280  142.9610 C   0  0  2  0  0  3  0  0  0  0  0  0
  185.8420  178.6370  139.2500 C   0  0  2  0  0  3  0  0  0  0  0  0
  181.7790  179.2420  140.0730 O   0  0  0  0  0  0  0  0  0  0  0  0
  187.8340  177.7360  142.4920 C   0  0  0  0  0  0  0  0  0  0  0  0
  180.9430  178.9950  137.8280 C   0  0  0  0  0  1  0  0  0  0  0  0
  187.3270  176.6880  138.7820 O   0  0  0  0  0  0  0  0  0  0  0  0
  190.1760  177.5040  136.7530 O   0  0  0  0  0  0  0  0  0  0  0  0
  186.1380  177.3810  138.4140 C   0  0  2  0  0  3  0  0  0  0  0  0
  186.8040  177.1280  143.3810 C   0  0  0  0  0  3  0  0  0  0  0  0
  189.8140  176.2530  142.8340 C   0  0  0  0  0  3  0  0  0  0  0  0
  189.2310  177.5250  142.9480 C   0  0  0  0  0  0  0  0  0  0  0  0
  190.0070  178.5860  143.4420 C   0  0  0  0  0  3  0  0  0  0  0  0
  192.1010  179.4570  144.3440 N   0  0  0  0  0  1  0  0  0  0  0  0
  191.8950  177.1020  143.7310 C   0  0  0  0  0  3  0  0  0  0  0  0
  191.3300  178.3750  143.8370 C   0  0  0  0  0  0  0  0  0  0  0  0
  191.1380  176.0420  143.2270 C   0  0  0  0  0  3  0  0  0  0  0  0
  184.7290  176.7110  134.8260 O   0  0  0  0  0  1  0  0  0  0  0  0
  186.1010  176.4710  134.7390 C   0  0  0  0  0  2  0  0  0  0  0  0
  2 22  1  0  0  0  0
  3 20  1  0  0  0  0
  4 37  1  6  0  0  0
  4  1  1  0  0  0  0
  5 10  1  0  0  0  0
  6 11  1  0  0  0  0
  7 10  1  0  0  0  0
  7  3  2  0  0  0  0
  8 18  1  0  0  0  0
  9  6  2  0  0  0  0
  9  3  1  0  0  0  0
 10 23  2  0  0  0  0
 11 16  2  0  0  0  0
 12  4  1  0  0  0  0
 12  8  1  0  0  0  0
 13  9  1  0  0  0  0
 14  2  1  0  0  0  0
 17  2  1  0  0  0  0
 17 13  1  0  0  0  0
 18 25  1  0  0  0  0
 18 19  1  6  0  0  0
 19  5  1  0  0  0  0
 20 16  1  6  0  0  0
 20 15  1  0  0  0  0
 21 13  1  0  0  0  0
 21  7  1  1  0  0  0
 22  6  1  0  0  0  0
 23 30  1  0  0  0  0
 23 28  1  0  0  0  0
 24  2  1  0  0  0  0
 26  8  2  0  0  0  0
 27  1  1  6  0  0  0
 27 25  1  0  0  0  0
 27 21  1  0  0  0  0
 28 15  2  0  0  0  0
 29 30  2  0  0  0  0
 29 35  1  0  0  0  0
 30 31  1  0  0  0  0
 31 34  2  0  0  0  0
 33 34  1  0  0  0  0
 34 32  1  0  0  0  0
 35 33  2  0  0  0  0
 37 36  1  0  0  0  0
M  END
>  <MODEL>
6

>  <REMARK>
 VINA RESULT:      -7.8      2.320      6.971
  Name = 
  2 active torsions:
  status: ('A' for Active; 'I' for Inactive)
    1  A    between atoms: C_4  and  C_37
    2  A    between atoms: C_23  and  C_30
                            x       y       z     vdW  Elec       q    Type
                         _______ _______ _______ _____ _____    ______ ____

>  <TORSDO>
F 2

$$$$
=
 OpenBabel11122411213D

 37 43  0  0  1  0  0  0  0  0999 V2000
  190.0240  176.9100  146.2480 C   0  0  0  0  0  2  0  0  0  0  0  0
  185.6450  178.5790  146.5320 C   0  0  0  0  0  0  0  0  0  0  0  0
  187.1610  178.0440  142.6310 C   0  0  0  0  0  0  0  0  0  0  0  0
  191.4990  176.9820  146.5900 C   0  0  2  0  0  3  0  0  0  0  0  0
  189.7300  175.4990  141.9090 O   0  0  0  0  0  0  0  0  0  0  0  0
  185.5650  179.1100  144.0980 C   0  0  0  0  0  0  0  0  0  0  0  0
  188.2400  177.2940  142.8000 C   0  0  0  0  0  0  0  0  0  0  0  0
  192.1060  175.3370  144.8120 C   0  0  0  0  0  0  0  0  0  0  0  0
  186.5820  178.3000  143.8980 C   0  0  2  0  0  3  0  0  0  0  0  0
  189.0390  176.7040  141.6880 C   0  0  0  0  0  0  0  0  0  0  0  0
  184.9330  179.7440  142.9190 C   0  0  0  0  0  3  0  0  0  0  0  0
  192.1520  175.8050  146.1330 O   0  0  0  0  0  0  0  0  0  0  0  0
  187.2900  177.6750  144.9280 N   0  0  2  0  0  0  0  0  0  0  0  0
  184.7430  177.3760  146.7330 C   0  0  0  0  0  1  0  0  0  0  0  0
  187.4940  179.1570  140.5200 N   0  0  0  0  0  0  0  0  0  0  0  0
  185.3720  179.4720  141.6680 C   0  0  0  0  0  3  0  0  0  0  0  0
  187.0990  178.0870  146.3170 C   0  0  0  0  0  2  0  0  0  0  0  0
  191.2450  175.9540  143.7380 C   0  0  1  0  0  3  0  0  0  0  0  0
  190.1520  175.0350  143.1880 C   0  0  0  0  0  2  0  0  0  0  0  0
  186.5130  178.5020  141.3670 C   0  0  0  0  0  0  0  0  0  0  0  0
  188.4170  176.9810  144.2900 C   0  0  2  0  0  3  0  0  0  0  0  0
  185.1560  179.3570  145.4180 O   0  0  0  0  0  0  0  0  0  0  0  0
  189.1450  177.2850  140.4600 C   0  0  0  0  0  0  0  0  0  0  0  0
  185.5970  179.4280  147.7850 C   0  0  0  0  0  1  0  0  0  0  0  0
  190.8660  177.3070  143.9480 O   0  0  0  0  0  0  0  0  0  0  0  0
  192.8050  174.3370  144.5080 O   0  0  0  0  0  0  0  0  0  0  0  0
  189.7690  177.4590  144.8440 C   0  0  2  0  0  3  0  0  0  0  0  0
  188.6060  178.6280  140.1050 C   0  0  0  0  0  3  0  0  0  0  0  0
  189.4230  175.9360  138.3770 C   0  0  0  0  0  3  0  0  0  0  0  0
  190.0070  176.6800  139.4140 C   0  0  0  0  0  0  0  0  0  0  0  0
  191.3960  176.8830  139.4060 C   0  0  0  0  0  3  0  0  0  0  0  0
  193.5960  176.5400  138.4050 N   0  0  0  0  0  1  0  0  0  0  0  0
  191.5980  175.5840  137.3760 C   0  0  0  0  0  3  0  0  0  0  0  0
  192.1890  176.3330  138.3960 C   0  0  0  0  0  0  0  0  0  0  0  0
  190.2160  175.3870  137.3660 C   0  0  0  0  0  3  0  0  0  0  0  0
  192.8050  176.3780  148.4940 O   0  0  0  0  0  1  0  0  0  0  0  0
  191.6770  177.0940  148.0930 C   0  0  0  0  0  2  0  0  0  0  0  0
  1  4  1  0  0  0  0
  2 14  1  0  0  0  0
  2 24  1  0  0  0  0
  3  7  2  0  0  0  0
  4 37  1  1  0  0  0
  5 19  1  0  0  0  0
  6 22  1  0  0  0  0
  8 12  1  0  0  0  0
  9  3  1  1  0  0  0
  9  6  1  0  0  0  0
  9 13  1  0  0  0  0
 10  5  1  0  0  0  0
 10  7  1  0  0  0  0
 11  6  2  0  0  0  0
 12  4  1  0  0  0  0
 13 17  1  1  0  0  0
 15 20  1  0  0  0  0
 16 11  1  0  0  0  0
 17  2  1  0  0  0  0
 18 19  1  1  0  0  0
 18 25  1  0  0  0  0
 18  8  1  0  0  0  0
 20 16  2  0  0  0  0
 20  3  1  0  0  0  0
 21  7  1  6  0  0  0
 21 27  1  0  0  0  0
 21 13  1  0  0  0  0
 22  2  1  0  0  0  0
 23 10  2  0  0  0  0
 25 27  1  0  0  0  0
 26  8  2  0  0  0  0
 27  1  1  1  0  0  0
 28 23  1  0  0  0  0
 28 15  2  0  0  0  0
 29 30  1  0  0  0  0
 30 23  1  0  0  0  0
 31 30  2  0  0  0  0
 33 34  2  0  0  0  0
 34 32  1  0  0  0  0
 34 31  1  0  0  0  0
 35 33  1  0  0  0  0
 35 29  2  0  0  0  0
 37 36  1  0  0  0  0
M  END
>  <MODEL>
7

>  <REMARK>
 VINA RESULT:      -7.7      3.449      8.179
  Name = 
  2 active torsions:
  status: ('A' for Active; 'I' for Inactive)
    1  A    between atoms: C_4  and  C_37
    2  A    between atoms: C_23  and  C_30
                            x       y       z     vdW  Elec       q    Type
                         _______ _______ _______ _____ _____    ______ ____

>  <TORSDO>
F 2

$$$$
=
 OpenBabel11122411213D

 37 43  0  0  1  0  0  0  0  0999 V2000
  187.8670  177.8600  143.2460 C   0  0  0  0  0  2  0  0  0  0  0  0
  188.9890  177.9570  138.6890 C   0  0  0  0  0  0  0  0  0  0  0  0
  184.8840  178.3540  139.5820 C   0  0  0  0  0  0  0  0  0  0  0  0
  187.8880  177.1920  144.6070 C   0  0  2  0  0  3  0  0  0  0  0  0
  183.7530  179.8010  142.7800 O   0  0  0  0  0  0  0  0  0  0  0  0
  186.6050  177.8010  137.9790 C   0  0  0  0  0  0  0  0  0  0  0  0
  184.8560  178.6110  140.8820 C   0  0  0  0  0  0  0  0  0  0  0  0
  186.0970  178.6900  145.4940 C   0  0  0  0  0  0  0  0  0  0  0  0
  186.2320  178.1820  139.1810 C   0  0  2  0  0  3  0  0  0  0  0  0
  183.6290  178.9860  141.6400 C   0  0  0  0  0  0  0  0  0  0  0  0
  185.5570  177.6050  136.9510 C   0  0  0  0  0  3  0  0  0  0  0  0
  187.3560  178.0810  145.5820 O   0  0  0  0  0  0  0  0  0  0  0  0
  187.1170  178.3600  140.2480 N   0  0  2  0  0  0  0  0  0  0  0  0
  189.4280  179.3780  138.3880 C   0  0  0  0  0  1  0  0  0  0  0  0
  182.7030  177.4670  139.0700 N   0  0  0  0  0  0  0  0  0  0  0  0
  184.2560  177.8420  137.2350 C   0  0  0  0  0  3  0  0  0  0  0  0
  188.4960  177.8830  140.1560 C   0  0  0  0  0  2  0  0  0  0  0  0
  185.2020  178.5830  144.2850 C   0  0  1  0  0  3  0  0  0  0  0  0
  184.9340  179.9090  143.5680 C   0  0  0  0  0  2  0  0  0  0  0  0
  183.7650  178.3350  138.5950 C   0  0  0  0  0  0  0  0  0  0  0  0
  186.2880  178.6470  141.4270 C   0  0  2  0  0  3  0  0  0  0  0  0
  187.9690  177.5670  137.7440 O   0  0  0  0  0  0  0  0  0  0  0  0
  182.3810  178.5650  141.2890 C   0  0  0  0  0  0  0  0  0  0  0  0
  190.1850  177.0420  138.5290 C   0  0  0  0  0  1  0  0  0  0  0  0
  185.4250  177.4610  143.4440 O   0  0  0  0  0  0  0  0  0  0  0  0
  185.6980  179.3790  146.4680 O   0  0  0  0  0  0  0  0  0  0  0  0
  186.5240  177.6270  142.5520 C   0  0  2  0  0  3  0  0  0  0  0  0
  182.0880  177.5810  140.2090 C   0  0  0  0  0  3  0  0  0  0  0  0
  180.4360  180.0480  141.7930 C   0  0  0  0  0  3  0  0  0  0  0  0
  181.2050  178.9210  142.1220 C   0  0  0  0  0  0  0  0  0  0  0  0
  180.8090  178.1200  143.2060 C   0  0  0  0  0  3  0  0  0  0  0  0
  179.2960  177.6390  145.0600 N   0  0  0  0  0  1  0  0  0  0  0  0
  178.9310  179.5840  143.6300 C   0  0  0  0  0  3  0  0  0  0  0  0
  179.6810  178.4530  143.9590 C   0  0  0  0  0  0  0  0  0  0  0  0
  179.3070  180.3800  142.5460 C   0  0  0  0  0  3  0  0  0  0  0  0
  189.5490  177.1720  146.3210 O   0  0  0  0  0  1  0  0  0  0  0  0
  189.3140  176.8370  144.9870 C   0  0  0  0  0  2  0  0  0  0  0  0
  1  4  1  0  0  0  0
  2 17  1  0  0  0  0
  3  7  2  0  0  0  0
  4 37  1  1  0  0  0
  4 12  1  0  0  0  0
  5 19  1  0  0  0  0
  7 10  1  0  0  0  0
  8 12  1  0  0  0  0
  8 26  2  0  0  0  0
  9  6  1  1  0  0  0
  9  3  1  0  0  0  0
  9 13  1  0  0  0  0
 10  5  1  0  0  0  0
 11 16  1  0  0  0  0
 11  6  2  0  0  0  0
 13 17  1  1  0  0  0
 13 21  1  0  0  0  0
 14  2  1  0  0  0  0
 15 28  2  0  0  0  0
 16 20  2  0  0  0  0
 18 19  1  6  0  0  0
 18  8  1  0  0  0  0
 20 15  1  0  0  0  0
 20  3  1  0  0  0  0
 21  7  1  6  0  0  0
 21 27  1  0  0  0  0
 22  6  1  0  0  0  0
 22  2  1  0  0  0  0
 23 10  2  0  0  0  0
 23 30  1  0  0  0  0
 24  2  1  0  0  0  0
 25 18  1  0  0  0  0
 27  1  1  1  0  0  0
 27 25  1  0  0  0  0
 28 23  1  0  0  0  0
 29 30  2  0  0  0  0
 29 35  1  0  0  0  0
 30 31  1  0  0  0  0
 31 34  2  0  0  0  0
 33 34  1  0  0  0  0
 34 32  1  0  0  0  0
 35 33  2  0  0  0  0
 37 36  1  0  0  0  0
M  END
>  <MODEL>
8

>  <REMARK>
 VINA RESULT:      -7.5      2.051      5.417
  Name = 
  2 active torsions:
  status: ('A' for Active; 'I' for Inactive)
    1  A    between atoms: C_4  and  C_37
    2  A    between atoms: C_23  and  C_30
                            x       y       z     vdW  Elec       q    Type
                         _______ _______ _______ _____ _____    ______ ____

>  <TORSDO>
F 2

$$$$
=
 OpenBabel11122411213D

 37 43  0  0  1  0  0  0  0  0999 V2000
  191.0150  177.1980  142.8520 C   0  0  0  0  0  2  0  0  0  0  0  0
  191.5000  176.4490  147.4610 C   0  0  0  0  0  0  0  0  0  0  0  0
  187.6950  177.7630  146.2010 C   0  0  0  0  0  0  0  0  0  0  0  0
  191.4470  177.8640  141.5610 C   0  0  2  0  0  3  0  0  0  0  0  0
  186.4460  177.0390  142.8080 O   0  0  0  0  0  0  0  0  0  0  0  0
  189.3060  177.5090  147.9830 C   0  0  0  0  0  0  0  0  0  0  0  0
  187.7110  177.6000  144.8860 C   0  0  0  0  0  0  0  0  0  0  0  0
  189.3220  177.2490  140.4030 C   0  0  0  0  0  0  0  0  0  0  0  0
  188.9490  177.3640  146.7250 C   0  0  0  0  0  0  0  0  0  0  0  0
  186.5260  177.7810  144.0000 C   0  0  0  0  0  0  0  0  0  0  0  0
  188.3130  178.0580  148.9330 C   0  0  0  0  0  3  0  0  0  0  0  0
  190.7200  177.3080  140.4720 O   0  0  0  0  0  0  0  0  0  0  0  0
  189.8040  176.8990  145.7240 N   0  0  0  0  0  0  0  0  0  0  0  0
  191.3110  174.9580  147.6730 C   0  0  0  0  0  1  0  0  0  0  0  0
  185.9940  179.4220  146.6060 N   0  0  0  0  0  0  0  0  0  0  0  0
  187.0620  178.3740  148.5240 C   0  0  0  0  0  3  0  0  0  0  0  0
  191.2410  176.7820  145.9710 C   0  0  0  0  0  2  0  0  0  0  0  0
  188.4120  177.6470  141.5380 C   0  0  1  0  0  3  0  0  0  0  0  0
  187.5700  176.5060  142.1140 C   0  0  0  0  0  2  0  0  0  0  0  0
  186.5710  178.1810  147.0910 C   0  0  2  0  0  3  0  0  0  0  0  0
  189.0650  177.0210  144.4610 C   0  0  2  0  0  3  0  0  0  0  0  0
  190.6170  177.1680  148.3490 O   0  0  0  0  0  0  0  0  0  0  0  0
  185.5140  178.6480  144.2810 C   0  0  0  0  0  0  0  0  0  0  0  0
  192.9330  176.8020  147.7990 C   0  0  0  0  0  1  0  0  0  0  0  0
  188.9640  178.5460  142.4890 O   0  0  0  0  0  0  0  0  0  0  0  0
  188.7950  176.8220  139.3430 O   0  0  0  0  0  0  0  0  0  0  0  0
  189.8040  177.9140  143.4500 C   0  0  2  0  0  3  0  0  0  0  0  0
  185.5120  179.6150  145.4150 C   0  0  0  0  0  3  0  0  0  0  0  0
  184.6590  178.9360  141.9520 C   0  0  0  0  0  3  0  0  0  0  0  0
  184.3920  178.8300  143.3260 C   0  0  0  0  0  0  0  0  0  0  0  0
  183.0570  178.8410  143.7620 C   0  0  0  0  0  3  0  0  0  0  0  0
  180.6650  179.0010  143.3010 N   0  0  0  0  0  1  0  0  0  0  0  0
  182.2910  179.1000  141.4820 C   0  0  0  0  0  3  0  0  0  0  0  0
  182.0120  178.9810  142.8450 C   0  0  0  0  0  0  0  0  0  0  0  0
  183.6140  179.0750  141.0350 C   0  0  0  0  0  3  0  0  0  0  0  0
  193.1720  177.3930  139.9800 O   0  0  0  0  0  1  0  0  0  0  0  0
  192.9300  177.6390  141.3320 C   0  0  0  0  0  2  0  0  0  0  0  0
  2 14  1  0  0  0  0
  2 24  1  0  0  0  0
  2 22  1  0  0  0  0
  3  9  1  0  0  0  0
  3 20  1  0  0  0  0
  4 37  1  6  0  0  0
  4  1  1  0  0  0  0
  5 10  1  0  0  0  0
  6 22  1  0  0  0  0
  6 11  1  0  0  0  0
  7  3  2  0  0  0  0
  8 12  1  0  0  0  0
  8 18  1  0  0  0  0
  9  6  2  0  0  0  0
 10 23  2  0  0  0  0
 10  7  1  0  0  0  0
 12  4  1  0  0  0  0
 13 17  1  0  0  0  0
 13  9  1  0  0  0  0
 15 20  1  0  0  0  0
 16 11  2  0  0  0  0
 17  2  1  0  0  0  0
 18 19  1  1  0  0  0
 18 25  1  0  0  0  0
 19  5  1  0  0  0  0
 20 16  1  1  0  0  0
 21  7  1  1  0  0  0
 21 13  1  0  0  0  0
 23 28  1  0  0  0  0
 25 27  1  0  0  0  0
 26  8  2  0  0  0  0
 27  1  1  6  0  0  0
 27 21  1  0  0  0  0
 28 15  2  0  0  0  0
 29 30  1  0  0  0  0
 30 31  2  0  0  0  0
 30 23  1  0  0  0  0
 33 34  2  0  0  0  0
 34 32  1  0  0  0  0
 34 31  1  0  0  0  0
 35 33  1  0  0  0  0
 35 29  2  0  0  0  0
 36 37  1  0  0  0  0
M  END
>  <MODEL>
9

>  <REMARK>
 VINA RESULT:      -6.7      2.364      3.836
  Name = 
  2 active torsions:
  status: ('A' for Active; 'I' for Inactive)
    1  A    between atoms: C_4  and  C_37
    2  A    between atoms: C_23  and  C_30
                            x       y       z     vdW  Elec       q    Type
                         _______ _______ _______ _____ _____    ______ ____

>  <TORSDO>
F 2

$$$$
