=
 OpenBabel11122411483D

 37 41  0  0  1  0  0  0  0  0999 V2000
  186.9710  177.4350  142.7240 C   0  0  1  0  0  3  0  0  0  0  0  0
  190.6300  176.5970  142.0840 C   0  0  0  0  0  2  0  0  0  0  0  0
  185.3370  177.9280  144.6270 C   0  0  2  0  0  3  0  0  0  0  0  0
  188.4240  177.5670  143.0470 C   0  0  2  0  0  3  0  0  0  0  0  0
  186.3370  176.9340  144.0170 C   0  0  2  0  0  3  0  0  0  0  0  0
  189.1980  177.0580  141.8070 C   0  0  1  0  0  3  0  0  0  0  0  0
  184.3420  178.4170  143.5650 C   0  0  0  0  0  2  0  0  0  0  0  0
  187.3370  176.5790  144.9420 O   0  0  0  0  0  0  0  0  0  0  0  0
  186.8720  178.9360  140.8850 C   0  0  0  0  0  2  0  0  0  0  0  0
  184.9750  178.5990  142.1800 C   0  0  0  0  0  2  0  0  0  0  0  0
  191.2320  178.4030  143.7540 C   0  0  0  0  0  2  0  0  0  0  0  0
  191.5800  177.7440  142.4260 C   0  0  0  0  0  2  0  0  0  0  0  0
  186.4300  178.7210  142.2600 N   0  0  1  0  0  0  0  0  0  0  0  0
  188.5930  176.7250  144.3130 C   0  0  2  0  0  3  0  0  0  0  0  0
  189.1690  177.9480  140.6170 N   0  0  2  0  0  0  0  0  0  0  0  0
  191.0210  177.3510  144.8290 C   0  0  0  0  0  2  0  0  0  0  0  0
  189.5760  177.3600  145.3220 C   0  0  2  0  0  3  0  0  0  0  0  0
  188.3840  179.1900  140.8070 C   0  0  0  0  0  2  0  0  0  0  0  0
  189.8250  176.3370  138.8340 C   0  0  0  0  0  2  0  0  0  0  0  0
  188.7090  177.2050  139.4260 C   0  0  2  0  0  3  0  0  0  0  0  0
  188.2480  178.1590  138.3240 C   0  0  0  0  0  2  0  0  0  0  0  0
  187.3200  178.2230  136.0120 C   0  0  0  0  0  1  0  0  0  0  0  0
  188.4780  176.2330  136.7820 N   0  0  0  0  0  0  0  0  0  0  0  0
  187.6280  177.3350  137.1990 C   0  0  1  0  0  3  0  0  0  0  0  0
  189.4250  175.7380  137.5100 C   0  0  0  0  0  3  0  0  0  0  0  0
  189.5150  176.6440  146.5370 O   0  0  0  0  0  0  0  0  0  0  0  0
  190.6740  176.8910  147.3140 C   0  0  1  0  0  3  0  0  0  0  0  0
  189.3230  178.2820  148.6670 O   0  0  0  0  0  0  0  0  0  0  0  0
  190.4520  177.9170  148.3880 C   0  0  0  0  0  3  0  0  0  0  0  0
  191.3430  175.6210  147.8390 C   0  0  0  0  0  2  0  0  0  0  0  0
  192.8570  175.7390  147.7940 C   0  0  0  0  0  2  0  0  0  0  0  0
  193.3270  176.3610  148.9510 O   0  0  0  0  0  1  0  0  0  0  0  0
  186.0090  179.0280  145.1930 O   0  0  0  0  0  0  0  0  0  0  0  0
  185.8340  178.9830  146.5920 C   0  0  0  0  0  0  0  0  0  0  0  0
  186.7530  178.1280  147.1800 F   0  0  0  0  0  0  0  0  0  0  0  0
  185.9530  180.2490  147.1470 F   0  0  0  0  0  0  0  0  0  0  0  0
  184.5670  178.5030  146.8630 F   0  0  0  0  0  0  0  0  0  0  0  0
  1  4  1  0  0  0  0
  1  5  1  0  0  0  0
  2 12  1  0  0  0  0
  3 33  1  0  0  0  0
  4 14  1  0  0  0  0
  5  3  1  0  0  0  0
  5  8  1  0  0  0  0
  6  2  1  0  0  0  0
  6  4  1  0  0  0  0
  7  3  1  0  0  0  0
  9 13  1  0  0  0  0
 10 13  1  0  0  0  0
 10  7  1  0  0  0  0
 11 16  1  0  0  0  0
 12 11  1  0  0  0  0
 13  1  1  0  0  0  0
 14  8  1  0  0  0  0
 14 17  1  0  0  0  0
 15 18  1  0  0  0  0
 15  6  1  0  0  0  0
 16 17  1  0  0  0  0
 17 26  1  0  0  0  0
 18  9  1  0  0  0  0
 19 20  1  0  0  0  0
 20 15  1  0  0  0  0
 21 20  1  0  0  0  0
 22 24  1  0  0  0  0
 23 24  1  0  0  0  0
 23 25  2  0  0  0  0
 24 21  1  0  0  0  0
 25 19  1  0  0  0  0
 26 27  1  0  0  0  0
 27 30  1  0  0  0  0
 27 29  1  0  0  0  0
 29 28  2  0  0  0  0
 31 30  1  0  0  0  0
 31 32  1  0  0  0  0
 33 34  1  0  0  0  0
 34 37  1  0  0  0  0
 34 36  1  0  0  0  0
 34 35  1  0  0  0  0
M  END
>  <MODEL>
1

>  <REMARK>
 VINA RESULT:      -7.9      0.000      0.000
  Name = 
  8 active torsions:
  status: ('A' for Active; 'I' for Inactive)
    1  A    between atoms: O_1  and  C_4
    2  A    between atoms: O_1  and  C_27
    3  A    between atoms: C_2  and  O_22
    4  A    between atoms: C_4  and  C_12
    5  A    between atoms: C_4  and  C_37
    6  A    between atoms: C_6  and  O_22
    7  A    between atoms: C_8  and  C_12
    8  A    between atoms: N_23  and  C_30
                            x       y       z     vdW  Elec       q    Type
                         _______ _______ _______ _____ _____    ______ ____

>  <TORSDO>
F 8

$$$$
=
 OpenBabel11122411483D

 37 41  0  0  1  0  0  0  0  0999 V2000
  185.6680  178.2340  138.4650 C   0  0  1  0  0  3  0  0  0  0  0  0
  184.6230  179.3640  141.9480 C   0  0  0  0  0  2  0  0  0  0  0  0
  187.6850  177.3370  137.1760 C   0  0  2  0  0  3  0  0  0  0  0  0
  185.7320  178.1280  139.9540 C   0  0  2  0  0  3  0  0  0  0  0  0
  187.1120  178.4720  138.0370 C   0  0  2  0  0  3  0  0  0  0  0  0
  184.4960  178.8820  140.5020 C   0  0  1  0  0  3  0  0  0  0  0  0
  186.7220  176.9840  136.0350 C   0  0  0  0  0  2  0  0  0  0  0  0
  187.9180  178.7180  139.1650 O   0  0  0  0  0  0  0  0  0  0  0  0
  183.6310  177.0660  138.1060 C   0  0  0  0  0  2  0  0  0  0  0  0
  185.2450  177.0740  136.4380 C   0  0  0  0  0  2  0  0  0  0  0  0
  185.8330  177.3350  142.8600 C   0  0  0  0  0  2  0  0  0  0  0  0
  184.6050  178.2290  142.9700 C   0  0  0  0  0  2  0  0  0  0  0  0
  185.0740  177.0190  137.8880 N   0  0  1  0  0  0  0  0  0  0  0  0
  187.0850  178.7480  140.3050 C   0  0  2  0  0  3  0  0  0  0  0  0
  183.1870  178.2060  140.3020 N   0  0  2  0  0  0  0  0  0  0  0  0
  187.0970  178.1750  142.8000 C   0  0  0  0  0  2  0  0  0  0  0  0
  187.8000  178.0050  141.4550 C   0  0  2  0  0  3  0  0  0  0  0  0
  183.2740  176.9100  139.5910 C   0  0  0  0  0  2  0  0  0  0  0  0
  182.9420  180.3160  138.9990 C   0  0  0  0  0  2  0  0  0  0  0  0
  182.2330  179.1160  139.6360 C   0  0  2  0  0  3  0  0  0  0  0  0
  181.2130  179.6720  140.6290 C   0  0  0  0  0  2  0  0  0  0  0  0
  179.2320  181.1720  140.8140 C   0  0  0  0  0  1  0  0  0  0  0  0
  180.7470  181.4140  138.9310 N   0  0  0  0  0  0  0  0  0  0  0  0
  180.1600  180.4580  139.8540 C   0  0  1  0  0  3  0  0  0  0  0  0
  181.9620  181.3440  138.4970 C   0  0  0  0  0  3  0  0  0  0  0  0
  189.1170  178.4990  141.5750 O   0  0  0  0  0  0  0  0  0  0  0  0
  189.7860  177.8630  142.6500 C   0  0  1  0  0  3  0  0  0  0  0  0
  190.1710  175.5320  142.5630 O   0  0  0  0  0  0  0  0  0  0  0  0
  190.5500  176.6410  142.2260 C   0  0  0  0  0  3  0  0  0  0  0  0
  190.6230  178.8170  143.5020 C   0  0  0  0  0  2  0  0  0  0  0  0
  191.5940  178.0550  144.3880 C   0  0  0  0  0  2  0  0  0  0  0  0
  190.9350  177.5640  145.5150 O   0  0  0  0  0  1  0  0  0  0  0  0
  187.9350  176.1940  137.9590 O   0  0  0  0  0  0  0  0  0  0  0  0
  189.3070  175.8790  137.8580 C   0  0  0  0  0  0  0  0  0  0  0  0
  189.9120  176.6080  136.8470 F   0  0  0  0  0  0  0  0  0  0  0  0
  189.9590  176.1160  139.0590 F   0  0  0  0  0  0  0  0  0  0  0  0
  189.4290  174.5370  137.5520 F   0  0  0  0  0  0  0  0  0  0  0  0
  1  4  1  0  0  0  0
  2 12  1  0  0  0  0
  3 33  1  0  0  0  0
  3  5  1  0  0  0  0
  4 14  1  0  0  0  0
  4  6  1  0  0  0  0
  5  1  1  0  0  0  0
  5  8  1  0  0  0  0
  6  2  1  0  0  0  0
  7 10  1  0  0  0  0
  7  3  1  0  0  0  0
  8 14  1  0  0  0  0
  9 18  1  0  0  0  0
 10 13  1  0  0  0  0
 11 12  1  0  0  0  0
 13  9  1  0  0  0  0
 13  1  1  0  0  0  0
 14 17  1  0  0  0  0
 15  6  1  0  0  0  0
 16 11  1  0  0  0  0
 17 26  1  0  0  0  0
 17 16  1  0  0  0  0
 18 15  1  0  0  0  0
 19 20  1  0  0  0  0
 20 15  1  0  0  0  0
 20 21  1  0  0  0  0
 23 24  1  0  0  0  0
 24 21  1  0  0  0  0
 24 22  1  0  0  0  0
 25 23  2  0  0  0  0
 25 19  1  0  0  0  0
 26 27  1  0  0  0  0
 27 30  1  0  0  0  0
 29 28  2  0  0  0  0
 29 27  1  0  0  0  0
 30 31  1  0  0  0  0
 31 32  1  0  0  0  0
 34 33  1  0  0  0  0
 34 36  1  0  0  0  0
 35 34  1  0  0  0  0
 37 34  1  0  0  0  0
M  END
>  <MODEL>
2

>  <REMARK>
 VINA RESULT:      -6.5      4.434      7.027
  Name = 
  8 active torsions:
  status: ('A' for Active; 'I' for Inactive)
    1  A    between atoms: O_1  and  C_4
    2  A    between atoms: O_1  and  C_27
    3  A    between atoms: C_2  and  O_22
    4  A    between atoms: C_4  and  C_12
    5  A    between atoms: C_4  and  C_37
    6  A    between atoms: C_6  and  O_22
    7  A    between atoms: C_8  and  C_12
    8  A    between atoms: N_23  and  C_30
                            x       y       z     vdW  Elec       q    Type
                         _______ _______ _______ _____ _____    ______ ____

>  <TORSDO>
F 8

$$$$
=
 OpenBabel11122411483D

 37 41  0  0  1  0  0  0  0  0999 V2000
  185.8010  177.8140  144.0880 C   0  0  1  0  0  3  0  0  0  0  0  0
  187.1410  177.7290  140.5250 C   0  0  0  0  0  2  0  0  0  0  0  0
  186.5280  177.4190  146.5070 C   0  0  2  0  0  3  0  0  0  0  0  0
  186.8960  178.0190  143.0930 C   0  0  2  0  0  3  0  0  0  0  0  0
  186.3840  176.8290  145.0970 C   0  0  2  0  0  3  0  0  0  0  0  0
  186.2210  178.0630  141.7000 C   0  0  1  0  0  3  0  0  0  0  0  0
  185.2250  178.1000  146.9460 C   0  0  0  0  0  2  0  0  0  0  0  0
  187.6080  176.3190  144.6250 O   0  0  0  0  0  0  0  0  0  0  0  0
  184.5830  179.8170  143.7070 C   0  0  0  0  0  2  0  0  0  0  0  0
  184.5010  178.8180  145.8010 C   0  0  0  0  0  2  0  0  0  0  0  0
  189.2000  178.9330  141.3770 C   0  0  0  0  0  2  0  0  0  0  0  0
  188.1860  178.8090  140.2480 C   0  0  0  0  0  2  0  0  0  0  0  0
  185.3980  179.0970  144.6820 N   0  0  1  0  0  0  0  0  0  0  0  0
  187.8310  176.8320  143.3290 C   0  0  2  0  0  3  0  0  0  0  0  0
  185.4350  179.2880  141.4010 N   0  0  2  0  0  0  0  0  0  0  0  0
  189.7260  177.5630  141.7710 C   0  0  0  0  0  2  0  0  0  0  0  0
  189.3220  177.2160  143.2010 C   0  0  2  0  0  3  0  0  0  0  0  0
  185.4140  180.2800  142.5010 C   0  0  0  0  0  2  0  0  0  0  0  0
  183.8720  177.4170  140.8890 C   0  0  0  0  0  2  0  0  0  0  0  0
  184.0650  178.9340  140.9770 C   0  0  2  0  0  3  0  0  0  0  0  0
  183.7470  179.5090  139.5970 C   0  0  0  0  0  2  0  0  0  0  0  0
  181.9590  179.6540  137.8680 C   0  0  0  0  0  1  0  0  0  0  0  0
  181.8850  177.8770  139.5220 N   0  0  0  0  0  0  0  0  0  0  0  0
  182.2720  179.2590  139.2960 C   0  0  1  0  0  3  0  0  0  0  0  0
  182.5490  177.0550  140.2650 C   0  0  0  0  0  3  0  0  0  0  0  0
  190.1150  176.1320  143.6380 O   0  0  0  0  0  0  0  0  0  0  0  0
  191.3050  176.6050  144.2440 C   0  0  1  0  0  3  0  0  0  0  0  0
  192.0100  178.8620  144.2560 O   0  0  0  0  0  0  0  0  0  0  0  0
  191.2140  178.0400  144.6770 C   0  0  0  0  0  3  0  0  0  0  0  0
  191.8400  175.6880  145.3440 C   0  0  0  0  0  2  0  0  0  0  0  0
  191.7820  176.3670  146.7020 C   0  0  0  0  0  2  0  0  0  0  0  0
  192.7570  175.8390  147.5480 O   0  0  0  0  0  1  0  0  0  0  0  0
  187.5890  178.3440  146.5540 O   0  0  0  0  0  0  0  0  0  0  0  0
  188.3960  178.0380  147.6710 C   0  0  0  0  0  0  0  0  0  0  0  0
  187.8630  178.5750  148.8320 F   0  0  0  0  0  0  0  0  0  0  0  0
  188.5410  176.6660  147.8150 F   0  0  0  0  0  0  0  0  0  0  0  0
  189.6460  178.5920  147.4750 F   0  0  0  0  0  0  0  0  0  0  0  0
  1 13  1  0  0  0  0
  1  5  1  0  0  0  0
  2  6  1  0  0  0  0
  3 33  1  0  0  0  0
  3  7  1  0  0  0  0
  4 14  1  0  0  0  0
  4  1  1  0  0  0  0
  5  3  1  0  0  0  0
  6  4  1  0  0  0  0
  8  5  1  0  0  0  0
  9 13  1  0  0  0  0
 10  7  1  0  0  0  0
 11 16  1  0  0  0  0
 12  2  1  0  0  0  0
 12 11  1  0  0  0  0
 13 10  1  0  0  0  0
 14  8  1  0  0  0  0
 15  6  1  0  0  0  0
 15 18  1  0  0  0  0
 16 17  1  0  0  0  0
 17 14  1  0  0  0  0
 17 26  1  0  0  0  0
 18  9  1  0  0  0  0
 19 20  1  0  0  0  0
 20 15  1  0  0  0  0
 21 20  1  0  0  0  0
 22 24  1  0  0  0  0
 23 25  2  0  0  0  0
 24 23  1  0  0  0  0
 24 21  1  0  0  0  0
 25 19  1  0  0  0  0
 26 27  1  0  0  0  0
 27 29  1  0  0  0  0
 27 30  1  0  0  0  0
 28 29  2  0  0  0  0
 30 31  1  0  0  0  0
 31 32  1  0  0  0  0
 33 34  1  0  0  0  0
 34 36  1  0  0  0  0
 34 35  1  0  0  0  0
 37 34  1  0  0  0  0
M  END
>  <MODEL>
3

>  <REMARK>
 VINA RESULT:      -6.3      2.381      3.917
  Name = 
  8 active torsions:
  status: ('A' for Active; 'I' for Inactive)
    1  A    between atoms: O_1  and  C_4
    2  A    between atoms: O_1  and  C_27
    3  A    between atoms: C_2  and  O_22
    4  A    between atoms: C_4  and  C_12
    5  A    between atoms: C_4  and  C_37
    6  A    between atoms: C_6  and  O_22
    7  A    between atoms: C_8  and  C_12
    8  A    between atoms: N_23  and  C_30
                            x       y       z     vdW  Elec       q    Type
                         _______ _______ _______ _____ _____    ______ ____

>  <TORSDO>
F 8

$$$$
=
 OpenBabel11122411483D

 37 41  0  0  1  0  0  0  0  0999 V2000
  186.7120  178.4030  142.1740 C   0  0  1  0  0  3  0  0  0  0  0  0
  189.9570  177.7860  140.2800 C   0  0  0  0  0  2  0  0  0  0  0  0
  184.2130  178.7830  141.7870 C   0  0  2  0  0  3  0  0  0  0  0  0
  187.4750  177.8050  141.0370 C   0  0  2  0  0  3  0  0  0  0  0  0
  185.6450  179.2640  141.5060 C   0  0  2  0  0  3  0  0  0  0  0  0
  188.9680  177.8350  141.4450 C   0  0  1  0  0  3  0  0  0  0  0  0
  184.0070  178.5460  143.2890 C   0  0  0  0  0  2  0  0  0  0  0  0
  185.8920  179.3570  140.1230 O   0  0  0  0  0  0  0  0  0  0  0  0
  187.2490  176.8070  143.8490 C   0  0  0  0  0  2  0  0  0  0  0  0
  185.2440  177.9680  143.9870 C   0  0  0  0  0  2  0  0  0  0  0  0
  188.6910  176.1220  138.8520 C   0  0  0  0  0  2  0  0  0  0  0  0
  189.9950  176.4310  139.5730 C   0  0  0  0  0  2  0  0  0  0  0  0
  186.1630  177.3460  143.0360 N   0  0  1  0  0  0  0  0  0  0  0  0
  187.1050  178.6900  139.8450 C   0  0  2  0  0  3  0  0  0  0  0  0
  189.3680  176.8640  142.4970 N   0  0  2  0  0  0  0  0  0  0  0  0
  188.2510  177.3120  138.0170 C   0  0  0  0  0  2  0  0  0  0  0  0
  186.9350  177.8850  138.5370 C   0  0  2  0  0  3  0  0  0  0  0  0
  188.2600  176.0210  143.0010 C   0  0  0  0  0  2  0  0  0  0  0  0
  191.2250  178.4120  143.1030 C   0  0  0  0  0  2  0  0  0  0  0  0
  190.0560  177.5580  143.6060 C   0  0  2  0  0  3  0  0  0  0  0  0
  190.6290  176.5600  144.6120 C   0  0  0  0  0  2  0  0  0  0  0  0
  191.9020  176.4000  146.7470 C   0  0  0  0  0  1  0  0  0  0  0  0
  192.0420  178.4280  145.4190 N   0  0  0  0  0  0  0  0  0  0  0  0
  191.1680  177.3350  145.8100 C   0  0  1  0  0  3  0  0  0  0  0  0
  192.0500  178.9570  144.2400 C   0  0  0  0  0  3  0  0  0  0  0  0
  186.3930  178.7300  137.5440 O   0  0  0  0  0  0  0  0  0  0  0  0
  185.4960  178.0080  136.7190 C   0  0  1  0  0  3  0  0  0  0  0  0
  186.9120  178.3020  134.8480 O   0  0  0  0  0  0  0  0  0  0  0  0
  186.1120  177.5790  135.4180 C   0  0  0  0  0  3  0  0  0  0  0  0
  184.7820  176.8640  137.4400 C   0  0  0  0  0  2  0  0  0  0  0  0
  184.8100  175.5900  136.6130 C   0  0  0  0  0  2  0  0  0  0  0  0
  185.6310  174.6390  137.2180 O   0  0  0  0  0  1  0  0  0  0  0  0
  183.9350  177.6010  141.0750 O   0  0  0  0  0  0  0  0  0  0  0  0
  182.7180  177.7760  140.3820 C   0  0  0  0  0  0  0  0  0  0  0  0
  181.6910  178.0990  141.2540 F   0  0  0  0  0  0  0  0  0  0  0  0
  182.8380  178.7620  139.4140 F   0  0  0  0  0  0  0  0  0  0  0  0
  182.3930  176.5870  139.7570 F   0  0  0  0  0  0  0  0  0  0  0  0
  1 13  1  0  0  0  0
  2  6  1  0  0  0  0
  3  7  1  0  0  0  0
  4  6  1  0  0  0  0
  4  1  1  0  0  0  0
  5  3  1  0  0  0  0
  5  1  1  0  0  0  0
  6 15  1  0  0  0  0
  7 10  1  0  0  0  0
  8  5  1  0  0  0  0
 11 12  1  0  0  0  0
 12  2  1  0  0  0  0
 13  9  1  0  0  0  0
 13 10  1  0  0  0  0
 14  8  1  0  0  0  0
 14  4  1  0  0  0  0
 15 18  1  0  0  0  0
 15 20  1  0  0  0  0
 16 17  1  0  0  0  0
 16 11  1  0  0  0  0
 17 14  1  0  0  0  0
 18  9  1  0  0  0  0
 19 20  1  0  0  0  0
 19 25  1  0  0  0  0
 20 21  1  0  0  0  0
 21 24  1  0  0  0  0
 23 24  1  0  0  0  0
 24 22  1  0  0  0  0
 25 23  2  0  0  0  0
 26 17  1  0  0  0  0
 27 30  1  0  0  0  0
 27 26  1  0  0  0  0
 28 29  2  0  0  0  0
 29 27  1  0  0  0  0
 31 32  1  0  0  0  0
 31 30  1  0  0  0  0
 33  3  1  0  0  0  0
 34 33  1  0  0  0  0
 34 35  1  0  0  0  0
 36 34  1  0  0  0  0
 37 34  1  0  0  0  0
M  END
>  <MODEL>
4

>  <REMARK>
 VINA RESULT:      -6.1      3.997      7.688
  Name = 
  8 active torsions:
  status: ('A' for Active; 'I' for Inactive)
    1  A    between atoms: O_1  and  C_4
    2  A    between atoms: O_1  and  C_27
    3  A    between atoms: C_2  and  O_22
    4  A    between atoms: C_4  and  C_12
    5  A    between atoms: C_4  and  C_37
    6  A    between atoms: C_6  and  O_22
    7  A    between atoms: C_8  and  C_12
    8  A    between atoms: N_23  and  C_30
                            x       y       z     vdW  Elec       q    Type
                         _______ _______ _______ _____ _____    ______ ____

>  <TORSDO>
F 8

$$$$
=
 OpenBabel11122411483D

 37 41  0  0  1  0  0  0  0  0999 V2000
  187.0440  178.3850  142.6680 C   0  0  1  0  0  3  0  0  0  0  0  0
  190.5570  177.6850  141.3770 C   0  0  0  0  0  2  0  0  0  0  0  0
  184.6880  178.9450  141.8490 C   0  0  2  0  0  3  0  0  0  0  0  0
  187.9800  177.8130  141.6530 C   0  0  2  0  0  3  0  0  0  0  0  0
  186.1690  179.3510  141.8770 C   0  0  2  0  0  3  0  0  0  0  0  0
  189.3660  177.7230  142.3360 C   0  0  1  0  0  3  0  0  0  0  0  0
  184.1860  178.6280  143.2630 C   0  0  0  0  0  2  0  0  0  0  0  0
  186.6810  179.5160  140.5760 O   0  0  0  0  0  0  0  0  0  0  0  0
  187.1700  176.6570  144.2930 C   0  0  0  0  0  2  0  0  0  0  0  0
  185.2360  177.9300  144.1370 C   0  0  0  0  0  2  0  0  0  0  0  0
  189.5060  176.1970  139.6180 C   0  0  0  0  0  2  0  0  0  0  0  0
  190.6610  176.3780  140.5920 C   0  0  0  0  0  2  0  0  0  0  0  0
  186.2880  177.3130  143.3320 N   0  0  1  0  0  0  0  0  0  0  0  0
  187.8900  178.7920  140.4820 C   0  0  2  0  0  3  0  0  0  0  0  0
  189.5090  176.6650  143.3700 N   0  0  2  0  0  0  0  0  0  0  0  0
  189.2940  177.4620  138.8050 C   0  0  0  0  0  2  0  0  0  0  0  0
  187.9330  178.0840  139.1100 C   0  0  2  0  0  3  0  0  0  0  0  0
  188.2840  175.8630  143.5940 C   0  0  0  0  0  2  0  0  0  0  0  0
  191.2760  176.5370  145.1230 C   0  0  0  0  0  2  0  0  0  0  0  0
  190.0050  177.2430  144.6360 C   0  0  2  0  0  3  0  0  0  0  0  0
  188.9650  177.1130  145.7480 C   0  0  0  0  0  2  0  0  0  0  0  0
  188.5490  177.6280  148.1510 C   0  0  0  0  0  1  0  0  0  0  0  0
  190.8310  177.5310  147.3240 N   0  0  0  0  0  0  0  0  0  0  0  0
  189.4640  177.8780  146.9700 C   0  0  1  0  0  3  0  0  0  0  0  0
  191.6690  176.9830  146.5070 C   0  0  0  0  0  3  0  0  0  0  0  0
  187.6340  179.0210  138.0980 O   0  0  0  0  0  0  0  0  0  0  0  0
  186.7950  178.4370  137.1170 C   0  0  1  0  0  3  0  0  0  0  0  0
  188.0680  177.2140  135.5440 O   0  0  0  0  0  0  0  0  0  0  0  0
  187.4800  178.2530  135.7930 C   0  0  0  0  0  3  0  0  0  0  0  0
  186.0810  177.1730  137.5940 C   0  0  0  0  0  2  0  0  0  0  0  0
  184.8380  176.8970  136.7650 C   0  0  0  0  0  2  0  0  0  0  0  0
  184.5120  175.5420  136.8190 O   0  0  0  0  0  1  0  0  0  0  0  0
  184.4930  177.8300  141.0120 O   0  0  0  0  0  0  0  0  0  0  0  0
  183.4300  178.1180  140.1290 C   0  0  0  0  0  0  0  0  0  0  0  0
  182.3250  178.5920  140.8170 F   0  0  0  0  0  0  0  0  0  0  0  0
  183.8180  179.0460  139.1740 F   0  0  0  0  0  0  0  0  0  0  0  0
  183.0660  176.9520  139.4830 F   0  0  0  0  0  0  0  0  0  0  0  0
  1 13  1  0  0  0  0
  2  6  1  0  0  0  0
  3  5  1  0  0  0  0
  3  7  1  0  0  0  0
  4  6  1  0  0  0  0
  4  1  1  0  0  0  0
  5  1  1  0  0  0  0
  6 15  1  0  0  0  0
  7 10  1  0  0  0  0
  8  5  1  0  0  0  0
 11 12  1  0  0  0  0
 12  2  1  0  0  0  0
 13 10  1  0  0  0  0
 13  9  1  0  0  0  0
 14  8  1  0  0  0  0
 14  4  1  0  0  0  0
 15 18  1  0  0  0  0
 15 20  1  0  0  0  0
 16 17  1  0  0  0  0
 16 11  1  0  0  0  0
 17 14  1  0  0  0  0
 18  9  1  0  0  0  0
 19 25  1  0  0  0  0
 20 19  1  0  0  0  0
 20 21  1  0  0  0  0
 21 24  1  0  0  0  0
 24 23  1  0  0  0  0
 24 22  1  0  0  0  0
 25 23  2  0  0  0  0
 26 17  1  0  0  0  0
 27 30  1  0  0  0  0
 27 26  1  0  0  0  0
 28 29  2  0  0  0  0
 29 27  1  0  0  0  0
 31 32  1  0  0  0  0
 31 30  1  0  0  0  0
 33  3  1  0  0  0  0
 34 35  1  0  0  0  0
 34 33  1  0  0  0  0
 36 34  1  0  0  0  0
 37 34  1  0  0  0  0
M  END
>  <MODEL>
5

>  <REMARK>
 VINA RESULT:      -5.8      3.881      7.658
  Name = 
  8 active torsions:
  status: ('A' for Active; 'I' for Inactive)
    1  A    between atoms: O_1  and  C_4
    2  A    between atoms: O_1  and  C_27
    3  A    between atoms: C_2  and  O_22
    4  A    between atoms: C_4  and  C_12
    5  A    between atoms: C_4  and  C_37
    6  A    between atoms: C_6  and  O_22
    7  A    between atoms: C_8  and  C_12
    8  A    between atoms: N_23  and  C_30
                            x       y       z     vdW  Elec       q    Type
                         _______ _______ _______ _____ _____    ______ ____

>  <TORSDO>
F 8

$$$$
=
 OpenBabel11122411483D

 37 41  0  0  1  0  0  0  0  0999 V2000
  187.6390  177.0650  142.0820 C   0  0  1  0  0  3  0  0  0  0  0  0
  190.6880  176.3790  139.9080 C   0  0  0  0  0  2  0  0  0  0  0  0
  186.9300  177.2430  144.5320 C   0  0  2  0  0  3  0  0  0  0  0  0
  189.1040  177.1640  141.8070 C   0  0  2  0  0  3  0  0  0  0  0  0
  187.5520  176.3660  143.4350 C   0  0  2  0  0  3  0  0  0  0  0  0
  189.2910  176.8580  140.3010 C   0  0  1  0  0  3  0  0  0  0  0  0
  185.6200  177.8750  144.0440 C   0  0  0  0  0  2  0  0  0  0  0  0
  188.8190  175.8870  143.8170 O   0  0  0  0  0  0  0  0  0  0  0  0
  186.8870  178.8250  140.6760 C   0  0  0  0  0  2  0  0  0  0  0  0
  185.6530  178.2730  142.5640 C   0  0  0  0  0  2  0  0  0  0  0  0
  191.9980  177.9180  141.4330 C   0  0  0  0  0  2  0  0  0  0  0  0
  191.7520  177.4720  139.9990 C   0  0  0  0  0  2  0  0  0  0  0  0
  187.0220  178.3990  142.0660 N   0  0  1  0  0  0  0  0  0  0  0  0
  189.7240  176.1420  142.7630 C   0  0  2  0  0  3  0  0  0  0  0  0
  188.8320  177.9180  139.3660 N   0  0  2  0  0  0  0  0  0  0  0  0
  192.1830  176.7130  142.3390 C   0  0  0  0  0  2  0  0  0  0  0  0
  191.0590  176.6290  143.3690 C   0  0  2  0  0  3  0  0  0  0  0  0
  188.2520  179.1070  140.0320 C   0  0  0  0  0  2  0  0  0  0  0  0
  188.2810  175.9300  137.9690 C   0  0  0  0  0  2  0  0  0  0  0  0
  187.8970  177.3580  138.3680 C   0  0  2  0  0  3  0  0  0  0  0  0
  187.8870  178.1950  137.0890 C   0  0  0  0  0  2  0  0  0  0  0  0
  186.8550  178.3560  134.8270 C   0  0  0  0  0  1  0  0  0  0  0  0
  186.8440  176.2300  136.0010 N   0  0  0  0  0  0  0  0  0  0  0  0
  186.7830  177.6710  136.1760 C   0  0  1  0  0  3  0  0  0  0  0  0
  187.4580  175.4310  136.8100 C   0  0  0  0  0  3  0  0  0  0  0  0
  191.4540  175.7370  144.3890 O   0  0  0  0  0  0  0  0  0  0  0  0
  191.7470  176.4470  145.5800 C   0  0  1  0  0  3  0  0  0  0  0  0
  192.0550  178.7290  145.0420 O   0  0  0  0  0  0  0  0  0  0  0  0
  191.3190  177.8860  145.5250 C   0  0  0  0  0  3  0  0  0  0  0  0
  191.2760  175.7380  146.8490 C   0  0  0  0  0  2  0  0  0  0  0  0
  192.4420  175.4320  147.7730 C   0  0  0  0  0  2  0  0  0  0  0  0
  192.8070  176.5750  148.4860 O   0  0  0  0  0  1  0  0  0  0  0  0
  187.8270  178.2530  144.9300 O   0  0  0  0  0  0  0  0  0  0  0  0
  187.9020  178.2500  146.3400 C   0  0  0  0  0  0  0  0  0  0  0  0
  189.0550  178.8810  146.7770 F   0  0  0  0  0  0  0  0  0  0  0  0
  186.7910  178.8680  146.8960 F   0  0  0  0  0  0  0  0  0  0  0  0
  187.9370  176.9400  146.7760 F   0  0  0  0  0  0  0  0  0  0  0  0
  1  5  1  0  0  0  0
  2 12  1  0  0  0  0
  2  6  1  0  0  0  0
  3 33  1  0  0  0  0
  4  1  1  0  0  0  0
  4 14  1  0  0  0  0
  5  8  1  0  0  0  0
  5  3  1  0  0  0  0
  6  4  1  0  0  0  0
  7  3  1  0  0  0  0
  9 13  1  0  0  0  0
 10  7  1  0  0  0  0
 11 16  1  0  0  0  0
 12 11  1  0  0  0  0
 13  1  1  0  0  0  0
 13 10  1  0  0  0  0
 14 17  1  0  0  0  0
 14  8  1  0  0  0  0
 15 18  1  0  0  0  0
 15  6  1  0  0  0  0
 16 17  1  0  0  0  0
 17 26  1  0  0  0  0
 18  9  1  0  0  0  0
 19 20  1  0  0  0  0
 20 15  1  0  0  0  0
 21 20  1  0  0  0  0
 22 24  1  0  0  0  0
 23 24  1  0  0  0  0
 23 25  2  0  0  0  0
 24 21  1  0  0  0  0
 25 19  1  0  0  0  0
 26 27  1  0  0  0  0
 27 30  1  0  0  0  0
 28 29  2  0  0  0  0
 29 27  1  0  0  0  0
 30 31  1  0  0  0  0
 31 32  1  0  0  0  0
 33 34  1  0  0  0  0
 34 37  1  0  0  0  0
 34 35  1  0  0  0  0
 34 36  1  0  0  0  0
M  END
>  <MODEL>
6

>  <REMARK>
 VINA RESULT:      -5.7      1.533      2.015
  Name = 
  8 active torsions:
  status: ('A' for Active; 'I' for Inactive)
    1  A    between atoms: O_1  and  C_4
    2  A    between atoms: O_1  and  C_27
    3  A    between atoms: C_2  and  O_22
    4  A    between atoms: C_4  and  C_12
    5  A    between atoms: C_4  and  C_37
    6  A    between atoms: C_6  and  O_22
    7  A    between atoms: C_8  and  C_12
    8  A    between atoms: N_23  and  C_30
                            x       y       z     vdW  Elec       q    Type
                         _______ _______ _______ _____ _____    ______ ____

>  <TORSDO>
F 8

$$$$
=
 OpenBabel11122411483D

 37 41  0  0  1  0  0  0  0  0999 V2000
  189.9150  177.5480  139.2490 C   0  0  1  0  0  3  0  0  0  0  0  0
  188.8940  177.0160  135.6190 C   0  0  0  0  0  2  0  0  0  0  0  0
  188.9530  178.2360  141.5150 C   0  0  2  0  0  3  0  0  0  0  0  0
  188.9270  177.1210  138.2120 C   0  0  2  0  0  3  0  0  0  0  0  0
  189.1870  178.6240  140.0470 C   0  0  2  0  0  3  0  0  0  0  0  0
  189.7250  176.9240  136.9000 C   0  0  1  0  0  3  0  0  0  0  0  0
  190.2500  177.7220  142.1540 C   0  0  0  0  0  2  0  0  0  0  0  0
  187.9810  178.9700  139.4090 O   0  0  0  0  0  0  0  0  0  0  0  0
  191.2790  175.6030  139.2730 C   0  0  0  0  0  2  0  0  0  0  0  0
  191.1150  176.9000  141.1910 C   0  0  0  0  0  2  0  0  0  0  0  0
  186.8440  175.8040  136.4780 C   0  0  0  0  0  2  0  0  0  0  0  0
  187.9440  175.8340  135.4270 C   0  0  0  0  0  2  0  0  0  0  0  0
  190.3390  176.3970  140.0590 N   0  0  1  0  0  0  0  0  0  0  0  0
  187.9060  178.2590  138.1910 C   0  0  2  0  0  3  0  0  0  0  0  0
  190.6060  175.7280  136.8530 N   0  0  2  0  0  0  0  0  0  0  0  0
  186.2040  177.1740  136.6170 C   0  0  0  0  0  2  0  0  0  0  0  0
  186.4570  177.7540  138.0060 C   0  0  2  0  0  3  0  0  0  0  0  0
  190.5880  174.9110  138.0890 C   0  0  0  0  0  2  0  0  0  0  0  0
  192.1740  176.1820  134.9710 C   0  0  0  0  0  2  0  0  0  0  0  0
  191.9850  176.1140  136.4900 C   0  0  2  0  0  3  0  0  0  0  0  0
  193.0010  175.1060  137.0260 C   0  0  0  0  0  2  0  0  0  0  0  0
  195.4390  174.6030  137.1250 C   0  0  0  0  0  1  0  0  0  0  0  0
  194.5910  176.0840  135.3970 N   0  0  0  0  0  0  0  0  0  0  0  0
  194.4030  175.6500  136.7710 C   0  0  1  0  0  3  0  0  0  0  0  0
  193.6210  176.3750  134.5950 C   0  0  0  0  0  3  0  0  0  0  0  0
  185.5660  178.8300  138.2090 O   0  0  0  0  0  0  0  0  0  0  0  0
  184.4520  178.4080  138.9770 C   0  0  1  0  0  3  0  0  0  0  0  0
  185.3050  179.7490  140.7270 O   0  0  0  0  0  0  0  0  0  0  0  0
  184.4990  178.8950  140.3970 C   0  0  0  0  0  3  0  0  0  0  0  0
  183.1060  178.6770  138.3040 C   0  0  0  0  0  2  0  0  0  0  0  0
  182.0440  177.7040  138.7880 C   0  0  0  0  0  2  0  0  0  0  0  0
  182.4370  176.3910  138.5250 O   0  0  0  0  0  1  0  0  0  0  0  0
  187.9500  177.2540  141.6170 O   0  0  0  0  0  0  0  0  0  0  0  0
  187.4650  177.2500  142.9430 C   0  0  0  0  0  0  0  0  0  0  0  0
  186.1030  177.5010  142.9750 F   0  0  0  0  0  0  0  0  0  0  0  0
  187.7310  176.0390  143.5640 F   0  0  0  0  0  0  0  0  0  0  0  0
  188.1030  178.2530  143.6480 F   0  0  0  0  0  0  0  0  0  0  0  0
  1  5  1  0  0  0  0
  1 13  1  0  0  0  0
  2  6  1  0  0  0  0
  3 33  1  0  0  0  0
  3  7  1  0  0  0  0
  4  1  1  0  0  0  0
  5  3  1  0  0  0  0
  6  4  1  0  0  0  0
  8  5  1  0  0  0  0
  9 13  1  0  0  0  0
 10  7  1  0  0  0  0
 11 16  1  0  0  0  0
 12  2  1  0  0  0  0
 12 11  1  0  0  0  0
 13 10  1  0  0  0  0
 14  4  1  0  0  0  0
 14  8  1  0  0  0  0
 15  6  1  0  0  0  0
 15 18  1  0  0  0  0
 16 17  1  0  0  0  0
 17 14  1  0  0  0  0
 17 26  1  0  0  0  0
 18  9  1  0  0  0  0
 19 20  1  0  0  0  0
 20 15  1  0  0  0  0
 20 21  1  0  0  0  0
 23 24  1  0  0  0  0
 24 21  1  0  0  0  0
 24 22  1  0  0  0  0
 25 19  1  0  0  0  0
 25 23  2  0  0  0  0
 26 27  1  0  0  0  0
 27 29  1  0  0  0  0
 29 28  2  0  0  0  0
 30 31  1  0  0  0  0
 30 27  1  0  0  0  0
 32 31  1  0  0  0  0
 33 34  1  0  0  0  0
 34 35  1  0  0  0  0
 34 36  1  0  0  0  0
 34 37  1  0  0  0  0
M  END
>  <MODEL>
7

>  <REMARK>
 VINA RESULT:      -5.7      3.751      7.518
  Name = 
  8 active torsions:
  status: ('A' for Active; 'I' for Inactive)
    1  A    between atoms: O_1  and  C_4
    2  A    between atoms: O_1  and  C_27
    3  A    between atoms: C_2  and  O_22
    4  A    between atoms: C_4  and  C_12
    5  A    between atoms: C_4  and  C_37
    6  A    between atoms: C_6  and  O_22
    7  A    between atoms: C_8  and  C_12
    8  A    between atoms: N_23  and  C_30
                            x       y       z     vdW  Elec       q    Type
                         _______ _______ _______ _____ _____    ______ ____

>  <TORSDO>
F 8

$$$$
=
 OpenBabel11122411483D

 37 41  0  0  1  0  0  0  0  0999 V2000
  187.5580  177.3320  141.7820 C   0  0  1  0  0  3  0  0  0  0  0  0
  187.2200  177.4940  137.9920 C   0  0  0  0  0  2  0  0  0  0  0  0
  189.3220  177.2280  143.6290 C   0  0  2  0  0  3  0  0  0  0  0  0
  188.0290  177.7920  140.4400 C   0  0  2  0  0  3  0  0  0  0  0  0
  188.7460  176.5740  142.3640 C   0  0  2  0  0  3  0  0  0  0  0  0
  186.8380  177.6060  139.4690 C   0  0  1  0  0  3  0  0  0  0  0  0
  188.2040  177.5480  144.6310 C   0  0  0  0  0  2  0  0  0  0  0  0
  189.7380  176.3970  141.3800 O   0  0  0  0  0  0  0  0  0  0  0  0
  185.8240  178.9210  142.1210 C   0  0  0  0  0  2  0  0  0  0  0  0
  186.9040  178.0060  143.9610 C   0  0  0  0  0  2  0  0  0  0  0  0
  189.0600  179.2340  138.0030 C   0  0  0  0  0  2  0  0  0  0  0  0
  187.7310  178.8050  137.3970 C   0  0  0  0  0  2  0  0  0  0  0  0
  187.1320  178.4790  142.5970 N   0  0  1  0  0  0  0  0  0  0  0  0
  189.2450  176.9080  140.1590 C   0  0  2  0  0  3  0  0  0  0  0  0
  185.7140  178.5650  139.6340 N   0  0  2  0  0  0  0  0  0  0  0  0
  190.0350  178.0700  138.0200 C   0  0  0  0  0  2  0  0  0  0  0  0
  190.3850  177.6740  139.4520 C   0  0  2  0  0  3  0  0  0  0  0  0
  185.9110  179.5500  140.7230 C   0  0  0  0  0  2  0  0  0  0  0  0
  183.9920  177.1770  138.4880 C   0  0  0  0  0  2  0  0  0  0  0  0
  184.4360  177.8420  139.7950 C   0  0  2  0  0  3  0  0  0  0  0  0
  183.3150  178.7890  140.2220 C   0  0  0  0  0  2  0  0  0  0  0  0
  180.8910  178.8690  140.7930 C   0  0  0  0  0  1  0  0  0  0  0  0
  181.7520  177.0150  139.4820 N   0  0  0  0  0  0  0  0  0  0  0  0
  182.0740  177.9590  140.5380 C   0  0  1  0  0  3  0  0  0  0  0  0
  182.5980  176.6130  138.5920 C   0  0  0  0  0  3  0  0  0  0  0  0
  191.5370  176.8590  139.4200 O   0  0  0  0  0  0  0  0  0  0  0  0
  191.7370  176.3370  138.1180 C   0  0  1  0  0  3  0  0  0  0  0  0
  194.0590  175.9610  137.8820 O   0  0  0  0  0  0  0  0  0  0  0  0
  193.0990  176.6440  137.5660 C   0  0  0  0  0  3  0  0  0  0  0  0
  191.3640  174.8600  137.9850 C   0  0  0  0  0  2  0  0  0  0  0  0
  190.1460  174.6790  137.0950 C   0  0  0  0  0  2  0  0  0  0  0  0
  189.5600  173.4340  137.3270 O   0  0  0  0  0  1  0  0  0  0  0  0
  190.0240  178.4050  143.3060 O   0  0  0  0  0  0  0  0  0  0  0  0
  191.3590  178.2590  143.7410 C   0  0  0  0  0  0  0  0  0  0  0  0
  191.9010  179.4830  144.1000 F   0  0  0  0  0  0  0  0  0  0  0  0
  191.4370  177.3810  144.8120 F   0  0  0  0  0  0  0  0  0  0  0  0
  192.1080  177.7470  142.6990 F   0  0  0  0  0  0  0  0  0  0  0  0
  1  5  1  0  0  0  0
  1 13  1  0  0  0  0
  2  6  1  0  0  0  0
  3  7  1  0  0  0  0
  4  1  1  0  0  0  0
  5  3  1  0  0  0  0
  6 15  1  0  0  0  0
  6  4  1  0  0  0  0
  8  5  1  0  0  0  0
  9 13  1  0  0  0  0
 10  7  1  0  0  0  0
 11 16  1  0  0  0  0
 12  2  1  0  0  0  0
 12 11  1  0  0  0  0
 13 10  1  0  0  0  0
 14  4  1  0  0  0  0
 14  8  1  0  0  0  0
 15 20  1  0  0  0  0
 15 18  1  0  0  0  0
 16 17  1  0  0  0  0
 17 14  1  0  0  0  0
 18  9  1  0  0  0  0
 19 25  1  0  0  0  0
 19 20  1  0  0  0  0
 20 21  1  0  0  0  0
 21 24  1  0  0  0  0
 23 24  1  0  0  0  0
 24 22  1  0  0  0  0
 25 23  2  0  0  0  0
 26 17  1  0  0  0  0
 27 26  1  0  0  0  0
 29 28  2  0  0  0  0
 29 27  1  0  0  0  0
 30 27  1  0  0  0  0
 31 32  1  0  0  0  0
 31 30  1  0  0  0  0
 33  3  1  0  0  0  0
 33 34  1  0  0  0  0
 34 35  1  0  0  0  0
 34 36  1  0  0  0  0
 37 34  1  0  0  0  0
M  END
>  <MODEL>
8

>  <REMARK>
 VINA RESULT:      -5.6      3.791      6.609
  Name = 
  8 active torsions:
  status: ('A' for Active; 'I' for Inactive)
    1  A    between atoms: O_1  and  C_4
    2  A    between atoms: O_1  and  C_27
    3  A    between atoms: C_2  and  O_22
    4  A    between atoms: C_4  and  C_12
    5  A    between atoms: C_4  and  C_37
    6  A    between atoms: C_6  and  O_22
    7  A    between atoms: C_8  and  C_12
    8  A    between atoms: N_23  and  C_30
                            x       y       z     vdW  Elec       q    Type
                         _______ _______ _______ _____ _____    ______ ____

>  <TORSDO>
F 8

$$$$
=
 OpenBabel11122411483D

 37 41  0  0  1  0  0  0  0  0999 V2000
  184.9930  178.1780  138.4250 C   0  0  1  0  0  3  0  0  0  0  0  0
  185.3000  179.5190  141.9760 C   0  0  0  0  0  2  0  0  0  0  0  0
  186.3740  177.0710  136.5810 C   0  0  2  0  0  3  0  0  0  0  0  0
  185.5640  178.1220  139.8050 C   0  0  2  0  0  3  0  0  0  0  0  0
  186.2110  178.2810  137.5130 C   0  0  2  0  0  3  0  0  0  0  0  0
  184.6480  178.9950  140.6960 C   0  0  1  0  0  3  0  0  0  0  0  0
  185.0530  176.7560  135.8650 C   0  0  0  0  0  2  0  0  0  0  0  0
  187.3730  178.5000  138.2770 O   0  0  0  0  0  0  0  0  0  0  0  0
  182.8880  177.1690  138.8630 C   0  0  0  0  0  2  0  0  0  0  0  0
  183.8180  176.9830  136.7450 C   0  0  0  0  0  2  0  0  0  0  0  0
  186.6180  177.4320  142.5430 C   0  0  0  0  0  2  0  0  0  0  0  0
  185.5660  178.4270  143.0120 C   0  0  0  0  0  2  0  0  0  0  0  0
  184.1590  176.9960  138.1660 N   0  0  1  0  0  0  0  0  0  0  0  0
  186.9920  178.6420  139.6290 C   0  0  2  0  0  3  0  0  0  0  0  0
  183.3100  178.4230  141.0020 N   0  0  2  0  0  0  0  0  0  0  0  0
  187.8330  178.1620  141.9990 C   0  0  0  0  0  2  0  0  0  0  0  0
  188.0120  177.8850  140.5080 C   0  0  2  0  0  3  0  0  0  0  0  0
  183.0600  177.0990  140.3880 C   0  0  0  0  0  2  0  0  0  0  0  0
  180.8500  178.8110  140.9260 C   0  0  0  0  0  2  0  0  0  0  0  0
  182.2440  179.3830  140.6480 C   0  0  2  0  0  3  0  0  0  0  0  0
  182.2950  179.7430  139.1640 C   0  0  0  0  0  2  0  0  0  0  0  0
  181.1800  181.1250  137.4150 C   0  0  0  0  0  1  0  0  0  0  0  0
  179.9750  180.5660  139.4480 N   0  0  0  0  0  0  0  0  0  0  0  0
  181.2890  180.8610  138.9020 C   0  0  1  0  0  3  0  0  0  0  0  0
  179.7610  179.6990  140.3820 C   0  0  0  0  0  3  0  0  0  0  0  0
  189.3180  178.2720  140.1360 O   0  0  0  0  0  0  0  0  0  0  0  0
  190.1960  177.1620  140.1900 C   0  0  1  0  0  3  0  0  0  0  0  0
  191.2440  175.6410  138.7130 O   0  0  0  0  0  0  0  0  0  0  0  0
  190.3970  176.5070  138.8530 C   0  0  0  0  0  3  0  0  0  0  0  0
  191.5130  177.4550  140.9080 C   0  0  0  0  0  2  0  0  0  0  0  0
  191.4190  177.1230  142.3870 C   0  0  0  0  0  2  0  0  0  0  0  0
  190.5640  176.0380  142.5850 O   0  0  0  0  0  1  0  0  0  0  0  0
  186.8070  175.9410  137.3010 O   0  0  0  0  0  0  0  0  0  0  0  0
  187.7200  175.2250  136.4970 C   0  0  0  0  0  0  0  0  0  0  0  0
  187.0560  174.3800  135.6230 F   0  0  0  0  0  0  0  0  0  0  0  0
  188.5340  176.0910  135.7820 F   0  0  0  0  0  0  0  0  0  0  0  0
  188.5180  174.4530  137.3190 F   0  0  0  0  0  0  0  0  0  0  0  0
  1  4  1  0  0  0  0
  2 12  1  0  0  0  0
  3 33  1  0  0  0  0
  3  5  1  0  0  0  0
  4  6  1  0  0  0  0
  5  8  1  0  0  0  0
  5  1  1  0  0  0  0
  6 15  1  0  0  0  0
  6  2  1  0  0  0  0
  7  3  1  0  0  0  0
  7 10  1  0  0  0  0
  8 14  1  0  0  0  0
  9 18  1  0  0  0  0
 10 13  1  0  0  0  0
 11 12  1  0  0  0  0
 13  1  1  0  0  0  0
 13  9  1  0  0  0  0
 14  4  1  0  0  0  0
 14 17  1  0  0  0  0
 16 11  1  0  0  0  0
 17 16  1  0  0  0  0
 18 15  1  0  0  0  0
 20 19  1  0  0  0  0
 20 15  1  0  0  0  0
 21 20  1  0  0  0  0
 22 24  1  0  0  0  0
 23 25  2  0  0  0  0
 24 21  1  0  0  0  0
 24 23  1  0  0  0  0
 25 19  1  0  0  0  0
 26 27  1  0  0  0  0
 26 17  1  0  0  0  0
 27 30  1  0  0  0  0
 28 29  2  0  0  0  0
 29 27  1  0  0  0  0
 30 31  1  0  0  0  0
 31 32  1  0  0  0  0
 34 33  1  0  0  0  0
 34 37  1  0  0  0  0
 35 34  1  0  0  0  0
 36 34  1  0  0  0  0
M  END
>  <MODEL>
9

>  <REMARK>
 VINA RESULT:      -5.6      5.013      7.626
  Name = 
  8 active torsions:
  status: ('A' for Active; 'I' for Inactive)
    1  A    between atoms: O_1  and  C_4
    2  A    between atoms: O_1  and  C_27
    3  A    between atoms: C_2  and  O_22
    4  A    between atoms: C_4  and  C_12
    5  A    between atoms: C_4  and  C_37
    6  A    between atoms: C_6  and  O_22
    7  A    between atoms: C_8  and  C_12
    8  A    between atoms: N_23  and  C_30
                            x       y       z     vdW  Elec       q    Type
                         _______ _______ _______ _____ _____    ______ ____

>  <TORSDO>
F 8

$$$$
