=
 OpenBabel11122410373D

 32 37  0  0  1  0  0  0  0  0999 V2000
  182.0190  178.1720  137.9410 O   0  0  0  0  0  0  0  0  0  0  0  0
  186.0910  178.3880  141.8950 C   0  0  0  0  0  0  0  0  0  0  0  0
  184.8020  178.5990  146.6480 C   0  0  0  0  0  3  0  0  0  0  0  0
  186.0960  178.2460  147.0330 C   0  0  0  0  0  3  0  0  0  0  0  0
  188.5100  177.9370  141.2070 C   0  0  2  0  0  3  0  0  0  0  0  0
  189.8610  177.5550  141.7500 C   0  0  0  0  0  0  0  0  0  0  0  0
  184.4620  178.4930  140.1500 C   0  0  0  0  0  0  0  0  0  0  0  0
  183.7450  178.4920  142.4580 C   0  0  0  0  0  3  0  0  0  0  0  0
  191.5630  177.0000  143.1610 C   0  0  2  0  0  3  0  0  0  0  0  0
  182.0440  178.5210  140.7240 N   0  0  0  0  0  2  0  0  0  0  0  0
  184.4700  178.6620  145.2930 C   0  0  0  0  0  3  0  0  0  0  0  0
  185.0800  178.4320  142.8730 C   0  0  0  0  0  0  0  0  0  0  0  0
  185.4320  178.3830  144.3090 C   0  0  0  0  0  0  0  0  0  0  0  0
  187.7580  177.6490  143.6430 C   0  0  2  0  0  3  0  0  0  0  0  0
  192.0550  176.8140  141.7860 N   0  0  0  0  0  0  0  0  0  0  0  0
  183.2920  177.6030  138.1120 C   0  0  0  0  0  2  0  0  0  0  0  0
  183.4210  178.5150  141.1020 C   0  0  0  0  0  0  0  0  0  0  0  0
  190.9670  177.1640  140.9670 N   0  0  0  0  0  0  0  0  0  0  0  0
  184.2220  178.6590  138.6790 C   0  0  0  0  0  2  0  0  0  0  0  0
  181.4330  177.3080  140.2020 C   0  0  0  0  0  2  0  0  0  0  0  0
  187.0600  177.9620  146.0640 C   0  0  0  0  0  3  0  0  0  0  0  0
  186.7480  178.0490  144.6970 C   0  0  0  0  0  0  0  0  0  0  0  0
  189.2070  177.8160  144.1200 C   0  0  0  0  0  2  0  0  0  0  0  0
  185.7520  178.4470  140.5770 N   0  0  0  0  0  0  0  0  0  0  0  0
  188.6860  179.0300  140.1650 C   0  0  0  0  0  1  0  0  0  0  0  0
  191.6380  175.4170  144.0500 S   0  0  0  0  0  1  0  0  0  0  0  0
  187.5450  178.4220  142.3180 C   0  0  2  0  0  3  0  0  0  0  0  0
  190.1470  177.4400  143.0200 C   0  0  0  0  0  0  0  0  0  0  0  0
  181.0720  177.4690  138.7220 C   0  0  2  0  0  3  0  0  0  0  0  0
  180.6630  176.1750  138.0920 C   0  0  0  0  0  0  0  0  0  0  0  0
  180.7410  174.9860  138.8080 O   0  0  0  0  0  1  0  0  0  0  0  0
  180.2690  176.1590  136.8970 O   0  0  0  0  0  0  0  0  0  0  0  0
  1 16  1  0  0  0  0
  1 29  1  0  0  0  0
  2 12  1  0  0  0  0
  3  4  1  0  0  0  0
  5 25  1  6  0  0  0
  5  6  1  0  0  0  0
  5 27  1  0  0  0  0
  6 28  2  0  0  0  0
  7 24  1  0  0  0  0
  7 17  2  0  0  0  0
  8 12  2  0  0  0  0
  9 26  1  1  0  0  0
 10 17  1  0  0  0  0
 11  3  2  0  0  0  0
 12 13  1  0  0  0  0
 13 22  2  0  0  0  0
 13 11  1  0  0  0  0
 14 23  1  1  0  0  0
 14 22  1  0  0  0  0
 15  9  1  0  0  0  0
 16 19  1  0  0  0  0
 17  8  1  0  0  0  0
 18  6  1  0  0  0  0
 18 15  2  0  0  0  0
 19  7  1  0  0  0  0
 20 10  1  0  0  0  0
 21  4  2  0  0  0  0
 22 21  1  0  0  0  0
 24  2  2  0  0  0  0
 27  2  1  6  0  0  0
 27 14  1  0  0  0  0
 28  9  1  0  0  0  0
 28 23  1  0  0  0  0
 29 30  1  6  0  0  0
 29 20  1  0  0  0  0
 30 31  1  0  0  0  0
 32 30  2  0  0  0  0
M  END
>  <MODEL>
1

>  <REMARK>
 VINA RESULT:      -9.9      0.000      0.000
  Name = 
  1 active torsions:
  status: ('A' for Active; 'I' for Inactive)
    1  A    between atoms: C_29  and  C_30
                            x       y       z     vdW  Elec       q    Type
                         _______ _______ _______ _____ _____    ______ ____

>  <TORSDO>
F 1

$$$$
=
 OpenBabel11122410373D

 32 37  0  0  1  0  0  0  0  0999 V2000
  191.5360  176.2500  136.9190 O   0  0  0  0  0  0  0  0  0  0  0  0
  189.2200  177.7990  141.8700 C   0  0  0  0  0  0  0  0  0  0  0  0
  184.4170  178.8920  142.0270 C   0  0  0  0  0  3  0  0  0  0  0  0
  184.4200  178.7850  143.4180 C   0  0  0  0  0  3  0  0  0  0  0  0
  190.5710  177.4940  144.0160 C   0  0  2  0  0  3  0  0  0  0  0  0
  190.4410  177.4000  145.5130 C   0  0  0  0  0  0  0  0  0  0  0  0
  190.3310  177.3300  139.8070 C   0  0  0  0  0  0  0  0  0  0  0  0
  187.9510  177.7490  139.8160 C   0  0  0  0  0  3  0  0  0  0  0  0
  189.5880  177.3690  147.6270 C   0  0  2  0  0  3  0  0  0  0  0  0
  189.0150  177.2000  137.7020 N   0  0  0  0  0  2  0  0  0  0  0  0
  185.5790  178.6180  141.3030 C   0  0  0  0  0  3  0  0  0  0  0  0
  187.9900  177.9370  141.2020 C   0  0  0  0  0  0  0  0  0  0  0  0
  186.7600  178.2450  141.9650 C   0  0  0  0  0  0  0  0  0  0  0  0
  188.0120  177.6600  144.0830 C   0  0  2  0  0  3  0  0  0  0  0  0
  190.9960  176.9460  147.7160 N   0  0  0  0  0  0  0  0  0  0  0  0
  191.6940  175.8850  138.2660 C   0  0  0  0  0  2  0  0  0  0  0  0
  189.1110  177.4380  139.1070 C   0  0  0  0  0  0  0  0  0  0  0  0
  191.4620  176.9800  146.3900 N   0  0  0  0  0  0  0  0  0  0  0  0
  191.6490  177.1410  139.1170 C   0  0  0  0  0  2  0  0  0  0  0  0
  189.0950  175.8390  137.1930 C   0  0  0  0  0  2  0  0  0  0  0  0
  185.5870  178.4110  144.0870 C   0  0  0  0  0  3  0  0  0  0  0  0
  186.7710  178.1600  143.3750 C   0  0  0  0  0  0  0  0  0  0  0  0
  188.0680  178.0950  145.5530 C   0  0  0  0  0  2  0  0  0  0  0  0
  190.3460  177.5290  141.1510 N   0  0  0  0  0  0  0  0  0  0  0  0
  191.7840  178.3450  143.6780 C   0  0  0  0  0  1  0  0  0  0  0  0
  188.5150  176.0390  148.2450 S   0  0  0  0  0  1  0  0  0  0  0  0
  189.3060  178.0940  143.3530 C   0  0  2  0  0  3  0  0  0  0  0  0
  189.3330  177.6000  146.1780 C   0  0  0  0  0  0  0  0  0  0  0  0
  190.3810  175.6290  136.3880 C   0  0  2  0  0  3  0  0  0  0  0  0
  190.6130  174.1900  136.0500 C   0  0  0  0  0  0  0  0  0  0  0  0
  191.5510  173.8340  135.0870 O   0  0  0  0  0  0  0  0  0  0  0  0
  189.9350  173.2980  136.6220 O   0  0  0  0  0  1  0  0  0  0  0  0
  1 16  1  0  0  0  0
  3  4  1  0  0  0  0
  4 21  2  0  0  0  0
  5 25  1  1  0  0  0
  5  6  1  0  0  0  0
  6 28  2  0  0  0  0
  6 18  1  0  0  0  0
  7 24  1  0  0  0  0
  8 12  2  0  0  0  0
  9 15  1  0  0  0  0
  9 26  1  6  0  0  0
 10 17  1  0  0  0  0
 11 13  1  0  0  0  0
 11  3  2  0  0  0  0
 12  2  1  0  0  0  0
 12 13  1  0  0  0  0
 13 22  2  0  0  0  0
 14 23  1  1  0  0  0
 16 19  1  0  0  0  0
 17  7  2  0  0  0  0
 17  8  1  0  0  0  0
 18 15  2  0  0  0  0
 19  7  1  0  0  0  0
 20 10  1  0  0  0  0
 22 14  1  0  0  0  0
 22 21  1  0  0  0  0
 23 28  1  0  0  0  0
 24  2  2  0  0  0  0
 27  2  1  6  0  0  0
 27  5  1  0  0  0  0
 27 14  1  0  0  0  0
 28  9  1  0  0  0  0
 29 30  1  1  0  0  0
 29  1  1  0  0  0  0
 29 20  1  0  0  0  0
 30 32  1  0  0  0  0
 31 30  2  0  0  0  0
M  END
>  <MODEL>
2

>  <REMARK>
 VINA RESULT:      -9.6      4.184      6.100
  Name = 
  1 active torsions:
  status: ('A' for Active; 'I' for Inactive)
    1  A    between atoms: C_29  and  C_30
                            x       y       z     vdW  Elec       q    Type
                         _______ _______ _______ _____ _____    ______ ____

>  <TORSDO>
F 1

$$$$
=
 OpenBabel11122410373D

 32 37  0  0  1  0  0  0  0  0999 V2000
  189.0040  177.5510  136.5560 O   0  0  0  0  0  0  0  0  0  0  0  0
  188.1850  178.2490  142.1340 C   0  0  0  0  0  0  0  0  0  0  0  0
  183.6180  179.0620  143.7980 C   0  0  0  0  0  3  0  0  0  0  0  0
  184.0180  178.7560  145.0990 C   0  0  0  0  0  3  0  0  0  0  0  0
  190.0940  177.7070  143.7420 C   0  0  2  0  0  3  0  0  0  0  0  0
  190.3970  177.3910  145.1830 C   0  0  0  0  0  0  0  0  0  0  0  0
  188.6650  178.1400  139.7960 C   0  0  0  0  0  0  0  0  0  0  0  0
  186.3830  178.4320  140.5360 C   0  0  0  0  0  3  0  0  0  0  0  0
  190.1820  177.0120  147.4200 C   0  0  2  0  0  3  0  0  0  0  0  0
  186.8040  178.2490  138.1510 N   0  0  0  0  0  2  0  0  0  0  0  0
  184.5280  178.9560  142.7450 C   0  0  0  0  0  3  0  0  0  0  0  0
  186.8140  178.4190  141.8670 C   0  0  0  0  0  0  0  0  0  0  0  0
  185.8510  178.5510  142.9830 C   0  0  0  0  0  0  0  0  0  0  0  0
  187.6590  177.7310  144.5490 C   0  0  2  0  0  3  0  0  0  0  0  0
  191.5600  176.6530  147.0450 N   0  0  0  0  0  0  0  0  0  0  0  0
  189.5430  177.0040  137.7320 C   0  0  0  0  0  2  0  0  0  0  0  0
  187.2950  178.2850  139.4910 C   0  0  0  0  0  0  0  0  0  0  0  0
  191.6290  176.9010  145.6630 N   0  0  0  0  0  0  0  0  0  0  0  0
  189.7330  178.1200  138.7430 C   0  0  0  0  0  2  0  0  0  0  0  0
  186.7460  176.9820  137.4380 C   0  0  0  0  0  2  0  0  0  0  0  0
  185.3300  178.3490  145.3480 C   0  0  0  0  0  3  0  0  0  0  0  0
  186.2640  178.2640  144.3030 C   0  0  0  0  0  0  0  0  0  0  0  0
  188.1290  177.9510  145.9930 C   0  0  0  0  0  2  0  0  0  0  0  0
  189.0610  178.1430  141.0960 N   0  0  0  0  0  0  0  0  0  0  0  0
  191.1540  178.6580  143.2110 C   0  0  0  0  0  1  0  0  0  0  0  0
  189.3410  175.5530  148.1040 S   0  0  0  0  0  1  0  0  0  0  0  0
  188.6880  178.3310  143.5600 C   0  0  2  0  0  3  0  0  0  0  0  0
  189.5230  177.4360  146.1540 C   0  0  0  0  0  0  0  0  0  0  0  0
  187.7510  176.9560  136.2820 C   0  0  2  0  0  3  0  0  0  0  0  0
  187.8870  175.5940  135.6770 C   0  0  0  0  0  0  0  0  0  0  0  0
  187.3050  174.4890  136.2870 O   0  0  0  0  0  1  0  0  0  0  0  0
  188.5570  175.4440  134.6220 O   0  0  0  0  0  0  0  0  0  0  0  0
  1 16  1  0  0  0  0
  3  4  1  0  0  0  0
  4 21  2  0  0  0  0
  5 25  1  1  0  0  0
  5  6  1  0  0  0  0
  6 18  1  0  0  0  0
  6 28  2  0  0  0  0
  7 24  1  0  0  0  0
  8 12  2  0  0  0  0
  9 26  1  6  0  0  0
 10 17  1  0  0  0  0
 11 13  1  0  0  0  0
 11  3  2  0  0  0  0
 12  2  1  0  0  0  0
 12 13  1  0  0  0  0
 13 22  2  0  0  0  0
 14 23  1  1  0  0  0
 15  9  1  0  0  0  0
 16 19  1  0  0  0  0
 17  7  2  0  0  0  0
 17  8  1  0  0  0  0
 18 15  2  0  0  0  0
 19  7  1  0  0  0  0
 20 10  1  0  0  0  0
 22 14  1  0  0  0  0
 22 21  1  0  0  0  0
 23 28  1  0  0  0  0
 24  2  2  0  0  0  0
 27  2  1  6  0  0  0
 27  5  1  0  0  0  0
 27 14  1  0  0  0  0
 28  9  1  0  0  0  0
 29 30  1  1  0  0  0
 29  1  1  0  0  0  0
 29 20  1  0  0  0  0
 30 31  1  0  0  0  0
 32 30  2  0  0  0  0
M  END
>  <MODEL>
3

>  <REMARK>
 VINA RESULT:      -9.5      3.343      4.555
  Name = 
  1 active torsions:
  status: ('A' for Active; 'I' for Inactive)
    1  A    between atoms: C_29  and  C_30
                            x       y       z     vdW  Elec       q    Type
                         _______ _______ _______ _____ _____    ______ ____

>  <TORSDO>
F 1

$$$$
=
 OpenBabel11122410373D

 32 37  0  0  1  0  0  0  0  0999 V2000
  182.1560  179.3790  139.9180 O   0  0  0  0  0  0  0  0  0  0  0  0
  187.7190  178.2370  140.0750 C   0  0  0  0  0  0  0  0  0  0  0  0
  189.8800  177.4650  144.4370 C   0  0  0  0  0  3  0  0  0  0  0  0
  190.9890  176.8980  143.8080 C   0  0  0  0  0  3  0  0  0  0  0  0
  188.9360  177.7090  137.8930 C   0  0  2  0  0  3  0  0  0  0  0  0
  190.1810  177.0710  137.3360 C   0  0  0  0  0  0  0  0  0  0  0  0
  185.4340  178.9170  139.9130 C   0  0  0  0  0  0  0  0  0  0  0  0
  186.3930  178.4520  142.0820 C   0  0  0  0  0  3  0  0  0  0  0  0
  192.2000  176.0260  137.1590 C   0  0  2  0  0  3  0  0  0  0  0  0
  184.0450  179.0630  141.9680 N   0  0  0  0  0  2  0  0  0  0  0  0
  188.7830  177.8780  143.6790 C   0  0  0  0  0  3  0  0  0  0  0  0
  187.6190  178.1570  141.4760 C   0  0  0  0  0  0  0  0  0  0  0  0
  188.7870  177.7370  142.2820 C   0  0  0  0  0  0  0  0  0  0  0  0
  189.8850  176.9400  140.1480 C   0  0  2  0  0  3  0  0  0  0  0  0
  191.6320  176.1170  135.8030 N   0  0  0  0  0  2  0  0  0  0  0  0
  183.0620  178.6560  139.1240 C   0  0  0  0  0  2  0  0  0  0  0  0
  185.2900  178.8250  141.3130 C   0  0  0  0  0  0  0  0  0  0  0  0
  190.3940  176.7610  135.9770 N   0  0  0  0  0  0  0  0  0  0  0  0
  184.3530  179.4470  139.0190 C   0  0  0  0  0  2  0  0  0  0  0  0
  182.9790  178.0770  141.8750 C   0  0  0  0  0  2  0  0  0  0  0  0
  191.0040  176.7500  142.4190 C   0  0  0  0  0  3  0  0  0  0  0  0
  189.9180  177.1860  141.6410 C   0  0  0  0  0  0  0  0  0  0  0  0
  191.2870  176.8380  139.5350 C   0  0  0  0  0  2  0  0  0  0  0  0
  186.6390  178.6380  139.3480 N   0  0  0  0  0  0  0  0  0  0  0  0
  188.6520  178.9900  137.1250 C   0  0  0  0  0  1  0  0  0  0  0  0
  192.4550  174.2800  137.5930 S   0  0  0  0  0  1  0  0  0  0  0  0
  189.0600  178.0190  139.4050 C   0  0  2  0  0  3  0  0  0  0  0  0
  191.1790  176.6330  138.0580 C   0  0  1  0  0  3  0  0  0  0  0  0
  181.8030  178.6160  141.0550 C   0  0  2  0  0  3  0  0  0  0  0  0
  180.7960  177.5550  140.7380 C   0  0  0  0  0  0  0  0  0  0  0  0
  181.2010  176.3310  140.2180 O   0  0  0  0  0  0  0  0  0  0  0  0
  179.5720  177.7820  140.9190 O   0  0  0  0  0  1  0  0  0  0  0  0
  1 29  1  0  0  0  0
  2 12  1  0  0  0  0
  4  3  1  0  0  0  0
  5 25  1  6  0  0  0
  5 27  1  0  0  0  0
  6  5  1  0  0  0  0
  6 28  1  0  0  0  0
  7 17  2  0  0  0  0
  9 26  1  1  0  0  0
  9 28  1  0  0  0  0
 11  3  2  0  0  0  0
 12  8  2  0  0  0  0
 12 13  1  0  0  0  0
 13 11  1  0  0  0  0
 14 23  1  6  0  0  0
 14 22  1  0  0  0  0
 15 18  1  0  0  0  0
 15  9  1  0  0  0  0
 16  1  1  0  0  0  0
 17 10  1  0  0  0  0
 17  8  1  0  0  0  0
 18  6  2  0  0  0  0
 19 16  1  0  0  0  0
 19  7  1  0  0  0  0
 20 10  1  0  0  0  0
 21  4  2  0  0  0  0
 22 13  2  0  0  0  0
 22 21  1  0  0  0  0
 24  7  1  0  0  0  0
 24  2  2  0  0  0  0
 27  2  1  1  0  0  0
 27 14  1  0  0  0  0
 28 23  1  6  0  0  0
 29 30  1  6  0  0  0
 29 20  1  0  0  0  0
 30 32  1  0  0  0  0
 31 30  2  0  0  0  0
M  END
>  <MODEL>
4

>  <REMARK>
 VINA RESULT:      -9.0      2.731      3.986
  Name = 
  1 active torsions:
  status: ('A' for Active; 'I' for Inactive)
    1  A    between atoms: C_29  and  C_30
                            x       y       z     vdW  Elec       q    Type
                         _______ _______ _______ _____ _____    ______ ____

>  <TORSDO>
F 1

$$$$
=
 OpenBabel11122410373D

 32 37  0  0  1  0  0  0  0  0999 V2000
  191.2300  177.2020  145.5520 O   0  0  0  0  0  0  0  0  0  0  0  0
  187.3840  178.4300  141.5550 C   0  0  0  0  0  0  0  0  0  0  0  0
  188.7590  178.4000  136.8230 C   0  0  0  0  0  3  0  0  0  0  0  0
  187.4250  178.3680  136.4160 C   0  0  0  0  0  3  0  0  0  0  0  0
  184.9180  178.5530  142.2080 C   0  0  2  0  0  3  0  0  0  0  0  0
  183.5230  178.5080  141.6430 C   0  0  0  0  0  0  0  0  0  0  0  0
  188.9650  178.1230  143.3200 C   0  0  0  0  0  0  0  0  0  0  0  0
  189.6980  177.9860  141.0210 C   0  0  0  0  0  3  0  0  0  0  0  0
  181.7600  178.3900  140.2020 C   0  0  2  0  0  3  0  0  0  0  0  0
  191.3300  177.5880  142.7750 N   0  0  0  0  0  2  0  0  0  0  0  0
  189.0760  178.3630  138.1820 C   0  0  0  0  0  3  0  0  0  0  0  0
  188.3920  178.2480  140.5910 C   0  0  0  0  0  0  0  0  0  0  0  0
  188.0610  178.3040  139.1490 C   0  0  0  0  0  0  0  0  0  0  0  0
  185.6170  178.1310  139.7760 C   0  0  2  0  0  3  0  0  0  0  0  0
  181.2170  178.3060  141.5690 N   0  0  0  0  0  0  0  0  0  0  0  0
  189.8620  176.9520  145.3560 C   0  0  0  0  0  2  0  0  0  0  0  0
  189.9970  177.9130  142.3820 C   0  0  0  0  0  0  0  0  0  0  0  0
  182.3440  178.3780  142.4060 N   0  0  0  0  0  0  0  0  0  0  0  0
  189.2150  178.2060  144.7970 C   0  0  0  0  0  2  0  0  0  0  0  0
  191.6300  176.2580  143.2830 C   0  0  0  0  0  2  0  0  0  0  0  0
  186.4060  178.3050  137.3690 C   0  0  0  0  0  3  0  0  0  0  0  0
  186.7090  178.2960  138.7410 C   0  0  0  0  0  0  0  0  0  0  0  0
  184.2560  178.6420  139.2850 C   0  0  0  0  0  2  0  0  0  0  0  0
  187.7080  178.3890  142.8780 N   0  0  0  0  0  0  0  0  0  0  0  0
  184.9880  179.6410  143.2670 C   0  0  0  0  0  1  0  0  0  0  0  0
  181.3270  176.8830  139.2850 S   0  0  0  0  0  1  0  0  0  0  0  0
  185.9860  178.8120  141.1160 C   0  0  2  0  0  3  0  0  0  0  0  0
  183.2370  178.4820  140.3670 C   0  0  0  0  0  0  0  0  0  0  0  0
  191.9960  176.3070  144.7700 C   0  0  2  0  0  3  0  0  0  0  0  0
  192.0790  174.9440  145.3810 C   0  0  0  0  0  0  0  0  0  0  0  0
  191.9690  174.7800  146.7570 O   0  0  0  0  0  1  0  0  0  0  0  0
  192.2770  173.9420  144.6470 O   0  0  0  0  0  0  0  0  0  0  0  0
  2 24  1  0  0  0  0
  3 11  1  0  0  0  0
  4  3  2  0  0  0  0
  4 21  1  0  0  0  0
  5 25  1  1  0  0  0
  6  5  1  0  0  0  0
  6 18  1  0  0  0  0
  7 19  1  0  0  0  0
  8 17  2  0  0  0  0
  9 26  1  6  0  0  0
  9 28  1  0  0  0  0
  9 15  1  0  0  0  0
 10 20  1  0  0  0  0
 11 13  2  0  0  0  0
 12  8  1  0  0  0  0
 12  2  2  0  0  0  0
 13 12  1  0  0  0  0
 14 23  1  6  0  0  0
 14 27  1  0  0  0  0
 15 18  2  0  0  0  0
 16  1  1  0  0  0  0
 17 10  1  0  0  0  0
 17  7  1  0  0  0  0
 19 16  1  0  0  0  0
 20 29  1  0  0  0  0
 21 22  2  0  0  0  0
 22 13  1  0  0  0  0
 22 14  1  0  0  0  0
 23 28  1  0  0  0  0
 24  7  2  0  0  0  0
 27  2  1  1  0  0  0
 27  5  1  0  0  0  0
 28  6  2  0  0  0  0
 29 30  1  1  0  0  0
 29  1  1  0  0  0  0
 30 31  1  0  0  0  0
 32 30  2  0  0  0  0
M  END
>  <MODEL>
5

>  <REMARK>
 VINA RESULT:      -7.8      4.756      8.797
  Name = 
  1 active torsions:
  status: ('A' for Active; 'I' for Inactive)
    1  A    between atoms: C_29  and  C_30
                            x       y       z     vdW  Elec       q    Type
                         _______ _______ _______ _____ _____    ______ ____

>  <TORSDO>
F 1

$$$$
=
 OpenBabel11122410373D

 32 37  0  0  1  0  0  0  0  0999 V2000
  191.0100  173.4520  135.0440 O   0  0  0  0  0  0  0  0  0  0  0  0
  189.3810  176.9160  139.2410 C   0  0  0  0  0  0  0  0  0  0  0  0
  184.8870  178.9340  139.0690 C   0  0  0  0  0  3  0  0  0  0  0  0
  184.9690  179.2750  140.4190 C   0  0  0  0  0  3  0  0  0  0  0  0
  190.8000  177.0450  141.3610 C   0  0  2  0  0  3  0  0  0  0  0  0
  190.7620  177.4580  142.8080 C   0  0  0  0  0  0  0  0  0  0  0  0
  190.2350  175.6070  137.4340 C   0  0  0  0  0  0  0  0  0  0  0  0
  187.9810  176.4720  137.3230 C   0  0  0  0  0  3  0  0  0  0  0  0
  190.0700  178.2680  144.8230 C   0  0  2  0  0  3  0  0  0  0  0  0
  188.7720  175.0820  135.4950 N   0  0  0  0  0  2  0  0  0  0  0  0
  185.9240  178.2200  138.4650 C   0  0  0  0  0  3  0  0  0  0  0  0
  188.1530  177.0770  138.5730 C   0  0  0  0  0  0  0  0  0  0  0  0
  187.0590  177.8490  139.2040 C   0  0  0  0  0  0  0  0  0  0  0  0
  188.3280  177.7280  141.3880 C   0  0  2  0  0  3  0  0  0  0  0  0
  191.3780  177.6240  145.0340 N   0  0  0  0  0  0  0  0  0  0  0  0
  191.1930  173.5080  136.4360 C   0  0  0  0  0  2  0  0  0  0  0  0
  189.0100  175.7270  136.7460 C   0  0  0  0  0  0  0  0  0  0  0  0
  191.7470  177.1420  143.7660 N   0  0  0  0  0  0  0  0  0  0  0  0
  191.4430  174.9510  136.8330 C   0  0  0  0  0  2  0  0  0  0  0  0
  188.5610  173.6420  135.4540 C   0  0  0  0  0  2  0  0  0  0  0  0
  186.0900  178.9080  141.1650 C   0  0  0  0  0  3  0  0  0  0  0  0
  187.1540  178.2140  140.5650 C   0  0  0  0  0  0  0  0  0  0  0  0
  188.5680  178.5860  142.6370 C   0  0  0  0  0  2  0  0  0  0  0  0
  190.3830  176.2140  138.6410 N   0  0  0  0  0  0  0  0  0  0  0  0
  192.1230  177.4860  140.7560 C   0  0  0  0  0  1  0  0  0  0  0  0
  188.8160  177.4430  145.8470 S   0  0  0  0  0  1  0  0  0  0  0  0
  189.6250  177.6420  140.5470 C   0  0  2  0  0  3  0  0  0  0  0  0
  189.7600  178.0730  143.3800 C   0  0  0  0  0  0  0  0  0  0  0  0
  189.7260  172.9370  134.7510 C   0  0  2  0  0  3  0  0  0  0  0  0
  189.6610  171.4490  134.8970 C   0  0  0  0  0  0  0  0  0  0  0  0
  190.7730  170.6640  134.6140 O   0  0  0  0  0  0  0  0  0  0  0  0
  188.5860  170.9030  135.2540 O   0  0  0  0  0  1  0  0  0  0  0  0
  1 16  1  0  0  0  0
  3  4  1  0  0  0  0
  4 21  2  0  0  0  0
  5 25  1  6  0  0  0
  5  6  1  0  0  0  0
  6 28  2  0  0  0  0
  6 18  1  0  0  0  0
  7 24  2  0  0  0  0
  8 12  1  0  0  0  0
  9 15  1  0  0  0  0
  9 26  1  1  0  0  0
 10 17  1  0  0  0  0
 11  3  2  0  0  0  0
 11 13  1  0  0  0  0
 12 13  1  0  0  0  0
 12  2  2  0  0  0  0
 13 22  2  0  0  0  0
 14 23  1  1  0  0  0
 16 19  1  0  0  0  0
 17  8  2  0  0  0  0
 17  7  1  0  0  0  0
 18 15  2  0  0  0  0
 19  7  1  0  0  0  0
 20 10  1  0  0  0  0
 22 21  1  0  0  0  0
 22 14  1  0  0  0  0
 23 28  1  0  0  0  0
 24  2  1  0  0  0  0
 27  2  1  6  0  0  0
 27  5  1  0  0  0  0
 27 14  1  0  0  0  0
 28  9  1  0  0  0  0
 29 30  1  1  0  0  0
 29  1  1  0  0  0  0
 29 20  1  0  0  0  0
 30 32  1  0  0  0  0
 31 30  2  0  0  0  0
M  END
>  <MODEL>
6

>  <REMARK>
 VINA RESULT:      -7.8      4.983      6.702
  Name = 
  1 active torsions:
  status: ('A' for Active; 'I' for Inactive)
    1  A    between atoms: C_29  and  C_30
                            x       y       z     vdW  Elec       q    Type
                         _______ _______ _______ _____ _____    ______ ____

>  <TORSDO>
F 1

$$$$
=
 OpenBabel11122410373D

 32 37  0  0  1  0  0  0  0  0999 V2000
  189.8660  178.5290  144.5070 O   0  0  0  0  0  0  0  0  0  0  0  0
  189.6720  176.9710  139.0480 C   0  0  0  0  0  0  0  0  0  0  0  0
  193.8560  175.7080  136.7710 C   0  0  0  0  0  3  0  0  0  0  0  0
  193.1350  175.1110  135.7360 C   0  0  0  0  0  3  0  0  0  0  0  0
  187.4010  176.5240  137.9680 C   0  0  2  0  0  3  0  0  0  0  0  0
  186.7400  175.8400  136.8010 C   0  0  0  0  0  0  0  0  0  0  0  0
  189.6700  177.8280  141.2780 C   0  0  0  0  0  0  0  0  0  0  0  0
  191.7510  177.1280  140.2680 C   0  0  0  0  0  3  0  0  0  0  0  0
  186.3900  174.6660  134.8790 C   0  0  2  0  0  3  0  0  0  0  0  0
  191.7950  177.9180  142.5640 N   0  0  0  0  0  2  0  0  0  0  0  0
  193.1850  176.2570  137.8640 C   0  0  0  0  0  3  0  0  0  0  0  0
  191.0670  176.7900  139.0950 C   0  0  0  0  0  0  0  0  0  0  0  0
  191.7830  176.2240  137.9290 C   0  0  0  0  0  0  0  0  0  0  0  0
  189.5460  175.5160  136.9870 C   0  0  2  0  0  3  0  0  0  0  0  0
  185.0730  174.9030  135.4950 N   0  0  0  0  0  0  0  0  0  0  0  0
  188.9790  177.8040  143.6940 C   0  0  0  0  0  2  0  0  0  0  0  0
  191.0650  177.6400  141.3690 C   0  0  0  0  0  0  0  0  0  0  0  0
  185.3530  175.6210  136.6700 N   0  0  0  0  0  0  0  0  0  0  0  0
  188.8700  178.5040  142.3520 C   0  0  0  0  0  2  0  0  0  0  0  0
  191.6800  177.0230  143.7060 C   0  0  0  0  0  2  0  0  0  0  0  0
  191.7400  175.0690  135.7920 C   0  0  0  0  0  3  0  0  0  0  0  0
  191.0490  175.6420  136.8720 C   0  0  0  0  0  0  0  0  0  0  0  0
  188.8600  175.3580  135.6240 C   0  0  0  0  0  2  0  0  0  0  0  0
  189.0290  177.5050  140.1240 N   0  0  0  0  0  0  0  0  0  0  0  0
  186.7440  177.8780  138.1850 C   0  0  0  0  0  1  0  0  0  0  0  0
  186.6820  172.8780  134.7410 S   0  0  0  0  0  1  0  0  0  0  0  0
  188.9240  176.7060  137.7580 C   0  0  2  0  0  3  0  0  0  0  0  0
  187.3790  175.2750  135.8100 C   0  0  0  0  0  0  0  0  0  0  0  0
  190.9600  177.7090  144.8710 C   0  0  2  0  0  3  0  0  0  0  0  0
  190.6140  176.7530  145.9690 C   0  0  0  0  0  0  0  0  0  0  0  0
  189.3420  176.7530  146.5300 O   0  0  0  0  0  1  0  0  0  0  0  0
  191.4890  175.9620  146.4060 O   0  0  0  0  0  0  0  0  0  0  0  0
  1 29  1  0  0  0  0
  2 12  2  0  0  0  0
  2 24  1  0  0  0  0
  3 11  1  0  0  0  0
  4 21  1  0  0  0  0
  4  3  2  0  0  0  0
  5 25  1  6  0  0  0
  6  5  1  0  0  0  0
  7 17  1  0  0  0  0
  7 19  1  0  0  0  0
  8 17  2  0  0  0  0
  9 26  1  1  0  0  0
  9 15  1  0  0  0  0
  9 28  1  0  0  0  0
 10 20  1  0  0  0  0
 11 13  2  0  0  0  0
 12  8  1  0  0  0  0
 13 12  1  0  0  0  0
 14 23  1  6  0  0  0
 14 27  1  0  0  0  0
 15 18  2  0  0  0  0
 16  1  1  0  0  0  0
 17 10  1  0  0  0  0
 18  6  1  0  0  0  0
 19 16  1  0  0  0  0
 20 29  1  0  0  0  0
 21 22  2  0  0  0  0
 22 14  1  0  0  0  0
 22 13  1  0  0  0  0
 23 28  1  0  0  0  0
 24  7  2  0  0  0  0
 27  5  1  0  0  0  0
 27  2  1  1  0  0  0
 28  6  2  0  0  0  0
 29 30  1  1  0  0  0
 30 32  2  0  0  0  0
 30 31  1  0  0  0  0
M  END
>  <MODEL>
7

>  <REMARK>
 VINA RESULT:      -7.6      5.593      9.318
  Name = 
  1 active torsions:
  status: ('A' for Active; 'I' for Inactive)
    1  A    between atoms: C_29  and  C_30
                            x       y       z     vdW  Elec       q    Type
                         _______ _______ _______ _____ _____    ______ ____

>  <TORSDO>
F 1

$$$$
=
 OpenBabel11122410373D

 32 37  0  0  1  0  0  0  0  0999 V2000
  194.8290  173.6560  135.9730 O   0  0  0  0  0  0  0  0  0  0  0  0
  190.8590  176.7410  138.6180 C   0  0  0  0  0  0  0  0  0  0  0  0
  186.8010  178.0450  136.1450 C   0  0  0  0  0  3  0  0  0  0  0  0
  186.1550  178.3670  137.3380 C   0  0  0  0  0  3  0  0  0  0  0  0
  191.0110  177.0440  141.1500 C   0  0  2  0  0  3  0  0  0  0  0  0
  190.2030  177.4160  142.3650 C   0  0  0  0  0  0  0  0  0  0  0  0
  192.6730  175.6170  137.5440 C   0  0  0  0  0  0  0  0  0  0  0  0
  190.6710  176.1260  136.2900 C   0  0  0  0  0  3  0  0  0  0  0  0
  188.4980  178.0690  143.7300 C   0  0  2  0  0  3  0  0  0  0  0  0
  192.4520  174.9120  135.1710 N   0  0  0  0  0  2  0  0  0  0  0  0
  188.0910  177.5130  136.1710 C   0  0  0  0  0  3  0  0  0  0  0  0
  190.1130  176.7250  137.4250 C   0  0  0  0  0  0  0  0  0  0  0  0
  188.7520  177.3050  137.3920 C   0  0  0  0  0  0  0  0  0  0  0  0
  188.7790  177.3370  139.9200 C   0  0  2  0  0  3  0  0  0  0  0  0
  189.6080  177.6300  144.5930 N   0  0  0  0  0  0  0  0  0  0  0  0
  194.2900  173.7120  137.2690 C   0  0  0  0  0  2  0  0  0  0  0  0
  191.9450  175.5610  136.3370 C   0  0  0  0  0  0  0  0  0  0  0  0
  190.6200  177.2370  143.7000 N   0  0  0  0  0  0  0  0  0  0  0  0
  194.1000  175.1670  137.6530 C   0  0  0  0  0  2  0  0  0  0  0  0
  192.4990  173.4590  135.1160 C   0  0  0  0  0  2  0  0  0  0  0  0
  186.8010  178.1620  138.5590 C   0  0  0  0  0  3  0  0  0  0  0  0
  188.1090  177.6530  138.6000 C   0  0  0  0  0  0  0  0  0  0  0  0
  188.2450  178.1960  141.0740 C   0  0  0  0  0  2  0  0  0  0  0  0
  192.1160  176.2150  138.6300 N   0  0  0  0  0  0  0  0  0  0  0  0
  192.3800  177.6960  141.2480 C   0  0  0  0  0  1  0  0  0  0  0  0
  187.0360  177.0390  144.0530 S   0  0  0  0  0  1  0  0  0  0  0  0
  190.3190  177.4700  139.8310 C   0  0  2  0  0  3  0  0  0  0  0  0
  188.9730  177.8580  142.3340 C   0  0  0  0  0  0  0  0  0  0  0  0
  193.9460  172.9560  135.1180 C   0  0  2  0  0  3  0  0  0  0  0  0
  194.0330  171.4730  135.3000 C   0  0  0  0  0  0  0  0  0  0  0  0
  195.2650  170.8300  135.2700 O   0  0  0  0  0  0  0  0  0  0  0  0
  192.9810  170.8000  135.4560 O   0  0  0  0  0  1  0  0  0  0  0  0
  1 16  1  0  0  0  0
  2 24  1  0  0  0  0
  3 11  2  0  0  0  0
  3  4  1  0  0  0  0
  4 21  2  0  0  0  0
  5 25  1  1  0  0  0
  5  6  1  0  0  0  0
  6 18  1  0  0  0  0
  7 19  1  0  0  0  0
  7 24  2  0  0  0  0
  8 17  2  0  0  0  0
  8 12  1  0  0  0  0
  9 26  1  1  0  0  0
  9 15  1  0  0  0  0
 10 17  1  0  0  0  0
 11 13  1  0  0  0  0
 12  2  2  0  0  0  0
 13 12  1  0  0  0  0
 13 22  2  0  0  0  0
 14 23  1  1  0  0  0
 16 19  1  0  0  0  0
 17  7  1  0  0  0  0
 18 15  2  0  0  0  0
 20 29  1  0  0  0  0
 20 10  1  0  0  0  0
 21 22  1  0  0  0  0
 22 14  1  0  0  0  0
 23 28  1  0  0  0  0
 27  2  1  6  0  0  0
 27 14  1  0  0  0  0
 27  5  1  0  0  0  0
 28  6  2  0  0  0  0
 28  9  1  0  0  0  0
 29 30  1  1  0  0  0
 29  1  1  0  0  0  0
 30 32  1  0  0  0  0
 31 30  2  0  0  0  0
M  END
>  <MODEL>
8

>  <REMARK>
 VINA RESULT:      -7.4      6.201      9.012
  Name = 
  1 active torsions:
  status: ('A' for Active; 'I' for Inactive)
    1  A    between atoms: C_29  and  C_30
                            x       y       z     vdW  Elec       q    Type
                         _______ _______ _______ _____ _____    ______ ____

>  <TORSDO>
F 1

$$$$
=
 OpenBabel11122410373D

 32 37  0  0  1  0  0  0  0  0999 V2000
  189.6610  178.7100  142.8170 O   0  0  0  0  0  0  0  0  0  0  0  0
  189.8650  175.6710  138.0220 C   0  0  0  0  0  0  0  0  0  0  0  0
  194.2450  174.2020  136.3040 C   0  0  0  0  0  3  0  0  0  0  0  0
  193.6250  173.2770  135.4640 C   0  0  0  0  0  3  0  0  0  0  0  0
  187.6930  174.7350  137.0560 C   0  0  2  0  0  3  0  0  0  0  0  0
  187.1470  173.6950  136.1150 C   0  0  0  0  0  0  0  0  0  0  0  0
  189.6830  177.1160  139.9160 C   0  0  0  0  0  0  0  0  0  0  0  0
  191.8610  176.3510  139.1990 C   0  0  0  0  0  3  0  0  0  0  0  0
  186.9880  172.0020  134.5970 C   0  0  2  0  0  3  0  0  0  0  0  0
  191.7270  177.7550  141.1770 N   0  0  0  0  0  2  0  0  0  0  0  0
  193.4780  174.9740  137.1790 C   0  0  0  0  0  3  0  0  0  0  0  0
  191.2650  175.6370  138.1530 C   0  0  0  0  0  0  0  0  0  0  0  0
  192.0810  174.8340  137.2150 C   0  0  0  0  0  0  0  0  0  0  0  0
  189.9570  173.6900  136.4570 C   0  0  2  0  0  3  0  0  0  0  0  0
  185.6270  172.2820  135.0860 N   0  0  0  0  0  0  0  0  0  0  0  0
  188.8760  177.7090  142.2210 C   0  0  0  0  0  2  0  0  0  0  0  0
  191.0820  177.0870  140.0920 C   0  0  0  0  0  0  0  0  0  0  0  0
  185.7910  173.3230  136.0170 N   0  0  0  0  0  0  0  0  0  0  0  0
  188.7790  177.9900  140.7330 C   0  0  0  0  0  2  0  0  0  0  0  0
  191.6270  177.2090  142.5230 C   0  0  0  0  0  2  0  0  0  0  0  0
  192.2370  173.1260  135.4940 C   0  0  0  0  0  3  0  0  0  0  0  0
  191.4500  173.9150  136.3490 C   0  0  0  0  0  0  0  0  0  0  0  0
  189.3550  173.0950  135.1780 C   0  0  0  0  0  2  0  0  0  0  0  0
  189.1280  176.4250  138.8850 N   0  0  0  0  0  0  0  0  0  0  0  0
  186.9210  176.0310  136.8630 C   0  0  0  0  0  1  0  0  0  0  0  0
  187.4280  170.2800  134.9800 S   0  0  0  0  0  1  0  0  0  0  0  0
  189.2050  174.9880  136.8410 C   0  0  2  0  0  3  0  0  0  0  0  0
  187.8780  172.9350  135.3420 C   0  0  0  0  0  0  0  0  0  0  0  0
  190.7970  178.1270  143.4260 C   0  0  2  0  0  3  0  0  0  0  0  0
  190.4740  177.4910  144.7410 C   0  0  0  0  0  0  0  0  0  0  0  0
  189.5800  178.0960  145.6170 O   0  0  0  0  0  1  0  0  0  0  0  0
  191.0360  176.4140  145.0680 O   0  0  0  0  0  0  0  0  0  0  0  0
  1 29  1  0  0  0  0
  2 12  2  0  0  0  0
  2 24  1  0  0  0  0
  3 11  1  0  0  0  0
  4 21  1  0  0  0  0
  4  3  2  0  0  0  0
  5 25  1  6  0  0  0
  6  5  1  0  0  0  0
  7 17  1  0  0  0  0
  7 19  1  0  0  0  0
  8 17  2  0  0  0  0
  9 26  1  1  0  0  0
  9 15  1  0  0  0  0
  9 28  1  0  0  0  0
 10 20  1  0  0  0  0
 11 13  2  0  0  0  0
 12  8  1  0  0  0  0
 13 12  1  0  0  0  0
 14 23  1  6  0  0  0
 14 27  1  0  0  0  0
 15 18  2  0  0  0  0
 16  1  1  0  0  0  0
 17 10  1  0  0  0  0
 18  6  1  0  0  0  0
 19 16  1  0  0  0  0
 20 29  1  0  0  0  0
 21 22  2  0  0  0  0
 22 14  1  0  0  0  0
 22 13  1  0  0  0  0
 23 28  1  0  0  0  0
 24  7  2  0  0  0  0
 27  5  1  0  0  0  0
 27  2  1  1  0  0  0
 28  6  2  0  0  0  0
 29 30  1  1  0  0  0
 30 32  2  0  0  0  0
 30 31  1  0  0  0  0
M  END
>  <MODEL>
9

>  <REMARK>
 VINA RESULT:      -7.0      6.321      9.727
  Name = 
  1 active torsions:
  status: ('A' for Active; 'I' for Inactive)
    1  A    between atoms: C_29  and  C_30
                            x       y       z     vdW  Elec       q    Type
                         _______ _______ _______ _____ _____    ______ ____

>  <TORSDO>
F 1

$$$$
