=
 OpenBabel11122410233D

 30 35  0  0  1  0  0  0  0  0999 V2000
  189.3450  177.4410  143.5170 C   0  0  1  0  0  3  0  0  0  0  0  0
  191.2760  176.3650  144.7920 C   0  0  0  0  0  0  0  0  0  0  0  0
  187.1680  177.8570  147.2440 C   0  0  0  0  0  2  0  0  0  0  0  0
  188.1400  178.3910  143.6730 C   0  0  1  0  0  3  0  0  0  0  0  0
  190.2180  177.9660  142.5450 O   0  0  0  0  0  0  0  0  0  0  0  0
  187.7050  178.5480  140.0580 O   0  0  0  0  0  0  0  0  0  0  0  0
  185.0180  177.9610  142.8560 C   0  0  1  0  0  3  0  0  0  0  0  0
  188.2060  178.2920  141.1860 C   0  0  0  0  0  0  0  0  0  0  0  0
  184.8510  177.9840  144.3830 C   0  0  2  0  0  3  0  0  0  0  0  0
  185.9120  178.3770  146.6380 C   0  0  0  0  0  0  0  0  0  0  0  0
  189.6270  177.7830  141.2670 C   0  0  2  0  0  3  0  0  0  0  0  0
  187.4230  178.4410  142.3870 N   0  0  0  0  0  0  0  0  0  0  0  0
  191.8650  175.9390  145.9860 C   0  0  0  0  0  3  0  0  0  0  0  0
  183.5490  178.7160  144.6330 C   0  0  0  0  0  2  0  0  0  0  0  0
  183.6440  178.2380  142.2670 C   0  0  0  0  0  2  0  0  0  0  0  0
  191.9140  176.0770  143.5920 O   0  0  0  0  0  1  0  0  0  0  0  0
  188.1350  178.0660  146.0960 C   0  0  2  0  0  3  0  0  0  0  0  0
  191.2410  176.1850  147.2100 C   0  0  0  0  0  3  0  0  0  0  0  0
  190.0510  177.0640  144.8150 C   0  0  0  0  0  0  0  0  0  0  0  0
  187.3080  177.8790  144.8420 C   0  0  1  0  0  3  0  0  0  0  0  0
  184.9200  178.6370  147.2980 O   0  0  0  0  0  0  0  0  0  0  0  0
  186.0150  178.6090  145.1580 C   0  0  1  0  0  3  0  0  0  0  0  0
  182.6880  178.3950  143.4340 C   0  0  0  0  0  2  0  0  0  0  0  0
  185.9100  180.3880  142.6930 C   0  0  0  0  0  1  0  0  0  0  0  0
  190.0150  176.8480  147.2460 C   0  0  0  0  0  3  0  0  0  0  0  0
  189.3980  177.2580  146.0580 C   0  0  0  0  0  0  0  0  0  0  0  0
  186.0490  178.9330  142.2560 C   0  0  2  0  0  3  0  0  0  0  0  0
  189.7200  176.3330  140.8000 C   0  0  0  0  0  2  0  0  0  0  0  0
  190.1030  176.3260  138.6290 C   0  0  0  0  0  1  0  0  0  0  0  0
  190.7440  176.2030  139.8620 O   0  0  0  0  0  0  0  0  0  0  0  0
  1  5  1  6  0  0  0
  1  4  1  0  0  0  0
  1 19  1  0  0  0  0
  2 19  2  0  0  0  0
  2 13  1  0  0  0  0
  4 12  1  6  0  0  0
  4 20  1  0  0  0  0
  6  8  2  0  0  0  0
  7 15  1  6  0  0  0
  7  9  1  0  0  0  0
  8 11  1  0  0  0  0
  8 12  1  0  0  0  0
  9 14  1  6  0  0  0
  9 22  1  0  0  0  0
 10  3  1  0  0  0  0
 10 21  2  0  0  0  0
 11 28  1  1  0  0  0
 11  5  1  0  0  0  0
 13 18  2  0  0  0  0
 15 23  1  0  0  0  0
 16  2  1  0  0  0  0
 17  3  1  1  0  0  0
 18 25  1  0  0  0  0
 19 26  1  0  0  0  0
 20 22  1  0  0  0  0
 20 17  1  0  0  0  0
 22 10  1  0  0  0  0
 23 14  1  0  0  0  0
 26 17  1  0  0  0  0
 26 25  2  0  0  0  0
 27 12  1  0  0  0  0
 27 24  1  0  0  0  0
 27  7  1  0  0  0  0
 29 30  1  0  0  0  0
 30 28  1  0  0  0  0
M  END
>  <MODEL>
1

>  <REMARK>
 VINA RESULT:      -9.3      0.000      0.000
  Name = 
  2 active torsions:
  status: ('A' for Active; 'I' for Inactive)
    1  A    between atoms: C_11  and  C_28
    2  A    between atoms: C_28  and  O_30
                            x       y       z     vdW  Elec       q    Type
                         _______ _______ _______ _____ _____    ______ ____

>  <TORSDO>
F 2

$$$$
=
 OpenBabel11122410233D

 30 35  0  0  1  0  0  0  0  0999 V2000
  186.9090  178.1960  142.2280 C   0  0  1  0  0  3  0  0  0  0  0  0
  187.9610  177.8200  144.5230 C   0  0  0  0  0  0  0  0  0  0  0  0
  183.0250  178.5820  144.1170 C   0  0  0  0  0  2  0  0  0  0  0  0
  185.6990  178.8330  141.5150 C   0  0  1  0  0  3  0  0  0  0  0  0
  188.0910  178.7790  141.7310 O   0  0  0  0  0  0  0  0  0  0  0  0
  187.2810  178.3690  138.2650 O   0  0  0  0  0  0  0  0  0  0  0  0
  183.6130  177.5360  139.3790 C   0  0  1  0  0  3  0  0  0  0  0  0
  187.1180  178.4050  139.5140 C   0  0  0  0  0  0  0  0  0  0  0  0
  182.6410  177.7310  140.5530 C   0  0  2  0  0  3  0  0  0  0  0  0
  182.2440  178.6860  142.8540 C   0  0  0  0  0  0  0  0  0  0  0  0
  188.3200  178.2780  140.4220 C   0  0  2  0  0  3  0  0  0  0  0  0
  185.7970  178.5240  140.0780 N   0  0  0  0  0  0  0  0  0  0  0  0
  187.8580  177.7240  145.9140 C   0  0  0  0  0  3  0  0  0  0  0  0
  181.3290  178.1470  139.9230 C   0  0  0  0  0  2  0  0  0  0  0  0
  182.7560  177.3800  138.1320 C   0  0  0  0  0  2  0  0  0  0  0  0
  189.1800  177.5330  143.9220 O   0  0  0  0  0  1  0  0  0  0  0  0
  184.4220  178.8600  143.6000 C   0  0  2  0  0  3  0  0  0  0  0  0
  186.6430  177.9780  146.5520 C   0  0  0  0  0  3  0  0  0  0  0  0
  186.8410  178.1910  143.7520 C   0  0  0  0  0  0  0  0  0  0  0  0
  184.4430  178.3000  142.1930 C   0  0  1  0  0  3  0  0  0  0  0  0
  181.0280  178.7830  142.8380 O   0  0  0  0  0  0  0  0  0  0  0  0
  183.1020  178.7260  141.6230 C   0  0  1  0  0  3  0  0  0  0  0  0
  181.3090  177.4590  138.5780 C   0  0  0  0  0  2  0  0  0  0  0  0
  184.1160  180.0600  139.0850 C   0  0  0  0  0  1  0  0  0  0  0  0
  185.5180  178.3160  145.8000 C   0  0  0  0  0  3  0  0  0  0  0  0
  185.5980  178.3910  144.4050 C   0  0  0  0  0  0  0  0  0  0  0  0
  184.6630  178.6380  139.1570 C   0  0  2  0  0  3  0  0  0  0  0  0
  188.8440  176.8460  140.4450 C   0  0  0  0  0  2  0  0  0  0  0  0
  190.8710  177.1710  139.6410 C   0  0  0  0  0  1  0  0  0  0  0  0
  190.1900  176.8400  140.8120 O   0  0  0  0  0  0  0  0  0  0  0  0
  1  5  1  1  0  0  0
  1 19  1  0  0  0  0
  2 13  1  0  0  0  0
  4 12  1  6  0  0  0
  4 20  1  0  0  0  0
  4  1  1  0  0  0  0
  6  8  2  0  0  0  0
  7 15  1  6  0  0  0
  7  9  1  0  0  0  0
  8 12  1  0  0  0  0
  8 11  1  0  0  0  0
  9 14  1  6  0  0  0
  9 22  1  0  0  0  0
 10  3  1  0  0  0  0
 11 28  1  1  0  0  0
 11  5  1  0  0  0  0
 13 18  2  0  0  0  0
 15 23  1  0  0  0  0
 16  2  1  0  0  0  0
 17  3  1  1  0  0  0
 17 26  1  0  0  0  0
 19 26  1  0  0  0  0
 19  2  2  0  0  0  0
 20 17  1  0  0  0  0
 21 10  2  0  0  0  0
 22 20  1  0  0  0  0
 22 10  1  0  0  0  0
 23 14  1  0  0  0  0
 24 27  1  0  0  0  0
 25 18  1  0  0  0  0
 26 25  2  0  0  0  0
 27  7  1  0  0  0  0
 27 12  1  0  0  0  0
 28 30  1  0  0  0  0
 29 30  1  0  0  0  0
M  END
>  <MODEL>
2

>  <REMARK>
 VINA RESULT:      -9.3      2.308      3.882
  Name = 
  2 active torsions:
  status: ('A' for Active; 'I' for Inactive)
    1  A    between atoms: C_11  and  C_28
    2  A    between atoms: C_28  and  O_30
                            x       y       z     vdW  Elec       q    Type
                         _______ _______ _______ _____ _____    ______ ____

>  <TORSDO>
F 2

$$$$
=
 OpenBabel11122410233D

 30 35  0  0  1  0  0  0  0  0999 V2000
  187.2460  178.1360  140.5240 C   0  0  1  0  0  3  0  0  0  0  0  0
  184.9910  178.9980  139.6950 C   0  0  0  0  0  0  0  0  0  0  0  0
  185.6550  177.9690  144.5540 C   0  0  0  0  0  2  0  0  0  0  0  0
  187.9180  177.3220  141.6480 C   0  0  1  0  0  3  0  0  0  0  0  0
  187.5150  177.5160  139.2880 O   0  0  0  0  0  0  0  0  0  0  0  0
  191.0490  177.2040  139.7870 O   0  0  0  0  0  0  0  0  0  0  0  0
  190.4390  178.0880  143.5610 C   0  0  1  0  0  3  0  0  0  0  0  0
  189.8360  177.4070  140.0630 C   0  0  0  0  0  0  0  0  0  0  0  0
  189.3360  178.0880  144.6310 C   0  0  2  0  0  3  0  0  0  0  0  0
  186.9330  177.5880  145.2140 C   0  0  0  0  0  0  0  0  0  0  0  0
  188.8730  177.7590  138.9520 C   0  0  2  0  0  3  0  0  0  0  0  0
  189.3740  177.3480  141.4270 N   0  0  0  0  0  0  0  0  0  0  0  0
  183.6610  179.3610  139.9270 C   0  0  0  0  0  3  0  0  0  0  0  0
  189.9800  177.5030  145.8700 C   0  0  0  0  0  2  0  0  0  0  0  0
  191.7600  177.9610  144.3030 C   0  0  0  0  0  2  0  0  0  0  0  0
  185.5320  179.2120  138.4330 O   0  0  0  0  0  1  0  0  0  0  0  0
  185.9860  177.6530  143.1100 C   0  0  2  0  0  3  0  0  0  0  0  0
  183.0910  179.1880  141.1880 C   0  0  0  0  0  3  0  0  0  0  0  0
  185.7650  178.4370  140.7310 C   0  0  0  0  0  0  0  0  0  0  0  0
  187.4690  177.9260  142.9730 C   0  0  1  0  0  3  0  0  0  0  0  0
  187.0330  177.4390  146.4210 O   0  0  0  0  0  0  0  0  0  0  0  0
  188.0550  177.3420  144.2470 C   0  0  1  0  0  3  0  0  0  0  0  0
  191.4320  177.9120  145.7830 C   0  0  0  0  0  2  0  0  0  0  0  0
  190.1810  175.5780  142.9740 C   0  0  0  0  0  1  0  0  0  0  0  0
  183.8530  178.6620  142.2320 C   0  0  0  0  0  3  0  0  0  0  0  0
  185.1930  178.3190  142.0240 C   0  0  0  0  0  0  0  0  0  0  0  0
  190.3470  177.0080  142.4690 C   0  0  2  0  0  3  0  0  0  0  0  0
  189.0910  179.1880  138.4660 C   0  0  0  0  0  2  0  0  0  0  0  0
  189.1490  178.2540  136.4710 C   0  0  0  0  0  1  0  0  0  0  0  0
  188.5980  179.3280  137.1690 O   0  0  0  0  0  0  0  0  0  0  0  0
  1  5  1  6  0  0  0
  1 19  1  0  0  0  0
  1  4  1  0  0  0  0
  2 13  2  0  0  0  0
  2 19  1  0  0  0  0
  3 10  1  0  0  0  0
  4 12  1  6  0  0  0
  4 20  1  0  0  0  0
  6  8  2  0  0  0  0
  7 15  1  1  0  0  0
  7  9  1  0  0  0  0
  8 12  1  0  0  0  0
  9 14  1  1  0  0  0
 10 21  2  0  0  0  0
 11 28  1  1  0  0  0
 11  5  1  0  0  0  0
 11  8  1  0  0  0  0
 12 27  1  0  0  0  0
 13 18  1  0  0  0  0
 15 23  1  0  0  0  0
 16  2  1  0  0  0  0
 17  3  1  1  0  0  0
 18 25  2  0  0  0  0
 19 26  2  0  0  0  0
 20 17  1  0  0  0  0
 20 22  1  0  0  0  0
 22  9  1  0  0  0  0
 22 10  1  0  0  0  0
 23 14  1  0  0  0  0
 26 25  1  0  0  0  0
 26 17  1  0  0  0  0
 27 24  1  0  0  0  0
 27  7  1  0  0  0  0
 29 30  1  0  0  0  0
 30 28  1  0  0  0  0
M  END
>  <MODEL>
3

>  <REMARK>
 VINA RESULT:      -9.1      1.835      5.719
  Name = 
  2 active torsions:
  status: ('A' for Active; 'I' for Inactive)
    1  A    between atoms: C_11  and  C_28
    2  A    between atoms: C_28  and  O_30
                            x       y       z     vdW  Elec       q    Type
                         _______ _______ _______ _____ _____    ______ ____

>  <TORSDO>
F 2

$$$$
=
 OpenBabel11122410233D

 30 35  0  0  1  0  0  0  0  0999 V2000
  188.0940  177.8070  142.4090 C   0  0  1  0  0  3  0  0  0  0  0  0
  186.9690  177.8760  144.6990 C   0  0  0  0  0  0  0  0  0  0  0  0
  184.3260  178.9110  140.5700 C   0  0  0  0  0  2  0  0  0  0  0  0
  188.0020  178.3590  140.9720 C   0  0  1  0  0  3  0  0  0  0  0  0
  189.3390  178.1680  142.9590 O   0  0  0  0  0  0  0  0  0  0  0  0
  191.3120  177.0530  140.1840 O   0  0  0  0  0  0  0  0  0  0  0  0
  187.9830  176.7820  138.1250 C   0  0  1  0  0  3  0  0  0  0  0  0
  190.2890  177.3830  140.8420 C   0  0  0  0  0  0  0  0  0  0  0  0
  186.5410  177.3120  138.0990 C   0  0  2  0  0  3  0  0  0  0  0  0
  184.7940  178.7880  139.1630 C   0  0  0  0  0  0  0  0  0  0  0  0
  190.3440  177.3700  142.3530 C   0  0  2  0  0  3  0  0  0  0  0  0
  189.0620  177.7280  140.1680 N   0  0  0  0  0  0  0  0  0  0  0  0
  185.8500  178.1040  145.5050 C   0  0  0  0  0  3  0  0  0  0  0  0
  186.2740  177.6770  136.6540 C   0  0  0  0  0  2  0  0  0  0  0  0
  188.3350  176.4180  136.6900 C   0  0  0  0  0  2  0  0  0  0  0  0
  188.1220  177.3660  145.2850 O   0  0  0  0  0  1  0  0  0  0  0  0
  185.6540  178.9550  141.2990 C   0  0  2  0  0  3  0  0  0  0  0  0
  184.6660  178.5890  144.9480 C   0  0  0  0  0  3  0  0  0  0  0  0
  186.9180  178.1510  143.3170 C   0  0  0  0  0  0  0  0  0  0  0  0
  186.5870  178.0930  140.4750 C   0  0  1  0  0  3  0  0  0  0  0  0
  184.0600  178.9740  138.2050 O   0  0  0  0  0  0  0  0  0  0  0  0
  186.2590  178.4830  139.0450 C   0  0  1  0  0  3  0  0  0  0  0  0
  187.1070  176.7070  135.8480 C   0  0  0  0  0  2  0  0  0  0  0  0
  189.0820  179.1280  138.1160 C   0  0  0  0  0  1  0  0  0  0  0  0
  184.5890  178.8360  143.5780 C   0  0  0  0  0  3  0  0  0  0  0  0
  185.6930  178.5880  142.7530 C   0  0  0  0  0  0  0  0  0  0  0  0
  189.0570  177.7200  138.7030 C   0  0  2  0  0  3  0  0  0  0  0  0
  190.3390  175.9430  142.8920 C   0  0  0  0  0  2  0  0  0  0  0  0
  191.5070  176.3270  144.7220 C   0  0  0  0  0  1  0  0  0  0  0  0
  191.5630  175.6610  143.4980 O   0  0  0  0  0  0  0  0  0  0  0  0
  1  5  1  1  0  0  0
  1 19  1  0  0  0  0
  2 16  1  0  0  0  0
  2 13  1  0  0  0  0
  4 12  1  6  0  0  0
  4  1  1  0  0  0  0
  6  8  2  0  0  0  0
  7 15  1  6  0  0  0
  7 27  1  0  0  0  0
  8 11  1  0  0  0  0
  9 14  1  6  0  0  0
  9  7  1  0  0  0  0
  9 22  1  0  0  0  0
 10  3  1  0  0  0  0
 11 28  1  1  0  0  0
 11  5  1  0  0  0  0
 12  8  1  0  0  0  0
 17  3  1  6  0  0  0
 17 26  1  0  0  0  0
 18 13  2  0  0  0  0
 19  2  2  0  0  0  0
 20  4  1  0  0  0  0
 20 17  1  0  0  0  0
 21 10  2  0  0  0  0
 22 10  1  0  0  0  0
 22 20  1  0  0  0  0
 23 14  1  0  0  0  0
 23 15  1  0  0  0  0
 24 27  1  0  0  0  0
 25 18  1  0  0  0  0
 26 19  1  0  0  0  0
 26 25  2  0  0  0  0
 27 12  1  0  0  0  0
 28 30  1  0  0  0  0
 30 29  1  0  0  0  0
M  END
>  <MODEL>
4

>  <REMARK>
 VINA RESULT:      -8.9      2.273      5.605
  Name = 
  2 active torsions:
  status: ('A' for Active; 'I' for Inactive)
    1  A    between atoms: C_11  and  C_28
    2  A    between atoms: C_28  and  O_30
                            x       y       z     vdW  Elec       q    Type
                         _______ _______ _______ _____ _____    ______ ____

>  <TORSDO>
F 2

$$$$
=
 OpenBabel11122410233D

 30 35  0  0  1  0  0  0  0  0999 V2000
  186.9540  178.1340  141.1730 C   0  0  1  0  0  3  0  0  0  0  0  0
  188.5660  177.6760  143.0970 C   0  0  0  0  0  0  0  0  0  0  0  0
  183.7190  178.5350  144.0320 C   0  0  0  0  0  2  0  0  0  0  0  0
  185.6140  178.8110  140.8200 C   0  0  1  0  0  3  0  0  0  0  0  0
  187.9760  178.7090  140.3930 O   0  0  0  0  0  0  0  0  0  0  0  0
  186.2670  178.4090  137.2580 O   0  0  0  0  0  0  0  0  0  0  0  0
  183.0060  177.6100  139.2860 C   0  0  1  0  0  3  0  0  0  0  0  0
  186.4410  178.4140  138.5060 C   0  0  0  0  0  0  0  0  0  0  0  0
  182.3850  177.7890  140.6800 C   0  0  2  0  0  3  0  0  0  0  0  0
  182.6340  178.6870  143.0250 C   0  0  0  0  0  0  0  0  0  0  0  0
  187.8380  178.2410  139.0600 C   0  0  2  0  0  3  0  0  0  0  0  0
  185.3200  178.5400  139.4020 N   0  0  0  0  0  0  0  0  0  0  0  0
  188.8330  177.5440  144.4630 C   0  0  0  0  0  3  0  0  0  0  0  0
  180.9630  178.2450  140.4300 C   0  0  0  0  0  2  0  0  0  0  0  0
  181.8460  177.5040  138.3080 C   0  0  0  0  0  2  0  0  0  0  0  0
  189.5760  177.3840  142.1880 O   0  0  0  0  0  1  0  0  0  0  0  0
  184.9350  178.8020  143.1690 C   0  0  2  0  0  3  0  0  0  0  0  0
  187.8370  177.8000  145.4060 C   0  0  0  0  0  3  0  0  0  0  0  0
  187.2910  178.0880  142.6600 C   0  0  0  0  0  0  0  0  0  0  0  0
  184.5700  178.2820  141.7950 C   0  0  1  0  0  3  0  0  0  0  0  0
  181.4590  178.8060  143.3330 O   0  0  0  0  0  0  0  0  0  0  0  0
  183.1360  178.7460  141.6110 C   0  0  1  0  0  3  0  0  0  0  0  0
  180.5710  177.5950  139.1240 C   0  0  0  0  0  2  0  0  0  0  0  0
  183.4740  180.1320  138.9250 C   0  0  0  0  0  1  0  0  0  0  0  0
  186.5620  178.1790  144.9880 C   0  0  0  0  0  3  0  0  0  0  0  0
  186.2710  178.2910  143.6230 C   0  0  0  0  0  0  0  0  0  0  0  0
  183.9860  178.6990  138.8170 C   0  0  2  0  0  3  0  0  0  0  0  0
  188.3150  176.8000  138.9110 C   0  0  0  0  0  2  0  0  0  0  0  0
  190.0200  177.3410  137.6240 C   0  0  0  0  0  1  0  0  0  0  0  0
  189.7080  176.7660  138.8540 O   0  0  0  0  0  0  0  0  0  0  0  0
  1  5  1  6  0  0  0
  1 19  1  0  0  0  0
  2 13  1  0  0  0  0
  4 12  1  6  0  0  0
  4  1  1  0  0  0  0
  4 20  1  0  0  0  0
  6  8  2  0  0  0  0
  7 15  1  6  0  0  0
  7  9  1  0  0  0  0
  8 11  1  0  0  0  0
  8 12  1  0  0  0  0
  9 14  1  6  0  0  0
  9 22  1  0  0  0  0
 10 21  2  0  0  0  0
 10  3  1  0  0  0  0
 11 28  1  1  0  0  0
 11  5  1  0  0  0  0
 13 18  2  0  0  0  0
 15 23  1  0  0  0  0
 16  2  1  0  0  0  0
 17 26  1  0  0  0  0
 17  3  1  1  0  0  0
 19  2  2  0  0  0  0
 19 26  1  0  0  0  0
 20 17  1  0  0  0  0
 22 20  1  0  0  0  0
 22 10  1  0  0  0  0
 23 14  1  0  0  0  0
 25 18  1  0  0  0  0
 26 25  2  0  0  0  0
 27 24  1  0  0  0  0
 27  7  1  0  0  0  0
 27 12  1  0  0  0  0
 29 30  1  0  0  0  0
 30 28  1  0  0  0  0
M  END
>  <MODEL>
5

>  <REMARK>
 VINA RESULT:      -8.6      2.452      3.926
  Name = 
  2 active torsions:
  status: ('A' for Active; 'I' for Inactive)
    1  A    between atoms: C_11  and  C_28
    2  A    between atoms: C_28  and  O_30
                            x       y       z     vdW  Elec       q    Type
                         _______ _______ _______ _____ _____    ______ ____

>  <TORSDO>
F 2

$$$$
=
 OpenBabel11122410233D

 30 35  0  0  1  0  0  0  0  0999 V2000
  186.8710  178.2290  141.6650 C   0  0  1  0  0  3  0  0  0  0  0  0
  185.8220  178.4270  143.9830 C   0  0  0  0  0  0  0  0  0  0  0  0
  182.9490  178.7480  139.8900 C   0  0  0  0  0  2  0  0  0  0  0  0
  186.6740  178.6140  140.1840 C   0  0  1  0  0  3  0  0  0  0  0  0
  188.0890  178.7700  142.1190 O   0  0  0  0  0  0  0  0  0  0  0  0
  190.0730  177.5690  139.3880 O   0  0  0  0  0  0  0  0  0  0  0  0
  186.7240  176.7490  137.5160 C   0  0  1  0  0  3  0  0  0  0  0  0
  189.0440  177.8630  140.0530 C   0  0  0  0  0  0  0  0  0  0  0  0
  185.2350  177.1260  137.5000 C   0  0  2  0  0  3  0  0  0  0  0  0
  183.3800  178.5240  138.4830 C   0  0  0  0  0  0  0  0  0  0  0  0
  189.1510  178.0160  141.5540 C   0  0  2  0  0  3  0  0  0  0  0  0
  187.7670  178.0100  139.4020 N   0  0  0  0  0  0  0  0  0  0  0  0
  184.7130  178.6270  144.8090 C   0  0  0  0  0  3  0  0  0  0  0  0
  184.8830  177.3070  136.0380 C   0  0  0  0  0  2  0  0  0  0  0  0
  187.0640  176.2710  136.1120 C   0  0  0  0  0  2  0  0  0  0  0  0
  187.0400  178.1010  144.5660 O   0  0  0  0  0  1  0  0  0  0  0  0
  184.2880  179.0020  140.5510 C   0  0  2  0  0  3  0  0  0  0  0  0
  183.4660  178.9280  144.2590 C   0  0  0  0  0  3  0  0  0  0  0  0
  185.6960  178.5480  142.5830 C   0  0  0  0  0  0  0  0  0  0  0  0
  185.2780  178.1560  139.7790 C   0  0  1  0  0  3  0  0  0  0  0  0
  182.5990  178.5340  137.5450 O   0  0  0  0  0  0  0  0  0  0  0  0
  184.8640  178.3570  138.3330 C   0  0  1  0  0  3  0  0  0  0  0  0
  185.7850  176.3460  135.3000 C   0  0  0  0  0  2  0  0  0  0  0  0
  187.5720  179.1790  137.2190 C   0  0  0  0  0  1  0  0  0  0  0  0
  183.3190  179.0200  142.8750 C   0  0  0  0  0  3  0  0  0  0  0  0
  184.4140  178.7980  142.0320 C   0  0  0  0  0  0  0  0  0  0  0  0
  187.7130  177.8460  137.9470 C   0  0  2  0  0  3  0  0  0  0  0  0
  189.3120  176.6610  142.2360 C   0  0  0  0  0  2  0  0  0  0  0  0
  191.3990  176.9770  142.8730 C   0  0  0  0  0  1  0  0  0  0  0  0
  190.1100  176.7950  143.3720 O   0  0  0  0  0  0  0  0  0  0  0  0
  1  5  1  1  0  0  0
  1 19  1  0  0  0  0
  2 16  1  0  0  0  0
  2 13  1  0  0  0  0
  4 12  1  6  0  0  0
  4  1  1  0  0  0  0
  6  8  2  0  0  0  0
  7 15  1  6  0  0  0
  7 27  1  0  0  0  0
  8 11  1  0  0  0  0
  9 14  1  6  0  0  0
  9  7  1  0  0  0  0
  9 22  1  0  0  0  0
 10  3  1  0  0  0  0
 11  5  1  0  0  0  0
 11 28  1  1  0  0  0
 12  8  1  0  0  0  0
 17  3  1  6  0  0  0
 17 26  1  0  0  0  0
 18 13  2  0  0  0  0
 19  2  2  0  0  0  0
 20  4  1  0  0  0  0
 20 17  1  0  0  0  0
 21 10  2  0  0  0  0
 22 10  1  0  0  0  0
 22 20  1  0  0  0  0
 23 14  1  0  0  0  0
 23 15  1  0  0  0  0
 24 27  1  0  0  0  0
 25 18  1  0  0  0  0
 26 19  1  0  0  0  0
 26 25  2  0  0  0  0
 27 12  1  0  0  0  0
 28 30  1  0  0  0  0
 29 30  1  0  0  0  0
M  END
>  <MODEL>
6

>  <REMARK>
 VINA RESULT:      -7.6      3.010      6.169
  Name = 
  2 active torsions:
  status: ('A' for Active; 'I' for Inactive)
    1  A    between atoms: C_11  and  C_28
    2  A    between atoms: C_28  and  O_30
                            x       y       z     vdW  Elec       q    Type
                         _______ _______ _______ _____ _____    ______ ____

>  <TORSDO>
F 2

$$$$
=
 OpenBabel11122410233D

 30 35  0  0  1  0  0  0  0  0999 V2000
  186.9920  177.9830  140.0440 C   0  0  1  0  0  3  0  0  0  0  0  0
  188.6840  176.9740  138.4220 C   0  0  0  0  0  0  0  0  0  0  0  0
  189.8420  177.4690  143.2720 C   0  0  0  0  0  2  0  0  0  0  0  0
  186.8640  178.7250  141.3900 C   0  0  1  0  0  3  0  0  0  0  0  0
  186.4240  178.7770  139.0290 O   0  0  0  0  0  0  0  0  0  0  0  0
  183.3480  179.4320  140.7460 O   0  0  0  0  0  0  0  0  0  0  0  0
  185.0400  178.0270  143.9950 C   0  0  1  0  0  3  0  0  0  0  0  0
  184.5380  179.0580  140.5680 C   0  0  0  0  0  0  0  0  0  0  0  0
  186.4230  177.7690  144.6130 C   0  0  2  0  0  3  0  0  0  0  0  0
  188.9290  177.9120  144.3620 C   0  0  0  0  0  0  0  0  0  0  0  0
  185.0110  178.7360  139.1680 C   0  0  2  0  0  3  0  0  0  0  0  0
  185.4310  178.8960  141.6870 N   0  0  0  0  0  0  0  0  0  0  0  0
  189.9450  176.4340  138.1490 C   0  0  0  0  0  3  0  0  0  0  0  0
  186.3250  178.2680  146.0390 C   0  0  0  0  0  2  0  0  0  0  0  0
  184.0770  178.2150  145.1570 C   0  0  0  0  0  2  0  0  0  0  0  0
  187.7280  176.9810  137.4140 O   0  0  0  0  0  1  0  0  0  0  0  0
  189.0990  177.9960  142.0610 C   0  0  2  0  0  3  0  0  0  0  0  0
  190.9220  176.3840  139.1440 C   0  0  0  0  0  3  0  0  0  0  0  0
  188.3940  177.4900  139.7020 C   0  0  0  0  0  0  0  0  0  0  0  0
  187.6330  177.9160  142.4270 C   0  0  1  0  0  3  0  0  0  0  0  0
  189.2610  177.9220  145.5360 O   0  0  0  0  0  0  0  0  0  0  0  0
  187.6000  178.4030  143.8650 C   0  0  1  0  0  3  0  0  0  0  0  0
  184.8830  178.0430  146.4300 C   0  0  0  0  0  2  0  0  0  0  0  0
  185.4630  180.5440  143.5460 C   0  0  0  0  0  1  0  0  0  0  0  0
  190.6400  176.8620  140.4240 C   0  0  0  0  0  3  0  0  0  0  0  0
  189.3750  177.3810  140.7200 C   0  0  0  0  0  0  0  0  0  0  0  0
  184.9240  179.2150  143.0240 C   0  0  2  0  0  3  0  0  0  0  0  0
  184.4300  177.4120  138.6820 C   0  0  0  0  0  2  0  0  0  0  0  0
  182.7280  177.9510  137.3900 C   0  0  0  0  0  1  0  0  0  0  0  0
  184.0540  177.5240  137.3430 O   0  0  0  0  0  0  0  0  0  0  0  0
  1  5  1  6  0  0  0
  1  4  1  0  0  0  0
  2 19  1  0  0  0  0
  3 10  1  0  0  0  0
  4 12  1  1  0  0  0
  4 20  1  0  0  0  0
  5 11  1  0  0  0  0
  7  9  1  0  0  0  0
  7 15  1  1  0  0  0
  8  6  2  0  0  0  0
  8 12  1  0  0  0  0
  9 14  1  1  0  0  0
 10 21  2  0  0  0  0
 11 28  1  1  0  0  0
 11  8  1  0  0  0  0
 12 27  1  0  0  0  0
 13  2  2  0  0  0  0
 13 18  1  0  0  0  0
 14 23  1  0  0  0  0
 15 23  1  0  0  0  0
 16  2  1  0  0  0  0
 17 20  1  0  0  0  0
 17  3  1  1  0  0  0
 18 25  2  0  0  0  0
 19  1  1  0  0  0  0
 19 26  2  0  0  0  0
 20 22  1  0  0  0  0
 22 10  1  0  0  0  0
 22  9  1  0  0  0  0
 25 26  1  0  0  0  0
 26 17  1  0  0  0  0
 27 24  1  0  0  0  0
 27  7  1  0  0  0  0
 30 29  1  0  0  0  0
 30 28  1  0  0  0  0
M  END
>  <MODEL>
7

>  <REMARK>
 VINA RESULT:      -7.3      2.213      4.929
  Name = 
  2 active torsions:
  status: ('A' for Active; 'I' for Inactive)
    1  A    between atoms: C_11  and  C_28
    2  A    between atoms: C_28  and  O_30
                            x       y       z     vdW  Elec       q    Type
                         _______ _______ _______ _____ _____    ______ ____

>  <TORSDO>
F 2

$$$$
=
 OpenBabel11122410233D

 30 35  0  0  1  0  0  0  0  0999 V2000
  188.4690  177.5120  142.8220 C   0  0  1  0  0  3  0  0  0  0  0  0
  187.3330  178.1920  140.6400 C   0  0  0  0  0  0  0  0  0  0  0  0
  184.8670  178.5850  144.9840 C   0  0  0  0  0  2  0  0  0  0  0  0
  188.1900  177.0310  144.2610 C   0  0  1  0  0  3  0  0  0  0  0  0
  189.2600  176.5510  142.1640 O   0  0  0  0  0  0  0  0  0  0  0  0
  191.7140  176.2480  144.7570 O   0  0  0  0  0  0  0  0  0  0  0  0
  189.2550  178.2090  147.1020 C   0  0  1  0  0  3  0  0  0  0  0  0
  190.6360  176.5720  144.1910 C   0  0  0  0  0  0  0  0  0  0  0  0
  187.7690  178.5650  147.2540 C   0  0  2  0  0  3  0  0  0  0  0  0
  185.4240  178.3570  146.3460 C   0  0  0  0  0  0  0  0  0  0  0  0
  190.5800  176.6280  142.6810 C   0  0  2  0  0  3  0  0  0  0  0  0
  189.4770  176.9290  144.9700 N   0  0  0  0  0  0  0  0  0  0  0  0
  186.2200  178.6620  139.9360 C   0  0  0  0  0  3  0  0  0  0  0  0
  187.4490  178.3360  148.7160 C   0  0  0  0  0  2  0  0  0  0  0  0
  189.8530  178.2460  148.5000 C   0  0  0  0  0  2  0  0  0  0  0  0
  188.5280  178.0090  139.9560 O   0  0  0  0  0  1  0  0  0  0  0  0
  185.8900  177.8510  144.1420 C   0  0  2  0  0  3  0  0  0  0  0  0
  185.0100  178.8850  140.5940 C   0  0  0  0  0  3  0  0  0  0  0  0
  187.2380  177.9220  142.0210 C   0  0  0  0  0  0  0  0  0  0  0  0
  187.2010  178.0090  144.8810 C   0  0  1  0  0  3  0  0  0  0  0  0
  184.7820  178.5590  147.3640 O   0  0  0  0  0  0  0  0  0  0  0  0
  186.8160  177.7940  146.3340 C   0  0  1  0  0  3  0  0  0  0  0  0
  188.7360  178.6410  149.4470 C   0  0  0  0  0  2  0  0  0  0  0  0
  188.8650  175.6500  147.0100 C   0  0  0  0  0  1  0  0  0  0  0  0
  184.9090  178.6520  141.9660 C   0  0  0  0  0  3  0  0  0  0  0  0
  186.0200  178.2070  142.6900 C   0  0  0  0  0  0  0  0  0  0  0  0
  189.5830  176.8650  146.4300 C   0  0  2  0  0  3  0  0  0  0  0  0
  191.3290  177.8460  142.1470 C   0  0  0  0  0  2  0  0  0  0  0  0
  191.9650  177.3800  140.0890 C   0  0  0  0  0  1  0  0  0  0  0  0
  192.4330  177.4330  141.4010 O   0  0  0  0  0  0  0  0  0  0  0  0
  1 19  1  6  0  0  0
  1  4  1  0  0  0  0
  2 19  1  0  0  0  0
  3 10  1  0  0  0  0
  4 20  1  0  0  0  0
  4 12  1  1  0  0  0
  5 11  1  0  0  0  0
  5  1  1  0  0  0  0
  7  9  1  0  0  0  0
  7 15  1  1  0  0  0
  8  6  2  0  0  0  0
  8 12  1  0  0  0  0
  9 14  1  1  0  0  0
 10 21  2  0  0  0  0
 11 28  1  1  0  0  0
 11  8  1  0  0  0  0
 12 27  1  0  0  0  0
 13 18  1  0  0  0  0
 13  2  2  0  0  0  0
 14 23  1  0  0  0  0
 15 23  1  0  0  0  0
 16  2  1  0  0  0  0
 17 20  1  0  0  0  0
 17  3  1  1  0  0  0
 18 25  2  0  0  0  0
 19 26  2  0  0  0  0
 20 22  1  0  0  0  0
 22 10  1  0  0  0  0
 22  9  1  0  0  0  0
 25 26  1  0  0  0  0
 26 17  1  0  0  0  0
 27 24  1  0  0  0  0
 27  7  1  0  0  0  0
 29 30  1  0  0  0  0
 30 28  1  0  0  0  0
M  END
>  <MODEL>
8

>  <REMARK>
 VINA RESULT:      -7.2      1.629      5.084
  Name = 
  2 active torsions:
  status: ('A' for Active; 'I' for Inactive)
    1  A    between atoms: C_11  and  C_28
    2  A    between atoms: C_28  and  O_30
                            x       y       z     vdW  Elec       q    Type
                         _______ _______ _______ _____ _____    ______ ____

>  <TORSDO>
F 2

$$$$
=
 OpenBabel11122410233D

 30 35  0  0  1  0  0  0  0  0999 V2000
  187.3930  177.7220  138.8680 C   0  0  1  0  0  3  0  0  0  0  0  0
  188.7540  176.7860  136.9220 C   0  0  0  0  0  0  0  0  0  0  0  0
  190.7780  177.0650  141.4980 C   0  0  0  0  0  2  0  0  0  0  0  0
  187.5170  178.4020  140.2460 C   0  0  1  0  0  3  0  0  0  0  0  0
  186.6550  178.5590  138.0090 O   0  0  0  0  0  0  0  0  0  0  0  0
  183.9480  179.1360  140.2850 O   0  0  0  0  0  0  0  0  0  0  0  0
  186.1930  177.5890  143.1060 C   0  0  1  0  0  3  0  0  0  0  0  0
  185.0830  178.7710  139.8770 C   0  0  0  0  0  0  0  0  0  0  0  0
  187.6630  177.3040  143.4500 C   0  0  2  0  0  3  0  0  0  0  0  0
  190.0820  177.4590  142.7530 C   0  0  0  0  0  0  0  0  0  0  0  0
  185.2910  178.5120  138.4020 C   0  0  2  0  0  3  0  0  0  0  0  0
  186.1640  178.5590  140.8060 N   0  0  0  0  0  0  0  0  0  0  0  0
  189.9390  176.2600  136.4010 C   0  0  0  0  0  3  0  0  0  0  0  0
  187.8300  177.7390  144.8900 C   0  0  0  0  0  2  0  0  0  0  0  0
  185.4580  177.7240  144.4320 C   0  0  0  0  0  2  0  0  0  0  0  0
  187.6300  176.8380  136.1060 O   0  0  0  0  0  1  0  0  0  0  0  0
  189.8320  177.6460  140.4660 C   0  0  2  0  0  3  0  0  0  0  0  0
  191.0810  176.1660  137.1980 C   0  0  0  0  0  3  0  0  0  0  0  0
  188.7050  177.2440  138.2550 C   0  0  0  0  0  0  0  0  0  0  0  0
  188.4560  177.5480  141.0900 C   0  0  1  0  0  3  0  0  0  0  0  0
  190.6220  177.4170  143.8470 O   0  0  0  0  0  0  0  0  0  0  0  0
  188.6890  177.9710  142.5290 C   0  0  1  0  0  3  0  0  0  0  0  0
  186.4810  177.4960  145.5280 C   0  0  0  0  0  2  0  0  0  0  0  0
  186.5460  180.1230  142.6990 C   0  0  0  0  0  1  0  0  0  0  0  0
  191.0400  176.5860  138.5270 C   0  0  0  0  0  3  0  0  0  0  0  0
  189.8540  177.0910  139.0720 C   0  0  0  0  0  0  0  0  0  0  0  0
  185.9110  178.8190  142.2260 C   0  0  2  0  0  3  0  0  0  0  0  0
  184.6210  177.2100  137.9710 C   0  0  0  0  0  2  0  0  0  0  0  0
  182.6640  177.7500  137.1130 C   0  0  0  0  0  1  0  0  0  0  0  0
  183.9640  177.3960  136.7550 O   0  0  0  0  0  0  0  0  0  0  0  0
  1  5  1  6  0  0  0
  1  4  1  0  0  0  0
  2 19  1  0  0  0  0
  3 10  1  0  0  0  0
  4 12  1  1  0  0  0
  4 20  1  0  0  0  0
  5 11  1  0  0  0  0
  7  9  1  0  0  0  0
  7 15  1  1  0  0  0
  8  6  2  0  0  0  0
  8 12  1  0  0  0  0
  9 14  1  1  0  0  0
 10 21  2  0  0  0  0
 11 28  1  1  0  0  0
 11  8  1  0  0  0  0
 12 27  1  0  0  0  0
 13  2  2  0  0  0  0
 13 18  1  0  0  0  0
 14 23  1  0  0  0  0
 15 23  1  0  0  0  0
 16  2  1  0  0  0  0
 17 20  1  0  0  0  0
 17  3  1  1  0  0  0
 18 25  2  0  0  0  0
 19  1  1  0  0  0  0
 19 26  2  0  0  0  0
 20 22  1  0  0  0  0
 22 10  1  0  0  0  0
 22  9  1  0  0  0  0
 25 26  1  0  0  0  0
 26 17  1  0  0  0  0
 27 24  1  0  0  0  0
 27  7  1  0  0  0  0
 30 29  1  0  0  0  0
 30 28  1  0  0  0  0
M  END
>  <MODEL>
9

>  <REMARK>
 VINA RESULT:      -7.0      2.438      5.888
  Name = 
  2 active torsions:
  status: ('A' for Active; 'I' for Inactive)
    1  A    between atoms: C_11  and  C_28
    2  A    between atoms: C_28  and  O_30
                            x       y       z     vdW  Elec       q    Type
                         _______ _______ _______ _____ _____    ______ ____

>  <TORSDO>
F 2

$$$$
