=
 OpenBabel11122410483D

 32 37  0  0  1  0  0  0  0  0999 V2000
  183.3500  178.6150  141.3490 C   0  0  0  0  0  0  0  0  0  0  0  0
  187.1610  178.0400  138.3600 C   0  0  0  0  0  3  0  0  0  0  0  0
  188.0830  178.1370  139.5090 C   0  0  0  0  0  3  0  0  0  0  0  0
  183.7390  178.7930  143.8290 C   0  0  0  0  0  0  0  0  0  0  0  0
  184.7620  179.1650  144.8640 C   0  0  1  0  0  3  0  0  0  0  0  0
  181.0320  178.3100  140.3620 C   0  0  2  0  0  3  0  0  0  0  0  0
  183.0570  178.0020  138.9170 C   0  0  0  0  0  2  0  0  0  0  0  0
  186.6800  178.0880  145.7120 N   0  0  0  0  0  0  0  0  0  0  0  0
  185.8650  178.3370  138.4860 C   0  0  0  0  0  3  0  0  0  0  0  0
  183.9040  178.4620  140.0220 N   0  0  0  0  0  0  0  0  0  0  0  0
  185.2930  178.8790  139.7780 C   0  0  1  0  0  3  0  0  0  0  0  0
  185.6580  178.5530  142.2020 C   0  0  0  0  0  0  0  0  0  0  0  0
  185.8060  178.1110  146.8060 N   0  0  0  0  0  2  0  0  0  0  0  0
  181.6540  178.5980  138.9910 C   0  0  2  0  0  3  0  0  0  0  0  0
  184.5130  178.5680  146.2560 C   0  0  0  0  0  2  0  0  0  0  0  0
  187.6220  178.3700  140.7400 C   0  0  0  0  0  3  0  0  0  0  0  0
  186.1760  178.5640  140.9660 C   0  0  0  0  0  0  0  0  0  0  0  0
  186.4990  178.3270  143.3450 N   0  0  0  0  0  0  0  0  0  0  0  0
  181.8730  178.8820  141.5030 C   0  0  0  0  0  2  0  0  0  0  0  0
  182.5310  178.6460  144.1610 O   0  0  0  0  0  0  0  0  0  0  0  0
  187.9710  177.4250  145.7580 C   0  0  0  0  0  1  0  0  0  0  0  0
  184.1860  178.6710  142.4120 C   0  0  0  0  0  0  0  0  0  0  0  0
  186.0790  178.5930  144.5460 C   0  0  0  0  0  0  0  0  0  0  0  0
  181.2030  180.3370  137.2690 C   0  0  0  0  0  2  0  0  0  0  0  0
  181.6750  180.0920  138.6880 C   0  0  1  0  0  3  0  0  0  0  0  0
  180.2600  180.5700  138.4310 C   0  0  1  0  0  3  0  0  0  0  0  0
  180.1800  181.9940  138.7140 N   0  0  0  0  0  2  0  0  0  0  0  0
  179.4960  182.8980  137.8460 C   0  0  0  0  0  0  0  0  0  0  0  0
  178.9320  182.4820  136.8000 O   0  0  0  0  0  0  0  0  0  0  0  0
  179.4470  184.3450  138.1830 C   0  0  0  0  0  1  0  0  0  0  0  0
  179.4750  176.7420  140.4830 C   0  0  0  0  0  1  0  0  0  0  0  0
  180.8560  176.9340  140.5350 O   0  0  0  0  0  0  0  0  0  0  0  0
  1 19  1  0  0  0  0
  1 22  2  0  0  0  0
  2  9  2  0  0  0  0
  2  3  1  0  0  0  0
  3 16  2  0  0  0  0
  4 20  2  0  0  0  0
  4  5  1  0  0  0  0
  5 15  1  1  0  0  0
  6 32  1  1  0  0  0
  6 19  1  0  0  0  0
  7 10  1  0  0  0  0
  8 21  1  0  0  0  0
  8 13  1  0  0  0  0
 10  1  1  0  0  0  0
 11  9  1  6  0  0  0
 11 10  1  0  0  0  0
 11 17  1  0  0  0  0
 12 22  1  0  0  0  0
 12 18  1  0  0  0  0
 14  7  1  1  0  0  0
 14  6  1  0  0  0  0
 15 13  1  0  0  0  0
 16 17  1  0  0  0  0
 17 12  2  0  0  0  0
 18 23  2  0  0  0  0
 22  4  1  0  0  0  0
 23  5  1  0  0  0  0
 23  8  1  0  0  0  0
 24 26  1  0  0  0  0
 25 24  1  6  0  0  0
 25 14  1  0  0  0  0
 26 25  1  0  0  0  0
 26 27  1  1  0  0  0
 28 30  1  0  0  0  0
 28 27  1  0  0  0  0
 29 28  2  0  0  0  0
 31 32  1  0  0  0  0
M  END
>  <MODEL>
1

>  <REMARK>
 VINA RESULT:      -8.1      0.000      0.000
  Name = 
  3 active torsions:
  status: ('A' for Active; 'I' for Inactive)
    1  A    between atoms: C_7  and  O_19
    2  A    between atoms: C_10  and  C_17
    3  A    between atoms: C_20  and  N_29
                            x       y       z     vdW  Elec       q    Type
                         _______ _______ _______ _____ _____    ______ ____

>  <TORSDO>
F 3

$$$$
=
 OpenBabel11122410483D

 32 37  0  0  1  0  0  0  0  0999 V2000
  185.5630  178.3920  140.8870 C   0  0  0  0  0  0  0  0  0  0  0  0
  184.2570  178.7580  145.5720 C   0  0  0  0  0  3  0  0  0  0  0  0
  185.6220  178.3780  145.9870 C   0  0  0  0  0  3  0  0  0  0  0  0
  187.9500  177.8450  140.3070 C   0  0  0  0  0  0  0  0  0  0  0  0
  189.1980  177.1940  140.8310 C   0  0  1  0  0  3  0  0  0  0  0  0
  183.8910  179.1670  139.1410 C   0  0  2  0  0  3  0  0  0  0  0  0
  183.3290  179.3450  141.5780 C   0  0  0  0  0  2  0  0  0  0  0  0
  190.8400  177.8530  142.3900 N   0  0  0  0  0  0  0  0  0  0  0  0
  183.8650  178.6470  144.2990 C   0  0  0  0  0  3  0  0  0  0  0  0
  184.5650  178.6260  141.9050 N   0  0  0  0  0  0  0  0  0  0  0  0
  184.7580  178.0380  143.2400 C   0  0  1  0  0  3  0  0  0  0  0  0
  187.1720  177.9960  142.7060 C   0  0  0  0  0  0  0  0  0  0  0  0
  191.5350  177.8240  141.1730 N   0  0  0  0  0  2  0  0  0  0  0  0
  182.8000  178.9640  140.1980 C   0  0  2  0  0  3  0  0  0  0  0  0
  190.4950  177.6410  140.1410 C   0  0  0  0  0  2  0  0  0  0  0  0
  186.5510  178.0640  145.0810 C   0  0  0  0  0  3  0  0  0  0  0  0
  186.2160  178.0640  143.6440 C   0  0  0  0  0  0  0  0  0  0  0  0
  188.5590  177.9460  143.0800 N   0  0  0  0  0  0  0  0  0  0  0  0
  185.1380  178.3340  139.4400 C   0  0  0  0  0  2  0  0  0  0  0  0
  187.8560  178.1290  139.0820 O   0  0  0  0  0  0  0  0  0  0  0  0
  191.4530  178.3020  143.6270 C   0  0  0  0  0  1  0  0  0  0  0  0
  186.8250  178.0760  141.2580 C   0  0  0  0  0  0  0  0  0  0  0  0
  189.4690  177.5970  142.2210 C   0  0  0  0  0  0  0  0  0  0  0  0
  180.7550  177.5460  140.2430 C   0  0  0  0  0  2  0  0  0  0  0  0
  182.2700  177.5350  140.1900 C   0  0  1  0  0  3  0  0  0  0  0  0
  181.4640  177.3070  138.9260 C   0  0  1  0  0  3  0  0  0  0  0  0
  181.4520  175.8870  138.6180 N   0  0  0  0  0  2  0  0  0  0  0  0
  182.1940  175.3460  137.5240 C   0  0  0  0  0  0  0  0  0  0  0  0
  182.8910  176.0930  136.7880 O   0  0  0  0  0  0  0  0  0  0  0  0
  182.1450  173.8860  137.2540 C   0  0  0  0  0  1  0  0  0  0  0  0
  183.0480  181.1520  138.6460 C   0  0  0  0  0  1  0  0  0  0  0  0
  184.2270  180.5200  139.0440 O   0  0  0  0  0  0  0  0  0  0  0  0
  1 22  2  0  0  0  0
  1 10  1  0  0  0  0
  2  3  1  0  0  0  0
  4  5  1  0  0  0  0
  4 22  1  0  0  0  0
  5 15  1  6  0  0  0
  5 23  1  0  0  0  0
  6 32  1  1  0  0  0
  6 19  1  0  0  0  0
  6 14  1  0  0  0  0
  7 10  1  0  0  0  0
  8 21  1  0  0  0  0
  9  2  2  0  0  0  0
 10 11  1  0  0  0  0
 11 17  1  0  0  0  0
 11  9  1  1  0  0  0
 12 18  1  0  0  0  0
 12 17  2  0  0  0  0
 13  8  1  0  0  0  0
 14  7  1  1  0  0  0
 15 13  1  0  0  0  0
 16  3  2  0  0  0  0
 17 16  1  0  0  0  0
 19  1  1  0  0  0  0
 20  4  2  0  0  0  0
 22 12  1  0  0  0  0
 23  8  1  0  0  0  0
 23 18  2  0  0  0  0
 25 14  1  0  0  0  0
 25 24  1  1  0  0  0
 26 27  1  1  0  0  0
 26 25  1  0  0  0  0
 26 24  1  0  0  0  0
 28 27  1  0  0  0  0
 29 28  2  0  0  0  0
 30 28  1  0  0  0  0
 31 32  1  0  0  0  0
M  END
>  <MODEL>
2

>  <REMARK>
 VINA RESULT:      -7.9      2.840      5.464
  Name = 
  3 active torsions:
  status: ('A' for Active; 'I' for Inactive)
    1  A    between atoms: C_7  and  O_19
    2  A    between atoms: C_10  and  C_17
    3  A    between atoms: C_20  and  N_29
                            x       y       z     vdW  Elec       q    Type
                         _______ _______ _______ _____ _____    ______ ____

>  <TORSDO>
F 3

$$$$
=
 OpenBabel11122410483D

 32 37  0  0  1  0  0  0  0  0999 V2000
  187.8380  177.6040  140.9860 C   0  0  0  0  0  0  0  0  0  0  0  0
  183.8680  179.2820  143.2690 C   0  0  0  0  0  3  0  0  0  0  0  0
  184.4430  178.8860  144.5700 C   0  0  0  0  0  3  0  0  0  0  0  0
  189.7530  176.6920  142.3410 C   0  0  0  0  0  0  0  0  0  0  0  0
  190.1050  176.0760  143.6650 C   0  0  1  0  0  3  0  0  0  0  0  0
  188.0440  178.0710  138.4990 C   0  0  2  0  0  3  0  0  0  0  0  0
  186.0580  178.9200  139.7720 C   0  0  0  0  0  2  0  0  0  0  0  0
  190.3640  176.9430  145.8420 N   0  0  0  0  0  0  0  0  0  0  0  0
  184.4240  178.8900  142.1190 C   0  0  0  0  0  3  0  0  0  0  0  0
  186.5170  178.1890  140.9570 N   0  0  0  0  0  0  0  0  0  0  0  0
  185.6050  177.9450  142.0860 C   0  0  1  0  0  3  0  0  0  0  0  0
  187.6340  177.5270  143.4370 C   0  0  0  0  0  0  0  0  0  0  0  0
  191.6590  176.5350  145.4950 N   0  0  0  0  0  2  0  0  0  0  0  0
  186.5220  178.2540  138.4790 C   0  0  2  0  0  3  0  0  0  0  0  0
  191.5840  176.2000  144.0580 C   0  0  0  0  0  2  0  0  0  0  0  0
  185.6200  178.2600  144.6370 C   0  0  0  0  0  3  0  0  0  0  0  0
  186.3550  177.9270  143.4010 C   0  0  0  0  0  0  0  0  0  0  0  0
  188.3350  177.4360  144.6880 N   0  0  0  0  0  0  0  0  0  0  0  0
  188.5020  177.2220  139.6860 C   0  0  0  0  0  2  0  0  0  0  0  0
  190.5820  176.6630  141.3920 O   0  0  0  0  0  0  0  0  0  0  0  0
  190.0700  177.6300  147.0870 C   0  0  0  0  0  1  0  0  0  0  0  0
  188.3880  177.2690  142.1760 C   0  0  0  0  0  0  0  0  0  0  0  0
  189.4590  176.7900  144.7780 C   0  0  0  0  0  0  0  0  0  0  0  0
  184.8600  177.0500  137.0730 C   0  0  0  0  0  2  0  0  0  0  0  0
  185.8010  176.9300  138.2550 C   0  0  1  0  0  3  0  0  0  0  0  0
  186.2000  176.3660  136.9060 C   0  0  1  0  0  3  0  0  0  0  0  0
  186.0150  174.9240  136.9190 N   0  0  0  0  0  2  0  0  0  0  0  0
  187.1210  174.0220  136.9580 C   0  0  0  0  0  0  0  0  0  0  0  0
  188.3030  174.4550  136.9860 O   0  0  0  0  0  0  0  0  0  0  0  0
  186.8740  172.5570  136.9680 C   0  0  0  0  0  1  0  0  0  0  0  0
  189.0910  179.5280  137.2050 C   0  0  0  0  0  1  0  0  0  0  0  0
  188.6820  179.3140  138.5210 O   0  0  0  0  0  0  0  0  0  0  0  0
  1 22  2  0  0  0  0
  2  3  1  0  0  0  0
  3 16  2  0  0  0  0
  4  5  1  0  0  0  0
  5 15  1  1  0  0  0
  5 23  1  0  0  0  0
  6 32  1  1  0  0  0
  6 19  1  0  0  0  0
  7 10  1  0  0  0  0
  8 21  1  0  0  0  0
  9  2  2  0  0  0  0
 10  1  1  0  0  0  0
 10 11  1  0  0  0  0
 11  9  1  1  0  0  0
 11 17  1  0  0  0  0
 12 18  1  0  0  0  0
 13  8  1  0  0  0  0
 14  6  1  0  0  0  0
 14  7  1  1  0  0  0
 15 13  1  0  0  0  0
 17 12  2  0  0  0  0
 17 16  1  0  0  0  0
 18 23  2  0  0  0  0
 19  1  1  0  0  0  0
 20  4  2  0  0  0  0
 22  4  1  0  0  0  0
 22 12  1  0  0  0  0
 23  8  1  0  0  0  0
 25 24  1  6  0  0  0
 25 14  1  0  0  0  0
 26 27  1  1  0  0  0
 26 24  1  0  0  0  0
 26 25  1  0  0  0  0
 27 28  1  0  0  0  0
 28 30  1  0  0  0  0
 28 29  2  0  0  0  0
 31 32  1  0  0  0  0
M  END
>  <MODEL>
3

>  <REMARK>
 VINA RESULT:      -7.9      4.464      6.794
  Name = 
  3 active torsions:
  status: ('A' for Active; 'I' for Inactive)
    1  A    between atoms: C_7  and  O_19
    2  A    between atoms: C_10  and  C_17
    3  A    between atoms: C_20  and  N_29
                            x       y       z     vdW  Elec       q    Type
                         _______ _______ _______ _____ _____    ______ ____

>  <TORSDO>
F 3

$$$$
=
 OpenBabel11122410483D

 32 37  0  0  1  0  0  0  0  0999 V2000
  182.8750  178.4480  140.6310 C   0  0  0  0  0  0  0  0  0  0  0  0
  187.0030  177.8970  138.0920 C   0  0  0  0  0  3  0  0  0  0  0  0
  187.7930  178.1700  139.3090 C   0  0  0  0  0  3  0  0  0  0  0  0
  182.9930  178.8820  143.1070 C   0  0  0  0  0  0  0  0  0  0  0  0
  183.8770  179.4250  144.1940 C   0  0  1  0  0  3  0  0  0  0  0  0
  180.6960  177.8760  139.4610 C   0  0  2  0  0  3  0  0  0  0  0  0
  182.8750  177.5940  138.2550 C   0  0  0  0  0  2  0  0  0  0  0  0
  185.7660  178.5820  145.3230 N   0  0  0  0  0  0  0  0  0  0  0  0
  185.6830  178.1030  138.0640 C   0  0  0  0  0  3  0  0  0  0  0  0
  183.5710  178.2170  139.3850 N   0  0  0  0  0  0  0  0  0  0  0  0
  184.9470  178.7160  139.2350 C   0  0  1  0  0  3  0  0  0  0  0  0
  185.0810  178.6430  141.7040 C   0  0  0  0  0  0  0  0  0  0  0  0
  184.7850  178.6380  146.3220 N   0  0  0  0  0  2  0  0  0  0  0  0
  181.4340  178.0840  138.1350 C   0  0  2  0  0  3  0  0  0  0  0  0
  183.5280  178.9410  145.6080 C   0  0  0  0  0  2  0  0  0  0  0  0
  187.1930  178.4780  140.4610 C   0  0  0  0  0  3  0  0  0  0  0  0
  185.7220  178.5800  140.5280 C   0  0  0  0  0  0  0  0  0  0  0  0
  185.8140  178.5880  142.9390 N   0  0  0  0  0  0  0  0  0  0  0  0
  181.3750  178.6130  140.6160 C   0  0  0  0  0  2  0  0  0  0  0  0
  181.7710  178.6740  143.3350 O   0  0  0  0  0  0  0  0  0  0  0  0
  187.0870  178.0270  145.5590 C   0  0  0  0  0  1  0  0  0  0  0  0
  183.5910  178.6660  141.7580 C   0  0  0  0  0  0  0  0  0  0  0  0
  185.2560  178.9290  144.0610 C   0  0  0  0  0  0  0  0  0  0  0  0
  180.9610  179.6220  136.2360 C   0  0  0  0  0  2  0  0  0  0  0  0
  181.3860  179.5410  137.6890 C   0  0  1  0  0  3  0  0  0  0  0  0
  179.9590  179.9080  137.3350 C   0  0  1  0  0  3  0  0  0  0  0  0
  179.7890  181.3450  137.4740 N   0  0  0  0  0  2  0  0  0  0  0  0
  179.3040  181.9340  138.6820 C   0  0  0  0  0  0  0  0  0  0  0  0
  179.0100  181.2160  139.6740 O   0  0  0  0  0  0  0  0  0  0  0  0
  179.1480  183.4090  138.7690 C   0  0  0  0  0  1  0  0  0  0  0  0
  179.6760  176.4370  140.7980 C   0  0  0  0  0  1  0  0  0  0  0  0
  180.5960  176.5130  139.7520 O   0  0  0  0  0  0  0  0  0  0  0  0
  1 22  2  0  0  0  0
  2  3  1  0  0  0  0
  3 16  2  0  0  0  0
  4 20  2  0  0  0  0
  4  5  1  0  0  0  0
  5 15  1  1  0  0  0
  6 32  1  1  0  0  0
  6 19  1  0  0  0  0
  7 10  1  0  0  0  0
  8 21  1  0  0  0  0
  8 13  1  0  0  0  0
  9  2  2  0  0  0  0
 10  1  1  0  0  0  0
 11  9  1  6  0  0  0
 11 10  1  0  0  0  0
 11 17  1  0  0  0  0
 12 22  1  0  0  0  0
 12 18  1  0  0  0  0
 14  7  1  1  0  0  0
 14  6  1  0  0  0  0
 15 13  1  0  0  0  0
 16 17  1  0  0  0  0
 17 12  2  0  0  0  0
 18 23  2  0  0  0  0
 19  1  1  0  0  0  0
 22  4  1  0  0  0  0
 23  5  1  0  0  0  0
 23  8  1  0  0  0  0
 24 26  1  0  0  0  0
 25 24  1  6  0  0  0
 25 14  1  0  0  0  0
 26 27  1  6  0  0  0
 26 25  1  0  0  0  0
 27 28  1  0  0  0  0
 28 30  1  0  0  0  0
 28 29  2  0  0  0  0
 32 31  1  0  0  0  0
M  END
>  <MODEL>
4

>  <REMARK>
 VINA RESULT:      -7.7      1.076      1.117
  Name = 
  3 active torsions:
  status: ('A' for Active; 'I' for Inactive)
    1  A    between atoms: C_7  and  O_19
    2  A    between atoms: C_10  and  C_17
    3  A    between atoms: C_20  and  N_29
                            x       y       z     vdW  Elec       q    Type
                         _______ _______ _______ _____ _____    ______ ____

>  <TORSDO>
F 3

$$$$
=
 OpenBabel11122410483D

 32 37  0  0  1  0  0  0  0  0999 V2000
  187.3030  177.8280  139.9540 C   0  0  0  0  0  0  0  0  0  0  0  0
  183.4370  179.1480  142.6190 C   0  0  0  0  0  3  0  0  0  0  0  0
  184.1910  178.8700  143.8580 C   0  0  0  0  0  3  0  0  0  0  0  0
  189.4440  177.1870  141.1120 C   0  0  0  0  0  0  0  0  0  0  0  0
  190.0050  176.6670  142.4040 C   0  0  1  0  0  3  0  0  0  0  0  0
  187.1840  178.2140  137.4480 C   0  0  2  0  0  3  0  0  0  0  0  0
  185.2640  178.8900  138.9100 C   0  0  0  0  0  2  0  0  0  0  0  0
  190.3970  177.6440  144.5140 N   0  0  0  0  0  0  0  0  0  0  0  0
  183.9070  178.7730  141.4250 C   0  0  0  0  0  3  0  0  0  0  0  0
  185.9280  178.2620  140.0570 N   0  0  0  0  0  0  0  0  0  0  0  0
  185.1780  177.9640  141.2870 C   0  0  1  0  0  3  0  0  0  0  0  0
  187.3750  177.8270  142.4140 C   0  0  0  0  0  0  0  0  0  0  0  0
  191.6840  177.3680  144.0360 N   0  0  0  0  0  2  0  0  0  0  0  0
  185.6590  178.2270  137.5930 C   0  0  2  0  0  3  0  0  0  0  0  0
  191.4930  176.9690  142.6260 C   0  0  0  0  0  2  0  0  0  0  0  0
  185.4320  178.3810  143.8100 C   0  0  0  0  0  3  0  0  0  0  0  0
  186.0620  178.0810  142.5090 C   0  0  0  0  0  0  0  0  0  0  0  0
  188.2130  177.8640  143.5810 N   0  0  0  0  0  0  0  0  0  0  0  0
  187.8620  177.4690  138.5990 C   0  0  0  0  0  2  0  0  0  0  0  0
  190.1640  177.2110  140.0770 O   0  0  0  0  0  0  0  0  0  0  0  0
  190.1630  178.3430  145.7650 C   0  0  0  0  0  1  0  0  0  0  0  0
  188.0120  177.6030  141.0840 C   0  0  0  0  0  0  0  0  0  0  0  0
  189.4060  177.3500  143.5620 C   0  0  0  0  0  0  0  0  0  0  0  0
  184.1000  176.7580  136.3270 C   0  0  0  0  0  2  0  0  0  0  0  0
  185.0730  176.8240  137.4870 C   0  0  1  0  0  3  0  0  0  0  0  0
  185.5000  176.2020  136.1720 C   0  0  1  0  0  3  0  0  0  0  0  0
  185.4640  174.7540  136.2970 N   0  0  0  0  0  2  0  0  0  0  0  0
  186.6320  173.9950  136.6100 C   0  0  0  0  0  0  0  0  0  0  0  0
  187.7400  174.5660  136.7930 O   0  0  0  0  0  0  0  0  0  0  0  0
  186.5390  172.5170  136.7230 C   0  0  0  0  0  1  0  0  0  0  0  0
  189.0550  179.3730  137.2200 C   0  0  0  0  0  1  0  0  0  0  0  0
  187.6750  179.5200  137.3640 O   0  0  0  0  0  0  0  0  0  0  0  0
  1 10  1  0  0  0  0
  1 22  2  0  0  0  0
  2  3  1  0  0  0  0
  4  5  1  0  0  0  0
  5 15  1  6  0  0  0
  5 23  1  0  0  0  0
  6 32  1  1  0  0  0
  6 14  1  0  0  0  0
  6 19  1  0  0  0  0
  7 10  1  0  0  0  0
  8 21  1  0  0  0  0
  9  2  2  0  0  0  0
 10 11  1  0  0  0  0
 11  9  1  1  0  0  0
 11 17  1  0  0  0  0
 12 17  2  0  0  0  0
 12 18  1  0  0  0  0
 13  8  1  0  0  0  0
 14  7  1  1  0  0  0
 15 13  1  0  0  0  0
 16  3  2  0  0  0  0
 17 16  1  0  0  0  0
 19  1  1  0  0  0  0
 20  4  2  0  0  0  0
 22  4  1  0  0  0  0
 22 12  1  0  0  0  0
 23 18  2  0  0  0  0
 23  8  1  0  0  0  0
 25 24  1  6  0  0  0
 25 14  1  0  0  0  0
 26 27  1  1  0  0  0
 26 24  1  0  0  0  0
 26 25  1  0  0  0  0
 27 28  1  0  0  0  0
 28 30  1  0  0  0  0
 28 29  2  0  0  0  0
 31 32  1  0  0  0  0
M  END
>  <MODEL>
5

>  <REMARK>
 VINA RESULT:      -7.0      4.144      6.579
  Name = 
  3 active torsions:
  status: ('A' for Active; 'I' for Inactive)
    1  A    between atoms: C_7  and  O_19
    2  A    between atoms: C_10  and  C_17
    3  A    between atoms: C_20  and  N_29
                            x       y       z     vdW  Elec       q    Type
                         _______ _______ _______ _____ _____    ______ ____

>  <TORSDO>
F 3

$$$$
=
 OpenBabel11122410483D

 32 37  0  0  1  0  0  0  0  0999 V2000
  187.5550  177.5630  140.7810 C   0  0  0  0  0  0  0  0  0  0  0  0
  183.8100  179.3080  143.3730 C   0  0  0  0  0  3  0  0  0  0  0  0
  184.4810  178.9040  144.6240 C   0  0  0  0  0  3  0  0  0  0  0  0
  189.5570  176.6200  141.9790 C   0  0  0  0  0  0  0  0  0  0  0  0
  190.0050  175.9990  143.2720 C   0  0  1  0  0  3  0  0  0  0  0  0
  187.5660  178.0240  138.2850 C   0  0  2  0  0  3  0  0  0  0  0  0
  185.7040  178.9070  139.7120 C   0  0  0  0  0  2  0  0  0  0  0  0
  190.4520  176.8630  145.4190 N   0  0  0  0  0  0  0  0  0  0  0  0
  184.2640  178.9050  142.1830 C   0  0  0  0  0  3  0  0  0  0  0  0
  186.2450  178.1690  140.8570 N   0  0  0  0  0  0  0  0  0  0  0  0
  185.4230  177.9410  142.0570 C   0  0  1  0  0  3  0  0  0  0  0  0
  187.5480  177.4910  143.2410 C   0  0  0  0  0  0  0  0  0  0  0  0
  191.7080  176.4340  144.9690 N   0  0  0  0  0  2  0  0  0  0  0  0
  186.0520  178.2320  138.3870 C   0  0  2  0  0  3  0  0  0  0  0  0
  191.5120  176.0990  143.5440 C   0  0  0  0  0  2  0  0  0  0  0  0
  185.6500  178.2580  144.5970 C   0  0  0  0  0  3  0  0  0  0  0  0
  186.2760  177.9120  143.3070 C   0  0  0  0  0  0  0  0  0  0  0  0
  188.3460  177.3890  144.4310 N   0  0  0  0  0  0  0  0  0  0  0  0
  188.1050  177.1680  139.4320 C   0  0  0  0  0  2  0  0  0  0  0  0
  190.3060  176.5760  140.9670 O   0  0  0  0  0  0  0  0  0  0  0  0
  190.2710  177.5560  146.6820 C   0  0  0  0  0  1  0  0  0  0  0  0
  188.1920  177.2200  141.9240 C   0  0  0  0  0  0  0  0  0  0  0  0
  189.4630  176.7250  144.4320 C   0  0  0  0  0  0  0  0  0  0  0  0
  184.3300  177.0230  137.0580 C   0  0  0  0  0  2  0  0  0  0  0  0
  185.2930  176.9200  138.2240 C   0  0  1  0  0  3  0  0  0  0  0  0
  185.6490  176.3000  136.8880 C   0  0  1  0  0  3  0  0  0  0  0  0
  185.4280  174.8640  136.9560 N   0  0  0  0  0  2  0  0  0  0  0  0
  184.8650  174.1350  135.8650 C   0  0  0  0  0  0  0  0  0  0  0  0
  184.5410  174.7210  134.7990 O   0  0  0  0  0  0  0  0  0  0  0  0
  184.6600  172.6690  135.9900 C   0  0  0  0  0  1  0  0  0  0  0  0
  189.4110  179.0090  137.5620 C   0  0  0  0  0  1  0  0  0  0  0  0
  188.2240  179.2560  138.2530 O   0  0  0  0  0  0  0  0  0  0  0  0
  1 10  1  0  0  0  0
  1 22  2  0  0  0  0
  2  3  1  0  0  0  0
  4  5  1  0  0  0  0
  5 15  1  1  0  0  0
  5 23  1  0  0  0  0
  6 32  1  1  0  0  0
  6 14  1  0  0  0  0
  6 19  1  0  0  0  0
  7 10  1  0  0  0  0
  8 21  1  0  0  0  0
  9  2  2  0  0  0  0
 10 11  1  0  0  0  0
 11  9  1  1  0  0  0
 11 17  1  0  0  0  0
 12 17  2  0  0  0  0
 12 18  1  0  0  0  0
 13  8  1  0  0  0  0
 14  7  1  1  0  0  0
 15 13  1  0  0  0  0
 16  3  2  0  0  0  0
 17 16  1  0  0  0  0
 18 23  2  0  0  0  0
 19  1  1  0  0  0  0
 20  4  2  0  0  0  0
 22  4  1  0  0  0  0
 22 12  1  0  0  0  0
 23  8  1  0  0  0  0
 25 24  1  6  0  0  0
 25 14  1  0  0  0  0
 26 27  1  1  0  0  0
 26 24  1  0  0  0  0
 26 25  1  0  0  0  0
 28 30  1  0  0  0  0
 28 27  1  0  0  0  0
 29 28  2  0  0  0  0
 31 32  1  0  0  0  0
M  END
>  <MODEL>
6

>  <REMARK>
 VINA RESULT:      -6.8      4.262      6.435
  Name = 
  3 active torsions:
  status: ('A' for Active; 'I' for Inactive)
    1  A    between atoms: C_7  and  O_19
    2  A    between atoms: C_10  and  C_17
    3  A    between atoms: C_20  and  N_29
                            x       y       z     vdW  Elec       q    Type
                         _______ _______ _______ _____ _____    ______ ____

>  <TORSDO>
F 3

$$$$
=
 OpenBabel11122410483D

 32 37  0  0  1  0  0  0  0  0999 V2000
  187.3490  177.8060  141.1520 C   0  0  0  0  0  0  0  0  0  0  0  0
  182.7650  179.2130  142.0410 C   0  0  0  0  0  3  0  0  0  0  0  0
  182.9720  178.9940  143.4850 C   0  0  0  0  0  3  0  0  0  0  0  0
  188.8620  177.2290  143.0790 C   0  0  0  0  0  0  0  0  0  0  0  0
  188.8690  176.7680  144.5090 C   0  0  1  0  0  3  0  0  0  0  0  0
  188.2220  178.0840  138.7850 C   0  0  2  0  0  3  0  0  0  0  0  0
  185.8900  178.8090  139.3530 C   0  0  0  0  0  2  0  0  0  0  0  0
  188.4170  177.8370  146.5610 N   0  0  0  0  0  0  0  0  0  0  0  0
  183.6590  178.7910  141.1410 C   0  0  0  0  0  3  0  0  0  0  0  0
  186.0480  178.2350  140.6920 N   0  0  0  0  0  0  0  0  0  0  0  0
  184.8740  177.9850  141.5430 C   0  0  1  0  0  3  0  0  0  0  0  0
  186.4560  177.9100  143.4430 C   0  0  0  0  0  0  0  0  0  0  0  0
  189.7870  177.5490  146.6350 N   0  0  0  0  0  2  0  0  0  0  0  0
  186.7610  178.0930  138.3230 C   0  0  2  0  0  3  0  0  0  0  0  0
  190.1560  177.0890  145.2810 C   0  0  0  0  0  2  0  0  0  0  0  0
  184.1280  178.5110  143.9460 C   0  0  0  0  0  3  0  0  0  0  0  0
  185.2130  178.1600  143.0080 C   0  0  0  0  0  0  0  0  0  0  0  0
  186.7730  178.0030  144.8420 N   0  0  0  0  0  0  0  0  0  0  0  0
  188.3890  177.3930  140.1390 C   0  0  0  0  0  2  0  0  0  0  0  0
  189.9290  177.2130  142.4080 O   0  0  0  0  0  0  0  0  0  0  0  0
  187.7210  178.5880  147.5910 C   0  0  0  0  0  1  0  0  0  0  0  0
  187.5590  177.6340  142.4780 C   0  0  0  0  0  0  0  0  0  0  0  0
  187.8730  177.4960  145.3120 C   0  0  0  0  0  0  0  0  0  0  0  0
  185.8180  176.5570  136.6080 C   0  0  0  0  0  2  0  0  0  0  0  0
  186.2480  176.6830  138.0550 C   0  0  1  0  0  3  0  0  0  0  0  0
  187.1550  176.0030  137.0500 C   0  0  1  0  0  3  0  0  0  0  0  0
  187.0550  174.5620  137.2160 N   0  0  0  0  0  2  0  0  0  0  0  0
  187.4710  173.6540  136.1950 C   0  0  0  0  0  0  0  0  0  0  0  0
  187.9460  174.0810  135.1100 O   0  0  0  0  0  0  0  0  0  0  0  0
  187.3430  172.1910  136.4180 C   0  0  0  0  0  1  0  0  0  0  0  0
  189.0560  179.7020  137.5270 C   0  0  0  0  0  1  0  0  0  0  0  0
  188.7200  179.3880  138.8440 O   0  0  0  0  0  0  0  0  0  0  0  0
  1 22  2  0  0  0  0
  2  3  1  0  0  0  0
  3 16  2  0  0  0  0
  4  5  1  0  0  0  0
  5 15  1  1  0  0  0
  5 23  1  0  0  0  0
  6 32  1  1  0  0  0
  6 19  1  0  0  0  0
  7 10  1  0  0  0  0
  8 13  1  0  0  0  0
  8 21  1  0  0  0  0
  9  2  2  0  0  0  0
 10  1  1  0  0  0  0
 10 11  1  0  0  0  0
 11  9  1  6  0  0  0
 11 17  1  0  0  0  0
 12 18  1  0  0  0  0
 14  6  1  0  0  0  0
 14  7  1  1  0  0  0
 15 13  1  0  0  0  0
 17 12  2  0  0  0  0
 17 16  1  0  0  0  0
 18 23  2  0  0  0  0
 19  1  1  0  0  0  0
 20  4  2  0  0  0  0
 22  4  1  0  0  0  0
 22 12  1  0  0  0  0
 23  8  1  0  0  0  0
 24 26  1  0  0  0  0
 25 24  1  6  0  0  0
 25 14  1  0  0  0  0
 26 27  1  1  0  0  0
 26 25  1  0  0  0  0
 28 30  1  0  0  0  0
 28 27  1  0  0  0  0
 29 28  2  0  0  0  0
 31 32  1  0  0  0  0
M  END
>  <MODEL>
7

>  <REMARK>
 VINA RESULT:      -6.8      4.011      6.654
  Name = 
  3 active torsions:
  status: ('A' for Active; 'I' for Inactive)
    1  A    between atoms: C_7  and  O_19
    2  A    between atoms: C_10  and  C_17
    3  A    between atoms: C_20  and  N_29
                            x       y       z     vdW  Elec       q    Type
                         _______ _______ _______ _____ _____    ______ ____

>  <TORSDO>
F 3

$$$$
=
 OpenBabel11122410483D

 32 37  0  0  1  0  0  0  0  0999 V2000
  184.8550  178.0270  138.4670 C   0  0  0  0  0  0  0  0  0  0  0  0
  183.2300  175.0910  134.9280 C   0  0  0  0  0  3  0  0  0  0  0  0
  184.6180  174.7160  134.5950 C   0  0  0  0  0  3  0  0  0  0  0  0
  187.3230  178.1360  138.9490 C   0  0  0  0  0  0  0  0  0  0  0  0
  188.6800  177.9140  138.3430 C   0  0  1  0  0  3  0  0  0  0  0  0
  183.1290  179.0680  140.0100 C   0  0  2  0  0  3  0  0  0  0  0  0
  182.3990  177.5170  138.1810 C   0  0  0  0  0  2  0  0  0  0  0  0
  189.9380  175.9850  137.8410 N   0  0  0  0  0  0  0  0  0  0  0  0
  182.9670  176.1020  135.7610 C   0  0  0  0  0  3  0  0  0  0  0  0
  183.7760  177.4760  137.6790 N   0  0  0  0  0  0  0  0  0  0  0  0
  184.0660  176.9750  136.3260 C   0  0  1  0  0  3  0  0  0  0  0  0
  186.3990  176.6870  137.0960 C   0  0  0  0  0  0  0  0  0  0  0  0
  190.6770  176.6030  138.8590 N   0  0  0  0  0  2  0  0  0  0  0  0
  182.0970  178.8280  138.9030 C   0  0  2  0  0  3  0  0  0  0  0  0
  189.8080  177.6880  139.3590 C   0  0  0  0  0  2  0  0  0  0  0  0
  185.6500  175.2710  135.2350 C   0  0  0  0  0  3  0  0  0  0  0  0
  185.4170  176.2940  136.2720 C   0  0  0  0  0  0  0  0  0  0  0  0
  187.7070  176.0990  137.0060 N   0  0  0  0  0  0  0  0  0  0  0  0
  184.5550  179.1230  139.4600 C   0  0  0  0  0  2  0  0  0  0  0  0
  187.2160  178.7530  140.0430 O   0  0  0  0  0  0  0  0  0  0  0  0
  190.3060  174.6960  137.2830 C   0  0  0  0  0  1  0  0  0  0  0  0
  186.1290  177.6640  138.1910 C   0  0  0  0  0  0  0  0  0  0  0  0
  188.7290  176.6540  137.5860 C   0  0  0  0  0  0  0  0  0  0  0  0
  180.6100  180.2570  137.5110 C   0  0  0  0  0  2  0  0  0  0  0  0
  182.0440  179.9940  137.9230 C   0  0  1  0  0  3  0  0  0  0  0  0
  181.2730  181.1380  138.5490 C   0  0  1  0  0  3  0  0  0  0  0  0
  181.6880  182.3870  137.9310 N   0  0  0  0  0  2  0  0  0  0  0  0
  180.7830  183.4760  137.7490 C   0  0  0  0  0  0  0  0  0  0  0  0
  179.5850  183.3870  138.1250 O   0  0  0  0  0  0  0  0  0  0  0  0
  181.2620  184.7300  137.1110 C   0  0  0  0  0  1  0  0  0  0  0  0
  183.9250  178.4680  141.9850 C   0  0  0  0  0  1  0  0  0  0  0  0
  183.0280  178.0770  140.9910 O   0  0  0  0  0  0  0  0  0  0  0  0
  1 19  1  0  0  0  0
  2  9  2  0  0  0  0
  3  2  1  0  0  0  0
  3 16  2  0  0  0  0
  4 20  2  0  0  0  0
  5  4  1  0  0  0  0
  5 15  1  1  0  0  0
  6 32  1  1  0  0  0
  8 13  1  0  0  0  0
 10  7  1  0  0  0  0
 10  1  1  0  0  0  0
 11  9  1  1  0  0  0
 11 10  1  0  0  0  0
 12 22  1  0  0  0  0
 13 15  1  0  0  0  0
 14  7  1  6  0  0  0
 14  6  1  0  0  0  0
 16 17  1  0  0  0  0
 17 11  1  0  0  0  0
 17 12  2  0  0  0  0
 18 12  1  0  0  0  0
 18 23  2  0  0  0  0
 19  6  1  0  0  0  0
 21  8  1  0  0  0  0
 22  1  2  0  0  0  0
 22  4  1  0  0  0  0
 23  8  1  0  0  0  0
 23  5  1  0  0  0  0
 24 26  1  0  0  0  0
 25 24  1  6  0  0  0
 25 26  1  0  0  0  0
 25 14  1  0  0  0  0
 26 27  1  6  0  0  0
 28 27  1  0  0  0  0
 28 29  2  0  0  0  0
 30 28  1  0  0  0  0
 32 31  1  0  0  0  0
M  END
>  <MODEL>
8

>  <REMARK>
 VINA RESULT:      -6.5      3.269      5.292
  Name = 
  3 active torsions:
  status: ('A' for Active; 'I' for Inactive)
    1  A    between atoms: C_7  and  O_19
    2  A    between atoms: C_10  and  C_17
    3  A    between atoms: C_20  and  N_29
                            x       y       z     vdW  Elec       q    Type
                         _______ _______ _______ _____ _____    ______ ____

>  <TORSDO>
F 3

$$$$
=
 OpenBabel11122410483D

 32 37  0  0  1  0  0  0  0  0999 V2000
  189.6130  177.1070  141.9050 C   0  0  0  0  0  0  0  0  0  0  0  0
  185.2970  179.3780  141.9800 C   0  0  0  0  0  3  0  0  0  0  0  0
  185.2370  179.2250  143.4470 C   0  0  0  0  0  3  0  0  0  0  0  0
  190.6780  176.4020  144.0740 C   0  0  0  0  0  0  0  0  0  0  0  0
  190.3800  176.0470  145.5030 C   0  0  1  0  0  3  0  0  0  0  0  0
  190.8720  177.0590  139.7020 C   0  0  2  0  0  3  0  0  0  0  0  0
  188.6610  178.2310  139.8540 C   0  0  0  0  0  2  0  0  0  0  0  0
  189.8310  177.3190  147.4110 N   0  0  0  0  0  0  0  0  0  0  0  0
  186.2210  178.7400  141.2560 C   0  0  0  0  0  3  0  0  0  0  0  0
  188.5020  177.7310  141.2240 N   0  0  0  0  0  0  0  0  0  0  0  0
  187.1860  177.7570  141.8820 C   0  0  1  0  0  3  0  0  0  0  0  0
  188.4170  177.5300  144.0150 C   0  0  0  0  0  0  0  0  0  0  0  0
  191.0940  176.7950  147.7170 N   0  0  0  0  0  2  0  0  0  0  0  0
  189.5270  177.3000  139.0080 C   0  0  2  0  0  3  0  0  0  0  0  0
  191.5710  176.1830  146.4610 C   0  0  0  0  0  2  0  0  0  0  0  0
  186.1970  178.5740  144.1090 C   0  0  0  0  0  3  0  0  0  0  0  0
  187.3250  177.9690  143.3740 C   0  0  0  0  0  0  0  0  0  0  0  0
  188.5290  177.6600  145.4410 N   0  0  0  0  0  0  0  0  0  0  0  0
  190.6970  176.4450  141.0910 C   0  0  0  0  0  2  0  0  0  0  0  0
  191.8120  176.1470  143.5860 O   0  0  0  0  0  0  0  0  0  0  0  0
  189.1410  178.2530  148.2830 C   0  0  0  0  0  1  0  0  0  0  0  0
  189.5820  176.9930  143.2530 C   0  0  0  0  0  0  0  0  0  0  0  0
  189.4290  176.9970  146.1040 C   0  0  0  0  0  0  0  0  0  0  0  0
  187.7940  176.1960  137.6060 C   0  0  0  0  0  2  0  0  0  0  0  0
  188.8030  175.9910  138.7170 C   0  0  1  0  0  3  0  0  0  0  0  0
  189.1270  175.5440  137.3060 C   0  0  1  0  0  3  0  0  0  0  0  0
  188.9530  174.1040  137.2110 N   0  0  0  0  0  2  0  0  0  0  0  0
  188.5470  173.4710  135.9970 C   0  0  0  0  0  0  0  0  0  0  0  0
  188.3280  174.1510  134.9600 O   0  0  0  0  0  0  0  0  0  0  0  0
  188.3840  171.9950  135.9560 C   0  0  0  0  0  1  0  0  0  0  0  0
  192.8650  177.8700  140.2190 C   0  0  0  0  0  1  0  0  0  0  0  0
  191.5940  178.2530  139.7900 O   0  0  0  0  0  0  0  0  0  0  0  0
  1 22  2  0  0  0  0
  2  3  1  0  0  0  0
  3 16  2  0  0  0  0
  4  5  1  0  0  0  0
  5 23  1  0  0  0  0
  5 15  1  1  0  0  0
  6 32  1  1  0  0  0
  6 19  1  0  0  0  0
  7 10  1  0  0  0  0
  8 13  1  0  0  0  0
  8 21  1  0  0  0  0
  9  2  2  0  0  0  0
 10 11  1  0  0  0  0
 10  1  1  0  0  0  0
 11  9  1  6  0  0  0
 11 17  1  0  0  0  0
 12 18  1  0  0  0  0
 14  6  1  0  0  0  0
 14  7  1  1  0  0  0
 15 13  1  0  0  0  0
 17 12  2  0  0  0  0
 17 16  1  0  0  0  0
 18 23  2  0  0  0  0
 19  1  1  0  0  0  0
 20  4  2  0  0  0  0
 22 12  1  0  0  0  0
 22  4  1  0  0  0  0
 23  8  1  0  0  0  0
 25 24  1  6  0  0  0
 25 14  1  0  0  0  0
 26 27  1  1  0  0  0
 26 24  1  0  0  0  0
 26 25  1  0  0  0  0
 28 27  1  0  0  0  0
 29 28  2  0  0  0  0
 30 28  1  0  0  0  0
 32 31  1  0  0  0  0
M  END
>  <MODEL>
9

>  <REMARK>
 VINA RESULT:      -6.4      5.255      7.978
  Name = 
  3 active torsions:
  status: ('A' for Active; 'I' for Inactive)
    1  A    between atoms: C_7  and  O_19
    2  A    between atoms: C_10  and  C_17
    3  A    between atoms: C_20  and  N_29
                            x       y       z     vdW  Elec       q    Type
                         _______ _______ _______ _____ _____    ______ ____

>  <TORSDO>
F 3

$$$$
