=
 OpenBabel11122410273D

 30 35  0  0  1  0  0  0  0  0999 V2000
  189.4050  177.3520  143.2710 C   0  0  0  0  0  0  0  0  0  0  0  0
  191.3140  176.3120  144.5360 C   0  0  0  0  0  0  0  0  0  0  0  0
  187.3370  178.1310  146.8400 N   0  0  0  0  0  0  0  0  0  0  0  0
  188.1000  177.9260  143.2990 C   0  0  0  0  0  0  0  0  0  0  0  0
  190.0540  177.2490  142.0350 C   0  0  0  0  0  3  0  0  0  0  0  0
  187.5500  178.5970  139.6870 O   0  0  0  0  0  1  0  0  0  0  0  0
  185.0580  177.9190  142.9120 C   0  0  1  0  0  3  0  0  0  0  0  0
  188.1570  178.2080  140.8780 C   0  0  0  0  0  0  0  0  0  0  0  0
  185.0280  178.2310  144.3550 N   0  0  2  0  0  0  0  0  0  0  0  0
  186.2980  178.7630  146.3920 C   0  0  0  0  0  0  0  0  0  0  0  0
  189.4550  177.6830  140.8450 C   0  0  0  0  0  0  0  0  0  0  0  0
  187.4640  178.3150  142.0970 C   0  0  0  0  0  0  0  0  0  0  0  0
  191.8720  175.9390  145.7620 C   0  0  0  0  0  3  0  0  0  0  0  0
  183.9050  179.1480  144.5060 C   0  0  0  0  0  2  0  0  0  0  0  0
  183.6440  178.0710  142.3780 C   0  0  0  0  0  2  0  0  0  0  0  0
  192.0560  176.0600  143.3870 O   0  0  0  0  0  1  0  0  0  0  0  0
  188.0910  177.7340  145.7090 C   0  0  0  0  0  0  0  0  0  0  0  0
  191.1870  176.1570  146.9550 C   0  0  0  0  0  3  0  0  0  0  0  0
  190.0300  176.9230  144.4890 C   0  0  0  0  0  0  0  0  0  0  0  0
  187.4860  178.1160  144.5450 C   0  0  0  0  0  0  0  0  0  0  0  0
  185.3050  179.3780  147.3160 C   0  0  0  0  0  1  0  0  0  0  0  0
  186.2400  178.8800  144.8840 C   0  0  1  0  0  3  0  0  0  0  0  0
  182.8710  178.7640  143.4730 C   0  0  0  0  0  2  0  0  0  0  0  0
  185.6810  179.7530  141.4640 O   0  0  0  0  0  0  0  0  0  0  0  0
  189.9290  176.7510  146.9360 C   0  0  0  0  0  3  0  0  0  0  0  0
  189.3450  177.1280  145.7220 C   0  0  0  0  0  0  0  0  0  0  0  0
  186.0490  178.7310  142.1050 C   0  0  0  0  0  0  0  0  0  0  0  0
  190.1390  177.5770  139.5890 N   0  0  0  0  0  0  0  0  0  0  0  0
  191.2860  176.4310  137.8060 C   0  0  0  0  0  1  0  0  0  0  0  0
  190.5870  176.4570  139.1160 C   0  0  0  0  0  3  0  0  0  0  0  0
  1  4  1  0  0  0  0
  1 19  1  0  0  0  0
  2 13  1  0  0  0  0
  4 20  1  0  0  0  0
  5  1  2  0  0  0  0
  6  8  1  0  0  0  0
  7 15  1  6  0  0  0
  7  9  1  0  0  0  0
  8 12  1  0  0  0  0
  9 14  1  6  0  0  0
  9 22  1  0  0  0  0
 10  3  2  0  0  0  0
 10 21  1  0  0  0  0
 11  8  2  0  0  0  0
 11  5  1  0  0  0  0
 12 27  1  0  0  0  0
 12  4  2  0  0  0  0
 13 18  2  0  0  0  0
 15 23  1  0  0  0  0
 16  2  1  0  0  0  0
 17 26  1  0  0  0  0
 17  3  1  0  0  0  0
 19  2  2  0  0  0  0
 19 26  1  0  0  0  0
 20 17  2  0  0  0  0
 22 20  1  6  0  0  0
 22 10  1  0  0  0  0
 23 14  1  0  0  0  0
 24 27  2  0  0  0  0
 25 18  1  0  0  0  0
 26 25  2  0  0  0  0
 27  7  1  0  0  0  0
 28 11  1  0  0  0  0
 29 30  1  0  0  0  0
 30 28  2  0  0  0  0
M  END
>  <MODEL>
1

>  <REMARK>
 VINA RESULT:     -10.7      0.000      0.000
  Name = 
  1 active torsions:
  status: ('A' for Active; 'I' for Inactive)
    1  A    between atoms: C_11  and  N_28
                            x       y       z     vdW  Elec       q    Type
                         _______ _______ _______ _____ _____    ______ ____

>  <TORSDO>
F 1

$$$$
=
 OpenBabel11122410273D

 30 35  0  0  1  0  0  0  0  0999 V2000
  185.9730  178.3830  141.9380 C   0  0  0  0  0  0  0  0  0  0  0  0
  183.5440  178.9600  142.2420 C   0  0  0  0  0  0  0  0  0  0  0  0
  186.4240  177.6800  146.0520 N   0  0  0  0  0  0  0  0  0  0  0  0
  187.2250  178.0470  142.5320 C   0  0  0  0  0  0  0  0  0  0  0  0
  185.9090  178.4740  140.5420 C   0  0  0  0  0  3  0  0  0  0  0  0
  189.3870  177.7910  139.5220 O   0  0  0  0  0  1  0  0  0  0  0  0
  190.0740  178.6210  143.5110 C   0  0  1  0  0  3  0  0  0  0  0  0
  188.2650  177.9650  140.3280 C   0  0  0  0  0  0  0  0  0  0  0  0
  189.5440  178.1990  144.8220 N   0  0  2  0  0  0  0  0  0  0  0  0
  187.6550  177.2810  146.1020 C   0  0  0  0  0  0  0  0  0  0  0  0
  187.0320  178.2550  139.7330 C   0  0  0  0  0  0  0  0  0  0  0  0
  188.3760  177.8790  141.7280 C   0  0  0  0  0  0  0  0  0  0  0  0
  182.4550  179.1240  143.1030 C   0  0  0  0  0  3  0  0  0  0  0  0
  190.6490  177.4830  145.4480 C   0  0  0  0  0  2  0  0  0  0  0  0
  191.5800  178.7660  143.6460 C   0  0  0  0  0  2  0  0  0  0  0  0
  183.3320  179.1740  140.8850 O   0  0  0  0  0  1  0  0  0  0  0  0
  186.1640  178.0330  144.7040 C   0  0  0  0  0  0  0  0  0  0  0  0
  182.5910  178.9300  144.4750 C   0  0  0  0  0  3  0  0  0  0  0  0
  184.8170  178.5900  142.7610 C   0  0  0  0  0  0  0  0  0  0  0  0
  187.2710  177.8630  143.9210 C   0  0  0  0  0  0  0  0  0  0  0  0
  188.2560  176.7740  147.3670 C   0  0  0  0  0  1  0  0  0  0  0  0
  188.3740  177.3040  144.7700 C   0  0  1  0  0  3  0  0  0  0  0  0
  191.9290  178.1290  144.9690 C   0  0  0  0  0  2  0  0  0  0  0  0
  190.5020  176.8360  141.9360 O   0  0  0  0  0  0  0  0  0  0  0  0
  183.8260  178.5700  145.0070 C   0  0  0  0  0  3  0  0  0  0  0  0
  184.9340  178.4060  144.1700 C   0  0  0  0  0  0  0  0  0  0  0  0
  189.7030  177.7190  142.3530 C   0  0  0  0  0  0  0  0  0  0  0  0
  186.9440  178.3450  138.3040 N   0  0  0  0  0  0  0  0  0  0  0  0
  186.3780  177.5860  136.0880 C   0  0  0  0  0  1  0  0  0  0  0  0
  186.4300  177.4150  137.5630 C   0  0  0  0  0  3  0  0  0  0  0  0
  1  4  1  0  0  0  0
  1 19  1  0  0  0  0
  2 19  2  0  0  0  0
  2 13  1  0  0  0  0
  3 10  2  0  0  0  0
  4 20  1  0  0  0  0
  5  1  2  0  0  0  0
  6  8  1  0  0  0  0
  7 15  1  1  0  0  0
  7  9  1  0  0  0  0
  8 12  1  0  0  0  0
  9 14  1  6  0  0  0
 10 21  1  0  0  0  0
 11  8  2  0  0  0  0
 11  5  1  0  0  0  0
 12 27  1  0  0  0  0
 12  4  2  0  0  0  0
 13 18  2  0  0  0  0
 15 23  1  0  0  0  0
 16  2  1  0  0  0  0
 17  3  1  0  0  0  0
 18 25  1  0  0  0  0
 19 26  1  0  0  0  0
 20 17  2  0  0  0  0
 22 20  1  6  0  0  0
 22  9  1  0  0  0  0
 22 10  1  0  0  0  0
 23 14  1  0  0  0  0
 24 27  2  0  0  0  0
 26 17  1  0  0  0  0
 26 25  2  0  0  0  0
 27  7  1  0  0  0  0
 28 11  1  0  0  0  0
 29 30  1  0  0  0  0
 30 28  2  0  0  0  0
M  END
>  <MODEL>
2

>  <REMARK>
 VINA RESULT:     -10.6      1.933      5.465
  Name = 
  1 active torsions:
  status: ('A' for Active; 'I' for Inactive)
    1  A    between atoms: C_11  and  N_28
                            x       y       z     vdW  Elec       q    Type
                         _______ _______ _______ _____ _____    ______ ____

>  <TORSDO>
F 1

$$$$
=
 OpenBabel11122410273D

 30 35  0  0  1  0  0  0  0  0999 V2000
  187.7590  177.8790  142.7120 C   0  0  0  0  0  0  0  0  0  0  0  0
  189.0100  177.2500  144.8020 C   0  0  0  0  0  0  0  0  0  0  0  0
  184.2600  178.6160  144.9100 N   0  0  0  0  0  0  0  0  0  0  0  0
  186.5250  178.2460  142.1000 C   0  0  0  0  0  0  0  0  0  0  0  0
  188.8940  177.7780  141.8980 C   0  0  0  0  0  3  0  0  0  0  0  0
  187.5600  178.5320  138.5440 O   0  0  0  0  0  1  0  0  0  0  0  0
  183.9850  177.7400  140.4580 C   0  0  1  0  0  3  0  0  0  0  0  0
  187.6160  178.3380  139.9220 C   0  0  0  0  0  0  0  0  0  0  0  0
  183.2880  178.1590  141.6900 N   0  0  2  0  0  0  0  0  0  0  0  0
  183.4660  179.0420  143.9780 C   0  0  0  0  0  0  0  0  0  0  0  0
  188.8410  178.0180  140.5190 C   0  0  0  0  0  0  0  0  0  0  0  0
  186.4490  178.4350  140.7000 C   0  0  0  0  0  0  0  0  0  0  0  0
  189.0030  177.0670  146.1880 C   0  0  0  0  0  3  0  0  0  0  0  0
  182.1270  178.9020  141.2190 C   0  0  0  0  0  2  0  0  0  0  0  0
  182.9450  177.6290  139.3550 C   0  0  0  0  0  2  0  0  0  0  0  0
  190.2040  177.0240  144.1260 O   0  0  0  0  0  1  0  0  0  0  0  0
  185.4720  178.2490  144.2760 C   0  0  0  0  0  0  0  0  0  0  0  0
  187.8440  177.2730  146.9310 C   0  0  0  0  0  3  0  0  0  0  0  0
  187.8230  177.6510  144.1270 C   0  0  0  0  0  0  0  0  0  0  0  0
  185.4080  178.4390  142.9250 C   0  0  0  0  0  0  0  0  0  0  0  0
  182.1100  179.5690  144.2950 C   0  0  0  0  0  1  0  0  0  0  0  0
  184.0690  179.0270  142.5900 C   0  0  1  0  0  3  0  0  0  0  0  0
  181.7010  178.2810  139.9070 C   0  0  0  0  0  2  0  0  0  0  0  0
  184.9910  179.5260  139.1730 O   0  0  0  0  0  0  0  0  0  0  0  0
  186.6690  177.6630  146.2940 C   0  0  0  0  0  3  0  0  0  0  0  0
  186.6460  177.8460  144.9080 C   0  0  0  0  0  0  0  0  0  0  0  0
  185.1400  178.6280  140.0460 C   0  0  0  0  0  0  0  0  0  0  0  0
  190.0160  177.9170  139.7040 N   0  0  0  0  0  0  0  0  0  0  0  0
  191.8590  176.7850  138.6420 C   0  0  0  0  0  1  0  0  0  0  0  0
  190.6480  176.8040  139.5000 C   0  0  0  0  0  3  0  0  0  0  0  0
  1 19  1  0  0  0  0
  2 13  1  0  0  0  0
  4  1  1  0  0  0  0
  4 20  1  0  0  0  0
  5  1  2  0  0  0  0
  6  8  1  0  0  0  0
  7 15  1  6  0  0  0
  7  9  1  0  0  0  0
  8 11  2  0  0  0  0
  8 12  1  0  0  0  0
  9 14  1  6  0  0  0
  9 22  1  0  0  0  0
 10 21  1  0  0  0  0
 10  3  2  0  0  0  0
 11  5  1  0  0  0  0
 12  4  2  0  0  0  0
 13 18  2  0  0  0  0
 15 23  1  0  0  0  0
 16  2  1  0  0  0  0
 17 26  1  0  0  0  0
 17  3  1  0  0  0  0
 19  2  2  0  0  0  0
 19 26  1  0  0  0  0
 20 17  2  0  0  0  0
 22 20  1  1  0  0  0
 22 10  1  0  0  0  0
 23 14  1  0  0  0  0
 24 27  2  0  0  0  0
 25 18  1  0  0  0  0
 26 25  2  0  0  0  0
 27  7  1  0  0  0  0
 27 12  1  0  0  0  0
 28 11  1  0  0  0  0
 29 30  1  0  0  0  0
 30 28  2  0  0  0  0
M  END
>  <MODEL>
3

>  <REMARK>
 VINA RESULT:     -10.5      1.585      2.678
  Name = 
  1 active torsions:
  status: ('A' for Active; 'I' for Inactive)
    1  A    between atoms: C_11  and  N_28
                            x       y       z     vdW  Elec       q    Type
                         _______ _______ _______ _____ _____    ______ ____

>  <TORSDO>
F 1

$$$$
=
 OpenBabel11122410273D

 30 35  0  0  1  0  0  0  0  0999 V2000
  188.4160  177.7000  142.1560 C   0  0  0  0  0  0  0  0  0  0  0  0
  190.1070  176.9440  143.8570 C   0  0  0  0  0  0  0  0  0  0  0  0
  185.5560  178.3730  145.1540 N   0  0  0  0  0  0  0  0  0  0  0  0
  187.0820  178.1170  141.8730 C   0  0  0  0  0  0  0  0  0  0  0  0
  189.3230  177.6250  141.0930 C   0  0  0  0  0  3  0  0  0  0  0  0
  187.2550  178.5720  138.1900 O   0  0  0  0  0  1  0  0  0  0  0  0
  184.2130  177.7360  140.8580 C   0  0  1  0  0  3  0  0  0  0  0  0
  187.6300  178.3060  139.5040 C   0  0  0  0  0  0  0  0  0  0  0  0
  183.8390  178.1000  142.2390 N   0  0  2  0  0  0  0  0  0  0  0  0
  184.5770  178.8600  144.4590 C   0  0  0  0  0  0  0  0  0  0  0  0
  188.9520  177.9370  139.7780 C   0  0  0  0  0  0  0  0  0  0  0  0
  186.6820  178.3800  140.5410 C   0  0  0  0  0  0  0  0  0  0  0  0
  190.4240  176.6890  145.1950 C   0  0  0  0  0  3  0  0  0  0  0  0
  182.6200  178.8840  142.0920 C   0  0  0  0  0  2  0  0  0  0  0  0
  182.9400  177.6980  140.0300 C   0  0  0  0  0  2  0  0  0  0  0  0
  191.1010  176.7350  142.9080 O   0  0  0  0  0  1  0  0  0  0  0  0
  186.5740  178.0230  144.2340 C   0  0  0  0  0  0  0  0  0  0  0  0
  189.4780  176.8730  146.2010 C   0  0  0  0  0  3  0  0  0  0  0  0
  188.8060  177.3970  143.5030 C   0  0  0  0  0  0  0  0  0  0  0  0
  186.1970  178.2830  142.9480 C   0  0  0  0  0  0  0  0  0  0  0  0
  183.3480  179.3900  145.1120 C   0  0  0  0  0  1  0  0  0  0  0  0
  184.8330  178.9080  142.9670 C   0  0  1  0  0  3  0  0  0  0  0  0
  181.8790  178.3390  140.8920 C   0  0  0  0  0  2  0  0  0  0  0  0
  184.9350  179.5700  139.4570 O   0  0  0  0  0  0  0  0  0  0  0  0
  188.1980  177.3130  145.8800 C   0  0  0  0  0  3  0  0  0  0  0  0
  187.8530  177.5690  144.5490 C   0  0  0  0  0  0  0  0  0  0  0  0
  185.2620  178.6260  140.2260 C   0  0  0  0  0  0  0  0  0  0  0  0
  189.8990  177.8610  138.7030 N   0  0  0  0  0  0  0  0  0  0  0  0
  191.2300  176.7550  137.0270 C   0  0  0  0  0  1  0  0  0  0  0  0
  190.2410  176.7490  138.1350 C   0  0  0  0  0  3  0  0  0  0  0  0
  1 19  1  0  0  0  0
  2 13  1  0  0  0  0
  4  1  1  0  0  0  0
  4 20  1  0  0  0  0
  5  1  2  0  0  0  0
  6  8  1  0  0  0  0
  7 15  1  6  0  0  0
  7  9  1  0  0  0  0
  8 11  2  0  0  0  0
  8 12  1  0  0  0  0
  9 14  1  6  0  0  0
  9 22  1  0  0  0  0
 10 21  1  0  0  0  0
 10  3  2  0  0  0  0
 11  5  1  0  0  0  0
 12  4  2  0  0  0  0
 13 18  2  0  0  0  0
 15 23  1  0  0  0  0
 16  2  1  0  0  0  0
 17 26  1  0  0  0  0
 17  3  1  0  0  0  0
 19  2  2  0  0  0  0
 19 26  1  0  0  0  0
 20 17  2  0  0  0  0
 22 20  1  1  0  0  0
 22 10  1  0  0  0  0
 23 14  1  0  0  0  0
 24 27  2  0  0  0  0
 25 18  1  0  0  0  0
 26 25  2  0  0  0  0
 27 12  1  0  0  0  0
 27  7  1  0  0  0  0
 28 11  1  0  0  0  0
 29 30  1  0  0  0  0
 30 28  2  0  0  0  0
M  END
>  <MODEL>
4

>  <REMARK>
 VINA RESULT:     -10.1      1.356      1.981
  Name = 
  1 active torsions:
  status: ('A' for Active; 'I' for Inactive)
    1  A    between atoms: C_11  and  N_28
                            x       y       z     vdW  Elec       q    Type
                         _______ _______ _______ _____ _____    ______ ____

>  <TORSDO>
F 1

$$$$
=
 OpenBabel11122410273D

 30 35  0  0  1  0  0  0  0  0999 V2000
  186.8530  178.2360  142.9920 C   0  0  0  0  0  0  0  0  0  0  0  0
  187.8160  177.8450  145.2830 C   0  0  0  0  0  0  0  0  0  0  0  0
  183.0480  178.9630  144.6090 N   0  0  0  0  0  0  0  0  0  0  0  0
  185.7050  178.4870  142.1850 C   0  0  0  0  0  0  0  0  0  0  0  0
  188.0960  178.1290  142.3570 C   0  0  0  0  0  3  0  0  0  0  0  0
  187.2270  178.5380  138.7960 O   0  0  0  0  0  1  0  0  0  0  0  0
  183.4490  177.7170  140.2550 C   0  0  1  0  0  3  0  0  0  0  0  0
  187.0930  178.4590  140.1800 C   0  0  0  0  0  0  0  0  0  0  0  0
  182.5670  178.1970  141.3370 N   0  0  2  0  0  0  0  0  0  0  0  0
  182.3800  179.2700  143.5420 C   0  0  0  0  0  0  0  0  0  0  0  0
  188.2310  178.2540  140.9680 C   0  0  0  0  0  0  0  0  0  0  0  0
  185.8230  178.5580  140.7770 C   0  0  0  0  0  0  0  0  0  0  0  0
  187.6180  177.7740  146.6650 C   0  0  0  0  0  3  0  0  0  0  0  0
  181.4560  178.8370  140.6450 C   0  0  0  0  0  2  0  0  0  0  0  0
  182.5840  177.4630  139.0320 C   0  0  0  0  0  2  0  0  0  0  0  0
  189.1020  177.6270  144.8030 O   0  0  0  0  0  1  0  0  0  0  0  0
  184.3520  178.6110  144.1840 C   0  0  0  0  0  0  0  0  0  0  0  0
  186.3570  177.9780  147.2190 C   0  0  0  0  0  3  0  0  0  0  0  0
  186.7230  178.1270  144.4160 C   0  0  0  0  0  0  0  0  0  0  0  0
  184.4740  178.6870  142.8260 C   0  0  0  0  0  0  0  0  0  0  0  0
  180.9720  179.7490  143.6190 C   0  0  0  0  0  1  0  0  0  0  0  0
  183.1750  179.1750  142.2570 C   0  0  1  0  0  3  0  0  0  0  0  0
  181.2480  178.0910  139.3470 C   0  0  0  0  0  2  0  0  0  0  0  0
  184.5560  179.4430  138.9710 O   0  0  0  0  0  0  0  0  0  0  0  0
  185.2710  178.2530  146.3930 C   0  0  0  0  0  3  0  0  0  0  0  0
  185.4390  178.3220  145.0060 C   0  0  0  0  0  0  0  0  0  0  0  0
  184.6150  178.6280  139.9320 C   0  0  0  0  0  0  0  0  0  0  0  0
  189.5150  178.1490  140.3360 N   0  0  0  0  0  0  0  0  0  0  0  0
  191.6410  177.1280  139.8440 C   0  0  0  0  0  1  0  0  0  0  0  0
  190.3280  177.1610  140.5370 C   0  0  0  0  0  3  0  0  0  0  0  0
  1 19  1  0  0  0  0
  2 13  1  0  0  0  0
  4 20  1  0  0  0  0
  4  1  2  0  0  0  0
  5  1  1  0  0  0  0
  6  8  1  0  0  0  0
  7 15  1  6  0  0  0
  7  9  1  0  0  0  0
  8 12  2  0  0  0  0
  8 11  1  0  0  0  0
  9 14  1  6  0  0  0
  9 22  1  0  0  0  0
 10 21  1  0  0  0  0
 10  3  2  0  0  0  0
 11  5  2  0  0  0  0
 12  4  1  0  0  0  0
 13 18  2  0  0  0  0
 15 23  1  0  0  0  0
 16  2  1  0  0  0  0
 17  3  1  0  0  0  0
 17 26  1  0  0  0  0
 19 26  1  0  0  0  0
 19  2  2  0  0  0  0
 20 17  2  0  0  0  0
 22 20  1  1  0  0  0
 22 10  1  0  0  0  0
 23 14  1  0  0  0  0
 24 27  2  0  0  0  0
 25 18  1  0  0  0  0
 26 25  2  0  0  0  0
 27  7  1  0  0  0  0
 27 12  1  0  0  0  0
 28 30  2  0  0  0  0
 28 11  1  0  0  0  0
 29 30  1  0  0  0  0
M  END
>  <MODEL>
5

>  <REMARK>
 VINA RESULT:     -10.0      2.175      3.593
  Name = 
  1 active torsions:
  status: ('A' for Active; 'I' for Inactive)
    1  A    between atoms: C_11  and  N_28
                            x       y       z     vdW  Elec       q    Type
                         _______ _______ _______ _____ _____    ______ ____

>  <TORSDO>
F 1

$$$$
=
 OpenBabel11122410273D

 30 35  0  0  1  0  0  0  0  0999 V2000
  188.1810  177.8780  142.7960 C   0  0  0  0  0  0  0  0  0  0  0  0
  185.9940  178.2240  143.9900 C   0  0  0  0  0  0  0  0  0  0  0  0
  186.3810  178.6280  139.0780 N   0  0  0  0  0  0  0  0  0  0  0  0
  188.8880  177.7830  141.5620 C   0  0  0  0  0  0  0  0  0  0  0  0
  188.9050  177.7300  143.9850 C   0  0  0  0  0  3  0  0  0  0  0  0
  192.3250  177.0650  142.7740 O   0  0  0  0  0  1  0  0  0  0  0  0
  190.2770  176.2930  139.2690 C   0  0  1  0  0  3  0  0  0  0  0  0
  190.9620  177.3520  142.7680 C   0  0  0  0  0  0  0  0  0  0  0  0
  189.2630  176.9560  138.4270 N   0  0  2  0  0  0  0  0  0  0  0  0
  187.4070  178.5640  138.2890 C   0  0  0  0  0  0  0  0  0  0  0  0
  190.2850  177.4850  143.9850 C   0  0  0  0  0  0  0  0  0  0  0  0
  190.2690  177.4790  141.5500 C   0  0  0  0  0  0  0  0  0  0  0  0
  184.6280  178.5130  143.9200 C   0  0  0  0  0  3  0  0  0  0  0  0
  189.9650  177.2680  137.1880 C   0  0  0  0  0  2  0  0  0  0  0  0
  191.2830  175.6290  138.3440 C   0  0  0  0  0  2  0  0  0  0  0  0
  186.5460  178.0160  145.2490 O   0  0  0  0  0  1  0  0  0  0  0  0
  186.8470  178.3080  140.3770 C   0  0  0  0  0  0  0  0  0  0  0  0
  184.0050  178.7300  142.6940 C   0  0  0  0  0  3  0  0  0  0  0  0
  186.7720  178.1480  142.8010 C   0  0  0  0  0  0  0  0  0  0  0  0
  188.1830  178.0240  140.3740 C   0  0  0  0  0  0  0  0  0  0  0  0
  187.2950  178.9000  136.8420 C   0  0  0  0  0  1  0  0  0  0  0  0
  188.7060  178.2040  138.9790 C   0  0  1  0  0  3  0  0  0  0  0  0
  190.9920  176.1810  136.9690 C   0  0  0  0  0  2  0  0  0  0  0  0
  192.0840  177.7070  140.0330 O   0  0  0  0  0  0  0  0  0  0  0  0
  184.7430  178.6590  141.5160 C   0  0  0  0  0  3  0  0  0  0  0  0
  186.1090  178.3650  141.5570 C   0  0  0  0  0  0  0  0  0  0  0  0
  190.9580  177.1940  140.2770 C   0  0  0  0  0  0  0  0  0  0  0  0
  191.0110  177.3430  145.2140 N   0  0  0  0  0  0  0  0  0  0  0  0
  191.3090  176.7500  147.5310 C   0  0  0  0  0  1  0  0  0  0  0  0
  190.4890  176.8630  146.2980 C   0  0  0  0  0  3  0  0  0  0  0  0
  1 19  1  0  0  0  0
  1  5  1  0  0  0  0
  2 16  1  0  0  0  0
  3 17  1  0  0  0  0
  4  1  2  0  0  0  0
  7 15  1  6  0  0  0
  7 27  1  0  0  0  0
  8  6  1  0  0  0  0
  8 11  1  0  0  0  0
  9 14  1  6  0  0  0
  9 22  1  0  0  0  0
  9  7  1  0  0  0  0
 10  3  2  0  0  0  0
 11  5  2  0  0  0  0
 11 28  1  0  0  0  0
 12  4  1  0  0  0  0
 12  8  2  0  0  0  0
 13  2  1  0  0  0  0
 17 26  1  0  0  0  0
 18 13  2  0  0  0  0
 19  2  2  0  0  0  0
 20 17  2  0  0  0  0
 20  4  1  0  0  0  0
 21 10  1  0  0  0  0
 22 10  1  6  0  0  0
 22 20  1  0  0  0  0
 23 14  1  0  0  0  0
 23 15  1  0  0  0  0
 24 27  2  0  0  0  0
 25 26  2  0  0  0  0
 25 18  1  0  0  0  0
 26 19  1  0  0  0  0
 27 12  1  0  0  0  0
 28 30  2  0  0  0  0
 30 29  1  0  0  0  0
M  END
>  <MODEL>
6

>  <REMARK>
 VINA RESULT:      -9.9      2.133      6.746
  Name = 
  1 active torsions:
  status: ('A' for Active; 'I' for Inactive)
    1  A    between atoms: C_11  and  N_28
                            x       y       z     vdW  Elec       q    Type
                         _______ _______ _______ _____ _____    ______ ____

>  <TORSDO>
F 1

$$$$
=
 OpenBabel11122410273D

 30 35  0  0  1  0  0  0  0  0999 V2000
  188.0890  177.7960  144.4340 C   0  0  0  0  0  0  0  0  0  0  0  0
  186.2940  177.9580  146.1890 C   0  0  0  0  0  0  0  0  0  0  0  0
  185.3530  178.7770  141.4060 N   0  0  0  0  0  0  0  0  0  0  0  0
  188.4430  177.8300  143.0540 C   0  0  0  0  0  0  0  0  0  0  0  0
  189.1070  177.5790  145.3710 C   0  0  0  0  0  3  0  0  0  0  0  0
  192.0900  177.1490  143.2470 O   0  0  0  0  0  1  0  0  0  0  0  0
  189.1950  176.5870  140.3530 C   0  0  1  0  0  3  0  0  0  0  0  0
  190.7710  177.3830  143.6260 C   0  0  0  0  0  0  0  0  0  0  0  0
  187.9820  177.2780  139.8710 N   0  0  2  0  0  0  0  0  0  0  0  0
  186.1320  178.8180  140.3710 C   0  0  0  0  0  0  0  0  0  0  0  0
  190.4400  177.3890  144.9860 C   0  0  0  0  0  0  0  0  0  0  0  0
  189.7760  177.5820  142.6510 C   0  0  0  0  0  0  0  0  0  0  0  0
  184.9540  178.1980  146.5090 C   0  0  0  0  0  3  0  0  0  0  0  0
  188.3240  177.7170  138.5240 C   0  0  0  0  0  2  0  0  0  0  0  0
  189.9290  176.0410  139.1390 C   0  0  0  0  0  2  0  0  0  0  0  0
  187.1650  177.6700  147.2340 O   0  0  0  0  0  1  0  0  0  0  0  0
  186.1520  178.3700  142.5020 C   0  0  0  0  0  0  0  0  0  0  0  0
  184.0240  178.4910  145.5150 C   0  0  0  0  0  3  0  0  0  0  0  0
  186.7280  178.0100  144.8350 C   0  0  0  0  0  0  0  0  0  0  0  0
  187.4430  178.1390  142.1200 C   0  0  0  0  0  0  0  0  0  0  0  0
  185.6340  179.2670  139.0420 C   0  0  0  0  0  1  0  0  0  0  0  0
  187.5730  178.4540  140.6590 C   0  0  1  0  0  3  0  0  0  0  0  0
  189.2720  176.6910  137.9450 C   0  0  0  0  0  2  0  0  0  0  0  0
  191.1180  178.0040  140.7350 O   0  0  0  0  0  0  0  0  0  0  0  0
  184.4220  178.5440  144.1830 C   0  0  0  0  0  3  0  0  0  0  0  0
  185.7550  178.3020  143.8350 C   0  0  0  0  0  0  0  0  0  0  0  0
  190.1050  177.4290  141.2210 C   0  0  0  0  0  0  0  0  0  0  0  0
  191.4700  177.1760  145.9620 N   0  0  0  0  0  0  0  0  0  0  0  0
  192.5010  176.1250  147.8700 C   0  0  0  0  0  1  0  0  0  0  0  0
  191.3900  176.2830  146.8970 C   0  0  0  0  0  3  0  0  0  0  0  0
  1 19  1  0  0  0  0
  1  5  1  0  0  0  0
  2 13  1  0  0  0  0
  2 16  1  0  0  0  0
  3 17  1  0  0  0  0
  4  1  2  0  0  0  0
  6  8  1  0  0  0  0
  7 15  1  6  0  0  0
  7 27  1  0  0  0  0
  8 11  1  0  0  0  0
  9 14  1  6  0  0  0
  9  7  1  0  0  0  0
  9 22  1  0  0  0  0
 10  3  2  0  0  0  0
 11  5  2  0  0  0  0
 11 28  1  0  0  0  0
 12  4  1  0  0  0  0
 12  8  2  0  0  0  0
 17 26  1  0  0  0  0
 18 13  2  0  0  0  0
 19  2  2  0  0  0  0
 20 17  2  0  0  0  0
 20  4  1  0  0  0  0
 21 10  1  0  0  0  0
 22 10  1  6  0  0  0
 22 20  1  0  0  0  0
 23 14  1  0  0  0  0
 23 15  1  0  0  0  0
 24 27  2  0  0  0  0
 25 18  1  0  0  0  0
 26 25  2  0  0  0  0
 26 19  1  0  0  0  0
 27 12  1  0  0  0  0
 28 30  2  0  0  0  0
 30 29  1  0  0  0  0
M  END
>  <MODEL>
7

>  <REMARK>
 VINA RESULT:      -9.6      2.036      5.848
  Name = 
  1 active torsions:
  status: ('A' for Active; 'I' for Inactive)
    1  A    between atoms: C_11  and  N_28
                            x       y       z     vdW  Elec       q    Type
                         _______ _______ _______ _____ _____    ______ ____

>  <TORSDO>
F 1

$$$$
=
 OpenBabel11122410273D

 30 35  0  0  1  0  0  0  0  0999 V2000
  185.7680  178.4320  142.3860 C   0  0  0  0  0  0  0  0  0  0  0  0
  185.5520  178.3560  139.8810 C   0  0  0  0  0  0  0  0  0  0  0  0
  189.9460  178.1140  142.1320 N   0  0  0  0  0  0  0  0  0  0  0  0
  186.6080  178.3460  143.5350 C   0  0  0  0  0  0  0  0  0  0  0  0
  184.4010  178.6600  142.5840 C   0  0  0  0  0  3  0  0  0  0  0  0
  184.1170  178.7580  146.2590 O   0  0  0  0  0  1  0  0  0  0  0  0
  187.8250  176.9570  145.9830 C   0  0  1  0  0  3  0  0  0  0  0  0
  184.6770  178.6680  144.9880 C   0  0  0  0  0  0  0  0  0  0  0  0
  189.1060  177.1930  145.2890 N   0  0  2  0  0  0  0  0  0  0  0  0
  190.2790  178.2090  143.3810 C   0  0  0  0  0  0  0  0  0  0  0  0
  183.8510  178.7950  143.8650 C   0  0  0  0  0  0  0  0  0  0  0  0
  186.0530  178.4240  144.8340 C   0  0  0  0  0  0  0  0  0  0  0  0
  186.1710  178.2560  138.6310 C   0  0  0  0  0  3  0  0  0  0  0  0
  190.0500  177.4930  146.3590 C   0  0  0  0  0  2  0  0  0  0  0  0
  188.1420  176.4560  147.3820 C   0  0  0  0  0  2  0  0  0  0  0  0
  184.1680  178.4920  139.9070 O   0  0  0  0  0  1  0  0  0  0  0  0
  188.5310  178.1260  142.0860 C   0  0  0  0  0  0  0  0  0  0  0  0
  187.5520  178.1150  138.5270 C   0  0  0  0  0  3  0  0  0  0  0  0
  186.3300  178.3140  141.0710 C   0  0  0  0  0  0  0  0  0  0  0  0
  187.9900  178.2110  143.3370 C   0  0  0  0  0  0  0  0  0  0  0  0
  191.7050  178.2850  143.8010 C   0  0  0  0  0  1  0  0  0  0  0  0
  189.1060  178.3150  144.3340 C   0  0  1  0  0  3  0  0  0  0  0  0
  189.6200  176.6980  147.5710 C   0  0  0  0  0  2  0  0  0  0  0  0
  186.8320  178.8990  147.0280 O   0  0  0  0  0  0  0  0  0  0  0  0
  188.3360  178.0690  139.6760 C   0  0  0  0  0  3  0  0  0  0  0  0
  187.7420  178.1600  140.9390 C   0  0  0  0  0  0  0  0  0  0  0  0
  186.8890  178.1470  146.0170 C   0  0  0  0  0  0  0  0  0  0  0  0
  182.4480  179.0360  144.0470 N   0  0  0  0  0  0  0  0  0  0  0  0
  180.1580  179.3010  143.3440 C   0  0  0  0  0  1  0  0  0  0  0  0
  181.5950  179.0420  143.0720 C   0  0  0  0  0  3  0  0  0  0  0  0
  1  5  2  0  0  0  0
  1  4  1  0  0  0  0
  2 16  1  0  0  0  0
  2 19  1  0  0  0  0
  3 10  2  0  0  0  0
  4 12  2  0  0  0  0
  5 11  1  0  0  0  0
  7 27  1  0  0  0  0
  7 15  1  1  0  0  0
  8  6  1  0  0  0  0
  9  7  1  0  0  0  0
  9 14  1  1  0  0  0
 10 21  1  0  0  0  0
 10 22  1  0  0  0  0
 11 28  1  0  0  0  0
 11  8  2  0  0  0  0
 12  8  1  0  0  0  0
 12 27  1  0  0  0  0
 13  2  2  0  0  0  0
 14 23  1  0  0  0  0
 15 23  1  0  0  0  0
 17  3  1  0  0  0  0
 17 20  2  0  0  0  0
 18 13  1  0  0  0  0
 18 25  2  0  0  0  0
 19  1  1  0  0  0  0
 20  4  1  0  0  0  0
 22 20  1  6  0  0  0
 22  9  1  0  0  0  0
 25 26  1  0  0  0  0
 26 19  2  0  0  0  0
 26 17  1  0  0  0  0
 27 24  2  0  0  0  0
 30 29  1  0  0  0  0
 30 28  2  0  0  0  0
M  END
>  <MODEL>
8

>  <REMARK>
 VINA RESULT:      -9.4      2.233      6.679
  Name = 
  1 active torsions:
  status: ('A' for Active; 'I' for Inactive)
    1  A    between atoms: C_11  and  N_28
                            x       y       z     vdW  Elec       q    Type
                         _______ _______ _______ _____ _____    ______ ____

>  <TORSDO>
F 1

$$$$
=
 OpenBabel11122410273D

 30 35  0  0  1  0  0  0  0  0999 V2000
  185.5360  178.4780  143.2060 C   0  0  0  0  0  0  0  0  0  0  0  0
  184.9360  178.8260  145.6240 C   0  0  0  0  0  0  0  0  0  0  0  0
  189.2140  176.7530  144.2670 N   0  0  0  0  0  0  0  0  0  0  0  0
  186.5030  178.0650  142.2430 C   0  0  0  0  0  0  0  0  0  0  0  0
  184.2930  178.9260  142.7430 C   0  0  0  0  0  3  0  0  0  0  0  0
  184.6670  178.7180  139.0800 O   0  0  0  0  0  1  0  0  0  0  0  0
  188.6630  178.5160  140.1120 C   0  0  1  0  0  3  0  0  0  0  0  0
  184.9590  178.6160  140.4380 C   0  0  0  0  0  0  0  0  0  0  0  0
  189.5160  177.7390  141.0330 N   0  0  2  0  0  0  0  0  0  0  0  0
  189.6760  176.4200  143.1030 C   0  0  0  0  0  0  0  0  0  0  0  0
  183.9890  178.9840  141.3770 C   0  0  0  0  0  0  0  0  0  0  0  0
  186.2260  178.1740  140.8600 C   0  0  0  0  0  0  0  0  0  0  0  0
  185.2870  178.7020  146.9710 C   0  0  0  0  0  3  0  0  0  0  0  0
  190.3690  176.9450  140.1570 C   0  0  0  0  0  2  0  0  0  0  0  0
  189.4310  178.7000  138.8150 C   0  0  0  0  0  2  0  0  0  0  0  0
  183.6930  179.3740  145.3290 O   0  0  0  0  0  1  0  0  0  0  0  0
  187.9900  177.4300  144.0400 C   0  0  0  0  0  0  0  0  0  0  0  0
  186.5170  178.1640  147.3430 C   0  0  0  0  0  3  0  0  0  0  0  0
  185.8360  178.4020  144.6070 C   0  0  0  0  0  0  0  0  0  0  0  0
  187.7130  177.5290  142.7060 C   0  0  0  0  0  0  0  0  0  0  0  0
  190.9340  175.6350  142.9630 C   0  0  0  0  0  1  0  0  0  0  0  0
  188.7960  176.8280  141.9400 C   0  0  1  0  0  3  0  0  0  0  0  0
  190.6090  177.7600  138.9070 C   0  0  0  0  0  2  0  0  0  0  0  0
  187.0560  177.2270  138.8440 O   0  0  0  0  0  0  0  0  0  0  0  0
  187.4160  177.7450  146.3680 C   0  0  0  0  0  3  0  0  0  0  0  0
  187.0930  177.8640  145.0130 C   0  0  0  0  0  0  0  0  0  0  0  0
  187.2890  177.9280  139.8670 C   0  0  0  0  0  0  0  0  0  0  0  0
  182.7070  179.4390  140.9220 N   0  0  0  0  0  0  0  0  0  0  0  0
  180.2990  179.4710  140.8230 C   0  0  0  0  0  1  0  0  0  0  0  0
  181.5860  178.9440  141.3440 C   0  0  0  0  0  3  0  0  0  0  0  0
  1 19  1  0  0  0  0
  2 13  1  0  0  0  0
  4 20  1  0  0  0  0
  4  1  2  0  0  0  0
  5  1  1  0  0  0  0
  6  8  1  0  0  0  0
  7 15  1  6  0  0  0
  7  9  1  0  0  0  0
  8 12  2  0  0  0  0
  8 11  1  0  0  0  0
  9 14  1  6  0  0  0
  9 22  1  0  0  0  0
 10  3  2  0  0  0  0
 11  5  2  0  0  0  0
 12  4  1  0  0  0  0
 13 18  2  0  0  0  0
 15 23  1  0  0  0  0
 16  2  1  0  0  0  0
 17  3  1  0  0  0  0
 17 26  1  0  0  0  0
 19 26  1  0  0  0  0
 19  2  2  0  0  0  0
 20 17  2  0  0  0  0
 21 10  1  0  0  0  0
 22 20  1  1  0  0  0
 22 10  1  0  0  0  0
 23 14  1  0  0  0  0
 24 27  2  0  0  0  0
 25 18  1  0  0  0  0
 26 25  2  0  0  0  0
 27  7  1  0  0  0  0
 27 12  1  0  0  0  0
 28 30  2  0  0  0  0
 28 11  1  0  0  0  0
 29 30  1  0  0  0  0
M  END
>  <MODEL>
9

>  <REMARK>
 VINA RESULT:      -9.4      2.285      5.906
  Name = 
  1 active torsions:
  status: ('A' for Active; 'I' for Inactive)
    1  A    between atoms: C_11  and  N_28
                            x       y       z     vdW  Elec       q    Type
                         _______ _______ _______ _____ _____    ______ ____

>  <TORSDO>
F 1

$$$$
