=
 OpenBabel11122410213D

 30 35  0  0  1  0  0  0  0  0999 V2000
  185.9370  178.3910  141.8580 C   0  0  0  0  0  0  0  0  0  0  0  0
  183.4850  178.8180  142.0740 C   0  0  0  0  0  0  0  0  0  0  0  0
  186.3560  178.1750  146.0370 N   0  0  0  0  0  2  0  0  0  0  0  0
  187.1940  178.1450  142.4710 C   0  0  0  0  0  0  0  0  0  0  0  0
  185.8720  178.4890  140.4320 N   0  0  0  0  0  2  0  0  0  0  0  0
  189.3040  178.1710  139.5070 O   0  0  0  0  0  0  0  0  0  0  0  0
  190.2310  178.3280  143.2150 C   0  0  1  0  0  3  0  0  0  0  0  0
  188.2620  178.0830  140.2130 C   0  0  0  0  0  0  0  0  0  0  0  0
  189.6550  178.0990  144.5530 C   0  0  0  0  0  0  0  0  0  0  0  0
  187.7850  177.9430  146.2250 C   0  0  1  0  0  3  0  0  0  0  0  0
  186.9240  178.0200  139.5420 C   0  0  2  0  0  3  0  0  0  0  0  0
  188.3650  177.9320  141.6380 N   0  0  0  0  0  0  0  0  0  0  0  0
  182.3650  178.9700  142.8960 C   0  0  0  0  0  3  0  0  0  0  0  0
  190.7290  177.9950  145.5390 C   0  0  0  0  0  2  0  0  0  0  0  0
  191.6180  178.1150  143.3190 O   0  0  0  0  0  0  0  0  0  0  0  0
  183.3010  178.9140  140.6990 O   0  0  0  0  0  1  0  0  0  0  0  0
  186.1030  178.2640  144.6390 C   0  0  0  0  0  0  0  0  0  0  0  0
  182.4800  178.8820  144.2810 C   0  0  0  0  0  3  0  0  0  0  0  0
  184.7610  178.5720  142.6450 C   0  0  0  0  0  0  0  0  0  0  0  0
  187.2400  178.1330  143.8830 C   0  0  0  0  0  0  0  0  0  0  0  0
  187.9930  176.5590  146.8130 C   0  0  0  0  0  1  0  0  0  0  0  0
  188.3510  178.0100  144.8330 C   0  0  0  0  0  0  0  0  0  0  0  0
  191.9510  178.2620  144.6840 C   0  0  0  0  0  2  0  0  0  0  0  0
  189.5370  175.9460  142.5390 C   0  0  0  0  0  1  0  0  0  0  0  0
  183.7230  178.6420  144.8620 C   0  0  0  0  0  3  0  0  0  0  0  0
  184.8580  178.4880  144.0590 C   0  0  0  0  0  0  0  0  0  0  0  0
  189.6370  177.4170  142.1490 C   0  0  2  0  0  3  0  0  0  0  0  0
  186.9190  178.7840  138.3730 O   0  0  0  0  0  0  0  0  0  0  0  0
  187.2480  178.0840  136.1260 C   0  0  0  0  0  1  0  0  0  0  0  0
  186.4250  177.9290  137.3870 C   0  0  0  0  0  2  0  0  0  0  0  0
  1  4  2  0  0  0  0
  1 19  1  0  0  0  0
  2 19  2  0  0  0  0
  2 13  1  0  0  0  0
  3 10  1  0  0  0  0
  4 20  1  0  0  0  0
  5  1  1  0  0  0  0
  6  8  2  0  0  0  0
  7 15  1  1  0  0  0
  7  9  1  0  0  0  0
  8 12  1  0  0  0  0
  9 22  2  0  0  0  0
  9 14  1  0  0  0  0
 10 21  1  6  0  0  0
 11 28  1  6  0  0  0
 11  8  1  0  0  0  0
 11  5  1  0  0  0  0
 12 27  1  0  0  0  0
 12  4  1  0  0  0  0
 13 18  2  0  0  0  0
 15 23  1  0  0  0  0
 16  2  1  0  0  0  0
 17  3  1  0  0  0  0
 18 25  1  0  0  0  0
 19 26  1  0  0  0  0
 20 17  2  0  0  0  0
 20 22  1  0  0  0  0
 22 10  1  0  0  0  0
 23 14  1  0  0  0  0
 26 17  1  0  0  0  0
 26 25  2  0  0  0  0
 27 24  1  1  0  0  0
 27  7  1  0  0  0  0
 29 30  1  0  0  0  0
 30 28  1  0  0  0  0
M  END
>  <MODEL>
1

>  <REMARK>
 VINA RESULT:      -9.3      0.000      0.000
  Name = 
  2 active torsions:
  status: ('A' for Active; 'I' for Inactive)
    1  A    between atoms: C_11  and  O_28
    2  A    between atoms: O_28  and  C_30
                            x       y       z     vdW  Elec       q    Type
                         _______ _______ _______ _____ _____    ______ ____

>  <TORSDO>
F 2

$$$$
=
 OpenBabel11122410213D

 30 35  0  0  1  0  0  0  0  0999 V2000
  189.1260  177.3470  143.4500 C   0  0  0  0  0  0  0  0  0  0  0  0
  191.2030  176.5090  144.5570 C   0  0  0  0  0  0  0  0  0  0  0  0
  187.2100  177.7700  147.1700 N   0  0  0  0  0  2  0  0  0  0  0  0
  187.7930  177.8270  143.5540 C   0  0  0  0  0  0  0  0  0  0  0  0
  189.7050  177.1920  142.1500 N   0  0  0  0  0  2  0  0  0  0  0  0
  186.9840  178.0700  140.0140 O   0  0  0  0  0  0  0  0  0  0  0  0
  184.7170  178.1970  143.0940 C   0  0  1  0  0  3  0  0  0  0  0  0
  187.6820  177.9980  141.0630 C   0  0  0  0  0  0  0  0  0  0  0  0
  184.7790  178.3670  144.5580 C   0  0  0  0  0  0  0  0  0  0  0  0
  185.8790  178.2520  146.8150 C   0  0  1  0  0  3  0  0  0  0  0  0
  189.1630  177.8070  140.9470 C   0  0  2  0  0  3  0  0  0  0  0  0
  187.0780  178.2120  142.3500 N   0  0  0  0  0  0  0  0  0  0  0  0
  191.8880  176.1930  145.7340 C   0  0  0  0  0  3  0  0  0  0  0  0
  183.4480  178.6880  145.0700 C   0  0  0  0  0  2  0  0  0  0  0  0
  183.4530  178.6510  142.6760 O   0  0  0  0  0  0  0  0  0  0  0  0
  191.8710  176.3380  143.3500 O   0  0  0  0  0  1  0  0  0  0  0  0
  187.9510  177.5920  145.9670 C   0  0  0  0  0  0  0  0  0  0  0  0
  191.2770  176.3450  146.9760 C   0  0  0  0  0  3  0  0  0  0  0  0
  189.8690  176.9910  144.6140 C   0  0  0  0  0  0  0  0  0  0  0  0
  187.2230  177.8940  144.8440 C   0  0  0  0  0  0  0  0  0  0  0  0
  185.7080  179.6700  147.3290 C   0  0  0  0  0  1  0  0  0  0  0  0
  185.8760  178.2390  145.3100 C   0  0  0  0  0  0  0  0  0  0  0  0
  182.6110  178.6090  143.8100 C   0  0  0  0  0  2  0  0  0  0  0  0
  186.0150  180.3990  142.8130 C   0  0  0  0  0  1  0  0  0  0  0  0
  189.9690  176.8150  147.0550 C   0  0  0  0  0  3  0  0  0  0  0  0
  189.2630  177.1370  145.8900 C   0  0  0  0  0  0  0  0  0  0  0  0
  185.8170  178.9560  142.3620 C   0  0  2  0  0  3  0  0  0  0  0  0
  189.4750  177.0150  139.8400 O   0  0  0  0  0  0  0  0  0  0  0  0
  191.3250  176.2340  138.5670 C   0  0  0  0  0  1  0  0  0  0  0  0
  190.8700  177.0000  139.7910 C   0  0  0  0  0  2  0  0  0  0  0  0
  1  4  2  0  0  0  0
  1 19  1  0  0  0  0
  2 19  2  0  0  0  0
  2 13  1  0  0  0  0
  4 20  1  0  0  0  0
  5  1  1  0  0  0  0
  6  8  2  0  0  0  0
  7 15  1  6  0  0  0
  7  9  1  0  0  0  0
  8 12  1  0  0  0  0
  9 14  1  0  0  0  0
  9 22  2  0  0  0  0
 10  3  1  0  0  0  0
 10 21  1  6  0  0  0
 11 28  1  6  0  0  0
 11  8  1  0  0  0  0
 11  5  1  0  0  0  0
 12 27  1  0  0  0  0
 12  4  1  0  0  0  0
 13 18  2  0  0  0  0
 15 23  1  0  0  0  0
 16  2  1  0  0  0  0
 17  3  1  0  0  0  0
 18 25  1  0  0  0  0
 19 26  1  0  0  0  0
 20 22  1  0  0  0  0
 20 17  2  0  0  0  0
 22 10  1  0  0  0  0
 23 14  1  0  0  0  0
 26 17  1  0  0  0  0
 26 25  2  0  0  0  0
 27 24  1  1  0  0  0
 27  7  1  0  0  0  0
 29 30  1  0  0  0  0
 30 28  1  0  0  0  0
M  END
>  <MODEL>
2

>  <REMARK>
 VINA RESULT:      -9.3      1.744      5.544
  Name = 
  2 active torsions:
  status: ('A' for Active; 'I' for Inactive)
    1  A    between atoms: C_11  and  O_28
    2  A    between atoms: O_28  and  C_30
                            x       y       z     vdW  Elec       q    Type
                         _______ _______ _______ _____ _____    ______ ____

>  <TORSDO>
F 2

$$$$
=
 OpenBabel11122410213D

 30 35  0  0  1  0  0  0  0  0999 V2000
  187.2970  178.2310  140.5330 C   0  0  0  0  0  0  0  0  0  0  0  0
  185.0700  178.8670  139.5970 C   0  0  0  0  0  0  0  0  0  0  0  0
  185.7620  178.2700  144.4480 N   0  0  0  0  0  2  0  0  0  0  0  0
  188.1100  177.9270  141.6570 C   0  0  0  0  0  0  0  0  0  0  0  0
  187.8930  178.2350  139.2310 N   0  0  0  0  0  2  0  0  0  0  0  0
  191.3200  177.5790  139.9790 O   0  0  0  0  0  0  0  0  0  0  0  0
  190.4860  177.9160  143.6980 C   0  0  1  0  0  3  0  0  0  0  0  0
  190.0690  177.6250  140.1350 C   0  0  0  0  0  0  0  0  0  0  0  0
  189.3480  177.8270  144.6310 C   0  0  0  0  0  0  0  0  0  0  0  0
  186.9200  177.9380  145.2720 C   0  0  1  0  0  3  0  0  0  0  0  0
  189.1790  177.6230  138.9300 C   0  0  2  0  0  3  0  0  0  0  0  0
  189.5010  177.5640  141.4540 N   0  0  0  0  0  0  0  0  0  0  0  0
  183.7210  179.1650  139.8150 C   0  0  0  0  0  3  0  0  0  0  0  0
  189.8450  177.7050  146.0000 C   0  0  0  0  0  2  0  0  0  0  0  0
  191.6470  177.6000  144.4270 O   0  0  0  0  0  0  0  0  0  0  0  0
  185.5360  178.8830  138.2880 O   0  0  0  0  0  1  0  0  0  0  0  0
  186.1780  178.2830  143.0860 C   0  0  0  0  0  0  0  0  0  0  0  0
  183.1900  179.1640  141.1020 C   0  0  0  0  0  3  0  0  0  0  0  0
  185.9190  178.5590  140.6930 C   0  0  0  0  0  0  0  0  0  0  0  0
  187.5130  178.0080  142.9350 C   0  0  0  0  0  0  0  0  0  0  0  0
  186.6970  176.5850  145.9240 C   0  0  0  0  0  1  0  0  0  0  0  0
  188.0570  177.8620  144.2890 C   0  0  0  0  0  0  0  0  0  0  0  0
  191.3420  177.8130  145.7900 C   0  0  0  0  0  2  0  0  0  0  0  0
  189.9300  175.5570  142.8390 C   0  0  0  0  0  1  0  0  0  0  0  0
  184.0050  178.8660  142.1910 C   0  0  0  0  0  3  0  0  0  0  0  0
  185.3580  178.5660  141.9980 C   0  0  0  0  0  0  0  0  0  0  0  0
  190.3460  176.9850  142.5000 C   0  0  2  0  0  3  0  0  0  0  0  0
  189.7800  178.3030  137.8690 O   0  0  0  0  0  0  0  0  0  0  0  0
  188.9140  177.7360  135.7290 C   0  0  0  0  0  1  0  0  0  0  0  0
  188.7390  178.5720  136.9800 C   0  0  0  0  0  2  0  0  0  0  0  0
  1 19  2  0  0  0  0
  1  4  1  0  0  0  0
  2 13  2  0  0  0  0
  2 19  1  0  0  0  0
  3 10  1  0  0  0  0
  4 20  2  0  0  0  0
  5  1  1  0  0  0  0
  6  8  2  0  0  0  0
  7 15  1  1  0  0  0
  7  9  1  0  0  0  0
  8 12  1  0  0  0  0
  9 14  1  0  0  0  0
 10 21  1  6  0  0  0
 11 28  1  6  0  0  0
 11  5  1  0  0  0  0
 11  8  1  0  0  0  0
 12  4  1  0  0  0  0
 12 27  1  0  0  0  0
 13 18  1  0  0  0  0
 15 23  1  0  0  0  0
 16  2  1  0  0  0  0
 17  3  1  0  0  0  0
 18 25  2  0  0  0  0
 19 26  1  0  0  0  0
 20 17  1  0  0  0  0
 20 22  1  0  0  0  0
 22  9  2  0  0  0  0
 22 10  1  0  0  0  0
 23 14  1  0  0  0  0
 26 25  1  0  0  0  0
 26 17  2  0  0  0  0
 27 24  1  1  0  0  0
 27  7  1  0  0  0  0
 29 30  1  0  0  0  0
 30 28  1  0  0  0  0
M  END
>  <MODEL>
3

>  <REMARK>
 VINA RESULT:      -8.8      1.535      1.993
  Name = 
  2 active torsions:
  status: ('A' for Active; 'I' for Inactive)
    1  A    between atoms: C_11  and  O_28
    2  A    between atoms: O_28  and  C_30
                            x       y       z     vdW  Elec       q    Type
                         _______ _______ _______ _____ _____    ______ ____

>  <TORSDO>
F 2

$$$$
=
 OpenBabel11122410213D

 30 35  0  0  1  0  0  0  0  0999 V2000
  185.7050  178.3700  142.3590 C   0  0  0  0  0  0  0  0  0  0  0  0
  186.5860  178.3060  144.6970 C   0  0  0  0  0  0  0  0  0  0  0  0
  181.7600  178.7590  143.7640 N   0  0  0  0  0  2  0  0  0  0  0  0
  184.6020  178.4710  141.4700 C   0  0  0  0  0  0  0  0  0  0  0  0
  187.0180  178.2030  141.8150 N   0  0  0  0  0  2  0  0  0  0  0  0
  186.3490  177.9820  138.3160 O   0  0  0  0  0  0  0  0  0  0  0  0
  182.6090  177.9030  139.1210 C   0  0  1  0  0  3  0  0  0  0  0  0
  186.1680  178.2550  139.5350 C   0  0  0  0  0  0  0  0  0  0  0  0
  181.6550  178.2850  140.1790 C   0  0  0  0  0  0  0  0  0  0  0  0
  180.9640  178.7970  142.5410 C   0  0  1  0  0  3  0  0  0  0  0  0
  187.3540  178.4690  140.4230 C   0  0  2  0  0  3  0  0  0  0  0  0
  184.8380  178.4690  140.0380 N   0  0  0  0  0  0  0  0  0  0  0  0
  186.3370  178.3600  146.0710 C   0  0  0  0  0  3  0  0  0  0  0  0
  180.2980  178.2920  139.6350 C   0  0  0  0  0  2  0  0  0  0  0  0
  181.9090  177.9240  137.9020 O   0  0  0  0  0  0  0  0  0  0  0  0
  187.9040  178.1610  144.2790 O   0  0  0  0  0  1  0  0  0  0  0  0
  183.1290  178.6280  143.3970 C   0  0  0  0  0  0  0  0  0  0  0  0
  185.0390  178.5080  146.5550 C   0  0  0  0  0  3  0  0  0  0  0  0
  185.5120  178.4010  143.7720 C   0  0  0  0  0  0  0  0  0  0  0  0
  183.3110  178.5550  142.0390 C   0  0  0  0  0  0  0  0  0  0  0  0
  180.3290  180.1690  142.4010 C   0  0  0  0  0  1  0  0  0  0  0  0
  181.9710  178.5730  141.4440 C   0  0  0  0  0  0  0  0  0  0  0  0
  180.5360  177.8080  138.2190 C   0  0  0  0  0  2  0  0  0  0  0  0
  183.4930  180.3170  139.0860 C   0  0  0  0  0  1  0  0  0  0  0  0
  183.9720  178.6020  145.6660 C   0  0  0  0  0  3  0  0  0  0  0  0
  184.1960  178.5490  144.2860 C   0  0  0  0  0  0  0  0  0  0  0  0
  183.8180  178.8270  139.0500 C   0  0  2  0  0  3  0  0  0  0  0  0
  188.4160  177.6480  140.0370 O   0  0  0  0  0  0  0  0  0  0  0  0
  190.5410  176.9930  140.8780 C   0  0  0  0  0  1  0  0  0  0  0  0
  189.1210  177.3960  141.2150 C   0  0  0  0  0  2  0  0  0  0  0  0
  1 19  1  0  0  0  0
  2 13  1  0  0  0  0
  4 20  1  0  0  0  0
  4  1  2  0  0  0  0
  5  1  1  0  0  0  0
  6  8  2  0  0  0  0
  7 15  1  6  0  0  0
  7  9  1  0  0  0  0
  8 12  1  0  0  0  0
  8 11  1  0  0  0  0
  9 22  2  0  0  0  0
 10 21  1  6  0  0  0
 10  3  1  0  0  0  0
 11 28  1  6  0  0  0
 11  5  1  0  0  0  0
 12  4  1  0  0  0  0
 13 18  2  0  0  0  0
 14  9  1  0  0  0  0
 15 23  1  0  0  0  0
 16  2  1  0  0  0  0
 17  3  1  0  0  0  0
 17 26  1  0  0  0  0
 19 26  1  0  0  0  0
 19  2  2  0  0  0  0
 20 17  2  0  0  0  0
 22 20  1  0  0  0  0
 22 10  1  0  0  0  0
 23 14  1  0  0  0  0
 25 18  1  0  0  0  0
 26 25  2  0  0  0  0
 27 24  1  1  0  0  0
 27  7  1  0  0  0  0
 27 12  1  0  0  0  0
 28 30  1  0  0  0  0
 29 30  1  0  0  0  0
M  END
>  <MODEL>
4

>  <REMARK>
 VINA RESULT:      -8.4      2.329      6.246
  Name = 
  2 active torsions:
  status: ('A' for Active; 'I' for Inactive)
    1  A    between atoms: C_11  and  O_28
    2  A    between atoms: O_28  and  C_30
                            x       y       z     vdW  Elec       q    Type
                         _______ _______ _______ _____ _____    ______ ____

>  <TORSDO>
F 2

$$$$
=
 OpenBabel11122410213D

 30 35  0  0  1  0  0  0  0  0999 V2000
  188.2770  177.9730  141.2230 C   0  0  0  0  0  0  0  0  0  0  0  0
  189.4060  177.8920  143.4510 C   0  0  0  0  0  0  0  0  0  0  0  0
  191.7010  176.4240  139.3340 N   0  0  0  0  0  2  0  0  0  0  0  0
  188.3180  177.7430  139.8220 C   0  0  0  0  0  0  0  0  0  0  0  0
  187.0930  178.5360  141.7970 N   0  0  0  0  0  2  0  0  0  0  0  0
  185.0750  179.1190  138.9110 O   0  0  0  0  0  0  0  0  0  0  0  0
  188.0680  178.1590  136.7280 C   0  0  1  0  0  3  0  0  0  0  0  0
  185.9890  178.6270  139.6290 C   0  0  0  0  0  0  0  0  0  0  0  0
  189.3300  177.3990  136.7820 C   0  0  0  0  0  0  0  0  0  0  0  0
  191.3230  176.3800  137.9250 C   0  0  1  0  0  3  0  0  0  0  0  0
  185.8080  178.5760  141.1150 C   0  0  2  0  0  3  0  0  0  0  0  0
  187.1410  178.0210  139.0190 N   0  0  0  0  0  0  0  0  0  0  0  0
  190.5360  177.5700  144.2090 C   0  0  0  0  0  3  0  0  0  0  0  0
  189.8070  177.1450  135.4240 C   0  0  0  0  0  2  0  0  0  0  0  0
  187.6360  178.1550  135.3890 O   0  0  0  0  0  0  0  0  0  0  0  0
  188.3040  178.4170  144.1160 O   0  0  0  0  0  1  0  0  0  0  0  0
  190.5980  176.9400  140.0720 C   0  0  0  0  0  0  0  0  0  0  0  0
  191.6720  177.0380  143.6040 C   0  0  0  0  0  3  0  0  0  0  0  0
  189.4050  177.6800  142.0470 C   0  0  0  0  0  0  0  0  0  0  0  0
  189.5280  177.2600  139.2760 C   0  0  0  0  0  0  0  0  0  0  0  0
  191.2490  174.9330  137.4730 C   0  0  0  0  0  1  0  0  0  0  0  0
  189.9550  177.0070  137.8950 C   0  0  0  0  0  0  0  0  0  0  0  0
  188.7730  177.8820  134.5960 C   0  0  0  0  0  2  0  0  0  0  0  0
  186.8070  176.0680  137.5340 C   0  0  0  0  0  1  0  0  0  0  0  0
  191.6920  176.8230  142.2280 C   0  0  0  0  0  3  0  0  0  0  0  0
  190.5740  177.1390  141.4490 C   0  0  0  0  0  0  0  0  0  0  0  0
  186.9870  177.5800  137.6320 C   0  0  2  0  0  3  0  0  0  0  0  0
  185.0780  179.6800  141.5630 O   0  0  0  0  0  0  0  0  0  0  0  0
  183.7030  178.6280  143.1920 C   0  0  0  0  0  1  0  0  0  0  0  0
  184.9300  179.4780  142.9360 C   0  0  0  0  0  2  0  0  0  0  0  0
  1  5  1  0  0  0  0
  1 19  1  0  0  0  0
  2 16  1  0  0  0  0
  2 13  1  0  0  0  0
  3 17  1  0  0  0  0
  4  1  2  0  0  0  0
  6  8  2  0  0  0  0
  7 15  1  6  0  0  0
  7  9  1  0  0  0  0
  7 27  1  0  0  0  0
  8 11  1  0  0  0  0
  9 22  2  0  0  0  0
 10 21  1  1  0  0  0
 10  3  1  0  0  0  0
 11 28  1  1  0  0  0
 11  5  1  0  0  0  0
 12  8  1  0  0  0  0
 12  4  1  0  0  0  0
 14  9  1  0  0  0  0
 17 26  1  0  0  0  0
 18 13  2  0  0  0  0
 19  2  2  0  0  0  0
 20  4  1  0  0  0  0
 20 17  2  0  0  0  0
 22 10  1  0  0  0  0
 22 20  1  0  0  0  0
 23 15  1  0  0  0  0
 23 14  1  0  0  0  0
 25 18  1  0  0  0  0
 26 19  1  0  0  0  0
 26 25  2  0  0  0  0
 27 24  1  1  0  0  0
 27 12  1  0  0  0  0
 28 30  1  0  0  0  0
 30 29  1  0  0  0  0
M  END
>  <MODEL>
5

>  <REMARK>
 VINA RESULT:      -7.9      2.278      6.793
  Name = 
  2 active torsions:
  status: ('A' for Active; 'I' for Inactive)
    1  A    between atoms: C_11  and  O_28
    2  A    between atoms: O_28  and  C_30
                            x       y       z     vdW  Elec       q    Type
                         _______ _______ _______ _____ _____    ______ ____

>  <TORSDO>
F 2

$$$$
=
 OpenBabel11122410213D

 30 35  0  0  1  0  0  0  0  0999 V2000
  187.4540  177.9110  142.7660 C   0  0  0  0  0  0  0  0  0  0  0  0
  186.3810  178.2520  144.9970 C   0  0  0  0  0  0  0  0  0  0  0  0
  183.8870  178.9450  140.7940 N   0  0  0  0  0  2  0  0  0  0  0  0
  187.3610  177.9250  141.3490 C   0  0  0  0  0  0  0  0  0  0  0  0
  188.6880  177.5130  143.3740 N   0  0  0  0  0  2  0  0  0  0  0  0
  190.6630  176.6330  140.5350 O   0  0  0  0  0  0  0  0  0  0  0  0
  187.5580  177.0680  138.3430 C   0  0  1  0  0  3  0  0  0  0  0  0
  189.7380  177.1680  141.2050 C   0  0  0  0  0  0  0  0  0  0  0  0
  186.2490  177.7490  138.3290 C   0  0  0  0  0  0  0  0  0  0  0  0
  184.2240  178.8010  139.3810 C   0  0  1  0  0  3  0  0  0  0  0  0
  189.9550  177.4520  142.6600 C   0  0  2  0  0  3  0  0  0  0  0  0
  188.5330  177.6040  140.5550 N   0  0  0  0  0  0  0  0  0  0  0  0
  185.2530  178.6140  145.7390 C   0  0  0  0  0  3  0  0  0  0  0  0
  185.7210  177.7680  136.9670 C   0  0  0  0  0  2  0  0  0  0  0  0
  187.9530  176.9000  137.0030 O   0  0  0  0  0  0  0  0  0  0  0  0
  187.5330  177.9020  145.6920 O   0  0  0  0  0  1  0  0  0  0  0  0
  185.0400  178.6150  141.5600 C   0  0  0  0  0  0  0  0  0  0  0  0
  184.0680  178.9780  145.1030 C   0  0  0  0  0  3  0  0  0  0  0  0
  186.3320  178.2520  143.5780 C   0  0  0  0  0  0  0  0  0  0  0  0
  186.1080  178.2450  140.7810 C   0  0  0  0  0  0  0  0  0  0  0  0
  184.1900  180.1670  138.7190 C   0  0  0  0  0  1  0  0  0  0  0  0
  185.6290  178.2630  139.3950 C   0  0  0  0  0  0  0  0  0  0  0  0
  186.7790  176.9800  136.2210 C   0  0  0  0  0  2  0  0  0  0  0  0
  188.6970  179.3300  138.7870 C   0  0  0  0  0  1  0  0  0  0  0  0
  183.9980  178.9840  143.7130 C   0  0  0  0  0  3  0  0  0  0  0  0
  185.1140  178.6250  142.9490 C   0  0  0  0  0  0  0  0  0  0  0  0
  188.6210  177.8420  139.1120 C   0  0  2  0  0  3  0  0  0  0  0  0
  190.7670  176.4740  143.2390 O   0  0  0  0  0  0  0  0  0  0  0  0
  191.5430  176.7520  145.4690 C   0  0  0  0  0  1  0  0  0  0  0  0
  191.6770  177.1840  144.0240 C   0  0  0  0  0  2  0  0  0  0  0  0
  1  5  1  0  0  0  0
  1 19  1  0  0  0  0
  2 16  1  0  0  0  0
  2 13  1  0  0  0  0
  3 17  1  0  0  0  0
  4  1  2  0  0  0  0
  6  8  2  0  0  0  0
  7 15  1  6  0  0  0
  7 27  1  0  0  0  0
  8 11  1  0  0  0  0
  9  7  1  0  0  0  0
  9 22  2  0  0  0  0
 10 21  1  6  0  0  0
 10 22  1  0  0  0  0
 10  3  1  0  0  0  0
 11 28  1  1  0  0  0
 11  5  1  0  0  0  0
 12  8  1  0  0  0  0
 12  4  1  0  0  0  0
 14  9  1  0  0  0  0
 17 26  1  0  0  0  0
 18 13  2  0  0  0  0
 19  2  2  0  0  0  0
 20  4  1  0  0  0  0
 20 17  2  0  0  0  0
 22 20  1  0  0  0  0
 23 14  1  0  0  0  0
 23 15  1  0  0  0  0
 25 18  1  0  0  0  0
 26 19  1  0  0  0  0
 26 25  2  0  0  0  0
 27 24  1  1  0  0  0
 27 12  1  0  0  0  0
 28 30  1  0  0  0  0
 30 29  1  0  0  0  0
M  END
>  <MODEL>
6

>  <REMARK>
 VINA RESULT:      -7.6      1.994      5.721
  Name = 
  2 active torsions:
  status: ('A' for Active; 'I' for Inactive)
    1  A    between atoms: C_11  and  O_28
    2  A    between atoms: O_28  and  C_30
                            x       y       z     vdW  Elec       q    Type
                         _______ _______ _______ _____ _____    ______ ____

>  <TORSDO>
F 2

$$$$
=
 OpenBabel11122410213D

 30 35  0  0  1  0  0  0  0  0999 V2000
  186.0320  178.3010  142.7130 C   0  0  0  0  0  0  0  0  0  0  0  0
  188.4400  177.8810  143.2300 C   0  0  0  0  0  0  0  0  0  0  0  0
  186.8200  178.2610  138.5830 N   0  0  0  0  0  2  0  0  0  0  0  0
  185.0020  178.4950  141.7550 C   0  0  0  0  0  0  0  0  0  0  0  0
  185.7010  178.3630  144.1050 N   0  0  0  0  0  2  0  0  0  0  0  0
  182.2350  179.2110  144.0060 O   0  0  0  0  0  0  0  0  0  0  0  0
  182.5460  179.6910  140.2230 C   0  0  1  0  0  3  0  0  0  0  0  0
  183.3550  178.7830  143.6110 C   0  0  0  0  0  0  0  0  0  0  0  0
  183.3880  179.2890  139.0810 C   0  0  0  0  0  0  0  0  0  0  0  0
  185.5150  178.5240  137.9840 C   0  0  1  0  0  3  0  0  0  0  0  0
  184.3410  178.2700  144.6150 C   0  0  2  0  0  3  0  0  0  0  0  0
  183.6350  178.6830  142.2050 N   0  0  0  0  0  0  0  0  0  0  0  0
  189.7400  177.6520  142.7700 C   0  0  0  0  0  3  0  0  0  0  0  0
  182.6780  179.5570  137.8320 C   0  0  0  0  0  2  0  0  0  0  0  0
  181.2600  179.9570  139.7190 O   0  0  0  0  0  0  0  0  0  0  0  0
  188.2310  177.9020  144.6040 O   0  0  0  0  0  1  0  0  0  0  0  0
  186.6640  178.2530  139.9980 C   0  0  0  0  0  0  0  0  0  0  0  0
  190.0170  177.6160  141.4050 C   0  0  0  0  0  3  0  0  0  0  0  0
  187.3810  178.0810  142.3060 C   0  0  0  0  0  0  0  0  0  0  0  0
  185.3740  178.5060  140.3920 C   0  0  0  0  0  0  0  0  0  0  0  0
  185.0600  177.2930  137.2210 C   0  0  0  0  0  1  0  0  0  0  0  0
  184.6150  178.7690  139.1650 C   0  0  0  0  0  0  0  0  0  0  0  0
  181.4100  180.2140  138.3380 C   0  0  0  0  0  2  0  0  0  0  0  0
  182.2110  177.2110  140.8130 C   0  0  0  0  0  1  0  0  0  0  0  0
  188.9940  177.8110  140.4820 C   0  0  0  0  0  3  0  0  0  0  0  0
  187.6850  178.0430  140.9190 C   0  0  0  0  0  0  0  0  0  0  0  0
  182.4760  178.6280  141.3120 C   0  0  2  0  0  3  0  0  0  0  0  0
  184.2440  178.9820  145.8130 O   0  0  0  0  0  0  0  0  0  0  0  0
  186.0560  179.1550  147.3420 C   0  0  0  0  0  1  0  0  0  0  0  0
  185.0070  178.2530  146.7260 C   0  0  0  0  0  2  0  0  0  0  0  0
  1  5  1  0  0  0  0
  2 16  1  0  0  0  0
  3 17  1  0  0  0  0
  4 12  1  0  0  0  0
  4  1  2  0  0  0  0
  5 11  1  0  0  0  0
  7  9  1  6  0  0  0
  7 27  1  0  0  0  0
  8  6  2  0  0  0  0
  8 11  1  0  0  0  0
  9 22  2  0  0  0  0
 10 21  1  1  0  0  0
 10  3  1  0  0  0  0
 10 22  1  0  0  0  0
 11 28  1  1  0  0  0
 12  8  1  0  0  0  0
 13  2  1  0  0  0  0
 14 23  1  0  0  0  0
 14  9  1  0  0  0  0
 15  7  1  0  0  0  0
 17 20  2  0  0  0  0
 17 26  1  0  0  0  0
 18 13  2  0  0  0  0
 19  1  1  0  0  0  0
 19  2  2  0  0  0  0
 20  4  1  0  0  0  0
 22 20  1  0  0  0  0
 23 15  1  0  0  0  0
 25 26  2  0  0  0  0
 25 18  1  0  0  0  0
 26 19  1  0  0  0  0
 27 24  1  6  0  0  0
 27 12  1  0  0  0  0
 28 30  1  0  0  0  0
 30 29  1  0  0  0  0
M  END
>  <MODEL>
7

>  <REMARK>
 VINA RESULT:      -7.4      2.367      7.525
  Name = 
  2 active torsions:
  status: ('A' for Active; 'I' for Inactive)
    1  A    between atoms: C_11  and  O_28
    2  A    between atoms: O_28  and  C_30
                            x       y       z     vdW  Elec       q    Type
                         _______ _______ _______ _____ _____    ______ ____

>  <TORSDO>
F 2

$$$$
=
 OpenBabel11122410213D

 30 35  0  0  1  0  0  0  0  0999 V2000
  186.8390  177.9840  144.4850 C   0  0  0  0  0  0  0  0  0  0  0  0
  184.3790  178.3950  144.6330 C   0  0  0  0  0  0  0  0  0  0  0  0
  186.7480  178.4020  140.3020 N   0  0  0  0  0  2  0  0  0  0  0  0
  188.0130  177.8590  143.6970 C   0  0  0  0  0  0  0  0  0  0  0  0
  186.9340  177.7930  145.9010 N   0  0  0  0  0  2  0  0  0  0  0  0
  190.3670  176.9030  146.3010 O   0  0  0  0  0  0  0  0  0  0  0  0
  190.6890  176.7640  142.4910 C   0  0  1  0  0  3  0  0  0  0  0  0
  189.3300  177.3820  145.7660 C   0  0  0  0  0  0  0  0  0  0  0  0
  190.0490  177.2790  141.2660 C   0  0  0  0  0  0  0  0  0  0  0  0
  188.1330  178.1730  139.9060 C   0  0  1  0  0  3  0  0  0  0  0  0
  188.1910  177.8190  146.6350 C   0  0  2  0  0  3  0  0  0  0  0  0
  189.2870  177.6110  144.3480 N   0  0  0  0  0  0  0  0  0  0  0  0
  183.1730  178.6840  143.9860 C   0  0  0  0  0  3  0  0  0  0  0  0
  190.9550  177.1120  140.1320 C   0  0  0  0  0  2  0  0  0  0  0  0
  192.0400  176.5240  142.1840 O   0  0  0  0  0  0  0  0  0  0  0  0
  184.3580  178.2490  146.0150 O   0  0  0  0  0  1  0  0  0  0  0  0
  186.6670  178.2830  141.7180 C   0  0  0  0  0  0  0  0  0  0  0  0
  183.1270  178.8450  142.6040 C   0  0  0  0  0  3  0  0  0  0  0  0
  185.5770  178.2610  143.8820 C   0  0  0  0  0  0  0  0  0  0  0  0
  187.8730  177.9750  142.2950 C   0  0  0  0  0  0  0  0  0  0  0  0
  188.7110  179.4590  139.3420 C   0  0  0  0  0  1  0  0  0  0  0  0
  188.8250  177.8100  141.1920 C   0  0  0  0  0  0  0  0  0  0  0  0
  192.1210  176.3920  140.7790 C   0  0  0  0  0  2  0  0  0  0  0  0
  190.9230  179.1770  143.3490 C   0  0  0  0  0  1  0  0  0  0  0  0
  184.2890  178.7170  141.8490 C   0  0  0  0  0  3  0  0  0  0  0  0
  185.5070  178.4260  142.4730 C   0  0  0  0  0  0  0  0  0  0  0  0
  190.5780  177.7260  143.6670 C   0  0  2  0  0  3  0  0  0  0  0  0
  188.0870  177.0020  147.7640 O   0  0  0  0  0  0  0  0  0  0  0  0
  189.2380  178.6310  149.0580 C   0  0  0  0  0  1  0  0  0  0  0  0
  187.9390  177.8860  148.8330 C   0  0  0  0  0  2  0  0  0  0  0  0
  1  5  1  0  0  0  0
  2 16  1  0  0  0  0
  3 17  1  0  0  0  0
  4 12  1  0  0  0  0
  4  1  2  0  0  0  0
  5 11  1  0  0  0  0
  7  9  1  6  0  0  0
  7 27  1  0  0  0  0
  8  6  2  0  0  0  0
  8 11  1  0  0  0  0
 10 21  1  1  0  0  0
 10  3  1  0  0  0  0
 10 22  1  0  0  0  0
 11 28  1  1  0  0  0
 12  8  1  0  0  0  0
 13  2  1  0  0  0  0
 14 23  1  0  0  0  0
 14  9  1  0  0  0  0
 15  7  1  0  0  0  0
 17 20  2  0  0  0  0
 17 26  1  0  0  0  0
 18 13  2  0  0  0  0
 19  1  1  0  0  0  0
 19  2  2  0  0  0  0
 20  4  1  0  0  0  0
 22  9  2  0  0  0  0
 22 20  1  0  0  0  0
 23 15  1  0  0  0  0
 25 26  2  0  0  0  0
 25 18  1  0  0  0  0
 26 19  1  0  0  0  0
 27 24  1  6  0  0  0
 27 12  1  0  0  0  0
 28 30  1  0  0  0  0
 30 29  1  0  0  0  0
M  END
>  <MODEL>
8

>  <REMARK>
 VINA RESULT:      -7.3      2.225      5.432
  Name = 
  2 active torsions:
  status: ('A' for Active; 'I' for Inactive)
    1  A    between atoms: C_11  and  O_28
    2  A    between atoms: O_28  and  C_30
                            x       y       z     vdW  Elec       q    Type
                         _______ _______ _______ _____ _____    ______ ____

>  <TORSDO>
F 2

$$$$
=
 OpenBabel11122410213D

 30 35  0  0  1  0  0  0  0  0999 V2000
  187.8940  178.0110  141.3830 C   0  0  0  0  0  0  0  0  0  0  0  0
  189.6600  177.8120  143.1400 C   0  0  0  0  0  0  0  0  0  0  0  0
  184.8840  178.2530  144.3090 N   0  0  0  0  0  2  0  0  0  0  0  0
  186.5250  178.1510  141.0350 C   0  0  0  0  0  0  0  0  0  0  0  0
  188.8640  177.8980  140.3360 N   0  0  0  0  0  2  0  0  0  0  0  0
  186.8100  177.8870  137.4170 O   0  0  0  0  0  0  0  0  0  0  0  0
  183.7340  177.7030  139.6860 C   0  0  1  0  0  3  0  0  0  0  0  0
  187.1510  178.0800  138.6170 C   0  0  0  0  0  0  0  0  0  0  0  0
  183.3050  178.0050  141.0640 C   0  0  0  0  0  0  0  0  0  0  0  0
  183.6560  178.3560  143.5280 C   0  0  1  0  0  3  0  0  0  0  0  0
  188.6000  178.2550  138.9500 C   0  0  2  0  0  3  0  0  0  0  0  0
  186.1490  178.2430  139.6360 N   0  0  0  0  0  0  0  0  0  0  0  0
  190.0000  177.7760  144.4950 C   0  0  0  0  0  3  0  0  0  0  0  0
  181.8450  178.0260  141.1290 C   0  0  0  0  0  2  0  0  0  0  0  0
  182.5930  177.7910  138.8670 O   0  0  0  0  0  0  0  0  0  0  0  0
  190.6870  177.7130  142.2080 O   0  0  0  0  0  1  0  0  0  0  0  0
  185.9790  178.1650  143.4030 C   0  0  0  0  0  0  0  0  0  0  0  0
  189.0190  177.8740  145.4790 C   0  0  0  0  0  3  0  0  0  0  0  0
  188.3020  177.9500  142.7480 C   0  0  0  0  0  0  0  0  0  0  0  0
  185.5840  178.1810  142.0900 C   0  0  0  0  0  0  0  0  0  0  0  0
  183.0370  179.7250  143.7490 C   0  0  0  0  0  1  0  0  0  0  0  0
  184.1180  178.2170  142.1020 C   0  0  0  0  0  0  0  0  0  0  0  0
  181.4730  177.6360  139.7130 C   0  0  0  0  0  2  0  0  0  0  0  0
  184.5560  180.1280  139.4420 C   0  0  0  0  0  1  0  0  0  0  0  0
  187.6810  178.0090  145.1170 C   0  0  0  0  0  3  0  0  0  0  0  0
  187.3170  178.0460  143.7670 C   0  0  0  0  0  0  0  0  0  0  0  0
  184.8180  178.6480  139.1810 C   0  0  2  0  0  3  0  0  0  0  0  0
  189.3990  177.4760  138.1090 O   0  0  0  0  0  0  0  0  0  0  0  0
  191.4980  176.3780  138.3040 C   0  0  0  0  0  1  0  0  0  0  0  0
  190.1770  176.7020  138.9700 C   0  0  0  0  0  2  0  0  0  0  0  0
  1 19  1  0  0  0  0
  2 13  1  0  0  0  0
  4  1  2  0  0  0  0
  4 20  1  0  0  0  0
  5  1  1  0  0  0  0
  6  8  2  0  0  0  0
  7 15  1  6  0  0  0
  7  9  1  0  0  0  0
  8 11  1  0  0  0  0
  8 12  1  0  0  0  0
  9 14  1  0  0  0  0
  9 22  2  0  0  0  0
 10 21  1  6  0  0  0
 10  3  1  0  0  0  0
 11 28  1  6  0  0  0
 11  5  1  0  0  0  0
 12  4  1  0  0  0  0
 13 18  2  0  0  0  0
 15 23  1  0  0  0  0
 16  2  1  0  0  0  0
 17 26  1  0  0  0  0
 17  3  1  0  0  0  0
 19  2  2  0  0  0  0
 19 26  1  0  0  0  0
 20 22  1  0  0  0  0
 20 17  2  0  0  0  0
 22 10  1  0  0  0  0
 23 14  1  0  0  0  0
 25 18  1  0  0  0  0
 26 25  2  0  0  0  0
 27 24  1  1  0  0  0
 27 12  1  0  0  0  0
 27  7  1  0  0  0  0
 28 30  1  0  0  0  0
 29 30  1  0  0  0  0
M  END
>  <MODEL>
9

>  <REMARK>
 VINA RESULT:      -7.2      1.796      5.686
  Name = 
  2 active torsions:
  status: ('A' for Active; 'I' for Inactive)
    1  A    between atoms: C_11  and  O_28
    2  A    between atoms: O_28  and  C_30
                            x       y       z     vdW  Elec       q    Type
                         _______ _______ _______ _____ _____    ______ ____

>  <TORSDO>
F 2

$$$$
