=
 OpenBabel11122411543D

 28 32  0  0  1  0  0  0  0  0999 V2000
  180.4450  178.2530  142.0000 C   0  0  0  0  0  0  0  0  0  0  0  0
  180.6680  180.8570  139.7810 O   0  0  0  0  0  0  0  0  0  0  0  0
  182.0640  174.0820  137.4610 O   0  0  0  0  0  0  0  0  0  0  0  0
  182.6490  179.0030  143.5620 C   0  0  0  0  0  3  0  0  0  0  0  0
  183.4340  175.9850  137.6130 N   0  0  0  0  0  0  0  0  0  0  0  0
  179.2510  177.8240  141.2070 C   0  0  0  0  0  2  0  0  0  0  0  0
  182.6800  181.7900  138.7180 O   0  0  0  0  0  0  0  0  0  0  0  0
  181.7580  180.6070  138.7790 S   0  0  0  0  0  0  0  0  0  0  0  0
  181.3250  179.1100  136.5290 C   0  0  0  0  0  0  0  0  0  0  0  0
  182.6910  179.1560  139.2100 C   0  0  2  0  0  3  0  0  0  0  0  0
  179.4440  174.1980  140.6900 O   0  0  0  0  0  0  0  0  0  0  0  0
  182.6800  176.8010  139.7290 C   0  0  2  0  0  3  0  0  0  0  0  0
  182.2420  178.2710  136.9120 N   0  0  0  0  0  0  0  0  0  0  0  0
  181.0740  180.3290  137.2260 N   0  0  0  0  0  2  0  0  0  0  0  0
  179.5990  175.4220  140.4450 C   0  0  0  0  0  0  0  0  0  0  0  0
  181.7140  178.3850  141.4040 C   0  0  0  0  0  0  0  0  0  0  0  0
  182.4120  175.1260  138.0750 C   0  0  0  0  0  0  0  0  0  0  0  0
  180.4740  178.7630  135.3620 C   0  0  0  0  0  1  0  0  0  0  0  0
  180.3350  175.8300  139.2080 C   0  0  0  0  0  2  0  0  0  0  0  0
  182.8130  178.7540  142.1980 C   0  0  0  0  0  3  0  0  0  0  0  0
  180.2900  178.5000  143.3690 C   0  0  0  0  0  3  0  0  0  0  0  0
  181.3880  178.8770  144.1470 C   0  0  0  0  0  3  0  0  0  0  0  0
  179.0480  176.3880  141.3440 N   0  0  0  0  0  2  0  0  0  0  0  0
  183.6400  177.0730  138.5530 C   0  0  2  0  0  3  0  0  0  0  0  0
  181.8300  175.5570  139.3660 C   0  0  2  0  0  3  0  0  0  0  0  0
  183.2420  178.4420  137.9830 C   0  0  2  0  0  3  0  0  0  0  0  0
  184.2720  175.7330  136.4530 C   0  0  0  0  0  1  0  0  0  0  0  0
  181.8950  178.0940  139.9430 C   0  0  1  0  0  3  0  0  0  0  0  0
  1 21  1  0  0  0  0
  3 17  2  0  0  0  0
  4 22  1  0  0  0  0
  5 17  1  0  0  0  0
  5 24  1  0  0  0  0
  6 23  1  0  0  0  0
  6  1  1  0  0  0  0
  7  8  2  0  0  0  0
  8  2  2  0  0  0  0
  9 13  2  0  0  0  0
  9 14  1  0  0  0  0
 10  8  1  6  0  0  0
 10 28  1  0  0  0  0
 12 28  1  0  0  0  0
 13 26  1  0  0  0  0
 14  8  1  0  0  0  0
 15 11  2  0  0  0  0
 15 23  1  0  0  0  0
 16  1  2  0  0  0  0
 16 20  1  0  0  0  0
 17 25  1  0  0  0  0
 18  9  1  0  0  0  0
 19 25  1  0  0  0  0
 19 15  1  0  0  0  0
 20  4  2  0  0  0  0
 21 22  2  0  0  0  0
 24 12  1  0  0  0  0
 25 12  1  0  0  0  0
 26 24  1  0  0  0  0
 26 10  1  0  0  0  0
 27  5  1  0  0  0  0
 28 16  1  0  0  0  0
M  END
>  <MODEL>
1

>  <REMARK>
 VINA RESULT:      -6.7      0.000      0.000
  Name = 
  0 active torsions:
  status: ('A' for Active; 'I' for Inactive)
                            x       y       z     vdW  Elec       q    Type
                         _______ _______ _______ _____ _____    ______ ____

>  <TORSDO>
F 0

$$$$
=
 OpenBabel11122411543D

 28 32  0  0  1  0  0  0  0  0999 V2000
  185.5920  176.8030  137.4380 C   0  0  0  0  0  0  0  0  0  0  0  0
  183.2850  177.5440  135.0120 O   0  0  0  0  0  0  0  0  0  0  0  0
  181.7050  179.0030  141.9840 O   0  0  0  0  0  0  0  0  0  0  0  0
  185.4170  174.0170  137.1740 C   0  0  0  0  0  3  0  0  0  0  0  0
  180.7170  177.5290  140.4440 N   0  0  0  0  0  0  0  0  0  0  0  0
  185.7330  178.2830  137.6010 C   0  0  0  0  0  2  0  0  0  0  0  0
  181.1110  176.4720  134.5940 O   0  0  0  0  0  0  0  0  0  0  0  0
  181.8890  177.3490  135.5320 S   0  0  0  0  0  0  0  0  0  0  0  0
  180.5970  179.3030  136.9470 C   0  0  0  0  0  0  0  0  0  0  0  0
  181.9150  176.6050  137.1470 C   0  0  2  0  0  3  0  0  0  0  0  0
  185.7870  179.0530  141.1880 O   0  0  0  0  0  0  0  0  0  0  0  0
  182.7090  176.6910  139.4220 C   0  0  2  0  0  3  0  0  0  0  0  0
  180.4960  178.4990  137.9640 N   0  0  0  0  0  0  0  0  0  0  0  0
  181.1030  178.8710  135.6860 N   0  0  0  0  0  2  0  0  0  0  0  0
  185.3070  178.8780  140.0390 C   0  0  0  0  0  0  0  0  0  0  0  0
  184.3530  176.1580  137.6160 C   0  0  0  0  0  0  0  0  0  0  0  0
  181.8210  178.1850  141.0330 C   0  0  0  0  0  0  0  0  0  0  0  0
  180.2270  180.7310  137.1190 C   0  0  0  0  0  1  0  0  0  0  0  0
  183.8280  178.9900  139.8420 C   0  0  0  0  0  2  0  0  0  0  0  0
  184.2780  174.7610  137.4890 C   0  0  0  0  0  3  0  0  0  0  0  0
  186.7300  176.0490  137.1270 C   0  0  0  0  0  3  0  0  0  0  0  0
  186.6420  174.6610  136.9920 C   0  0  0  0  0  3  0  0  0  0  0  0
  186.1890  178.5970  138.9480 N   0  0  0  0  0  2  0  0  0  0  0  0
  181.1690  176.6160  139.4080 C   0  0  2  0  0  3  0  0  0  0  0  0
  183.1190  177.7800  140.4470 C   0  0  2  0  0  3  0  0  0  0  0  0
  180.7320  177.0430  137.9990 C   0  0  2  0  0  3  0  0  0  0  0  0
  179.3450  177.6260  140.9110 C   0  0  0  0  0  1  0  0  0  0  0  0
  183.1340  176.9540  137.9790 C   0  0  1  0  0  3  0  0  0  0  0  0
  1  6  1  0  0  0  0
  1 16  1  0  0  0  0
  2  8  2  0  0  0  0
  4 20  1  0  0  0  0
  5 27  1  0  0  0  0
  5 17  1  0  0  0  0
  6 23  1  0  0  0  0
  7  8  2  0  0  0  0
  8 14  1  0  0  0  0
  9 18  1  0  0  0  0
  9 13  2  0  0  0  0
 10  8  1  6  0  0  0
 10 28  1  0  0  0  0
 10 26  1  0  0  0  0
 12 25  1  0  0  0  0
 13 26  1  0  0  0  0
 14  9  1  0  0  0  0
 15 11  2  0  0  0  0
 16 28  1  0  0  0  0
 17  3  2  0  0  0  0
 19 15  1  0  0  0  0
 19 25  1  0  0  0  0
 20 16  2  0  0  0  0
 21  1  2  0  0  0  0
 22 21  1  0  0  0  0
 22  4  2  0  0  0  0
 23 15  1  0  0  0  0
 24 12  1  0  0  0  0
 24  5  1  0  0  0  0
 25 17  1  0  0  0  0
 26 24  1  0  0  0  0
 28 12  1  0  0  0  0
M  END
>  <MODEL>
2

>  <REMARK>
 VINA RESULT:      -5.7      2.505      5.721
  Name = 
  0 active torsions:
  status: ('A' for Active; 'I' for Inactive)
                            x       y       z     vdW  Elec       q    Type
                         _______ _______ _______ _____ _____    ______ ____

>  <TORSDO>
F 0

$$$$
=
 OpenBabel11122411543D

 28 32  0  0  1  0  0  0  0  0999 V2000
  185.3300  175.7340  136.9630 C   0  0  0  0  0  0  0  0  0  0  0  0
  182.7240  175.4060  134.7580 O   0  0  0  0  0  0  0  0  0  0  0  0
  181.5930  178.8020  141.1150 O   0  0  0  0  0  0  0  0  0  0  0  0
  185.5490  173.0070  137.5730 C   0  0  0  0  0  3  0  0  0  0  0  0
  180.6990  176.8150  140.2350 N   0  0  0  0  0  0  0  0  0  0  0  0
  185.2630  177.1960  136.6530 C   0  0  0  0  0  2  0  0  0  0  0  0
  180.7060  174.0170  134.9750 O   0  0  0  0  0  0  0  0  0  0  0  0
  181.4280  175.2280  135.4940 S   0  0  0  0  0  0  0  0  0  0  0  0
  179.9940  177.3690  136.4160 C   0  0  0  0  0  0  0  0  0  0  0  0
  181.7120  175.0390  137.2390 C   0  0  2  0  0  3  0  0  0  0  0  0
  185.5310  179.0600  139.8010 O   0  0  0  0  0  0  0  0  0  0  0  0
  182.6910  175.9280  139.2550 C   0  0  2  0  0  3  0  0  0  0  0  0
  180.1080  176.9210  137.6310 N   0  0  0  0  0  0  0  0  0  0  0  0
  180.4400  176.6210  135.2870 N   0  0  0  0  0  2  0  0  0  0  0  0
  184.9780  178.4780  138.8330 C   0  0  0  0  0  0  0  0  0  0  0  0
  184.2220  175.0420  137.4900 C   0  0  0  0  0  0  0  0  0  0  0  0
  181.7420  177.7440  140.4470 C   0  0  0  0  0  0  0  0  0  0  0  0
  179.4320  178.7270  136.1990 C   0  0  0  0  0  1  0  0  0  0  0  0
  183.4880  178.3540  138.8110 C   0  0  0  0  0  2  0  0  0  0  0  0
  184.3460  173.6780  137.7990 C   0  0  0  0  0  3  0  0  0  0  0  0
  186.5340  175.0550  136.7430 C   0  0  0  0  0  3  0  0  0  0  0  0
  186.6420  173.6950  137.0440 C   0  0  0  0  0  3  0  0  0  0  0  0
  185.7890  177.9690  137.7700 N   0  0  0  0  0  2  0  0  0  0  0  0
  181.1840  175.6790  139.4700 C   0  0  2  0  0  3  0  0  0  0  0  0
  183.0260  177.3240  139.8420 C   0  0  2  0  0  3  0  0  0  0  0  0
  180.5610  175.5870  138.0700 C   0  0  2  0  0  3  0  0  0  0  0  0
  179.3760  176.8980  140.8310 C   0  0  0  0  0  1  0  0  0  0  0  0
  182.9360  175.7690  137.7560 C   0  0  1  0  0  3  0  0  0  0  0  0
  1 16  1  0  0  0  0
  2  8  2  0  0  0  0
  4 20  1  0  0  0  0
  5 17  1  0  0  0  0
  5 27  1  0  0  0  0
  6  1  1  0  0  0  0
  6 23  1  0  0  0  0
  7  8  2  0  0  0  0
  9 13  2  0  0  0  0
 10  8  1  6  0  0  0
 10 28  1  0  0  0  0
 10 26  1  0  0  0  0
 12 24  1  0  0  0  0
 12 25  1  0  0  0  0
 13 26  1  0  0  0  0
 14  8  1  0  0  0  0
 14  9  1  0  0  0  0
 15 11  2  0  0  0  0
 16 28  1  0  0  0  0
 16 20  2  0  0  0  0
 17  3  2  0  0  0  0
 18  9  1  0  0  0  0
 19 15  1  0  0  0  0
 19 25  1  0  0  0  0
 21  1  2  0  0  0  0
 21 22  1  0  0  0  0
 22  4  2  0  0  0  0
 23 15  1  0  0  0  0
 24  5  1  0  0  0  0
 25 17  1  0  0  0  0
 26 24  1  0  0  0  0
 28 12  1  0  0  0  0
M  END
>  <MODEL>
3

>  <REMARK>
 VINA RESULT:      -5.7      2.639      6.073
  Name = 
  0 active torsions:
  status: ('A' for Active; 'I' for Inactive)
                            x       y       z     vdW  Elec       q    Type
                         _______ _______ _______ _____ _____    ______ ____

>  <TORSDO>
F 0

$$$$
=
 OpenBabel11122411543D

 28 32  0  0  1  0  0  0  0  0999 V2000
  180.8070  180.5340  138.4840 C   0  0  0  0  0  0  0  0  0  0  0  0
  184.1810  180.4760  139.0930 O   0  0  0  0  0  0  0  0  0  0  0  0
  181.1750  175.0740  135.2170 O   0  0  0  0  0  0  0  0  0  0  0  0
  180.0170  180.1090  141.1400 C   0  0  0  0  0  3  0  0  0  0  0  0
  182.2580  175.0730  137.3030 N   0  0  0  0  0  0  0  0  0  0  0  0
  181.1810  180.7810  137.0570 C   0  0  0  0  0  2  0  0  0  0  0  0
  185.4460  178.9330  140.5320 O   0  0  0  0  0  0  0  0  0  0  0  0
  184.6640  179.0630  139.2560 S   0  0  0  0  0  0  0  0  0  0  0  0
  185.3230  177.5130  137.0990 C   0  0  0  0  0  0  0  0  0  0  0  0
  183.2980  177.9270  139.2860 C   0  0  2  0  0  3  0  0  0  0  0  0
  179.0820  178.6570  134.9250 O   0  0  0  0  0  0  0  0  0  0  0  0
  181.3200  177.0830  138.1950 C   0  0  2  0  0  3  0  0  0  0  0  0
  184.4080  176.6530  137.4390 N   0  0  0  0  0  0  0  0  0  0  0  0
  185.6590  178.6270  137.9230 N   0  0  0  0  0  2  0  0  0  0  0  0
  180.0810  179.0020  135.6070 C   0  0  0  0  0  0  0  0  0  0  0  0
  181.2400  179.3830  139.1690 C   0  0  0  0  0  0  0  0  0  0  0  0
  181.4100  175.6340  136.3210 C   0  0  0  0  0  0  0  0  0  0  0  0
  186.0010  177.3620  135.7870 C   0  0  0  0  0  1  0  0  0  0  0  0
  181.2100  178.0360  135.7880 C   0  0  0  0  0  2  0  0  0  0  0  0
  180.8330  179.1770  140.4970 C   0  0  0  0  0  3  0  0  0  0  0  0
  179.9850  181.4620  139.1350 C   0  0  0  0  0  3  0  0  0  0  0  0
  179.5940  181.2520  140.4590 C   0  0  0  0  0  3  0  0  0  0  0  0
  180.1210  180.3150  136.1730 N   0  0  0  0  0  2  0  0  0  0  0  0
  182.2950  175.9230  138.4800 C   0  0  2  0  0  3  0  0  0  0  0  0
  180.8010  176.9150  136.7430 C   0  0  2  0  0  3  0  0  0  0  0  0
  183.6700  176.5660  138.7130 C   0  0  2  0  0  3  0  0  0  0  0  0
  182.8740  173.7600  137.2190 C   0  0  0  0  0  1  0  0  0  0  0  0
  182.0980  178.3680  138.4710 C   0  0  1  0  0  3  0  0  0  0  0  0
  1 21  2  0  0  0  0
  1 16  1  0  0  0  0
  2  8  2  0  0  0  0
  3 17  2  0  0  0  0
  5 24  1  0  0  0  0
  6  1  1  0  0  0  0
  8  7  2  0  0  0  0
  9 13  2  0  0  0  0
  9 14  1  0  0  0  0
 10  8  1  6  0  0  0
 11 15  2  0  0  0  0
 12 28  1  0  0  0  0
 12 24  1  0  0  0  0
 13 26  1  0  0  0  0
 14  8  1  0  0  0  0
 15 19  1  0  0  0  0
 15 23  1  0  0  0  0
 16 20  2  0  0  0  0
 17 25  1  0  0  0  0
 17  5  1  0  0  0  0
 18  9  1  0  0  0  0
 19 25  1  0  0  0  0
 20  4  1  0  0  0  0
 21 22  1  0  0  0  0
 22  4  2  0  0  0  0
 23  6  1  0  0  0  0
 24 26  1  0  0  0  0
 25 12  1  0  0  0  0
 26 10  1  0  0  0  0
 27  5  1  0  0  0  0
 28 16  1  0  0  0  0
 28 10  1  0  0  0  0
M  END
>  <MODEL>
4

>  <REMARK>
 VINA RESULT:      -5.3      2.595      3.993
  Name = 
  0 active torsions:
  status: ('A' for Active; 'I' for Inactive)
                            x       y       z     vdW  Elec       q    Type
                         _______ _______ _______ _____ _____    ______ ____

>  <TORSDO>
F 0

$$$$
=
 OpenBabel11122411543D

 28 32  0  0  1  0  0  0  0  0999 V2000
  180.3600  179.5930  141.0990 C   0  0  0  0  0  0  0  0  0  0  0  0
  179.4950  177.2490  138.7510 O   0  0  0  0  0  0  0  0  0  0  0  0
  186.5460  178.2670  140.3290 O   0  0  0  0  0  0  0  0  0  0  0  0
  179.5760  181.8250  139.5940 C   0  0  0  0  0  3  0  0  0  0  0  0
  185.3340  178.6020  138.3440 N   0  0  0  0  0  0  0  0  0  0  0  0
  180.7740  178.4310  141.9460 C   0  0  0  0  0  2  0  0  0  0  0  0
  179.8820  177.3050  136.3220 O   0  0  0  0  0  0  0  0  0  0  0  0
  180.5350  177.1750  137.6690 S   0  0  0  0  0  0  0  0  0  0  0  0
  182.7870  175.6450  137.9420 C   0  0  0  0  0  0  0  0  0  0  0  0
  181.7410  178.4660  137.8640 C   0  0  2  0  0  3  0  0  0  0  0  0
  184.0090  179.2170  143.4860 O   0  0  0  0  0  0  0  0  0  0  0  0
  183.3550  179.5540  139.2870 C   0  0  2  0  0  3  0  0  0  0  0  0
  183.5240  176.7090  137.8140 N   0  0  0  0  0  0  0  0  0  0  0  0
  181.3730  175.6770  137.7620 N   0  0  0  0  0  2  0  0  0  0  0  0
  183.2000  178.7550  142.6410 C   0  0  0  0  0  0  0  0  0  0  0  0
  180.9310  179.8200  139.8320 C   0  0  0  0  0  0  0  0  0  0  0  0
  185.4870  178.6280  139.7480 C   0  0  0  0  0  0  0  0  0  0  0  0
  183.4310  174.3680  138.3440 C   0  0  0  0  0  1  0  0  0  0  0  0
  183.7310  178.1050  141.4020 C   0  0  0  0  0  2  0  0  0  0  0  0
  180.5360  180.9450  139.0900 C   0  0  0  0  0  3  0  0  0  0  0  0
  179.4010  180.4820  141.5990 C   0  0  0  0  0  3  0  0  0  0  0  0
  179.0070  181.5920  140.8480 C   0  0  0  0  0  3  0  0  0  0  0  0
  181.7960  178.8450  142.8970 N   0  0  0  0  0  2  0  0  0  0  0  0
  184.0290  179.1180  137.9700 C   0  0  2  0  0  3  0  0  0  0  0  0
  184.2990  179.1590  140.4530 C   0  0  2  0  0  3  0  0  0  0  0  0
  183.1140  178.0500  137.3540 C   0  0  2  0  0  3  0  0  0  0  0  0
  186.3840  178.2640  137.3980 C   0  0  0  0  0  1  0  0  0  0  0  0
  181.9810  178.8890  139.3000 C   0  0  1  0  0  3  0  0  0  0  0  0
  1 21  1  0  0  0  0
  1  6  1  0  0  0  0
  4 22  1  0  0  0  0
  5 17  1  0  0  0  0
  6 23  1  0  0  0  0
  7  8  2  0  0  0  0
  8 14  1  0  0  0  0
  8  2  2  0  0  0  0
  9 18  1  0  0  0  0
 10  8  1  1  0  0  0
 10 28  1  0  0  0  0
 12 28  1  0  0  0  0
 12 25  1  0  0  0  0
 13  9  2  0  0  0  0
 14  9  1  0  0  0  0
 15 23  1  0  0  0  0
 15 11  2  0  0  0  0
 16  1  2  0  0  0  0
 17  3  2  0  0  0  0
 17 25  1  0  0  0  0
 19 15  1  0  0  0  0
 20  4  2  0  0  0  0
 20 16  1  0  0  0  0
 22 21  2  0  0  0  0
 24  5  1  0  0  0  0
 24 12  1  0  0  0  0
 25 19  1  0  0  0  0
 26 13  1  0  0  0  0
 26 10  1  0  0  0  0
 26 24  1  0  0  0  0
 27  5  1  0  0  0  0
 28 16  1  0  0  0  0
M  END
>  <MODEL>
5

>  <REMARK>
 VINA RESULT:      -5.0      2.782      4.186
  Name = 
  0 active torsions:
  status: ('A' for Active; 'I' for Inactive)
                            x       y       z     vdW  Elec       q    Type
                         _______ _______ _______ _____ _____    ______ ____

>  <TORSDO>
F 0

$$$$
=
 OpenBabel11122411543D

 28 32  0  0  1  0  0  0  0  0999 V2000
  185.5160  174.9090  136.0860 C   0  0  0  0  0  0  0  0  0  0  0  0
  182.4330  175.0770  134.5940 O   0  0  0  0  0  0  0  0  0  0  0  0
  184.3250  180.2040  139.4280 O   0  0  0  0  0  0  0  0  0  0  0  0
  184.9980  172.5940  137.5790 C   0  0  0  0  0  3  0  0  0  0  0  0
  182.6220  178.5860  139.4660 N   0  0  0  0  0  0  0  0  0  0  0  0
  185.8440  176.1350  135.2930 C   0  0  0  0  0  2  0  0  0  0  0  0
  180.2220  174.7270  135.6130 O   0  0  0  0  0  0  0  0  0  0  0  0
  181.4150  175.6380  135.5450 S   0  0  0  0  0  0  0  0  0  0  0  0
  181.0810  178.3350  135.8670 C   0  0  0  0  0  0  0  0  0  0  0  0
  182.1060  175.8240  137.1720 C   0  0  2  0  0  3  0  0  0  0  0  0
  187.5880  178.5010  137.4890 O   0  0  0  0  0  0  0  0  0  0  0  0
  183.8500  176.7490  138.5560 C   0  0  2  0  0  3  0  0  0  0  0  0
  181.3840  178.2210  137.1270 N   0  0  0  0  0  0  0  0  0  0  0  0
  180.9200  177.1990  135.0200 N   0  0  0  0  0  2  0  0  0  0  0  0
  186.6240  177.9540  136.8930 C   0  0  0  0  0  0  0  0  0  0  0  0
  184.4420  174.8880  136.9970 C   0  0  0  0  0  0  0  0  0  0  0  0
  183.9250  179.0390  139.1630 C   0  0  0  0  0  0  0  0  0  0  0  0
  180.9560  179.6920  135.2770 C   0  0  0  0  0  1  0  0  0  0  0  0
  185.2340  178.4370  137.1580 C   0  0  0  0  0  2  0  0  0  0  0  0
  184.1960  173.7250  137.7450 C   0  0  0  0  0  3  0  0  0  0  0  0
  186.3180  173.7730  135.9300 C   0  0  0  0  0  3  0  0  0  0  0  0
  186.0580  172.6180  136.6710 C   0  0  0  0  0  3  0  0  0  0  0  0
  186.8870  176.9000  135.9630 N   0  0  0  0  0  2  0  0  0  0  0  0
  182.4720  177.1920  139.0860 C   0  0  2  0  0  3  0  0  0  0  0  0
  184.7740  177.9950  138.5470 C   0  0  2  0  0  3  0  0  0  0  0  0
  181.4820  176.9870  137.9300 C   0  0  2  0  0  3  0  0  0  0  0  0
  181.6250  179.3480  140.1990 C   0  0  0  0  0  1  0  0  0  0  0  0
  183.5940  176.1110  137.1920 C   0  0  1  0  0  3  0  0  0  0  0  0
  1 16  1  0  0  0  0
  2  8  2  0  0  0  0
  4 20  1  0  0  0  0
  5 27  1  0  0  0  0
  6 23  1  0  0  0  0
  6  1  1  0  0  0  0
  8  7  2  0  0  0  0
  9 13  2  0  0  0  0
 10  8  1  6  0  0  0
 10 28  1  0  0  0  0
 10 26  1  0  0  0  0
 12 24  1  0  0  0  0
 13 26  1  0  0  0  0
 14  8  1  0  0  0  0
 14  9  1  0  0  0  0
 15 19  1  0  0  0  0
 15 11  2  0  0  0  0
 16 28  1  0  0  0  0
 16 20  2  0  0  0  0
 17  3  2  0  0  0  0
 17  5  1  0  0  0  0
 18  9  1  0  0  0  0
 19 25  1  0  0  0  0
 21  1  2  0  0  0  0
 21 22  1  0  0  0  0
 22  4  2  0  0  0  0
 23 15  1  0  0  0  0
 24  5  1  0  0  0  0
 25 12  1  0  0  0  0
 25 17  1  0  0  0  0
 26 24  1  0  0  0  0
 28 12  1  0  0  0  0
M  END
>  <MODEL>
6

>  <REMARK>
 VINA RESULT:      -4.7      2.796      6.516
  Name = 
  0 active torsions:
  status: ('A' for Active; 'I' for Inactive)
                            x       y       z     vdW  Elec       q    Type
                         _______ _______ _______ _____ _____    ______ ____

>  <TORSDO>
F 0

$$$$
=
 OpenBabel11122411543D

 28 32  0  0  1  0  0  0  0  0999 V2000
  181.4880  178.2410  137.2450 C   0  0  0  0  0  0  0  0  0  0  0  0
  181.0650  174.8950  136.6240 O   0  0  0  0  0  0  0  0  0  0  0  0
  187.8190  177.5320  137.4390 O   0  0  0  0  0  0  0  0  0  0  0  0
  180.6130  179.1220  134.7310 C   0  0  0  0  0  3  0  0  0  0  0  0
  186.7520  176.5370  135.5970 N   0  0  0  0  0  0  0  0  0  0  0  0
  181.9440  177.8180  138.6050 C   0  0  0  0  0  2  0  0  0  0  0  0
  181.6470  173.6320  134.5950 O   0  0  0  0  0  0  0  0  0  0  0  0
  182.1940  174.3650  135.7870 S   0  0  0  0  0  0  0  0  0  0  0  0
  184.5580  173.5600  136.9060 C   0  0  0  0  0  0  0  0  0  0  0  0
  183.2440  175.6880  135.2320 C   0  0  2  0  0  3  0  0  0  0  0  0
  184.9430  179.7450  139.4720 O   0  0  0  0  0  0  0  0  0  0  0  0
  184.6140  177.5860  135.8110 C   0  0  2  0  0  3  0  0  0  0  0  0
  185.1920  174.4560  136.2080 N   0  0  0  0  0  0  0  0  0  0  0  0
  183.1670  173.3000  136.7220 N   0  0  0  0  0  2  0  0  0  0  0  0
  184.2580  178.7880  139.0260 C   0  0  0  0  0  0  0  0  0  0  0  0
  182.1380  177.7920  136.0790 C   0  0  0  0  0  0  0  0  0  0  0  0
  186.7820  177.3640  136.7420 C   0  0  0  0  0  0  0  0  0  0  0  0
  185.2900  172.8240  137.9680 C   0  0  0  0  0  1  0  0  0  0  0  0
  184.9550  177.6330  138.3790 C   0  0  0  0  0  2  0  0  0  0  0  0
  181.6960  178.2460  134.8250 C   0  0  0  0  0  3  0  0  0  0  0  0
  180.4060  179.1230  137.1420 C   0  0  0  0  0  3  0  0  0  0  0  0
  179.9680  179.5600  135.8890 C   0  0  0  0  0  3  0  0  0  0  0  0
  182.8360  178.8220  139.1690 N   0  0  0  0  0  2  0  0  0  0  0  0
  185.4370  176.5800  134.9800 C   0  0  2  0  0  3  0  0  0  0  0  0
  185.4910  178.0380  137.0070 C   0  0  2  0  0  3  0  0  0  0  0  0
  184.6890  175.2420  135.0650 C   0  0  2  0  0  3  0  0  0  0  0  0
  187.9060  175.8690  135.0210 C   0  0  0  0  0  1  0  0  0  0  0  0
  183.3170  176.8690  136.1800 C   0  0  1  0  0  3  0  0  0  0  0  0
  1  6  1  0  0  0  0
  4 20  2  0  0  0  0
  4 22  1  0  0  0  0
  5 17  1  0  0  0  0
  6 23  1  0  0  0  0
  7  8  2  0  0  0  0
  8  2  2  0  0  0  0
  8 14  1  0  0  0  0
  9 18  1  0  0  0  0
 10  8  1  1  0  0  0
 10 28  1  0  0  0  0
 12 28  1  0  0  0  0
 12 25  1  0  0  0  0
 13  9  2  0  0  0  0
 14  9  1  0  0  0  0
 15 23  1  0  0  0  0
 15 11  2  0  0  0  0
 16 28  1  0  0  0  0
 16  1  2  0  0  0  0
 17 25  1  0  0  0  0
 17  3  2  0  0  0  0
 19 15  1  0  0  0  0
 20 16  1  0  0  0  0
 21  1  1  0  0  0  0
 22 21  2  0  0  0  0
 24 26  1  0  0  0  0
 24  5  1  0  0  0  0
 24 12  1  0  0  0  0
 25 19  1  0  0  0  0
 26 10  1  0  0  0  0
 26 13  1  0  0  0  0
 27  5  1  0  0  0  0
M  END
>  <MODEL>
7

>  <REMARK>
 VINA RESULT:      -4.5      3.417      6.137
  Name = 
  0 active torsions:
  status: ('A' for Active; 'I' for Inactive)
                            x       y       z     vdW  Elec       q    Type
                         _______ _______ _______ _____ _____    ______ ____

>  <TORSDO>
F 0

$$$$
=
 OpenBabel11122411543D

 28 32  0  0  1  0  0  0  0  0999 V2000
  189.4200  178.2550  139.5790 C   0  0  0  0  0  0  0  0  0  0  0  0
  192.8150  178.0130  139.1670 O   0  0  0  0  0  0  0  0  0  0  0  0
  188.4150  174.4140  134.5940 O   0  0  0  0  0  0  0  0  0  0  0  0
  189.3140  176.8610  142.0080 C   0  0  0  0  0  3  0  0  0  0  0  0
  189.9990  173.6470  136.1510 N   0  0  0  0  0  0  0  0  0  0  0  0
  189.4300  179.0220  138.2940 C   0  0  0  0  0  2  0  0  0  0  0  0
  194.2630  176.0600  139.5410 O   0  0  0  0  0  0  0  0  0  0  0  0
  193.1910  176.6470  138.6680 S   0  0  0  0  0  0  0  0  0  0  0  0
  193.1190  176.0210  136.0050 C   0  0  0  0  0  0  0  0  0  0  0  0
  191.7800  175.5660  138.6610 C   0  0  2  0  0  3  0  0  0  0  0  0
  186.6610  177.8220  136.2080 O   0  0  0  0  0  0  0  0  0  0  0  0
  189.5170  175.1680  137.9310 C   0  0  2  0  0  3  0  0  0  0  0  0
  192.2470  175.0870  136.2490 N   0  0  0  0  0  0  0  0  0  0  0  0
  193.7600  176.7520  137.0480 N   0  0  0  0  0  2  0  0  0  0  0  0
  187.8310  177.8990  136.6630 C   0  0  0  0  0  0  0  0  0  0  0  0
  189.9080  176.9370  139.6530 C   0  0  0  0  0  0  0  0  0  0  0  0
  188.9810  174.5240  135.7140 C   0  0  0  0  0  0  0  0  0  0  0  0
  193.4130  176.3790  134.5940 C   0  0  0  0  0  1  0  0  0  0  0  0
  188.8720  176.9490  136.1630 C   0  0  0  0  0  2  0  0  0  0  0  0
  189.8440  176.2450  140.8730 C   0  0  0  0  0  3  0  0  0  0  0  0
  188.8860  178.8650  140.7210 C   0  0  0  0  0  3  0  0  0  0  0  0
  188.8360  178.1710  141.9320 C   0  0  0  0  0  3  0  0  0  0  0  0
  188.1380  178.9060  137.6310 N   0  0  0  0  0  2  0  0  0  0  0  0
  190.4210  173.9960  137.4960 C   0  0  2  0  0  3  0  0  0  0  0  0
  188.6250  175.5480  136.7210 C   0  0  2  0  0  3  0  0  0  0  0  0
  191.8620  174.5220  137.5560 C   0  0  2  0  0  3  0  0  0  0  0  0
  190.4470  172.4680  135.4310 C   0  0  0  0  0  1  0  0  0  0  0  0
  190.4560  176.2660  138.4270 C   0  0  1  0  0  3  0  0  0  0  0  0
  1 16  2  0  0  0  0
  1 21  1  0  0  0  0
  3 17  2  0  0  0  0
  5 24  1  0  0  0  0
  6  1  1  0  0  0  0
  8  2  2  0  0  0  0
  8  7  2  0  0  0  0
  9 13  2  0  0  0  0
  9 14  1  0  0  0  0
 10  8  1  6  0  0  0
 11 15  2  0  0  0  0
 12 28  1  0  0  0  0
 13 26  1  0  0  0  0
 14  8  1  0  0  0  0
 15 23  1  0  0  0  0
 16 20  1  0  0  0  0
 17  5  1  0  0  0  0
 17 25  1  0  0  0  0
 18  9  1  0  0  0  0
 19 15  1  0  0  0  0
 19 25  1  0  0  0  0
 20  4  2  0  0  0  0
 21 22  2  0  0  0  0
 22  4  1  0  0  0  0
 23  6  1  0  0  0  0
 24 26  1  0  0  0  0
 24 12  1  0  0  0  0
 25 12  1  0  0  0  0
 26 10  1  0  0  0  0
 27  5  1  0  0  0  0
 28 10  1  0  0  0  0
 28 16  1  0  0  0  0
M  END
>  <MODEL>
8

>  <REMARK>
 VINA RESULT:      -4.0      7.524      9.609
  Name = 
  0 active torsions:
  status: ('A' for Active; 'I' for Inactive)
                            x       y       z     vdW  Elec       q    Type
                         _______ _______ _______ _____ _____    ______ ____

>  <TORSDO>
F 0

$$$$
=
 OpenBabel11122411543D

 28 32  0  0  1  0  0  0  0  0999 V2000
  181.2020  179.5060  137.1990 C   0  0  0  0  0  0  0  0  0  0  0  0
  179.1710  176.7990  136.6460 O   0  0  0  0  0  0  0  0  0  0  0  0
  186.3920  175.8120  137.0000 O   0  0  0  0  0  0  0  0  0  0  0  0
  180.7140  180.7530  134.7370 C   0  0  0  0  0  3  0  0  0  0  0  0
  184.8660  175.4980  135.2420 N   0  0  0  0  0  0  0  0  0  0  0  0
  181.4780  178.8870  138.5330 C   0  0  0  0  0  2  0  0  0  0  0  0
  178.9430  175.4550  134.5990 O   0  0  0  0  0  0  0  0  0  0  0  0
  179.8480  175.8060  135.7450 S   0  0  0  0  0  0  0  0  0  0  0  0
  181.5870  173.9320  136.7220 C   0  0  0  0  0  0  0  0  0  0  0  0
  181.3720  176.4650  135.1100 C   0  0  2  0  0  3  0  0  0  0  0  0
  185.0820  179.1000  139.1860 O   0  0  0  0  0  0  0  0  0  0  0  0
  183.5240  177.4470  135.5780 C   0  0  2  0  0  3  0  0  0  0  0  0
  182.5320  174.4220  135.9750 N   0  0  0  0  0  0  0  0  0  0  0  0
  180.2370  174.3830  136.6290 N   0  0  0  0  0  2  0  0  0  0  0  0
  183.9930  178.6050  138.7960 C   0  0  0  0  0  0  0  0  0  0  0  0
  181.4810  178.8230  136.0000 C   0  0  0  0  0  0  0  0  0  0  0  0
  185.3640  176.1820  136.3730 C   0  0  0  0  0  0  0  0  0  0  0  0
  181.9330  172.9120  137.7440 C   0  0  0  0  0  1  0  0  0  0  0  0
  184.0000  177.2700  138.1190 C   0  0  0  0  0  2  0  0  0  0  0  0
  181.2390  179.4600  134.7720 C   0  0  0  0  0  3  0  0  0  0  0  0
  180.6810  180.8050  137.1550 C   0  0  0  0  0  3  0  0  0  0  0  0
  180.4340  181.4250  135.9280 C   0  0  0  0  0  3  0  0  0  0  0  0
  182.7780  179.3210  139.0280 N   0  0  0  0  0  2  0  0  0  0  0  0
  183.7020  176.1860  134.7090 C   0  0  2  0  0  3  0  0  0  0  0  0
  184.5810  177.3920  136.7110 C   0  0  2  0  0  3  0  0  0  0  0  0
  182.4060  175.3760  134.8570 C   0  0  2  0  0  3  0  0  0  0  0  0
  185.5130  174.3650  134.6020 C   0  0  0  0  0  1  0  0  0  0  0  0
  182.0670  177.4420  136.0380 C   0  0  1  0  0  3  0  0  0  0  0  0
  1  6  1  0  0  0  0
  4 20  2  0  0  0  0
  4 22  1  0  0  0  0
  5 17  1  0  0  0  0
  6 23  1  0  0  0  0
  7  8  2  0  0  0  0
  8 14  1  0  0  0  0
  8  2  2  0  0  0  0
  9 18  1  0  0  0  0
 10  8  1  1  0  0  0
 10 28  1  0  0  0  0
 12 28  1  0  0  0  0
 12 25  1  0  0  0  0
 13  9  2  0  0  0  0
 14  9  1  0  0  0  0
 15 23  1  0  0  0  0
 15 11  2  0  0  0  0
 16 28  1  0  0  0  0
 16  1  2  0  0  0  0
 17 25  1  0  0  0  0
 17  3  2  0  0  0  0
 19 15  1  0  0  0  0
 20 16  1  0  0  0  0
 21  1  1  0  0  0  0
 22 21  2  0  0  0  0
 24 26  1  0  0  0  0
 24  5  1  0  0  0  0
 24 12  1  0  0  0  0
 25 19  1  0  0  0  0
 26 10  1  0  0  0  0
 26 13  1  0  0  0  0
 27  5  1  0  0  0  0
M  END
>  <MODEL>
9

>  <REMARK>
 VINA RESULT:      -3.9      3.511      5.618
  Name = 
  0 active torsions:
  status: ('A' for Active; 'I' for Inactive)
                            x       y       z     vdW  Elec       q    Type
                         _______ _______ _______ _____ _____    ______ ____

>  <TORSDO>
F 0

$$$$
