=
 OpenBabel11122410553D

 31 35  0  0  1  0  0  0  0  0999 V2000
  184.4150  178.6860  144.6290 C   0  0  0  0  0  0  0  0  0  0  0  0
  188.0030  177.8690  143.8160 C   0  0  0  0  0  0  0  0  0  0  0  0
  188.6640  177.6140  145.0620 C   0  0  0  0  0  0  0  0  0  0  0  0
  187.2920  178.4160  138.6080 O   0  0  0  0  0  0  0  0  0  0  0  0
  188.4960  178.1230  138.8320 C   0  0  0  0  0  0  0  0  0  0  0  0
  188.6720  177.4280  147.5010 C   0  0  0  0  0  0  0  0  0  0  0  0
  186.6220  178.2160  143.6900 C   0  0  0  0  0  0  0  0  0  0  0  0
  183.9040  178.9090  143.3520 C   0  0  0  0  0  3  0  0  0  0  0  0
  188.0030  177.6820  146.3030 C   0  0  0  0  0  3  0  0  0  0  0  0
  188.1790  178.0100  141.3690 C   0  0  0  0  0  0  0  0  0  0  0  0
  183.6090  178.8020  145.7120 F   0  0  0  0  0  0  0  0  0  0  0  0
  190.7590  177.1890  143.8840 C   0  0  0  0  0  3  0  0  0  0  0  0
  187.9390  177.5100  148.7920 C   0  0  0  0  0  1  0  0  0  0  0  0
  186.8650  178.3380  141.2990 N   0  0  0  0  0  0  0  0  0  0  0  0
  188.7730  177.7710  142.6180 C   0  0  0  0  0  0  0  0  0  0  0  0
  188.9630  177.9100  140.1710 N   0  0  0  0  0  2  0  0  0  0  0  0
  185.7590  178.3450  144.7930 C   0  0  0  0  0  3  0  0  0  0  0  0
  190.0250  177.0970  147.4870 C   0  0  0  0  0  3  0  0  0  0  0  0
  186.0830  178.4460  142.3990 C   0  0  0  0  0  0  0  0  0  0  0  0
  184.7370  178.7880  142.2400 C   0  0  0  0  0  3  0  0  0  0  0  0
  190.1300  177.4350  142.6730 C   0  0  0  0  0  3  0  0  0  0  0  0
  190.0440  177.2750  145.0720 C   0  0  0  0  0  0  0  0  0  0  0  0
  190.7090  177.0210  146.2750 C   0  0  0  0  0  3  0  0  0  0  0  0
  188.5650  176.0370  135.8560 C   0  0  1  0  0  3  0  0  0  0  0  0
  188.7200  178.2500  136.3360 C   0  0  0  0  0  2  0  0  0  0  0  0
  190.7210  176.3280  138.8830 C   0  0  0  0  0  1  0  0  0  0  0  0
  187.6870  174.9700  135.4120 N   0  0  0  0  0  1  0  0  0  0  0  0
  187.8120  177.2090  136.0540 O   0  0  0  0  0  0  0  0  0  0  0  0
  190.1490  176.6930  137.5940 N   0  0  0  0  0  0  0  0  0  0  0  0
  189.4430  177.9900  137.6650 C   0  0  2  0  0  3  0  0  0  0  0  0
  189.2440  175.6260  137.1640 C   0  0  0  0  0  2  0  0  0  0  0  0
  1 17  1  0  0  0  0
  1 11  1  0  0  0  0
  2  3  1  0  0  0  0
  3 22  2  0  0  0  0
  3  9  1  0  0  0  0
  4  5  2  0  0  0  0
  5 16  1  0  0  0  0
  6 13  1  0  0  0  0
  7  2  1  0  0  0  0
  7 17  2  0  0  0  0
  8  1  2  0  0  0  0
  9  6  2  0  0  0  0
 10 15  1  0  0  0  0
 12 22  1  0  0  0  0
 14 10  2  0  0  0  0
 14 19  1  0  0  0  0
 15 21  1  0  0  0  0
 15  2  2  0  0  0  0
 16 10  1  0  0  0  0
 18  6  1  0  0  0  0
 19  7  1  0  0  0  0
 20 19  2  0  0  0  0
 20  8  1  0  0  0  0
 21 12  2  0  0  0  0
 22 23  1  0  0  0  0
 23 18  2  0  0  0  0
 24 27  1  1  0  0  0
 24 28  1  0  0  0  0
 24 31  1  0  0  0  0
 25 30  1  0  0  0  0
 28 25  1  0  0  0  0
 29 30  1  0  0  0  0
 29 26  1  0  0  0  0
 30  5  1  1  0  0  0
 31 29  1  0  0  0  0
M  END
>  <MODEL>
1

>  <REMARK>
 VINA RESULT:     -12.6      0.000      0.000
  Name = 
  1 active torsions:
  status: ('A' for Active; 'I' for Inactive)
    1  A    between atoms: C_5  and  C_30
                            x       y       z     vdW  Elec       q    Type
                         _______ _______ _______ _____ _____    ______ ____

>  <TORSDO>
F 1

$$$$
=
 OpenBabel11122410553D

 31 35  0  0  1  0  0  0  0  0999 V2000
  190.3710  176.9290  145.9880 C   0  0  0  0  0  0  0  0  0  0  0  0
  187.8070  177.8430  143.3830 C   0  0  0  0  0  0  0  0  0  0  0  0
  186.5970  178.1620  144.0840 C   0  0  0  0  0  0  0  0  0  0  0  0
  191.1490  177.1030  139.3570 O   0  0  0  0  0  0  0  0  0  0  0  0
  190.0250  177.4460  138.9040 C   0  0  0  0  0  0  0  0  0  0  0  0
  185.3030  178.4270  146.1430 C   0  0  0  0  0  0  0  0  0  0  0  0
  189.0250  177.4450  144.0140 C   0  0  0  0  0  0  0  0  0  0  0  0
  191.4720  176.6480  145.1810 C   0  0  0  0  0  3  0  0  0  0  0  0
  186.4940  178.1110  145.4870 C   0  0  0  0  0  3  0  0  0  0  0  0
  188.9510  177.6290  141.2190 C   0  0  0  0  0  0  0  0  0  0  0  0
  190.4730  176.8210  147.3340 F   0  0  0  0  0  0  0  0  0  0  0  0
  185.4700  178.6200  141.9680 C   0  0  0  0  0  3  0  0  0  0  0  0
  185.2340  178.3620  147.6260 C   0  0  0  0  0  1  0  0  0  0  0  0
  190.0850  177.2540  141.8620 N   0  0  0  0  0  0  0  0  0  0  0  0
  187.7960  177.9300  141.9580 C   0  0  0  0  0  0  0  0  0  0  0  0
  188.9280  177.7170  139.7860 N   0  0  0  0  0  2  0  0  0  0  0  0
  189.1630  177.3220  145.4080 C   0  0  0  0  0  3  0  0  0  0  0  0
  184.1810  178.8040  145.4080 C   0  0  0  0  0  3  0  0  0  0  0  0
  190.1570  177.1540  143.2100 C   0  0  0  0  0  0  0  0  0  0  0  0
  191.3640  176.7610  143.7950 C   0  0  0  0  0  3  0  0  0  0  0  0
  186.6340  178.3140  141.2790 C   0  0  0  0  0  3  0  0  0  0  0  0
  185.4400  178.5480  143.3550 C   0  0  0  0  0  0  0  0  0  0  0  0
  184.2500  178.8640  144.0170 C   0  0  0  0  0  3  0  0  0  0  0  0
  187.1390  177.7180  136.7100 C   0  0  1  0  0  3  0  0  0  0  0  0
  189.0760  178.8500  137.0530 C   0  0  0  0  0  2  0  0  0  0  0  0
  189.8050  175.1580  137.2020 C   0  0  0  0  0  1  0  0  0  0  0  0
  185.7160  177.6740  136.9890 N   0  0  0  0  0  1  0  0  0  0  0  0
  187.7320  178.7460  137.4650 O   0  0  0  0  0  0  0  0  0  0  0  0
  189.2010  176.4100  136.7680 N   0  0  0  0  0  0  0  0  0  0  0  0
  189.8500  177.5730  137.4100 C   0  0  2  0  0  3  0  0  0  0  0  0
  187.7700  176.3720  137.0760 C   0  0  0  0  0  2  0  0  0  0  0  0
  1 11  1  0  0  0  0
  2  7  1  0  0  0  0
  2  3  1  0  0  0  0
  3  9  1  0  0  0  0
  5  4  2  0  0  0  0
  5 16  1  0  0  0  0
  6 13  1  0  0  0  0
  7 17  2  0  0  0  0
  8  1  2  0  0  0  0
  9  6  2  0  0  0  0
 10 14  2  0  0  0  0
 10 15  1  0  0  0  0
 12 22  1  0  0  0  0
 14 19  1  0  0  0  0
 15  2  2  0  0  0  0
 16 10  1  0  0  0  0
 17  1  1  0  0  0  0
 18  6  1  0  0  0  0
 19 20  2  0  0  0  0
 19  7  1  0  0  0  0
 20  8  1  0  0  0  0
 21 15  1  0  0  0  0
 21 12  2  0  0  0  0
 22 23  1  0  0  0  0
 22  3  2  0  0  0  0
 23 18  2  0  0  0  0
 24 27  1  1  0  0  0
 24 31  1  0  0  0  0
 24 28  1  0  0  0  0
 25 30  1  0  0  0  0
 25 28  1  0  0  0  0
 29 31  1  0  0  0  0
 29 26  1  0  0  0  0
 29 30  1  0  0  0  0
 30  5  1  1  0  0  0
M  END
>  <MODEL>
2

>  <REMARK>
 VINA RESULT:     -12.3      1.998      4.079
  Name = 
  1 active torsions:
  status: ('A' for Active; 'I' for Inactive)
    1  A    between atoms: C_5  and  C_30
                            x       y       z     vdW  Elec       q    Type
                         _______ _______ _______ _____ _____    ______ ____

>  <TORSDO>
F 1

$$$$
=
 OpenBabel11122410553D

 31 35  0  0  1  0  0  0  0  0999 V2000
  188.9470  177.8730  141.1150 C   0  0  0  0  0  0  0  0  0  0  0  0
  185.8930  178.3540  143.2680 C   0  0  0  0  0  0  0  0  0  0  0  0
  186.3220  178.2360  144.6320 C   0  0  0  0  0  0  0  0  0  0  0  0
  182.6830  179.0690  139.1320 O   0  0  0  0  0  0  0  0  0  0  0  0
  182.0100  179.1400  140.1940 C   0  0  0  0  0  0  0  0  0  0  0  0
  188.0500  177.8780  146.3250 C   0  0  0  0  0  0  0  0  0  0  0  0
  186.7560  178.2340  142.1360 C   0  0  0  0  0  0  0  0  0  0  0  0
  188.3920  178.0090  139.8440 C   0  0  0  0  0  3  0  0  0  0  0  0
  187.6610  177.9870  144.9890 C   0  0  0  0  0  3  0  0  0  0  0  0
  184.0320  178.7320  141.7090 C   0  0  0  0  0  0  0  0  0  0  0  0
  190.2730  177.6320  141.2540 F   0  0  0  0  0  0  0  0  0  0  0  0
  184.0390  178.6210  145.4030 C   0  0  0  0  0  3  0  0  0  0  0  0
  189.4740  177.6140  146.6630 C   0  0  0  0  0  1  0  0  0  0  0  0
  184.8890  178.6100  140.6650 N   0  0  0  0  0  0  0  0  0  0  0  0
  184.5100  178.6080  143.0230 C   0  0  0  0  0  0  0  0  0  0  0  0
  182.6390  178.9860  141.4740 N   0  0  0  0  0  2  0  0  0  0  0  0
  188.1360  177.9840  142.2460 C   0  0  0  0  0  3  0  0  0  0  0  0
  187.1060  178.0160  147.3410 C   0  0  0  0  0  3  0  0  0  0  0  0
  186.2110  178.3690  140.8340 C   0  0  0  0  0  0  0  0  0  0  0  0
  187.0270  178.2570  139.7050 C   0  0  0  0  0  3  0  0  0  0  0  0
  183.6120  178.7360  144.0890 C   0  0  0  0  0  3  0  0  0  0  0  0
  185.3770  178.3740  145.6830 C   0  0  0  0  0  0  0  0  0  0  0  0
  185.7730  178.2640  147.0200 C   0  0  0  0  0  3  0  0  0  0  0  0
  179.2690  179.0170  142.5770 C   0  0  1  0  0  3  0  0  0  0  0  0
  180.0960  180.5030  141.0750 C   0  0  0  0  0  2  0  0  0  0  0  0
  180.1530  177.0720  139.5220 C   0  0  0  0  0  1  0  0  0  0  0  0
  179.2300  178.6280  143.9740 N   0  0  0  0  0  1  0  0  0  0  0  0
  180.2000  180.0580  142.4080 O   0  0  0  0  0  0  0  0  0  0  0  0
  179.6840  178.2010  140.3140 N   0  0  0  0  0  0  0  0  0  0  0  0
  180.5260  179.3970  140.1010 C   0  0  2  0  0  3  0  0  0  0  0  0
  179.6720  177.8110  141.7250 C   0  0  0  0  0  2  0  0  0  0  0  0
  1 11  1  0  0  0  0
  1 17  1  0  0  0  0
  2  3  1  0  0  0  0
  3  9  2  0  0  0  0
  3 22  1  0  0  0  0
  4  5  2  0  0  0  0
  5 16  1  0  0  0  0
  6 13  1  0  0  0  0
  6 18  2  0  0  0  0
  7 17  2  0  0  0  0
  7  2  1  0  0  0  0
  8  1  2  0  0  0  0
  9  6  1  0  0  0  0
 10 15  1  0  0  0  0
 12 22  1  0  0  0  0
 14 19  1  0  0  0  0
 14 10  2  0  0  0  0
 15  2  2  0  0  0  0
 15 21  1  0  0  0  0
 16 10  1  0  0  0  0
 19  7  1  0  0  0  0
 20  8  1  0  0  0  0
 20 19  2  0  0  0  0
 21 12  2  0  0  0  0
 22 23  2  0  0  0  0
 23 18  1  0  0  0  0
 24 27  1  1  0  0  0
 25 28  1  0  0  0  0
 26 29  1  0  0  0  0
 28 24  1  0  0  0  0
 29 31  1  0  0  0  0
 30  5  1  1  0  0  0
 30 29  1  0  0  0  0
 30 25  1  0  0  0  0
 31 24  1  0  0  0  0
M  END
>  <MODEL>
3

>  <REMARK>
 VINA RESULT:     -11.5      3.808      6.799
  Name = 
  1 active torsions:
  status: ('A' for Active; 'I' for Inactive)
    1  A    between atoms: C_5  and  C_30
                            x       y       z     vdW  Elec       q    Type
                         _______ _______ _______ _____ _____    ______ ____

>  <TORSDO>
F 1

$$$$
=
 OpenBabel11122410553D

 31 35  0  0  1  0  0  0  0  0999 V2000
  190.3580  177.3640  141.8930 C   0  0  0  0  0  0  0  0  0  0  0  0
  186.8810  178.1990  143.0830 C   0  0  0  0  0  0  0  0  0  0  0  0
  186.8960  178.0960  144.5140 C   0  0  0  0  0  0  0  0  0  0  0  0
  185.0540  179.0390  138.1970 O   0  0  0  0  0  0  0  0  0  0  0  0
  184.1190  179.2110  139.0230 C   0  0  0  0  0  0  0  0  0  0  0  0
  188.0330  177.6500  146.6330 C   0  0  0  0  0  0  0  0  0  0  0  0
  188.0140  177.9590  142.2450 C   0  0  0  0  0  0  0  0  0  0  0  0
  190.2000  177.5000  140.5150 C   0  0  0  0  0  3  0  0  0  0  0  0
  188.0480  177.7420  145.2400 C   0  0  0  0  0  3  0  0  0  0  0  0
  185.5820  178.6830  141.0550 C   0  0  0  0  0  0  0  0  0  0  0  0
  191.5610  177.0110  142.4060 F   0  0  0  0  0  0  0  0  0  0  0  0
  184.5360  178.7140  144.5990 C   0  0  0  0  0  3  0  0  0  0  0  0
  189.2700  177.2720  147.3640 C   0  0  0  0  0  1  0  0  0  0  0  0
  186.6830  178.4440  140.2990 N   0  0  0  0  0  0  0  0  0  0  0  0
  185.6560  178.5670  142.4520 C   0  0  0  0  0  0  0  0  0  0  0  0
  184.3440  179.0510  140.4300 N   0  0  0  0  0  2  0  0  0  0  0  0
  189.2750  177.5910  142.7450 C   0  0  0  0  0  3  0  0  0  0  0  0
  186.8590  177.9110  147.3360 C   0  0  0  0  0  3  0  0  0  0  0  0
  187.8730  178.0930  140.8400 C   0  0  0  0  0  0  0  0  0  0  0  0
  188.9600  177.8650  139.9910 C   0  0  0  0  0  3  0  0  0  0  0  0
  184.5100  178.8160  143.2160 C   0  0  0  0  0  3  0  0  0  0  0  0
  185.7100  178.3580  145.2510 C   0  0  0  0  0  0  0  0  0  0  0  0
  185.7000  178.2640  146.6460 C   0  0  0  0  0  3  0  0  0  0  0  0
  180.7210  178.3320  139.9680 C   0  0  1  0  0  3  0  0  0  0  0  0
  181.9070  180.2360  139.6180 C   0  0  0  0  0  2  0  0  0  0  0  0
  182.8160  177.7490  136.9390 C   0  0  0  0  0  1  0  0  0  0  0  0
  180.2120  177.4090  140.9640 N   0  0  0  0  0  1  0  0  0  0  0  0
  181.5580  179.2760  140.5900 O   0  0  0  0  0  0  0  0  0  0  0  0
  181.9970  178.4860  137.8910 N   0  0  0  0  0  0  0  0  0  0  0  0
  182.7530  179.5960  138.5080 C   0  0  2  0  0  3  0  0  0  0  0  0
  181.5070  177.5550  138.9090 C   0  0  0  0  0  2  0  0  0  0  0  0
  1 11  1  0  0  0  0
  1 17  1  0  0  0  0
  2  3  1  0  0  0  0
  3  9  2  0  0  0  0
  3 22  1  0  0  0  0
  4  5  2  0  0  0  0
  5 16  1  0  0  0  0
  6 18  2  0  0  0  0
  6 13  1  0  0  0  0
  7 17  2  0  0  0  0
  7  2  1  0  0  0  0
  8  1  2  0  0  0  0
  9  6  1  0  0  0  0
 10 15  1  0  0  0  0
 12 22  1  0  0  0  0
 14 19  1  0  0  0  0
 14 10  2  0  0  0  0
 15  2  2  0  0  0  0
 15 21  1  0  0  0  0
 16 10  1  0  0  0  0
 19  7  1  0  0  0  0
 20  8  1  0  0  0  0
 20 19  2  0  0  0  0
 21 12  2  0  0  0  0
 22 23  2  0  0  0  0
 23 18  1  0  0  0  0
 24 28  1  0  0  0  0
 24 27  1  1  0  0  0
 25 28  1  0  0  0  0
 26 29  1  0  0  0  0
 29 30  1  0  0  0  0
 29 31  1  0  0  0  0
 30  5  1  1  0  0  0
 30 25  1  0  0  0  0
 31 24  1  0  0  0  0
M  END
>  <MODEL>
4

>  <REMARK>
 VINA RESULT:     -11.3      3.372      5.647
  Name = 
  1 active torsions:
  status: ('A' for Active; 'I' for Inactive)
    1  A    between atoms: C_5  and  C_30
                            x       y       z     vdW  Elec       q    Type
                         _______ _______ _______ _____ _____    ______ ____

>  <TORSDO>
F 1

$$$$
=
 OpenBabel11122410553D

 31 35  0  0  1  0  0  0  0  0999 V2000
  191.3570  176.9270  144.4950 C   0  0  0  0  0  0  0  0  0  0  0  0
  187.8800  177.9240  143.4400 C   0  0  0  0  0  0  0  0  0  0  0  0
  187.1100  178.0820  144.6400 C   0  0  0  0  0  0  0  0  0  0  0  0
  189.0630  177.8450  138.2910 O   0  0  0  0  0  0  0  0  0  0  0  0
  187.8510  178.1530  138.4310 C   0  0  0  0  0  0  0  0  0  0  0  0
  186.8780  178.0390  147.0740 C   0  0  0  0  0  0  0  0  0  0  0  0
  189.2580  177.5490  143.4080 C   0  0  0  0  0  0  0  0  0  0  0  0
  191.9810  176.8100  143.2540 C   0  0  0  0  0  3  0  0  0  0  0  0
  187.6510  177.8780  145.9230 C   0  0  0  0  0  3  0  0  0  0  0  0
  187.9310  178.0180  140.9850 C   0  0  0  0  0  0  0  0  0  0  0  0
  192.0550  176.6870  145.6300 F   0  0  0  0  0  0  0  0  0  0  0  0
  185.1440  178.6770  143.3220 C   0  0  0  0  0  3  0  0  0  0  0  0
  187.4850  177.8150  148.4120 C   0  0  0  0  0  1  0  0  0  0  0  0
  189.2380  177.6590  141.0040 N   0  0  0  0  0  0  0  0  0  0  0  0
  187.2280  178.1570  142.1920 C   0  0  0  0  0  0  0  0  0  0  0  0
  187.2640  178.2530  139.7360 N   0  0  0  0  0  2  0  0  0  0  0  0
  190.0110  177.2920  144.5670 C   0  0  0  0  0  3  0  0  0  0  0  0
  185.5390  178.4100  146.9690 C   0  0  0  0  0  3  0  0  0  0  0  0
  189.9110  177.4250  142.1550 C   0  0  0  0  0  0  0  0  0  0  0  0
  191.2590  177.0590  142.0870 C   0  0  0  0  0  3  0  0  0  0  0  0
  185.8780  178.5280  142.1540 C   0  0  0  0  0  3  0  0  0  0  0  0
  185.7430  178.4590  144.5560 C   0  0  0  0  0  0  0  0  0  0  0  0
  184.9730  178.6200  145.7120 C   0  0  0  0  0  3  0  0  0  0  0  0
  185.6760  176.1140  136.3510 C   0  0  1  0  0  3  0  0  0  0  0  0
  185.5410  178.0940  137.4510 C   0  0  0  0  0  2  0  0  0  0  0  0
  188.9150  177.8740  135.7920 C   0  0  0  0  0  1  0  0  0  0  0  0
  185.3580  174.6990  136.3950 N   0  0  0  0  0  1  0  0  0  0  0  0
  185.3590  176.7030  137.5880 O   0  0  0  0  0  0  0  0  0  0  0  0
  187.4800  177.7190  135.9840 N   0  0  0  0  0  0  0  0  0  0  0  0
  187.0190  178.4230  137.2000 C   0  0  2  0  0  3  0  0  0  0  0  0
  187.1680  176.2900  136.0550 C   0  0  0  0  0  2  0  0  0  0  0  0
  1 17  1  0  0  0  0
  1 11  1  0  0  0  0
  2  3  1  0  0  0  0
  3  9  1  0  0  0  0
  4  5  2  0  0  0  0
  5 16  1  0  0  0  0
  6 13  1  0  0  0  0
  7  2  1  0  0  0  0
  7 17  2  0  0  0  0
  8  1  2  0  0  0  0
  9  6  2  0  0  0  0
 10 14  2  0  0  0  0
 10 15  1  0  0  0  0
 12 22  1  0  0  0  0
 14 19  1  0  0  0  0
 15  2  2  0  0  0  0
 16 10  1  0  0  0  0
 18  6  1  0  0  0  0
 19  7  1  0  0  0  0
 20 19  2  0  0  0  0
 20  8  1  0  0  0  0
 21 15  1  0  0  0  0
 21 12  2  0  0  0  0
 22  3  2  0  0  0  0
 22 23  1  0  0  0  0
 23 18  2  0  0  0  0
 24 27  1  1  0  0  0
 24 28  1  0  0  0  0
 25 28  1  0  0  0  0
 26 29  1  0  0  0  0
 29 31  1  0  0  0  0
 29 30  1  0  0  0  0
 30 25  1  0  0  0  0
 30  5  1  1  0  0  0
 31 24  1  0  0  0  0
M  END
>  <MODEL>
5

>  <REMARK>
 VINA RESULT:     -11.3      2.236      4.071
  Name = 
  1 active torsions:
  status: ('A' for Active; 'I' for Inactive)
    1  A    between atoms: C_5  and  C_30
                            x       y       z     vdW  Elec       q    Type
                         _______ _______ _______ _____ _____    ______ ____

>  <TORSDO>
F 1

$$$$
=
 OpenBabel11122410553D

 31 35  0  0  1  0  0  0  0  0999 V2000
  190.1940  177.0840  146.3300 C   0  0  0  0  0  0  0  0  0  0  0  0
  187.9190  177.8490  143.4250 C   0  0  0  0  0  0  0  0  0  0  0  0
  186.6470  178.2130  143.9780 C   0  0  0  0  0  0  0  0  0  0  0  0
  191.6490  176.8600  139.8160 O   0  0  0  0  0  0  0  0  0  0  0  0
  190.5820  177.1790  139.2300 C   0  0  0  0  0  0  0  0  0  0  0  0
  185.1510  178.6040  145.8740 C   0  0  0  0  0  0  0  0  0  0  0  0
  189.0630  177.4850  144.2010 C   0  0  0  0  0  0  0  0  0  0  0  0
  191.3690  176.7510  145.6580 C   0  0  0  0  0  3  0  0  0  0  0  0
  186.4000  178.2460  145.3640 C   0  0  0  0  0  3  0  0  0  0  0  0
  189.2770  177.5030  141.4070 C   0  0  0  0  0  0  0  0  0  0  0  0
  190.1560  177.0550  147.6830 F   0  0  0  0  0  0  0  0  0  0  0  0
  185.7470  178.5480  141.7340 C   0  0  0  0  0  3  0  0  0  0  0  0
  184.9290  178.6270  147.3430 C   0  0  0  0  0  1  0  0  0  0  0  0
  190.3360  177.1630  142.1840 N   0  0  0  0  0  0  0  0  0  0  0  0
  188.0550  177.8510  142.0050 C   0  0  0  0  0  0  0  0  0  0  0  0
  189.4020  177.5060  139.9770 N   0  0  0  0  0  2  0  0  0  0  0  0
  189.0560  177.4450  145.6070 C   0  0  0  0  0  3  0  0  0  0  0  0
  184.1140  178.9400  145.0060 C   0  0  0  0  0  3  0  0  0  0  0  0
  190.2680  177.1440  143.5360 C   0  0  0  0  0  0  0  0  0  0  0  0
  191.4050  176.7830  144.2640 C   0  0  0  0  0  3  0  0  0  0  0  0
  186.9730  178.1980  141.1880 C   0  0  0  0  0  3  0  0  0  0  0  0
  185.5750  178.5580  143.1120 C   0  0  0  0  0  0  0  0  0  0  0  0
  184.3250  178.9170  143.6290 C   0  0  0  0  0  3  0  0  0  0  0  0
  189.5840  174.8180  136.6520 C   0  0  1  0  0  3  0  0  0  0  0  0
  189.1440  176.9800  137.1820 C   0  0  0  0  0  2  0  0  0  0  0  0
  192.8270  176.3560  137.6620 C   0  0  0  0  0  1  0  0  0  0  0  0
  189.1140  173.4480  136.7370 N   0  0  0  0  0  1  0  0  0  0  0  0
  188.7420  175.6490  137.4140 O   0  0  0  0  0  0  0  0  0  0  0  0
  191.4980  176.2760  137.0720 N   0  0  0  0  0  0  0  0  0  0  0  0
  190.5620  177.2180  137.7210 C   0  0  2  0  0  3  0  0  0  0  0  0
  191.0170  174.8980  137.1840 C   0  0  0  0  0  2  0  0  0  0  0  0
  1 11  1  0  0  0  0
  2  3  1  0  0  0  0
  2  7  1  0  0  0  0
  3  9  1  0  0  0  0
  5  4  2  0  0  0  0
  5 16  1  0  0  0  0
  6 13  1  0  0  0  0
  7 17  1  0  0  0  0
  8  1  1  0  0  0  0
  9  6  2  0  0  0  0
 10 15  1  0  0  0  0
 10 14  2  0  0  0  0
 12 22  1  0  0  0  0
 14 19  1  0  0  0  0
 15  2  2  0  0  0  0
 16 10  1  0  0  0  0
 17  1  2  0  0  0  0
 18  6  1  0  0  0  0
 19  7  2  0  0  0  0
 19 20  1  0  0  0  0
 20  8  2  0  0  0  0
 21 12  2  0  0  0  0
 21 15  1  0  0  0  0
 22 23  1  0  0  0  0
 22  3  2  0  0  0  0
 23 18  2  0  0  0  0
 24 27  1  1  0  0  0
 24 31  1  0  0  0  0
 24 28  1  0  0  0  0
 25 28  1  0  0  0  0
 25 30  1  0  0  0  0
 29 31  1  0  0  0  0
 29 26  1  0  0  0  0
 29 30  1  0  0  0  0
 30  5  1  1  0  0  0
M  END
>  <MODEL>
6

>  <REMARK>
 VINA RESULT:     -11.3      2.021      4.121
  Name = 
  1 active torsions:
  status: ('A' for Active; 'I' for Inactive)
    1  A    between atoms: C_5  and  C_30
                            x       y       z     vdW  Elec       q    Type
                         _______ _______ _______ _____ _____    ______ ____

>  <TORSDO>
F 1

$$$$
=
 OpenBabel11122410553D

 31 35  0  0  1  0  0  0  0  0999 V2000
  186.3070  178.0730  146.8470 C   0  0  0  0  0  0  0  0  0  0  0  0
  187.5520  177.9000  143.2940 C   0  0  0  0  0  0  0  0  0  0  0  0
  188.9400  177.5440  143.3570 C   0  0  0  0  0  0  0  0  0  0  0  0
  182.8510  179.1590  141.2360 O   0  0  0  0  0  0  0  0  0  0  0  0
  183.6820  179.0030  140.3030 C   0  0  0  0  0  0  0  0  0  0  0  0
  190.9670  176.9780  144.6040 C   0  0  0  0  0  0  0  0  0  0  0  0
  186.7090  178.0680  144.4360 C   0  0  0  0  0  0  0  0  0  0  0  0
  184.9730  178.4220  146.6370 C   0  0  0  0  0  3  0  0  0  0  0  0
  189.6150  177.3240  144.5720 C   0  0  0  0  0  3  0  0  0  0  0  0
  185.6170  178.4480  141.8830 C   0  0  0  0  0  0  0  0  0  0  0  0
  186.7730  177.9040  148.1070 F   0  0  0  0  0  0  0  0  0  0  0  0
  189.0840  177.6060  140.9220 C   0  0  0  0  0  3  0  0  0  0  0  0
  191.6450  176.7540  145.9070 C   0  0  0  0  0  1  0  0  0  0  0  0
  184.8550  178.5980  142.9950 N   0  0  0  0  0  0  0  0  0  0  0  0
  186.9710  178.0990  142.0060 C   0  0  0  0  0  0  0  0  0  0  0  0
  185.0430  178.6490  140.5830 N   0  0  0  0  0  2  0  0  0  0  0  0
  187.1620  177.9000  145.7560 C   0  0  0  0  0  3  0  0  0  0  0  0
  191.6800  176.8450  143.4140 C   0  0  0  0  0  3  0  0  0  0  0  0
  185.3490  178.4220  144.2430 C   0  0  0  0  0  0  0  0  0  0  0  0
  184.4970  178.5940  145.3380 C   0  0  0  0  0  3  0  0  0  0  0  0
  187.7430  177.9500  140.8480 C   0  0  0  0  0  3  0  0  0  0  0  0
  189.6870  177.4030  142.1570 C   0  0  0  0  0  0  0  0  0  0  0  0
  191.0410  177.0570  142.1940 C   0  0  0  0  0  3  0  0  0  0  0  0
  180.4330  179.4280  138.7300 C   0  0  1  0  0  3  0  0  0  0  0  0
  182.4350  180.4970  138.7190 C   0  0  0  0  0  2  0  0  0  0  0  0
  183.0590  176.7840  138.6100 C   0  0  0  0  0  1  0  0  0  0  0  0
  179.0910  179.4110  139.2810 N   0  0  0  0  0  1  0  0  0  0  0  0
  181.1950  180.4130  139.3840 O   0  0  0  0  0  0  0  0  0  0  0  0
  182.4220  178.0660  138.3410 N   0  0  0  0  0  0  0  0  0  0  0  0
  183.2220  179.1880  138.8770 C   0  0  2  0  0  3  0  0  0  0  0  0
  181.0800  178.0540  138.9230 C   0  0  0  0  0  2  0  0  0  0  0  0
  1 11  1  0  0  0  0
  2  3  1  0  0  0  0
  2  7  1  0  0  0  0
  3  9  1  0  0  0  0
  5 16  1  0  0  0  0
  5  4  2  0  0  0  0
  6 13  1  0  0  0  0
  7 17  1  0  0  0  0
  8  1  1  0  0  0  0
  9  6  2  0  0  0  0
 10 15  1  0  0  0  0
 10 14  2  0  0  0  0
 12 22  1  0  0  0  0
 14 19  1  0  0  0  0
 15  2  2  0  0  0  0
 16 10  1  0  0  0  0
 17  1  2  0  0  0  0
 18  6  1  0  0  0  0
 19  7  2  0  0  0  0
 19 20  1  0  0  0  0
 20  8  2  0  0  0  0
 21 12  2  0  0  0  0
 21 15  1  0  0  0  0
 22 23  1  0  0  0  0
 22  3  2  0  0  0  0
 23 18  2  0  0  0  0
 24 31  1  0  0  0  0
 24 27  1  1  0  0  0
 24 28  1  0  0  0  0
 25 30  1  0  0  0  0
 25 28  1  0  0  0  0
 29 26  1  0  0  0  0
 29 30  1  0  0  0  0
 29 31  1  0  0  0  0
 30  5  1  1  0  0  0
M  END
>  <MODEL>
7

>  <REMARK>
 VINA RESULT:     -11.0      3.242      5.086
  Name = 
  1 active torsions:
  status: ('A' for Active; 'I' for Inactive)
    1  A    between atoms: C_5  and  C_30
                            x       y       z     vdW  Elec       q    Type
                         _______ _______ _______ _____ _____    ______ ____

>  <TORSDO>
F 1

$$$$
=
 OpenBabel11122410553D

 31 35  0  0  1  0  0  0  0  0999 V2000
  185.3350  178.1770  145.7630 C   0  0  0  0  0  0  0  0  0  0  0  0
  184.4950  178.6140  142.1160 C   0  0  0  0  0  0  0  0  0  0  0  0
  183.0760  178.8060  142.0360 C   0  0  0  0  0  0  0  0  0  0  0  0
  189.5200  178.1160  140.5590 O   0  0  0  0  0  0  0  0  0  0  0  0
  188.7900  178.2850  139.5480 C   0  0  0  0  0  0  0  0  0  0  0  0
  180.8650  179.0030  143.0630 C   0  0  0  0  0  0  0  0  0  0  0  0
  185.2160  178.4110  143.3330 C   0  0  0  0  0  0  0  0  0  0  0  0
  186.7160  178.0030  145.6920 C   0  0  0  0  0  3  0  0  0  0  0  0
  182.2440  178.8130  143.1710 C   0  0  0  0  0  3  0  0  0  0  0  0
  186.6320  178.4430  140.9160 C   0  0  0  0  0  0  0  0  0  0  0  0
  184.7090  178.1520  146.9640 F   0  0  0  0  0  0  0  0  0  0  0  0
  183.2220  179.0050  139.6080 C   0  0  0  0  0  3  0  0  0  0  0  0
  180.0190  179.0040  144.2850 C   0  0  0  0  0  1  0  0  0  0  0  0
  187.2740  178.2530  142.0960 N   0  0  0  0  0  0  0  0  0  0  0  0
  185.2410  178.6260  140.8990 C   0  0  0  0  0  0  0  0  0  0  0  0
  187.3720  178.4540  139.6860 N   0  0  0  0  0  2  0  0  0  0  0  0
  184.5970  178.3780  144.5950 C   0  0  0  0  0  3  0  0  0  0  0  0
  180.2830  179.1910  141.8110 C   0  0  0  0  0  3  0  0  0  0  0  0
  186.6210  178.2320  143.2820 C   0  0  0  0  0  0  0  0  0  0  0  0
  187.3570  178.0310  144.4540 C   0  0  0  0  0  3  0  0  0  0  0  0
  184.5950  178.8200  139.6720 C   0  0  0  0  0  3  0  0  0  0  0  0
  182.4610  178.9990  140.7700 C   0  0  0  0  0  0  0  0  0  0  0  0
  181.0800  179.1890  140.6670 C   0  0  0  0  0  3  0  0  0  0  0  0
  187.5450  177.8420  136.1620 C   0  0  1  0  0  3  0  0  0  0  0  0
  188.7780  179.3780  137.2890 C   0  0  0  0  0  2  0  0  0  0  0  0
  189.8940  175.9380  138.3440 C   0  0  0  0  0  1  0  0  0  0  0  0
  186.2250  177.5030  135.6620 N   0  0  0  0  0  1  0  0  0  0  0  0
  187.4620  179.0030  136.9520 O   0  0  0  0  0  0  0  0  0  0  0  0
  189.4270  177.0130  137.4780 N   0  0  0  0  0  0  0  0  0  0  0  0
  189.4300  178.3130  138.1820 C   0  0  2  0  0  3  0  0  0  0  0  0
  188.0850  176.6790  136.9980 C   0  0  0  0  0  2  0  0  0  0  0  0
  1 11  1  0  0  0  0
  2  7  1  0  0  0  0
  3  2  1  0  0  0  0
  3  9  1  0  0  0  0
  5 16  1  0  0  0  0
  5  4  2  0  0  0  0
  6  9  2  0  0  0  0
  6 13  1  0  0  0  0
  7 17  1  0  0  0  0
  8  1  1  0  0  0  0
 10 14  2  0  0  0  0
 12 21  2  0  0  0  0
 12 22  1  0  0  0  0
 14 19  1  0  0  0  0
 15 10  1  0  0  0  0
 15  2  2  0  0  0  0
 16 10  1  0  0  0  0
 17  1  2  0  0  0  0
 18  6  1  0  0  0  0
 19  7  2  0  0  0  0
 19 20  1  0  0  0  0
 20  8  2  0  0  0  0
 21 15  1  0  0  0  0
 22  3  2  0  0  0  0
 23 22  1  0  0  0  0
 23 18  2  0  0  0  0
 24 27  1  1  0  0  0
 24 28  1  0  0  0  0
 24 31  1  0  0  0  0
 25 30  1  0  0  0  0
 28 25  1  0  0  0  0
 29 30  1  0  0  0  0
 29 26  1  0  0  0  0
 30  5  1  1  0  0  0
 31 29  1  0  0  0  0
M  END
>  <MODEL>
8

>  <REMARK>
 VINA RESULT:     -10.6      2.055      5.151
  Name = 
  1 active torsions:
  status: ('A' for Active; 'I' for Inactive)
    1  A    between atoms: C_5  and  C_30
                            x       y       z     vdW  Elec       q    Type
                         _______ _______ _______ _____ _____    ______ ____

>  <TORSDO>
F 1

$$$$
=
 OpenBabel11122410553D

 31 35  0  0  1  0  0  0  0  0999 V2000
  189.1750  177.7510  140.8830 C   0  0  0  0  0  0  0  0  0  0  0  0
  185.9890  178.3680  142.7980 C   0  0  0  0  0  0  0  0  0  0  0  0
  186.3030  178.2140  144.1890 C   0  0  0  0  0  0  0  0  0  0  0  0
  183.1560  179.2940  138.4340 O   0  0  0  0  0  0  0  0  0  0  0  0
  182.4060  179.3890  139.4410 C   0  0  0  0  0  0  0  0  0  0  0  0
  187.8710  177.7480  146.0070 C   0  0  0  0  0  0  0  0  0  0  0  0
  186.9310  178.2160  141.7350 C   0  0  0  0  0  0  0  0  0  0  0  0
  188.7300  177.9300  139.5740 C   0  0  0  0  0  3  0  0  0  0  0  0
  187.5940  177.8920  144.6460 C   0  0  0  0  0  3  0  0  0  0  0  0
  184.2790  178.8600  141.1040 C   0  0  0  0  0  0  0  0  0  0  0  0
  190.4710  177.4400  141.1210 F   0  0  0  0  0  0  0  0  0  0  0  0
  183.9890  178.7090  144.7850 C   0  0  0  0  0  3  0  0  0  0  0  0
  189.2480  177.4060  146.4510 C   0  0  0  0  0  1  0  0  0  0  0  0
  185.2080  178.7040  140.1280 N   0  0  0  0  0  0  0  0  0  0  0  0
  184.6450  178.6970  142.4490 C   0  0  0  0  0  0  0  0  0  0  0  0
  182.9230  179.1890  140.7640 N   0  0  0  0  0  2  0  0  0  0  0  0
  188.2840  177.8930  141.9480 C   0  0  0  0  0  3  0  0  0  0  0  0
  186.8590  177.9240  146.9470 C   0  0  0  0  0  3  0  0  0  0  0  0
  186.4980  178.3930  140.3970 C   0  0  0  0  0  0  0  0  0  0  0  0
  187.3940  178.2510  139.3330 C   0  0  0  0  0  3  0  0  0  0  0  0
  183.6730  178.8610  143.4430 C   0  0  0  0  0  3  0  0  0  0  0  0
  185.2860  178.3890  145.1650 C   0  0  0  0  0  0  0  0  0  0  0  0
  185.5690  178.2450  146.5270 C   0  0  0  0  0  3  0  0  0  0  0  0
  180.0560  178.8890  136.7140 C   0  0  1  0  0  3  0  0  0  0  0  0
  180.1290  178.4590  138.9410 C   0  0  0  0  0  2  0  0  0  0  0  0
  181.5660  181.8880  138.3340 C   0  0  0  0  0  1  0  0  0  0  0  0
  180.2340  178.3350  135.3850 N   0  0  0  0  0  1  0  0  0  0  0  0
  180.4580  177.9410  137.6730 O   0  0  0  0  0  0  0  0  0  0  0  0
  180.6940  180.7310  138.1840 N   0  0  0  0  0  0  0  0  0  0  0  0
  180.9490  179.7240  139.2360 C   0  0  2  0  0  3  0  0  0  0  0  0
  180.8970  180.1600  136.8520 C   0  0  0  0  0  2  0  0  0  0  0  0
  1 11  1  0  0  0  0
  1 17  1  0  0  0  0
  2  3  1  0  0  0  0
  3  9  2  0  0  0  0
  3 22  1  0  0  0  0
  4  5  2  0  0  0  0
  5 16  1  0  0  0  0
  6 13  1  0  0  0  0
  6 18  2  0  0  0  0
  7 17  2  0  0  0  0
  7  2  1  0  0  0  0
  8  1  2  0  0  0  0
  9  6  1  0  0  0  0
 10 15  1  0  0  0  0
 12 22  1  0  0  0  0
 14 19  1  0  0  0  0
 14 10  2  0  0  0  0
 15  2  2  0  0  0  0
 15 21  1  0  0  0  0
 16 10  1  0  0  0  0
 19  7  1  0  0  0  0
 20  8  1  0  0  0  0
 20 19  2  0  0  0  0
 21 12  2  0  0  0  0
 22 23  2  0  0  0  0
 23 18  1  0  0  0  0
 24 27  1  6  0  0  0
 24 31  1  0  0  0  0
 24 28  1  0  0  0  0
 25 30  1  0  0  0  0
 28 25  1  0  0  0  0
 29 26  1  0  0  0  0
 29 30  1  0  0  0  0
 30  5  1  6  0  0  0
 31 29  1  0  0  0  0
M  END
>  <MODEL>
9

>  <REMARK>
 VINA RESULT:     -10.6      4.012      6.156
  Name = 
  1 active torsions:
  status: ('A' for Active; 'I' for Inactive)
    1  A    between atoms: C_5  and  C_30
                            x       y       z     vdW  Elec       q    Type
                         _______ _______ _______ _____ _____    ______ ____

>  <TORSDO>
F 1

$$$$
