=
 OpenBabel11122411013D

 31 35  0  0  1  0  0  0  0  0999 V2000
  191.9810  174.1980  135.6530 C   0  0  0  0  0  0  0  0  0  0  0  0
  189.4300  176.9260  136.3480 C   0  0  2  0  0  3  0  0  0  0  0  0
  188.0440  176.2490  136.1910 C   0  0  1  0  0  3  0  0  0  0  0  0
  186.5180  174.2950  136.4520 C   0  0  1  0  0  3  0  0  0  0  0  0
  190.5720  175.9620  136.5430 C   0  0  0  0  0  0  0  0  0  0  0  0
  192.6090  174.0690  136.8950 C   0  0  0  0  0  3  0  0  0  0  0  0
  187.8840  174.8730  136.8380 C   0  0  0  0  0  2  0  0  0  0  0  0
  189.5370  177.4520  138.7870 C   0  0  2  0  0  3  0  0  0  0  0  0
  192.3650  173.3880  134.5940 O   0  0  0  0  0  1  0  0  0  0  0  0
  187.1930  178.4730  136.3500 O   0  0  0  0  0  0  0  0  0  0  0  0
  186.3240  172.9590  137.1360 C   0  0  0  0  0  1  0  0  0  0  0  0
  190.8860  176.7460  138.9440 C   0  0  0  0  0  2  0  0  0  0  0  0
  189.4310  178.0690  137.3870 C   0  0  2  0  0  3  0  0  0  0  0  0
  190.9650  175.1410  135.4780 C   0  0  0  0  0  3  0  0  0  0  0  0
  185.3760  175.2430  136.8460 C   0  0  0  0  0  2  0  0  0  0  0  0
  191.2020  175.8240  137.8000 C   0  0  0  0  0  0  0  0  0  0  0  0
  192.2250  174.8850  137.9620 C   0  0  0  0  0  3  0  0  0  0  0  0
  188.1700  178.9700  137.2440 C   0  0  0  0  0  2  0  0  0  0  0  0
  186.9450  177.1530  136.7380 C   0  0  1  0  0  3  0  0  0  0  0  0
  185.5910  176.6460  136.2710 C   0  0  0  0  0  2  0  0  0  0  0  0
  189.3600  178.4800  139.8980 C   0  0  0  0  0  2  0  0  0  0  0  0
  187.0210  178.2760  140.2400 O   0  0  0  0  0  0  0  0  0  0  0  0
  188.1700  178.1270  140.7340 C   0  0  0  0  0  0  0  0  0  0  0  0
  188.5580  176.9430  144.8190 N   0  0  0  0  0  0  0  0  0  0  0  0
  187.1830  177.8510  143.0150 C   0  0  0  0  0  2  0  0  0  0  0  0
  190.3420  176.5400  141.7970 O   0  0  0  0  0  0  0  0  0  0  0  0
  188.9040  177.1350  146.2140 C   0  0  0  0  0  1  0  0  0  0  0  0
  187.6710  178.0450  144.4510 C   0  0  0  0  0  2  0  0  0  0  0  0
  189.5180  177.0690  142.5880 C   0  0  0  0  0  0  0  0  0  0  0  0
  188.3180  177.7000  142.1010 N   0  0  0  0  0  0  0  0  0  0  0  0
  189.8010  177.0700  144.0590 C   0  0  0  0  0  2  0  0  0  0  0  0
  1  6  1  0  0  0  0
  2  5  1  1  0  0  0
  2 13  1  0  0  0  0
  3  2  1  0  0  0  0
  3 19  1  0  0  0  0
  3  7  1  1  0  0  0
  4  7  1  0  0  0  0
  4 15  1  0  0  0  0
  4 11  1  1  0  0  0
  5 16  2  0  0  0  0
  6 17  2  0  0  0  0
  8 12  1  0  0  0  0
  8 21  1  1  0  0  0
  9  1  1  0  0  0  0
 10 19  1  0  0  0  0
 10 18  1  0  0  0  0
 13 18  1  1  0  0  0
 13  8  1  0  0  0  0
 14  1  2  0  0  0  0
 14  5  1  0  0  0  0
 16 17  1  0  0  0  0
 16 12  1  0  0  0  0
 19 20  1  6  0  0  0
 20 15  1  0  0  0  0
 21 23  1  0  0  0  0
 22 23  2  0  0  0  0
 23 30  1  0  0  0  0
 24 27  1  0  0  0  0
 25 28  1  0  0  0  0
 26 29  2  0  0  0  0
 28 24  1  0  0  0  0
 29 31  1  0  0  0  0
 30 29  1  0  0  0  0
 30 25  1  0  0  0  0
 31 24  1  0  0  0  0
M  END
>  <MODEL>
1

>  <REMARK>
 VINA RESULT:      -7.3      0.000      0.000
  Name = 
  2 active torsions:
  status: ('A' for Active; 'I' for Inactive)
    1  A    between atoms: C_5  and  C_16
    2  A    between atoms: C_10  and  C_16
                            x       y       z     vdW  Elec       q    Type
                         _______ _______ _______ _____ _____    ______ ____

>  <TORSDO>
F 2

$$$$
=
 OpenBabel11122411013D

 31 35  0  0  1  0  0  0  0  0999 V2000
  186.7540  178.6250  141.2350 C   0  0  0  0  0  0  0  0  0  0  0  0
  183.6400  179.2970  139.1650 C   0  0  2  0  0  3  0  0  0  0  0  0
  183.6510  178.2310  138.0390 C   0  0  1  0  0  3  0  0  0  0  0  0
  184.1080  175.9250  137.2080 C   0  0  1  0  0  3  0  0  0  0  0  0
  184.5240  178.9660  140.3400 C   0  0  0  0  0  0  0  0  0  0  0  0
  186.2060  178.2390  142.4620 C   0  0  0  0  0  3  0  0  0  0  0  0
  183.9920  176.8020  138.4600 C   0  0  0  0  0  2  0  0  0  0  0  0
  181.6640  178.6460  140.5470 C   0  0  2  0  0  3  0  0  0  0  0  0
  188.1310  178.6470  141.0660 O   0  0  0  0  0  1  0  0  0  0  0  0
  181.8510  179.5060  137.1260 O   0  0  0  0  0  0  0  0  0  0  0  0
  184.3880  174.4950  137.6160 C   0  0  0  0  0  1  0  0  0  0  0  0
  182.4920  178.6240  141.8340 C   0  0  0  0  0  2  0  0  0  0  0  0
  182.2130  179.7120  139.5910 C   0  0  2  0  0  3  0  0  0  0  0  0
  185.9160  178.9850  140.1770 C   0  0  0  0  0  3  0  0  0  0  0  0
  182.8260  175.9770  136.3660 C   0  0  0  0  0  2  0  0  0  0  0  0
  183.9720  178.5670  141.5780 C   0  0  0  0  0  0  0  0  0  0  0  0
  184.8190  178.2180  142.6330 C   0  0  0  0  0  3  0  0  0  0  0  0
  181.2880  179.9170  138.3570 C   0  0  0  0  0  2  0  0  0  0  0  0
  182.3050  178.1980  137.3230 C   0  0  1  0  0  3  0  0  0  0  0  0
  182.4390  177.4190  136.0260 C   0  0  0  0  0  2  0  0  0  0  0  0
  180.1930  178.8620  140.8840 C   0  0  0  0  0  2  0  0  0  0  0  0
  179.2990  177.4810  142.5950 O   0  0  0  0  0  0  0  0  0  0  0  0
  179.5900  177.5820  141.3740 C   0  0  0  0  0  0  0  0  0  0  0  0
  179.1330  174.1870  138.8240 N   0  0  0  0  0  0  0  0  0  0  0  0
  179.3120  175.1140  141.0760 C   0  0  0  0  0  2  0  0  0  0  0  0
  178.9310  177.7040  138.5600 O   0  0  0  0  0  0  0  0  0  0  0  0
  179.6050  173.1060  137.9800 C   0  0  0  0  0  1  0  0  0  0  0  0
  179.8360  174.0630  140.0990 C   0  0  0  0  0  2  0  0  0  0  0  0
  179.2670  176.6030  139.0700 C   0  0  0  0  0  0  0  0  0  0  0  0
  179.4140  176.4550  140.4950 N   0  0  0  0  0  0  0  0  0  0  0  0
  179.5490  175.4320  138.1800 C   0  0  0  0  0  2  0  0  0  0  0  0
  1  6  1  0  0  0  0
  2 13  1  0  0  0  0
  2  5  1  1  0  0  0
  3  7  1  1  0  0  0
  3  2  1  0  0  0  0
  4 11  1  1  0  0  0
  4  7  1  0  0  0  0
  5 16  2  0  0  0  0
  6 17  2  0  0  0  0
  8 21  1  1  0  0  0
  8 12  1  0  0  0  0
  9  1  1  0  0  0  0
 10 19  1  0  0  0  0
 10 18  1  0  0  0  0
 13 18  1  6  0  0  0
 13  8  1  0  0  0  0
 14  5  1  0  0  0  0
 14  1  2  0  0  0  0
 15  4  1  0  0  0  0
 16 12  1  0  0  0  0
 16 17  1  0  0  0  0
 19 20  1  6  0  0  0
 19  3  1  0  0  0  0
 20 15  1  0  0  0  0
 21 23  1  0  0  0  0
 23 22  2  0  0  0  0
 24 28  1  0  0  0  0
 26 29  2  0  0  0  0
 27 24  1  0  0  0  0
 28 25  1  0  0  0  0
 29 30  1  0  0  0  0
 30 25  1  0  0  0  0
 30 23  1  0  0  0  0
 31 24  1  0  0  0  0
 31 29  1  0  0  0  0
M  END
>  <MODEL>
2

>  <REMARK>
 VINA RESULT:      -7.0      5.475      8.351
  Name = 
  2 active torsions:
  status: ('A' for Active; 'I' for Inactive)
    1  A    between atoms: C_5  and  C_16
    2  A    between atoms: C_10  and  C_16
                            x       y       z     vdW  Elec       q    Type
                         _______ _______ _______ _____ _____    ______ ____

>  <TORSDO>
F 2

$$$$
=
 OpenBabel11122411013D

 31 35  0  0  1  0  0  0  0  0999 V2000
  183.6040  178.7870  142.5230 C   0  0  0  0  0  0  0  0  0  0  0  0
  183.0750  177.5610  138.9660 C   0  0  2  0  0  3  0  0  0  0  0  0
  182.0370  178.5300  138.3430 C   0  0  1  0  0  3  0  0  0  0  0  0
  181.0580  180.8050  138.0570 C   0  0  1  0  0  3  0  0  0  0  0  0
  183.7540  178.0930  140.2030 C   0  0  0  0  0  0  0  0  0  0  0  0
  184.9420  179.1910  142.4920 C   0  0  0  0  0  3  0  0  0  0  0  0
  182.2520  180.0190  138.6110 C   0  0  0  0  0  2  0  0  0  0  0  0
  185.1600  178.0540  137.6830 C   0  0  2  0  0  3  0  0  0  0  0  0
  182.8630  178.9310  143.6870 O   0  0  0  0  0  1  0  0  0  0  0  0
  181.9990  176.9660  136.5390 O   0  0  0  0  0  0  0  0  0  0  0  0
  181.2880  182.2870  138.2640 C   0  0  0  0  0  1  0  0  0  0  0  0
  185.9690  178.2810  138.9620 C   0  0  0  0  0  2  0  0  0  0  0  0
  184.0750  176.9980  137.9320 C   0  0  2  0  0  3  0  0  0  0  0  0
  183.0120  178.2410  141.3820 C   0  0  0  0  0  3  0  0  0  0  0  0
  180.8460  180.5230  136.5620 C   0  0  0  0  0  2  0  0  0  0  0  0
  185.1030  178.5100  140.1700 C   0  0  0  0  0  0  0  0  0  0  0  0
  185.6900  179.0450  141.3200 C   0  0  0  0  0  3  0  0  0  0  0  0
  183.3590  176.5810  136.6150 C   0  0  0  0  0  2  0  0  0  0  0  0
  181.9650  178.3340  136.8320 C   0  0  1  0  0  3  0  0  0  0  0  0
  180.7250  179.0220  136.2890 C   0  0  0  0  0  2  0  0  0  0  0  0
  186.0960  177.6760  136.5410 C   0  0  0  0  0  2  0  0  0  0  0  0
  187.8570  179.1120  137.2250 O   0  0  0  0  0  0  0  0  0  0  0  0
  187.5160  177.9340  136.9410 C   0  0  0  0  0  0  0  0  0  0  0  0
  190.4790  174.8610  136.8330 N   0  0  0  0  0  0  0  0  0  0  0  0
  189.9150  177.2370  136.8250 C   0  0  0  0  0  2  0  0  0  0  0  0
  187.0390  175.1540  137.5820 O   0  0  0  0  0  0  0  0  0  0  0  0
  191.3240  173.8740  136.1890 C   0  0  0  0  0  1  0  0  0  0  0  0
  190.7010  176.1240  136.1330 C   0  0  0  0  0  2  0  0  0  0  0  0
  188.1440  175.4930  137.0820 C   0  0  0  0  0  0  0  0  0  0  0  0
  188.4980  176.8810  136.9290 N   0  0  0  0  0  0  0  0  0  0  0  0
  189.0970  174.4380  136.6100 C   0  0  0  0  0  2  0  0  0  0  0  0
  1  9  1  0  0  0  0
  2  5  1  1  0  0  0
  3  7  1  6  0  0  0
  3  2  1  0  0  0  0
  4 11  1  6  0  0  0
  4  7  1  0  0  0  0
  5 14  1  0  0  0  0
  6  1  1  0  0  0  0
  8 21  1  6  0  0  0
  8 13  1  0  0  0  0
  8 12  1  0  0  0  0
 10 18  1  0  0  0  0
 10 19  1  0  0  0  0
 12 16  1  0  0  0  0
 13 18  1  6  0  0  0
 13  2  1  0  0  0  0
 14  1  2  0  0  0  0
 15  4  1  0  0  0  0
 16  5  2  0  0  0  0
 16 17  1  0  0  0  0
 17  6  2  0  0  0  0
 19 20  1  1  0  0  0
 19  3  1  0  0  0  0
 20 15  1  0  0  0  0
 21 23  1  0  0  0  0
 23 22  2  0  0  0  0
 25 30  1  0  0  0  0
 27 24  1  0  0  0  0
 28 25  1  0  0  0  0
 28 24  1  0  0  0  0
 29 26  2  0  0  0  0
 30 23  1  0  0  0  0
 30 29  1  0  0  0  0
 31 24  1  0  0  0  0
 31 29  1  0  0  0  0
M  END
>  <MODEL>
3

>  <REMARK>
 VINA RESULT:      -6.6      3.965      7.737
  Name = 
  2 active torsions:
  status: ('A' for Active; 'I' for Inactive)
    1  A    between atoms: C_5  and  C_16
    2  A    between atoms: C_10  and  C_16
                            x       y       z     vdW  Elec       q    Type
                         _______ _______ _______ _____ _____    ______ ____

>  <TORSDO>
F 2

$$$$
=
 OpenBabel11122411013D

 31 35  0  0  1  0  0  0  0  0999 V2000
  184.2130  174.3490  137.2470 C   0  0  0  0  0  0  0  0  0  0  0  0
  187.4310  175.7960  135.8410 C   0  0  2  0  0  3  0  0  0  0  0  0
  187.7300  177.0550  136.6960 C   0  0  1  0  0  3  0  0  0  0  0  0
  187.7420  178.2750  138.8700 C   0  0  1  0  0  3  0  0  0  0  0  0
  186.4620  174.8320  136.4750 C   0  0  0  0  0  0  0  0  0  0  0  0
  184.6470  173.1230  137.7570 C   0  0  0  0  0  3  0  0  0  0  0  0
  187.5580  176.9050  138.2070 C   0  0  0  0  0  2  0  0  0  0  0  0
  189.2860  174.2380  136.4510 C   0  0  2  0  0  3  0  0  0  0  0  0
  182.8820  174.7220  137.3760 O   0  0  0  0  0  1  0  0  0  0  0  0
  189.4180  177.4840  135.0630 O   0  0  0  0  0  0  0  0  0  0  0  0
  187.6330  178.1280  140.3720 C   0  0  0  0  0  1  0  0  0  0  0  0
  188.3090  173.1100  136.7950 C   0  0  0  0  0  2  0  0  0  0  0  0
  188.7100  175.1010  135.3210 C   0  0  2  0  0  3  0  0  0  0  0  0
  185.1170  175.2010  136.6090 C   0  0  0  0  0  3  0  0  0  0  0  0
  189.1010  178.8940  138.5120 C   0  0  0  0  0  2  0  0  0  0  0  0
  186.9020  173.5960  137.0000 C   0  0  0  0  0  0  0  0  0  0  0  0
  185.9870  172.7460  137.6270 C   0  0  0  0  0  3  0  0  0  0  0  0
  189.7460  176.1340  134.7940 C   0  0  0  0  0  2  0  0  0  0  0  0
  189.1470  177.5530  136.4340 C   0  0  1  0  0  3  0  0  0  0  0  0
  189.3050  178.9550  136.9950 C   0  0  0  0  0  2  0  0  0  0  0  0
  190.6490  173.6520  136.1060 C   0  0  0  0  0  2  0  0  0  0  0  0
  191.2620  174.7230  138.1320 O   0  0  0  0  0  0  0  0  0  0  0  0
  191.6560  174.0640  137.1330 C   0  0  0  0  0  0  0  0  0  0  0  0
  195.8330  173.3500  136.6100 N   0  0  0  0  0  0  0  0  0  0  0  0
  194.0350  174.6110  137.6780 C   0  0  0  0  0  2  0  0  0  0  0  0
  192.7870  171.7270  135.8610 O   0  0  0  0  0  0  0  0  0  0  0  0
  197.1200  173.5020  135.9580 C   0  0  0  0  0  1  0  0  0  0  0  0
  195.3460  174.6970  136.8960 C   0  0  0  0  0  2  0  0  0  0  0  0
  193.5360  172.6950  136.1540 C   0  0  0  0  0  0  0  0  0  0  0  0
  193.0580  173.7900  136.9590 N   0  0  0  0  0  0  0  0  0  0  0  0
  194.9410  172.7260  135.6340 C   0  0  0  0  0  2  0  0  0  0  0  0
  1  9  1  0  0  0  0
  1  6  1  0  0  0  0
  2  5  1  1  0  0  0
  2  3  1  0  0  0  0
  3  7  1  1  0  0  0
  4 11  1  1  0  0  0
  5 14  1  0  0  0  0
  5 16  2  0  0  0  0
  7  4  1  0  0  0  0
  8 21  1  6  0  0  0
  8 12  1  0  0  0  0
 10 19  1  0  0  0  0
 12 16  1  0  0  0  0
 13 18  1  1  0  0  0
 13  2  1  0  0  0  0
 13  8  1  0  0  0  0
 14  1  2  0  0  0  0
 15  4  1  0  0  0  0
 16 17  1  0  0  0  0
 17  6  2  0  0  0  0
 18 10  1  0  0  0  0
 19  3  1  0  0  0  0
 19 20  1  6  0  0  0
 20 15  1  0  0  0  0
 21 23  1  0  0  0  0
 23 22  2  0  0  0  0
 24 28  1  0  0  0  0
 26 29  2  0  0  0  0
 27 24  1  0  0  0  0
 28 25  1  0  0  0  0
 29 30  1  0  0  0  0
 30 23  1  0  0  0  0
 30 25  1  0  0  0  0
 31 29  1  0  0  0  0
 31 24  1  0  0  0  0
M  END
>  <MODEL>
4

>  <REMARK>
 VINA RESULT:      -6.6      3.342      7.016
  Name = 
  2 active torsions:
  status: ('A' for Active; 'I' for Inactive)
    1  A    between atoms: C_5  and  C_16
    2  A    between atoms: C_10  and  C_16
                            x       y       z     vdW  Elec       q    Type
                         _______ _______ _______ _____ _____    ______ ____

>  <TORSDO>
F 2

$$$$
=
 OpenBabel11122411013D

 31 35  0  0  1  0  0  0  0  0999 V2000
  191.5710  176.7880  138.8940 C   0  0  0  0  0  0  0  0  0  0  0  0
  188.5130  177.3810  136.7200 C   0  0  2  0  0  3  0  0  0  0  0  0
  188.1580  175.9970  136.1150 C   0  0  1  0  0  3  0  0  0  0  0  0
  187.9700  173.5170  136.2800 C   0  0  1  0  0  3  0  0  0  0  0  0
  189.4070  177.3160  137.9320 C   0  0  0  0  0  0  0  0  0  0  0  0
  191.0740  177.0640  140.1710 C   0  0  0  0  0  3  0  0  0  0  0  0
  188.1920  174.8080  137.0750 C   0  0  0  0  0  2  0  0  0  0  0  0
  186.5890  177.8500  138.2420 C   0  0  2  0  0  3  0  0  0  0  0  0
  192.8910  176.3870  138.7350 O   0  0  0  0  0  1  0  0  0  0  0  0
  186.6290  177.2350  134.7630 O   0  0  0  0  0  0  0  0  0  0  0  0
  187.9420  172.3380  137.2280 C   0  0  0  0  0  1  0  0  0  0  0  0
  187.5130  178.1170  139.4320 C   0  0  0  0  0  2  0  0  0  0  0  0
  187.2760  178.2800  136.9390 C   0  0  2  0  0  3  0  0  0  0  0  0
  190.7400  176.9120  137.7780 C   0  0  0  0  0  3  0  0  0  0  0  0
  186.6580  173.5660  135.4840 C   0  0  0  0  0  2  0  0  0  0  0  0
  188.9040  177.5860  139.2240 C   0  0  0  0  0  0  0  0  0  0  0  0
  189.7470  177.4680  140.3330 C   0  0  0  0  0  3  0  0  0  0  0  0
  186.3060  178.2220  135.7250 C   0  0  0  0  0  2  0  0  0  0  0  0
  186.7770  176.0370  135.4700 C   0  0  1  0  0  3  0  0  0  0  0  0
  186.5910  174.8100  134.5940 C   0  0  0  0  0  2  0  0  0  0  0  0
  185.2520  178.5500  138.4600 C   0  0  0  0  0  2  0  0  0  0  0  0
  184.1340  176.5660  137.7950 O   0  0  0  0  0  0  0  0  0  0  0  0
  184.1620  177.5340  138.6010 C   0  0  0  0  0  0  0  0  0  0  0  0
  180.9990  178.0010  141.4300 N   0  0  0  0  0  0  0  0  0  0  0  0
  181.8440  176.9980  139.3700 C   0  0  0  0  0  2  0  0  0  0  0  0
  184.4550  178.7020  141.2300 O   0  0  0  0  0  0  0  0  0  0  0  0
  179.8370  178.6520  142.0050 C   0  0  0  0  0  1  0  0  0  0  0  0
  180.6980  177.7740  140.0190 C   0  0  0  0  0  2  0  0  0  0  0  0
  183.3030  178.4450  140.7920 C   0  0  0  0  0  0  0  0  0  0  0  0
  183.1180  177.6890  139.5800 N   0  0  0  0  0  0  0  0  0  0  0  0
  182.1020  178.9560  141.5260 C   0  0  0  0  0  2  0  0  0  0  0  0
  1  6  1  0  0  0  0
  2 13  1  0  0  0  0
  2  5  1  1  0  0  0
  3  2  1  0  0  0  0
  3  7  1  1  0  0  0
  4  7  1  0  0  0  0
  4 11  1  1  0  0  0
  5 16  2  0  0  0  0
  6 17  2  0  0  0  0
  8 21  1  1  0  0  0
  8 12  1  0  0  0  0
  9  1  1  0  0  0  0
 10 19  1  0  0  0  0
 10 18  1  0  0  0  0
 13 18  1  6  0  0  0
 13  8  1  0  0  0  0
 14  5  1  0  0  0  0
 14  1  2  0  0  0  0
 15  4  1  0  0  0  0
 16 12  1  0  0  0  0
 16 17  1  0  0  0  0
 19 20  1  6  0  0  0
 19  3  1  0  0  0  0
 20 15  1  0  0  0  0
 21 23  1  0  0  0  0
 22 23  2  0  0  0  0
 23 30  1  0  0  0  0
 24 31  1  0  0  0  0
 24 27  1  0  0  0  0
 25 30  1  0  0  0  0
 25 28  1  0  0  0  0
 28 24  1  0  0  0  0
 29 26  2  0  0  0  0
 29 31  1  0  0  0  0
 30 29  1  0  0  0  0
M  END
>  <MODEL>
5

>  <REMARK>
 VINA RESULT:      -6.5      3.318      4.739
  Name = 
  2 active torsions:
  status: ('A' for Active; 'I' for Inactive)
    1  A    between atoms: C_5  and  C_16
    2  A    between atoms: C_10  and  C_16
                            x       y       z     vdW  Elec       q    Type
                         _______ _______ _______ _____ _____    ______ ____

>  <TORSDO>
F 2

$$$$
=
 OpenBabel11122411013D

 31 35  0  0  1  0  0  0  0  0999 V2000
  179.9340  179.5170  141.8310 C   0  0  0  0  0  0  0  0  0  0  0  0
  183.0750  178.9130  139.7820 C   0  0  2  0  0  3  0  0  0  0  0  0
  184.2530  179.0230  140.7850 C   0  0  1  0  0  3  0  0  0  0  0  0
  185.2530  178.6560  143.0390 C   0  0  1  0  0  3  0  0  0  0  0  0
  181.7310  178.6890  140.4270 C   0  0  0  0  0  0  0  0  0  0  0  0
  179.2920  178.2780  141.7450 C   0  0  0  0  0  3  0  0  0  0  0  0
  184.0700  178.3130  142.1270 C   0  0  0  0  0  2  0  0  0  0  0  0
  183.0980  176.5020  139.1340 C   0  0  2  0  0  3  0  0  0  0  0  0
  179.3640  180.5440  142.5710 O   0  0  0  0  0  1  0  0  0  0  0  0
  185.6240  178.9530  138.8320 O   0  0  0  0  0  0  0  0  0  0  0  0
  185.1130  177.9110  144.3490 C   0  0  0  0  0  1  0  0  0  0  0  0
  181.6170  176.3300  139.4800 C   0  0  0  0  0  2  0  0  0  0  0  0
  183.3540  177.9260  138.6270 C   0  0  2  0  0  3  0  0  0  0  0  0
  181.1500  179.7210  141.1760 C   0  0  0  0  0  3  0  0  0  0  0  0
  186.5920  178.2910  142.3820 C   0  0  0  0  0  2  0  0  0  0  0  0
  181.0860  177.4350  140.3490 C   0  0  0  0  0  0  0  0  0  0  0  0
  179.8640  177.2440  141.0000 C   0  0  0  0  0  3  0  0  0  0  0  0
  184.7970  178.0940  138.0700 C   0  0  0  0  0  2  0  0  0  0  0  0
  185.5400  178.5030  140.1540 C   0  0  1  0  0  3  0  0  0  0  0  0
  186.7280  178.9300  140.9980 C   0  0  0  0  0  2  0  0  0  0  0  0
  183.5200  175.4350  138.1300 C   0  0  0  0  0  2  0  0  0  0  0  0
  182.3170  176.4460  136.3520 O   0  0  0  0  0  0  0  0  0  0  0  0
  182.5430  175.3880  136.9970 C   0  0  0  0  0  0  0  0  0  0  0  0
  180.2900  171.8700  136.1120 N   0  0  0  0  0  0  0  0  0  0  0  0
  180.5500  174.2940  135.9550 C   0  0  0  0  0  2  0  0  0  0  0  0
  183.5300  172.6820  137.2630 O   0  0  0  0  0  0  0  0  0  0  0  0
  179.3180  170.8290  136.3880 C   0  0  0  0  0  1  0  0  0  0  0  0
  179.6110  173.1460  136.3270 C   0  0  0  0  0  2  0  0  0  0  0  0
  182.3090  172.8750  137.0230 C   0  0  0  0  0  0  0  0  0  0  0  0
  181.8120  174.1860  136.6910 N   0  0  0  0  0  0  0  0  0  0  0  0
  181.3480  171.7290  137.1110 C   0  0  0  0  0  2  0  0  0  0  0  0
  1  9  1  0  0  0  0
  2  5  1  1  0  0  0
  2  3  1  0  0  0  0
  3  7  1  1  0  0  0
  4 11  1  1  0  0  0
  5 14  1  0  0  0  0
  6  1  1  0  0  0  0
  7  4  1  0  0  0  0
  8 21  1  6  0  0  0
  8 12  1  0  0  0  0
 10 19  1  0  0  0  0
 12 16  1  0  0  0  0
 13 18  1  1  0  0  0
 13  8  1  0  0  0  0
 13  2  1  0  0  0  0
 14  1  2  0  0  0  0
 15  4  1  0  0  0  0
 16  5  2  0  0  0  0
 16 17  1  0  0  0  0
 17  6  2  0  0  0  0
 18 10  1  0  0  0  0
 19  3  1  0  0  0  0
 19 20  1  1  0  0  0
 20 15  1  0  0  0  0
 22 23  2  0  0  0  0
 23 21  1  0  0  0  0
 24 28  1  0  0  0  0
 24 27  1  0  0  0  0
 24 31  1  0  0  0  0
 25 28  1  0  0  0  0
 25 30  1  0  0  0  0
 29 31  1  0  0  0  0
 29 26  2  0  0  0  0
 30 23  1  0  0  0  0
 30 29  1  0  0  0  0
M  END
>  <MODEL>
6

>  <REMARK>
 VINA RESULT:      -6.4      5.536      9.884
  Name = 
  2 active torsions:
  status: ('A' for Active; 'I' for Inactive)
    1  A    between atoms: C_5  and  C_16
    2  A    between atoms: C_10  and  C_16
                            x       y       z     vdW  Elec       q    Type
                         _______ _______ _______ _____ _____    ______ ____

>  <TORSDO>
F 2

$$$$
=
 OpenBabel11122411013D

 31 35  0  0  1  0  0  0  0  0999 V2000
  191.0480  177.3800  140.7150 C   0  0  0  0  0  0  0  0  0  0  0  0
  188.9770  178.0640  137.6050 C   0  0  2  0  0  3  0  0  0  0  0  0
  189.0810  176.7780  136.7450 C   0  0  1  0  0  3  0  0  0  0  0  0
  189.2090  174.2990  136.5170 C   0  0  1  0  0  3  0  0  0  0  0  0
  189.3510  177.8730  139.0530 C   0  0  0  0  0  0  0  0  0  0  0  0
  190.0750  177.3910  141.7180 C   0  0  0  0  0  3  0  0  0  0  0  0
  188.9250  175.4510  137.4870 C   0  0  0  0  0  2  0  0  0  0  0  0
  186.5760  178.0990  138.2930 C   0  0  2  0  0  3  0  0  0  0  0  0
  192.3750  177.1280  141.0390 O   0  0  0  0  0  1  0  0  0  0  0  0
  188.0070  178.0890  135.0640 O   0  0  0  0  0  0  0  0  0  0  0  0
  189.0010  172.9780  137.2260 C   0  0  0  0  0  1  0  0  0  0  0  0
  186.9380  178.2400  139.7740 C   0  0  0  0  0  2  0  0  0  0  0  0
  187.6310  178.8020  137.4290 C   0  0  2  0  0  3  0  0  0  0  0  0
  190.6880  177.6190  139.3870 C   0  0  0  0  0  3  0  0  0  0  0  0
  188.2990  174.3680  135.2820 C   0  0  0  0  0  2  0  0  0  0  0  0
  188.3660  177.8750  140.0660 C   0  0  0  0  0  0  0  0  0  0  0  0
  188.7390  177.6450  141.3930 C   0  0  0  0  0  3  0  0  0  0  0  0
  187.2070  178.8660  135.9340 C   0  0  0  0  0  2  0  0  0  0  0  0
  188.0530  176.8060  135.6190 C   0  0  1  0  0  3  0  0  0  0  0  0
  188.3910  175.7340  134.5970 C   0  0  0  0  0  2  0  0  0  0  0  0
  185.1690  178.6330  138.0530 C   0  0  0  0  0  2  0  0  0  0  0  0
  183.5320  177.7180  139.5070 O   0  0  0  0  0  0  0  0  0  0  0  0
  184.1600  177.5910  138.4220 C   0  0  0  0  0  0  0  0  0  0  0  0
  183.5920  174.0720  136.0710 N   0  0  0  0  0  0  0  0  0  0  0  0
  183.3740  175.2260  138.2130 C   0  0  0  0  0  2  0  0  0  0  0  0
  184.3420  177.4830  135.5380 O   0  0  0  0  0  0  0  0  0  0  0  0
  183.9930  172.8130  135.4740 C   0  0  0  0  0  1  0  0  0  0  0  0
  183.8680  173.9660  137.5020 C   0  0  0  0  0  2  0  0  0  0  0  0
  184.2450  176.4110  136.1930 C   0  0  0  0  0  0  0  0  0  0  0  0
  183.9570  176.4240  137.6040 N   0  0  0  0  0  0  0  0  0  0  0  0
  184.4610  175.1010  135.5010 C   0  0  0  0  0  2  0  0  0  0  0  0
  1  9  1  0  0  0  0
  1  6  1  0  0  0  0
  2  5  1  1  0  0  0
  3  7  1  1  0  0  0
  3  2  1  0  0  0  0
  4 11  1  1  0  0  0
  4  7  1  0  0  0  0
  5 14  1  0  0  0  0
  5 16  2  0  0  0  0
  8 21  1  1  0  0  0
  8 12  1  0  0  0  0
 10 19  1  0  0  0  0
 10 18  1  0  0  0  0
 12 16  1  0  0  0  0
 13 18  1  6  0  0  0
 13  2  1  0  0  0  0
 13  8  1  0  0  0  0
 14  1  2  0  0  0  0
 15  4  1  0  0  0  0
 16 17  1  0  0  0  0
 17  6  2  0  0  0  0
 19 20  1  6  0  0  0
 19  3  1  0  0  0  0
 20 15  1  0  0  0  0
 21 23  1  0  0  0  0
 23 22  2  0  0  0  0
 24 28  1  0  0  0  0
 26 29  2  0  0  0  0
 27 24  1  0  0  0  0
 28 25  1  0  0  0  0
 29 30  1  0  0  0  0
 30 25  1  0  0  0  0
 30 23  1  0  0  0  0
 31 24  1  0  0  0  0
 31 29  1  0  0  0  0
M  END
>  <MODEL>
7

>  <REMARK>
 VINA RESULT:      -5.9      3.061      5.784
  Name = 
  2 active torsions:
  status: ('A' for Active; 'I' for Inactive)
    1  A    between atoms: C_5  and  C_16
    2  A    between atoms: C_10  and  C_16
                            x       y       z     vdW  Elec       q    Type
                         _______ _______ _______ _____ _____    ______ ____

>  <TORSDO>
F 2

$$$$
=
 OpenBabel11122411013D

 31 35  0  0  1  0  0  0  0  0999 V2000
  189.8030  172.8930  135.4120 C   0  0  0  0  0  0  0  0  0  0  0  0
  187.2650  175.7190  135.3680 C   0  0  2  0  0  3  0  0  0  0  0  0
  185.8760  175.0300  135.4170 C   0  0  1  0  0  3  0  0  0  0  0  0
  184.3500  173.2290  136.2180 C   0  0  1  0  0  3  0  0  0  0  0  0
  188.4080  174.8380  135.8050 C   0  0  0  0  0  0  0  0  0  0  0  0
  190.4460  173.1030  136.6340 C   0  0  0  0  0  3  0  0  0  0  0  0
  185.7220  173.8840  136.4160 C   0  0  0  0  0  2  0  0  0  0  0  0
  187.4030  176.8870  137.5700 C   0  0  2  0  0  3  0  0  0  0  0  0
  190.1730  171.8230  134.6080 O   0  0  0  0  0  1  0  0  0  0  0  0
  185.0300  177.2180  134.9750 O   0  0  0  0  0  0  0  0  0  0  0  0
  184.1630  172.1300  137.2410 C   0  0  0  0  0  1  0  0  0  0  0  0
  188.7530  176.2450  137.8980 C   0  0  0  0  0  2  0  0  0  0  0  0
  187.2800  177.1010  136.0570 C   0  0  2  0  0  3  0  0  0  0  0  0
  188.7860  173.7570  134.9990 C   0  0  0  0  0  3  0  0  0  0  0  0
  183.2150  174.2540  136.3520 C   0  0  0  0  0  2  0  0  0  0  0  0
  189.0530  175.0450  137.0450 C   0  0  0  0  0  0  0  0  0  0  0  0
  190.0760  174.1800  137.4440 C   0  0  0  0  0  3  0  0  0  0  0  0
  186.0190  177.9350  135.6890 C   0  0  0  0  0  2  0  0  0  0  0  0
  184.7850  176.0540  135.7110 C   0  0  1  0  0  3  0  0  0  0  0  0
  183.4250  175.4460  135.4150 C   0  0  0  0  0  2  0  0  0  0  0  0
  187.2410  178.1800  138.3620 C   0  0  0  0  0  2  0  0  0  0  0  0
  189.5180  178.4400  138.9810 O   0  0  0  0  0  0  0  0  0  0  0  0
  188.3320  178.2920  139.3810 C   0  0  0  0  0  0  0  0  0  0  0  0
  187.5730  177.8100  143.5550 N   0  0  0  0  0  0  0  0  0  0  0  0
  189.1460  177.7710  141.6870 C   0  0  0  0  0  2  0  0  0  0  0  0
  185.9330  179.1690  140.7370 O   0  0  0  0  0  0  0  0  0  0  0  0
  187.1710  177.0770  144.7400 C   0  0  0  0  0  1  0  0  0  0  0  0
  188.6020  177.0090  142.8950 C   0  0  0  0  0  2  0  0  0  0  0  0
  186.7660  178.4530  141.3530 C   0  0  0  0  0  0  0  0  0  0  0  0
  188.0570  178.1580  140.7880 N   0  0  0  0  0  0  0  0  0  0  0  0
  186.4000  177.8740  142.6850 C   0  0  0  0  0  2  0  0  0  0  0  0
  1  6  1  0  0  0  0
  2  3  1  0  0  0  0
  2  5  1  1  0  0  0
  2 13  1  0  0  0  0
  3 19  1  0  0  0  0
  3  7  1  1  0  0  0
  4 15  1  0  0  0  0
  4  7  1  0  0  0  0
  4 11  1  1  0  0  0
  5 16  2  0  0  0  0
  6 17  2  0  0  0  0
  8 12  1  0  0  0  0
  8 21  1  1  0  0  0
  9  1  1  0  0  0  0
 10 18  1  0  0  0  0
 10 19  1  0  0  0  0
 13 18  1  1  0  0  0
 13  8  1  0  0  0  0
 14  1  2  0  0  0  0
 14  5  1  0  0  0  0
 16 17  1  0  0  0  0
 16 12  1  0  0  0  0
 19 20  1  6  0  0  0
 20 15  1  0  0  0  0
 21 23  1  0  0  0  0
 22 23  2  0  0  0  0
 23 30  1  0  0  0  0
 24 27  1  0  0  0  0
 25 28  1  0  0  0  0
 26 29  2  0  0  0  0
 28 24  1  0  0  0  0
 29 31  1  0  0  0  0
 30 29  1  0  0  0  0
 30 25  1  0  0  0  0
 31 24  1  0  0  0  0
M  END
>  <MODEL>
8

>  <REMARK>
 VINA RESULT:      -5.8      1.847      2.666
  Name = 
  2 active torsions:
  status: ('A' for Active; 'I' for Inactive)
    1  A    between atoms: C_5  and  C_16
    2  A    between atoms: C_10  and  C_16
                            x       y       z     vdW  Elec       q    Type
                         _______ _______ _______ _____ _____    ______ ____

>  <TORSDO>
F 2

$$$$
=
 OpenBabel11122411013D

 31 35  0  0  1  0  0  0  0  0999 V2000
  192.6780  175.2690  135.6680 C   0  0  0  0  0  0  0  0  0  0  0  0
  189.2100  176.8180  135.7330 C   0  0  2  0  0  3  0  0  0  0  0  0
  188.2370  175.6750  135.3400 C   0  0  1  0  0  3  0  0  0  0  0  0
  187.5320  173.2850  135.3850 C   0  0  1  0  0  3  0  0  0  0  0  0
  190.5670  176.3460  136.1890 C   0  0  0  0  0  0  0  0  0  0  0  0
  193.0520  175.3440  137.0120 C   0  0  0  0  0  3  0  0  0  0  0  0
  188.4790  174.3200  136.0030 C   0  0  0  0  0  2  0  0  0  0  0  0
  188.6310  177.2650  138.1210 C   0  0  2  0  0  3  0  0  0  0  0  0
  193.5370  174.6970  134.7390 O   0  0  0  0  0  1  0  0  0  0  0  0
  186.6030  177.4120  135.2330 O   0  0  0  0  0  0  0  0  0  0  0  0
  187.7210  171.9510  136.0760 C   0  0  0  0  0  1  0  0  0  0  0  0
  190.0870  177.1110  138.5680 C   0  0  0  0  0  2  0  0  0  0  0  0
  188.5790  177.8430  136.7010 C   0  0  2  0  0  3  0  0  0  0  0  0
  191.4400  175.7670  135.2570 C   0  0  0  0  0  3  0  0  0  0  0  0
  186.0650  173.7230  135.5080 C   0  0  0  0  0  2  0  0  0  0  0  0
  190.9430  176.4130  137.5490 C   0  0  0  0  0  0  0  0  0  0  0  0
  192.1890  175.9200  137.9480 C   0  0  0  0  0  3  0  0  0  0  0  0
  187.1280  178.2100  136.2770 C   0  0  0  0  0  2  0  0  0  0  0  0
  186.7960  176.0830  135.6230 C   0  0  1  0  0  3  0  0  0  0  0  0
  185.8490  175.1220  134.9250 C   0  0  0  0  0  2  0  0  0  0  0  0
  187.8690  178.1150  139.1310 C   0  0  0  0  0  2  0  0  0  0  0  0
  189.9110  178.2530  140.3310 O   0  0  0  0  0  0  0  0  0  0  0  0
  188.6540  178.2240  140.4000 C   0  0  0  0  0  0  0  0  0  0  0  0
  186.7690  178.1160  144.2300 N   0  0  0  0  0  0  0  0  0  0  0  0
  188.7730  177.8200  142.8660 C   0  0  0  0  0  2  0  0  0  0  0  0
  186.0700  179.3750  141.0040 O   0  0  0  0  0  0  0  0  0  0  0  0
  186.0000  177.5070  145.2980 C   0  0  0  0  0  1  0  0  0  0  0  0
  187.8580  177.1940  143.9190 C   0  0  0  0  0  2  0  0  0  0  0  0
  186.6400  178.6490  141.8610 C   0  0  0  0  0  0  0  0  0  0  0  0
  188.0030  178.2170  141.6840 N   0  0  0  0  0  0  0  0  0  0  0  0
  185.8810  178.2000  143.0720 C   0  0  0  0  0  2  0  0  0  0  0  0
  1  6  1  0  0  0  0
  2  5  1  1  0  0  0
  2 13  1  0  0  0  0
  3 19  1  0  0  0  0
  3  2  1  0  0  0  0
  3  7  1  1  0  0  0
  4 15  1  0  0  0  0
  4  7  1  0  0  0  0
  4 11  1  1  0  0  0
  5 16  2  0  0  0  0
  6 17  2  0  0  0  0
  8 12  1  0  0  0  0
  8 21  1  1  0  0  0
  9  1  1  0  0  0  0
 10 19  1  0  0  0  0
 10 18  1  0  0  0  0
 13 18  1  6  0  0  0
 13  8  1  0  0  0  0
 14  1  2  0  0  0  0
 14  5  1  0  0  0  0
 16 17  1  0  0  0  0
 16 12  1  0  0  0  0
 19 20  1  6  0  0  0
 20 15  1  0  0  0  0
 21 23  1  0  0  0  0
 22 23  2  0  0  0  0
 23 30  1  0  0  0  0
 24 27  1  0  0  0  0
 25 28  1  0  0  0  0
 26 29  2  0  0  0  0
 28 24  1  0  0  0  0
 29 31  1  0  0  0  0
 30 29  1  0  0  0  0
 30 25  1  0  0  0  0
 31 24  1  0  0  0  0
M  END
>  <MODEL>
9

>  <REMARK>
 VINA RESULT:      -5.7      1.386      2.009
  Name = 
  2 active torsions:
  status: ('A' for Active; 'I' for Inactive)
    1  A    between atoms: C_5  and  C_16
    2  A    between atoms: C_10  and  C_16
                            x       y       z     vdW  Elec       q    Type
                         _______ _______ _______ _____ _____    ______ ____

>  <TORSDO>
F 2

$$$$
