=
 OpenBabel11122410253D

 30 36  0  0  1  0  0  0  0  0999 V2000
  189.2760  177.4700  143.4930 C   0  0  1  0  0  3  0  0  0  0  0  0
  191.3640  176.6530  144.7800 C   0  0  0  0  0  0  0  0  0  0  0  0
  187.1470  177.9040  147.2710 C   0  0  0  0  0  2  0  0  0  0  0  0
  187.8920  178.1680  143.6240 C   0  0  1  0  0  3  0  0  0  0  0  0
  190.0450  178.2240  142.4160 C   0  0  0  0  0  2  0  0  0  0  0  0
  187.3260  178.1700  139.9610 O   0  0  0  0  0  0  0  0  0  0  0  0
  184.6780  177.9400  142.9860 C   0  0  1  0  0  3  0  0  0  0  0  0
  187.9150  178.1270  141.0770 C   0  0  0  0  0  0  0  0  0  0  0  0
  184.6110  178.0830  144.5060 C   0  0  2  0  0  3  0  0  0  0  0  0
  185.8880  178.3630  146.6420 C   0  0  0  0  0  0  0  0  0  0  0  0
  189.3550  178.1420  141.1290 N   0  0  0  0  0  0  0  0  0  0  0  0
  187.0980  177.9250  142.3330 C   0  0  2  0  0  3  0  0  0  0  0  0
  191.7960  175.8950  146.0110 C   0  0  0  0  0  2  0  0  0  0  0  0
  183.6240  179.2050  144.7510 C   0  0  0  0  0  2  0  0  0  0  0  0
  183.3280  178.4120  142.4710 C   0  0  0  0  0  2  0  0  0  0  0  0
  192.0660  176.6210  143.7820 O   0  0  0  0  0  0  0  0  0  0  0  0
  188.0500  177.9450  146.0640 C   0  0  2  0  0  3  0  0  0  0  0  0
  191.2060  176.5310  147.2460 C   0  0  0  0  0  3  0  0  0  0  0  0
  190.0880  177.4720  144.8130 C   0  0  2  0  0  3  0  0  0  0  0  0
  187.1560  177.6520  144.8710 C   0  0  1  0  0  3  0  0  0  0  0  0
  184.8850  178.7190  147.3160 O   0  0  0  0  0  0  0  0  0  0  0  0
  185.8860  178.2990  145.2100 N   0  0  0  0  0  0  0  0  0  0  0  0
  182.6140  179.0880  143.6300 C   0  0  0  0  0  2  0  0  0  0  0  0
  185.9210  180.1800  142.6600 C   0  0  0  0  0  1  0  0  0  0  0  0
  190.0230  177.0500  147.2210 N   0  0  0  0  0  0  0  0  0  0  0  0
  189.2340  177.0130  146.0070 C   0  0  1  0  0  3  0  0  0  0  0  0
  185.7910  178.7060  142.2750 C   0  0  2  0  0  3  0  0  0  0  0  0
  190.1410  177.8520  139.9290 C   0  0  0  0  0  3  0  0  0  0  0  0
  190.5070  176.3760  139.8720 C   0  0  0  0  0  2  0  0  0  0  0  0
  191.5350  177.3870  140.3180 C   0  0  0  0  0  2  0  0  0  0  0  0
  1  5  1  6  0  0  0
  1  4  1  0  0  0  0
  1 19  1  0  0  0  0
  2 19  1  0  0  0  0
  2 13  1  0  0  0  0
  4 20  1  0  0  0  0
  6  8  2  0  0  0  0
  7  9  1  0  0  0  0
  8 11  1  0  0  0  0
  8 12  1  0  0  0  0
  9 14  1  0  0  0  0
  9 22  1  0  0  0  0
 10  3  1  0  0  0  0
 10 21  2  0  0  0  0
 11  5  1  0  0  0  0
 12  4  1  0  0  0  0
 13 18  1  0  0  0  0
 15  7  1  0  0  0  0
 15 23  1  0  0  0  0
 16  2  2  0  0  0  0
 17  3  1  0  0  0  0
 19 26  1  0  0  0  0
 20 22  1  0  0  0  0
 20 17  1  0  0  0  0
 22 10  1  0  0  0  0
 23 14  1  0  0  0  0
 25 18  2  0  0  0  0
 26 17  1  0  0  0  0
 26 25  1  0  0  0  0
 27 12  1  0  0  0  0
 27 24  1  0  0  0  0
 27  7  1  0  0  0  0
 28 30  1  0  0  0  0
 28 11  1  0  0  0  0
 29 28  1  0  0  0  0
 29 30  1  0  0  0  0
M  END
>  <MODEL>
1

>  <REMARK>
 VINA RESULT:     -10.2      0.000      0.000
  Name = 
  1 active torsions:
  status: ('A' for Active; 'I' for Inactive)
    1  A    between atoms: N_11  and  C_28
                            x       y       z     vdW  Elec       q    Type
                         _______ _______ _______ _____ _____    ______ ____

>  <TORSDO>
F 1

$$$$
=
 OpenBabel11122410253D

 30 36  0  0  1  0  0  0  0  0999 V2000
  187.4930  178.1800  140.2980 C   0  0  1  0  0  3  0  0  0  0  0  0
  185.2850  178.8790  139.1480 C   0  0  0  0  0  0  0  0  0  0  0  0
  185.4440  178.1250  144.1440 C   0  0  0  0  0  2  0  0  0  0  0  0
  188.1250  177.6110  141.6000 C   0  0  1  0  0  3  0  0  0  0  0  0
  187.9920  177.3090  139.1530 C   0  0  0  0  0  2  0  0  0  0  0  0
  191.5210  177.4700  140.1230 O   0  0  0  0  0  0  0  0  0  0  0  0
  190.3850  178.0810  143.9370 C   0  0  1  0  0  3  0  0  0  0  0  0
  190.2640  177.5190  140.2190 C   0  0  0  0  0  0  0  0  0  0  0  0
  189.1370  178.0230  144.8180 C   0  0  2  0  0  3  0  0  0  0  0  0
  186.6500  177.7450  144.9130 C   0  0  0  0  0  0  0  0  0  0  0  0
  189.4490  177.3830  139.0390 N   0  0  0  0  0  0  0  0  0  0  0  0
  189.6410  177.8550  141.5550 C   0  0  2  0  0  3  0  0  0  0  0  0
  184.0130  179.6600  139.3660 C   0  0  0  0  0  2  0  0  0  0  0  0
  189.4620  177.0040  145.8900 C   0  0  0  0  0  2  0  0  0  0  0  0
  191.5440  177.7010  144.8440 C   0  0  0  0  0  2  0  0  0  0  0  0
  185.7520  178.7990  138.0230 O   0  0  0  0  0  0  0  0  0  0  0  0
  185.9800  177.9450  142.7460 C   0  0  2  0  0  3  0  0  0  0  0  0
  183.2880  179.1410  140.5840 C   0  0  0  0  0  3  0  0  0  0  0  0
  185.9440  178.1760  140.3200 C   0  0  2  0  0  3  0  0  0  0  0  0
  187.4650  178.2530  142.8320 C   0  0  1  0  0  3  0  0  0  0  0  0
  186.6190  177.5110  146.1500 O   0  0  0  0  0  0  0  0  0  0  0  0
  187.8610  177.7350  144.1450 N   0  0  0  0  0  0  0  0  0  0  0  0
  190.9490  177.1500  146.1300 C   0  0  0  0  0  2  0  0  0  0  0  0
  190.0000  175.7290  142.9440 C   0  0  0  0  0  1  0  0  0  0  0  0
  183.9440  178.7250  141.6160 N   0  0  0  0  0  0  0  0  0  0  0  0
  185.3910  178.7680  141.6280 C   0  0  1  0  0  3  0  0  0  0  0  0
  190.3910  177.1870  142.7000 C   0  0  2  0  0  3  0  0  0  0  0  0
  190.0410  177.5430  137.7090 C   0  0  0  0  0  3  0  0  0  0  0  0
  189.2960  178.6060  136.9150 C   0  0  0  0  0  2  0  0  0  0  0  0
  189.0360  177.1450  136.6400 C   0  0  0  0  0  2  0  0  0  0  0  0
  1  5  1  6  0  0  0
  1 19  1  0  0  0  0
  1  4  1  0  0  0  0
  2 13  1  0  0  0  0
  2 19  1  0  0  0  0
  3 10  1  0  0  0  0
  4 20  1  0  0  0  0
  6  8  2  0  0  0  0
  7  9  1  0  0  0  0
  7 15  1  0  0  0  0
  8 12  1  0  0  0  0
  9 14  1  0  0  0  0
 10 21  2  0  0  0  0
 11  5  1  0  0  0  0
 11  8  1  0  0  0  0
 12  4  1  0  0  0  0
 12 27  1  0  0  0  0
 13 18  1  0  0  0  0
 14 23  1  0  0  0  0
 15 23  1  0  0  0  0
 16  2  2  0  0  0  0
 17 20  1  0  0  0  0
 17  3  1  0  0  0  0
 18 25  2  0  0  0  0
 19 26  1  0  0  0  0
 20 22  1  0  0  0  0
 22  9  1  0  0  0  0
 22 10  1  0  0  0  0
 25 26  1  0  0  0  0
 26 17  1  0  0  0  0
 27 24  1  0  0  0  0
 27  7  1  0  0  0  0
 28 11  1  0  0  0  0
 29 28  1  0  0  0  0
 30 29  1  0  0  0  0
 30 28  1  0  0  0  0
M  END
>  <MODEL>
2

>  <REMARK>
 VINA RESULT:      -9.5      2.101      5.763
  Name = 
  1 active torsions:
  status: ('A' for Active; 'I' for Inactive)
    1  A    between atoms: N_11  and  C_28
                            x       y       z     vdW  Elec       q    Type
                         _______ _______ _______ _____ _____    ______ ____

>  <TORSDO>
F 1

$$$$
=
 OpenBabel11122410253D

 30 36  0  0  1  0  0  0  0  0999 V2000
  186.5330  177.9110  144.8830 C   0  0  1  0  0  3  0  0  0  0  0  0
  184.0460  178.4030  145.3920 C   0  0  0  0  0  0  0  0  0  0  0  0
  185.8450  178.9000  140.6940 C   0  0  0  0  0  2  0  0  0  0  0  0
  187.6750  178.0750  143.8410 C   0  0  1  0  0  3  0  0  0  0  0  0
  187.0680  178.4440  146.2050 C   0  0  0  0  0  2  0  0  0  0  0  0
  190.2050  176.5570  146.0820 O   0  0  0  0  0  0  0  0  0  0  0  0
  189.9580  176.5190  142.0640 C   0  0  1  0  0  3  0  0  0  0  0  0
  189.1520  177.1300  145.6880 C   0  0  0  0  0  0  0  0  0  0  0  0
  189.1690  177.1670  140.9260 C   0  0  2  0  0  3  0  0  0  0  0  0
  187.2400  178.6280  140.2800 C   0  0  0  0  0  0  0  0  0  0  0  0
  188.2240  177.6670  146.6500 N   0  0  0  0  0  0  0  0  0  0  0  0
  188.8180  177.1200  144.2130 C   0  0  2  0  0  3  0  0  0  0  0  0
  182.6620  178.3430  144.7930 C   0  0  0  0  0  2  0  0  0  0  0  0
  190.2080  177.8780  140.0850 C   0  0  0  0  0  2  0  0  0  0  0  0
  191.3490  176.2670  141.5050 C   0  0  0  0  0  2  0  0  0  0  0  0
  184.1810  178.2620  146.5970 O   0  0  0  0  0  0  0  0  0  0  0  0
  186.0150  178.8180  142.1910 C   0  0  2  0  0  3  0  0  0  0  0  0
  182.6200  179.1310  143.5060 C   0  0  0  0  0  3  0  0  0  0  0  0
  185.2400  178.6740  144.4970 C   0  0  2  0  0  3  0  0  0  0  0  0
  187.1370  177.8200  142.4220 C   0  0  1  0  0  3  0  0  0  0  0  0
  187.6490  178.8270  139.1060 O   0  0  0  0  0  0  0  0  0  0  0  0
  188.0590  178.0550  141.3080 N   0  0  0  0  0  0  0  0  0  0  0  0
  191.4490  177.0180  140.1870 C   0  0  0  0  0  2  0  0  0  0  0  0
  190.4970  178.7740  143.2010 C   0  0  0  0  0  1  0  0  0  0  0  0
  183.6390  179.1540  142.7120 N   0  0  0  0  0  0  0  0  0  0  0  0
  184.8360  178.4070  143.0360 C   0  0  1  0  0  3  0  0  0  0  0  0
  190.0660  177.3160  143.3620 C   0  0  2  0  0  3  0  0  0  0  0  0
  188.2970  177.2590  148.0540 C   0  0  0  0  0  3  0  0  0  0  0  0
  187.6290  178.2940  148.9480 C   0  0  0  0  0  2  0  0  0  0  0  0
  189.1350  178.2530  148.8430 C   0  0  0  0  0  2  0  0  0  0  0  0
  1  5  1  1  0  0  0
  2 16  2  0  0  0  0
  3 17  1  0  0  0  0
  4 12  1  0  0  0  0
  4  1  1  0  0  0  0
  5 11  1  0  0  0  0
  7 27  1  0  0  0  0
  8  6  2  0  0  0  0
  8 11  1  0  0  0  0
  9 22  1  0  0  0  0
  9  7  1  0  0  0  0
 10  3  1  0  0  0  0
 10 22  1  0  0  0  0
 11 28  1  0  0  0  0
 12  8  1  0  0  0  0
 13  2  1  0  0  0  0
 14 23  1  0  0  0  0
 14  9  1  0  0  0  0
 15  7  1  0  0  0  0
 17 20  1  0  0  0  0
 17 26  1  0  0  0  0
 18 13  1  0  0  0  0
 19  1  1  0  0  0  0
 19  2  1  0  0  0  0
 20  4  1  0  0  0  0
 21 10  2  0  0  0  0
 22 20  1  0  0  0  0
 23 15  1  0  0  0  0
 24 27  1  0  0  0  0
 25 26  1  0  0  0  0
 25 18  2  0  0  0  0
 26 19  1  0  0  0  0
 27 12  1  0  0  0  0
 28 30  1  0  0  0  0
 28 29  1  0  0  0  0
 30 29  1  0  0  0  0
M  END
>  <MODEL>
3

>  <REMARK>
 VINA RESULT:      -8.9      1.444      6.766
  Name = 
  1 active torsions:
  status: ('A' for Active; 'I' for Inactive)
    1  A    between atoms: N_11  and  C_28
                            x       y       z     vdW  Elec       q    Type
                         _______ _______ _______ _____ _____    ______ ____

>  <TORSDO>
F 1

$$$$
=
 OpenBabel11122410253D

 30 36  0  0  1  0  0  0  0  0999 V2000
  185.8430  178.5230  141.8310 C   0  0  1  0  0  3  0  0  0  0  0  0
  183.3030  179.0030  141.9070 C   0  0  0  0  0  0  0  0  0  0  0  0
  185.8220  177.8660  146.1400 C   0  0  0  0  0  2  0  0  0  0  0  0
  187.0520  177.9410  142.6170 C   0  0  1  0  0  3  0  0  0  0  0  0
  185.8270  177.8270  140.4770 C   0  0  0  0  0  2  0  0  0  0  0  0
  189.3760  178.3950  139.7670 O   0  0  0  0  0  0  0  0  0  0  0  0
  190.0880  178.5240  143.7270 C   0  0  1  0  0  3  0  0  0  0  0  0
  188.3070  178.2600  140.4240 C   0  0  0  0  0  0  0  0  0  0  0  0
  189.4010  178.2210  145.0580 C   0  0  2  0  0  3  0  0  0  0  0  0
  187.2740  177.5940  146.2230 C   0  0  0  0  0  0  0  0  0  0  0  0
  187.0520  178.1110  139.7310 N   0  0  0  0  0  0  0  0  0  0  0  0
  188.3470  178.3950  141.9290 C   0  0  2  0  0  3  0  0  0  0  0  0
  182.2150  179.5790  142.7790 C   0  0  0  0  0  2  0  0  0  0  0  0
  190.2700  177.1720  145.7180 C   0  0  0  0  0  2  0  0  0  0  0  0
  191.5630  178.2340  143.9530 C   0  0  0  0  0  2  0  0  0  0  0  0
  183.2010  179.0820  140.6920 O   0  0  0  0  0  0  0  0  0  0  0  0
  185.6620  177.8780  144.6400 C   0  0  2  0  0  3  0  0  0  0  0  0
  182.1840  178.8650  144.1080 C   0  0  0  0  0  3  0  0  0  0  0  0
  184.4870  178.3020  142.5480 C   0  0  2  0  0  3  0  0  0  0  0  0
  186.9860  178.3800  144.0900 C   0  0  1  0  0  3  0  0  0  0  0  0
  187.8400  177.2560  147.2960 O   0  0  0  0  0  0  0  0  0  0  0  0
  187.9870  177.8160  144.9990 N   0  0  0  0  0  0  0  0  0  0  0  0
  191.6810  177.5010  145.2800 C   0  0  0  0  0  2  0  0  0  0  0  0
  189.4880  176.2320  142.7010 C   0  0  0  0  0  1  0  0  0  0  0  0
  183.2760  178.4600  144.6670 N   0  0  0  0  0  0  0  0  0  0  0  0
  184.5550  178.7020  144.0320 C   0  0  1  0  0  3  0  0  0  0  0  0
  189.5960  177.7450  142.5100 C   0  0  2  0  0  3  0  0  0  0  0  0
  186.9450  178.4610  138.3130 C   0  0  0  0  0  3  0  0  0  0  0  0
  185.7630  177.7470  137.6730 C   0  0  0  0  0  2  0  0  0  0  0  0
  187.1630  177.2260  137.4530 C   0  0  0  0  0  2  0  0  0  0  0  0
  1  5  1  6  0  0  0
  1 19  1  0  0  0  0
  1  4  1  0  0  0  0
  2 19  1  0  0  0  0
  2 13  1  0  0  0  0
  3 10  1  0  0  0  0
  4 20  1  0  0  0  0
  6  8  2  0  0  0  0
  7 15  1  0  0  0  0
  7  9  1  0  0  0  0
  8 12  1  0  0  0  0
  9 14  1  0  0  0  0
 10 21  2  0  0  0  0
 11  8  1  0  0  0  0
 11  5  1  0  0  0  0
 12 27  1  0  0  0  0
 12  4  1  0  0  0  0
 13 18  1  0  0  0  0
 15 23  1  0  0  0  0
 16  2  2  0  0  0  0
 17  3  1  0  0  0  0
 18 25  2  0  0  0  0
 19 26  1  0  0  0  0
 20 17  1  0  0  0  0
 20 22  1  0  0  0  0
 22  9  1  0  0  0  0
 22 10  1  0  0  0  0
 23 14  1  0  0  0  0
 26 17  1  0  0  0  0
 26 25  1  0  0  0  0
 27 24  1  0  0  0  0
 27  7  1  0  0  0  0
 28 11  1  0  0  0  0
 29 28  1  0  0  0  0
 30 29  1  0  0  0  0
 30 28  1  0  0  0  0
M  END
>  <MODEL>
4

>  <REMARK>
 VINA RESULT:      -8.4      1.963      5.664
  Name = 
  1 active torsions:
  status: ('A' for Active; 'I' for Inactive)
    1  A    between atoms: N_11  and  C_28
                            x       y       z     vdW  Elec       q    Type
                         _______ _______ _______ _____ _____    ______ ____

>  <TORSDO>
F 1

$$$$
=
 OpenBabel11122410253D

 30 36  0  0  1  0  0  0  0  0999 V2000
  186.1950  178.1550  140.5040 C   0  0  1  0  0  3  0  0  0  0  0  0
  187.5540  177.7180  138.3480 C   0  0  0  0  0  0  0  0  0  0  0  0
  189.8690  177.9340  142.8370 C   0  0  0  0  0  2  0  0  0  0  0  0
  186.2820  178.5440  142.0070 C   0  0  1  0  0  3  0  0  0  0  0  0
  185.1950  179.1090  139.8640 C   0  0  0  0  0  2  0  0  0  0  0  0
  182.5990  178.6280  142.4040 O   0  0  0  0  0  0  0  0  0  0  0  0
  185.4650  177.6940  145.0720 C   0  0  1  0  0  3  0  0  0  0  0  0
  183.7410  178.6480  141.8670 C   0  0  0  0  0  0  0  0  0  0  0  0
  186.9840  177.7360  145.2330 C   0  0  2  0  0  3  0  0  0  0  0  0
  189.1960  178.1570  144.1360 C   0  0  0  0  0  0  0  0  0  0  0  0
  183.8700  178.9560  140.4660 N   0  0  0  0  0  0  0  0  0  0  0  0
  184.9410  178.2130  142.6780 C   0  0  2  0  0  3  0  0  0  0  0  0
  188.7710  176.9990  137.8210 C   0  0  0  0  0  2  0  0  0  0  0  0
  187.2250  178.6160  146.4420 C   0  0  0  0  0  2  0  0  0  0  0  0
  184.9000  177.9040  146.4680 C   0  0  0  0  0  2  0  0  0  0  0  0
  186.5940  177.8860  137.6130 O   0  0  0  0  0  0  0  0  0  0  0  0
  188.7150  178.2270  141.9110 C   0  0  2  0  0  3  0  0  0  0  0  0
  190.0000  177.4320  138.5840 C   0  0  0  0  0  3  0  0  0  0  0  0
  187.5550  178.2530  139.7680 C   0  0  2  0  0  3  0  0  0  0  0  0
  187.4650  177.8200  142.6730 C   0  0  1  0  0  3  0  0  0  0  0  0
  189.8310  178.2620  145.2180 O   0  0  0  0  0  0  0  0  0  0  0  0
  187.7640  178.1720  144.0630 N   0  0  0  0  0  0  0  0  0  0  0  0
  186.0490  178.3540  147.3570 C   0  0  0  0  0  2  0  0  0  0  0  0
  185.3050  180.1560  144.3120 C   0  0  0  0  0  1  0  0  0  0  0  0
  189.9350  177.6960  139.8460 N   0  0  0  0  0  0  0  0  0  0  0  0
  188.6800  177.5620  140.5580 C   0  0  1  0  0  3  0  0  0  0  0  0
  184.8490  178.7100  144.1140 C   0  0  2  0  0  3  0  0  0  0  0  0
  182.7020  178.9000  139.5860 C   0  0  0  0  0  3  0  0  0  0  0  0
  182.4520  177.4740  139.1170 C   0  0  0  0  0  2  0  0  0  0  0  0
  183.1190  178.4620  138.1910 C   0  0  0  0  0  2  0  0  0  0  0  0
  1  5  1  6  0  0  0
  1  4  1  0  0  0  0
  2 19  1  0  0  0  0
  3 10  1  0  0  0  0
  4 20  1  0  0  0  0
  4 12  1  0  0  0  0
  5 11  1  0  0  0  0
  7  9  1  0  0  0  0
  7 15  1  0  0  0  0
  8  6  2  0  0  0  0
  8 12  1  0  0  0  0
  9 14  1  0  0  0  0
 10 21  2  0  0  0  0
 11  8  1  0  0  0  0
 12 27  1  0  0  0  0
 13  2  1  0  0  0  0
 13 18  1  0  0  0  0
 14 23  1  0  0  0  0
 15 23  1  0  0  0  0
 16  2  2  0  0  0  0
 17 20  1  0  0  0  0
 17  3  1  0  0  0  0
 18 25  2  0  0  0  0
 19  1  1  0  0  0  0
 19 26  1  0  0  0  0
 20 22  1  0  0  0  0
 22 10  1  0  0  0  0
 22  9  1  0  0  0  0
 25 26  1  0  0  0  0
 26 17  1  0  0  0  0
 27 24  1  0  0  0  0
 27  7  1  0  0  0  0
 28 11  1  0  0  0  0
 29 28  1  0  0  0  0
 30 29  1  0  0  0  0
 30 28  1  0  0  0  0
M  END
>  <MODEL>
5

>  <REMARK>
 VINA RESULT:      -8.3      2.310      5.530
  Name = 
  1 active torsions:
  status: ('A' for Active; 'I' for Inactive)
    1  A    between atoms: N_11  and  C_28
                            x       y       z     vdW  Elec       q    Type
                         _______ _______ _______ _____ _____    ______ ____

>  <TORSDO>
F 1

$$$$
=
 OpenBabel11122410253D

 30 36  0  0  1  0  0  0  0  0999 V2000
  186.7140  178.0790  141.5600 C   0  0  1  0  0  3  0  0  0  0  0  0
  188.1820  177.6830  143.6520 C   0  0  0  0  0  0  0  0  0  0  0  0
  183.2700  178.7770  144.1390 C   0  0  0  0  0  2  0  0  0  0  0  0
  185.3530  178.6280  141.0460 C   0  0  1  0  0  3  0  0  0  0  0  0
  187.7990  178.7620  140.7390 C   0  0  0  0  0  2  0  0  0  0  0  0
  186.2470  178.0720  137.4930 O   0  0  0  0  0  0  0  0  0  0  0  0
  182.6520  177.9570  139.3020 C   0  0  1  0  0  3  0  0  0  0  0  0
  186.3600  178.2470  138.7380 C   0  0  0  0  0  0  0  0  0  0  0  0
  181.9950  178.2950  140.6400 C   0  0  2  0  0  3  0  0  0  0  0  0
  182.3300  179.0030  143.0190 C   0  0  0  0  0  0  0  0  0  0  0  0
  187.6650  178.4300  139.3200 N   0  0  0  0  0  0  0  0  0  0  0  0
  185.1330  178.1250  139.6120 C   0  0  2  0  0  3  0  0  0  0  0  0
  188.1430  177.1510  145.0630 C   0  0  0  0  0  2  0  0  0  0  0  0
  180.9330  179.3220  140.3060 C   0  0  0  0  0  2  0  0  0  0  0  0
  181.5830  178.2010  138.2480 C   0  0  0  0  0  2  0  0  0  0  0  0
  189.2160  177.5950  143.0080 O   0  0  0  0  0  0  0  0  0  0  0  0
  184.5670  178.7560  143.3680 C   0  0  2  0  0  3  0  0  0  0  0  0
  187.0890  177.8780  145.8620 C   0  0  0  0  0  3  0  0  0  0  0  0
  186.9510  178.3500  143.0670 C   0  0  2  0  0  3  0  0  0  0  0  0
  184.2190  178.2050  141.9960 C   0  0  1  0  0  3  0  0  0  0  0  0
  181.1280  179.3320  143.1990 O   0  0  0  0  0  0  0  0  0  0  0  0
  182.8850  178.7460  141.7220 N   0  0  0  0  0  0  0  0  0  0  0  0
  180.4420  178.9420  138.9270 C   0  0  0  0  0  2  0  0  0  0  0  0
  183.8050  180.2580  139.0930 C   0  0  0  0  0  1  0  0  0  0  0  0
  185.9830  178.2520  145.3110 N   0  0  0  0  0  0  0  0  0  0  0  0
  185.7270  177.9630  143.9150 C   0  0  1  0  0  3  0  0  0  0  0  0
  183.9120  178.7400  138.9410 C   0  0  2  0  0  3  0  0  0  0  0  0
  188.8680  178.0710  138.5680 C   0  0  0  0  0  3  0  0  0  0  0  0
  189.1680  176.5860  138.7140 C   0  0  0  0  0  2  0  0  0  0  0  0
  189.9550  177.5940  139.5170 C   0  0  0  0  0  2  0  0  0  0  0  0
  1  5  1  6  0  0  0
  1 19  1  0  0  0  0
  2 13  1  0  0  0  0
  4  1  1  0  0  0  0
  4 20  1  0  0  0  0
  6  8  2  0  0  0  0
  7  9  1  0  0  0  0
  8 11  1  0  0  0  0
  8 12  1  0  0  0  0
  9 22  1  0  0  0  0
 10 21  2  0  0  0  0
 10  3  1  0  0  0  0
 11  5  1  0  0  0  0
 12  4  1  0  0  0  0
 13 18  1  0  0  0  0
 14  9  1  0  0  0  0
 15 23  1  0  0  0  0
 15  7  1  0  0  0  0
 16  2  2  0  0  0  0
 17 26  1  0  0  0  0
 17  3  1  0  0  0  0
 19  2  1  0  0  0  0
 19 26  1  0  0  0  0
 20 17  1  0  0  0  0
 22 20  1  0  0  0  0
 22 10  1  0  0  0  0
 23 14  1  0  0  0  0
 25 18  2  0  0  0  0
 26 25  1  0  0  0  0
 27 24  1  0  0  0  0
 27  7  1  0  0  0  0
 27 12  1  0  0  0  0
 28 29  1  0  0  0  0
 28 11  1  0  0  0  0
 28 30  1  0  0  0  0
 29 30  1  0  0  0  0
M  END
>  <MODEL>
6

>  <REMARK>
 VINA RESULT:      -8.2      2.625      3.975
  Name = 
  1 active torsions:
  status: ('A' for Active; 'I' for Inactive)
    1  A    between atoms: N_11  and  C_28
                            x       y       z     vdW  Elec       q    Type
                         _______ _______ _______ _____ _____    ______ ____

>  <TORSDO>
F 1

$$$$
=
 OpenBabel11122410253D

 30 36  0  0  1  0  0  0  0  0999 V2000
  188.0890  177.7600  142.5250 C   0  0  1  0  0  3  0  0  0  0  0  0
  187.0290  178.0060  144.8710 C   0  0  0  0  0  0  0  0  0  0  0  0
  184.3220  179.0030  140.7200 C   0  0  0  0  0  2  0  0  0  0  0  0
  187.9300  178.0960  141.0150 C   0  0  1  0  0  3  0  0  0  0  0  0
  189.4770  178.2340  142.9340 C   0  0  0  0  0  2  0  0  0  0  0  0
  191.2180  176.6270  140.1400 O   0  0  0  0  0  0  0  0  0  0  0  0
  187.8360  176.8720  137.9690 C   0  0  1  0  0  3  0  0  0  0  0  0
  190.2820  177.1390  140.8150 C   0  0  0  0  0  0  0  0  0  0  0  0
  186.4600  177.5370  138.0020 C   0  0  2  0  0  3  0  0  0  0  0  0
  184.8130  178.8780  139.3290 C   0  0  0  0  0  0  0  0  0  0  0  0
  190.5130  177.5240  142.1840 N   0  0  0  0  0  0  0  0  0  0  0  0
  188.8970  177.2130  140.2130 C   0  0  2  0  0  3  0  0  0  0  0  0
  185.7250  177.8780  145.6190 C   0  0  0  0  0  2  0  0  0  0  0  0
  186.4080  178.3920  136.7540 C   0  0  0  0  0  2  0  0  0  0  0  0
  188.2090  176.7780  136.4980 C   0  0  0  0  0  2  0  0  0  0  0  0
  188.0780  177.7860  145.4560 O   0  0  0  0  0  0  0  0  0  0  0  0
  185.6260  178.8220  141.4550 C   0  0  2  0  0  3  0  0  0  0  0  0
  184.6740  178.7540  144.9830 C   0  0  0  0  0  3  0  0  0  0  0  0
  187.0210  178.4410  143.4170 C   0  0  2  0  0  3  0  0  0  0  0  0
  186.4660  177.9050  140.5820 C   0  0  1  0  0  3  0  0  0  0  0  0
  184.1130  179.1980  138.3320 O   0  0  0  0  0  0  0  0  0  0  0  0
  186.1190  178.2990  139.2140 N   0  0  0  0  0  0  0  0  0  0  0  0
  187.2160  177.6320  135.7250 C   0  0  0  0  0  2  0  0  0  0  0  0
  189.0980  179.0710  138.4560 C   0  0  0  0  0  1  0  0  0  0  0  0
  184.6400  178.9220  143.7020 N   0  0  0  0  0  0  0  0  0  0  0  0
  185.6030  178.2530  142.8520 C   0  0  1  0  0  3  0  0  0  0  0  0
  188.9540  177.5750  138.7340 C   0  0  2  0  0  3  0  0  0  0  0  0
  191.6810  177.0190  142.9070 C   0  0  0  0  0  3  0  0  0  0  0  0
  191.3580  175.7000  143.5940 C   0  0  0  0  0  2  0  0  0  0  0  0
  191.3930  176.9760  144.3990 C   0  0  0  0  0  2  0  0  0  0  0  0
  1  5  1  1  0  0  0
  1 19  1  0  0  0  0
  2 16  2  0  0  0  0
  2 13  1  0  0  0  0
  3 17  1  0  0  0  0
  4  1  1  0  0  0  0
  6  8  2  0  0  0  0
  7  9  1  0  0  0  0
  7 27  1  0  0  0  0
  8 11  1  0  0  0  0
  9 22  1  0  0  0  0
 10  3  1  0  0  0  0
 11 28  1  0  0  0  0
 11  5  1  0  0  0  0
 12  8  1  0  0  0  0
 12  4  1  0  0  0  0
 14  9  1  0  0  0  0
 15  7  1  0  0  0  0
 17 26  1  0  0  0  0
 18 13  1  0  0  0  0
 19  2  1  0  0  0  0
 20  4  1  0  0  0  0
 20 17  1  0  0  0  0
 21 10  2  0  0  0  0
 22 10  1  0  0  0  0
 22 20  1  0  0  0  0
 23 15  1  0  0  0  0
 23 14  1  0  0  0  0
 24 27  1  0  0  0  0
 25 18  2  0  0  0  0
 26 19  1  0  0  0  0
 26 25  1  0  0  0  0
 27 12  1  0  0  0  0
 28 29  1  0  0  0  0
 28 30  1  0  0  0  0
 29 30  1  0  0  0  0
M  END
>  <MODEL>
7

>  <REMARK>
 VINA RESULT:      -8.2      2.513      5.573
  Name = 
  1 active torsions:
  status: ('A' for Active; 'I' for Inactive)
    1  A    between atoms: N_11  and  C_28
                            x       y       z     vdW  Elec       q    Type
                         _______ _______ _______ _____ _____    ______ ____

>  <TORSDO>
F 1

$$$$
=
 OpenBabel11122410253D

 30 36  0  0  1  0  0  0  0  0999 V2000
  187.0590  178.2670  143.0950 C   0  0  1  0  0  3  0  0  0  0  0  0
  189.5300  177.9860  143.8030 C   0  0  0  0  0  0  0  0  0  0  0  0
  188.2220  177.7700  138.9250 C   0  0  0  0  0  2  0  0  0  0  0  0
  186.0390  178.0900  141.9340 C   0  0  1  0  0  3  0  0  0  0  0  0
  186.4710  177.5550  144.3060 C   0  0  0  0  0  2  0  0  0  0  0  0
  183.1650  179.1120  144.0390 O   0  0  0  0  0  0  0  0  0  0  0  0
  183.7640  179.5690  140.0840 C   0  0  1  0  0  3  0  0  0  0  0  0
  184.3070  178.6920  143.7020 C   0  0  0  0  0  0  0  0  0  0  0  0
  184.7190  179.1210  138.9770 C   0  0  2  0  0  3  0  0  0  0  0  0
  186.8480  177.9370  138.4000 C   0  0  0  0  0  0  0  0  0  0  0  0
  185.2000  178.1610  144.7010 N   0  0  0  0  0  0  0  0  0  0  0  0
  184.7680  178.8800  142.2740 C   0  0  2  0  0  3  0  0  0  0  0  0
  190.9460  178.2470  143.3510 C   0  0  0  0  0  2  0  0  0  0  0  0
  183.8450  178.3920  137.9780 C   0  0  0  0  0  2  0  0  0  0  0  0
  182.4090  179.7300  139.4140 C   0  0  0  0  0  2  0  0  0  0  0  0
  189.2720  177.9930  144.9960 O   0  0  0  0  0  0  0  0  0  0  0  0
  187.9120  177.6870  140.3980 C   0  0  2  0  0  3  0  0  0  0  0  0
  191.1900  177.5980  142.0110 C   0  0  0  0  0  3  0  0  0  0  0  0
  188.4570  177.6830  142.7730 C   0  0  2  0  0  3  0  0  0  0  0  0
  186.6690  178.5370  140.6040 C   0  0  1  0  0  3  0  0  0  0  0  0
  186.5710  177.8130  137.1780 O   0  0  0  0  0  0  0  0  0  0  0  0
  185.8820  178.3180  139.3880 N   0  0  0  0  0  0  0  0  0  0  0  0
  182.5110  179.1060  138.0320 C   0  0  0  0  0  2  0  0  0  0  0  0
  183.3810  177.1700  140.9590 C   0  0  0  0  0  1  0  0  0  0  0  0
  190.2550  177.5470  141.1210 N   0  0  0  0  0  0  0  0  0  0  0  0
  188.9580  178.1320  141.3890 C   0  0  1  0  0  3  0  0  0  0  0  0
  183.6310  178.6420  141.2890 C   0  0  2  0  0  3  0  0  0  0  0  0
  184.9570  178.4190  146.1210 C   0  0  0  0  0  3  0  0  0  0  0  0
  185.8540  179.5410  146.6230 C   0  0  0  0  0  2  0  0  0  0  0  0
  186.2060  178.1050  146.9290 C   0  0  0  0  0  2  0  0  0  0  0  0
  1  5  1  1  0  0  0
  2 16  2  0  0  0  0
  3 17  1  0  0  0  0
  4 12  1  0  0  0  0
  4  1  1  0  0  0  0
  5 11  1  0  0  0  0
  7 27  1  0  0  0  0
  8  6  2  0  0  0  0
  8 11  1  0  0  0  0
  9 22  1  0  0  0  0
  9  7  1  0  0  0  0
 10  3  1  0  0  0  0
 10 22  1  0  0  0  0
 11 28  1  0  0  0  0
 12  8  1  0  0  0  0
 13  2  1  0  0  0  0
 14 23  1  0  0  0  0
 14  9  1  0  0  0  0
 15  7  1  0  0  0  0
 17 20  1  0  0  0  0
 17 26  1  0  0  0  0
 18 13  1  0  0  0  0
 19  1  1  0  0  0  0
 19  2  1  0  0  0  0
 20  4  1  0  0  0  0
 21 10  2  0  0  0  0
 22 20  1  0  0  0  0
 23 15  1  0  0  0  0
 24 27  1  0  0  0  0
 25 26  1  0  0  0  0
 25 18  2  0  0  0  0
 26 19  1  0  0  0  0
 27 12  1  0  0  0  0
 28 29  1  0  0  0  0
 28 30  1  0  0  0  0
 29 30  1  0  0  0  0
M  END
>  <MODEL>
8

>  <REMARK>
 VINA RESULT:      -8.1      2.292      5.630
  Name = 
  1 active torsions:
  status: ('A' for Active; 'I' for Inactive)
    1  A    between atoms: N_11  and  C_28
                            x       y       z     vdW  Elec       q    Type
                         _______ _______ _______ _____ _____    ______ ____

>  <TORSDO>
F 1

$$$$
=
 OpenBabel11122410253D

 30 36  0  0  1  0  0  0  0  0999 V2000
  188.0010  177.9640  142.8100 C   0  0  1  0  0  3  0  0  0  0  0  0
  188.9270  177.6240  145.2000 C   0  0  0  0  0  0  0  0  0  0  0  0
  191.8090  176.6230  141.1700 C   0  0  0  0  0  2  0  0  0  0  0  0
  188.2260  177.6580  141.3030 C   0  0  1  0  0  3  0  0  0  0  0  0
  186.5770  177.5340  143.1360 C   0  0  0  0  0  2  0  0  0  0  0  0
  185.0440  179.2710  140.2970 O   0  0  0  0  0  0  0  0  0  0  0  0
  188.5240  178.9480  138.2970 C   0  0  1  0  0  3  0  0  0  0  0  0
  185.9240  178.7080  141.0060 C   0  0  0  0  0  0  0  0  0  0  0  0
  189.8700  178.2320  138.3840 C   0  0  2  0  0  3  0  0  0  0  0  0
  191.3960  176.7980  139.7590 C   0  0  0  0  0  0  0  0  0  0  0  0
  185.6090  178.3000  142.3510 N   0  0  0  0  0  0  0  0  0  0  0  0
  187.3350  178.5950  140.4740 C   0  0  2  0  0  3  0  0  0  0  0  0
  190.1940  177.6860  146.0180 C   0  0  0  0  0  2  0  0  0  0  0  0
  189.9560  177.4040  137.1190 C   0  0  0  0  0  2  0  0  0  0  0  0
  188.2310  179.0900  136.8120 C   0  0  0  0  0  2  0  0  0  0  0  0
  187.8580  177.8700  145.7360 O   0  0  0  0  0  0  0  0  0  0  0  0
  190.4750  176.8350  141.8420 C   0  0  2  0  0  3  0  0  0  0  0  0
  191.2440  176.7850  145.4140 C   0  0  0  0  0  3  0  0  0  0  0  0
  188.9950  177.2230  143.7390 C   0  0  2  0  0  3  0  0  0  0  0  0
  189.7160  177.8030  140.9500 C   0  0  1  0  0  3  0  0  0  0  0  0
  192.1350  176.4750  138.7920 O   0  0  0  0  0  0  0  0  0  0  0  0
  190.1190  177.4290  139.5930 N   0  0  0  0  0  0  0  0  0  0  0  0
  189.2310  178.2170  136.0700 C   0  0  0  0  0  2  0  0  0  0  0  0
  187.1580  176.7880  138.6630 C   0  0  0  0  0  1  0  0  0  0  0  0
  191.3390  176.6460  144.1330 N   0  0  0  0  0  0  0  0  0  0  0  0
  190.4470  177.3700  143.2520 C   0  0  1  0  0  3  0  0  0  0  0  0
  187.3420  178.2710  138.9860 C   0  0  2  0  0  3  0  0  0  0  0  0
  184.4230  178.8320  143.0260 C   0  0  0  0  0  3  0  0  0  0  0  0
  184.7930  180.0210  143.9010 C   0  0  0  0  0  2  0  0  0  0  0  0
  184.5620  178.6680  144.5310 C   0  0  0  0  0  2  0  0  0  0  0  0
  1  5  1  1  0  0  0
  1 19  1  0  0  0  0
  2 16  2  0  0  0  0
  2 13  1  0  0  0  0
  3 17  1  0  0  0  0
  4  1  1  0  0  0  0
  6  8  2  0  0  0  0
  7  9  1  0  0  0  0
  7 27  1  0  0  0  0
  8 11  1  0  0  0  0
  9 22  1  0  0  0  0
 10  3  1  0  0  0  0
 11 28  1  0  0  0  0
 11  5  1  0  0  0  0
 12  8  1  0  0  0  0
 12  4  1  0  0  0  0
 14  9  1  0  0  0  0
 15  7  1  0  0  0  0
 17 26  1  0  0  0  0
 18 13  1  0  0  0  0
 19  2  1  0  0  0  0
 20  4  1  0  0  0  0
 20 17  1  0  0  0  0
 21 10  2  0  0  0  0
 22 10  1  0  0  0  0
 22 20  1  0  0  0  0
 23 15  1  0  0  0  0
 23 14  1  0  0  0  0
 24 27  1  0  0  0  0
 25 18  2  0  0  0  0
 26 19  1  0  0  0  0
 26 25  1  0  0  0  0
 27 12  1  0  0  0  0
 28 29  1  0  0  0  0
 28 30  1  0  0  0  0
 29 30  1  0  0  0  0
M  END
>  <MODEL>
9

>  <REMARK>
 VINA RESULT:      -8.0      2.210      5.946
  Name = 
  1 active torsions:
  status: ('A' for Active; 'I' for Inactive)
    1  A    between atoms: N_11  and  C_28
                            x       y       z     vdW  Elec       q    Type
                         _______ _______ _______ _____ _____    ______ ____

>  <TORSDO>
F 1

$$$$
