=
 OpenBabel11122411003D

 31 36  0  0  1  0  0  0  0  0999 V2000
  179.8740  178.6410  142.7750 C   0  0  0  0  0  0  0  0  0  0  0  0
  182.9780  179.2480  140.6660 C   0  0  2  0  0  3  0  0  0  0  0  0
  184.1700  178.8560  141.5270 C   0  0  0  0  0  0  0  0  0  0  0  0
  185.1520  178.3500  143.6950 C   0  0  0  0  0  0  0  0  0  0  0  0
  181.6800  178.6490  141.1510 C   0  0  0  0  0  0  0  0  0  0  0  0
  179.3310  177.5050  142.1720 C   0  0  0  0  0  3  0  0  0  0  0  0
  184.0410  178.6770  142.9140 C   0  0  0  0  0  3  0  0  0  0  0  0
  183.0980  177.4140  138.9280 C   0  0  2  0  0  3  0  0  0  0  0  0
  179.2110  179.2410  143.9610 C   0  0  0  0  0  1  0  0  0  0  0  0
  185.6170  178.9600  139.5720 O   0  0  0  0  0  0  0  0  0  0  0  0
  184.9690  178.1120  145.4190 Cl  0  0  0  0  0  0  0  0  0  0  0  0
  181.6760  176.9460  139.2590 C   0  0  0  0  0  2  0  0  0  0  0  0
  183.2150  178.9330  139.1740 C   0  0  2  0  0  3  0  0  0  0  0  0
  181.0420  179.2110  142.2650 C   0  0  0  0  0  3  0  0  0  0  0  0
  186.4080  178.2140  143.1000 C   0  0  0  0  0  3  0  0  0  0  0  0
  181.1270  177.5020  140.5410 C   0  0  0  0  0  0  0  0  0  0  0  0
  179.9520  176.9440  141.0520 C   0  0  0  0  0  3  0  0  0  0  0  0
  184.5750  179.5030  138.7640 C   0  0  0  0  0  2  0  0  0  0  0  0
  185.4480  178.7500  140.9420 C   0  0  0  0  0  0  0  0  0  0  0  0
  186.5570  178.4150  141.7260 C   0  0  0  0  0  3  0  0  0  0  0  0
  182.8870  175.6870  137.3580 C   0  0  0  0  0  2  0  0  0  0  0  0
  184.3120  175.9050  137.5440 C   0  0  2  0  0  3  0  0  0  0  0  0
  183.3930  177.0580  137.5410 N   0  0  2  0  0  0  0  0  0  0  0  0
  187.0080  173.5700  136.3920 C   0  0  1  0  0  3  0  0  0  0  0  0
  184.8510  174.4260  135.6700 O   0  0  0  0  0  0  0  0  0  0  0  0
  186.8750  177.4210  137.0790 O   0  0  0  0  0  0  0  0  0  0  0  0
  187.6290  172.4110  137.1420 C   0  0  0  0  0  1  0  0  0  0  0  0
  185.4880  173.5100  136.5380 C   0  0  0  0  0  2  0  0  0  0  0  0
  186.7410  176.2480  136.1180 S   0  0  2  0  0  0  0  0  0  0  0  0
  184.9970  175.7380  136.1800 C   0  0  2  0  0  3  0  0  0  0  0  0
  187.5370  174.8760  136.9660 C   0  0  0  0  0  2  0  0  0  0  0  0
  1  9  1  0  0  0  0
  2  5  1  1  0  0  0
  2  3  1  0  0  0  0
  3  7  1  0  0  0  0
  4 11  1  0  0  0  0
  5 14  2  0  0  0  0
  6  1  2  0  0  0  0
  7  4  2  0  0  0  0
  8 13  1  0  0  0  0
  8 12  1  6  0  0  0
 10 19  1  0  0  0  0
 12 16  1  0  0  0  0
 13 18  1  1  0  0  0
 13  2  1  0  0  0  0
 14  1  1  0  0  0  0
 15  4  1  0  0  0  0
 16 17  2  0  0  0  0
 16  5  1  0  0  0  0
 17  6  1  0  0  0  0
 18 10  1  0  0  0  0
 19  3  2  0  0  0  0
 19 20  1  0  0  0  0
 20 15  2  0  0  0  0
 22 21  1  6  0  0  0
 23 21  1  6  0  0  0
 23 22  1  0  0  0  0
 23  8  1  0  0  0  0
 24 28  1  0  0  0  0
 24 31  1  0  0  0  0
 24 27  1  1  0  0  0
 25 28  1  0  0  0  0
 29 30  1  0  0  0  0
 29 31  1  0  0  0  0
 29 26  2  1  0  0  0
 30 25  1  1  0  0  0
 30 22  1  0  0  0  0
M  END
>  <MODEL>
1

>  <REMARK>
 VINA RESULT:      -6.9      0.000      0.000
  Name = 
  2 active torsions:
  status: ('A' for Active; 'I' for Inactive)
    1  A    between atoms: C_5  and  C_30
    2  A    between atoms: C_10  and  N_16
                            x       y       z     vdW  Elec       q    Type
                         _______ _______ _______ _____ _____    ______ ____

>  <TORSDO>
F 2

$$$$
=
 OpenBabel11122411003D

 31 36  0  0  1  0  0  0  0  0999 V2000
  192.9950  173.4530  135.6750 C   0  0  0  0  0  0  0  0  0  0  0  0
  190.0500  175.7630  136.3450 C   0  0  2  0  0  3  0  0  0  0  0  0
  188.8400  174.8680  136.5710 C   0  0  0  0  0  0  0  0  0  0  0  0
  187.7300  172.7110  136.3970 C   0  0  0  0  0  0  0  0  0  0  0  0
  191.3610  175.0370  136.5260 C   0  0  0  0  0  0  0  0  0  0  0  0
  193.7270  173.5670  136.8570 C   0  0  0  0  0  3  0  0  0  0  0  0
  188.8600  173.5100  136.2130 C   0  0  0  0  0  3  0  0  0  0  0  0
  190.3210  176.6960  138.6800 C   0  0  2  0  0  3  0  0  0  0  0  0
  193.4630  172.5500  134.5940 C   0  0  0  0  0  1  0  0  0  0  0  0
  187.5810  176.7800  137.4000 O   0  0  0  0  0  0  0  0  0  0  0  0
  187.7780  171.0160  135.9620 Cl  0  0  0  0  0  0  0  0  0  0  0  0
  191.7530  176.1570  138.7790 C   0  0  0  0  0  2  0  0  0  0  0  0
  189.9950  177.0390  137.2110 C   0  0  2  0  0  3  0  0  0  0  0  0
  191.8170  174.1860  135.5100 C   0  0  0  0  0  3  0  0  0  0  0  0
  186.5610  173.2640  136.9250 C   0  0  0  0  0  3  0  0  0  0  0  0
  192.1060  175.1520  137.7210 C   0  0  0  0  0  0  0  0  0  0  0  0
  193.2880  174.4220  137.8720 C   0  0  0  0  0  3  0  0  0  0  0  0
  188.6200  177.6880  137.0390 C   0  0  0  0  0  2  0  0  0  0  0  0
  187.6460  175.4240  137.0710 C   0  0  0  0  0  0  0  0  0  0  0  0
  186.5180  174.6190  137.2610 C   0  0  0  0  0  3  0  0  0  0  0  0
  190.8650  177.4910  140.8170 C   0  0  0  0  0  2  0  0  0  0  0  0
  189.4140  177.4760  140.7390 C   0  0  2  0  0  3  0  0  0  0  0  0
  190.2040  177.8620  139.5550 N   0  0  2  0  0  0  0  0  0  0  0  0
  187.3340  177.8050  143.8390 C   0  0  1  0  0  3  0  0  0  0  0  0
  189.3310  178.7500  142.8260 O   0  0  0  0  0  0  0  0  0  0  0  0
  186.6490  178.4510  140.0390 O   0  0  0  0  0  0  0  0  0  0  0  0
  186.8940  176.7160  144.7940 C   0  0  0  0  0  1  0  0  0  0  0  0
  188.8180  177.6320  143.5220 C   0  0  0  0  0  2  0  0  0  0  0  0
  187.0890  178.9600  141.4040 S   0  0  2  0  0  0  0  0  0  0  0  0
  188.8890  178.7120  141.4830 C   0  0  2  0  0  3  0  0  0  0  0  0
  186.5120  177.7100  142.5610 C   0  0  0  0  0  2  0  0  0  0  0  0
  1  6  1  0  0  0  0
  2  5  1  1  0  0  0
  2  3  1  0  0  0  0
  2 13  1  0  0  0  0
  3 19  1  0  0  0  0
  4 15  2  0  0  0  0
  5 16  2  0  0  0  0
  6 17  2  0  0  0  0
  7  4  1  0  0  0  0
  7  3  2  0  0  0  0
  8 12  1  6  0  0  0
  8 23  1  0  0  0  0
  9  1  1  0  0  0  0
 11  4  1  0  0  0  0
 13 18  1  1  0  0  0
 13  8  1  0  0  0  0
 14  1  2  0  0  0  0
 14  5  1  0  0  0  0
 15 20  1  0  0  0  0
 16 17  1  0  0  0  0
 16 12  1  0  0  0  0
 18 10  1  0  0  0  0
 19 20  2  0  0  0  0
 19 10  1  0  0  0  0
 22 21  1  1  0  0  0
 22 30  1  0  0  0  0
 23 22  1  0  0  0  0
 23 21  1  1  0  0  0
 24 27  1  1  0  0  0
 25 28  1  0  0  0  0
 28 24  1  0  0  0  0
 29 26  2  6  0  0  0
 29 30  1  0  0  0  0
 29 31  1  0  0  0  0
 30 25  1  1  0  0  0
 31 24  1  0  0  0  0
M  END
>  <MODEL>
2

>  <REMARK>
 VINA RESULT:      -6.3      4.810      9.761
  Name = 
  2 active torsions:
  status: ('A' for Active; 'I' for Inactive)
    1  A    between atoms: C_5  and  C_30
    2  A    between atoms: C_10  and  N_16
                            x       y       z     vdW  Elec       q    Type
                         _______ _______ _______ _____ _____    ______ ____

>  <TORSDO>
F 2

$$$$
=
 OpenBabel11122411003D

 31 36  0  0  1  0  0  0  0  0999 V2000
  191.8270  176.5590  138.2460 C   0  0  0  0  0  0  0  0  0  0  0  0
  188.7300  177.2560  136.1540 C   0  0  2  0  0  3  0  0  0  0  0  0
  188.2210  175.9050  135.6710 C   0  0  0  0  0  0  0  0  0  0  0  0
  188.5530  173.5300  135.2630 C   0  0  0  0  0  0  0  0  0  0  0  0
  189.6480  177.1450  137.3480 C   0  0  0  0  0  0  0  0  0  0  0  0
  191.3650  176.8050  139.5400 C   0  0  0  0  0  3  0  0  0  0  0  0
  189.0240  174.7550  135.7410 C   0  0  0  0  0  3  0  0  0  0  0  0
  186.8540  177.8660  137.7370 C   0  0  2  0  0  3  0  0  0  0  0  0
  193.2270  176.1110  138.0290 C   0  0  0  0  0  1  0  0  0  0  0  0
  186.1450  176.9480  134.9440 O   0  0  0  0  0  0  0  0  0  0  0  0
  189.5600  172.1030  135.3760 Cl  0  0  0  0  0  0  0  0  0  0  0  0
  187.8280  177.9870  138.9160 C   0  0  0  0  0  2  0  0  0  0  0  0
  187.5770  178.2440  136.4270 C   0  0  2  0  0  3  0  0  0  0  0  0
  190.9730  176.7300  137.1550 C   0  0  0  0  0  3  0  0  0  0  0  0
  187.2800  173.4440  134.6940 C   0  0  0  0  0  3  0  0  0  0  0  0
  189.1830  177.3960  138.6570 C   0  0  0  0  0  0  0  0  0  0  0  0
  190.0500  177.2310  139.7420 C   0  0  0  0  0  3  0  0  0  0  0  0
  186.6460  178.2560  135.2120 C   0  0  0  0  0  2  0  0  0  0  0  0
  186.9520  175.8150  135.0640 C   0  0  0  0  0  0  0  0  0  0  0  0
  186.4810  174.5850  134.5940 C   0  0  0  0  0  3  0  0  0  0  0  0
  185.4380  178.6280  139.4420 C   0  0  0  0  0  2  0  0  0  0  0  0
  184.6020  177.8910  138.5080 C   0  0  2  0  0  3  0  0  0  0  0  0
  185.7030  178.7290  137.9970 N   0  0  2  0  0  0  0  0  0  0  0  0
  181.1040  176.7510  139.2230 C   0  0  1  0  0  3  0  0  0  0  0  0
  182.5690  178.6460  139.6410 O   0  0  0  0  0  0  0  0  0  0  0  0
  183.0560  177.5990  135.9380 O   0  0  0  0  0  0  0  0  0  0  0  0
  180.6510  175.4480  139.8450 C   0  0  0  0  0  1  0  0  0  0  0  0
  182.2630  177.3240  140.0370 C   0  0  0  0  0  2  0  0  0  0  0  0
  182.1530  178.0330  137.0830 S   0  0  2  0  0  0  0  0  0  0  0  0
  183.2550  178.6200  138.4050 C   0  0  2  0  0  3  0  0  0  0  0  0
  181.5480  176.4930  137.7910 C   0  0  0  0  0  2  0  0  0  0  0  0
  1  6  1  0  0  0  0
  2  3  1  1  0  0  0
  2 13  1  0  0  0  0
  2  5  1  0  0  0  0
  3  7  1  0  0  0  0
  4 11  1  0  0  0  0
  4  7  2  0  0  0  0
  5 16  2  0  0  0  0
  6 17  2  0  0  0  0
  8 23  1  0  0  0  0
  8 12  1  1  0  0  0
  9  1  1  0  0  0  0
 10 19  1  0  0  0  0
 10 18  1  0  0  0  0
 13 18  1  6  0  0  0
 13  8  1  0  0  0  0
 14  5  1  0  0  0  0
 14  1  2  0  0  0  0
 15  4  1  0  0  0  0
 16 12  1  0  0  0  0
 16 17  1  0  0  0  0
 19  3  2  0  0  0  0
 20 15  2  0  0  0  0
 20 19  1  0  0  0  0
 22 21  1  1  0  0  0
 23 22  1  0  0  0  0
 23 21  1  1  0  0  0
 24 27  1  1  0  0  0
 24 28  1  0  0  0  0
 25 28  1  0  0  0  0
 29 26  2  6  0  0  0
 29 31  1  0  0  0  0
 29 30  1  0  0  0  0
 30 22  1  0  0  0  0
 30 25  1  1  0  0  0
 31 24  1  0  0  0  0
M  END
>  <MODEL>
3

>  <REMARK>
 VINA RESULT:      -6.0      3.771      8.175
  Name = 
  2 active torsions:
  status: ('A' for Active; 'I' for Inactive)
    1  A    between atoms: C_5  and  C_30
    2  A    between atoms: C_10  and  N_16
                            x       y       z     vdW  Elec       q    Type
                         _______ _______ _______ _____ _____    ______ ____

>  <TORSDO>
F 2

$$$$
=
 OpenBabel11122411003D

 31 36  0  0  1  0  0  0  0  0999 V2000
  182.1060  171.4880  135.8860 C   0  0  0  0  0  0  0  0  0  0  0  0
  183.4380  175.0490  135.9260 C   0  0  2  0  0  3  0  0  0  0  0  0
  183.0090  175.6570  137.2540 C   0  0  0  0  0  0  0  0  0  0  0  0
  181.6150  175.6420  139.2470 C   0  0  0  0  0  0  0  0  0  0  0  0
  183.4060  173.5400  135.9330 C   0  0  0  0  0  0  0  0  0  0  0  0
  183.2710  170.7400  136.0610 C   0  0  0  0  0  3  0  0  0  0  0  0
  182.0200  175.0530  138.0470 C   0  0  0  0  0  3  0  0  0  0  0  0
  185.9350  174.9310  136.3080 C   0  0  2  0  0  3  0  0  0  0  0  0
  180.7930  170.8030  135.7730 C   0  0  0  0  0  1  0  0  0  0  0  0
  184.5090  177.5380  136.8770 O   0  0  0  0  0  0  0  0  0  0  0  0
  180.3930  174.8660  140.2320 Cl  0  0  0  0  0  0  0  0  0  0  0  0
  185.9440  173.4150  136.0810 C   0  0  0  0  0  2  0  0  0  0  0  0
  184.8130  175.5760  135.4670 C   0  0  2  0  0  3  0  0  0  0  0  0
  182.1730  172.8820  135.8210 C   0  0  0  0  0  3  0  0  0  0  0  0
  182.1820  176.8500  139.6600 C   0  0  0  0  0  3  0  0  0  0  0  0
  184.5840  172.7810  136.1070 C   0  0  0  0  0  0  0  0  0  0  0  0
  184.5070  171.3860  136.1610 C   0  0  0  0  0  3  0  0  0  0  0  0
  184.8050  177.1040  135.5510 C   0  0  0  0  0  2  0  0  0  0  0  0
  183.5510  176.8920  137.6620 C   0  0  0  0  0  0  0  0  0  0  0  0
  183.1480  177.4740  138.8680 C   0  0  0  0  0  3  0  0  0  0  0  0
  188.2310  174.5820  136.6280 C   0  0  0  0  0  2  0  0  0  0  0  0
  187.9250  175.8820  137.2050 C   0  0  2  0  0  3  0  0  0  0  0  0
  187.2540  175.4600  135.9610 N   0  0  2  0  0  0  0  0  0  0  0  0
  190.4230  177.5180  139.4700 C   0  0  1  0  0  3  0  0  0  0  0  0
  190.3320  176.2910  137.3740 O   0  0  0  0  0  0  0  0  0  0  0  0
  187.4160  178.8490  137.3460 O   0  0  0  0  0  0  0  0  0  0  0  0
  190.6210  177.3080  140.9560 C   0  0  0  0  0  1  0  0  0  0  0  0
  190.2850  176.1620  138.7810 C   0  0  0  0  0  2  0  0  0  0  0  0
  188.8990  178.5320  137.4770 S   0  0  2  0  0  0  0  0  0  0  0  0
  189.1050  176.8180  136.9080 C   0  0  2  0  0  3  0  0  0  0  0  0
  189.1670  178.3480  139.2470 C   0  0  0  0  0  2  0  0  0  0  0  0
  1  6  1  0  0  0  0
  2  5  1  1  0  0  0
  2  3  1  0  0  0  0
  3 19  2  0  0  0  0
  3  7  1  0  0  0  0
  4 15  1  0  0  0  0
  4 11  1  0  0  0  0
  5 16  2  0  0  0  0
  6 17  2  0  0  0  0
  7  4  2  0  0  0  0
  8 12  1  6  0  0  0
  9  1  1  0  0  0  0
 10 19  1  0  0  0  0
 12 16  1  0  0  0  0
 13 18  1  1  0  0  0
 13  2  1  0  0  0  0
 13  8  1  0  0  0  0
 14  1  2  0  0  0  0
 14  5  1  0  0  0  0
 16 17  1  0  0  0  0
 18 10  1  0  0  0  0
 19 20  1  0  0  0  0
 20 15  2  0  0  0  0
 22 21  1  6  0  0  0
 23  8  1  0  0  0  0
 23 21  1  1  0  0  0
 23 22  1  0  0  0  0
 24 27  1  1  0  0  0
 25 28  1  0  0  0  0
 28 24  1  0  0  0  0
 29 26  2  1  0  0  0
 29 31  1  0  0  0  0
 30 22  1  0  0  0  0
 30 25  1  1  0  0  0
 30 29  1  0  0  0  0
 31 24  1  0  0  0  0
M  END
>  <MODEL>
4

>  <REMARK>
 VINA RESULT:      -6.0      3.277      6.422
  Name = 
  2 active torsions:
  status: ('A' for Active; 'I' for Inactive)
    1  A    between atoms: C_5  and  C_30
    2  A    between atoms: C_10  and  N_16
                            x       y       z     vdW  Elec       q    Type
                         _______ _______ _______ _____ _____    ______ ____

>  <TORSDO>
F 2

$$$$
=
 OpenBabel11122411003D

 31 36  0  0  1  0  0  0  0  0999 V2000
  181.5010  178.4770  140.2360 C   0  0  0  0  0  0  0  0  0  0  0  0
  185.0420  178.7480  138.8810 C   0  0  2  0  0  3  0  0  0  0  0  0
  185.9760  178.5270  140.0630 C   0  0  0  0  0  0  0  0  0  0  0  0
  186.3850  178.4180  142.4580 C   0  0  0  0  0  0  0  0  0  0  0  0
  183.6480  178.2260  139.1290 C   0  0  0  0  0  0  0  0  0  0  0  0
  181.0870  177.2480  139.7230 C   0  0  0  0  0  3  0  0  0  0  0  0
  185.5080  178.5900  141.3850 C   0  0  0  0  0  3  0  0  0  0  0  0
  185.5260  176.6410  137.5680 C   0  0  2  0  0  3  0  0  0  0  0  0
  180.5880  179.2670  141.1020 C   0  0  0  0  0  1  0  0  0  0  0  0
  187.8590  178.3080  138.5340 O   0  0  0  0  0  0  0  0  0  0  0  0
  185.7790  178.4820  144.1000 Cl  0  0  0  0  0  0  0  0  0  0  0  0
  184.0530  176.2200  137.6150 C   0  0  0  0  0  2  0  0  0  0  0  0
  185.6260  178.1810  137.5700 C   0  0  2  0  0  3  0  0  0  0  0  0
  182.7750  178.9650  139.9390 C   0  0  0  0  0  3  0  0  0  0  0  0
  187.7430  178.1970  142.2230 C   0  0  0  0  0  3  0  0  0  0  0  0
  183.2260  176.9830  138.6080 C   0  0  0  0  0  0  0  0  0  0  0  0
  181.9440  176.5080  138.9030 C   0  0  0  0  0  3  0  0  0  0  0  0
  187.0620  178.6880  137.4140 C   0  0  0  0  0  2  0  0  0  0  0  0
  187.3550  178.3370  139.8360 C   0  0  0  0  0  0  0  0  0  0  0  0
  188.2280  178.1570  140.9140 C   0  0  0  0  0  3  0  0  0  0  0  0
  186.1840  174.6010  136.6190 C   0  0  0  0  0  2  0  0  0  0  0  0
  187.3940  175.3910  136.7810 C   0  0  2  0  0  3  0  0  0  0  0  0
  186.1390  176.0530  136.3780 N   0  0  2  0  0  0  0  0  0  0  0  0
  191.0820  174.7810  136.5220 C   0  0  1  0  0  3  0  0  0  0  0  0
  188.9830  173.8940  135.6770 O   0  0  0  0  0  0  0  0  0  0  0  0
  188.7550  177.7630  135.5140 O   0  0  0  0  0  0  0  0  0  0  0  0
  192.0830  174.5890  137.6410 C   0  0  0  0  0  1  0  0  0  0  0  0
  189.8430  173.9320  136.7990 C   0  0  0  0  0  2  0  0  0  0  0  0
  189.4590  176.4620  135.1570 S   0  0  2  0  0  0  0  0  0  0  0  0
  188.2960  175.1250  135.5680 C   0  0  2  0  0  3  0  0  0  0  0  0
  190.7010  176.2520  136.4410 C   0  0  0  0  0  2  0  0  0  0  0  0
  1  9  1  0  0  0  0
  2  5  1  1  0  0  0
  2  3  1  0  0  0  0
  3  7  1  0  0  0  0
  4 11  1  0  0  0  0
  5 14  2  0  0  0  0
  6  1  2  0  0  0  0
  7  4  2  0  0  0  0
  8 13  1  0  0  0  0
  8 12  1  6  0  0  0
 10 19  1  0  0  0  0
 12 16  1  0  0  0  0
 13 18  1  1  0  0  0
 13  2  1  0  0  0  0
 14  1  1  0  0  0  0
 15  4  1  0  0  0  0
 16 17  2  0  0  0  0
 16  5  1  0  0  0  0
 17  6  1  0  0  0  0
 18 10  1  0  0  0  0
 19  3  2  0  0  0  0
 19 20  1  0  0  0  0
 20 15  2  0  0  0  0
 22 21  1  6  0  0  0
 23 21  1  1  0  0  0
 23 22  1  0  0  0  0
 23  8  1  0  0  0  0
 24 28  1  0  0  0  0
 24 27  1  1  0  0  0
 25 28  1  0  0  0  0
 29 26  2  1  0  0  0
 29 30  1  0  0  0  0
 29 31  1  0  0  0  0
 30 25  1  1  0  0  0
 30 22  1  0  0  0  0
 31 24  1  0  0  0  0
M  END
>  <MODEL>
5

>  <REMARK>
 VINA RESULT:      -5.9      2.105      3.051
  Name = 
  2 active torsions:
  status: ('A' for Active; 'I' for Inactive)
    1  A    between atoms: C_5  and  C_30
    2  A    between atoms: C_10  and  N_16
                            x       y       z     vdW  Elec       q    Type
                         _______ _______ _______ _____ _____    ______ ____

>  <TORSDO>
F 2

$$$$
=
 OpenBabel11122411003D

 31 36  0  0  1  0  0  0  0  0999 V2000
  183.8970  178.8800  143.5370 C   0  0  0  0  0  0  0  0  0  0  0  0
  182.5110  177.5860  140.2420 C   0  0  2  0  0  3  0  0  0  0  0  0
  181.3880  178.5320  139.8440 C   0  0  0  0  0  0  0  0  0  0  0  0
  179.7790  180.2720  140.3920 C   0  0  0  0  0  0  0  0  0  0  0  0
  183.4590  178.1900  141.2500 C   0  0  0  0  0  0  0  0  0  0  0  0
  185.1260  179.4120  143.1460 C   0  0  0  0  0  3  0  0  0  0  0  0
  180.8320  179.4340  140.7650 C   0  0  0  0  0  3  0  0  0  0  0  0
  184.1870  178.1440  138.4310 C   0  0  2  0  0  3  0  0  0  0  0  0
  183.4680  178.9640  144.9570 C   0  0  0  0  0  1  0  0  0  0  0  0
  181.3360  177.5360  137.6220 O   0  0  0  0  0  0  0  0  0  0  0  0
  179.1110  181.4040  141.5490 Cl  0  0  0  0  0  0  0  0  0  0  0  0
  185.2450  178.5390  139.4690 C   0  0  0  0  0  2  0  0  0  0  0  0
  183.2730  177.0450  139.0140 C   0  0  2  0  0  3  0  0  0  0  0  0
  183.0680  178.2700  142.5930 C   0  0  0  0  0  3  0  0  0  0  0  0
  179.2580  180.2070  139.0980 C   0  0  0  0  0  3  0  0  0  0  0  0
  184.7040  178.7280  140.8570 C   0  0  0  0  0  0  0  0  0  0  0  0
  185.5320  179.3270  141.8110 C   0  0  0  0  0  3  0  0  0  0  0  0
  182.2560  176.5140  138.0020 C   0  0  0  0  0  2  0  0  0  0  0  0
  180.8320  178.4490  138.5510 C   0  0  0  0  0  0  0  0  0  0  0  0
  179.7830  179.2960  138.1790 C   0  0  0  0  0  3  0  0  0  0  0  0
  185.0830  176.2520  137.3760 C   0  0  0  0  0  2  0  0  0  0  0  0
  186.1920  177.1660  137.5990 C   0  0  2  0  0  3  0  0  0  0  0  0
  184.8720  177.7010  137.2170 N   0  0  2  0  0  0  0  0  0  0  0  0
  189.8600  176.4410  137.3410 C   0  0  1  0  0  3  0  0  0  0  0  0
  187.7590  175.8160  136.2910 O   0  0  0  0  0  0  0  0  0  0  0  0
  187.6930  179.6590  136.8140 O   0  0  0  0  0  0  0  0  0  0  0  0
  190.8100  176.0080  138.4360 C   0  0  0  0  0  1  0  0  0  0  0  0
  188.5780  175.6150  137.4260 C   0  0  0  0  0  2  0  0  0  0  0  0
  188.3570  178.4100  136.2510 S   0  0  2  0  0  0  0  0  0  0  0  0
  187.1270  177.0780  136.3840 C   0  0  2  0  0  3  0  0  0  0  0  0
  189.5410  177.9190  137.5130 C   0  0  0  0  0  2  0  0  0  0  0  0
  1  9  1  0  0  0  0
  2  3  1  6  0  0  0
  2  5  1  0  0  0  0
  3  7  1  0  0  0  0
  4  7  2  0  0  0  0
  4 11  1  0  0  0  0
  5 14  1  0  0  0  0
  6  1  1  0  0  0  0
  8 13  1  0  0  0  0
  8 12  1  1  0  0  0
 10 18  1  0  0  0  0
 10 19  1  0  0  0  0
 12 16  1  0  0  0  0
 13 18  1  6  0  0  0
 13  2  1  0  0  0  0
 14  1  2  0  0  0  0
 15  4  1  0  0  0  0
 16  5  2  0  0  0  0
 16 17  1  0  0  0  0
 17  6  2  0  0  0  0
 19  3  2  0  0  0  0
 20 19  1  0  0  0  0
 20 15  2  0  0  0  0
 22 21  1  6  0  0  0
 23 21  1  1  0  0  0
 23 22  1  0  0  0  0
 23  8  1  0  0  0  0
 24 28  1  0  0  0  0
 24 31  1  0  0  0  0
 24 27  1  1  0  0  0
 25 28  1  0  0  0  0
 29 30  1  0  0  0  0
 29 26  2  1  0  0  0
 29 31  1  0  0  0  0
 30 25  1  1  0  0  0
 30 22  1  0  0  0  0
M  END
>  <MODEL>
6

>  <REMARK>
 VINA RESULT:      -5.5      2.580      4.393
  Name = 
  2 active torsions:
  status: ('A' for Active; 'I' for Inactive)
    1  A    between atoms: C_5  and  C_30
    2  A    between atoms: C_10  and  N_16
                            x       y       z     vdW  Elec       q    Type
                         _______ _______ _______ _____ _____    ______ ____

>  <TORSDO>
F 2

$$$$
=
 OpenBabel11122411003D

 31 36  0  0  1  0  0  0  0  0999 V2000
  184.4180  179.2040  142.6390 C   0  0  0  0  0  0  0  0  0  0  0  0
  187.3110  178.8630  140.1970 C   0  0  2  0  0  3  0  0  0  0  0  0
  188.3280  177.9410  140.8550 C   0  0  0  0  0  0  0  0  0  0  0  0
  189.2240  176.8250  142.8220 C   0  0  0  0  0  0  0  0  0  0  0  0
  185.9310  178.7400  140.7970 C   0  0  0  0  0  0  0  0  0  0  0  0
  183.4240  178.4460  142.0190 C   0  0  0  0  0  3  0  0  0  0  0  0
  188.2640  177.6460  142.2260 C   0  0  0  0  0  3  0  0  0  0  0  0
  186.5500  177.3610  138.3080 C   0  0  2  0  0  3  0  0  0  0  0  0
  184.1520  179.8510  143.9500 C   0  0  0  0  0  1  0  0  0  0  0  0
  189.5190  177.7440  138.7410 O   0  0  0  0  0  0  0  0  0  0  0  0
  189.1180  176.4520  144.5290 Cl  0  0  0  0  0  0  0  0  0  0  0  0
  185.0930  177.4260  138.7840 C   0  0  0  0  0  2  0  0  0  0  0  0
  187.2720  178.6780  138.6650 C   0  0  2  0  0  3  0  0  0  0  0  0
  185.6660  179.3510  142.0300 C   0  0  0  0  0  3  0  0  0  0  0  0
  190.2690  176.3030  142.0560 C   0  0  0  0  0  3  0  0  0  0  0  0
  184.9230  177.9760  140.1700 C   0  0  0  0  0  0  0  0  0  0  0  0
  183.6730  177.8430  140.7830 C   0  0  0  0  0  3  0  0  0  0  0  0
  188.7030  178.7400  138.1280 C   0  0  0  0  0  2  0  0  0  0  0  0
  189.4050  177.4380  140.0990 C   0  0  0  0  0  0  0  0  0  0  0  0
  190.3600  176.6100  140.6970 C   0  0  0  0  0  3  0  0  0  0  0  0
  185.3720  176.2720  136.6000 C   0  0  0  0  0  2  0  0  0  0  0  0
  186.6850  175.6500  136.6590 C   0  0  2  0  0  3  0  0  0  0  0  0
  186.5570  177.1040  136.8690 N   0  0  2  0  0  0  0  0  0  0  0  0
  187.8130  172.4550  135.0570 C   0  0  1  0  0  3  0  0  0  0  0  0
  186.3210  174.3260  134.6330 O   0  0  0  0  0  0  0  0  0  0  0  0
  189.6310  175.7800  136.0390 O   0  0  0  0  0  0  0  0  0  0  0  0
  187.8240  171.0620  135.6490 C   0  0  0  0  0  1  0  0  0  0  0  0
  186.4720  173.1220  135.3580 C   0  0  0  0  0  2  0  0  0  0  0  0
  188.8840  174.9400  135.0140 S   0  0  2  0  0  0  0  0  0  0  0  0
  187.1210  175.3340  135.2210 C   0  0  2  0  0  3  0  0  0  0  0  0
  188.9480  173.2650  135.6670 C   0  0  0  0  0  2  0  0  0  0  0  0
  1  9  1  0  0  0  0
  2  5  1  1  0  0  0
  2  3  1  0  0  0  0
  3  7  1  0  0  0  0
  4 11  1  0  0  0  0
  5 14  2  0  0  0  0
  6  1  2  0  0  0  0
  7  4  2  0  0  0  0
  8 13  1  0  0  0  0
  8 12  1  6  0  0  0
 10 19  1  0  0  0  0
 12 16  1  0  0  0  0
 13 18  1  1  0  0  0
 13  2  1  0  0  0  0
 14  1  1  0  0  0  0
 15  4  1  0  0  0  0
 16 17  2  0  0  0  0
 16  5  1  0  0  0  0
 17  6  1  0  0  0  0
 18 10  1  0  0  0  0
 19 20  1  0  0  0  0
 19  3  2  0  0  0  0
 20 15  2  0  0  0  0
 22 21  1  6  0  0  0
 22 23  1  0  0  0  0
 23 21  1  1  0  0  0
 23  8  1  0  0  0  0
 24 28  1  0  0  0  0
 24 27  1  1  0  0  0
 24 31  1  0  0  0  0
 25 28  1  0  0  0  0
 29 30  1  0  0  0  0
 29 31  1  0  0  0  0
 29 26  2  1  0  0  0
 30 25  1  1  0  0  0
 30 22  1  0  0  0  0
M  END
>  <MODEL>
7

>  <REMARK>
 VINA RESULT:      -5.4      2.563      3.731
  Name = 
  2 active torsions:
  status: ('A' for Active; 'I' for Inactive)
    1  A    between atoms: C_5  and  C_30
    2  A    between atoms: C_10  and  N_16
                            x       y       z     vdW  Elec       q    Type
                         _______ _______ _______ _____ _____    ______ ____

>  <TORSDO>
F 2

$$$$
=
 OpenBabel11122411003D

 31 36  0  0  1  0  0  0  0  0999 V2000
  189.7090  177.1380  137.8350 C   0  0  0  0  0  0  0  0  0  0  0  0
  186.1440  176.7530  136.5730 C   0  0  2  0  0  3  0  0  0  0  0  0
  185.7520  175.3030  136.8190 C   0  0  0  0  0  0  0  0  0  0  0  0
  186.3430  172.9930  137.3030 C   0  0  0  0  0  0  0  0  0  0  0  0
  187.3180  177.1940  137.4130 C   0  0  0  0  0  0  0  0  0  0  0  0
  189.5260  177.8830  139.0010 C   0  0  0  0  0  3  0  0  0  0  0  0
  186.7170  174.3260  137.1130 C   0  0  0  0  0  3  0  0  0  0  0  0
  184.6130  177.8870  138.2370 C   0  0  2  0  0  3  0  0  0  0  0  0
  191.0730  176.7030  137.4370 C   0  0  0  0  0  1  0  0  0  0  0  0
  183.4280  175.8500  136.3390 O   0  0  0  0  0  0  0  0  0  0  0  0
  187.5570  171.7920  137.6860 Cl  0  0  0  0  0  0  0  0  0  0  0  0
  185.8010  178.5340  138.9580 C   0  0  0  0  0  2  0  0  0  0  0  0
  184.9470  177.7110  136.7400 C   0  0  2  0  0  3  0  0  0  0  0  0
  188.6100  176.7960  137.0440 C   0  0  0  0  0  3  0  0  0  0  0  0
  185.0030  172.6190  137.1850 C   0  0  0  0  0  3  0  0  0  0  0  0
  187.1350  177.9510  138.5910 C   0  0  0  0  0  0  0  0  0  0  0  0
  188.2430  178.2950  139.3720 C   0  0  0  0  0  3  0  0  0  0  0  0
  183.7700  177.1710  135.9240 C   0  0  0  0  0  2  0  0  0  0  0  0
  184.4070  174.9090  136.6690 C   0  0  0  0  0  0  0  0  0  0  0  0
  184.0360  173.5760  136.8680 C   0  0  0  0  0  3  0  0  0  0  0  0
  183.4650  179.1320  139.8570 C   0  0  0  0  0  2  0  0  0  0  0  0
  182.5650  178.0700  139.4360 C   0  0  2  0  0  3  0  0  0  0  0  0
  183.4330  178.7260  138.4410 N   0  0  2  0  0  0  0  0  0  0  0  0
  179.9210  178.3310  142.0790 C   0  0  1  0  0  3  0  0  0  0  0  0
  180.9610  179.6790  140.3460 O   0  0  0  0  0  0  0  0  0  0  0  0
  180.3080  176.1630  138.8430 O   0  0  0  0  0  0  0  0  0  0  0  0
  180.0330  178.0080  143.5540 C   0  0  0  0  0  1  0  0  0  0  0  0
  181.1310  179.1570  141.6480 C   0  0  0  0  0  2  0  0  0  0  0  0
  179.8040  177.4220  139.5330 S   0  0  2  0  0  0  0  0  0  0  0  0
  181.1420  178.6460  139.3960 C   0  0  2  0  0  3  0  0  0  0  0  0
  179.8650  177.0320  141.2880 C   0  0  0  0  0  2  0  0  0  0  0  0
  1  6  1  0  0  0  0
  2 13  1  0  0  0  0
  2  3  1  1  0  0  0
  2  5  1  0  0  0  0
  3  7  1  0  0  0  0
  4 11  1  0  0  0  0
  5 16  2  0  0  0  0
  6 17  2  0  0  0  0
  7  4  2  0  0  0  0
  8 23  1  0  0  0  0
  8 12  1  1  0  0  0
  9  1  1  0  0  0  0
 10 19  1  0  0  0  0
 13 18  1  6  0  0  0
 13  8  1  0  0  0  0
 14  5  1  0  0  0  0
 14  1  2  0  0  0  0
 15  4  1  0  0  0  0
 16 12  1  0  0  0  0
 16 17  1  0  0  0  0
 18 10  1  0  0  0  0
 19  3  2  0  0  0  0
 19 20  1  0  0  0  0
 20 15  2  0  0  0  0
 22 21  1  1  0  0  0
 23 22  1  0  0  0  0
 23 21  1  1  0  0  0
 24 27  1  1  0  0  0
 25 28  1  0  0  0  0
 28 24  1  0  0  0  0
 29 26  2  6  0  0  0
 29 31  1  0  0  0  0
 30 22  1  0  0  0  0
 30 29  1  0  0  0  0
 30 25  1  1  0  0  0
 31 24  1  0  0  0  0
M  END
>  <MODEL>
8

>  <REMARK>
 VINA RESULT:      -5.3      3.282      7.724
  Name = 
  2 active torsions:
  status: ('A' for Active; 'I' for Inactive)
    1  A    between atoms: C_5  and  C_30
    2  A    between atoms: C_10  and  N_16
                            x       y       z     vdW  Elec       q    Type
                         _______ _______ _______ _____ _____    ______ ____

>  <TORSDO>
F 2

$$$$
=
 OpenBabel11122411003D

 31 36  0  0  1  0  0  0  0  0999 V2000
  192.7330  175.5300  136.8920 C   0  0  0  0  0  0  0  0  0  0  0  0
  189.3390  176.5770  135.5370 C   0  0  2  0  0  3  0  0  0  0  0  0
  188.5580  175.2940  135.2870 C   0  0  0  0  0  0  0  0  0  0  0  0
  188.4720  172.8820  134.9890 C   0  0  0  0  0  0  0  0  0  0  0  0
  190.4960  176.3850  136.4880 C   0  0  0  0  0  0  0  0  0  0  0  0
  192.6330  175.8910  138.2360 C   0  0  0  0  0  3  0  0  0  0  0  0
  189.1980  174.0450  135.2520 C   0  0  0  0  0  3  0  0  0  0  0  0
  187.9960  177.5130  137.4660 C   0  0  2  0  0  3  0  0  0  0  0  0
  193.9680  174.8780  136.3870 C   0  0  0  0  0  1  0  0  0  0  0  0
  186.5200  176.5930  134.9910 O   0  0  0  0  0  0  0  0  0  0  0  0
  189.2830  171.3310  134.9670 Cl  0  0  0  0  0  0  0  0  0  0  0  0
  189.2330  177.5410  138.3720 C   0  0  0  0  0  2  0  0  0  0  0  0
  188.4230  177.7300  135.9980 C   0  0  2  0  0  3  0  0  0  0  0  0
  191.6690  175.7770  136.0210 C   0  0  0  0  0  3  0  0  0  0  0  0
  187.0990  172.9550  134.7410 C   0  0  0  0  0  3  0  0  0  0  0  0
  190.3980  176.7520  137.8480 C   0  0  0  0  0  0  0  0  0  0  0  0
  191.4720  176.5090  138.7090 C   0  0  0  0  0  3  0  0  0  0  0  0
  187.2360  177.8260  135.0380 C   0  0  0  0  0  2  0  0  0  0  0  0
  187.1790  175.3620  135.0020 C   0  0  0  0  0  0  0  0  0  0  0  0
  186.4540  174.1940  134.7460 C   0  0  0  0  0  3  0  0  0  0  0  0
  187.0150  178.4220  139.3900 C   0  0  0  0  0  2  0  0  0  0  0  0
  185.9300  177.8740  138.5920 C   0  0  2  0  0  3  0  0  0  0  0  0
  187.0630  178.5410  137.9230 N   0  0  2  0  0  0  0  0  0  0  0  0
  183.7140  178.6850  141.5030 C   0  0  1  0  0  3  0  0  0  0  0  0
  184.9280  179.8020  139.7180 O   0  0  0  0  0  0  0  0  0  0  0  0
  183.1870  176.7000  138.1700 O   0  0  0  0  0  0  0  0  0  0  0  0
  183.8640  178.2530  142.9460 C   0  0  0  0  0  1  0  0  0  0  0  0
  185.0620  179.1730  140.9770 C   0  0  0  0  0  2  0  0  0  0  0  0
  183.1190  178.0040  138.9530 S   0  0  2  0  0  0  0  0  0  0  0  0
  184.7270  178.8200  138.7200 C   0  0  2  0  0  3  0  0  0  0  0  0
  183.2270  177.5030  140.6770 C   0  0  0  0  0  2  0  0  0  0  0  0
  1  6  1  0  0  0  0
  2  3  1  1  0  0  0
  2 13  1  0  0  0  0
  2  5  1  0  0  0  0
  4  7  2  0  0  0  0
  5 16  2  0  0  0  0
  6 17  2  0  0  0  0
  7  3  1  0  0  0  0
  8 23  1  0  0  0  0
  8 12  1  1  0  0  0
  9  1  1  0  0  0  0
 10 19  1  0  0  0  0
 10 18  1  0  0  0  0
 11  4  1  0  0  0  0
 13 18  1  6  0  0  0
 13  8  1  0  0  0  0
 14  5  1  0  0  0  0
 14  1  2  0  0  0  0
 15 20  2  0  0  0  0
 15  4  1  0  0  0  0
 16 12  1  0  0  0  0
 16 17  1  0  0  0  0
 19  3  2  0  0  0  0
 20 19  1  0  0  0  0
 22 30  1  0  0  0  0
 22 21  1  1  0  0  0
 23 22  1  0  0  0  0
 23 21  1  1  0  0  0
 24 27  1  1  0  0  0
 25 28  1  0  0  0  0
 28 24  1  0  0  0  0
 29 26  2  6  0  0  0
 29 31  1  0  0  0  0
 30 29  1  0  0  0  0
 30 25  1  1  0  0  0
 31 24  1  0  0  0  0
M  END
>  <MODEL>
9

>  <REMARK>
 VINA RESULT:      -5.2      3.944      9.015
  Name = 
  2 active torsions:
  status: ('A' for Active; 'I' for Inactive)
    1  A    between atoms: C_5  and  C_30
    2  A    between atoms: C_10  and  N_16
                            x       y       z     vdW  Elec       q    Type
                         _______ _______ _______ _____ _____    ______ ____

>  <TORSDO>
F 2

$$$$
