=
 OpenBabel11122411093D

 31 35  0  0  1  0  0  0  0  0999 V2000
  187.2610  178.1130  147.3840 C   0  0  0  0  0  0  0  0  0  0  0  0
  187.6040  177.7320  143.6200 C   0  0  0  0  0  0  0  0  0  0  0  0
  188.9520  177.3590  143.3760 C   0  0  0  0  0  0  0  0  0  0  0  0
  182.4820  178.8140  142.6220 O   0  0  0  0  0  0  0  0  0  0  0  0
  183.0890  178.5960  141.5390 C   0  0  0  0  0  0  0  0  0  0  0  0
  191.1180  176.5200  144.1170 C   0  0  0  0  0  0  0  0  0  0  0  0
  186.8970  177.5990  144.9670 C   0  0  1  0  0  3  0  0  0  0  0  0
  185.8180  178.5400  147.5570 C   0  0  0  0  0  2  0  0  0  0  0  0
  189.7920  176.8680  144.3890 C   0  0  0  0  0  3  0  0  0  0  0  0
  185.3630  178.3630  142.6870 C   0  0  0  0  0  0  0  0  0  0  0  0
  188.3510  178.2640  148.7480 Cl  0  0  0  0  0  0  0  0  0  0  0  0
  188.6550  177.8920  141.0260 C   0  0  0  0  0  3  0  0  0  0  0  0
  191.9120  176.0560  145.1110 F   0  0  0  0  0  0  0  0  0  0  0  0
  184.8700  178.5060  143.8830 N   0  0  0  0  0  0  0  0  0  0  0  0
  186.8100  178.1090  142.5090 C   0  0  0  0  0  0  0  0  0  0  0  0
  184.5070  178.3770  141.5360 N   0  0  0  0  0  2  0  0  0  0  0  0
  187.7680  177.7650  146.1890 C   0  0  0  0  0  3  0  0  0  0  0  0
  191.6250  176.6530  142.8230 C   0  0  0  0  0  3  0  0  0  0  0  0
  185.7260  178.5810  145.0620 C   0  0  1  0  0  3  0  0  0  0  0  0
  184.9400  178.2790  146.3280 C   0  0  0  0  0  2  0  0  0  0  0  0
  187.3530  178.1870  141.2650 N   0  0  0  0  0  0  0  0  0  0  0  0
  189.4760  177.4670  142.0650 C   0  0  0  0  0  0  0  0  0  0  0  0
  190.8030  177.1230  141.7980 C   0  0  0  0  0  3  0  0  0  0  0  0
  180.8800  178.4580  137.8610 C   0  0  0  0  0  0  0  0  0  0  0  0
  181.2030  177.7570  140.1530 C   0  0  0  0  0  3  0  0  0  0  0  0
  183.8420  180.1270  139.1860 F   0  0  0  0  0  0  0  0  0  0  0  0
  180.1570  178.4030  136.6780 O   0  0  0  0  0  1  0  0  0  0  0  0
  180.4750  177.7010  138.9620 C   0  0  0  0  0  3  0  0  0  0  0  0
  182.7460  179.3280  139.1400 C   0  0  0  0  0  0  0  0  0  0  0  0
  182.3450  178.5670  140.2590 C   0  0  0  0  0  0  0  0  0  0  0  0
  182.0130  179.2680  137.9500 C   0  0  0  0  0  3  0  0  0  0  0  0
  1  8  1  0  0  0  0
  1 11  1  0  0  0  0
  2  7  1  0  0  0  0
  3  2  1  0  0  0  0
  3  9  1  0  0  0  0
  5  4  2  0  0  0  0
  6  9  2  0  0  0  0
  6 13  1  0  0  0  0
  7 19  1  0  0  0  0
  7 17  1  1  0  0  0
 10 14  2  0  0  0  0
 12 21  2  0  0  0  0
 12 22  1  0  0  0  0
 14 19  1  0  0  0  0
 15 10  1  0  0  0  0
 15  2  2  0  0  0  0
 16  5  1  0  0  0  0
 16 10  1  0  0  0  0
 17  1  2  0  0  0  0
 18  6  1  0  0  0  0
 19 20  1  1  0  0  0
 20  8  1  0  0  0  0
 21 15  1  0  0  0  0
 22  3  2  0  0  0  0
 23 22  1  0  0  0  0
 23 18  2  0  0  0  0
 24 31  2  0  0  0  0
 24 28  1  0  0  0  0
 25 30  1  0  0  0  0
 27 24  1  0  0  0  0
 28 25  2  0  0  0  0
 29 26  1  0  0  0  0
 29 30  2  0  0  0  0
 30  5  1  0  0  0  0
 31 29  1  0  0  0  0
M  END
>  <MODEL>
1

>  <REMARK>
 VINA RESULT:     -11.2      0.000      0.000
  Name = 
  1 active torsions:
  status: ('A' for Active; 'I' for Inactive)
    1  A    between atoms: C_5  and  C_30
                            x       y       z     vdW  Elec       q    Type
                         _______ _______ _______ _____ _____    ______ ____

>  <TORSDO>
F 1

$$$$
=
 OpenBabel11122411093D

 31 35  0  0  1  0  0  0  0  0999 V2000
  184.8890  178.7430  143.8700 C   0  0  0  0  0  0  0  0  0  0  0  0
  188.5110  177.6060  143.7240 C   0  0  0  0  0  0  0  0  0  0  0  0
  188.9300  177.4270  145.0680 C   0  0  0  0  0  0  0  0  0  0  0  0
  188.7130  177.5360  138.3990 O   0  0  0  0  0  0  0  0  0  0  0  0
  189.8300  177.1930  138.8710 C   0  0  0  0  0  0  0  0  0  0  0  0
  188.4650  177.1610  147.4470 C   0  0  0  0  0  0  0  0  0  0  0  0
  187.0540  177.6530  143.2680 C   0  0  1  0  0  3  0  0  0  0  0  0
  184.5310  178.9410  142.4110 C   0  0  0  0  0  2  0  0  0  0  0  0
  188.0180  177.3260  146.1340 C   0  0  0  0  0  3  0  0  0  0  0  0
  189.1070  177.6170  141.2880 C   0  0  0  0  0  0  0  0  0  0  0  0
  183.8080  179.3780  145.0940 Cl  0  0  0  0  0  0  0  0  0  0  0  0
  191.2390  177.3680  144.3230 C   0  0  0  0  0  3  0  0  0  0  0  0
  187.5680  177.0730  148.4590 F   0  0  0  0  0  0  0  0  0  0  0  0
  187.8880  177.9330  140.9590 N   0  0  0  0  0  0  0  0  0  0  0  0
  189.5030  177.5840  142.7130 C   0  0  0  0  0  0  0  0  0  0  0  0
  190.0580  177.2280  140.2880 N   0  0  0  0  0  2  0  0  0  0  0  0
  186.0710  178.2330  144.2560 C   0  0  0  0  0  3  0  0  0  0  0  0
  189.8320  177.0900  147.7180 C   0  0  0  0  0  3  0  0  0  0  0  0
  186.9270  178.4140  141.9440 C   0  0  1  0  0  3  0  0  0  0  0  0
  185.5020  178.2670  141.4350 C   0  0  0  0  0  2  0  0  0  0  0  0
  190.8190  177.4790  143.0380 N   0  0  0  0  0  0  0  0  0  0  0  0
  190.3120  177.3320  145.3590 C   0  0  0  0  0  0  0  0  0  0  0  0
  190.7550  177.1730  146.6750 C   0  0  0  0  0  3  0  0  0  0  0  0
  192.9300  175.9040  136.1970 C   0  0  0  0  0  0  0  0  0  0  0  0
  190.5980  176.3390  136.6660 C   0  0  0  0  0  3  0  0  0  0  0  0
  192.6370  177.1280  139.6220 F   0  0  0  0  0  0  0  0  0  0  0  0
  193.9230  175.4840  135.3220 O   0  0  0  0  0  1  0  0  0  0  0  0
  191.5970  175.9160  135.7850 C   0  0  0  0  0  3  0  0  0  0  0  0
  192.2700  176.7380  138.3750 C   0  0  0  0  0  0  0  0  0  0  0  0
  190.9190  176.7540  137.9680 C   0  0  0  0  0  0  0  0  0  0  0  0
  193.2660  176.3130  137.4890 C   0  0  0  0  0  3  0  0  0  0  0  0
  1 17  2  0  0  0  0
  1 11  1  0  0  0  0
  2  3  1  0  0  0  0
  3 22  2  0  0  0  0
  3  9  1  0  0  0  0
  4  5  2  0  0  0  0
  5 16  1  0  0  0  0
  6 18  1  0  0  0  0
  6 13  1  0  0  0  0
  7  2  1  0  0  0  0
  7 17  1  1  0  0  0
  8  1  1  0  0  0  0
  9  6  2  0  0  0  0
 10 15  1  0  0  0  0
 12 22  1  0  0  0  0
 14 10  2  0  0  0  0
 14 19  1  0  0  0  0
 15 21  1  0  0  0  0
 15  2  2  0  0  0  0
 16 10  1  0  0  0  0
 19 20  1  6  0  0  0
 19  7  1  0  0  0  0
 20  8  1  0  0  0  0
 21 12  2  0  0  0  0
 22 23  1  0  0  0  0
 23 18  2  0  0  0  0
 24 31  1  0  0  0  0
 25 30  2  0  0  0  0
 27 24  1  0  0  0  0
 28 24  2  0  0  0  0
 28 25  1  0  0  0  0
 29 26  1  0  0  0  0
 30 29  1  0  0  0  0
 30  5  1  0  0  0  0
 31 29  2  0  0  0  0
M  END
>  <MODEL>
2

>  <REMARK>
 VINA RESULT:     -11.2      4.271      6.881
  Name = 
  1 active torsions:
  status: ('A' for Active; 'I' for Inactive)
    1  A    between atoms: C_5  and  C_30
                            x       y       z     vdW  Elec       q    Type
                         _______ _______ _______ _____ _____    ______ ____

>  <TORSDO>
F 1

$$$$
=
 OpenBabel11122411093D

 31 35  0  0  1  0  0  0  0  0999 V2000
  187.5960  178.0270  147.3030 C   0  0  0  0  0  0  0  0  0  0  0  0
  187.2920  177.8530  143.5200 C   0  0  0  0  0  0  0  0  0  0  0  0
  188.5730  177.4860  143.0310 C   0  0  0  0  0  0  0  0  0  0  0  0
  182.0910  179.0160  143.4640 O   0  0  0  0  0  0  0  0  0  0  0  0
  182.5030  178.8550  142.2840 C   0  0  0  0  0  0  0  0  0  0  0  0
  190.8210  176.5950  143.3490 C   0  0  0  0  0  0  0  0  0  0  0  0
  186.8210  177.6490  144.9590 C   0  0  1  0  0  3  0  0  0  0  0  0
  186.2090  178.4520  147.7410 C   0  0  0  0  0  2  0  0  0  0  0  0
  189.5660  176.9360  143.8600 C   0  0  0  0  0  3  0  0  0  0  0  0
  184.9350  178.5460  143.0160 C   0  0  0  0  0  0  0  0  0  0  0  0
  188.9020  178.0970  148.4680 Cl  0  0  0  0  0  0  0  0  0  0  0  0
  187.8920  178.1490  140.7980 C   0  0  0  0  0  3  0  0  0  0  0  0
  191.7650  176.0730  144.1680 F   0  0  0  0  0  0  0  0  0  0  0  0
  184.6540  178.6260  144.2840 N   0  0  0  0  0  0  0  0  0  0  0  0
  186.3270  178.2940  142.5820 C   0  0  0  0  0  0  0  0  0  0  0  0
  183.8980  178.6280  142.0290 N   0  0  0  0  0  2  0  0  0  0  0  0
  187.8880  177.7430  146.0230 C   0  0  0  0  0  3  0  0  0  0  0  0
  191.1040  176.7960  141.9970 C   0  0  0  0  0  3  0  0  0  0  0  0
  185.6970  178.6310  145.3030 C   0  0  1  0  0  3  0  0  0  0  0  0
  185.1320  178.2650  146.6660 C   0  0  0  0  0  2  0  0  0  0  0  0
  186.6530  178.4380  141.2700 N   0  0  0  0  0  0  0  0  0  0  0  0
  188.8700  177.6630  141.6590 C   0  0  0  0  0  0  0  0  0  0  0  0
  190.1280  177.3270  141.1520 C   0  0  0  0  0  3  0  0  0  0  0  0
  179.7970  178.9340  138.9530 C   0  0  0  0  0  0  0  0  0  0  0  0
  181.8230  178.1340  140.0040 C   0  0  0  0  0  3  0  0  0  0  0  0
  180.0750  180.4510  142.2600 F   0  0  0  0  0  0  0  0  0  0  0  0
  178.9310  178.9510  137.8690 O   0  0  0  0  0  1  0  0  0  0  0  0
  180.9510  178.1500  138.9120 C   0  0  0  0  0  3  0  0  0  0  0  0
  180.3840  179.6900  141.1800 C   0  0  0  0  0  0  0  0  0  0  0  0
  181.5530  178.9000  141.1490 C   0  0  0  0  0  0  0  0  0  0  0  0
  179.5150  179.7030  140.0840 C   0  0  0  0  0  3  0  0  0  0  0  0
  1  8  1  0  0  0  0
  1 11  1  0  0  0  0
  2  7  1  0  0  0  0
  3  2  1  0  0  0  0
  3  9  1  0  0  0  0
  5  4  2  0  0  0  0
  6  9  2  0  0  0  0
  6 13  1  0  0  0  0
  7 19  1  0  0  0  0
  7 17  1  1  0  0  0
 10 14  2  0  0  0  0
 12 21  2  0  0  0  0
 12 22  1  0  0  0  0
 14 19  1  0  0  0  0
 15 10  1  0  0  0  0
 15  2  2  0  0  0  0
 16  5  1  0  0  0  0
 16 10  1  0  0  0  0
 17  1  2  0  0  0  0
 18  6  1  0  0  0  0
 19 20  1  1  0  0  0
 20  8  1  0  0  0  0
 21 15  1  0  0  0  0
 22  3  2  0  0  0  0
 23 22  1  0  0  0  0
 23 18  2  0  0  0  0
 24 31  1  0  0  0  0
 25 30  2  0  0  0  0
 27 24  1  0  0  0  0
 28 24  2  0  0  0  0
 28 25  1  0  0  0  0
 29 26  1  0  0  0  0
 30 29  1  0  0  0  0
 30  5  1  0  0  0  0
 31 29  2  0  0  0  0
M  END
>  <MODEL>
3

>  <REMARK>
 VINA RESULT:     -10.7      1.303      1.429
  Name = 
  1 active torsions:
  status: ('A' for Active; 'I' for Inactive)
    1  A    between atoms: C_5  and  C_30
                            x       y       z     vdW  Elec       q    Type
                         _______ _______ _______ _____ _____    ______ ____

>  <TORSDO>
F 1

$$$$
=
 OpenBabel11122411093D

 31 35  0  0  1  0  0  0  0  0999 V2000
  191.6240  175.9130  146.1610 C   0  0  0  0  0  0  0  0  0  0  0  0
  188.5110  177.3770  144.5500 C   0  0  0  0  0  0  0  0  0  0  0  0
  187.6890  177.8380  145.6120 C   0  0  0  0  0  0  0  0  0  0  0  0
  190.1740  176.5090  139.5610 O   0  0  0  0  0  0  0  0  0  0  0  0
  189.0340  177.0460  139.5420 C   0  0  0  0  0  0  0  0  0  0  0  0
  187.3410  178.4770  147.9390 C   0  0  0  0  0  0  0  0  0  0  0  0
  190.0080  177.0970  144.6700 C   0  0  1  0  0  3  0  0  0  0  0  0
  192.4270  175.4200  144.9740 C   0  0  0  0  0  2  0  0  0  0  0  0
  188.1800  178.0330  146.9140 C   0  0  0  0  0  3  0  0  0  0  0  0
  188.8000  176.9910  142.0890 C   0  0  0  0  0  0  0  0  0  0  0  0
  192.0990  175.3990  147.7680 Cl  0  0  0  0  0  0  0  0  0  0  0  0
  185.8210  178.0020  144.0700 C   0  0  0  0  0  3  0  0  0  0  0  0
  187.8340  178.6510  149.1880 F   0  0  0  0  0  0  0  0  0  0  0  0
  189.9890  176.4950  142.2740 N   0  0  0  0  0  0  0  0  0  0  0  0
  187.9470  177.3200  143.2520 C   0  0  0  0  0  0  0  0  0  0  0  0
  188.3290  177.2900  140.7680 N   0  0  0  0  0  2  0  0  0  0  0  0
  190.4820  176.6050  146.0170 C   0  0  0  0  0  3  0  0  0  0  0  0
  185.9950  178.7380  147.6780 C   0  0  0  0  0  3  0  0  0  0  0  0
  190.4590  176.1020  143.5970 C   0  0  1  0  0  3  0  0  0  0  0  0
  191.9750  176.0040  143.6310 C   0  0  0  0  0  2  0  0  0  0  0  0
  186.6350  177.6190  143.0550 N   0  0  0  0  0  0  0  0  0  0  0  0
  186.3260  178.1270  145.3600 C   0  0  0  0  0  0  0  0  0  0  0  0
  185.4890  178.5660  146.3890 C   0  0  0  0  0  3  0  0  0  0  0  0
  187.1920  178.0790  135.8060 C   0  0  0  0  0  0  0  0  0  0  0  0
  187.5730  176.5080  137.6030 C   0  0  0  0  0  3  0  0  0  0  0  0
  189.4310  179.6150  138.2430 F   0  0  0  0  0  0  0  0  0  0  0  0
  186.5900  178.4000  134.5960 O   0  0  0  0  0  1  0  0  0  0  0  0
  186.9670  176.8300  136.3860 C   0  0  0  0  0  3  0  0  0  0  0  0
  188.6310  178.6880  137.6580 C   0  0  0  0  0  0  0  0  0  0  0  0
  188.4110  177.4270  138.2540 C   0  0  0  0  0  0  0  0  0  0  0  0
  188.0220  179.0050  136.4400 C   0  0  0  0  0  3  0  0  0  0  0  0
  1 11  1  0  0  0  0
  2  7  1  0  0  0  0
  2  3  1  0  0  0  0
  3  9  1  0  0  0  0
  5  4  2  0  0  0  0
  5 16  1  0  0  0  0
  6 13  1  0  0  0  0
  7 17  1  1  0  0  0
  8  1  1  0  0  0  0
  9  6  2  0  0  0  0
 10 14  2  0  0  0  0
 10 15  1  0  0  0  0
 12 22  1  0  0  0  0
 14 19  1  0  0  0  0
 15  2  2  0  0  0  0
 16 10  1  0  0  0  0
 17  1  2  0  0  0  0
 18  6  1  0  0  0  0
 19 20  1  6  0  0  0
 19  7  1  0  0  0  0
 20  8  1  0  0  0  0
 21 15  1  0  0  0  0
 21 12  2  0  0  0  0
 22  3  2  0  0  0  0
 22 23  1  0  0  0  0
 23 18  2  0  0  0  0
 24 28  2  0  0  0  0
 24 31  1  0  0  0  0
 25 30  2  0  0  0  0
 27 24  1  0  0  0  0
 28 25  1  0  0  0  0
 29 26  1  0  0  0  0
 29 30  1  0  0  0  0
 30  5  1  0  0  0  0
 31 29  2  0  0  0  0
M  END
>  <MODEL>
4

>  <REMARK>
 VINA RESULT:     -10.4      3.938      5.637
  Name = 
  1 active torsions:
  status: ('A' for Active; 'I' for Inactive)
    1  A    between atoms: C_5  and  C_30
                            x       y       z     vdW  Elec       q    Type
                         _______ _______ _______ _____ _____    ______ ____

>  <TORSDO>
F 1

$$$$
=
 OpenBabel11122411093D

 31 35  0  0  1  0  0  0  0  0999 V2000
  191.1650  177.4370  140.2290 C   0  0  0  0  0  0  0  0  0  0  0  0
  188.1370  178.0630  142.4350 C   0  0  0  0  0  0  0  0  0  0  0  0
  188.5700  177.8730  143.7740 C   0  0  0  0  0  0  0  0  0  0  0  0
  184.9140  179.3090  138.3780 O   0  0  0  0  0  0  0  0  0  0  0  0
  184.2760  179.3770  139.4630 C   0  0  0  0  0  0  0  0  0  0  0  0
  190.3210  177.6550  145.4560 C   0  0  0  0  0  0  0  0  0  0  0  0
  189.0670  178.3240  141.2510 C   0  0  1  0  0  3  0  0  0  0  0  0
  190.6170  177.6270  138.8290 C   0  0  0  0  0  2  0  0  0  0  0  0
  189.9290  177.8560  144.1300 C   0  0  0  0  0  3  0  0  0  0  0  0
  186.2500  178.5220  140.8490 C   0  0  0  0  0  0  0  0  0  0  0  0
  192.7430  176.6990  140.4200 Cl  0  0  0  0  0  0  0  0  0  0  0  0
  186.2530  177.7770  144.4910 C   0  0  0  0  0  3  0  0  0  0  0  0
  191.6380  177.6350  145.7760 F   0  0  0  0  0  0  0  0  0  0  0  0
  187.0530  178.4610  139.8260 N   0  0  0  0  0  0  0  0  0  0  0  0
  186.7450  178.1750  142.1990 C   0  0  0  0  0  0  0  0  0  0  0  0
  184.9030  178.9910  140.6960 N   0  0  0  0  0  2  0  0  0  0  0  0
  190.4290  177.6780  141.3270 C   0  0  0  0  0  3  0  0  0  0  0  0
  189.3590  177.4720  146.4510 C   0  0  0  0  0  3  0  0  0  0  0  0
  188.3970  177.9080  139.9380 C   0  0  1  0  0  3  0  0  0  0  0  0
  189.2730  178.3620  138.7820 C   0  0  0  0  0  2  0  0  0  0  0  0
  185.8560  178.0200  143.2160 N   0  0  0  0  0  0  0  0  0  0  0  0
  187.6070  177.7060  144.7980 C   0  0  0  0  0  0  0  0  0  0  0  0
  188.0030  177.5010  146.1220 C   0  0  0  0  0  3  0  0  0  0  0  0
  180.2340  180.8200  139.4530 C   0  0  0  0  0  0  0  0  0  0  0  0
  182.5320  180.9850  138.7190 C   0  0  0  0  0  3  0  0  0  0  0  0
  182.1440  178.1120  140.9800 F   0  0  0  0  0  0  0  0  0  0  0  0
  178.9310  181.2980  139.4410 O   0  0  0  0  0  1  0  0  0  0  0  0
  181.2200  181.4660  138.7060 C   0  0  0  0  0  3  0  0  0  0  0  0
  181.8700  179.2080  140.2290 C   0  0  0  0  0  0  0  0  0  0  0  0
  182.8750  179.8540  139.4770 C   0  0  0  0  0  0  0  0  0  0  0  0
  180.5580  179.6950  140.2130 C   0  0  0  0  0  3  0  0  0  0  0  0
  1 11  1  0  0  0  0
  1 17  2  0  0  0  0
  2  3  1  0  0  0  0
  3  9  2  0  0  0  0
  3 22  1  0  0  0  0
  4  5  2  0  0  0  0
  5 30  1  0  0  0  0
  5 16  1  0  0  0  0
  6 13  1  0  0  0  0
  6 18  2  0  0  0  0
  7 17  1  1  0  0  0
  7  2  1  0  0  0  0
  8  1  1  0  0  0  0
  9  6  1  0  0  0  0
 10 15  1  0  0  0  0
 12 22  1  0  0  0  0
 14 19  1  0  0  0  0
 14 10  2  0  0  0  0
 15  2  2  0  0  0  0
 15 21  1  0  0  0  0
 16 10  1  0  0  0  0
 19 20  1  6  0  0  0
 19  7  1  0  0  0  0
 20  8  1  0  0  0  0
 21 12  2  0  0  0  0
 22 23  2  0  0  0  0
 23 18  1  0  0  0  0
 24 31  1  0  0  0  0
 25 30  2  0  0  0  0
 27 24  1  0  0  0  0
 28 25  1  0  0  0  0
 28 24  2  0  0  0  0
 29 26  1  0  0  0  0
 30 29  1  0  0  0  0
 31 29  2  0  0  0  0
M  END
>  <MODEL>
5

>  <REMARK>
 VINA RESULT:      -9.6      2.589      4.553
  Name = 
  1 active torsions:
  status: ('A' for Active; 'I' for Inactive)
    1  A    between atoms: C_5  and  C_30
                            x       y       z     vdW  Elec       q    Type
                         _______ _______ _______ _____ _____    ______ ____

>  <TORSDO>
F 1

$$$$
=
 OpenBabel11122411093D

 31 35  0  0  1  0  0  0  0  0999 V2000
  190.6730  176.6180  142.9090 C   0  0  0  0  0  0  0  0  0  0  0  0
  187.3500  177.9480  144.1840 C   0  0  0  0  0  0  0  0  0  0  0  0
  187.4530  177.9900  145.6000 C   0  0  0  0  0  0  0  0  0  0  0  0
  185.2850  178.6500  139.3220 O   0  0  0  0  0  0  0  0  0  0  0  0
  184.4430  178.9920  140.1950 C   0  0  0  0  0  0  0  0  0  0  0  0
  188.7510  177.9520  147.6640 C   0  0  0  0  0  0  0  0  0  0  0  0
  188.5420  177.8800  143.2300 C   0  0  1  0  0  3  0  0  0  0  0  0
  190.4730  176.5740  141.4070 C   0  0  0  0  0  2  0  0  0  0  0  0
  188.6870  177.9190  146.2680 C   0  0  0  0  0  3  0  0  0  0  0  0
  185.9330  178.2520  142.1380 C   0  0  0  0  0  0  0  0  0  0  0  0
  192.0550  175.7910  143.5960 Cl  0  0  0  0  0  0  0  0  0  0  0  0
  185.0440  178.2530  145.7470 C   0  0  0  0  0  3  0  0  0  0  0  0
  189.9510  177.8750  148.2870 F   0  0  0  0  0  0  0  0  0  0  0  0
  186.9230  177.9150  141.3640 N   0  0  0  0  0  0  0  0  0  0  0  0
  186.0720  178.1380  143.6070 C   0  0  0  0  0  0  0  0  0  0  0  0
  184.7290  178.8040  141.5890 N   0  0  0  0  0  2  0  0  0  0  0  0
  189.7550  177.1400  143.7400 C   0  0  0  0  0  3  0  0  0  0  0  0
  187.5800  178.0600  148.4160 C   0  0  0  0  0  3  0  0  0  0  0  0
  188.1240  177.2740  141.8880 C   0  0  1  0  0  3  0  0  0  0  0  0
  189.2830  177.4060  140.9130 C   0  0  0  0  0  2  0  0  0  0  0  0
  184.9710  178.2720  144.3930 N   0  0  0  0  0  0  0  0  0  0  0  0
  186.2770  178.1200  146.3770 C   0  0  0  0  0  0  0  0  0  0  0  0
  186.3440  178.1480  147.7730 C   0  0  0  0  0  3  0  0  0  0  0  0
  180.7330  180.7670  138.9670 C   0  0  0  0  0  0  0  0  0  0  0  0
  183.1310  180.5350  138.7540 C   0  0  0  0  0  3  0  0  0  0  0  0
  181.8930  178.3290  141.4220 F   0  0  0  0  0  0  0  0  0  0  0  0
  179.5410  181.3500  138.5600 O   0  0  0  0  0  1  0  0  0  0  0  0
  181.9310  181.1220  138.3440 C   0  0  0  0  0  3  0  0  0  0  0  0
  181.9330  179.2380  140.4140 C   0  0  0  0  0  0  0  0  0  0  0  0
  183.1500  179.5890  139.7900 C   0  0  0  0  0  0  0  0  0  0  0  0
  180.7350  179.8290  140.0000 C   0  0  0  0  0  3  0  0  0  0  0  0
  1 11  1  0  0  0  0
  1 17  2  0  0  0  0
  2  3  1  0  0  0  0
  3  9  2  0  0  0  0
  3 22  1  0  0  0  0
  4  5  2  0  0  0  0
  5 16  1  0  0  0  0
  6 13  1  0  0  0  0
  6 18  2  0  0  0  0
  7 17  1  1  0  0  0
  7  2  1  0  0  0  0
  8  1  1  0  0  0  0
  9  6  1  0  0  0  0
 10 15  1  0  0  0  0
 12 22  1  0  0  0  0
 14 19  1  0  0  0  0
 14 10  2  0  0  0  0
 15  2  2  0  0  0  0
 15 21  1  0  0  0  0
 16 10  1  0  0  0  0
 19 20  1  6  0  0  0
 19  7  1  0  0  0  0
 20  8  1  0  0  0  0
 21 12  2  0  0  0  0
 22 23  2  0  0  0  0
 23 18  1  0  0  0  0
 24 31  1  0  0  0  0
 25 30  2  0  0  0  0
 27 24  1  0  0  0  0
 28 25  1  0  0  0  0
 28 24  2  0  0  0  0
 29 26  1  0  0  0  0
 30  5  1  0  0  0  0
 30 29  1  0  0  0  0
 31 29  2  0  0  0  0
M  END
>  <MODEL>
6

>  <REMARK>
 VINA RESULT:      -9.6      2.147      4.285
  Name = 
  1 active torsions:
  status: ('A' for Active; 'I' for Inactive)
    1  A    between atoms: C_5  and  C_30
                            x       y       z     vdW  Elec       q    Type
                         _______ _______ _______ _____ _____    ______ ____

>  <TORSDO>
F 1

$$$$
=
 OpenBabel11122411093D

 31 35  0  0  1  0  0  0  0  0999 V2000
  183.8890  178.8510  140.3580 C   0  0  0  0  0  0  0  0  0  0  0  0
  187.5820  177.9830  140.5610 C   0  0  0  0  0  0  0  0  0  0  0  0
  188.0740  178.0110  139.2290 C   0  0  0  0  0  0  0  0  0  0  0  0
  187.6300  177.6000  145.8760 O   0  0  0  0  0  0  0  0  0  0  0  0
  188.7810  177.3590  145.4220 C   0  0  0  0  0  0  0  0  0  0  0  0
  187.8800  178.6270  136.8780 C   0  0  0  0  0  0  0  0  0  0  0  0
  186.2880  178.6520  141.0220 C   0  0  1  0  0  3  0  0  0  0  0  0
  183.4360  178.7690  141.8010 C   0  0  0  0  0  2  0  0  0  0  0  0
  187.3720  178.6280  138.1800 C   0  0  0  0  0  3  0  0  0  0  0  0
  188.0160  177.5160  142.9860 C   0  0  0  0  0  0  0  0  0  0  0  0
  182.6730  178.9310  139.0990 Cl  0  0  0  0  0  0  0  0  0  0  0  0
  190.0720  176.8430  139.9630 C   0  0  0  0  0  3  0  0  0  0  0  0
  187.1820  179.2220  135.8810 F   0  0  0  0  0  0  0  0  0  0  0  0
  186.7960  177.8410  143.3000 N   0  0  0  0  0  0  0  0  0  0  0  0
  188.4170  177.4340  141.5640 C   0  0  0  0  0  0  0  0  0  0  0  0
  189.0030  177.3040  144.0050 N   0  0  0  0  0  2  0  0  0  0  0  0
  185.1770  178.7150  140.0020 C   0  0  0  0  0  3  0  0  0  0  0  0
  189.1020  178.0120  136.6040 C   0  0  0  0  0  3  0  0  0  0  0  0
  185.7540  177.9780  142.2890 C   0  0  1  0  0  3  0  0  0  0  0  0
  184.5840  178.7930  142.8160 C   0  0  0  0  0  2  0  0  0  0  0  0
  189.6150  176.8780  141.2390 N   0  0  0  0  0  0  0  0  0  0  0  0
  189.3220  177.4100  138.9380 C   0  0  0  0  0  0  0  0  0  0  0  0
  189.8240  177.4070  137.6340 C   0  0  0  0  0  3  0  0  0  0  0  0
  192.1010  176.6410  148.0460 C   0  0  0  0  0  0  0  0  0  0  0  0
  190.9680  176.2960  145.9380 C   0  0  0  0  0  3  0  0  0  0  0  0
  188.9790  178.5300  148.0750 F   0  0  0  0  0  0  0  0  0  0  0  0
  193.1810  176.3990  148.8850 O   0  0  0  0  0  1  0  0  0  0  0  0
  192.0550  176.0530  146.7810 C   0  0  0  0  0  3  0  0  0  0  0  0
  189.9700  177.7180  147.6280 C   0  0  0  0  0  0  0  0  0  0  0  0
  189.9150  177.1280  146.3470 C   0  0  0  0  0  0  0  0  0  0  0  0
  191.0610  177.4700  148.4680 C   0  0  0  0  0  3  0  0  0  0  0  0
  1  8  1  0  0  0  0
  2  7  1  0  0  0  0
  2 15  1  0  0  0  0
  3  2  2  0  0  0  0
  5  4  2  0  0  0  0
  5 30  1  0  0  0  0
  6  9  2  0  0  0  0
  7 17  1  6  0  0  0
  7 19  1  0  0  0  0
  8 20  1  0  0  0  0
  9  3  1  0  0  0  0
 10 14  2  0  0  0  0
 10 16  1  0  0  0  0
 11  1  1  0  0  0  0
 12 21  1  0  0  0  0
 13  6  1  0  0  0  0
 15 10  1  0  0  0  0
 16  5  1  0  0  0  0
 17  1  2  0  0  0  0
 18  6  1  0  0  0  0
 18 23  2  0  0  0  0
 19 20  1  1  0  0  0
 19 14  1  0  0  0  0
 21 15  2  0  0  0  0
 22  3  1  0  0  0  0
 22 12  2  0  0  0  0
 23 22  1  0  0  0  0
 24 31  1  0  0  0  0
 24 27  1  0  0  0  0
 25 30  2  0  0  0  0
 25 28  1  0  0  0  0
 28 24  2  0  0  0  0
 29 26  1  0  0  0  0
 29 31  2  0  0  0  0
 30 29  1  0  0  0  0
M  END
>  <MODEL>
7

>  <REMARK>
 VINA RESULT:      -9.4      4.170      8.422
  Name = 
  1 active torsions:
  status: ('A' for Active; 'I' for Inactive)
    1  A    between atoms: C_5  and  C_30
                            x       y       z     vdW  Elec       q    Type
                         _______ _______ _______ _____ _____    ______ ____

>  <TORSDO>
F 1

$$$$
=
 OpenBabel11122411093D

 31 35  0  0  1  0  0  0  0  0999 V2000
  183.5580  178.7720  138.3430 C   0  0  0  0  0  0  0  0  0  0  0  0
  183.7380  178.4800  142.1260 C   0  0  0  0  0  0  0  0  0  0  0  0
  182.4050  178.5990  142.6010 C   0  0  0  0  0  0  0  0  0  0  0  0
  189.0060  177.6840  142.2340 O   0  0  0  0  0  0  0  0  0  0  0  0
  188.5510  177.6770  143.4090 C   0  0  0  0  0  0  0  0  0  0  0  0
  179.9910  178.5820  142.2580 C   0  0  0  0  0  0  0  0  0  0  0  0
  184.1180  178.1270  140.6890 C   0  0  1  0  0  3  0  0  0  0  0  0
  185.0090  178.6680  137.9190 C   0  0  0  0  0  2  0  0  0  0  0  0
  181.2890  178.4490  141.7600 C   0  0  0  0  0  3  0  0  0  0  0  0
  186.1800  178.2720  142.6550 C   0  0  0  0  0  0  0  0  0  0  0  0
  182.3770  179.3150  137.1670 Cl  0  0  0  0  0  0  0  0  0  0  0  0
  183.2570  178.9590  144.8450 C   0  0  0  0  0  3  0  0  0  0  0  0
  178.9310  178.4410  141.4260 F   0  0  0  0  0  0  0  0  0  0  0  0
  186.4850  178.2510  141.3900 N   0  0  0  0  0  0  0  0  0  0  0  0
  184.7860  178.5380  143.0760 C   0  0  0  0  0  0  0  0  0  0  0  0
  187.1660  177.9680  143.6510 N   0  0  0  0  0  2  0  0  0  0  0  0
  183.1680  178.6050  139.6180 C   0  0  0  0  0  3  0  0  0  0  0  0
  179.7850  178.8650  143.6090 C   0  0  0  0  0  3  0  0  0  0  0  0
  185.5250  178.6380  140.3630 C   0  0  1  0  0  3  0  0  0  0  0  0
  185.9330  178.0990  139.0020 C   0  0  0  0  0  2  0  0  0  0  0  0
  184.5200  178.7840  144.3860 N   0  0  0  0  0  0  0  0  0  0  0  0
  182.1780  178.8640  143.9730 C   0  0  0  0  0  0  0  0  0  0  0  0
  180.8780  179.0030  144.4660 C   0  0  0  0  0  3  0  0  0  0  0  0
  191.1910  176.7730  146.6710 C   0  0  0  0  0  0  0  0  0  0  0  0
  190.7750  177.0130  144.3010 C   0  0  0  0  0  3  0  0  0  0  0  0
  187.7120  177.7640  146.1910 F   0  0  0  0  0  0  0  0  0  0  0  0
  192.0550  176.4770  147.7160 O   0  0  0  0  0  1  0  0  0  0  0  0
  191.6460  176.7160  145.3520 C   0  0  0  0  0  3  0  0  0  0  0  0
  188.9910  177.4250  145.8900 C   0  0  0  0  0  0  0  0  0  0  0  0
  189.4410  177.3700  144.5530 C   0  0  0  0  0  0  0  0  0  0  0  0
  189.8670  177.1260  146.9380 C   0  0  0  0  0  3  0  0  0  0  0  0
  1 17  2  0  0  0  0
  2  3  2  0  0  0  0
  2 15  1  0  0  0  0
  3 22  1  0  0  0  0
  4  5  2  0  0  0  0
  5 16  1  0  0  0  0
  5 30  1  0  0  0  0
  6 18  1  0  0  0  0
  7 17  1  6  0  0  0
  7  2  1  0  0  0  0
  8  1  1  0  0  0  0
  8 20  1  0  0  0  0
  9  6  2  0  0  0  0
  9  3  1  0  0  0  0
 10 15  1  0  0  0  0
 10 16  1  0  0  0  0
 11  1  1  0  0  0  0
 13  6  1  0  0  0  0
 14 10  2  0  0  0  0
 15 21  2  0  0  0  0
 18 23  2  0  0  0  0
 19 20  1  6  0  0  0
 19  7  1  0  0  0  0
 19 14  1  0  0  0  0
 21 12  1  0  0  0  0
 22 23  1  0  0  0  0
 22 12  2  0  0  0  0
 24 31  1  0  0  0  0
 24 27  1  0  0  0  0
 25 30  2  0  0  0  0
 25 28  1  0  0  0  0
 28 24  2  0  0  0  0
 29 26  1  0  0  0  0
 29 31  2  0  0  0  0
 30 29  1  0  0  0  0
M  END
>  <MODEL>
8

>  <REMARK>
 VINA RESULT:      -9.3      4.007      9.119
  Name = 
  1 active torsions:
  status: ('A' for Active; 'I' for Inactive)
    1  A    between atoms: C_5  and  C_30
                            x       y       z     vdW  Elec       q    Type
                         _______ _______ _______ _____ _____    ______ ____

>  <TORSDO>
F 1

$$$$
=
 OpenBabel11122411093D

 31 35  0  0  1  0  0  0  0  0999 V2000
  183.5660  178.9860  142.2540 C   0  0  0  0  0  0  0  0  0  0  0  0
  187.0390  177.9450  143.3880 C   0  0  0  0  0  0  0  0  0  0  0  0
  187.0050  177.9140  144.8070 C   0  0  0  0  0  0  0  0  0  0  0  0
  188.9310  177.3450  138.4420 O   0  0  0  0  0  0  0  0  0  0  0  0
  189.8370  177.0840  139.2780 C   0  0  0  0  0  0  0  0  0  0  0  0
  185.8030  177.8750  146.9280 C   0  0  0  0  0  0  0  0  0  0  0  0
  185.8040  177.9040  142.4890 C   0  0  1  0  0  3  0  0  0  0  0  0
  183.6930  179.0260  140.7450 C   0  0  0  0  0  2  0  0  0  0  0  0
  185.8000  177.8940  145.5310 C   0  0  0  0  0  3  0  0  0  0  0  0
  188.3820  177.7270  141.2810 C   0  0  0  0  0  0  0  0  0  0  0  0
  182.1530  179.7100  142.9960 Cl  0  0  0  0  0  0  0  0  0  0  0  0
  189.4310  177.8470  144.8450 C   0  0  0  0  0  3  0  0  0  0  0  0
  184.6290  177.8640  147.6050 F   0  0  0  0  0  0  0  0  0  0  0  0
  187.3340  177.9740  140.5500 N   0  0  0  0  0  0  0  0  0  0  0  0
  188.3010  177.8500  142.7540 C   0  0  0  0  0  0  0  0  0  0  0  0
  189.6010  177.2670  140.6820 N   0  0  0  0  0  2  0  0  0  0  0  0
  184.5590  178.5510  143.0470 C   0  0  0  0  0  3  0  0  0  0  0  0
  187.0110  177.8710  147.6260 C   0  0  0  0  0  3  0  0  0  0  0  0
  186.1100  178.5230  141.1230 C   0  0  1  0  0  3  0  0  0  0  0  0
  184.9220  178.2860  140.2040 C   0  0  0  0  0  2  0  0  0  0  0  0
  189.4440  177.8160  143.4890 N   0  0  0  0  0  0  0  0  0  0  0  0
  188.2210  177.8880  145.5300 C   0  0  0  0  0  0  0  0  0  0  0  0
  188.2200  177.8740  146.9270 C   0  0  0  0  0  3  0  0  0  0  0  0
  193.6920  175.6960  138.0000 C   0  0  0  0  0  0  0  0  0  0  0  0
  192.3210  177.1550  139.3560 C   0  0  0  0  0  3  0  0  0  0  0  0
  190.1830  174.9750  137.3090 F   0  0  0  0  0  0  0  0  0  0  0  0
  194.9460  175.2580  137.5950 O   0  0  0  0  0  1  0  0  0  0  0  0
  193.5830  176.7130  138.9490 C   0  0  0  0  0  3  0  0  0  0  0  0
  191.2770  175.5590  137.8600 C   0  0  0  0  0  0  0  0  0  0  0  0
  191.1550  176.5870  138.8200 C   0  0  0  0  0  0  0  0  0  0  0  0
  192.5420  175.1210  137.4560 C   0  0  0  0  0  3  0  0  0  0  0  0
  1 11  1  0  0  0  0
  1 17  2  0  0  0  0
  2  3  1  0  0  0  0
  3 22  2  0  0  0  0
  3  9  1  0  0  0  0
  4  5  2  0  0  0  0
  5 16  1  0  0  0  0
  6 13  1  0  0  0  0
  6 18  1  0  0  0  0
  7 17  1  1  0  0  0
  7  2  1  0  0  0  0
  8  1  1  0  0  0  0
  9  6  2  0  0  0  0
 10 15  1  0  0  0  0
 12 22  1  0  0  0  0
 14 19  1  0  0  0  0
 14 10  2  0  0  0  0
 15  2  2  0  0  0  0
 15 21  1  0  0  0  0
 16 10  1  0  0  0  0
 19 20  1  6  0  0  0
 19  7  1  0  0  0  0
 20  8  1  0  0  0  0
 21 12  2  0  0  0  0
 22 23  1  0  0  0  0
 23 18  2  0  0  0  0
 24 28  1  0  0  0  0
 26 29  1  0  0  0  0
 27 24  1  0  0  0  0
 28 25  2  0  0  0  0
 29 30  2  0  0  0  0
 30  5  1  0  0  0  0
 30 25  1  0  0  0  0
 31 29  1  0  0  0  0
 31 24  2  0  0  0  0
M  END
>  <MODEL>
9

>  <REMARK>
 VINA RESULT:      -9.2      4.388      7.477
  Name = 
  1 active torsions:
  status: ('A' for Active; 'I' for Inactive)
    1  A    between atoms: C_5  and  C_30
                            x       y       z     vdW  Elec       q    Type
                         _______ _______ _______ _____ _____    ______ ____

>  <TORSDO>
F 1

$$$$
