=
 OpenBabel11122410453D

 32 37  0  0  1  0  0  0  0  0999 V2000
  191.7700  176.0510  137.0880 C   0  0  0  0  0  3  0  0  0  0  0  0
  189.6650  177.2080  141.9700 C   0  0  0  0  0  0  0  0  0  0  0  0
  185.0830  178.9030  141.7640 C   0  0  0  0  0  3  0  0  0  0  0  0
  184.9440  178.6200  143.2040 C   0  0  0  0  0  3  0  0  0  0  0  0
  190.7650  176.5220  144.1000 C   0  0  0  0  0  0  0  0  0  0  0  0
  190.7090  176.7330  145.5470 C   0  0  0  0  0  0  0  0  0  0  0  0
  190.9520  176.9210  139.9440 C   0  0  0  0  0  0  0  0  0  0  0  0
  188.7050  178.0580  139.7690 C   0  0  0  0  0  2  0  0  0  0  0  0
  189.9370  177.4590  147.4560 N   0  0  0  0  0  0  0  0  0  0  0  0
  189.8630  177.4570  137.6670 C   0  0  0  0  0  2  0  0  0  0  0  0
  186.2230  178.6420  141.1220 C   0  0  0  0  0  3  0  0  0  0  0  0
  188.5080  177.7510  141.2260 C   0  0  0  0  0  0  0  0  0  0  0  0
  187.3690  178.0670  141.8560 C   0  0  0  0  0  0  0  0  0  0  0  0
  188.2990  177.2320  144.0740 C   0  0  2  0  0  3  0  0  0  0  0  0
  191.1290  176.8480  147.6300 C   0  0  0  0  0  3  0  0  0  0  0  0
  192.5960  176.8620  138.0300 C   0  0  0  0  0  2  0  0  0  0  0  0
  189.6690  177.0660  139.1240 C   0  0  1  0  0  3  0  0  0  0  0  0
  191.6380  176.3860  146.4600 N   0  0  0  0  0  0  0  0  0  0  0  0
  192.2100  176.6370  139.3820 O   0  0  0  0  0  0  0  0  0  0  0  0
  190.4830  176.3270  136.9050 C   0  0  0  0  0  0  0  0  0  0  0  0
  185.9660  178.1200  143.9030 C   0  0  0  0  0  3  0  0  0  0  0  0
  187.2330  177.8520  143.2760 N   0  0  0  0  0  0  0  0  0  0  0  0
  188.5260  177.9920  145.4000 C   0  0  0  0  0  2  0  0  0  0  0  0
  190.8770  176.9490  141.2440 N   0  0  0  0  0  0  0  0  0  0  0  0
  191.7640  175.9620  143.5740 O   0  0  0  0  0  0  0  0  0  0  0  0
  189.1340  178.0960  148.4850 C   0  0  0  0  0  1  0  0  0  0  0  0
  189.6000  177.0040  143.3010 C   0  0  0  0  0  0  0  0  0  0  0  0
  189.6690  177.3740  146.1480 C   0  0  0  0  0  0  0  0  0  0  0  0
  189.7190  175.5030  136.0140 N   0  0  0  0  0  2  0  0  0  0  0  0
  189.2990  174.1540  136.2520 C   0  0  0  0  0  0  0  0  0  0  0  0
  189.5860  173.5590  137.3240 O   0  0  0  0  0  0  0  0  0  0  0  0
  188.5110  173.4440  135.2130 C   0  0  0  0  0  1  0  0  0  0  0  0
  1 16  1  0  0  0  0
  2 27  2  0  0  0  0
  3  4  1  0  0  0  0
  4 21  2  0  0  0  0
  5  6  1  0  0  0  0
  6 28  2  0  0  0  0
  6 18  1  0  0  0  0
  7 24  2  0  0  0  0
  8 12  1  0  0  0  0
  9 15  1  0  0  0  0
  9 26  1  0  0  0  0
 11  3  2  0  0  0  0
 11 13  1  0  0  0  0
 12 13  2  0  0  0  0
 12  2  1  0  0  0  0
 13 22  1  0  0  0  0
 14 23  1  1  0  0  0
 16 19  1  0  0  0  0
 17 10  1  6  0  0  0
 17  8  1  0  0  0  0
 17  7  1  0  0  0  0
 18 15  2  0  0  0  0
 19  7  1  0  0  0  0
 20  1  2  0  0  0  0
 20 10  1  0  0  0  0
 22 21  1  0  0  0  0
 22 14  1  0  0  0  0
 23 28  1  0  0  0  0
 24  2  1  0  0  0  0
 25  5  2  0  0  0  0
 27 14  1  0  0  0  0
 27  5  1  0  0  0  0
 28  9  1  0  0  0  0
 29 30  1  0  0  0  0
 29 20  1  0  0  0  0
 30 31  2  0  0  0  0
 32 30  1  0  0  0  0
M  END
>  <MODEL>
1

>  <REMARK>
 VINA RESULT:     -10.8      0.000      0.000
  Name = 
  1 active torsions:
  status: ('A' for Active; 'I' for Inactive)
    1  A    between atoms: C_20  and  N_29
                            x       y       z     vdW  Elec       q    Type
                         _______ _______ _______ _____ _____    ______ ____

>  <TORSDO>
F 1

$$$$
=
 OpenBabel11122410453D

 32 37  0  0  1  0  0  0  0  0999 V2000
  186.3850  177.8910  136.8520 C   0  0  0  0  0  3  0  0  0  0  0  0
  187.4830  177.8150  142.1810 C   0  0  0  0  0  0  0  0  0  0  0  0
  183.6750  179.0860  144.9720 C   0  0  0  0  0  3  0  0  0  0  0  0
  184.3670  178.4990  146.1340 C   0  0  0  0  0  3  0  0  0  0  0  0
  189.5680  176.8070  143.1050 C   0  0  0  0  0  0  0  0  0  0  0  0
  190.3530  176.7070  144.3360 C   0  0  0  0  0  0  0  0  0  0  0  0
  187.3750  178.0720  139.7800 C   0  0  0  0  0  0  0  0  0  0  0  0
  185.4790  179.0090  141.1580 C   0  0  0  0  0  2  0  0  0  0  0  0
  190.8360  176.9480  146.4520 N   0  0  0  0  0  0  0  0  0  0  0  0
  185.2090  178.9650  138.6990 C   0  0  0  0  0  2  0  0  0  0  0  0
  184.2350  179.0700  143.7620 C   0  0  0  0  0  3  0  0  0  0  0  0
  186.1320  178.3900  142.3600 C   0  0  0  0  0  0  0  0  0  0  0  0
  185.5680  178.4630  143.5730 C   0  0  0  0  0  0  0  0  0  0  0  0
  187.5570  177.2770  144.6300 C   0  0  2  0  0  3  0  0  0  0  0  0
  191.8880  176.4280  145.7840 C   0  0  0  0  0  3  0  0  0  0  0  0
  187.6350  178.5630  137.3170 C   0  0  0  0  0  2  0  0  0  0  0  0
  185.8610  178.2650  139.8820 C   0  0  1  0  0  3  0  0  0  0  0  0
  191.6210  176.2660  144.4630 N   0  0  0  0  0  0  0  0  0  0  0  0
  188.0770  178.0290  138.5620 O   0  0  0  0  0  0  0  0  0  0  0  0
  185.2360  178.0790  137.4930 C   0  0  0  0  0  0  0  0  0  0  0  0
  185.5830  177.9610  146.0040 C   0  0  0  0  0  3  0  0  0  0  0  0
  186.2550  177.9480  144.7320 N   0  0  0  0  0  0  0  0  0  0  0  0
  188.5310  177.7630  145.7270 C   0  0  0  0  0  2  0  0  0  0  0  0
  188.0540  177.8240  140.8630 N   0  0  0  0  0  0  0  0  0  0  0  0
  190.0650  176.4620  141.9990 O   0  0  0  0  0  0  0  0  0  0  0  0
  190.7890  177.2820  147.8650 C   0  0  0  0  0  1  0  0  0  0  0  0
  188.1780  177.3340  143.2320 C   0  0  0  0  0  0  0  0  0  0  0  0
  189.8680  177.1120  145.5420 C   0  0  0  0  0  0  0  0  0  0  0  0
  184.0670  177.3910  137.0290 N   0  0  0  0  0  2  0  0  0  0  0  0
  183.8390  175.9770  137.0720 C   0  0  0  0  0  0  0  0  0  0  0  0
  184.7000  175.1900  137.5470 O   0  0  0  0  0  0  0  0  0  0  0  0
  182.5640  175.4300  136.5440 C   0  0  0  0  0  1  0  0  0  0  0  0
  1 16  1  0  0  0  0
  1 20  2  0  0  0  0
  2 12  1  0  0  0  0
  2 27  2  0  0  0  0
  3  4  1  0  0  0  0
  5 27  1  0  0  0  0
  5  6  1  0  0  0  0
  6 18  1  0  0  0  0
  6 28  2  0  0  0  0
  7 17  1  0  0  0  0
  7 24  2  0  0  0  0
  8 12  1  0  0  0  0
  9 26  1  0  0  0  0
 11  3  2  0  0  0  0
 12 13  2  0  0  0  0
 13 11  1  0  0  0  0
 13 22  1  0  0  0  0
 14 22  1  0  0  0  0
 14 23  1  1  0  0  0
 15  9  1  0  0  0  0
 16 19  1  0  0  0  0
 17 10  1  6  0  0  0
 17  8  1  0  0  0  0
 18 15  2  0  0  0  0
 19  7  1  0  0  0  0
 20 10  1  0  0  0  0
 21  4  2  0  0  0  0
 22 21  1  0  0  0  0
 24  2  1  0  0  0  0
 25  5  2  0  0  0  0
 27 14  1  0  0  0  0
 28 23  1  0  0  0  0
 28  9  1  0  0  0  0
 29 30  1  0  0  0  0
 29 20  1  0  0  0  0
 30 31  2  0  0  0  0
 32 30  1  0  0  0  0
M  END
>  <MODEL>
2

>  <REMARK>
 VINA RESULT:     -10.1      2.755      3.593
  Name = 
  1 active torsions:
  status: ('A' for Active; 'I' for Inactive)
    1  A    between atoms: C_20  and  N_29
                            x       y       z     vdW  Elec       q    Type
                         _______ _______ _______ _____ _____    ______ ____

>  <TORSDO>
F 1

$$$$
=
 OpenBabel11122410453D

 32 37  0  0  1  0  0  0  0  0999 V2000
  188.8040  177.0690  136.9760 C   0  0  0  0  0  3  0  0  0  0  0  0
  187.7740  177.7260  142.2790 C   0  0  0  0  0  0  0  0  0  0  0  0
  183.1970  179.1730  143.2090 C   0  0  0  0  0  3  0  0  0  0  0  0
  183.3870  178.7720  144.6150 C   0  0  0  0  0  3  0  0  0  0  0  0
  189.3380  176.9400  144.0540 C   0  0  0  0  0  0  0  0  0  0  0  0
  189.5910  177.0340  145.4920 C   0  0  0  0  0  0  0  0  0  0  0  0
  188.5970  177.6690  140.0060 C   0  0  0  0  0  0  0  0  0  0  0  0
  186.3250  178.6890  140.4170 C   0  0  0  0  0  2  0  0  0  0  0  0
  189.2270  177.5660  147.5790 N   0  0  0  0  0  0  0  0  0  0  0  0
  187.0170  178.3170  138.0710 C   0  0  0  0  0  2  0  0  0  0  0  0
  184.1780  179.0270  142.3170 C   0  0  0  0  0  3  0  0  0  0  0  0
  186.4630  178.2590  141.8500 C   0  0  0  0  0  0  0  0  0  0  0  0
  185.4770  178.4610  142.7350 C   0  0  0  0  0  0  0  0  0  0  0  0
  186.9000  177.5110  144.6200 C   0  0  2  0  0  3  0  0  0  0  0  0
  190.4510  177.0120  147.4380 C   0  0  0  0  0  3  0  0  0  0  0  0
  189.7850  177.8510  137.7860 C   0  0  0  0  0  2  0  0  0  0  0  0
  187.1610  177.8050  139.4970 C   0  0  1  0  0  3  0  0  0  0  0  0
  190.7100  176.6700  146.1510 N   0  0  0  0  0  0  0  0  0  0  0  0
  189.7120  177.5010  139.1650 O   0  0  0  0  0  0  0  0  0  0  0  0
  187.4980  177.2870  137.0980 C   0  0  0  0  0  0  0  0  0  0  0  0
  184.5550  178.2760  145.0320 C   0  0  0  0  0  3  0  0  0  0  0  0
  185.6640  178.1300  144.1260 N   0  0  0  0  0  0  0  0  0  0  0  0
  187.3830  178.1770  145.9270 C   0  0  0  0  0  2  0  0  0  0  0  0
  188.8070  177.5920  141.2890 N   0  0  0  0  0  0  0  0  0  0  0  0
  190.2180  176.4790  143.2790 O   0  0  0  0  0  0  0  0  0  0  0  0
  188.6450  178.0760  148.8080 C   0  0  0  0  0  1  0  0  0  0  0  0
  188.0090  177.4160  143.5690 C   0  0  0  0  0  0  0  0  0  0  0  0
  188.6840  177.5680  146.3560 C   0  0  0  0  0  0  0  0  0  0  0  0
  186.5910  176.4920  136.3230 N   0  0  0  0  0  2  0  0  0  0  0  0
  186.2630  175.1150  136.5430 C   0  0  0  0  0  0  0  0  0  0  0  0
  186.7780  174.4640  137.4900 O   0  0  0  0  0  0  0  0  0  0  0  0
  185.2970  174.4430  135.6370 C   0  0  0  0  0  1  0  0  0  0  0  0
  1 20  2  0  0  0  0
  1 16  1  0  0  0  0
  2 27  2  0  0  0  0
  3  4  1  0  0  0  0
  4 21  2  0  0  0  0
  5  6  1  0  0  0  0
  6 18  1  0  0  0  0
  6 28  2  0  0  0  0
  7 24  2  0  0  0  0
  8 12  1  0  0  0  0
  9 26  1  0  0  0  0
 11 13  1  0  0  0  0
 11  3  2  0  0  0  0
 12  2  1  0  0  0  0
 12 13  2  0  0  0  0
 13 22  1  0  0  0  0
 14 23  1  1  0  0  0
 15  9  1  0  0  0  0
 16 19  1  0  0  0  0
 17 10  1  6  0  0  0
 17  7  1  0  0  0  0
 17  8  1  0  0  0  0
 18 15  2  0  0  0  0
 19  7  1  0  0  0  0
 20 10  1  0  0  0  0
 22 14  1  0  0  0  0
 22 21  1  0  0  0  0
 23 28  1  0  0  0  0
 24  2  1  0  0  0  0
 25  5  2  0  0  0  0
 27  5  1  0  0  0  0
 27 14  1  0  0  0  0
 28  9  1  0  0  0  0
 29 30  1  0  0  0  0
 29 20  1  0  0  0  0
 30 31  2  0  0  0  0
 32 30  1  0  0  0  0
M  END
>  <MODEL>
3

>  <REMARK>
 VINA RESULT:     -10.1      1.798      2.254
  Name = 
  1 active torsions:
  status: ('A' for Active; 'I' for Inactive)
    1  A    between atoms: C_20  and  N_29
                            x       y       z     vdW  Elec       q    Type
                         _______ _______ _______ _____ _____    ______ ____

>  <TORSDO>
F 1

$$$$
=
 OpenBabel11122410453D

 32 37  0  0  1  0  0  0  0  0999 V2000
  179.6730  179.6810  142.9010 C   0  0  0  0  0  3  0  0  0  0  0  0
  184.8880  178.4200  143.8090 C   0  0  0  0  0  0  0  0  0  0  0  0
  187.5800  178.2110  139.7330 C   0  0  0  0  0  3  0  0  0  0  0  0
  188.7940  178.2850  140.5650 C   0  0  0  0  0  3  0  0  0  0  0  0
  185.8820  178.3970  146.0960 C   0  0  0  0  0  0  0  0  0  0  0  0
  187.0780  177.9810  146.8290 C   0  0  0  0  0  0  0  0  0  0  0  0
  182.4850  178.6400  143.6740 C   0  0  0  0  0  0  0  0  0  0  0  0
  183.7610  178.2610  141.5300 C   0  0  0  0  0  2  0  0  0  0  0  0
  189.1010  177.2160  147.1310 N   0  0  0  0  0  0  0  0  0  0  0  0
  181.3590  178.8260  141.3600 C   0  0  0  0  0  2  0  0  0  0  0  0
  186.3670  178.2240  140.2880 C   0  0  0  0  0  3  0  0  0  0  0  0
  185.0230  178.3720  142.3380 C   0  0  0  0  0  0  0  0  0  0  0  0
  186.2290  178.3090  141.7570 C   0  0  0  0  0  0  0  0  0  0  0  0
  187.3880  178.4610  144.0180 C   0  0  2  0  0  3  0  0  0  0  0  0
  188.4870  177.4100  148.3180 C   0  0  0  0  0  3  0  0  0  0  0  0
  179.9660  178.5190  143.7930 C   0  0  0  0  0  2  0  0  0  0  0  0
  182.6150  179.0150  142.1970 C   0  0  1  0  0  3  0  0  0  0  0  0
  187.2250  177.8850  148.1660 N   0  0  0  0  0  0  0  0  0  0  0  0
  181.2630  178.6260  144.3720 O   0  0  0  0  0  0  0  0  0  0  0  0
  180.3200  179.8300  141.7500 C   0  0  0  0  0  0  0  0  0  0  0  0
  188.7070  178.3420  141.8970 C   0  0  0  0  0  3  0  0  0  0  0  0
  187.4280  178.3210  142.5570 N   0  0  0  0  0  0  0  0  0  0  0  0
  188.3450  177.4630  144.7090 C   0  0  0  0  0  2  0  0  0  0  0  0
  183.5650  178.4250  144.3680 N   0  0  0  0  0  0  0  0  0  0  0  0
  184.8310  178.7150  146.7150 O   0  0  0  0  0  0  0  0  0  0  0  0
  190.4380  176.6850  146.9260 C   0  0  0  0  0  1  0  0  0  0  0  0
  185.9750  178.4170  144.6070 C   0  0  0  0  0  0  0  0  0  0  0  0
  188.2180  177.5860  146.1970 C   0  0  0  0  0  0  0  0  0  0  0  0
  180.0290  180.9760  140.9380 N   0  0  0  0  0  2  0  0  0  0  0  0
  179.3490  180.9760  139.6780 C   0  0  0  0  0  0  0  0  0  0  0  0
  178.9320  179.9060  139.1590 O   0  0  0  0  0  0  0  0  0  0  0  0
  179.1320  182.2620  138.9680 C   0  0  0  0  0  1  0  0  0  0  0  0
  1 16  1  0  0  0  0
  2 24  1  0  0  0  0
  2 27  2  0  0  0  0
  3 11  2  0  0  0  0
  3  4  1  0  0  0  0
  4 21  2  0  0  0  0
  5 25  2  0  0  0  0
  5  6  1  0  0  0  0
  6 18  1  0  0  0  0
  7 24  2  0  0  0  0
  7 19  1  0  0  0  0
  8 17  1  0  0  0  0
  8 12  1  0  0  0  0
  9 15  1  0  0  0  0
 10 20  1  0  0  0  0
 11 13  1  0  0  0  0
 12  2  1  0  0  0  0
 13 12  2  0  0  0  0
 13 22  1  0  0  0  0
 14 27  1  0  0  0  0
 14 23  1  1  0  0  0
 16 19  1  0  0  0  0
 17 10  1  6  0  0  0
 17  7  1  0  0  0  0
 18 15  2  0  0  0  0
 20  1  2  0  0  0  0
 21 22  1  0  0  0  0
 22 14  1  0  0  0  0
 23 28  1  0  0  0  0
 26  9  1  0  0  0  0
 27  5  1  0  0  0  0
 28  6  2  0  0  0  0
 28  9  1  0  0  0  0
 29 20  1  0  0  0  0
 30 29  1  0  0  0  0
 31 30  2  0  0  0  0
 32 30  1  0  0  0  0
M  END
>  <MODEL>
4

>  <REMARK>
 VINA RESULT:      -9.8      4.525      7.736
  Name = 
  1 active torsions:
  status: ('A' for Active; 'I' for Inactive)
    1  A    between atoms: C_20  and  N_29
                            x       y       z     vdW  Elec       q    Type
                         _______ _______ _______ _____ _____    ______ ____

>  <TORSDO>
F 1

$$$$
=
 OpenBabel11122410453D

 32 37  0  0  1  0  0  0  0  0999 V2000
  179.2830  179.9850  138.4370 C   0  0  0  0  0  3  0  0  0  0  0  0
  183.8150  178.8060  141.2080 C   0  0  0  0  0  0  0  0  0  0  0  0
  187.7220  178.1180  138.3500 C   0  0  0  0  0  3  0  0  0  0  0  0
  188.5820  178.2790  139.5360 C   0  0  0  0  0  3  0  0  0  0  0  0
  183.9680  179.0370  143.6860 C   0  0  0  0  0  0  0  0  0  0  0  0
  184.8230  178.7000  144.8250 C   0  0  0  0  0  0  0  0  0  0  0  0
  181.6130  179.0230  140.2340 C   0  0  0  0  0  0  0  0  0  0  0  0
  183.5260  178.3940  138.7110 C   0  0  0  0  0  2  0  0  0  0  0  0
  186.5860  177.9630  145.8820 N   0  0  0  0  0  0  0  0  0  0  0  0
  181.3530  178.9500  137.6670 C   0  0  0  0  0  2  0  0  0  0  0  0
  186.3940  178.2010  138.4500 C   0  0  0  0  0  3  0  0  0  0  0  0
  184.4400  178.5900  139.8860 C   0  0  0  0  0  0  0  0  0  0  0  0
  185.7680  178.4530  139.7640 C   0  0  0  0  0  0  0  0  0  0  0  0
  186.0930  178.8550  142.2570 C   0  0  2  0  0  3  0  0  0  0  0  0
  185.6140  178.2950  146.7580 C   0  0  0  0  0  3  0  0  0  0  0  0
  179.2020  178.9310  139.4920 C   0  0  0  0  0  2  0  0  0  0  0  0
  182.2560  179.2260  138.8600 C   0  0  1  0  0  3  0  0  0  0  0  0
  184.5020  178.7570  146.1330 N   0  0  0  0  0  0  0  0  0  0  0  0
  180.2280  179.0960  140.4660 O   0  0  0  0  0  0  0  0  0  0  0  0
  180.2890  179.9990  137.5690 C   0  0  0  0  0  0  0  0  0  0  0  0
  188.0490  178.4870  140.7430 C   0  0  0  0  0  3  0  0  0  0  0  0
  186.6230  178.5490  140.9220 N   0  0  0  0  0  0  0  0  0  0  0  0
  186.7120  177.9370  143.3350 C   0  0  0  0  0  2  0  0  0  0  0  0
  182.3820  178.8820  141.2750 N   0  0  0  0  0  0  0  0  0  0  0  0
  182.7850  179.4300  143.8690 O   0  0  0  0  0  0  0  0  0  0  0  0
  187.8880  177.4050  146.2040 C   0  0  0  0  0  1  0  0  0  0  0  0
  184.5640  178.8870  142.3260 C   0  0  0  0  0  0  0  0  0  0  0  0
  186.0910  178.2300  144.6670 C   0  0  0  0  0  0  0  0  0  0  0  0
  180.3430  181.0460  136.5910 N   0  0  0  0  0  2  0  0  0  0  0  0
  180.8180  182.3810  136.8000 C   0  0  0  0  0  0  0  0  0  0  0  0
  181.2480  182.7540  137.9230 O   0  0  0  0  0  0  0  0  0  0  0  0
  180.8010  183.3440  135.6700 C   0  0  0  0  0  1  0  0  0  0  0  0
  1 16  1  0  0  0  0
  2 24  1  0  0  0  0
  2 27  2  0  0  0  0
  3 11  2  0  0  0  0
  3  4  1  0  0  0  0
  4 21  2  0  0  0  0
  5 25  2  0  0  0  0
  5  6  1  0  0  0  0
  6 18  1  0  0  0  0
  7 19  1  0  0  0  0
  7 24  2  0  0  0  0
  8 17  1  0  0  0  0
  8 12  1  0  0  0  0
  9 26  1  0  0  0  0
  9 15  1  0  0  0  0
 11 13  1  0  0  0  0
 12  2  1  0  0  0  0
 13 12  2  0  0  0  0
 13 22  1  0  0  0  0
 14 27  1  0  0  0  0
 14 23  1  1  0  0  0
 16 19  1  0  0  0  0
 17 10  1  6  0  0  0
 17  7  1  0  0  0  0
 18 15  2  0  0  0  0
 20 10  1  0  0  0  0
 20  1  2  0  0  0  0
 21 22  1  0  0  0  0
 22 14  1  0  0  0  0
 23 28  1  0  0  0  0
 27  5  1  0  0  0  0
 28  6  2  0  0  0  0
 28  9  1  0  0  0  0
 29 30  1  0  0  0  0
 29 20  1  0  0  0  0
 30 31  2  0  0  0  0
 32 30  1  0  0  0  0
M  END
>  <MODEL>
5

>  <REMARK>
 VINA RESULT:      -9.6      5.314      7.957
  Name = 
  1 active torsions:
  status: ('A' for Active; 'I' for Inactive)
    1  A    between atoms: C_20  and  N_29
                            x       y       z     vdW  Elec       q    Type
                         _______ _______ _______ _____ _____    ______ ____

>  <TORSDO>
F 1

$$$$
=
 OpenBabel11122410453D

 32 37  0  0  1  0  0  0  0  0999 V2000
  181.6860  178.3760  138.5590 C   0  0  0  0  0  3  0  0  0  0  0  0
  185.8870  178.2420  142.0160 C   0  0  0  0  0  0  0  0  0  0  0  0
  184.5500  178.4640  146.7140 C   0  0  0  0  0  3  0  0  0  0  0  0
  185.8920  177.9830  147.0890 C   0  0  0  0  0  3  0  0  0  0  0  0
  188.2030  177.6760  141.2880 C   0  0  0  0  0  0  0  0  0  0  0  0
  189.5920  177.6850  141.7500 C   0  0  0  0  0  0  0  0  0  0  0  0
  184.2590  178.6060  140.2660 C   0  0  0  0  0  0  0  0  0  0  0  0
  183.5430  179.0130  142.6520 C   0  0  0  0  0  2  0  0  0  0  0  0
  191.2580  177.9070  143.1440 N   0  0  0  0  0  0  0  0  0  0  0  0
  181.7970  179.0510  140.9000 C   0  0  0  0  0  2  0  0  0  0  0  0
  184.2200  178.6440  145.4340 C   0  0  0  0  0  3  0  0  0  0  0  0
  184.8860  178.4890  143.0760 C   0  0  0  0  0  0  0  0  0  0  0  0
  185.2070  178.3630  144.3710 C   0  0  0  0  0  0  0  0  0  0  0  0
  187.5580  177.5950  143.7710 C   0  0  2  0  0  3  0  0  0  0  0  0
  191.7150  177.6750  141.8950 C   0  0  0  0  0  3  0  0  0  0  0  0
  182.8410  179.2830  138.2900 C   0  0  0  0  0  2  0  0  0  0  0  0
  183.1380  178.4490  141.2940 C   0  0  1  0  0  3  0  0  0  0  0  0
  190.7030  177.5330  141.0010 N   0  0  0  0  0  0  0  0  0  0  0  0
  184.0360  178.7910  138.8900 O   0  0  0  0  0  0  0  0  0  0  0  0
  181.1830  178.2640  139.7840 C   0  0  0  0  0  0  0  0  0  0  0  0
  186.8160  177.7390  146.1550 C   0  0  0  0  0  3  0  0  0  0  0  0
  186.5320  177.9500  144.7600 N   0  0  0  0  0  0  0  0  0  0  0  0
  188.9250  178.2240  144.1230 C   0  0  0  0  0  2  0  0  0  0  0  0
  185.4940  178.4540  140.6510 N   0  0  0  0  0  0  0  0  0  0  0  0
  187.9370  177.5160  140.0660 O   0  0  0  0  0  0  0  0  0  0  0  0
  192.0630  178.1400  144.3300 C   0  0  0  0  0  1  0  0  0  0  0  0
  187.1460  177.8700  142.3220 C   0  0  0  0  0  0  0  0  0  0  0  0
  189.9230  177.9010  143.0530 C   0  0  0  0  0  0  0  0  0  0  0  0
  180.0940  177.3590  140.0030 N   0  0  0  0  0  2  0  0  0  0  0  0
  180.1650  175.9280  140.0150 C   0  0  0  0  0  0  0  0  0  0  0  0
  181.2550  175.3260  139.8220 O   0  0  0  0  0  0  0  0  0  0  0  0
  178.9310  175.1400  140.2570 C   0  0  0  0  0  1  0  0  0  0  0  0
  1 20  2  0  0  0  0
  2 27  2  0  0  0  0
  2 12  1  0  0  0  0
  3  4  1  0  0  0  0
  5  6  1  0  0  0  0
  5 27  1  0  0  0  0
  6 28  2  0  0  0  0
  7 24  2  0  0  0  0
  7 17  1  0  0  0  0
  8 12  1  0  0  0  0
  9 26  1  0  0  0  0
 11  3  2  0  0  0  0
 12 13  2  0  0  0  0
 13 22  1  0  0  0  0
 13 11  1  0  0  0  0
 14 23  1  1  0  0  0
 14 22  1  0  0  0  0
 15  9  1  0  0  0  0
 16  1  1  0  0  0  0
 16 19  1  0  0  0  0
 17 10  1  6  0  0  0
 17  8  1  0  0  0  0
 18  6  1  0  0  0  0
 18 15  2  0  0  0  0
 19  7  1  0  0  0  0
 20 29  1  0  0  0  0
 20 10  1  0  0  0  0
 21  4  2  0  0  0  0
 22 21  1  0  0  0  0
 24  2  1  0  0  0  0
 25  5  2  0  0  0  0
 27 14  1  0  0  0  0
 28  9  1  0  0  0  0
 28 23  1  0  0  0  0
 29 30  1  0  0  0  0
 30 32  1  0  0  0  0
 31 30  2  0  0  0  0
M  END
>  <MODEL>
6

>  <REMARK>
 VINA RESULT:      -9.1      3.762      6.484
  Name = 
  1 active torsions:
  status: ('A' for Active; 'I' for Inactive)
    1  A    between atoms: C_20  and  N_29
                            x       y       z     vdW  Elec       q    Type
                         _______ _______ _______ _____ _____    ______ ____

>  <TORSDO>
F 1

$$$$
=
 OpenBabel11122410453D

 32 37  0  0  1  0  0  0  0  0999 V2000
  180.2400  179.9110  140.0390 C   0  0  0  0  0  3  0  0  0  0  0  0
  185.4200  178.4310  140.8010 C   0  0  0  0  0  0  0  0  0  0  0  0
  188.0360  178.3040  136.6720 C   0  0  0  0  0  3  0  0  0  0  0  0
  189.2660  178.3000  137.4850 C   0  0  0  0  0  3  0  0  0  0  0  0
  186.4490  178.2740  143.0660 C   0  0  0  0  0  0  0  0  0  0  0  0
  187.6410  177.7840  143.7600 C   0  0  0  0  0  0  0  0  0  0  0  0
  183.0240  178.7400  140.7180 C   0  0  0  0  0  0  0  0  0  0  0  0
  184.2520  178.4100  138.5370 C   0  0  0  0  0  2  0  0  0  0  0  0
  189.6400  176.9370  143.9930 N   0  0  0  0  0  0  0  0  0  0  0  0
  181.8690  179.0660  138.4330 C   0  0  0  0  0  2  0  0  0  0  0  0
  186.8340  178.3360  137.2490 C   0  0  0  0  0  3  0  0  0  0  0  0
  185.5290  178.4420  139.3260 C   0  0  0  0  0  0  0  0  0  0  0  0
  186.7220  178.3610  138.7220 C   0  0  0  0  0  0  0  0  0  0  0  0
  187.9230  178.3740  140.9670 C   0  0  2  0  0  3  0  0  0  0  0  0
  189.0530  177.1010  145.1980 C   0  0  0  0  0  3  0  0  0  0  0  0
  180.5050  178.7030  140.8760 C   0  0  0  0  0  2  0  0  0  0  0  0
  183.1440  179.1740  139.2550 C   0  0  1  0  0  3  0  0  0  0  0  0
  187.8060  177.6260  145.0880 N   0  0  0  0  0  0  0  0  0  0  0  0
  181.8150  178.7390  141.4350 O   0  0  0  0  0  0  0  0  0  0  0  0
  180.8720  180.0880  138.8840 C   0  0  0  0  0  0  0  0  0  0  0  0
  189.2020  178.3010  138.8190 C   0  0  0  0  0  3  0  0  0  0  0  0
  187.9350  178.2960  139.5000 N   0  0  0  0  0  0  0  0  0  0  0  0
  188.8540  177.3150  141.5970 C   0  0  0  0  0  2  0  0  0  0  0  0
  184.1070  178.4580  141.3830 N   0  0  0  0  0  0  0  0  0  0  0  0
  185.4200  178.6010  143.7160 O   0  0  0  0  0  0  0  0  0  0  0  0
  190.9540  176.3690  143.7410 C   0  0  0  0  0  1  0  0  0  0  0  0
  186.5190  178.3540  141.5780 C   0  0  0  0  0  0  0  0  0  0  0  0
  188.7560  177.3780  143.0910 C   0  0  0  0  0  0  0  0  0  0  0  0
  180.6090  181.2770  138.1280 N   0  0  0  0  0  2  0  0  0  0  0  0
  181.4560  182.4290  138.0310 C   0  0  0  0  0  0  0  0  0  0  0  0
  182.5580  182.4830  138.6380 O   0  0  0  0  0  0  0  0  0  0  0  0
  181.0250  183.5800  137.1980 C   0  0  0  0  0  1  0  0  0  0  0  0
  1 16  1  0  0  0  0
  2 24  1  0  0  0  0
  2 27  2  0  0  0  0
  3 11  2  0  0  0  0
  3  4  1  0  0  0  0
  4 21  2  0  0  0  0
  5 25  2  0  0  0  0
  5  6  1  0  0  0  0
  6 18  1  0  0  0  0
  7 24  2  0  0  0  0
  7 19  1  0  0  0  0
  8 17  1  0  0  0  0
  8 12  1  0  0  0  0
  9 15  1  0  0  0  0
 10 20  1  0  0  0  0
 11 13  1  0  0  0  0
 12  2  1  0  0  0  0
 13 12  2  0  0  0  0
 13 22  1  0  0  0  0
 14 27  1  0  0  0  0
 14 23  1  1  0  0  0
 16 19  1  0  0  0  0
 17 10  1  6  0  0  0
 17  7  1  0  0  0  0
 18 15  2  0  0  0  0
 20  1  2  0  0  0  0
 21 22  1  0  0  0  0
 22 14  1  0  0  0  0
 23 28  1  0  0  0  0
 26  9  1  0  0  0  0
 27  5  1  0  0  0  0
 28  6  2  0  0  0  0
 28  9  1  0  0  0  0
 29 20  1  0  0  0  0
 30 29  1  0  0  0  0
 30 31  2  0  0  0  0
 32 30  1  0  0  0  0
M  END
>  <MODEL>
7

>  <REMARK>
 VINA RESULT:      -9.0      4.524      7.375
  Name = 
  1 active torsions:
  status: ('A' for Active; 'I' for Inactive)
    1  A    between atoms: C_20  and  N_29
                            x       y       z     vdW  Elec       q    Type
                         _______ _______ _______ _____ _____    ______ ____

>  <TORSDO>
F 1

$$$$
=
 OpenBabel11122410453D

 32 37  0  0  1  0  0  0  0  0999 V2000
  188.2000  177.5660  147.5860 C   0  0  0  0  0  3  0  0  0  0  0  0
  185.9830  178.4250  142.6910 C   0  0  0  0  0  0  0  0  0  0  0  0
  189.2200  178.2530  139.0300 C   0  0  0  0  0  3  0  0  0  0  0  0
  188.0980  178.1110  138.0840 C   0  0  0  0  0  3  0  0  0  0  0  0
  183.5170  178.4560  142.3240 C   0  0  0  0  0  0  0  0  0  0  0  0
  182.5040  178.8000  141.3260 C   0  0  0  0  0  0  0  0  0  0  0  0
  186.7370  178.4000  144.9880 C   0  0  0  0  0  0  0  0  0  0  0  0
  188.4800  178.5890  143.1720 C   0  0  0  0  0  2  0  0  0  0  0  0
  181.6980  179.4070  139.3890 N   0  0  0  0  0  0  0  0  0  0  0  0
  189.2620  178.2180  145.4890 C   0  0  0  0  0  2  0  0  0  0  0  0
  189.0000  178.3620  140.3410 C   0  0  0  0  0  3  0  0  0  0  0  0
  187.3700  178.4050  142.1770 C   0  0  0  0  0  0  0  0  0  0  0  0
  187.6170  178.3460  140.8610 C   0  0  0  0  0  0  0  0  0  0  0  0
  185.1290  178.1870  140.3450 C   0  0  2  0  0  3  0  0  0  0  0  0
  180.7090  179.3100  140.3040 C   0  0  0  0  0  3  0  0  0  0  0  0
  187.2810  178.7330  147.4310 C   0  0  0  0  0  2  0  0  0  0  0  0
  188.1230  177.9590  144.5140 C   0  0  1  0  0  3  0  0  0  0  0  0
  181.1770  178.9360  141.5210 N   0  0  0  0  0  0  0  0  0  0  0  0
  186.3830  178.5420  146.3410 O   0  0  0  0  0  0  0  0  0  0  0  0
  189.1400  177.3190  146.6800 C   0  0  0  0  0  0  0  0  0  0  0  0
  186.8350  178.1140  138.5170 C   0  0  0  0  0  3  0  0  0  0  0  0
  186.5310  178.2660  139.9150 N   0  0  0  0  0  0  0  0  0  0  0  0
  184.2290  179.1280  139.5130 C   0  0  0  0  0  2  0  0  0  0  0  0
  185.7890  178.5520  144.1090 N   0  0  0  0  0  0  0  0  0  0  0  0
  183.1890  178.2500  143.5240 O   0  0  0  0  0  0  0  0  0  0  0  0
  181.5560  179.8160  138.0030 C   0  0  0  0  0  1  0  0  0  0  0  0
  184.9300  178.3710  141.8510 C   0  0  0  0  0  0  0  0  0  0  0  0
  182.8240  179.0740  140.0310 C   0  0  0  0  0  0  0  0  0  0  0  0
  189.9810  176.1700  146.8530 N   0  0  0  0  0  2  0  0  0  0  0  0
  191.3270  176.1660  147.3440 C   0  0  0  0  0  0  0  0  0  0  0  0
  191.9040  177.2350  147.6790 O   0  0  0  0  0  0  0  0  0  0  0  0
  192.0560  174.8780  147.4590 C   0  0  0  0  0  1  0  0  0  0  0  0
  2 24  1  0  0  0  0
  3 11  2  0  0  0  0
  4 21  2  0  0  0  0
  4  3  1  0  0  0  0
  5 25  2  0  0  0  0
  6 18  1  0  0  0  0
  6  5  1  0  0  0  0
  7 19  1  0  0  0  0
  9 28  1  0  0  0  0
  9 15  1  0  0  0  0
 10 20  1  0  0  0  0
 11 13  1  0  0  0  0
 12  2  1  0  0  0  0
 12  8  1  0  0  0  0
 13 12  2  0  0  0  0
 14 23  1  6  0  0  0
 14 27  1  0  0  0  0
 15 18  2  0  0  0  0
 16  1  1  0  0  0  0
 17  8  1  6  0  0  0
 17  7  1  0  0  0  0
 17 10  1  0  0  0  0
 19 16  1  0  0  0  0
 20 29  1  0  0  0  0
 20  1  2  0  0  0  0
 21 22  1  0  0  0  0
 22 14  1  0  0  0  0
 22 13  1  0  0  0  0
 23 28  1  0  0  0  0
 24  7  2  0  0  0  0
 26  9  1  0  0  0  0
 27  5  1  0  0  0  0
 27  2  2  0  0  0  0
 28  6  2  0  0  0  0
 29 30  1  0  0  0  0
 30 32  1  0  0  0  0
 30 31  2  0  0  0  0
M  END
>  <MODEL>
8

>  <REMARK>
 VINA RESULT:      -8.3      3.463      8.522
  Name = 
  1 active torsions:
  status: ('A' for Active; 'I' for Inactive)
    1  A    between atoms: C_20  and  N_29
                            x       y       z     vdW  Elec       q    Type
                         _______ _______ _______ _____ _____    ______ ____

>  <TORSDO>
F 1

$$$$
