=
 OpenBabel11122410223D

 30 35  0  0  1  0  0  0  0  0999 V2000
  189.2430  177.4520  143.4920 C   0  0  1  0  0  3  0  0  0  0  0  0
  191.2330  176.5060  144.7950 C   0  0  0  0  0  0  0  0  0  0  0  0
  187.0750  177.9310  147.2190 C   0  0  0  0  0  2  0  0  0  0  0  0
  187.9730  178.3170  143.6610 C   0  0  1  0  0  3  0  0  0  0  0  0
  190.0770  178.0380  142.5200 O   0  0  0  0  0  0  0  0  0  0  0  0
  187.5280  178.4940  140.0470 O   0  0  0  0  0  0  0  0  0  0  0  0
  184.8670  177.9750  142.8090 C   0  0  1  0  0  3  0  0  0  0  0  0
  188.0470  178.2640  141.1730 C   0  0  0  0  0  0  0  0  0  0  0  0
  184.6690  177.9640  144.3240 C   0  0  2  0  0  3  0  0  0  0  0  0
  185.8060  178.3060  146.5450 C   0  0  0  0  0  0  0  0  0  0  0  0
  189.4920  177.8250  141.2450 C   0  0  2  0  0  3  0  0  0  0  0  0
  187.2670  178.3860  142.3780 N   0  0  0  0  0  0  0  0  0  0  0  0
  191.8260  176.1350  146.0040 C   0  0  0  0  0  3  0  0  0  0  0  0
  183.5380  178.9370  144.5810 C   0  0  0  0  0  2  0  0  0  0  0  0
  183.5100  178.3320  142.2240 C   0  0  0  0  0  2  0  0  0  0  0  0
  191.9010  176.2390  143.6060 O   0  0  0  0  0  1  0  0  0  0  0  0
  188.0100  178.0380  146.0400 C   0  0  2  0  0  3  0  0  0  0  0  0
  191.1540  176.3730  147.2030 C   0  0  0  0  0  3  0  0  0  0  0  0
  189.9750  177.1330  144.7930 C   0  0  0  0  0  0  0  0  0  0  0  0
  187.1790  177.7080  144.8150 C   0  0  1  0  0  3  0  0  0  0  0  0
  184.7530  178.5720  147.1840 O   0  0  0  0  0  0  0  0  0  0  0  0
  185.8680  178.2760  145.1130 N   0  0  0  0  0  0  0  0  0  0  0  0
  182.6360  178.8140  143.3720 C   0  0  0  0  0  2  0  0  0  0  0  0
  185.8500  180.3670  142.8300 C   0  0  0  0  0  1  0  0  0  0  0  0
  189.9260  176.9540  147.1950 N   0  0  0  0  0  0  0  0  0  0  0  0
  189.3130  177.3060  146.0330 C   0  0  0  0  0  0  0  0  0  0  0  0
  185.9230  178.9460  142.2760 C   0  0  2  0  0  3  0  0  0  0  0  0
  189.6550  176.3830  140.7770 C   0  0  0  0  0  2  0  0  0  0  0  0
  190.0350  176.3790  138.6050 C   0  0  0  0  0  1  0  0  0  0  0  0
  190.6830  176.3030  139.8360 O   0  0  0  0  0  0  0  0  0  0  0  0
  1  5  1  6  0  0  0
  1  4  1  0  0  0  0
  1 19  1  0  0  0  0
  2 13  1  0  0  0  0
  4 12  1  6  0  0  0
  4 20  1  0  0  0  0
  6  8  2  0  0  0  0
  7 15  1  6  0  0  0
  7  9  1  0  0  0  0
  8 11  1  0  0  0  0
  8 12  1  0  0  0  0
  9 14  1  6  0  0  0
  9 22  1  0  0  0  0
 10 21  2  0  0  0  0
 10  3  1  0  0  0  0
 11 28  1  1  0  0  0
 11  5  1  0  0  0  0
 13 18  2  0  0  0  0
 15 23  1  0  0  0  0
 16  2  1  0  0  0  0
 17  3  1  1  0  0  0
 19  2  2  0  0  0  0
 19 26  1  0  0  0  0
 20 22  1  1  0  0  0
 20 17  1  0  0  0  0
 22 10  1  0  0  0  0
 23 14  1  0  0  0  0
 25 18  1  0  0  0  0
 26 17  1  0  0  0  0
 26 25  2  0  0  0  0
 27 12  1  0  0  0  0
 27  7  1  0  0  0  0
 27 24  1  1  0  0  0
 29 30  1  0  0  0  0
 30 28  1  0  0  0  0
M  END
>  <MODEL>
1

>  <REMARK>
 VINA RESULT:      -9.1      0.000      0.000
  Name = 
  2 active torsions:
  status: ('A' for Active; 'I' for Inactive)
    1  A    between atoms: C_11  and  C_28
    2  A    between atoms: C_28  and  O_30
                            x       y       z     vdW  Elec       q    Type
                         _______ _______ _______ _____ _____    ______ ____

>  <TORSDO>
F 2

$$$$
=
 OpenBabel11122410223D

 30 35  0  0  1  0  0  0  0  0999 V2000
  187.2670  178.1970  140.5030 C   0  0  1  0  0  3  0  0  0  0  0  0
  184.9760  178.9650  139.6590 C   0  0  0  0  0  0  0  0  0  0  0  0
  185.6690  177.9740  144.5300 C   0  0  0  0  0  2  0  0  0  0  0  0
  187.9510  177.4590  141.6770 C   0  0  1  0  0  3  0  0  0  0  0  0
  187.5540  177.5210  139.3010 O   0  0  0  0  0  0  0  0  0  0  0  0
  191.0870  177.2800  139.8270 O   0  0  0  0  0  0  0  0  0  0  0  0
  190.5050  178.0860  143.5670 C   0  0  1  0  0  3  0  0  0  0  0  0
  189.8690  177.4730  140.0890 C   0  0  0  0  0  0  0  0  0  0  0  0
  189.4290  178.1350  144.6500 C   0  0  2  0  0  3  0  0  0  0  0  0
  186.9960  177.7130  145.1460 C   0  0  0  0  0  0  0  0  0  0  0  0
  188.9080  177.7730  138.9620 C   0  0  2  0  0  3  0  0  0  0  0  0
  189.3990  177.4420  141.4510 N   0  0  0  0  0  0  0  0  0  0  0  0
  183.6400  179.2930  139.9030 C   0  0  0  0  0  3  0  0  0  0  0  0
  189.9640  177.2770  145.7770 C   0  0  0  0  0  2  0  0  0  0  0  0
  191.8150  177.8520  144.3050 C   0  0  0  0  0  2  0  0  0  0  0  0
  185.4940  179.1520  138.3840 O   0  0  0  0  0  1  0  0  0  0  0  0
  186.0350  177.7640  143.0820 C   0  0  2  0  0  3  0  0  0  0  0  0
  183.1150  179.1350  141.1860 C   0  0  0  0  0  3  0  0  0  0  0  0
  185.7760  178.4610  140.6990 C   0  0  0  0  0  0  0  0  0  0  0  0
  187.4950  178.1560  142.9580 C   0  0  1  0  0  3  0  0  0  0  0  0
  187.1470  177.5570  146.3870 O   0  0  0  0  0  0  0  0  0  0  0  0
  188.0880  177.7190  144.2170 N   0  0  0  0  0  0  0  0  0  0  0  0
  191.4650  177.4700  145.7350 C   0  0  0  0  0  2  0  0  0  0  0  0
  190.0040  175.6110  143.0060 C   0  0  0  0  0  1  0  0  0  0  0  0
  183.8990  178.6750  142.1950 N   0  0  0  0  0  0  0  0  0  0  0  0
  185.2090  178.3680  141.9930 C   0  0  0  0  0  0  0  0  0  0  0  0
  190.3290  177.0110  142.4910 C   0  0  2  0  0  3  0  0  0  0  0  0
  189.1080  179.1880  138.4270 C   0  0  0  0  0  2  0  0  0  0  0  0
  189.1510  178.2400  136.4360 C   0  0  0  0  0  1  0  0  0  0  0  0
  188.5690  179.2900  137.1440 O   0  0  0  0  0  0  0  0  0  0  0  0
  1  5  1  6  0  0  0
  1 19  1  0  0  0  0
  1  4  1  0  0  0  0
  2 13  2  0  0  0  0
  2 19  1  0  0  0  0
  3 10  1  0  0  0  0
  4 12  1  6  0  0  0
  4 20  1  0  0  0  0
  6  8  2  0  0  0  0
  7 15  1  1  0  0  0
  7  9  1  0  0  0  0
  8 12  1  0  0  0  0
  9 14  1  1  0  0  0
 10 21  2  0  0  0  0
 11 28  1  1  0  0  0
 11  5  1  0  0  0  0
 11  8  1  0  0  0  0
 12 27  1  0  0  0  0
 13 18  1  0  0  0  0
 15 23  1  0  0  0  0
 16  2  1  0  0  0  0
 17  3  1  1  0  0  0
 18 25  2  0  0  0  0
 19 26  2  0  0  0  0
 20 17  1  0  0  0  0
 20 22  1  1  0  0  0
 22  9  1  0  0  0  0
 22 10  1  0  0  0  0
 23 14  1  0  0  0  0
 26 25  1  0  0  0  0
 26 17  1  0  0  0  0
 27 24  1  1  0  0  0
 27  7  1  0  0  0  0
 29 30  1  0  0  0  0
 30 28  1  0  0  0  0
M  END
>  <MODEL>
2

>  <REMARK>
 VINA RESULT:      -9.0      1.933      5.718
  Name = 
  2 active torsions:
  status: ('A' for Active; 'I' for Inactive)
    1  A    between atoms: C_11  and  C_28
    2  A    between atoms: C_28  and  O_30
                            x       y       z     vdW  Elec       q    Type
                         _______ _______ _______ _____ _____    ______ ____

>  <TORSDO>
F 2

$$$$
=
 OpenBabel11122410223D

 30 35  0  0  1  0  0  0  0  0999 V2000
  186.2640  178.3720  142.6690 C   0  0  1  0  0  3  0  0  0  0  0  0
  186.8500  178.2320  145.1560 C   0  0  0  0  0  0  0  0  0  0  0  0
  182.0800  178.8400  143.7170 C   0  0  0  0  0  2  0  0  0  0  0  0
  185.1690  178.8720  141.6990 C   0  0  1  0  0  3  0  0  0  0  0  0
  187.4850  178.9980  142.3510 O   0  0  0  0  0  0  0  0  0  0  0  0
  187.3600  178.3290  138.8360 O   0  0  0  0  0  0  0  0  0  0  0  0
  183.5840  177.5590  139.1980 C   0  0  1  0  0  3  0  0  0  0  0  0
  186.9630  178.4370  140.0280 C   0  0  0  0  0  0  0  0  0  0  0  0
  182.3870  177.7410  140.1290 C   0  0  2  0  0  3  0  0  0  0  0  0
  181.6160  178.7390  142.3090 C   0  0  0  0  0  0  0  0  0  0  0  0
  187.9770  178.4280  141.1490 C   0  0  2  0  0  3  0  0  0  0  0  0
  185.5570  178.5350  140.3260 N   0  0  0  0  0  0  0  0  0  0  0  0
  186.4590  178.2400  146.4970 C   0  0  0  0  0  3  0  0  0  0  0  0
  181.3210  178.3970  139.2770 C   0  0  0  0  0  2  0  0  0  0  0  0
  182.9970  177.4300  137.8010 C   0  0  0  0  0  2  0  0  0  0  0  0
  188.1770  177.9680  144.8420 O   0  0  0  0  0  1  0  0  0  0  0  0
  183.5580  179.0050  143.4670 C   0  0  2  0  0  3  0  0  0  0  0  0
  185.1240  178.4770  146.8250 C   0  0  0  0  0  3  0  0  0  0  0  0
  185.9030  178.4820  144.1480 C   0  0  0  0  0  0  0  0  0  0  0  0
  183.8500  178.2660  142.1760 C   0  0  1  0  0  3  0  0  0  0  0  0
  180.3990  178.8070  141.9910 O   0  0  0  0  0  0  0  0  0  0  0  0
  182.6620  178.4940  141.3600 N   0  0  0  0  0  0  0  0  0  0  0  0
  181.5340  177.8360  137.8870 C   0  0  0  0  0  2  0  0  0  0  0  0
  184.0650  180.0990  139.1150 C   0  0  0  0  0  1  0  0  0  0  0  0
  184.2070  178.6900  145.8460 N   0  0  0  0  0  0  0  0  0  0  0  0
  184.5530  178.6670  144.5310 C   0  0  0  0  0  0  0  0  0  0  0  0
  184.6240  178.6820  139.2120 C   0  0  2  0  0  3  0  0  0  0  0  0
  188.5430  177.0290  141.3710 C   0  0  0  0  0  2  0  0  0  0  0  0
  190.0940  176.0420  142.5890 C   0  0  0  0  0  1  0  0  0  0  0  0
  189.8910  177.1120  141.7190 O   0  0  0  0  0  0  0  0  0  0  0  0
  1  5  1  1  0  0  0
  1 19  1  0  0  0  0
  2 13  1  0  0  0  0
  4 12  1  6  0  0  0
  4 20  1  0  0  0  0
  4  1  1  0  0  0  0
  6  8  2  0  0  0  0
  7 15  1  6  0  0  0
  7 27  1  0  0  0  0
  7  9  1  0  0  0  0
  8 12  1  0  0  0  0
  8 11  1  0  0  0  0
  9 14  1  6  0  0  0
  9 22  1  0  0  0  0
 10  3  1  0  0  0  0
 11 28  1  1  0  0  0
 11  5  1  0  0  0  0
 13 18  2  0  0  0  0
 15 23  1  0  0  0  0
 16  2  1  0  0  0  0
 17  3  1  1  0  0  0
 17 26  1  0  0  0  0
 19 26  1  0  0  0  0
 19  2  2  0  0  0  0
 20 22  1  6  0  0  0
 20 17  1  0  0  0  0
 21 10  2  0  0  0  0
 22 10  1  0  0  0  0
 23 14  1  0  0  0  0
 25 18  1  0  0  0  0
 26 25  2  0  0  0  0
 27 24  1  1  0  0  0
 27 12  1  0  0  0  0
 28 30  1  0  0  0  0
 30 29  1  0  0  0  0
M  END
>  <MODEL>
3

>  <REMARK>
 VINA RESULT:      -8.6      2.643      4.498
  Name = 
  2 active torsions:
  status: ('A' for Active; 'I' for Inactive)
    1  A    between atoms: C_11  and  C_28
    2  A    between atoms: C_28  and  O_30
                            x       y       z     vdW  Elec       q    Type
                         _______ _______ _______ _____ _____    ______ ____

>  <TORSDO>
F 2

$$$$
=
 OpenBabel11122410223D

 30 35  0  0  1  0  0  0  0  0999 V2000
  188.1140  177.8160  142.3780 C   0  0  1  0  0  3  0  0  0  0  0  0
  186.9400  178.0010  144.6440 C   0  0  0  0  0  0  0  0  0  0  0  0
  184.4310  178.9980  140.4130 C   0  0  0  0  0  2  0  0  0  0  0  0
  188.0190  178.2950  140.9110 C   0  0  1  0  0  3  0  0  0  0  0  0
  189.3530  178.2140  142.9160 O   0  0  0  0  0  0  0  0  0  0  0  0
  191.3570  177.0130  140.2030 O   0  0  0  0  0  0  0  0  0  0  0  0
  188.1600  176.8200  138.0310 C   0  0  1  0  0  3  0  0  0  0  0  0
  190.3270  177.3620  140.8390 C   0  0  0  0  0  0  0  0  0  0  0  0
  186.7150  177.3070  137.9440 C   0  0  2  0  0  3  0  0  0  0  0  0
  184.9600  178.7350  139.0500 C   0  0  0  0  0  0  0  0  0  0  0  0
  190.3660  177.3980  142.3500 C   0  0  2  0  0  3  0  0  0  0  0  0
  189.1110  177.6930  140.1400 N   0  0  0  0  0  0  0  0  0  0  0  0
  185.7980  178.2750  145.4000 C   0  0  0  0  0  3  0  0  0  0  0  0
  186.5980  177.9530  136.5790 C   0  0  0  0  0  2  0  0  0  0  0  0
  188.5850  176.5480  136.5960 C   0  0  0  0  0  2  0  0  0  0  0  0
  188.0720  177.5150  145.2850 O   0  0  0  0  0  1  0  0  0  0  0  0
  185.7240  178.9230  141.1870 C   0  0  2  0  0  3  0  0  0  0  0  0
  184.6450  178.7380  144.7660 C   0  0  0  0  0  3  0  0  0  0  0  0
  186.9270  178.2090  143.2550 C   0  0  0  0  0  0  0  0  0  0  0  0
  186.6100  177.9540  140.4290 C   0  0  1  0  0  3  0  0  0  0  0  0
  184.2710  178.9120  138.0100 O   0  0  0  0  0  0  0  0  0  0  0  0
  186.2920  178.2040  139.0270 N   0  0  0  0  0  0  0  0  0  0  0  0
  187.5250  177.1530  135.6890 C   0  0  0  0  0  2  0  0  0  0  0  0
  189.0920  179.2270  138.1940 C   0  0  0  0  0  1  0  0  0  0  0  0
  184.6290  178.9110  143.4180 N   0  0  0  0  0  0  0  0  0  0  0  0
  185.7170  178.6310  142.6530 C   0  0  0  0  0  0  0  0  0  0  0  0
  189.1560  177.7820  138.6830 C   0  0  2  0  0  3  0  0  0  0  0  0
  190.3590  175.9910  142.9370 C   0  0  0  0  0  2  0  0  0  0  0  0
  191.4810  176.3630  144.7980 C   0  0  0  0  0  1  0  0  0  0  0  0
  191.5790  175.7300  143.5600 O   0  0  0  0  0  0  0  0  0  0  0  0
  1  5  1  1  0  0  0
  1 19  1  0  0  0  0
  2 16  1  0  0  0  0
  2 13  1  0  0  0  0
  4 12  1  6  0  0  0
  4  1  1  0  0  0  0
  6  8  2  0  0  0  0
  7 15  1  6  0  0  0
  7 27  1  0  0  0  0
  8 11  1  0  0  0  0
  9 14  1  6  0  0  0
  9  7  1  0  0  0  0
  9 22  1  0  0  0  0
 10  3  1  0  0  0  0
 11  5  1  0  0  0  0
 11 28  1  1  0  0  0
 12  8  1  0  0  0  0
 17  3  1  6  0  0  0
 17 26  1  0  0  0  0
 18 13  2  0  0  0  0
 19  2  2  0  0  0  0
 20 22  1  6  0  0  0
 20  4  1  0  0  0  0
 20 17  1  0  0  0  0
 21 10  2  0  0  0  0
 22 10  1  0  0  0  0
 23 14  1  0  0  0  0
 23 15  1  0  0  0  0
 25 18  1  0  0  0  0
 26 19  1  0  0  0  0
 26 25  2  0  0  0  0
 27 24  1  1  0  0  0
 27 12  1  0  0  0  0
 28 30  1  0  0  0  0
 30 29  1  0  0  0  0
M  END
>  <MODEL>
4

>  <REMARK>
 VINA RESULT:      -8.1      2.278      5.678
  Name = 
  2 active torsions:
  status: ('A' for Active; 'I' for Inactive)
    1  A    between atoms: C_11  and  C_28
    2  A    between atoms: C_28  and  O_30
                            x       y       z     vdW  Elec       q    Type
                         _______ _______ _______ _____ _____    ______ ____

>  <TORSDO>
F 2

$$$$
=
 OpenBabel11122410223D

 30 35  0  0  1  0  0  0  0  0999 V2000
  186.9440  178.0160  140.0570 C   0  0  1  0  0  3  0  0  0  0  0  0
  188.6910  177.1720  138.3870 C   0  0  0  0  0  0  0  0  0  0  0  0
  189.8460  177.5870  143.2540 C   0  0  0  0  0  2  0  0  0  0  0  0
  186.8040  178.6530  141.4590 C   0  0  1  0  0  3  0  0  0  0  0  0
  186.3470  178.8610  139.1020 O   0  0  0  0  0  0  0  0  0  0  0  0
  183.2700  179.3300  140.8720 O   0  0  0  0  0  0  0  0  0  0  0  0
  185.0010  178.0070  144.0710 C   0  0  1  0  0  3  0  0  0  0  0  0
  184.4690  179.0030  140.6650 C   0  0  0  0  0  0  0  0  0  0  0  0
  186.3690  177.7290  144.6900 C   0  0  2  0  0  3  0  0  0  0  0  0
  188.8570  177.8780  144.3220 C   0  0  0  0  0  0  0  0  0  0  0  0
  184.9390  178.7690  139.2470 C   0  0  2  0  0  3  0  0  0  0  0  0
  185.3800  178.8200  141.7670 N   0  0  0  0  0  0  0  0  0  0  0  0
  189.9770  176.7050  138.1090 C   0  0  0  0  0  3  0  0  0  0  0  0
  186.3660  178.4780  146.0060 C   0  0  0  0  0  2  0  0  0  0  0  0
  184.0650  178.2530  145.2440 C   0  0  0  0  0  2  0  0  0  0  0  0
  187.7460  177.1930  137.3690 O   0  0  0  0  0  1  0  0  0  0  0  0
  189.0330  178.0110  142.0560 C   0  0  2  0  0  3  0  0  0  0  0  0
  190.9280  176.6520  139.1280 C   0  0  0  0  0  3  0  0  0  0  0  0
  188.3670  177.6050  139.6840 C   0  0  0  0  0  0  0  0  0  0  0  0
  187.5830  177.7620  142.4250 C   0  0  1  0  0  3  0  0  0  0  0  0
  189.1620  177.8860  145.5450 O   0  0  0  0  0  0  0  0  0  0  0  0
  187.5190  178.0820  143.8470 N   0  0  0  0  0  0  0  0  0  0  0  0
  184.9300  178.4190  146.4840 C   0  0  0  0  0  2  0  0  0  0  0  0
  185.5800  180.4820  143.5940 C   0  0  0  0  0  1  0  0  0  0  0  0
  190.6020  177.0450  140.3870 N   0  0  0  0  0  0  0  0  0  0  0  0
  189.3520  177.4830  140.6940 C   0  0  0  0  0  0  0  0  0  0  0  0
  184.9270  179.1910  143.1040 C   0  0  2  0  0  3  0  0  0  0  0  0
  184.3930  177.4570  138.6930 C   0  0  0  0  0  2  0  0  0  0  0  0
  182.6230  177.9100  137.4580 C   0  0  0  0  0  1  0  0  0  0  0  0
  183.9860  177.6330  137.3700 O   0  0  0  0  0  0  0  0  0  0  0  0
  1  5  1  6  0  0  0
  1  4  1  0  0  0  0
  2 19  1  0  0  0  0
  3 10  1  0  0  0  0
  4 12  1  1  0  0  0
  4 20  1  0  0  0  0
  5 11  1  0  0  0  0
  7  9  1  0  0  0  0
  7 15  1  1  0  0  0
  8  6  2  0  0  0  0
  8 12  1  0  0  0  0
  9 14  1  1  0  0  0
 10 21  2  0  0  0  0
 11 28  1  1  0  0  0
 11  8  1  0  0  0  0
 12 27  1  0  0  0  0
 13  2  2  0  0  0  0
 13 18  1  0  0  0  0
 14 23  1  0  0  0  0
 15 23  1  0  0  0  0
 16  2  1  0  0  0  0
 17 20  1  0  0  0  0
 17  3  1  1  0  0  0
 18 25  2  0  0  0  0
 19  1  1  0  0  0  0
 19 26  2  0  0  0  0
 20 22  1  1  0  0  0
 22 10  1  0  0  0  0
 22  9  1  0  0  0  0
 25 26  1  0  0  0  0
 26 17  1  0  0  0  0
 27 24  1  1  0  0  0
 27  7  1  0  0  0  0
 30 29  1  0  0  0  0
 30 28  1  0  0  0  0
M  END
>  <MODEL>
5

>  <REMARK>
 VINA RESULT:      -7.5      2.292      4.925
  Name = 
  2 active torsions:
  status: ('A' for Active; 'I' for Inactive)
    1  A    between atoms: C_11  and  C_28
    2  A    between atoms: C_28  and  O_30
                            x       y       z     vdW  Elec       q    Type
                         _______ _______ _______ _____ _____    ______ ____

>  <TORSDO>
F 2

$$$$
=
 OpenBabel11122410223D

 30 35  0  0  1  0  0  0  0  0999 V2000
  185.8040  178.4600  141.1000 C   0  0  1  0  0  3  0  0  0  0  0  0
  184.2320  178.8600  143.0810 C   0  0  0  0  0  0  0  0  0  0  0  0
  182.3630  178.1900  138.4710 C   0  0  0  0  0  2  0  0  0  0  0  0
  185.8710  178.5480  139.5580 C   0  0  1  0  0  3  0  0  0  0  0  0
  186.8120  179.2710  141.6560 O   0  0  0  0  0  0  0  0  0  0  0  0
  189.4780  178.0210  139.6170 O   0  0  0  0  0  0  0  0  0  0  0  0
  186.8350  176.5330  137.2130 C   0  0  1  0  0  3  0  0  0  0  0  0
  188.3000  178.2370  140.0110 C   0  0  0  0  0  0  0  0  0  0  0  0
  185.3590  176.6070  136.8290 C   0  0  2  0  0  3  0  0  0  0  0  0
  183.1700  177.7620  137.2990 C   0  0  0  0  0  0  0  0  0  0  0  0
  188.0610  178.6290  141.4510 C   0  0  2  0  0  3  0  0  0  0  0  0
  187.1860  178.0800  139.1100 N   0  0  0  0  0  0  0  0  0  0  0  0
  182.9420  179.0050  143.5960 C   0  0  0  0  0  3  0  0  0  0  0  0
  185.3510  176.8700  135.3380 C   0  0  0  0  0  2  0  0  0  0  0  0
  187.5580  176.0540  135.9630 C   0  0  0  0  0  2  0  0  0  0  0  0
  185.3100  178.8370  143.9570 O   0  0  0  0  0  1  0  0  0  0  0  0
  183.4830  178.6240  139.3840 C   0  0  2  0  0  3  0  0  0  0  0  0
  181.8490  179.0020  142.7290 C   0  0  0  0  0  3  0  0  0  0  0  0
  184.4230  178.7320  141.6940 C   0  0  0  0  0  0  0  0  0  0  0  0
  184.6770  177.7610  139.0210 C   0  0  1  0  0  3  0  0  0  0  0  0
  182.6560  177.5150  136.1760 O   0  0  0  0  0  0  0  0  0  0  0  0
  184.5670  177.5930  137.5760 N   0  0  0  0  0  0  0  0  0  0  0  0
  186.5710  176.1470  134.8090 C   0  0  0  0  0  2  0  0  0  0  0  0
  187.1870  179.0690  136.8380 C   0  0  0  0  0  1  0  0  0  0  0  0
  182.0360  178.8500  141.3920 N   0  0  0  0  0  0  0  0  0  0  0  0
  183.2780  178.6850  140.8630 C   0  0  0  0  0  0  0  0  0  0  0  0
  187.4700  177.8390  137.6980 C   0  0  2  0  0  3  0  0  0  0  0  0
  188.2500  177.4390  142.3870 C   0  0  0  0  0  2  0  0  0  0  0  0
  188.3140  177.1290  144.5690 C   0  0  0  0  0  1  0  0  0  0  0  0
  188.9230  177.8440  143.5400 O   0  0  0  0  0  0  0  0  0  0  0  0
  1  5  1  1  0  0  0
  1 19  1  0  0  0  0
  2 13  1  0  0  0  0
  2 16  1  0  0  0  0
  4 12  1  6  0  0  0
  4  1  1  0  0  0  0
  6  8  2  0  0  0  0
  7 15  1  6  0  0  0
  7 27  1  0  0  0  0
  8 11  1  0  0  0  0
  9 14  1  6  0  0  0
  9  7  1  0  0  0  0
  9 22  1  0  0  0  0
 10 22  1  0  0  0  0
 10  3  1  0  0  0  0
 11  5  1  0  0  0  0
 11 28  1  1  0  0  0
 12  8  1  0  0  0  0
 17  3  1  6  0  0  0
 17 26  1  0  0  0  0
 18 13  2  0  0  0  0
 19  2  2  0  0  0  0
 20 22  1  6  0  0  0
 20 17  1  0  0  0  0
 20  4  1  0  0  0  0
 21 10  2  0  0  0  0
 23 14  1  0  0  0  0
 23 15  1  0  0  0  0
 25 18  1  0  0  0  0
 26 25  2  0  0  0  0
 26 19  1  0  0  0  0
 27 24  1  6  0  0  0
 27 12  1  0  0  0  0
 28 30  1  0  0  0  0
 30 29  1  0  0  0  0
M  END
>  <MODEL>
6

>  <REMARK>
 VINA RESULT:      -7.0      3.413      7.186
  Name = 
  2 active torsions:
  status: ('A' for Active; 'I' for Inactive)
    1  A    between atoms: C_11  and  C_28
    2  A    between atoms: C_28  and  O_30
                            x       y       z     vdW  Elec       q    Type
                         _______ _______ _______ _____ _____    ______ ____

>  <TORSDO>
F 2

$$$$
=
 OpenBabel11122410223D

 30 35  0  0  1  0  0  0  0  0999 V2000
  189.1550  177.5370  141.7630 C   0  0  1  0  0  3  0  0  0  0  0  0
  189.7770  177.8830  139.3050 C   0  0  0  0  0  0  0  0  0  0  0  0
  185.0970  178.7910  140.8750 C   0  0  0  0  0  2  0  0  0  0  0  0
  187.9430  177.3040  142.6940 C   0  0  1  0  0  3  0  0  0  0  0  0
  190.0620  176.4700  141.9080 O   0  0  0  0  0  0  0  0  0  0  0  0
  190.1510  176.5240  145.4880 O   0  0  0  0  0  0  0  0  0  0  0  0
  186.9170  178.6480  145.4570 C   0  0  1  0  0  3  0  0  0  0  0  0
  189.7550  176.7720  144.3170 C   0  0  0  0  0  0  0  0  0  0  0  0
  185.7450  179.0710  144.5730 C   0  0  2  0  0  3  0  0  0  0  0  0
  184.6870  178.8080  142.3030 C   0  0  0  0  0  0  0  0  0  0  0  0
  190.7150  176.6090  143.1600 C   0  0  2  0  0  3  0  0  0  0  0  0
  188.4120  177.2390  144.0820 N   0  0  0  0  0  0  0  0  0  0  0  0
  189.4240  178.2470  138.0030 C   0  0  0  0  0  3  0  0  0  0  0  0
  184.5040  178.7070  145.3620 C   0  0  0  0  0  2  0  0  0  0  0  0
  186.4020  178.7370  146.8860 C   0  0  0  0  0  2  0  0  0  0  0  0
  191.1060  177.5950  139.5870 O   0  0  0  0  0  1  0  0  0  0  0  0
  186.4120  178.0650  141.0160 C   0  0  2  0  0  3  0  0  0  0  0  0
  188.0980  178.5650  137.7120 C   0  0  0  0  0  3  0  0  0  0  0  0
  188.7940  177.8200  140.3070 C   0  0  0  0  0  0  0  0  0  0  0  0
  186.9390  178.4170  142.3940 C   0  0  1  0  0  3  0  0  0  0  0  0
  183.5250  179.1280  142.6690 O   0  0  0  0  0  0  0  0  0  0  0  0
  185.7410  178.4940  143.2230 N   0  0  0  0  0  0  0  0  0  0  0  0
  184.8920  178.9050  146.8110 C   0  0  0  0  0  2  0  0  0  0  0  0
  186.4410  176.1310  145.0970 C   0  0  0  0  0  1  0  0  0  0  0  0
  187.1550  178.5310  138.6900 N   0  0  0  0  0  0  0  0  0  0  0  0
  187.4720  178.2020  139.9710 C   0  0  0  0  0  0  0  0  0  0  0  0
  187.4780  177.2470  145.2040 C   0  0  2  0  0  3  0  0  0  0  0  0
  191.7520  177.7270  143.1410 C   0  0  0  0  0  2  0  0  0  0  0  0
  191.2970  179.6920  144.0340 C   0  0  0  0  0  1  0  0  0  0  0  0
  191.7360  178.4100  144.3580 O   0  0  0  0  0  0  0  0  0  0  0  0
  1 19  1  6  0  0  0
  1  5  1  0  0  0  0
  1  4  1  0  0  0  0
  2 16  1  0  0  0  0
  2 19  1  0  0  0  0
  3 10  1  0  0  0  0
  4 12  1  1  0  0  0
  5 11  1  0  0  0  0
  7 15  1  1  0  0  0
  8  6  2  0  0  0  0
  9 14  1  1  0  0  0
  9  7  1  0  0  0  0
 10 21  2  0  0  0  0
 10 22  1  0  0  0  0
 11 28  1  6  0  0  0
 11  8  1  0  0  0  0
 12  8  1  0  0  0  0
 12 27  1  0  0  0  0
 13  2  2  0  0  0  0
 14 23  1  0  0  0  0
 17  3  1  6  0  0  0
 17 20  1  0  0  0  0
 18 13  1  0  0  0  0
 18 25  2  0  0  0  0
 20  4  1  0  0  0  0
 20 22  1  1  0  0  0
 22  9  1  0  0  0  0
 23 15  1  0  0  0  0
 25 26  1  0  0  0  0
 26 19  2  0  0  0  0
 26 17  1  0  0  0  0
 27 24  1  6  0  0  0
 27  7  1  0  0  0  0
 28 30  1  0  0  0  0
 29 30  1  0  0  0  0
M  END
>  <MODEL>
7

>  <REMARK>
 VINA RESULT:      -6.7      2.003      5.022
  Name = 
  2 active torsions:
  status: ('A' for Active; 'I' for Inactive)
    1  A    between atoms: C_11  and  C_28
    2  A    between atoms: C_28  and  O_30
                            x       y       z     vdW  Elec       q    Type
                         _______ _______ _______ _____ _____    ______ ____

>  <TORSDO>
F 2

$$$$
=
 OpenBabel11122410223D

 30 35  0  0  1  0  0  0  0  0999 V2000
  189.3430  177.2920  138.5020 C   0  0  1  0  0  3  0  0  0  0  0  0
  191.0450  176.4660  136.7790 C   0  0  0  0  0  0  0  0  0  0  0  0
  192.3470  176.8940  141.6080 C   0  0  0  0  0  2  0  0  0  0  0  0
  189.2390  177.9280  139.9080 C   0  0  1  0  0  3  0  0  0  0  0  0
  188.7070  178.1310  137.5660 O   0  0  0  0  0  0  0  0  0  0  0  0
  185.6820  178.5670  139.4310 O   0  0  0  0  0  0  0  0  0  0  0  0
  187.5240  177.2630  142.5740 C   0  0  1  0  0  3  0  0  0  0  0  0
  186.8770  178.2530  139.1870 C   0  0  0  0  0  0  0  0  0  0  0  0
  188.9140  177.0000  143.1510 C   0  0  2  0  0  3  0  0  0  0  0  0
  191.3870  177.1750  142.7070 C   0  0  0  0  0  0  0  0  0  0  0  0
  187.3050  178.0240  137.7550 C   0  0  2  0  0  3  0  0  0  0  0  0
  187.8240  178.0800  140.2600 N   0  0  0  0  0  0  0  0  0  0  0  0
  192.3270  176.0120  136.4610 C   0  0  0  0  0  3  0  0  0  0  0  0
  188.9430  177.7490  144.4670 C   0  0  0  0  0  2  0  0  0  0  0  0
  186.6230  177.5000  143.7770 C   0  0  0  0  0  2  0  0  0  0  0  0
  190.0690  176.4780  135.7910 O   0  0  0  0  0  1  0  0  0  0  0  0
  191.4920  177.3100  140.4360 C   0  0  2  0  0  3  0  0  0  0  0  0
  193.3100  175.9700  137.4510 C   0  0  0  0  0  3  0  0  0  0  0  0
  190.7570  176.8960  138.0860 C   0  0  0  0  0  0  0  0  0  0  0  0
  190.0570  177.0450  140.8500 C   0  0  1  0  0  3  0  0  0  0  0  0
  191.7310  177.1870  143.9190 O   0  0  0  0  0  0  0  0  0  0  0  0
  190.0340  177.3650  142.2730 N   0  0  0  0  0  0  0  0  0  0  0  0
  187.5250  177.6750  144.9890 C   0  0  0  0  0  2  0  0  0  0  0  0
  188.0620  179.7440  142.0800 C   0  0  0  0  0  1  0  0  0  0  0  0
  193.0190  176.3600  138.7200 N   0  0  0  0  0  0  0  0  0  0  0  0
  191.7740  176.7850  139.0650 C   0  0  0  0  0  0  0  0  0  0  0  0
  187.4080  178.4470  141.6110 C   0  0  2  0  0  3  0  0  0  0  0  0
  186.7560  176.7060  137.2180 C   0  0  0  0  0  2  0  0  0  0  0  0
  186.2830  177.4880  135.2120 C   0  0  0  0  0  1  0  0  0  0  0  0
  185.6900  176.9530  136.3530 O   0  0  0  0  0  0  0  0  0  0  0  0
  1  5  1  6  0  0  0
  1  4  1  0  0  0  0
  2 19  1  0  0  0  0
  3 10  1  0  0  0  0
  4 12  1  1  0  0  0
  4 20  1  0  0  0  0
  5 11  1  0  0  0  0
  7  9  1  0  0  0  0
  7 15  1  1  0  0  0
  8  6  2  0  0  0  0
  8 12  1  0  0  0  0
  9 14  1  1  0  0  0
 10 21  2  0  0  0  0
 11 28  1  1  0  0  0
 11  8  1  0  0  0  0
 12 27  1  0  0  0  0
 13  2  2  0  0  0  0
 13 18  1  0  0  0  0
 14 23  1  0  0  0  0
 15 23  1  0  0  0  0
 16  2  1  0  0  0  0
 17 20  1  0  0  0  0
 17  3  1  1  0  0  0
 18 25  2  0  0  0  0
 19  1  1  0  0  0  0
 19 26  2  0  0  0  0
 20 22  1  1  0  0  0
 22 10  1  0  0  0  0
 22  9  1  0  0  0  0
 25 26  1  0  0  0  0
 26 17  1  0  0  0  0
 27 24  1  1  0  0  0
 27  7  1  0  0  0  0
 29 30  1  0  0  0  0
 30 28  1  0  0  0  0
M  END
>  <MODEL>
8

>  <REMARK>
 VINA RESULT:      -6.7      2.905      5.937
  Name = 
  2 active torsions:
  status: ('A' for Active; 'I' for Inactive)
    1  A    between atoms: C_11  and  C_28
    2  A    between atoms: C_28  and  O_30
                            x       y       z     vdW  Elec       q    Type
                         _______ _______ _______ _____ _____    ______ ____

>  <TORSDO>
F 2

$$$$
=
 OpenBabel11122410223D

 30 35  0  0  1  0  0  0  0  0999 V2000
  187.6650  177.8160  140.3100 C   0  0  1  0  0  3  0  0  0  0  0  0
  189.6740  177.3500  141.8260 C   0  0  0  0  0  0  0  0  0  0  0  0
  185.1860  178.3790  143.8250 C   0  0  0  0  0  2  0  0  0  0  0  0
  186.2720  178.4860  140.3010 C   0  0  1  0  0  3  0  0  0  0  0  0
  188.4710  178.4090  139.3180 O   0  0  0  0  0  0  0  0  0  0  0  0
  186.0680  178.1720  136.6740 O   0  0  0  0  0  0  0  0  0  0  0  0
  183.3210  177.5670  139.3320 C   0  0  1  0  0  3  0  0  0  0  0  0
  186.5330  178.1580  137.8460 C   0  0  0  0  0  0  0  0  0  0  0  0
  183.0180  177.7000  140.8230 C   0  0  2  0  0  3  0  0  0  0  0  0
  183.9270  178.4710  143.0420 C   0  0  0  0  0  0  0  0  0  0  0  0
  188.0180  177.9610  138.0510 C   0  0  2  0  0  3  0  0  0  0  0  0
  185.6580  178.2950  138.9830 N   0  0  0  0  0  0  0  0  0  0  0  0
  190.2260  177.2180  143.1020 C   0  0  0  0  0  3  0  0  0  0  0  0
  181.7390  178.5090  140.8950 C   0  0  0  0  0  2  0  0  0  0  0  0
  181.9720  177.6370  138.6340 C   0  0  0  0  0  2  0  0  0  0  0  0
  190.4580  177.0540  140.7180 O   0  0  0  0  0  1  0  0  0  0  0  0
  186.1770  178.4930  142.6940 C   0  0  2  0  0  3  0  0  0  0  0  0
  189.4410  177.4860  144.2240 C   0  0  0  0  0  3  0  0  0  0  0  0
  188.3400  177.7680  141.6790 C   0  0  0  0  0  0  0  0  0  0  0  0
  185.4950  177.8980  141.4780 C   0  0  1  0  0  3  0  0  0  0  0  0
  182.8030  178.6410  143.5850 O   0  0  0  0  0  0  0  0  0  0  0  0
  184.0970  178.2850  141.6300 N   0  0  0  0  0  0  0  0  0  0  0  0
  180.9550  178.1070  139.6640 C   0  0  0  0  0  2  0  0  0  0  0  0
  183.9340  180.0690  139.1060 C   0  0  0  0  0  1  0  0  0  0  0  0
  188.1440  177.8630  144.0780 N   0  0  0  0  0  0  0  0  0  0  0  0
  187.5720  177.9780  142.8490 C   0  0  0  0  0  0  0  0  0  0  0  0
  184.2570  178.6230  138.7390 C   0  0  2  0  0  3  0  0  0  0  0  0
  188.4270  176.5170  137.7770 C   0  0  0  0  0  2  0  0  0  0  0  0
  187.8170  174.6150  136.8430 C   0  0  0  0  0  1  0  0  0  0  0  0
  187.3020  175.7600  137.4480 O   0  0  0  0  0  0  0  0  0  0  0  0
  1  5  1  6  0  0  0
  1 19  1  0  0  0  0
  2 13  1  0  0  0  0
  4 12  1  6  0  0  0
  4  1  1  0  0  0  0
  4 20  1  0  0  0  0
  6  8  2  0  0  0  0
  7 15  1  6  0  0  0
  7  9  1  0  0  0  0
  8 11  1  0  0  0  0
  8 12  1  0  0  0  0
  9 14  1  6  0  0  0
  9 22  1  0  0  0  0
 10 21  2  0  0  0  0
 10  3  1  0  0  0  0
 11 28  1  1  0  0  0
 11  5  1  0  0  0  0
 13 18  2  0  0  0  0
 15 23  1  0  0  0  0
 16  2  1  0  0  0  0
 17 26  1  0  0  0  0
 17  3  1  1  0  0  0
 19  2  2  0  0  0  0
 19 26  1  0  0  0  0
 20 22  1  6  0  0  0
 20 17  1  0  0  0  0
 22 10  1  0  0  0  0
 23 14  1  0  0  0  0
 25 18  1  0  0  0  0
 26 25  2  0  0  0  0
 27 12  1  0  0  0  0
 27 24  1  1  0  0  0
 27  7  1  0  0  0  0
 29 30  1  0  0  0  0
 30 28  1  0  0  0  0
M  END
>  <MODEL>
9

>  <REMARK>
 VINA RESULT:      -6.7      2.548      3.765
  Name = 
  2 active torsions:
  status: ('A' for Active; 'I' for Inactive)
    1  A    between atoms: C_11  and  C_28
    2  A    between atoms: C_28  and  O_30
                            x       y       z     vdW  Elec       q    Type
                         _______ _______ _______ _____ _____    ______ ____

>  <TORSDO>
F 2

$$$$
