=
 OpenBabel11122410353D

 32 38  0  0  1  0  0  0  0  0999 V2000
  181.6070  177.6430  137.6420 C   0  0  1  0  0  3  0  0  0  0  0  0
  184.4980  178.9230  141.8760 C   0  0  1  0  0  3  0  0  0  0  0  0
  188.8190  178.1390  139.3220 C   0  0  0  0  0  2  0  0  0  0  0  0
  189.1420  177.0750  140.3520 C   0  0  0  0  0  2  0  0  0  0  0  0
  184.6460  178.8700  144.4480 C   0  0  0  0  0  0  0  0  0  0  0  0
  185.4480  178.5670  145.6270 C   0  0  0  0  0  0  0  0  0  0  0  0
  182.6300  178.1600  140.4160 C   0  0  1  0  0  3  0  0  0  0  0  0
  184.6080  179.3620  139.4370 C   0  0  0  0  0  2  0  0  0  0  0  0
  187.2040  177.9360  146.8500 C   0  0  0  0  0  0  0  0  0  0  0  0
  182.8000  178.5750  137.8650 C   0  0  2  0  0  3  0  0  0  0  0  0
  187.3070  178.3040  139.2490 C   0  0  0  0  0  2  0  0  0  0  0  0
  185.3230  179.0320  140.6680 N   0  0  0  0  0  0  0  0  0  0  0  0
  186.6590  178.4910  140.6060 C   0  0  0  0  0  0  0  0  0  0  0  0
  186.5980  178.2360  143.0510 C   0  0  0  0  0  0  0  0  0  0  0  0
  186.2310  178.2540  147.6440 N   0  0  0  0  0  0  0  0  0  0  0  0
  181.3810  176.6180  138.7760 C   0  0  0  0  0  2  0  0  0  0  0  0
  183.5460  178.2970  139.1840 C   0  0  2  0  0  3  0  0  0  0  0  0
  185.1200  178.6520  146.8750 N   0  0  0  0  0  2  0  0  0  0  0  0
  181.5080  177.1400  140.2170 C   0  0  0  0  0  2  0  0  0  0  0  0
  181.3750  179.0910  138.0490 C   0  0  1  0  0  3  0  0  0  0  0  0
  188.6980  177.5710  141.7210 C   0  0  0  0  0  2  0  0  0  0  0  0
  187.2690  178.0740  141.7380 C   0  0  0  0  0  0  0  0  0  0  0  0
  187.3770  177.9390  144.2980 C   0  0  0  0  0  2  0  0  0  0  0  0
  183.4410  177.8390  141.6700 C   0  0  0  0  0  2  0  0  0  0  0  0
  183.4600  179.2830  144.5500 O   0  0  0  0  0  0  0  0  0  0  0  0
  188.4800  177.4890  147.2970 N   0  0  0  0  0  1  0  0  0  0  0  0
  185.3030  178.6680  143.1230 C   0  0  0  0  0  0  0  0  0  0  0  0
  186.7890  178.1080  145.4780 C   0  0  0  0  0  0  0  0  0  0  0  0
  181.0000  179.8470  136.9070 O   0  0  0  0  0  0  0  0  0  0  0  0
  180.8540  181.2350  136.9460 C   0  0  0  0  0  0  0  0  0  0  0  0
  181.2270  182.0270  138.1560 C   0  0  0  0  0  1  0  0  0  0  0  0
  180.3980  181.8370  135.9410 O   0  0  0  0  0  0  0  0  0  0  0  0
  1 10  1  0  0  0  0
  1 20  1  0  0  0  0
  1 16  1  1  0  0  0
  2 24  1  6  0  0  0
  2 27  1  0  0  0  0
  3  4  1  0  0  0  0
  4 21  1  0  0  0  0
  5 25  2  0  0  0  0
  5  6  1  0  0  0  0
  6 18  1  0  0  0  0
  7 19  1  6  0  0  0
  7 24  1  0  0  0  0
  8 12  1  0  0  0  0
  9 26  1  0  0  0  0
  9 15  2  0  0  0  0
 10 20  1  0  0  0  0
 10 17  1  0  0  0  0
 11  3  1  0  0  0  0
 11 13  1  0  0  0  0
 12  2  1  0  0  0  0
 13 12  1  0  0  0  0
 13 22  2  0  0  0  0
 14 27  2  0  0  0  0
 14 23  1  0  0  0  0
 16 19  1  0  0  0  0
 17  8  1  0  0  0  0
 17  7  1  0  0  0  0
 18 15  1  0  0  0  0
 21 22  1  0  0  0  0
 22 14  1  0  0  0  0
 23 28  1  0  0  0  0
 27  5  1  0  0  0  0
 28  6  2  0  0  0  0
 28  9  1  0  0  0  0
 29 30  1  0  0  0  0
 29 20  1  0  0  0  0
 30 31  1  0  0  0  0
 32 30  2  0  0  0  0
M  END
>  <MODEL>
1

>  <REMARK>
 VINA RESULT:      -9.2      0.000      0.000
  Name = 
  2 active torsions:
  status: ('A' for Active; 'I' for Inactive)
    1  A    between atoms: C_20  and  O_29
    2  A    between atoms: O_29  and  C_30
                            x       y       z     vdW  Elec       q    Type
                         _______ _______ _______ _____ _____    ______ ____

>  <TORSDO>
F 2

$$$$
=
 OpenBabel11122410353D

 32 38  0  0  1  0  0  0  0  0999 V2000
  192.9510  174.9850  137.5480 C   0  0  1  0  0  3  0  0  0  0  0  0
  189.2210  177.8550  139.9530 C   0  0  1  0  0  3  0  0  0  0  0  0
  191.5080  177.2920  144.4530 C   0  0  0  0  0  2  0  0  0  0  0  0
  190.2370  176.6160  144.9260 C   0  0  0  0  0  2  0  0  0  0  0  0
  186.7260  178.5000  139.9920 C   0  0  0  0  0  0  0  0  0  0  0  0
  185.5150  178.6750  140.7830 C   0  0  0  0  0  0  0  0  0  0  0  0
  190.4160  176.3910  138.3300 C   0  0  1  0  0  3  0  0  0  0  0  0
  191.6900  177.6600  140.0860 C   0  0  0  0  0  2  0  0  0  0  0  0
  184.1810  178.7370  142.5710 C   0  0  0  0  0  0  0  0  0  0  0  0
  192.9880  176.1560  138.5320 C   0  0  2  0  0  3  0  0  0  0  0  0
  191.6110  177.1350  142.9420 C   0  0  0  0  0  2  0  0  0  0  0  0
  190.4210  177.8050  140.7950 N   0  0  0  0  0  0  0  0  0  0  0  0
  190.3480  177.5380  142.2100 C   0  0  0  0  0  0  0  0  0  0  0  0
  187.9210  177.9190  142.0900 C   0  0  0  0  0  0  0  0  0  0  0  0
  183.4910  179.0540  141.5210 N   0  0  0  0  0  0  0  0  0  0  0  0
  191.5840  174.2650  137.4700 C   0  0  0  0  0  2  0  0  0  0  0  0
  191.6470  176.3800  139.2570 C   0  0  2  0  0  3  0  0  0  0  0  0
  184.3310  179.0150  140.3900 N   0  0  0  0  0  0  0  0  0  0  0  0
  190.3320  175.1560  137.4310 C   0  0  0  0  0  2  0  0  0  0  0  0
  192.9360  176.4150  137.0280 C   0  0  1  0  0  3  0  0  0  0  0  0
  189.0440  177.3530  144.3350 C   0  0  0  0  0  2  0  0  0  0  0  0
  189.1500  177.5560  142.8370 C   0  0  0  0  0  0  0  0  0  0  0  0
  186.6450  178.1120  142.8540 C   0  0  0  0  0  3  0  0  0  0  0  0
  189.1280  176.5710  139.1300 C   0  0  0  0  0  2  0  0  0  0  0  0
  186.7280  178.6870  138.7460 O   0  0  0  0  0  0  0  0  0  0  0  0
  183.6410  178.6780  143.8870 N   0  0  0  0  0  1  0  0  0  0  0  0
  187.9560  178.0940  140.7340 C   0  0  0  0  0  0  0  0  0  0  0  0
  185.5470  178.4640  142.1920 C   0  0  0  0  0  0  0  0  0  0  0  0
  194.2350  176.7610  136.5680 O   0  0  0  0  0  0  0  0  0  0  0  0
  195.0640  175.8460  135.9170 C   0  0  0  0  0  0  0  0  0  0  0  0
  194.6940  175.2590  134.5940 C   0  0  0  0  0  1  0  0  0  0  0  0
  196.1480  175.5050  136.4540 O   0  0  0  0  0  0  0  0  0  0  0  0
  1 16  1  1  0  0  0
  1 10  1  0  0  0  0
  2 24  1  1  0  0  0
  2 27  1  0  0  0  0
  2 12  1  0  0  0  0
  3  4  1  0  0  0  0
  5 27  1  0  0  0  0
  5  6  1  0  0  0  0
  6 28  1  0  0  0  0
  7 19  1  1  0  0  0
  7 24  1  0  0  0  0
  7 17  1  0  0  0  0
  8 12  1  0  0  0  0
  9 26  1  0  0  0  0
 10 17  1  0  0  0  0
 11  3  1  0  0  0  0
 12 13  1  0  0  0  0
 13 22  2  0  0  0  0
 13 11  1  0  0  0  0
 14 22  1  0  0  0  0
 14 23  1  0  0  0  0
 15  9  2  0  0  0  0
 17  8  1  0  0  0  0
 18  6  2  0  0  0  0
 18 15  1  0  0  0  0
 19 16  1  0  0  0  0
 20  1  1  0  0  0  0
 20 10  1  0  0  0  0
 21  4  1  0  0  0  0
 22 21  1  0  0  0  0
 25  5  2  0  0  0  0
 27 14  2  0  0  0  0
 28  9  1  0  0  0  0
 28 23  2  0  0  0  0
 29 20  1  0  0  0  0
 30 32  2  0  0  0  0
 30 29  1  0  0  0  0
 31 30  1  0  0  0  0
M  END
>  <MODEL>
2

>  <REMARK>
 VINA RESULT:      -8.9      5.022      8.321
  Name = 
  2 active torsions:
  status: ('A' for Active; 'I' for Inactive)
    1  A    between atoms: C_20  and  O_29
    2  A    between atoms: O_29  and  C_30
                            x       y       z     vdW  Elec       q    Type
                         _______ _______ _______ _____ _____    ______ ____

>  <TORSDO>
F 2

$$$$
=
 OpenBabel11122410353D

 32 38  0  0  1  0  0  0  0  0999 V2000
  193.7960  174.0930  137.5280 C   0  0  1  0  0  3  0  0  0  0  0  0
  190.0500  177.4760  139.0950 C   0  0  1  0  0  3  0  0  0  0  0  0
  191.7220  177.3040  143.8890 C   0  0  0  0  0  2  0  0  0  0  0  0
  190.3520  176.7760  144.2650 C   0  0  0  0  0  2  0  0  0  0  0  0
  187.6310  178.2880  138.7390 C   0  0  0  0  0  0  0  0  0  0  0  0
  186.3510  178.6380  139.3420 C   0  0  0  0  0  0  0  0  0  0  0  0
  191.3090  175.7510  137.8130 C   0  0  1  0  0  3  0  0  0  0  0  0
  192.4610  177.1320  139.5690 C   0  0  0  0  0  2  0  0  0  0  0  0
  184.8200  179.0040  140.9240 C   0  0  0  0  0  0  0  0  0  0  0  0
  193.8100  175.3680  138.3720 C   0  0  2  0  0  3  0  0  0  0  0  0
  191.9940  176.9600  142.4310 C   0  0  0  0  0  2  0  0  0  0  0  0
  191.1320  177.4470  140.0870 N   0  0  0  0  0  0  0  0  0  0  0  0
  190.8660  177.3560  141.5010 C   0  0  0  0  0  0  0  0  0  0  0  0
  188.5110  177.8830  141.0250 C   0  0  0  0  0  0  0  0  0  0  0  0
  184.2910  179.2380  139.7640 N   0  0  0  0  0  0  0  0  0  0  0  0
  192.3940  173.4620  137.3530 C   0  0  0  0  0  2  0  0  0  0  0  0
  192.4140  175.7670  138.8880 C   0  0  2  0  0  3  0  0  0  0  0  0
  185.2560  179.0080  138.7630 N   0  0  0  0  0  0  0  0  0  0  0  0
  191.2340  174.4250  137.0540 C   0  0  0  0  0  2  0  0  0  0  0  0
  193.9620  175.4470  136.8550 C   0  0  1  0  0  3  0  0  0  0  0  0
  189.3030  177.5160  143.4460 C   0  0  0  0  0  2  0  0  0  0  0  0
  189.6060  177.5300  141.9620 C   0  0  0  0  0  0  0  0  0  0  0  0
  187.1720  178.2530  141.5920 C   0  0  0  0  0  3  0  0  0  0  0  0
  189.9520  176.1110  138.4150 C   0  0  0  0  0  2  0  0  0  0  0  0
  187.7990  178.3230  137.4910 O   0  0  0  0  0  0  0  0  0  0  0  0
  184.1220  179.1400  142.1570 N   0  0  0  0  0  1  0  0  0  0  0  0
  188.7240  177.8910  139.6750 C   0  0  0  0  0  0  0  0  0  0  0  0
  186.1950  178.5950  140.7580 C   0  0  0  0  0  0  0  0  0  0  0  0
  195.3300  175.6480  136.5320 O   0  0  0  0  0  0  0  0  0  0  0  0
  195.7340  176.4150  135.4370 C   0  0  0  0  0  0  0  0  0  0  0  0
  196.9020  176.0210  134.5950 C   0  0  0  0  0  1  0  0  0  0  0  0
  195.1010  177.4630  135.1520 O   0  0  0  0  0  0  0  0  0  0  0  0
  1 16  1  6  0  0  0
  1 10  1  0  0  0  0
  2 24  1  1  0  0  0
  2 27  1  0  0  0  0
  2 12  1  0  0  0  0
  3  4  1  0  0  0  0
  5  6  1  0  0  0  0
  5 27  1  0  0  0  0
  6 28  1  0  0  0  0
  7 19  1  1  0  0  0
  7 24  1  0  0  0  0
  7 17  1  0  0  0  0
  8 12  1  0  0  0  0
  9 26  1  0  0  0  0
 10 17  1  0  0  0  0
 11  3  1  0  0  0  0
 12 13  1  0  0  0  0
 13 22  2  0  0  0  0
 13 11  1  0  0  0  0
 14 23  1  0  0  0  0
 14 22  1  0  0  0  0
 15  9  2  0  0  0  0
 17  8  1  0  0  0  0
 18  6  2  0  0  0  0
 18 15  1  0  0  0  0
 19 16  1  0  0  0  0
 20  1  1  0  0  0  0
 20 10  1  0  0  0  0
 21  4  1  0  0  0  0
 22 21  1  0  0  0  0
 25  5  2  0  0  0  0
 27 14  2  0  0  0  0
 28  9  1  0  0  0  0
 28 23  2  0  0  0  0
 29 20  1  0  0  0  0
 30 29  1  0  0  0  0
 31 30  1  0  0  0  0
 32 30  2  0  0  0  0
M  END
>  <MODEL>
3

>  <REMARK>
 VINA RESULT:      -7.4      5.400      9.068
  Name = 
  2 active torsions:
  status: ('A' for Active; 'I' for Inactive)
    1  A    between atoms: C_20  and  O_29
    2  A    between atoms: O_29  and  C_30
                            x       y       z     vdW  Elec       q    Type
                         _______ _______ _______ _____ _____    ______ ____

>  <TORSDO>
F 2

$$$$
=
 OpenBabel11122410353D

 32 38  0  0  1  0  0  0  0  0999 V2000
  186.2810  177.1260  144.2920 C   0  0  1  0  0  3  0  0  0  0  0  0
  189.6410  177.7330  140.2580 C   0  0  1  0  0  3  0  0  0  0  0  0
  185.8150  177.8170  136.9170 C   0  0  0  0  0  2  0  0  0  0  0  0
  186.4460  176.5940  136.2830 C   0  0  0  0  0  2  0  0  0  0  0  0
  191.9780  177.1680  139.3310 C   0  0  0  0  0  0  0  0  0  0  0  0
  192.7710  176.6930  138.2040 C   0  0  0  0  0  0  0  0  0  0  0  0
  188.6710  177.1430  142.4750 C   0  0  1  0  0  3  0  0  0  0  0  0
  187.4360  178.6670  140.9040 C   0  0  0  0  0  2  0  0  0  0  0  0
  193.2510  175.9610  136.1510 C   0  0  0  0  0  0  0  0  0  0  0  0
  186.3380  178.0810  143.0980 C   0  0  2  0  0  3  0  0  0  0  0  0
  186.2310  177.8780  138.3800 C   0  0  0  0  0  2  0  0  0  0  0  0
  188.2960  178.1480  139.8430 N   0  0  0  0  0  0  0  0  0  0  0  0
  187.7260  177.7350  138.5850 C   0  0  0  0  0  0  0  0  0  0  0  0
  189.9630  176.9830  137.8920 C   0  0  0  0  0  0  0  0  0  0  0  0
  194.3470  176.0350  136.8380 N   0  0  0  0  0  0  0  0  0  0  0  0
  187.1800  175.8770  144.1490 C   0  0  0  0  0  2  0  0  0  0  0  0
  187.2830  177.5970  141.9810 C   0  0  2  0  0  3  0  0  0  0  0  0
  194.0470  176.4970  138.1350 N   0  0  0  0  0  2  0  0  0  0  0  0
  188.5960  176.1020  143.5940 C   0  0  0  0  0  2  0  0  0  0  0  0
  187.0440  178.4380  144.4030 C   0  0  1  0  0  3  0  0  0  0  0  0
  187.9590  176.7650  136.2930 C   0  0  0  0  0  2  0  0  0  0  0  0
  188.5070  177.1440  137.6530 C   0  0  0  0  0  0  0  0  0  0  0  0
  190.8270  176.4980  136.7660 C   0  0  0  0  0  2  0  0  0  0  0  0
  189.5270  176.6360  141.3160 C   0  0  0  0  0  2  0  0  0  0  0  0
  192.5140  177.4590  140.4330 O   0  0  0  0  0  0  0  0  0  0  0  0
  193.1920  175.5320  134.7950 N   0  0  0  0  0  1  0  0  0  0  0  0
  190.5070  177.2910  139.1080 C   0  0  0  0  0  0  0  0  0  0  0  0
  192.1360  176.3780  136.9680 C   0  0  0  0  0  0  0  0  0  0  0  0
  186.2570  179.3810  145.1170 O   0  0  0  0  0  0  0  0  0  0  0  0
  185.5380  179.0360  146.2640 C   0  0  0  0  0  0  0  0  0  0  0  0
  186.2260  178.7030  147.5470 C   0  0  0  0  0  1  0  0  0  0  0  0
  184.2820  179.0030  146.2180 O   0  0  0  0  0  0  0  0  0  0  0  0
  1 16  1  6  0  0  0
  1 20  1  0  0  0  0
  2 24  1  1  0  0  0
  3 11  1  0  0  0  0
  4 21  1  0  0  0  0
  4  3  1  0  0  0  0
  5 25  2  0  0  0  0
  6  5  1  0  0  0  0
  7 24  1  6  0  0  0
  7 19  1  0  0  0  0
  8 17  1  0  0  0  0
  9 15  2  0  0  0  0
  9 28  1  0  0  0  0
 10  1  1  0  0  0  0
 10 20  1  0  0  0  0
 11 13  1  0  0  0  0
 12  2  1  0  0  0  0
 12  8  1  0  0  0  0
 13 12  1  0  0  0  0
 14 27  2  0  0  0  0
 15 18  1  0  0  0  0
 17  7  1  0  0  0  0
 17 10  1  0  0  0  0
 18  6  1  0  0  0  0
 19 16  1  0  0  0  0
 20 29  1  0  0  0  0
 21 22  1  0  0  0  0
 22 14  1  0  0  0  0
 22 13  2  0  0  0  0
 23 28  1  0  0  0  0
 23 14  1  0  0  0  0
 26  9  1  0  0  0  0
 27  5  1  0  0  0  0
 27  2  1  0  0  0  0
 28  6  2  0  0  0  0
 29 30  1  0  0  0  0
 30 31  1  0  0  0  0
 32 30  2  0  0  0  0
M  END
>  <MODEL>
4

>  <REMARK>
 VINA RESULT:      -6.9      4.527      8.404
  Name = 
  2 active torsions:
  status: ('A' for Active; 'I' for Inactive)
    1  A    between atoms: C_20  and  O_29
    2  A    between atoms: O_29  and  C_30
                            x       y       z     vdW  Elec       q    Type
                         _______ _______ _______ _____ _____    ______ ____

>  <TORSDO>
F 2

$$$$
=
 OpenBabel11122410353D

 32 38  0  0  1  0  0  0  0  0999 V2000
  181.5630  179.9990  139.3930 C   0  0  1  0  0  3  0  0  0  0  0  0
  185.9100  177.8470  141.4930 C   0  0  1  0  0  3  0  0  0  0  0  0
  184.1500  178.5770  146.2020 C   0  0  0  0  0  2  0  0  0  0  0  0
  185.3700  179.4430  146.4390 C   0  0  0  0  0  2  0  0  0  0  0  0
  188.4520  177.5120  141.2440 C   0  0  0  0  0  0  0  0  0  0  0  0
  189.7660  177.5630  141.8730 C   0  0  0  0  0  0  0  0  0  0  0  0
  184.3380  178.9900  139.9340 C   0  0  1  0  0  3  0  0  0  0  0  0
  183.4720  177.7580  141.9460 C   0  0  0  0  0  2  0  0  0  0  0  0
  191.3100  177.8380  143.4610 C   0  0  0  0  0  0  0  0  0  0  0  0
  181.8030  178.9350  140.4660 C   0  0  2  0  0  3  0  0  0  0  0  0
  183.8390  178.5690  144.7120 C   0  0  0  0  0  2  0  0  0  0  0  0
  184.8280  177.8370  142.4850 N   0  0  0  0  0  0  0  0  0  0  0  0
  185.0420  178.2500  143.8490 C   0  0  0  0  0  0  0  0  0  0  0  0
  187.4640  178.1520  143.4300 C   0  0  0  0  0  0  0  0  0  0  0  0
  191.8980  177.5040  142.3550 N   0  0  0  0  0  0  0  0  0  0  0  0
  182.8020  180.8660  139.0700 C   0  0  0  0  0  2  0  0  0  0  0  0
  183.2420  178.9460  141.0170 C   0  0  2  0  0  3  0  0  0  0  0  0
  190.9250  177.3290  141.3510 N   0  0  0  0  0  0  0  0  0  0  0  0
  184.1450  180.1310  138.9340 C   0  0  0  0  0  2  0  0  0  0  0  0
  181.7000  178.5370  138.9960 C   0  0  1  0  0  3  0  0  0  0  0  0
  186.5670  178.7990  145.7530 C   0  0  0  0  0  2  0  0  0  0  0  0
  186.3020  178.4380  144.3060 C   0  0  0  0  0  0  0  0  0  0  0  0
  188.8400  178.1890  144.0260 C   0  0  0  0  0  3  0  0  0  0  0  0
  185.7290  179.0460  140.5620 C   0  0  0  0  0  2  0  0  0  0  0  0
  188.3190  177.2050  140.0290 O   0  0  0  0  0  0  0  0  0  0  0  0
  191.9980  178.0910  144.6800 N   0  0  0  0  0  1  0  0  0  0  0  0
  187.2820  177.8400  142.1110 C   0  0  0  0  0  0  0  0  0  0  0  0
  189.8830  177.9080  143.2510 C   0  0  0  0  0  0  0  0  0  0  0  0
  180.4110  177.9940  138.7480 O   0  0  0  0  0  0  0  0  0  0  0  0
  179.9540  176.8380  139.3840 C   0  0  0  0  0  0  0  0  0  0  0  0
  180.6510  175.5270  139.2200 C   0  0  0  0  0  1  0  0  0  0  0  0
  178.9310  176.8980  140.1130 O   0  0  0  0  0  0  0  0  0  0  0  0
  1 16  1  6  0  0  0
  1 10  1  0  0  0  0
  2 24  1  1  0  0  0
  2 27  1  0  0  0  0
  2 12  1  0  0  0  0
  3  4  1  0  0  0  0
  5  6  1  0  0  0  0
  5 27  1  0  0  0  0
  6 28  1  0  0  0  0
  7 19  1  6  0  0  0
  7 24  1  0  0  0  0
  7 17  1  0  0  0  0
  8 12  1  0  0  0  0
  9 26  1  0  0  0  0
 10 17  1  0  0  0  0
 11  3  1  0  0  0  0
 12 13  1  0  0  0  0
 13 22  2  0  0  0  0
 13 11  1  0  0  0  0
 14 23  1  0  0  0  0
 14 22  1  0  0  0  0
 15  9  2  0  0  0  0
 17  8  1  0  0  0  0
 18  6  2  0  0  0  0
 18 15  1  0  0  0  0
 19 16  1  0  0  0  0
 20  1  1  0  0  0  0
 20 10  1  0  0  0  0
 21  4  1  0  0  0  0
 22 21  1  0  0  0  0
 25  5  2  0  0  0  0
 27 14  2  0  0  0  0
 28  9  1  0  0  0  0
 28 23  2  0  0  0  0
 29 20  1  0  0  0  0
 29 30  1  0  0  0  0
 30 32  2  0  0  0  0
 31 30  1  0  0  0  0
M  END
>  <MODEL>
5

>  <REMARK>
 VINA RESULT:      -6.5      2.622      4.771
  Name = 
  2 active torsions:
  status: ('A' for Active; 'I' for Inactive)
    1  A    between atoms: C_20  and  O_29
    2  A    between atoms: O_29  and  C_30
                            x       y       z     vdW  Elec       q    Type
                         _______ _______ _______ _____ _____    ______ ____

>  <TORSDO>
F 2

$$$$
=
 OpenBabel11122410353D

 32 38  0  0  1  0  0  0  0  0999 V2000
  195.3210  173.6010  137.5150 C   0  0  1  0  0  3  0  0  0  0  0  0
  190.9230  176.4770  136.9570 C   0  0  1  0  0  3  0  0  0  0  0  0
  190.9480  177.7060  141.8860 C   0  0  0  0  0  2  0  0  0  0  0  0
  189.5970  177.0260  141.9820 C   0  0  0  0  0  2  0  0  0  0  0  0
  188.6780  176.7150  135.7140 C   0  0  0  0  0  0  0  0  0  0  0  0
  187.2410  176.9420  135.8050 C   0  0  0  0  0  0  0  0  0  0  0  0
  192.7120  174.7790  136.6120 C   0  0  1  0  0  3  0  0  0  0  0  0
  193.0700  176.7120  138.1780 C   0  0  0  0  0  2  0  0  0  0  0  0
  185.2480  177.3570  136.7190 C   0  0  0  0  0  0  0  0  0  0  0  0
  194.9200  175.0130  137.9470 C   0  0  2  0  0  3  0  0  0  0  0  0
  191.7170  177.1010  140.7190 C   0  0  0  0  0  2  0  0  0  0  0  0
  191.6180  176.8770  138.1860 N   0  0  0  0  0  0  0  0  0  0  0  0
  190.9170  177.0580  139.4330 C   0  0  0  0  0  0  0  0  0  0  0  0
  188.8030  177.0080  138.1770 C   0  0  0  0  0  0  0  0  0  0  0  0
  185.1040  177.2200  135.4380 N   0  0  0  0  0  0  0  0  0  0  0  0
  194.1320  172.6940  137.1250 C   0  0  0  0  0  2  0  0  0  0  0  0
  193.3970  175.2460  137.9110 C   0  0  2  0  0  3  0  0  0  0  0  0
  186.3610  176.9580  134.8580 N   0  0  0  0  0  0  0  0  0  0  0  0
  193.0340  173.3270  136.2540 C   0  0  0  0  0  2  0  0  0  0  0  0
  195.5480  174.7770  136.5760 C   0  0  1  0  0  3  0  0  0  0  0  0
  188.7980  177.3510  140.7270 C   0  0  0  0  0  2  0  0  0  0  0  0
  189.5650  177.0890  139.4470 C   0  0  0  0  0  0  0  0  0  0  0  0
  187.3210  177.2350  138.2120 C   0  0  0  0  0  3  0  0  0  0  0  0
  191.2020  175.0010  136.6760 C   0  0  0  0  0  2  0  0  0  0  0  0
  189.2390  176.5000  134.6070 O   0  0  0  0  0  0  0  0  0  0  0  0
  184.1750  177.6310  137.6130 N   0  0  0  0  0  1  0  0  0  0  0  0
  189.4430  176.7530  136.9960 C   0  0  0  0  0  0  0  0  0  0  0  0
  186.6380  177.1900  137.0720 C   0  0  0  0  0  0  0  0  0  0  0  0
  196.9170  175.1550  136.6180 O   0  0  0  0  0  0  0  0  0  0  0  0
  197.9520  174.2220  136.5190 C   0  0  0  0  0  0  0  0  0  0  0  0
  198.8680  173.9470  137.6650 C   0  0  0  0  0  1  0  0  0  0  0  0
  198.1190  173.5990  135.4400 O   0  0  0  0  0  0  0  0  0  0  0  0
  1 16  1  6  0  0  0
  1 10  1  0  0  0  0
  2 24  1  1  0  0  0
  2 27  1  0  0  0  0
  2 12  1  0  0  0  0
  3  4  1  0  0  0  0
  5  6  1  0  0  0  0
  5 27  1  0  0  0  0
  6 28  1  0  0  0  0
  7 19  1  1  0  0  0
  7 24  1  0  0  0  0
  7 17  1  0  0  0  0
  8 12  1  0  0  0  0
  9 28  1  0  0  0  0
  9 26  1  0  0  0  0
 11  3  1  0  0  0  0
 12 13  1  0  0  0  0
 13 22  2  0  0  0  0
 13 11  1  0  0  0  0
 14 23  1  0  0  0  0
 14 22  1  0  0  0  0
 15  9  2  0  0  0  0
 17 10  1  0  0  0  0
 17  8  1  0  0  0  0
 18 15  1  0  0  0  0
 18  6  2  0  0  0  0
 19 16  1  0  0  0  0
 20 29  1  0  0  0  0
 20  1  1  0  0  0  0
 20 10  1  0  0  0  0
 21  4  1  0  0  0  0
 22 21  1  0  0  0  0
 25  5  2  0  0  0  0
 27 14  2  0  0  0  0
 28 23  2  0  0  0  0
 30 29  1  0  0  0  0
 30 31  1  0  0  0  0
 32 30  2  0  0  0  0
M  END
>  <MODEL>
6

>  <REMARK>
 VINA RESULT:      -6.3      6.784     11.130
  Name = 
  2 active torsions:
  status: ('A' for Active; 'I' for Inactive)
    1  A    between atoms: C_20  and  O_29
    2  A    between atoms: O_29  and  C_30
                            x       y       z     vdW  Elec       q    Type
                         _______ _______ _______ _____ _____    ______ ____

>  <TORSDO>
F 2

$$$$
