=
 OpenBabel11122411193D

 31 35  0  0  1  0  0  0  0  0999 V2000
  192.8670  174.7030  135.8170 C   0  0  0  0  0  0  0  0  0  0  0  0
  189.8820  176.8750  136.7450 C   0  0  2  0  0  3  0  0  0  0  0  0
  188.6290  176.0180  136.6480 C   0  0  0  0  0  0  0  0  0  0  0  0
  190.5230  176.2170  141.9730 O   0  0  0  0  0  0  0  0  0  0  0  0
  189.8210  177.2480  141.7840 C   0  0  0  0  0  0  0  0  0  0  0  0
  187.4570  174.0780  135.7700 C   0  0  0  0  0  0  0  0  0  0  0  0
  191.1310  176.0410  136.8500 C   0  0  0  0  0  0  0  0  0  0  0  0
  193.3570  174.3600  137.0810 C   0  0  0  0  0  3  0  0  0  0  0  0
  188.6170  174.8490  135.8720 C   0  0  0  0  0  3  0  0  0  0  0  0
  190.1530  177.2190  139.2520 C   0  0  0  0  0  0  0  0  0  0  0  0
  193.5240  174.1680  134.5950 C   0  0  0  0  0  1  0  0  0  0  0  0
  187.4030  177.6180  138.0200 O   0  0  0  0  0  0  0  0  0  0  0  0
  187.4620  172.9430  135.0290 F   0  0  0  0  0  0  0  0  0  0  0  0
  191.0300  176.2560  139.2970 N   0  0  0  0  0  0  0  0  0  0  0  0
  189.8150  177.8750  137.9250 C   0  0  2  0  0  3  0  0  0  0  0  0
  189.6070  177.7610  140.4630 N   0  0  0  0  0  2  0  0  0  0  0  0
  191.7510  175.5380  135.7010 C   0  0  0  0  0  3  0  0  0  0  0  0
  186.2930  174.4740  136.4320 C   0  0  0  0  0  3  0  0  0  0  0  0
  191.6340  175.7080  138.1200 C   0  0  0  0  0  0  0  0  0  0  0  0
  192.7420  174.8630  138.2320 C   0  0  0  0  0  3  0  0  0  0  0  0
  188.4570  178.5750  137.9470 C   0  0  0  0  0  2  0  0  0  0  0  0
  187.4380  176.4330  137.2810 C   0  0  0  0  0  0  0  0  0  0  0  0
  186.2840  175.6500  137.1850 C   0  0  0  0  0  3  0  0  0  0  0  0
  190.2530  177.5240  145.7040 C   0  0  1  0  0  3  0  0  0  0  0  0
  190.1890  178.8910  143.6320 C   0  0  0  0  0  2  0  0  0  0  0  0
  187.5170  176.3630  143.5780 O   0  0  0  0  0  0  0  0  0  0  0  0
  191.1290  176.7120  146.6340 C   0  0  0  0  0  1  0  0  0  0  0  0
  191.0990  178.1330  144.5930 C   0  0  0  0  0  2  0  0  0  0  0  0
  188.5690  176.9730  143.9010 C   0  0  0  0  0  0  0  0  0  0  0  0
  189.1900  177.9530  142.9430 C   0  0  2  0  0  3  0  0  0  0  0  0
  189.2040  176.6730  145.1490 N   0  0  0  0  0  2  0  0  0  0  0  0
  1  8  1  0  0  0  0
  2  3  1  1  0  0  0
  2  7  1  0  0  0  0
  2 15  1  0  0  0  0
  3 22  1  0  0  0  0
  5  4  2  0  0  0  0
  6  9  1  0  0  0  0
  6 18  2  0  0  0  0
  7 19  2  0  0  0  0
  8 20  2  0  0  0  0
  9  3  2  0  0  0  0
 10 14  2  0  0  0  0
 10 16  1  0  0  0  0
 11  1  1  0  0  0  0
 13  6  1  0  0  0  0
 15 21  1  1  0  0  0
 15 10  1  0  0  0  0
 16  5  1  0  0  0  0
 17  1  2  0  0  0  0
 17  7  1  0  0  0  0
 18 23  1  0  0  0  0
 19 20  1  0  0  0  0
 19 14  1  0  0  0  0
 21 12  1  0  0  0  0
 22 12  1  0  0  0  0
 23 22  2  0  0  0  0
 24 27  1  1  0  0  0
 25 28  1  0  0  0  0
 26 29  2  0  0  0  0
 28 24  1  0  0  0  0
 29 31  1  0  0  0  0
 30  5  1  6  0  0  0
 30 25  1  0  0  0  0
 30 29  1  0  0  0  0
 31 24  1  0  0  0  0
M  END
>  <MODEL>
1

>  <REMARK>
 VINA RESULT:      -8.0      0.000      0.000
  Name = 
  1 active torsions:
  status: ('A' for Active; 'I' for Inactive)
    1  A    between atoms: C_5  and  C_30
                            x       y       z     vdW  Elec       q    Type
                         _______ _______ _______ _____ _____    ______ ____

>  <TORSDO>
F 1

$$$$
=
 OpenBabel11122411193D

 31 35  0  0  1  0  0  0  0  0999 V2000
  180.9160  178.7060  143.2230 C   0  0  0  0  0  0  0  0  0  0  0  0
  181.0390  178.2730  139.4430 C   0  0  2  0  0  3  0  0  0  0  0  0
  180.7630  179.6260  138.8060 C   0  0  0  0  0  0  0  0  0  0  0  0
  186.3250  178.6740  139.1700 O   0  0  0  0  0  0  0  0  0  0  0  0
  185.9130  178.1060  138.1210 C   0  0  0  0  0  0  0  0  0  0  0  0
  179.8300  181.8680  138.9240 C   0  0  0  0  0  0  0  0  0  0  0  0
  181.4630  178.4010  140.8820 C   0  0  0  0  0  0  0  0  0  0  0  0
  182.2770  178.8010  143.5300 C   0  0  0  0  0  3  0  0  0  0  0  0
  180.0990  180.6350  139.5210 C   0  0  0  0  0  3  0  0  0  0  0  0
  183.5120  177.9060  138.9670 C   0  0  0  0  0  0  0  0  0  0  0  0
  179.9010  178.8240  144.3020 C   0  0  0  0  0  1  0  0  0  0  0  0
  181.7210  178.8550  136.7010 O   0  0  0  0  0  0  0  0  0  0  0  0
  179.2010  182.8390  139.6300 F   0  0  0  0  0  0  0  0  0  0  0  0
  183.8130  178.3250  140.1630 N   0  0  0  0  0  0  0  0  0  0  0  0
  182.0940  177.4610  138.6540 C   0  0  2  0  0  3  0  0  0  0  0  0
  184.5380  177.7270  137.9810 N   0  0  0  0  0  2  0  0  0  0  0  0
  180.5080  178.5120  141.9000 C   0  0  0  0  0  3  0  0  0  0  0  0
  180.2080  182.1010  137.6000 C   0  0  0  0  0  3  0  0  0  0  0  0
  182.8310  178.4820  141.1950 C   0  0  0  0  0  0  0  0  0  0  0  0
  183.2350  178.6890  142.5180 C   0  0  0  0  0  3  0  0  0  0  0  0
  181.7830  177.5060  137.1580 C   0  0  0  0  0  2  0  0  0  0  0  0
  181.1050  179.8550  137.4560 C   0  0  0  0  0  0  0  0  0  0  0  0
  180.8430  181.0960  136.8680 C   0  0  0  0  0  3  0  0  0  0  0  0
  189.5780  176.7250  137.5770 C   0  0  1  0  0  3  0  0  0  0  0  0
  187.2130  176.3340  136.9300 C   0  0  0  0  0  2  0  0  0  0  0  0
  187.9870  179.9280  136.8220 O   0  0  0  0  0  0  0  0  0  0  0  0
  190.6550  176.4290  138.5980 C   0  0  0  0  0  1  0  0  0  0  0  0
  188.3030  175.9700  137.9320 C   0  0  0  0  0  2  0  0  0  0  0  0
  188.0800  178.7000  137.0810 C   0  0  0  0  0  0  0  0  0  0  0  0
  186.8590  177.8240  136.9960 C   0  0  2  0  0  3  0  0  0  0  0  0
  189.3310  178.1630  137.5250 N   0  0  0  0  0  2  0  0  0  0  0  0
  1  8  1  0  0  0  0
  1 11  1  0  0  0  0
  2  3  1  6  0  0  0
  2  7  1  0  0  0  0
  3  9  1  0  0  0  0
  5  4  2  0  0  0  0
  6  9  2  0  0  0  0
  6 13  1  0  0  0  0
  7 19  2  0  0  0  0
  7 17  1  0  0  0  0
 10 14  2  0  0  0  0
 12 21  1  0  0  0  0
 12 22  1  0  0  0  0
 14 19  1  0  0  0  0
 15 21  1  6  0  0  0
 15 10  1  0  0  0  0
 15  2  1  0  0  0  0
 16  5  1  0  0  0  0
 16 10  1  0  0  0  0
 17  1  2  0  0  0  0
 18  6  1  0  0  0  0
 19 20  1  0  0  0  0
 20  8  2  0  0  0  0
 22  3  2  0  0  0  0
 23 22  1  0  0  0  0
 23 18  2  0  0  0  0
 24 28  1  0  0  0  0
 24 27  1  1  0  0  0
 25 30  1  0  0  0  0
 25 28  1  0  0  0  0
 26 29  2  0  0  0  0
 29 31  1  0  0  0  0
 30 29  1  0  0  0  0
 30  5  1  1  0  0  0
 31 24  1  0  0  0  0
M  END
>  <MODEL>
2

>  <REMARK>
 VINA RESULT:      -7.7      6.138      9.524
  Name = 
  1 active torsions:
  status: ('A' for Active; 'I' for Inactive)
    1  A    between atoms: C_5  and  C_30
                            x       y       z     vdW  Elec       q    Type
                         _______ _______ _______ _____ _____    ______ ____

>  <TORSDO>
F 1

$$$$
=
 OpenBabel11122411193D

 31 35  0  0  1  0  0  0  0  0999 V2000
  192.1750  176.4410  138.0690 C   0  0  0  0  0  0  0  0  0  0  0  0
  188.6500  176.7400  136.6650 C   0  0  2  0  0  3  0  0  0  0  0  0
  188.0150  175.3580  136.6900 C   0  0  0  0  0  0  0  0  0  0  0  0
  186.5260  178.3390  141.2590 O   0  0  0  0  0  0  0  0  0  0  0  0
  185.7480  178.6690  140.3230 C   0  0  0  0  0  0  0  0  0  0  0  0
  188.2230  172.9360  136.7440 C   0  0  0  0  0  0  0  0  0  0  0  0
  189.8330  176.8360  137.5910 C   0  0  0  0  0  0  0  0  0  0  0  0
  191.9810  176.8750  139.3840 C   0  0  0  0  0  3  0  0  0  0  0  0
  188.8110  174.2030  136.7420 C   0  0  0  0  0  3  0  0  0  0  0  0
  187.3870  177.9870  138.4870 C   0  0  0  0  0  0  0  0  0  0  0  0
  193.5210  175.9940  137.6250 C   0  0  0  0  0  1  0  0  0  0  0  0
  185.7970  176.3480  136.4810 O   0  0  0  0  0  0  0  0  0  0  0  0
  189.0020  171.8290  136.8090 F   0  0  0  0  0  0  0  0  0  0  0  0
  188.3570  177.7590  139.3270 N   0  0  0  0  0  0  0  0  0  0  0  0
  187.6300  177.8560  136.9950 C   0  0  2  0  0  3  0  0  0  0  0  0
  186.1300  178.4990  138.9530 N   0  0  0  0  0  2  0  0  0  0  0  0
  191.1010  176.4160  137.1740 C   0  0  0  0  0  3  0  0  0  0  0  0
  186.8340  172.8100  136.6810 C   0  0  0  0  0  3  0  0  0  0  0  0
  189.6430  177.2860  138.9090 C   0  0  0  0  0  0  0  0  0  0  0  0
  190.7170  177.2980  139.8050 C   0  0  0  0  0  3  0  0  0  0  0  0
  186.3370  177.6390  136.2080 C   0  0  0  0  0  2  0  0  0  0  0  0
  186.6150  175.2200  136.5850 C   0  0  0  0  0  0  0  0  0  0  0  0
  186.0320  173.9500  136.6000 C   0  0  0  0  0  3  0  0  0  0  0  0
  181.9450  177.9510  139.5120 C   0  0  1  0  0  3  0  0  0  0  0  0
  183.5340  178.2350  141.3990 C   0  0  0  0  0  2  0  0  0  0  0  0
  184.1440  180.7880  138.8230 O   0  0  0  0  0  0  0  0  0  0  0  0
  181.3400  176.9710  138.5300 C   0  0  0  0  0  1  0  0  0  0  0  0
  182.8850  177.2210  140.4630 C   0  0  0  0  0  2  0  0  0  0  0  0
  183.7240  179.7420  139.3830 C   0  0  0  0  0  0  0  0  0  0  0  0
  184.3990  179.2400  140.6310 C   0  0  2  0  0  3  0  0  0  0  0  0
  182.6550  179.0010  138.7860 N   0  0  0  0  0  2  0  0  0  0  0  0
  1  8  1  0  0  0  0
  2  3  1  1  0  0  0
  2 15  1  0  0  0  0
  2  7  1  0  0  0  0
  3  9  1  0  0  0  0
  5  4  2  0  0  0  0
  6 13  1  0  0  0  0
  7 19  2  0  0  0  0
  8 20  2  0  0  0  0
  9  6  2  0  0  0  0
 10 16  1  0  0  0  0
 10 14  2  0  0  0  0
 11  1  1  0  0  0  0
 12 22  1  0  0  0  0
 15 21  1  6  0  0  0
 15 10  1  0  0  0  0
 16  5  1  0  0  0  0
 17  7  1  0  0  0  0
 17  1  2  0  0  0  0
 18  6  1  0  0  0  0
 19 14  1  0  0  0  0
 19 20  1  0  0  0  0
 21 12  1  0  0  0  0
 22 23  1  0  0  0  0
 22  3  2  0  0  0  0
 23 18  2  0  0  0  0
 24 27  1  6  0  0  0
 24 28  1  0  0  0  0
 26 29  2  0  0  0  0
 28 25  1  0  0  0  0
 29 30  1  0  0  0  0
 30  5  1  6  0  0  0
 30 25  1  0  0  0  0
 31 29  1  0  0  0  0
 31 24  1  0  0  0  0
M  END
>  <MODEL>
3

>  <REMARK>
 VINA RESULT:      -7.4      3.201      5.100
  Name = 
  1 active torsions:
  status: ('A' for Active; 'I' for Inactive)
    1  A    between atoms: C_5  and  C_30
                            x       y       z     vdW  Elec       q    Type
                         _______ _______ _______ _____ _____    ______ ____

>  <TORSDO>
F 1

$$$$
=
 OpenBabel11122411193D

 31 35  0  0  1  0  0  0  0  0999 V2000
  183.6080  178.9960  143.1840 C   0  0  0  0  0  0  0  0  0  0  0  0
  182.7020  177.8540  139.6670 C   0  0  2  0  0  3  0  0  0  0  0  0
  181.9570  178.9900  138.9820 C   0  0  0  0  0  0  0  0  0  0  0  0
  187.4450  179.0750  137.6200 O   0  0  0  0  0  0  0  0  0  0  0  0
  186.8780  178.2510  136.8510 C   0  0  0  0  0  0  0  0  0  0  0  0
  180.6280  181.0220  139.1010 C   0  0  0  0  0  0  0  0  0  0  0  0
  183.4920  178.3330  140.8560 C   0  0  0  0  0  0  0  0  0  0  0  0
  184.9420  179.3760  143.0110 C   0  0  0  0  0  3  0  0  0  0  0  0
  181.3280  179.9940  139.7350 C   0  0  0  0  0  3  0  0  0  0  0  0
  184.9400  177.8220  138.4580 C   0  0  0  0  0  0  0  0  0  0  0  0
  182.9570  179.1520  144.5110 C   0  0  0  0  0  1  0  0  0  0  0  0
  182.3970  177.9920  136.8020 O   0  0  0  0  0  0  0  0  0  0  0  0
  180.0370  181.9940  139.8380 F   0  0  0  0  0  0  0  0  0  0  0  0
  185.4800  178.5120  139.4210 N   0  0  0  0  0  0  0  0  0  0  0  0
  183.6290  177.0920  138.6900 C   0  0  2  0  0  3  0  0  0  0  0  0
  185.6430  177.6270  137.2220 N   0  0  0  0  0  2  0  0  0  0  0  0
  182.8810  178.4790  142.1070 C   0  0  0  0  0  3  0  0  0  0  0  0
  180.5370  181.0510  137.7080 C   0  0  0  0  0  3  0  0  0  0  0  0
  184.8380  178.7020  140.6880 C   0  0  0  0  0  0  0  0  0  0  0  0
  185.5580  179.2300  141.7640 C   0  0  0  0  0  3  0  0  0  0  0  0
  182.8880  176.7890  137.3880 C   0  0  0  0  0  2  0  0  0  0  0  0
  181.8260  179.0040  137.5770 C   0  0  0  0  0  0  0  0  0  0  0  0
  181.1340  180.0420  136.9480 C   0  0  0  0  0  3  0  0  0  0  0  0
  187.6240  175.0680  134.6280 C   0  0  1  0  0  3  0  0  0  0  0  0
  186.4610  177.2620  134.5940 C   0  0  0  0  0  2  0  0  0  0  0  0
  189.7760  177.5990  136.1520 O   0  0  0  0  0  0  0  0  0  0  0  0
  187.5070  173.6010  134.9790 C   0  0  0  0  0  1  0  0  0  0  0  0
  186.3010  175.7740  134.8910 C   0  0  0  0  0  2  0  0  0  0  0  0
  188.7260  177.0780  135.6940 C   0  0  0  0  0  0  0  0  0  0  0  0
  187.4870  177.9160  135.5260 C   0  0  2  0  0  3  0  0  0  0  0  0
  188.7000  175.6760  135.4070 N   0  0  0  0  0  2  0  0  0  0  0  0
  1 11  1  0  0  0  0
  2  3  1  6  0  0  0
  2  7  1  0  0  0  0
  3  9  1  0  0  0  0
  5 16  1  0  0  0  0
  5  4  2  0  0  0  0
  6  9  2  0  0  0  0
  6 13  1  0  0  0  0
  7 17  1  0  0  0  0
  8  1  1  0  0  0  0
 10 15  1  0  0  0  0
 10 14  2  0  0  0  0
 12 21  1  0  0  0  0
 12 22  1  0  0  0  0
 14 19  1  0  0  0  0
 15 21  1  6  0  0  0
 15  2  1  0  0  0  0
 16 10  1  0  0  0  0
 17  1  2  0  0  0  0
 18  6  1  0  0  0  0
 19  7  2  0  0  0  0
 19 20  1  0  0  0  0
 20  8  2  0  0  0  0
 22  3  2  0  0  0  0
 23 22  1  0  0  0  0
 23 18  2  0  0  0  0
 24 28  1  0  0  0  0
 24 27  1  1  0  0  0
 24 31  1  0  0  0  0
 25 28  1  0  0  0  0
 25 30  1  0  0  0  0
 29 26  2  0  0  0  0
 30 29  1  0  0  0  0
 30  5  1  1  0  0  0
 31 29  1  0  0  0  0
M  END
>  <MODEL>
4

>  <REMARK>
 VINA RESULT:      -7.3      5.154      9.123
  Name = 
  1 active torsions:
  status: ('A' for Active; 'I' for Inactive)
    1  A    between atoms: C_5  and  C_30
                            x       y       z     vdW  Elec       q    Type
                         _______ _______ _______ _____ _____    ______ ____

>  <TORSDO>
F 1

$$$$
=
 OpenBabel11122411193D

 31 35  0  0  1  0  0  0  0  0999 V2000
  190.4590  176.8740  137.8550 C   0  0  0  0  0  0  0  0  0  0  0  0
  186.9130  176.5870  136.5010 C   0  0  2  0  0  3  0  0  0  0  0  0
  186.3700  175.2210  136.8910 C   0  0  0  0  0  0  0  0  0  0  0  0
  184.7180  179.1740  140.5830 O   0  0  0  0  0  0  0  0  0  0  0  0
  183.9140  179.2060  139.6120 C   0  0  0  0  0  0  0  0  0  0  0  0
  186.7360  172.9110  137.5550 C   0  0  0  0  0  0  0  0  0  0  0  0
  188.0930  176.9900  137.3450 C   0  0  0  0  0  0  0  0  0  0  0  0
  190.2450  177.6170  139.0200 C   0  0  0  0  0  3  0  0  0  0  0  0
  187.2390  174.1690  137.2180 C   0  0  0  0  0  3  0  0  0  0  0  0
  185.5830  178.1790  137.9740 C   0  0  0  0  0  0  0  0  0  0  0  0
  191.8290  176.4120  137.5090 C   0  0  0  0  0  1  0  0  0  0  0  0
  184.0910  175.9880  136.4870 O   0  0  0  0  0  0  0  0  0  0  0  0
  187.5850  171.9070  137.8830 F   0  0  0  0  0  0  0  0  0  0  0  0
  186.5710  178.2330  138.8210 N   0  0  0  0  0  0  0  0  0  0  0  0
  185.8250  177.6860  136.5580 C   0  0  2  0  0  3  0  0  0  0  0  0
  184.2980  178.7150  138.3220 N   0  0  0  0  0  2  0  0  0  0  0  0
  189.3840  176.5560  137.0200 C   0  0  0  0  0  3  0  0  0  0  0  0
  185.3570  172.6880  137.5570 C   0  0  0  0  0  3  0  0  0  0  0  0
  187.8830  177.7490  138.5090 C   0  0  0  0  0  0  0  0  0  0  0  0
  188.9590  178.0550  139.3480 C   0  0  0  0  0  3  0  0  0  0  0  0
  184.5440  177.1960  135.8820 C   0  0  0  0  0  2  0  0  0  0  0  0
  184.9810  174.9760  136.8560 C   0  0  0  0  0  0  0  0  0  0  0  0
  184.4820  173.7190  137.2070 C   0  0  0  0  0  3  0  0  0  0  0  0
  180.4380  179.2270  137.7280 C   0  0  1  0  0  3  0  0  0  0  0  0
  181.4990  178.6260  139.8910 C   0  0  0  0  0  2  0  0  0  0  0  0
  182.7490  181.8810  138.7190 O   0  0  0  0  0  0  0  0  0  0  0  0
  180.0980  178.7520  136.3320 C   0  0  0  0  0  1  0  0  0  0  0  0
  181.1050  178.1050  138.5120 C   0  0  0  0  0  2  0  0  0  0  0  0
  182.1970  180.7490  138.7180 C   0  0  0  0  0  0  0  0  0  0  0  0
  182.5340  179.7530  139.7950 C   0  0  2  0  0  3  0  0  0  0  0  0
  181.3110  180.3960  137.6500 N   0  0  0  0  0  2  0  0  0  0  0  0
  1  8  1  0  0  0  0
  2 15  1  0  0  0  0
  2  3  1  1  0  0  0
  2  7  1  0  0  0  0
  3  9  1  0  0  0  0
  5  4  2  0  0  0  0
  6 18  1  0  0  0  0
  6 13  1  0  0  0  0
  7 19  2  0  0  0  0
  8 20  2  0  0  0  0
  9  6  2  0  0  0  0
 10 16  1  0  0  0  0
 10 14  2  0  0  0  0
 11  1  1  0  0  0  0
 12 22  1  0  0  0  0
 15 21  1  1  0  0  0
 15 10  1  0  0  0  0
 16  5  1  0  0  0  0
 17  7  1  0  0  0  0
 17  1  2  0  0  0  0
 19 14  1  0  0  0  0
 19 20  1  0  0  0  0
 21 12  1  0  0  0  0
 22  3  2  0  0  0  0
 22 23  1  0  0  0  0
 23 18  2  0  0  0  0
 24 27  1  6  0  0  0
 24 28  1  0  0  0  0
 28 25  1  0  0  0  0
 29 26  2  0  0  0  0
 29 30  1  0  0  0  0
 30  5  1  6  0  0  0
 30 25  1  0  0  0  0
 31 24  1  0  0  0  0
 31 29  1  0  0  0  0
M  END
>  <MODEL>
5

>  <REMARK>
 VINA RESULT:      -6.8      4.140      6.637
  Name = 
  1 active torsions:
  status: ('A' for Active; 'I' for Inactive)
    1  A    between atoms: C_5  and  C_30
                            x       y       z     vdW  Elec       q    Type
                         _______ _______ _______ _____ _____    ______ ____

>  <TORSDO>
F 1

$$$$
=
 OpenBabel11122411193D

 31 35  0  0  1  0  0  0  0  0999 V2000
  185.4500  178.2740  138.4290 C   0  0  0  0  0  0  0  0  0  0  0  0
  189.0690  178.0300  139.5830 C   0  0  2  0  0  3  0  0  0  0  0  0
  189.0830  177.3670  140.9520 C   0  0  0  0  0  0  0  0  0  0  0  0
  190.0500  173.5740  136.8710 O   0  0  0  0  0  0  0  0  0  0  0  0
  191.1510  174.1280  137.1390 C   0  0  0  0  0  0  0  0  0  0  0  0
  187.9580  176.7710  143.0240 C   0  0  0  0  0  0  0  0  0  0  0  0
  187.7840  177.7720  138.8420 C   0  0  0  0  0  0  0  0  0  0  0  0
  185.3630  177.1720  137.5730 C   0  0  0  0  0  3  0  0  0  0  0  0
  187.9340  177.3620  141.7590 C   0  0  0  0  0  3  0  0  0  0  0  0
  190.0570  176.2410  138.0670 C   0  0  0  0  0  0  0  0  0  0  0  0
  184.2540  179.1230  138.6710 C   0  0  0  0  0  1  0  0  0  0  0  0
  191.4500  176.8440  140.7000 O   0  0  0  0  0  0  0  0  0  0  0  0
  186.8390  176.7610  143.7880 F   0  0  0  0  0  0  0  0  0  0  0  0
  188.8610  175.8800  137.7000 N   0  0  0  0  0  0  0  0  0  0  0  0
  190.2750  177.5970  138.7140 C   0  0  2  0  0  3  0  0  0  0  0  0
  191.1940  175.4290  137.7380 N   0  0  0  0  0  2  0  0  0  0  0  0
  186.6580  178.5710  139.0680 C   0  0  0  0  0  3  0  0  0  0  0  0
  189.1340  176.1880  143.5000 C   0  0  0  0  0  3  0  0  0  0  0  0
  187.6990  176.6740  137.9690 C   0  0  0  0  0  0  0  0  0  0  0  0
  186.4860  176.3720  137.3410 C   0  0  0  0  0  3  0  0  0  0  0  0
  191.5640  177.6550  139.5340 C   0  0  0  0  0  2  0  0  0  0  0  0
  190.2770  176.8120  141.4580 C   0  0  0  0  0  0  0  0  0  0  0  0
  190.2920  176.2100  142.7190 C   0  0  0  0  0  3  0  0  0  0  0  0
  194.6260  174.8780  135.4090 C   0  0  1  0  0  3  0  0  0  0  0  0
  193.6180  174.1110  137.5450 C   0  0  0  0  0  2  0  0  0  0  0  0
  191.9540  172.4900  134.6930 O   0  0  0  0  0  0  0  0  0  0  0  0
  195.0560  176.0790  134.5940 C   0  0  0  0  0  1  0  0  0  0  0  0
  194.1060  175.3290  136.7670 C   0  0  0  0  0  2  0  0  0  0  0  0
  192.6560  173.2960  135.3580 C   0  0  0  0  0  0  0  0  0  0  0  0
  192.4390  173.4270  136.8420 C   0  0  2  0  0  3  0  0  0  0  0  0
  193.6020  174.1320  134.6830 N   0  0  0  0  0  2  0  0  0  0  0  0
  1 11  1  0  0  0  0
  1 17  1  0  0  0  0
  2  7  1  6  0  0  0
  2  3  1  0  0  0  0
  3 22  2  0  0  0  0
  3  9  1  0  0  0  0
  4  5  2  0  0  0  0
  5 16  1  0  0  0  0
  6 18  1  0  0  0  0
  6 13  1  0  0  0  0
  7 17  2  0  0  0  0
  8  1  2  0  0  0  0
  9  6  2  0  0  0  0
 10 15  1  0  0  0  0
 12 22  1  0  0  0  0
 14 19  1  0  0  0  0
 14 10  2  0  0  0  0
 15 21  1  1  0  0  0
 15  2  1  0  0  0  0
 16 10  1  0  0  0  0
 19  7  1  0  0  0  0
 20  8  1  0  0  0  0
 20 19  2  0  0  0  0
 21 12  1  0  0  0  0
 22 23  1  0  0  0  0
 23 18  2  0  0  0  0
 24 27  1  6  0  0  0
 24 28  1  0  0  0  0
 26 29  2  0  0  0  0
 28 25  1  0  0  0  0
 29 30  1  0  0  0  0
 30  5  1  6  0  0  0
 30 25  1  0  0  0  0
 31 29  1  0  0  0  0
 31 24  1  0  0  0  0
M  END
>  <MODEL>
6

>  <REMARK>
 VINA RESULT:      -6.8      3.131      7.507
  Name = 
  1 active torsions:
  status: ('A' for Active; 'I' for Inactive)
    1  A    between atoms: C_5  and  C_30
                            x       y       z     vdW  Elec       q    Type
                         _______ _______ _______ _____ _____    ______ ____

>  <TORSDO>
F 1

$$$$
=
 OpenBabel11122411193D

 31 35  0  0  1  0  0  0  0  0999 V2000
  179.9540  178.4330  142.2340 C   0  0  0  0  0  0  0  0  0  0  0  0
  183.2430  179.2200  140.4880 C   0  0  2  0  0  3  0  0  0  0  0  0
  184.3770  178.7850  141.4040 C   0  0  0  0  0  0  0  0  0  0  0  0
  183.2250  174.7780  137.5840 O   0  0  0  0  0  0  0  0  0  0  0  0
  183.9990  175.6100  137.0360 C   0  0  0  0  0  0  0  0  0  0  0  0
  185.2170  178.2470  143.6210 C   0  0  0  0  0  0  0  0  0  0  0  0
  181.9390  178.5620  140.8510 C   0  0  0  0  0  0  0  0  0  0  0  0
  179.6000  177.2290  141.6160 C   0  0  0  0  0  3  0  0  0  0  0  0
  184.1670  178.6260  142.7820 C   0  0  0  0  0  3  0  0  0  0  0  0
  183.3390  177.5160  138.6020 C   0  0  0  0  0  0  0  0  0  0  0  0
  179.0910  179.0010  143.3030 C   0  0  0  0  0  1  0  0  0  0  0  0
  185.9310  178.8060  139.5250 O   0  0  0  0  0  0  0  0  0  0  0  0
  184.9980  178.0830  144.9480 F   0  0  0  0  0  0  0  0  0  0  0  0
  182.3800  176.8330  139.1600 N   0  0  0  0  0  0  0  0  0  0  0  0
  183.5670  178.9640  138.9960 C   0  0  2  0  0  3  0  0  0  0  0  0
  184.0910  176.9560  137.5160 N   0  0  0  0  0  2  0  0  0  0  0  0
  181.1250  179.0960  141.8560 C   0  0  0  0  0  3  0  0  0  0  0  0
  186.4920  178.0340  143.0920 C   0  0  0  0  0  3  0  0  0  0  0  0
  181.5740  177.3600  140.2200 C   0  0  0  0  0  0  0  0  0  0  0  0
  180.4080  176.6930  140.6090 C   0  0  0  0  0  3  0  0  0  0  0  0
  184.9820  179.4430  138.6740 C   0  0  0  0  0  2  0  0  0  0  0  0
  185.6770  178.6080  140.8840 C   0  0  0  0  0  0  0  0  0  0  0  0
  186.7210  178.2160  141.7270 C   0  0  0  0  0  3  0  0  0  0  0  0
  187.0270  173.1910  136.2560 C   0  0  1  0  0  3  0  0  0  0  0  0
  184.6930  173.7010  135.5780 C   0  0  0  0  0  2  0  0  0  0  0  0
  186.6070  176.8130  136.0060 O   0  0  0  0  0  0  0  0  0  0  0  0
  187.9050  172.4110  137.2100 C   0  0  0  0  0  1  0  0  0  0  0  0
  185.5620  172.8560  136.5040 C   0  0  0  0  0  2  0  0  0  0  0  0
  186.2810  175.5990  136.0770 C   0  0  0  0  0  0  0  0  0  0  0  0
  184.8450  175.1980  135.8720 C   0  0  2  0  0  3  0  0  0  0  0  0
  187.2680  174.6210  136.4230 N   0  0  0  0  0  2  0  0  0  0  0  0
  1 11  1  0  0  0  0
  2  7  1  1  0  0  0
  2  3  1  0  0  0  0
  3  9  1  0  0  0  0
  5 16  1  0  0  0  0
  5  4  2  0  0  0  0
  6 13  1  0  0  0  0
  7 17  2  0  0  0  0
  8  1  2  0  0  0  0
  9  6  2  0  0  0  0
 10 15  1  0  0  0  0
 10 14  2  0  0  0  0
 12 22  1  0  0  0  0
 14 19  1  0  0  0  0
 15 21  1  1  0  0  0
 15  2  1  0  0  0  0
 16 10  1  0  0  0  0
 17  1  1  0  0  0  0
 18  6  1  0  0  0  0
 19 20  2  0  0  0  0
 19  7  1  0  0  0  0
 20  8  1  0  0  0  0
 21 12  1  0  0  0  0
 22  3  2  0  0  0  0
 22 23  1  0  0  0  0
 23 18  2  0  0  0  0
 24 31  1  0  0  0  0
 24 28  1  0  0  0  0
 24 27  1  1  0  0  0
 25 30  1  0  0  0  0
 25 28  1  0  0  0  0
 26 29  2  0  0  0  0
 29 31  1  0  0  0  0
 30 29  1  0  0  0  0
 30  5  1  1  0  0  0
M  END
>  <MODEL>
7

>  <REMARK>
 VINA RESULT:      -6.7      5.394      9.716
  Name = 
  1 active torsions:
  status: ('A' for Active; 'I' for Inactive)
    1  A    between atoms: C_5  and  C_30
                            x       y       z     vdW  Elec       q    Type
                         _______ _______ _______ _____ _____    ______ ____

>  <TORSDO>
F 1

$$$$
=
 OpenBabel11122411193D

 31 35  0  0  1  0  0  0  0  0999 V2000
  186.7940  177.5400  138.0620 C   0  0  0  0  0  0  0  0  0  0  0  0
  190.2460  177.8400  139.6360 C   0  0  2  0  0  3  0  0  0  0  0  0
  190.2120  177.1350  140.9830 C   0  0  0  0  0  0  0  0  0  0  0  0
  192.2570  173.7120  136.9730 O   0  0  0  0  0  0  0  0  0  0  0  0
  193.2120  174.4270  137.3820 C   0  0  0  0  0  0  0  0  0  0  0  0
  188.9720  176.2840  142.8930 C   0  0  0  0  0  0  0  0  0  0  0  0
  189.1150  177.4070  138.7410 C   0  0  0  0  0  0  0  0  0  0  0  0
  186.9890  176.4730  137.1800 C   0  0  0  0  0  3  0  0  0  0  0  0
  188.9950  176.9130  141.6470 C   0  0  0  0  0  3  0  0  0  0  0  0
  191.6850  176.2960  138.2140 C   0  0  0  0  0  0  0  0  0  0  0  0
  185.4540  178.1730  138.1770 C   0  0  0  0  0  1  0  0  0  0  0  0
  192.6470  177.0140  141.0060 O   0  0  0  0  0  0  0  0  0  0  0  0
  187.7900  176.0630  143.5180 F   0  0  0  0  0  0  0  0  0  0  0  0
  190.6150  175.7600  137.6990 N   0  0  0  0  0  0  0  0  0  0  0  0
  191.5990  177.6440  138.9090 C   0  0  2  0  0  3  0  0  0  0  0  0
  192.9700  175.6930  138.0070 N   0  0  0  0  0  2  0  0  0  0  0  0
  187.8540  178.0040  138.8470 C   0  0  0  0  0  3  0  0  0  0  0  0
  190.1660  175.8820  143.4960 C   0  0  0  0  0  3  0  0  0  0  0  0
  189.3140  176.3440  137.8430 C   0  0  0  0  0  0  0  0  0  0  0  0
  188.2480  175.8750  137.0690 C   0  0  0  0  0  3  0  0  0  0  0  0
  192.7570  177.8770  139.8780 C   0  0  0  0  0  2  0  0  0  0  0  0
  191.4160  176.7620  141.6170 C   0  0  0  0  0  0  0  0  0  0  0  0
  191.3850  176.1220  142.8590 C   0  0  0  0  0  3  0  0  0  0  0  0
  195.2780  171.0620  137.5910 C   0  0  1  0  0  3  0  0  0  0  0  0
  194.7520  172.9560  136.0730 C   0  0  0  0  0  2  0  0  0  0  0  0
  195.4240  174.1930  139.4710 O   0  0  0  0  0  0  0  0  0  0  0  0
  194.8430  169.6960  138.0750 C   0  0  0  0  0  1  0  0  0  0  0  0
  194.3360  171.5510  136.4990 C   0  0  0  0  0  2  0  0  0  0  0  0
  195.1600  173.4090  138.5230 C   0  0  0  0  0  0  0  0  0  0  0  0
  194.6240  173.9570  137.2270 C   0  0  2  0  0  3  0  0  0  0  0  0
  195.3010  171.9970  138.7130 N   0  0  0  0  0  2  0  0  0  0  0  0
  1 11  1  0  0  0  0
  1 17  1  0  0  0  0
  2  7  1  6  0  0  0
  2  3  1  0  0  0  0
  3 22  2  0  0  0  0
  3  9  1  0  0  0  0
  4  5  2  0  0  0  0
  5 16  1  0  0  0  0
  6 18  1  0  0  0  0
  6 13  1  0  0  0  0
  7 17  2  0  0  0  0
  8  1  2  0  0  0  0
  9  6  2  0  0  0  0
 10 15  1  0  0  0  0
 12 22  1  0  0  0  0
 14 19  1  0  0  0  0
 14 10  2  0  0  0  0
 15  2  1  0  0  0  0
 15 21  1  1  0  0  0
 16 10  1  0  0  0  0
 19  7  1  0  0  0  0
 20  8  1  0  0  0  0
 20 19  2  0  0  0  0
 21 12  1  0  0  0  0
 22 23  1  0  0  0  0
 23 18  2  0  0  0  0
 24 27  1  1  0  0  0
 24 31  1  0  0  0  0
 25 28  1  0  0  0  0
 25 30  1  0  0  0  0
 28 24  1  0  0  0  0
 29 31  1  0  0  0  0
 29 26  2  0  0  0  0
 30  5  1  1  0  0  0
 30 29  1  0  0  0  0
M  END
>  <MODEL>
8

>  <REMARK>
 VINA RESULT:      -6.7      3.164      7.280
  Name = 
  1 active torsions:
  status: ('A' for Active; 'I' for Inactive)
    1  A    between atoms: C_5  and  C_30
                            x       y       z     vdW  Elec       q    Type
                         _______ _______ _______ _____ _____    ______ ____

>  <TORSDO>
F 1

$$$$
=
 OpenBabel11122411193D

 31 35  0  0  1  0  0  0  0  0999 V2000
  188.8670  177.6330  138.0990 C   0  0  0  0  0  0  0  0  0  0  0  0
  185.4720  176.7510  136.6220 C   0  0  2  0  0  3  0  0  0  0  0  0
  185.2270  175.2690  136.8590 C   0  0  0  0  0  0  0  0  0  0  0  0
  182.7520  178.3820  140.8790 O   0  0  0  0  0  0  0  0  0  0  0  0
  181.9660  178.3460  139.8930 C   0  0  0  0  0  0  0  0  0  0  0  0
  186.0680  173.0300  137.2990 C   0  0  0  0  0  0  0  0  0  0  0  0
  186.5340  177.3020  137.5360 C   0  0  0  0  0  0  0  0  0  0  0  0
  188.4940  178.1890  139.3260 C   0  0  0  0  0  3  0  0  0  0  0  0
  186.2970  174.3940  137.1030 C   0  0  0  0  0  3  0  0  0  0  0  0
  183.8250  177.8670  138.2090 C   0  0  0  0  0  0  0  0  0  0  0  0
  190.3070  177.5060  137.7480 C   0  0  0  0  0  1  0  0  0  0  0  0
  182.8410  175.5780  136.4690 O   0  0  0  0  0  0  0  0  0  0  0  0
  187.1080  172.1980  137.5480 F   0  0  0  0  0  0  0  0  0  0  0  0
  184.7740  178.0390  139.0850 N   0  0  0  0  0  0  0  0  0  0  0  0
  184.1750  177.5860  136.7580 C   0  0  2  0  0  3  0  0  0  0  0  0
  182.4540  178.0830  138.5720 N   0  0  0  0  0  2  0  0  0  0  0  0
  187.8900  177.1840  137.2060 C   0  0  0  0  0  3  0  0  0  0  0  0
  184.7680  172.5240  137.2390 C   0  0  0  0  0  3  0  0  0  0  0  0
  186.1600  177.8750  138.7630 C   0  0  0  0  0  0  0  0  0  0  0  0
  187.1420  178.3120  139.6590 C   0  0  0  0  0  3  0  0  0  0  0  0
  183.0320  176.9110  136.0010 C   0  0  0  0  0  2  0  0  0  0  0  0
  183.9220  174.7430  136.7600 C   0  0  0  0  0  0  0  0  0  0  0  0
  183.6970  173.3790  136.9690 C   0  0  0  0  0  3  0  0  0  0  0  0
  179.3900  178.8100  142.8560 C   0  0  1  0  0  3  0  0  0  0  0  0
  180.2320  179.9050  140.7930 C   0  0  0  0  0  2  0  0  0  0  0  0
  179.7140  176.3110  140.2080 O   0  0  0  0  0  0  0  0  0  0  0  0
  179.5950  178.6320  144.3450 C   0  0  0  0  0  1  0  0  0  0  0  0
  180.4140  179.7920  142.3030 C   0  0  0  0  0  2  0  0  0  0  0  0
  179.8650  177.4080  140.8070 C   0  0  0  0  0  0  0  0  0  0  0  0
  180.5000  178.5690  140.0900 C   0  0  2  0  0  3  0  0  0  0  0  0
  179.4990  177.5160  142.1860 N   0  0  0  0  0  2  0  0  0  0  0  0
  1  8  1  0  0  0  0
  2 15  1  0  0  0  0
  2  3  1  1  0  0  0
  2  7  1  0  0  0  0
  3  9  1  0  0  0  0
  5  4  2  0  0  0  0
  6 13  1  0  0  0  0
  7 19  2  0  0  0  0
  8 20  2  0  0  0  0
  9  6  2  0  0  0  0
 10 16  1  0  0  0  0
 10 14  2  0  0  0  0
 11  1  1  0  0  0  0
 12 22  1  0  0  0  0
 15 21  1  1  0  0  0
 15 10  1  0  0  0  0
 16  5  1  0  0  0  0
 17  7  1  0  0  0  0
 17  1  2  0  0  0  0
 18  6  1  0  0  0  0
 19 14  1  0  0  0  0
 19 20  1  0  0  0  0
 21 12  1  0  0  0  0
 22  3  2  0  0  0  0
 22 23  1  0  0  0  0
 23 18  2  0  0  0  0
 24 27  1  1  0  0  0
 25 28  1  0  0  0  0
 26 29  2  0  0  0  0
 28 24  1  0  0  0  0
 29 31  1  0  0  0  0
 30  5  1  1  0  0  0
 30 25  1  0  0  0  0
 30 29  1  0  0  0  0
 31 24  1  0  0  0  0
M  END
>  <MODEL>
9

>  <REMARK>
 VINA RESULT:      -6.4      5.238      7.018
  Name = 
  1 active torsions:
  status: ('A' for Active; 'I' for Inactive)
    1  A    between atoms: C_5  and  C_30
                            x       y       z     vdW  Elec       q    Type
                         _______ _______ _______ _____ _____    ______ ____

>  <TORSDO>
F 1

$$$$
