=
 OpenBabel11122412203D

 34 40  0  0  1  0  0  0  0  0999 V2000
  188.7460  177.6920  145.1330 C   0  0  0  0  0  0  0  0  0  0  0  0
  191.2630  178.2210  145.0320 C   0  0  0  0  0  2  0  0  0  0  0  0
  182.9540  178.4640  142.3300 N   0  0  2  0  0  0  0  0  0  0  0  0
  186.2280  177.5110  145.0960 C   0  0  1  0  0  3  0  0  0  0  0  0
  185.2700  178.0540  142.7880 C   0  0  1  0  0  3  0  0  0  0  0  0
  184.1330  178.9110  140.5870 C   0  0  0  0  0  2  0  0  0  0  0  0
  182.6780  178.6160  140.9090 C   0  0  0  0  0  2  0  0  0  0  0  0
  182.9120  179.4640  144.5820 C   0  0  0  0  0  2  0  0  0  0  0  0
  189.9250  178.2010  143.0770 N   0  0  2  0  0  0  0  0  0  0  0  0
  186.6810  178.2760  142.2520 C   0  0  0  0  0  2  0  0  0  0  0  0
  183.8050  178.2460  144.9080 C   0  0  0  0  0  2  0  0  0  0  0  0
  189.0670  177.2930  142.3090 C   0  0  1  0  0  3  0  0  0  0  0  0
  192.1730  178.4670  143.8440 C   0  0  0  0  0  2  0  0  0  0  0  0
  185.2250  178.3730  144.3060 C   0  0  1  0  0  3  0  0  0  0  0  0
  182.2770  179.4380  143.1710 C   0  0  0  0  0  2  0  0  0  0  0  0
  187.5980  177.5180  144.4250 C   0  0  0  0  0  0  0  0  0  0  0  0
  184.2900  178.9740  142.0890 C   0  0  1  0  0  3  0  0  0  0  0  0
  187.6330  177.2820  142.9160 C   0  0  1  0  0  3  0  0  0  0  0  0
  187.4840  177.3990  147.2710 C   0  0  0  0  0  2  0  0  0  0  0  0
  186.2710  177.9730  146.5600 C   0  0  0  0  0  2  0  0  0  0  0  0
  191.3070  178.2080  142.6150 C   0  0  0  0  0  2  0  0  0  0  0  0
  188.7340  177.9650  146.6160 C   0  0  0  0  0  2  0  0  0  0  0  0
  190.0490  177.5980  144.3890 C   0  0  2  0  0  3  0  0  0  0  0  0
  189.0690  177.6030  140.8070 C   0  0  0  0  0  2  0  0  0  0  0  0
  190.1040  176.7620  140.0750 C   0  0  0  0  0  2  0  0  0  0  0  0
  189.6010  176.3950  138.6920 C   0  0  0  0  0  2  0  0  0  0  0  0
  190.5390  176.9590  137.6490 C   0  0  0  0  0  2  0  0  0  0  0  0
  189.7320  177.6110  136.5430 C   0  0  0  0  0  2  0  0  0  0  0  0
  188.9860  178.8260  137.0710 C   0  0  0  0  0  2  0  0  0  0  0  0
  185.9650  177.0110  136.2550 C   0  0  0  0  0  2  0  0  0  0  0  0
  186.7610  178.4930  137.9170 O   0  0  0  0  0  0  0  0  0  0  0  0
  187.5020  178.7440  136.7500 C   0  0  2  0  0  3  0  0  0  0  0  0
  185.6140  177.8150  137.4840 C   0  0  0  0  0  2  0  0  0  0  0  0
  187.2530  177.6120  135.7820 C   0  0  0  0  0  2  0  0  0  0  0  0
  1 22  1  0  0  0  0
  3  7  1  6  0  0  0
  3 15  1  0  0  0  0
  4 20  1  1  0  0  0
  5 10  1  6  0  0  0
  5 14  1  0  0  0  0
  6  7  1  0  0  0  0
  8 11  1  0  0  0  0
  9 21  1  6  0  0  0
  9 23  1  0  0  0  0
 12 24  1  6  0  0  0
 12 18  1  0  0  0  0
 12  9  1  0  0  0  0
 13  2  1  0  0  0  0
 14 11  1  1  0  0  0
 14  4  1  0  0  0  0
 15  8  1  0  0  0  0
 16  4  1  0  0  0  0
 16  1  2  0  0  0  0
 17  6  1  6  0  0  0
 17  3  1  0  0  0  0
 17  5  1  0  0  0  0
 18 10  1  6  0  0  0
 18 16  1  0  0  0  0
 20 19  1  0  0  0  0
 21 13  1  0  0  0  0
 22 19  1  0  0  0  0
 23  2  1  1  0  0  0
 23  1  1  0  0  0  0
 25 24  1  0  0  0  0
 26 25  1  0  0  0  0
 27 26  1  0  0  0  0
 28 29  1  0  0  0  0
 28 27  1  0  0  0  0
 30 33  1  0  0  0  0
 32 29  1  1  0  0  0
 32 31  1  0  0  0  0
 33 31  1  0  0  0  0
 34 30  1  0  0  0  0
 34 32  1  0  0  0  0
M  END
>  <MODEL>
1

>  <REMARK>
 VINA RESULT:      -9.1      0.000      0.000
  Name = 
  7 active torsions:
  status: ('A' for Active; 'I' for Inactive)
    1  A    between atoms: C_10  and  C_17
    2  A    between atoms: C_10  and  C_22
    3  A    between atoms: C_13  and  C_24
    4  A    between atoms: C_17  and  C_28
    5  A    between atoms: C_22  and  C_24
    6  A    between atoms: C_28  and  C_29
    7  A    between atoms: C_29  and  C_32
                            x       y       z     vdW  Elec       q    Type
                         _______ _______ _______ _____ _____    ______ ____

>  <TORSDO>
F 7

$$$$
=
 OpenBabel11122412203D

 34 40  0  0  1  0  0  0  0  0999 V2000
  188.6360  177.7520  145.1730 C   0  0  0  0  0  0  0  0  0  0  0  0
  191.1530  178.2920  145.2080 C   0  0  0  0  0  2  0  0  0  0  0  0
  183.0050  178.4730  142.0470 N   0  0  2  0  0  0  0  0  0  0  0  0
  186.1240  177.5580  144.9980 C   0  0  1  0  0  3  0  0  0  0  0  0
  185.2940  178.0790  142.6360 C   0  0  1  0  0  3  0  0  0  0  0  0
  184.2780  178.9120  140.3690 C   0  0  0  0  0  2  0  0  0  0  0  0
  182.8080  178.6130  140.6110 C   0  0  0  0  0  2  0  0  0  0  0  0
  182.8340  179.4910  144.2840 C   0  0  0  0  0  2  0  0  0  0  0  0
  189.9260  178.2510  143.1820 N   0  0  2  0  0  0  0  0  0  0  0  0
  186.7310  178.3030  142.1770 C   0  0  0  0  0  2  0  0  0  0  0  0
  183.7130  178.2800  144.6690 C   0  0  0  0  0  2  0  0  0  0  0  0
  189.1150  177.3330  142.3740 C   0  0  1  0  0  3  0  0  0  0  0  0
  192.1250  178.5340  144.0710 C   0  0  0  0  0  2  0  0  0  0  0  0
  185.1630  178.4090  144.1460 C   0  0  1  0  0  3  0  0  0  0  0  0
  182.2780  179.4500  142.8410 C   0  0  0  0  0  2  0  0  0  0  0  0
  187.5300  177.5670  144.4040 C   0  0  0  0  0  0  0  0  0  0  0  0
  184.3500  178.9880  141.8760 C   0  0  1  0  0  3  0  0  0  0  0  0
  187.6490  177.3200  142.9010 C   0  0  1  0  0  3  0  0  0  0  0  0
  187.2580  177.4690  147.2400 C   0  0  0  0  0  2  0  0  0  0  0  0
  186.0840  178.0310  146.4580 C   0  0  0  0  0  2  0  0  0  0  0  0
  191.3310  178.2610  142.7970 C   0  0  0  0  0  2  0  0  0  0  0  0
  188.5400  178.0360  146.6510 C   0  0  0  0  0  2  0  0  0  0  0  0
  189.9780  177.6590  144.5040 C   0  0  2  0  0  3  0  0  0  0  0  0
  189.2000  177.6320  140.8720 C   0  0  0  0  0  2  0  0  0  0  0  0
  189.9460  176.5300  140.1360 C   0  0  0  0  0  2  0  0  0  0  0  0
  191.1080  177.1120  139.3550 C   0  0  0  0  0  2  0  0  0  0  0  0
  191.5880  176.1010  138.3380 C   0  0  0  0  0  2  0  0  0  0  0  0
  190.3930  175.4360  137.6830 C   0  0  0  0  0  2  0  0  0  0  0  0
  190.1850  175.9780  136.2780 C   0  0  0  0  0  2  0  0  0  0  0  0
  187.2150  177.4760  137.6980 C   0  0  0  0  0  2  0  0  0  0  0  0
  189.1910  178.1440  136.5850 O   0  0  0  0  0  0  0  0  0  0  0  0
  188.9230  176.8230  136.1940 C   0  0  2  0  0  3  0  0  0  0  0  0
  187.9780  178.6300  137.0920 C   0  0  0  0  0  2  0  0  0  0  0  0
  187.8740  176.2600  137.1220 C   0  0  0  0  0  2  0  0  0  0  0  0
  1 22  1  0  0  0  0
  3  7  1  6  0  0  0
  3 15  1  0  0  0  0
  4 20  1  1  0  0  0
  5 10  1  6  0  0  0
  5 14  1  0  0  0  0
  6  7  1  0  0  0  0
  8 11  1  0  0  0  0
  9 21  1  6  0  0  0
  9 23  1  0  0  0  0
 12 24  1  6  0  0  0
 12 18  1  0  0  0  0
 12  9  1  0  0  0  0
 13  2  1  0  0  0  0
 14 11  1  1  0  0  0
 14  4  1  0  0  0  0
 15  8  1  0  0  0  0
 16  4  1  0  0  0  0
 16  1  2  0  0  0  0
 17  6  1  6  0  0  0
 17  3  1  0  0  0  0
 17  5  1  0  0  0  0
 18 10  1  6  0  0  0
 18 16  1  0  0  0  0
 20 19  1  0  0  0  0
 21 13  1  0  0  0  0
 22 19  1  0  0  0  0
 23  1  1  0  0  0  0
 23  2  1  1  0  0  0
 25 24  1  0  0  0  0
 26 25  1  0  0  0  0
 27 26  1  0  0  0  0
 28 27  1  0  0  0  0
 29 28  1  0  0  0  0
 31 33  1  0  0  0  0
 32 29  1  1  0  0  0
 32 31  1  0  0  0  0
 32 34  1  0  0  0  0
 33 30  1  0  0  0  0
 34 30  1  0  0  0  0
M  END
>  <MODEL>
2

>  <REMARK>
 VINA RESULT:      -9.0      0.883      1.230
  Name = 
  7 active torsions:
  status: ('A' for Active; 'I' for Inactive)
    1  A    between atoms: C_10  and  C_17
    2  A    between atoms: C_10  and  C_22
    3  A    between atoms: C_13  and  C_24
    4  A    between atoms: C_17  and  C_28
    5  A    between atoms: C_22  and  C_24
    6  A    between atoms: C_28  and  C_29
    7  A    between atoms: C_29  and  C_32
                            x       y       z     vdW  Elec       q    Type
                         _______ _______ _______ _____ _____    ______ ____

>  <TORSDO>
F 7

$$$$
=
 OpenBabel11122412203D

 34 40  0  0  1  0  0  0  0  0999 V2000
  187.7870  177.8760  139.0010 C   0  0  0  0  0  0  0  0  0  0  0  0
  189.9260  176.5490  138.4610 C   0  0  0  0  0  2  0  0  0  0  0  0
  183.2520  179.2340  143.4270 N   0  0  2  0  0  0  0  0  0  0  0  0
  185.5880  178.8830  139.7260 C   0  0  1  0  0  3  0  0  0  0  0  0
  185.3090  178.8250  142.2680 C   0  0  1  0  0  3  0  0  0  0  0  0
  184.7410  178.5240  144.8080 C   0  0  0  0  0  2  0  0  0  0  0  0
  183.4170  179.2660  144.8730 C   0  0  0  0  0  2  0  0  0  0  0  0
  182.1930  178.1730  141.4710 C   0  0  0  0  0  2  0  0  0  0  0  0
  189.3580  177.1260  140.6870 N   0  0  2  0  0  0  0  0  0  0  0  0
  186.6840  178.1800  142.4070 C   0  0  0  0  0  2  0  0  0  0  0  0
  183.2520  179.0050  140.7140 C   0  0  0  0  0  2  0  0  0  0  0  0
  189.1030  178.3110  141.5140 C   0  0  1  0  0  3  0  0  0  0  0  0
  191.0530  176.0850  139.3630 C   0  0  0  0  0  2  0  0  0  0  0  0
  184.6850  178.4500  140.8970 C   0  0  1  0  0  3  0  0  0  0  0  0
  182.0840  178.4910  142.9820 C   0  0  0  0  0  2  0  0  0  0  0  0
  187.0340  178.4610  139.9700 C   0  0  0  0  0  0  0  0  0  0  0  0
  184.3800  178.3250  143.3550 C   0  0  1  0  0  3  0  0  0  0  0  0
  187.6210  178.7610  141.3480 C   0  0  1  0  0  3  0  0  0  0  0  0
  186.0500  178.4440  137.2940 C   0  0  0  0  0  2  0  0  0  0  0  0
  185.0190  178.3480  138.4040 C   0  0  0  0  0  2  0  0  0  0  0  0
  190.7470  176.6890  140.7310 C   0  0  0  0  0  2  0  0  0  0  0  0
  187.2170  177.5360  137.6460 C   0  0  0  0  0  2  0  0  0  0  0  0
  189.2250  177.5760  139.3160 C   0  0  2  0  0  3  0  0  0  0  0  0
  189.4970  178.1060  142.9820 C   0  0  0  0  0  2  0  0  0  0  0  0
  190.5190  179.1410  143.4250 C   0  0  0  0  0  2  0  0  0  0  0  0
  191.6550  178.4730  144.1740 C   0  0  0  0  0  2  0  0  0  0  0  0
  191.2780  177.0430  144.4900 C   0  0  0  0  0  2  0  0  0  0  0  0
  191.6210  176.7360  145.9340 C   0  0  0  0  0  2  0  0  0  0  0  0
  190.3690  176.3690  146.7140 C   0  0  0  0  0  2  0  0  0  0  0  0
  187.2300  178.0340  147.3920 C   0  0  0  0  0  2  0  0  0  0  0  0
  189.3480  177.7420  148.4020 O   0  0  0  0  0  0  0  0  0  0  0  0
  189.5270  177.6000  147.0170 C   0  0  2  0  0  3  0  0  0  0  0  0
  188.1270  178.4140  148.5460 C   0  0  0  0  0  2  0  0  0  0  0  0
  188.1670  177.4540  146.3780 C   0  0  0  0  0  2  0  0  0  0  0  0
  1 23  1  0  0  0  0
  1 16  2  0  0  0  0
  2 13  1  0  0  0  0
  3 15  1  1  0  0  0
  3  7  1  0  0  0  0
  4 20  1  6  0  0  0
  4 16  1  0  0  0  0
  4 14  1  0  0  0  0
  5 10  1  1  0  0  0
  5 17  1  0  0  0  0
  6  7  1  0  0  0  0
  8 15  1  0  0  0  0
  9 21  1  6  0  0  0
  9 12  1  0  0  0  0
 11  8  1  0  0  0  0
 12 24  1  1  0  0  0
 13 21  1  0  0  0  0
 14 11  1  6  0  0  0
 14  5  1  0  0  0  0
 16 18  1  0  0  0  0
 17  3  1  0  0  0  0
 17  6  1  1  0  0  0
 18 12  1  0  0  0  0
 18 10  1  1  0  0  0
 19 22  1  0  0  0  0
 19 20  1  0  0  0  0
 22  1  1  0  0  0  0
 23  2  1  6  0  0  0
 23  9  1  0  0  0  0
 24 25  1  0  0  0  0
 25 26  1  0  0  0  0
 26 27  1  0  0  0  0
 27 28  1  0  0  0  0
 28 29  1  0  0  0  0
 30 33  1  0  0  0  0
 31 33  1  0  0  0  0
 32 29  1  1  0  0  0
 32 31  1  0  0  0  0
 34 32  1  0  0  0  0
 34 30  1  0  0  0  0
M  END
>  <MODEL>
3

>  <REMARK>
 VINA RESULT:      -8.9      2.278      6.524
  Name = 
  7 active torsions:
  status: ('A' for Active; 'I' for Inactive)
    1  A    between atoms: C_10  and  C_17
    2  A    between atoms: C_10  and  C_22
    3  A    between atoms: C_13  and  C_24
    4  A    between atoms: C_17  and  C_28
    5  A    between atoms: C_22  and  C_24
    6  A    between atoms: C_28  and  C_29
    7  A    between atoms: C_29  and  C_32
                            x       y       z     vdW  Elec       q    Type
                         _______ _______ _______ _____ _____    ______ ____

>  <TORSDO>
F 7

$$$$
=
 OpenBabel11122412203D

 34 40  0  0  1  0  0  0  0  0999 V2000
  188.6020  177.6920  145.2260 C   0  0  0  0  0  0  0  0  0  0  0  0
  191.1430  178.0830  145.0910 C   0  0  0  0  0  2  0  0  0  0  0  0
  182.8710  178.3900  142.2810 N   0  0  2  0  0  0  0  0  0  0  0  0
  186.0780  177.6290  145.1820 C   0  0  1  0  0  3  0  0  0  0  0  0
  185.1620  177.9290  142.8130 C   0  0  1  0  0  3  0  0  0  0  0  0
  184.0820  178.5600  140.5100 C   0  0  0  0  0  2  0  0  0  0  0  0
  182.6120  178.3780  140.8480 C   0  0  0  0  0  2  0  0  0  0  0  0
  182.8660  179.6610  144.3910 C   0  0  0  0  0  2  0  0  0  0  0  0
  189.8170  177.8860  143.1380 N   0  0  2  0  0  0  0  0  0  0  0  0
  186.5850  178.0140  142.2710 C   0  0  0  0  0  2  0  0  0  0  0  0
  183.6950  178.4510  144.8750 C   0  0  0  0  0  2  0  0  0  0  0  0
  188.9200  176.9320  142.4770 C   0  0  1  0  0  3  0  0  0  0  0  0
  192.0700  178.1360  143.8930 C   0  0  0  0  0  2  0  0  0  0  0  0
  185.1230  178.4350  144.2800 C   0  0  1  0  0  3  0  0  0  0  0  0
  182.2380  179.4910  142.9870 C   0  0  0  0  0  2  0  0  0  0  0  0
  187.4510  177.4880  144.5320 C   0  0  0  0  0  0  0  0  0  0  0  0
  184.2320  178.8010  141.9950 C   0  0  1  0  0  3  0  0  0  0  0  0
  187.4830  177.0660  143.0640 C   0  0  1  0  0  3  0  0  0  0  0  0
  187.3140  177.7260  147.3690 C   0  0  0  0  0  2  0  0  0  0  0  0
  186.1350  178.2660  146.5790 C   0  0  0  0  0  2  0  0  0  0  0  0
  191.2000  177.7690  142.6950 C   0  0  0  0  0  2  0  0  0  0  0  0
  188.5940  178.1460  146.6650 C   0  0  0  0  0  2  0  0  0  0  0  0
  189.9020  177.4440  144.5160 C   0  0  2  0  0  3  0  0  0  0  0  0
  188.9460  177.0540  140.9480 C   0  0  0  0  0  2  0  0  0  0  0  0
  188.9820  178.5110  140.5150 C   0  0  0  0  0  2  0  0  0  0  0  0
  188.8280  178.6180  139.0100 C   0  0  0  0  0  2  0  0  0  0  0  0
  188.1150  177.3900  138.4900 C   0  0  0  0  0  2  0  0  0  0  0  0
  188.8430  176.8620  137.2690 C   0  0  0  0  0  2  0  0  0  0  0  0
  189.4340  175.4910  137.5520 C   0  0  0  0  0  2  0  0  0  0  0  0
  192.9830  176.0420  137.9880 C   0  0  0  0  0  2  0  0  0  0  0  0
  191.4910  174.2490  137.5950 O   0  0  0  0  0  0  0  0  0  0  0  0
  190.8830  175.4110  137.0940 C   0  0  2  0  0  3  0  0  0  0  0  0
  192.8530  174.5640  137.6990 C   0  0  0  0  0  2  0  0  0  0  0  0
  191.6460  176.6050  137.6130 C   0  0  0  0  0  2  0  0  0  0  0  0
  1 22  1  0  0  0  0
  3  7  1  6  0  0  0
  3 15  1  0  0  0  0
  4 20  1  1  0  0  0
  5 10  1  6  0  0  0
  5 14  1  0  0  0  0
  6  7  1  0  0  0  0
  8 11  1  0  0  0  0
  9 21  1  6  0  0  0
  9 23  1  0  0  0  0
 12 24  1  6  0  0  0
 12 18  1  0  0  0  0
 12  9  1  0  0  0  0
 13  2  1  0  0  0  0
 14 11  1  1  0  0  0
 14  4  1  0  0  0  0
 15  8  1  0  0  0  0
 16  4  1  0  0  0  0
 16  1  2  0  0  0  0
 17  6  1  6  0  0  0
 17  3  1  0  0  0  0
 17  5  1  0  0  0  0
 18 10  1  6  0  0  0
 18 16  1  0  0  0  0
 20 19  1  0  0  0  0
 21 13  1  0  0  0  0
 22 19  1  0  0  0  0
 23  2  1  1  0  0  0
 23  1  1  0  0  0  0
 25 24  1  0  0  0  0
 26 25  1  0  0  0  0
 27 26  1  0  0  0  0
 28 29  1  0  0  0  0
 28 27  1  0  0  0  0
 31 33  1  0  0  0  0
 32 29  1  1  0  0  0
 32 31  1  0  0  0  0
 32 34  1  0  0  0  0
 33 30  1  0  0  0  0
 34 30  1  0  0  0  0
M  END
>  <MODEL>
4

>  <REMARK>
 VINA RESULT:      -8.6      1.546      2.632
  Name = 
  7 active torsions:
  status: ('A' for Active; 'I' for Inactive)
    1  A    between atoms: C_10  and  C_17
    2  A    between atoms: C_10  and  C_22
    3  A    between atoms: C_13  and  C_24
    4  A    between atoms: C_17  and  C_28
    5  A    between atoms: C_22  and  C_24
    6  A    between atoms: C_28  and  C_29
    7  A    between atoms: C_29  and  C_32
                            x       y       z     vdW  Elec       q    Type
                         _______ _______ _______ _____ _____    ______ ____

>  <TORSDO>
F 7

$$$$
=
 OpenBabel11122412203D

 34 40  0  0  1  0  0  0  0  0999 V2000
  184.4240  178.8200  144.3930 C   0  0  0  0  0  0  0  0  0  0  0  0
  181.9080  178.5960  143.8990 C   0  0  0  0  0  2  0  0  0  0  0  0
  190.4460  177.3270  142.5190 N   0  0  2  0  0  0  0  0  0  0  0  0
  186.9210  178.6970  144.7500 C   0  0  1  0  0  3  0  0  0  0  0  0
  188.1530  178.0170  142.6150 C   0  0  1  0  0  3  0  0  0  0  0  0
  189.5060  177.0060  140.6110 C   0  0  0  0  0  2  0  0  0  0  0  0
  190.9190  177.1280  141.1570 C   0  0  0  0  0  2  0  0  0  0  0  0
  190.0170  176.3540  144.7420 C   0  0  0  0  0  2  0  0  0  0  0  0
  183.5260  178.4340  142.1760 N   0  0  2  0  0  0  0  0  0  0  0  0
  186.8270  177.9600  141.8640 C   0  0  0  0  0  2  0  0  0  0  0  0
  189.2370  177.6740  144.9350 C   0  0  0  0  0  2  0  0  0  0  0  0
  184.5960  179.2230  141.5570 C   0  0  1  0  0  3  0  0  0  0  0  0
  181.1710  178.4470  142.5820 C   0  0  0  0  0  2  0  0  0  0  0  0
  187.9230  177.7120  144.1190 C   0  0  1  0  0  3  0  0  0  0  0  0
  190.8620  176.2890  143.4470 C   0  0  0  0  0  2  0  0  0  0  0  0
  185.6810  178.8470  143.8750 C   0  0  0  0  0  0  0  0  0  0  0  0
  189.1120  176.9790  142.0700 C   0  0  1  0  0  3  0  0  0  0  0  0
  185.9090  179.0680  142.3800 C   0  0  1  0  0  3  0  0  0  0  0  0
  185.3660  178.9830  146.7040 C   0  0  0  0  0  2  0  0  0  0  0  0
  186.5960  178.2600  146.1860 C   0  0  0  0  0  2  0  0  0  0  0  0
  182.2420  178.5870  141.5040 C   0  0  0  0  0  2  0  0  0  0  0  0
  184.1730  178.5640  145.8590 C   0  0  0  0  0  2  0  0  0  0  0  0
  183.2740  179.0610  143.4570 C   0  0  2  0  0  3  0  0  0  0  0  0
  184.7890  178.8990  140.0710 C   0  0  0  0  0  2  0  0  0  0  0  0
  183.8800  179.7520  139.2010 C   0  0  0  0  0  2  0  0  0  0  0  0
  183.2740  178.9140  138.0910 C   0  0  0  0  0  2  0  0  0  0  0  0
  183.8750  177.5260  138.1240 C   0  0  0  0  0  2  0  0  0  0  0  0
  184.6760  177.2920  136.8580 C   0  0  0  0  0  2  0  0  0  0  0  0
  185.9440  176.5120  137.1660 C   0  0  0  0  0  2  0  0  0  0  0  0
  188.6780  178.8800  137.2180 C   0  0  0  0  0  2  0  0  0  0  0  0
  188.3400  176.5500  136.9920 O   0  0  0  0  0  0  0  0  0  0  0  0
  187.1650  177.1820  136.5560 C   0  0  2  0  0  3  0  0  0  0  0  0
  189.3280  177.5430  136.9500 C   0  0  0  0  0  2  0  0  0  0  0  0
  187.2190  178.6280  136.9870 C   0  0  0  0  0  2  0  0  0  0  0  0
  1 22  1  0  0  0  0
  3  7  1  6  0  0  0
  3 15  1  0  0  0  0
  4 20  1  1  0  0  0
  5 10  1  6  0  0  0
  5 14  1  0  0  0  0
  6  7  1  0  0  0  0
  8 11  1  0  0  0  0
  9 21  1  6  0  0  0
  9 23  1  0  0  0  0
 12 24  1  6  0  0  0
 12  9  1  0  0  0  0
 12 18  1  0  0  0  0
 13  2  1  0  0  0  0
 14  4  1  0  0  0  0
 14 11  1  1  0  0  0
 15  8  1  0  0  0  0
 16  1  2  0  0  0  0
 16  4  1  0  0  0  0
 17  6  1  6  0  0  0
 17  3  1  0  0  0  0
 17  5  1  0  0  0  0
 18 10  1  6  0  0  0
 18 16  1  0  0  0  0
 20 19  1  0  0  0  0
 21 13  1  0  0  0  0
 22 19  1  0  0  0  0
 23  2  1  1  0  0  0
 23  1  1  0  0  0  0
 25 24  1  0  0  0  0
 26 27  1  0  0  0  0
 26 25  1  0  0  0  0
 28 29  1  0  0  0  0
 28 27  1  0  0  0  0
 32 34  1  0  0  0  0
 32 31  1  0  0  0  0
 32 29  1  1  0  0  0
 33 31  1  0  0  0  0
 33 30  1  0  0  0  0
 34 30  1  0  0  0  0
M  END
>  <MODEL>
5

>  <REMARK>
 VINA RESULT:      -8.2      1.255      5.664
  Name = 
  7 active torsions:
  status: ('A' for Active; 'I' for Inactive)
    1  A    between atoms: C_10  and  C_17
    2  A    between atoms: C_10  and  C_22
    3  A    between atoms: C_13  and  C_24
    4  A    between atoms: C_17  and  C_28
    5  A    between atoms: C_22  and  C_24
    6  A    between atoms: C_28  and  C_29
    7  A    between atoms: C_29  and  C_32
                            x       y       z     vdW  Elec       q    Type
                         _______ _______ _______ _____ _____    ______ ____

>  <TORSDO>
F 7

$$$$
=
 OpenBabel11122412203D

 34 40  0  0  1  0  0  0  0  0999 V2000
  188.6860  177.7220  145.0960 C   0  0  0  0  0  0  0  0  0  0  0  0
  191.2030  178.2580  145.0570 C   0  0  0  0  0  2  0  0  0  0  0  0
  182.9570  178.4920  142.1630 N   0  0  2  0  0  0  0  0  0  0  0  0
  186.1690  177.5340  145.0000 C   0  0  1  0  0  3  0  0  0  0  0  0
  185.2640  178.0860  142.6730 C   0  0  1  0  0  3  0  0  0  0  0  0
  184.1760  178.9510  140.4510 C   0  0  0  0  0  2  0  0  0  0  0  0
  182.7140  178.6500  140.7370 C   0  0  0  0  0  2  0  0  0  0  0  0
  182.8610  179.4810  144.4190 C   0  0  0  0  0  2  0  0  0  0  0  0
  189.9110  178.2450  143.0720 N   0  0  2  0  0  0  0  0  0  0  0  0
  186.6860  178.3150  142.1710 C   0  0  0  0  0  2  0  0  0  0  0  0
  183.7490  178.2640  144.7590 C   0  0  0  0  0  2  0  0  0  0  0  0
  189.0730  177.3380  142.2790 C   0  0  1  0  0  3  0  0  0  0  0  0
  192.1390  178.5130  143.8920 C   0  0  0  0  0  2  0  0  0  0  0  0
  185.1820  178.3980  144.1910 C   0  0  1  0  0  3  0  0  0  0  0  0
  182.2580  179.4600  142.9930 C   0  0  0  0  0  2  0  0  0  0  0  0
  187.5540  177.5490  144.3620 C   0  0  0  0  0  0  0  0  0  0  0  0
  184.2970  179.0070  141.9560 C   0  0  1  0  0  3  0  0  0  0  0  0
  187.6250  177.3210  142.8520 C   0  0  1  0  0  3  0  0  0  0  0  0
  187.3740  177.4140  147.2030 C   0  0  0  0  0  2  0  0  0  0  0  0
  186.1770  177.9880  146.4670 C   0  0  0  0  0  2  0  0  0  0  0  0
  191.3030  178.2580  142.6420 C   0  0  0  0  0  2  0  0  0  0  0  0
  188.6380  177.9870  146.5810 C   0  0  0  0  0  2  0  0  0  0  0  0
  190.0050  177.6350  144.3830 C   0  0  2  0  0  3  0  0  0  0  0  0
  189.1100  177.6570  140.7790 C   0  0  0  0  0  2  0  0  0  0  0  0
  189.8300  176.5640  140.0040 C   0  0  0  0  0  2  0  0  0  0  0  0
  189.7180  176.8140  138.5130 C   0  0  0  0  0  2  0  0  0  0  0  0
  190.2720  175.6250  137.7600 C   0  0  0  0  0  2  0  0  0  0  0  0
  191.7540  175.4900  138.0500 C   0  0  0  0  0  2  0  0  0  0  0  0
  192.5730  175.8590  136.8240 C   0  0  0  0  0  2  0  0  0  0  0  0
  194.9790  173.5290  138.1910 C   0  0  0  0  0  2  0  0  0  0  0  0
  193.7500  173.8590  136.1980 O   0  0  0  0  0  0  0  0  0  0  0  0
  193.9000  175.1160  136.8040 C   0  0  2  0  0  3  0  0  0  0  0  0
  194.7370  173.0520  136.7780 C   0  0  0  0  0  2  0  0  0  0  0  0
  194.3840  174.9030  138.2180 C   0  0  0  0  0  2  0  0  0  0  0  0
  1 22  1  0  0  0  0
  3  7  1  6  0  0  0
  3 15  1  0  0  0  0
  4 20  1  1  0  0  0
  5 10  1  6  0  0  0
  5 14  1  0  0  0  0
  6  7  1  0  0  0  0
  8 11  1  0  0  0  0
  9 21  1  6  0  0  0
  9 23  1  0  0  0  0
 12 24  1  6  0  0  0
 12 18  1  0  0  0  0
 12  9  1  0  0  0  0
 13  2  1  0  0  0  0
 14 11  1  1  0  0  0
 14  4  1  0  0  0  0
 15  8  1  0  0  0  0
 16  4  1  0  0  0  0
 16  1  2  0  0  0  0
 17  6  1  6  0  0  0
 17  3  1  0  0  0  0
 17  5  1  0  0  0  0
 18 10  1  6  0  0  0
 18 16  1  0  0  0  0
 20 19  1  0  0  0  0
 21 13  1  0  0  0  0
 22 19  1  0  0  0  0
 23  2  1  1  0  0  0
 23  1  1  0  0  0  0
 25 24  1  0  0  0  0
 26 25  1  0  0  0  0
 27 28  1  0  0  0  0
 27 26  1  0  0  0  0
 29 28  1  0  0  0  0
 30 34  1  0  0  0  0
 31 33  1  0  0  0  0
 31 32  1  0  0  0  0
 32 29  1  1  0  0  0
 32 34  1  0  0  0  0
 33 30  1  0  0  0  0
M  END
>  <MODEL>
6

>  <REMARK>
 VINA RESULT:      -8.2      2.338      3.557
  Name = 
  7 active torsions:
  status: ('A' for Active; 'I' for Inactive)
    1  A    between atoms: C_10  and  C_17
    2  A    between atoms: C_10  and  C_22
    3  A    between atoms: C_13  and  C_24
    4  A    between atoms: C_17  and  C_28
    5  A    between atoms: C_22  and  C_24
    6  A    between atoms: C_28  and  C_29
    7  A    between atoms: C_29  and  C_32
                            x       y       z     vdW  Elec       q    Type
                         _______ _______ _______ _____ _____    ______ ____

>  <TORSDO>
F 7

$$$$
=
 OpenBabel11122412203D

 34 40  0  0  1  0  0  0  0  0999 V2000
  184.2780  178.8050  144.2800 C   0  0  0  0  0  0  0  0  0  0  0  0
  181.7340  178.5860  143.9540 C   0  0  0  0  0  2  0  0  0  0  0  0
  190.1590  177.3860  141.9530 N   0  0  2  0  0  0  0  0  0  0  0  0
  186.7940  178.6800  144.4600 C   0  0  1  0  0  3  0  0  0  0  0  0
  187.8770  178.0650  142.2260 C   0  0  1  0  0  3  0  0  0  0  0  0
  189.0890  177.1150  140.1060 C   0  0  0  0  0  2  0  0  0  0  0  0
  190.5360  177.2270  140.5560 C   0  0  0  0  0  2  0  0  0  0  0  0
  189.8860  176.3490  144.1720 C   0  0  0  0  0  2  0  0  0  0  0  0
  183.2290  178.4780  142.1200 N   0  0  2  0  0  0  0  0  0  0  0  0
  186.5010  178.0250  141.5680 C   0  0  0  0  0  2  0  0  0  0  0  0
  189.1190  177.6610  144.4550 C   0  0  0  0  0  2  0  0  0  0  0  0
  184.2530  179.2880  141.4510 C   0  0  1  0  0  3  0  0  0  0  0  0
  180.9090  178.4720  142.6880 C   0  0  0  0  0  2  0  0  0  0  0  0
  187.7520  177.7170  143.7330 C   0  0  1  0  0  3  0  0  0  0  0  0
  190.6390  176.3230  142.8210 C   0  0  0  0  0  2  0  0  0  0  0  0
  185.4960  178.8500  143.6770 C   0  0  0  0  0  0  0  0  0  0  0  0
  188.7970  177.0460  141.5870 C   0  0  1  0  0  3  0  0  0  0  0  0
  185.6210  179.1150  142.1770 C   0  0  1  0  0  3  0  0  0  0  0  0
  185.3770  178.9060  146.5250 C   0  0  0  0  0  2  0  0  0  0  0  0
  186.5690  178.2020  145.9020 C   0  0  0  0  0  2  0  0  0  0  0  0
  181.9020  178.6460  141.5430 C   0  0  0  0  0  2  0  0  0  0  0  0
  184.1300  178.5070  145.7520 C   0  0  0  0  0  2  0  0  0  0  0  0
  183.0660  179.0680  143.4330 C   0  0  2  0  0  3  0  0  0  0  0  0
  184.3440  179.0060  139.9470 C   0  0  0  0  0  2  0  0  0  0  0  0
  183.4760  179.9720  139.1550 C   0  0  0  0  0  2  0  0  0  0  0  0
  182.6060  179.2130  138.1720 C   0  0  0  0  0  2  0  0  0  0  0  0
  181.4260  180.0730  137.7760 C   0  0  0  0  0  2  0  0  0  0  0  0
  181.6120  181.4720  138.3280 C   0  0  0  0  0  2  0  0  0  0  0  0
  180.2660  182.1080  138.6370 C   0  0  0  0  0  2  0  0  0  0  0  0
  181.0980  184.3190  135.8980 C   0  0  0  0  0  2  0  0  0  0  0  0
  179.3390  182.8830  136.5600 O   0  0  0  0  0  0  0  0  0  0  0  0
  179.9970  183.2980  137.7290 C   0  0  2  0  0  3  0  0  0  0  0  0
  179.7090  183.8150  135.5810 C   0  0  0  0  0  2  0  0  0  0  0  0
  181.3050  183.9390  137.3320 C   0  0  0  0  0  2  0  0  0  0  0  0
  1 22  1  0  0  0  0
  3  7  1  6  0  0  0
  3 15  1  0  0  0  0
  4 20  1  1  0  0  0
  5 10  1  6  0  0  0
  5 14  1  0  0  0  0
  6  7  1  0  0  0  0
  8 11  1  0  0  0  0
  9 21  1  6  0  0  0
  9 23  1  0  0  0  0
 12 24  1  6  0  0  0
 12  9  1  0  0  0  0
 12 18  1  0  0  0  0
 13  2  1  0  0  0  0
 14 11  1  1  0  0  0
 14  4  1  0  0  0  0
 15  8  1  0  0  0  0
 16  1  2  0  0  0  0
 16  4  1  0  0  0  0
 17  6  1  6  0  0  0
 17  3  1  0  0  0  0
 17  5  1  0  0  0  0
 18 10  1  6  0  0  0
 18 16  1  0  0  0  0
 20 19  1  0  0  0  0
 21 13  1  0  0  0  0
 22 19  1  0  0  0  0
 23  2  1  1  0  0  0
 23  1  1  0  0  0  0
 25 24  1  0  0  0  0
 26 25  1  0  0  0  0
 27 26  1  0  0  0  0
 27 28  1  0  0  0  0
 28 29  1  0  0  0  0
 30 34  1  0  0  0  0
 31 32  1  0  0  0  0
 32 29  1  1  0  0  0
 33 30  1  0  0  0  0
 33 31  1  0  0  0  0
 34 32  1  0  0  0  0
M  END
>  <MODEL>
7

>  <REMARK>
 VINA RESULT:      -8.1      3.321      6.951
  Name = 
  7 active torsions:
  status: ('A' for Active; 'I' for Inactive)
    1  A    between atoms: C_10  and  C_17
    2  A    between atoms: C_10  and  C_22
    3  A    between atoms: C_13  and  C_24
    4  A    between atoms: C_17  and  C_28
    5  A    between atoms: C_22  and  C_24
    6  A    between atoms: C_28  and  C_29
    7  A    between atoms: C_29  and  C_32
                            x       y       z     vdW  Elec       q    Type
                         _______ _______ _______ _____ _____    ______ ____

>  <TORSDO>
F 7

$$$$
=
 OpenBabel11122412203D

 34 40  0  0  1  0  0  0  0  0999 V2000
  186.2290  178.0260  145.7640 C   0  0  0  0  0  0  0  0  0  0  0  0
  187.6270  178.4340  147.8860 C   0  0  0  0  0  2  0  0  0  0  0  0
  186.0850  178.1800  139.2860 N   0  0  2  0  0  0  0  0  0  0  0  0
  185.0350  177.9170  143.5410 C   0  0  1  0  0  3  0  0  0  0  0  0
  186.6790  177.8420  141.5830 C   0  0  1  0  0  3  0  0  0  0  0  0
  188.2260  178.1020  139.4840 C   0  0  0  0  0  2  0  0  0  0  0  0
  187.1980  177.9490  138.3760 C   0  0  0  0  0  2  0  0  0  0  0  0
  184.4130  179.7540  140.1780 C   0  0  0  0  0  2  0  0  0  0  0  0
  188.6500  177.9240  145.8120 N   0  0  2  0  0  0  0  0  0  0  0  0
  187.8490  177.8680  142.5610 C   0  0  0  0  0  2  0  0  0  0  0  0
  184.2470  178.6440  141.2400 C   0  0  0  0  0  2  0  0  0  0  0  0
  188.6690  176.8670  144.7950 C   0  0  1  0  0  3  0  0  0  0  0  0
  189.1200  178.3220  148.1210 C   0  0  0  0  0  2  0  0  0  0  0  0
  185.4530  178.5620  142.2060 C   0  0  1  0  0  3  0  0  0  0  0  0
  185.3030  179.3650  138.9740 C   0  0  0  0  0  2  0  0  0  0  0  0
  186.2460  177.7020  144.4430 C   0  0  0  0  0  0  0  0  0  0  0  0
  187.0440  178.5660  140.3030 C   0  0  1  0  0  3  0  0  0  0  0  0
  187.4810  177.0640  143.8070 C   0  0  1  0  0  3  0  0  0  0  0  0
  183.7530  178.3620  145.6580 C   0  0  0  0  0  2  0  0  0  0  0  0
  183.9330  178.7570  144.2030 C   0  0  0  0  0  2  0  0  0  0  0  0
  189.6900  177.7650  146.8200 C   0  0  0  0  0  2  0  0  0  0  0  0
  185.0360  178.6910  146.4040 C   0  0  0  0  0  2  0  0  0  0  0  0
  187.4440  177.6960  146.5830 C   0  0  2  0  0  3  0  0  0  0  0  0
  190.0200  176.7580  144.0770 C   0  0  0  0  0  2  0  0  0  0  0  0
  190.6000  178.1340  143.7900 C   0  0  0  0  0  2  0  0  0  0  0  0
  191.6840  178.0390  142.7330 C   0  0  0  0  0  2  0  0  0  0  0  0
  191.2210  177.1270  141.6190 C   0  0  0  0  0  2  0  0  0  0  0  0
  192.0530  177.3820  140.3770 C   0  0  0  0  0  2  0  0  0  0  0  0
  191.3420  176.8580  139.1410 C   0  0  0  0  0  2  0  0  0  0  0  0
  192.7400  175.8990  135.9450 C   0  0  0  0  0  2  0  0  0  0  0  0
  193.4680  176.7630  138.0230 O   0  0  0  0  0  0  0  0  0  0  0  0
  192.2840  176.0470  138.2650 C   0  0  2  0  0  3  0  0  0  0  0  0
  193.9310  176.2980  136.7850 C   0  0  0  0  0  2  0  0  0  0  0  0
  191.6250  175.7640  136.9370 C   0  0  0  0  0  2  0  0  0  0  0  0
  1 22  1  0  0  0  0
  1 23  1  0  0  0  0
  2 13  1  0  0  0  0
  3  7  1  6  0  0  0
  3 17  1  0  0  0  0
  4 20  1  1  0  0  0
  4 16  1  0  0  0  0
  5 14  1  0  0  0  0
  5 10  1  1  0  0  0
  7  6  1  0  0  0  0
  8 11  1  0  0  0  0
  9 23  1  0  0  0  0
  9 21  1  1  0  0  0
 12 24  1  6  0  0  0
 12  9  1  0  0  0  0
 14 11  1  6  0  0  0
 14  4  1  0  0  0  0
 15  3  1  0  0  0  0
 15  8  1  0  0  0  0
 16  1  2  0  0  0  0
 17  6  1  6  0  0  0
 17  5  1  0  0  0  0
 18 10  1  6  0  0  0
 18 16  1  0  0  0  0
 18 12  1  0  0  0  0
 19 22  1  0  0  0  0
 20 19  1  0  0  0  0
 21 13  1  0  0  0  0
 23  2  1  1  0  0  0
 25 24  1  0  0  0  0
 26 25  1  0  0  0  0
 27 26  1  0  0  0  0
 28 27  1  0  0  0  0
 29 28  1  0  0  0  0
 30 33  1  0  0  0  0
 30 34  1  0  0  0  0
 31 32  1  0  0  0  0
 32 29  1  1  0  0  0
 33 31  1  0  0  0  0
 34 32  1  0  0  0  0
M  END
>  <MODEL>
8

>  <REMARK>
 VINA RESULT:      -8.0      2.070      4.294
  Name = 
  7 active torsions:
  status: ('A' for Active; 'I' for Inactive)
    1  A    between atoms: C_10  and  C_17
    2  A    between atoms: C_10  and  C_22
    3  A    between atoms: C_13  and  C_24
    4  A    between atoms: C_17  and  C_28
    5  A    between atoms: C_22  and  C_24
    6  A    between atoms: C_28  and  C_29
    7  A    between atoms: C_29  and  C_32
                            x       y       z     vdW  Elec       q    Type
                         _______ _______ _______ _____ _____    ______ ____

>  <TORSDO>
F 7

$$$$
=
 OpenBabel11122412203D

 34 40  0  0  1  0  0  0  0  0999 V2000
  184.2110  178.6730  142.9650 C   0  0  0  0  0  0  0  0  0  0  0  0
  182.5710  178.1800  141.0440 C   0  0  0  0  0  2  0  0  0  0  0  0
  190.0060  177.4000  145.5730 N   0  0  2  0  0  0  0  0  0  0  0  0
  185.9120  178.8010  144.8270 C   0  0  1  0  0  3  0  0  0  0  0  0
  188.1950  177.9130  144.0900 C   0  0  1  0  0  3  0  0  0  0  0  0
  190.4760  176.7280  143.5840 C   0  0  0  0  0  2  0  0  0  0  0  0
  191.2270  177.0400  144.8680 C   0  0  0  0  0  2  0  0  0  0  0  0
  188.2350  176.7340  147.1520 C   0  0  0  0  0  2  0  0  0  0  0  0
  184.9070  177.8940  140.7780 N   0  0  2  0  0  0  0  0  0  0  0  0
  187.6420  177.6420  142.6950 C   0  0  0  0  0  2  0  0  0  0  0  0
  187.5530  178.0020  146.5920 C   0  0  0  0  0  2  0  0  0  0  0  0
  186.1520  178.6660  140.8520 C   0  0  1  0  0  3  0  0  0  0  0  0
  182.8290  177.7820  139.6040 C   0  0  0  0  0  2  0  0  0  0  0  0
  187.0550  177.8160  145.1390 C   0  0  1  0  0  3  0  0  0  0  0  0
  189.7060  176.5450  146.7100 C   0  0  0  0  0  2  0  0  0  0  0  0
  185.5120  178.7210  143.3570 C   0  0  0  0  0  0  0  0  0  0  0  0
  189.2470  176.8840  144.4500 C   0  0  1  0  0  3  0  0  0  0  0  0
  186.6420  178.7380  142.3290 C   0  0  1  0  0  3  0  0  0  0  0  0
  183.4810  179.2480  145.2870 C   0  0  0  0  0  2  0  0  0  0  0  0
  184.7370  178.5560  145.7850 C   0  0  0  0  0  2  0  0  0  0  0  0
  184.3440  177.8450  139.4350 C   0  0  0  0  0  2  0  0  0  0  0  0
  183.0810  178.6170  143.9630 C   0  0  0  0  0  2  0  0  0  0  0  0
  183.9210  178.6820  141.4910 C   0  0  2  0  0  3  0  0  0  0  0  0
  187.2320  178.1420  139.8970 C   0  0  0  0  0  2  0  0  0  0  0  0
  188.5960  178.7160  140.2450 C   0  0  0  0  0  2  0  0  0  0  0  0
  189.6310  178.2670  139.2310 C   0  0  0  0  0  2  0  0  0  0  0  0
  189.9900  176.8210  139.4850 C   0  0  0  0  0  2  0  0  0  0  0  0
  190.0350  176.0710  138.1680 C   0  0  0  0  0  2  0  0  0  0  0  0
  189.8740  177.0320  137.0020 C   0  0  0  0  0  2  0  0  0  0  0  0
  186.3790  176.1140  136.8290 C   0  0  0  0  0  2  0  0  0  0  0  0
  187.7790  177.9250  136.2340 O   0  0  0  0  0  0  0  0  0  0  0  0
  188.5790  176.7720  136.2480 C   0  0  2  0  0  3  0  0  0  0  0  0
  186.4610  177.4570  136.1410 C   0  0  0  0  0  2  0  0  0  0  0  0
  187.8060  175.6700  136.9330 C   0  0  0  0  0  2  0  0  0  0  0  0
  1 16  2  0  0  0  0
  1 22  1  0  0  0  0
  3  7  1  6  0  0  0
  3 15  1  0  0  0  0
  4 14  1  0  0  0  0
  4 20  1  1  0  0  0
  5 10  1  6  0  0  0
  5 17  1  0  0  0  0
  5 14  1  0  0  0  0
  6  7  1  0  0  0  0
  9 21  1  6  0  0  0
  9 12  1  0  0  0  0
  9 23  1  0  0  0  0
 11  8  1  0  0  0  0
 12 24  1  6  0  0  0
 12 18  1  0  0  0  0
 13  2  1  0  0  0  0
 14 11  1  1  0  0  0
 15  8  1  0  0  0  0
 16  4  1  0  0  0  0
 17  6  1  6  0  0  0
 17  3  1  0  0  0  0
 18 10  1  1  0  0  0
 18 16  1  0  0  0  0
 19 20  1  0  0  0  0
 21 13  1  0  0  0  0
 22 19  1  0  0  0  0
 23  2  1  1  0  0  0
 23  1  1  0  0  0  0
 24 25  1  0  0  0  0
 26 27  1  0  0  0  0
 26 25  1  0  0  0  0
 28 27  1  0  0  0  0
 29 28  1  0  0  0  0
 30 34  1  0  0  0  0
 31 32  1  0  0  0  0
 32 34  1  0  0  0  0
 32 29  1  1  0  0  0
 33 31  1  0  0  0  0
 33 30  1  0  0  0  0
M  END
>  <MODEL>
9

>  <REMARK>
 VINA RESULT:      -8.0      1.363      5.115
  Name = 
  7 active torsions:
  status: ('A' for Active; 'I' for Inactive)
    1  A    between atoms: C_10  and  C_17
    2  A    between atoms: C_10  and  C_22
    3  A    between atoms: C_13  and  C_24
    4  A    between atoms: C_17  and  C_28
    5  A    between atoms: C_22  and  C_24
    6  A    between atoms: C_28  and  C_29
    7  A    between atoms: C_29  and  C_32
                            x       y       z     vdW  Elec       q    Type
                         _______ _______ _______ _____ _____    ______ ____

>  <TORSDO>
F 7

$$$$
