=
 OpenBabel11122411233D

 37 43  0  0  1  0  0  0  0  0999 V2000
  188.2080  178.0000  140.1520 C   0  0  0  0  0  2  0  0  0  0  0  0
  190.5510  176.8860  144.0910 C   0  0  0  0  0  0  0  0  0  0  0  0
  186.2790  177.6330  144.6220 C   0  0  1  0  0  3  0  0  0  0  0  0
  187.9850  178.4430  138.7750 N   0  0  0  0  0  0  0  0  0  0  0  0
  184.3020  177.7600  141.5630 C   0  0  0  0  0  2  0  0  0  0  0  0
  188.6510  177.5290  145.6840 C   0  0  1  0  0  3  0  0  0  0  0  0
  186.0830  178.5000  143.3800 C   0  0  2  0  0  3  0  0  0  0  0  0
  185.7010  178.2080  137.8930 C   0  0  2  0  0  3  0  0  0  0  0  0
  187.7220  177.1480  144.5610 C   0  0  2  0  0  3  0  0  0  0  0  0
  184.6170  178.5610  142.8500 C   0  0  2  0  0  3  0  0  0  0  0  0
  187.9570  177.3460  147.0140 C   0  0  0  0  0  2  0  0  0  0  0  0
  187.0410  177.5120  138.1590 C   0  0  0  0  0  2  0  0  0  0  0  0
  188.3270  177.7760  143.3420 C   0  0  1  0  0  3  0  0  0  0  0  0
  191.5240  175.7540  143.8370 C   0  0  0  0  0  1  0  0  0  0  0  0
  184.7840  179.2660  145.9550 C   0  0  0  0  0  3  0  0  0  0  0  0
  186.8260  178.3710  147.0670 C   0  0  0  0  0  2  0  0  0  0  0  0
  189.5090  176.9010  142.9380 C   0  0  0  0  0  2  0  0  0  0  0  0
  184.6500  177.9510  138.9850 C   0  0  0  0  0  2  0  0  0  0  0  0
  185.2220  178.1080  140.3870 C   0  0  1  0  0  3  0  0  0  0  0  0
  185.7500  178.1120  146.0010 C   0  0  2  0  0  3  0  0  0  0  0  0
  187.1540  177.9590  142.4120 C   0  0  2  0  0  3  0  0  0  0  0  0
  189.9170  176.6800  145.4990 C   0  0  0  0  0  2  0  0  0  0  0  0
  183.5420  178.4190  143.9470 C   0  0  1  0  0  3  0  0  0  0  0  0
  191.3320  178.1880  144.0800 C   0  0  0  0  0  1  0  0  0  0  0  0
  186.1100  179.3340  140.5880 C   0  0  0  0  0  2  0  0  0  0  0  0
  185.1960  177.7930  136.6620 O   0  0  0  0  0  1  0  0  0  0  0  0
  187.4340  178.8470  141.1840 C   0  0  2  0  0  3  0  0  0  0  0  0
  183.7880  179.3930  145.0670 C   0  0  0  0  0  3  0  0  0  0  0  0
  181.0620  178.4460  144.2670 C   0  0  0  0  0  3  0  0  0  0  0  0
  182.1540  178.6140  143.4100 C   0  0  0  0  0  0  0  0  0  0  0  0
  181.9340  178.9590  142.0660 C   0  0  0  0  0  3  0  0  0  0  0  0
  180.4230  179.4620  140.2940 F   0  0  0  0  0  0  0  0  0  0  0  0
  179.5440  178.9600  142.4520 C   0  0  0  0  0  3  0  0  0  0  0  0
  180.6320  179.1310  141.5900 C   0  0  0  0  0  0  0  0  0  0  0  0
  179.7590  178.6180  143.7900 C   0  0  0  0  0  3  0  0  0  0  0  0
  190.1800  177.4060  138.8870 C   0  0  0  0  0  1  0  0  0  0  0  0
  189.2450  178.2780  138.0720 C   0  0  0  0  0  2  0  0  0  0  0  0
  1 27  1  0  0  0  0
  2 22  1  0  0  0  0
  3 20  1  0  0  0  0
  4  1  1  0  0  0  0
  5 10  1  0  0  0  0
  6 11  1  0  0  0  0
  7  3  1  0  0  0  0
  8 12  1  0  0  0  0
  8 18  1  0  0  0  0
  9  3  1  0  0  0  0
  9  6  1  0  0  0  0
 10  7  1  0  0  0  0
 10 23  1  0  0  0  0
 11 16  1  0  0  0  0
 12  4  1  0  0  0  0
 13  9  1  0  0  0  0
 14  2  1  0  0  0  0
 15 20  1  0  0  0  0
 17 13  1  0  0  0  0
 17  2  1  0  0  0  0
 18 19  1  0  0  0  0
 19 25  1  0  0  0  0
 19  5  1  0  0  0  0
 20 16  1  0  0  0  0
 21 13  1  0  0  0  0
 21  7  1  0  0  0  0
 22  6  1  0  0  0  0
 23 28  1  0  0  0  0
 24  2  1  0  0  0  0
 25 27  1  0  0  0  0
 26  8  1  0  0  0  0
 27 21  1  0  0  0  0
 28 15  2  0  0  0  0
 30 23  1  0  0  0  0
 30 29  2  0  0  0  0
 31 30  1  0  0  0  0
 32 34  1  0  0  0  0
 33 35  2  0  0  0  0
 34 31  2  0  0  0  0
 34 33  1  0  0  0  0
 35 29  1  0  0  0  0
 37  4  1  0  0  0  0
 37 36  1  0  0  0  0
M  END
>  <MODEL>
1

>  <REMARK>
 VINA RESULT:     -11.9      0.000      0.000
  Name = 
  2 active torsions:
  status: ('A' for Active; 'I' for Inactive)
    1  A    between atoms: N_4  and  C_37
    2  A    between atoms: C_23  and  C_30
                            x       y       z     vdW  Elec       q    Type
                         _______ _______ _______ _____ _____    ______ ____

>  <TORSDO>
F 2

$$$$
=
 OpenBabel11122411233D

 37 43  0  0  1  0  0  0  0  0999 V2000
  185.1820  178.6850  139.8440 C   0  0  0  0  0  2  0  0  0  0  0  0
  188.7620  177.2720  137.1180 C   0  0  0  0  0  0  0  0  0  0  0  0
  189.5620  177.2020  141.4130 C   0  0  1  0  0  3  0  0  0  0  0  0
  183.9220  179.3280  140.2170 N   0  0  0  0  0  0  0  0  0  0  0  0
  186.6470  177.5570  143.5720 C   0  0  0  0  0  2  0  0  0  0  0  0
  190.5080  177.2960  138.9920 C   0  0  1  0  0  3  0  0  0  0  0  0
  188.5130  178.2360  141.8170 C   0  0  2  0  0  3  0  0  0  0  0  0
  183.0850  178.8870  142.4880 C   0  0  2  0  0  3  0  0  0  0  0  0
  189.3640  176.9780  139.9190 C   0  0  2  0  0  3  0  0  0  0  0  0
  188.0500  178.1520  143.3050 C   0  0  2  0  0  3  0  0  0  0  0  0
  191.8000  176.7630  139.5660 C   0  0  0  0  0  2  0  0  0  0  0  0
  183.1710  178.3830  141.0430 C   0  0  0  0  0  2  0  0  0  0  0  0
  188.2670  177.9080  139.4950 C   0  0  1  0  0  3  0  0  0  0  0  0
  188.2670  176.3790  136.0000 C   0  0  0  0  0  1  0  0  0  0  0  0
  191.2260  178.2990  143.0570 C   0  0  0  0  0  3  0  0  0  0  0  0
  192.0830  177.5620  140.8360 C   0  0  0  0  0  2  0  0  0  0  0  0
  187.6670  177.3260  138.2190 C   0  0  0  0  0  2  0  0  0  0  0  0
  184.1410  178.2680  143.4180 C   0  0  0  0  0  2  0  0  0  0  0  0
  185.5290  178.2590  142.7900 C   0  0  1  0  0  3  0  0  0  0  0  0
  191.0220  177.3290  141.9230 C   0  0  2  0  0  3  0  0  0  0  0  0
  187.4260  178.0620  140.7370 C   0  0  2  0  0  3  0  0  0  0  0  0
  190.1250  176.7130  137.6240 C   0  0  0  0  0  2  0  0  0  0  0  0
  189.1350  177.6400  144.2750 C   0  0  1  0  0  3  0  0  0  0  0  0
  188.9730  178.6640  136.5500 C   0  0  0  0  0  1  0  0  0  0  0  0
  185.9290  179.5560  142.0920 C   0  0  0  0  0  2  0  0  0  0  0  0
  181.8140  178.6260  142.9980 O   0  0  0  0  0  1  0  0  0  0  0  0
  186.3800  179.1920  140.6750 C   0  0  2  0  0  3  0  0  0  0  0  0
  190.4100  178.4210  144.1130 C   0  0  0  0  0  3  0  0  0  0  0  0
  189.5990  177.3740  146.7180 C   0  0  0  0  0  3  0  0  0  0  0  0
  188.6890  177.6990  145.7070 C   0  0  0  0  0  0  0  0  0  0  0  0
  187.3790  178.0720  146.0470 C   0  0  0  0  0  3  0  0  0  0  0  0
  185.7230  178.4750  147.7130 F   0  0  0  0  0  0  0  0  0  0  0  0
  187.9010  177.7890  148.3940 C   0  0  0  0  0  3  0  0  0  0  0  0
  186.9870  178.1160  147.3880 C   0  0  0  0  0  0  0  0  0  0  0  0
  189.2060  177.4180  148.0600 C   0  0  0  0  0  3  0  0  0  0  0  0
  183.3190  178.2790  138.1100 C   0  0  0  0  0  1  0  0  0  0  0  0
  183.1600  179.5020  138.9930 C   0  0  0  0  0  2  0  0  0  0  0  0
  1  4  1  0  0  0  0
  1 27  1  0  0  0  0
  2 22  1  0  0  0  0
  2 17  1  0  0  0  0
  3  7  1  0  0  0  0
  3 20  1  0  0  0  0
  4 12  1  0  0  0  0
  6 11  1  0  0  0  0
  6  9  1  0  0  0  0
  7 10  1  0  0  0  0
  8 26  1  0  0  0  0
  8 18  1  0  0  0  0
  9  3  1  0  0  0  0
 10  5  1  0  0  0  0
 10 23  1  0  0  0  0
 11 16  1  0  0  0  0
 12  8  1  0  0  0  0
 13  9  1  0  0  0  0
 13 21  1  0  0  0  0
 14  2  1  0  0  0  0
 15 28  2  0  0  0  0
 16 20  1  0  0  0  0
 17 13  1  0  0  0  0
 19 18  1  0  0  0  0
 19  5  1  0  0  0  0
 20 15  1  0  0  0  0
 21  7  1  0  0  0  0
 22  6  1  0  0  0  0
 23 30  1  0  0  0  0
 24  2  1  0  0  0  0
 25 19  1  0  0  0  0
 27 21  1  0  0  0  0
 27 25  1  0  0  0  0
 28 23  1  0  0  0  0
 29 35  1  0  0  0  0
 30 31  1  0  0  0  0
 30 29  2  0  0  0  0
 31 34  2  0  0  0  0
 34 32  1  0  0  0  0
 34 33  1  0  0  0  0
 35 33  2  0  0  0  0
 36 37  1  0  0  0  0
 37  4  1  0  0  0  0
M  END
>  <MODEL>
2

>  <REMARK>
 VINA RESULT:     -11.8      2.596      6.428
  Name = 
  2 active torsions:
  status: ('A' for Active; 'I' for Inactive)
    1  A    between atoms: N_4  and  C_37
    2  A    between atoms: C_23  and  C_30
                            x       y       z     vdW  Elec       q    Type
                         _______ _______ _______ _____ _____    ______ ____

>  <TORSDO>
F 2

$$$$
=
 OpenBabel11122411233D

 37 43  0  0  1  0  0  0  0  0999 V2000
  185.3480  178.6190  140.1680 C   0  0  0  0  0  2  0  0  0  0  0  0
  188.1830  177.1730  136.6870 C   0  0  0  0  0  0  0  0  0  0  0  0
  189.8910  176.9100  140.7000 C   0  0  1  0  0  3  0  0  0  0  0  0
  184.2300  179.2960  140.8250 N   0  0  0  0  0  0  0  0  0  0  0  0
  187.5330  177.2950  143.4510 C   0  0  0  0  0  2  0  0  0  0  0  0
  190.2930  177.0590  138.1340 C   0  0  1  0  0  3  0  0  0  0  0  0
  189.0030  177.9670  141.3530 C   0  0  2  0  0  3  0  0  0  0  0  0
  183.8860  178.8020  143.2100 C   0  0  2  0  0  3  0  0  0  0  0  0
  189.3640  176.7510  139.2790 C   0  0  2  0  0  3  0  0  0  0  0  0
  188.8710  177.8450  142.9020 C   0  0  2  0  0  3  0  0  0  0  0  0
  191.6530  176.4550  138.3970 C   0  0  0  0  0  2  0  0  0  0  0  0
  183.6330  178.3500  141.7670 C   0  0  0  0  0  2  0  0  0  0  0  0
  188.2450  177.7370  139.1310 C   0  0  1  0  0  3  0  0  0  0  0  0
  187.4170  176.3440  135.6780 C   0  0  0  0  0  1  0  0  0  0  0  0
  191.9210  177.8790  141.9710 C   0  0  0  0  0  3  0  0  0  0  0  0
  192.2410  177.1940  139.5970 C   0  0  0  0  0  2  0  0  0  0  0  0
  187.3570  177.2280  138.0010 C   0  0  0  0  0  2  0  0  0  0  0  0
  185.0890  178.1080  143.8680 C   0  0  0  0  0  2  0  0  0  0  0  0
  186.3060  178.0690  142.9530 C   0  0  1  0  0  3  0  0  0  0  0  0
  191.4320  176.9610  140.8820 C   0  0  2  0  0  3  0  0  0  0  0  0
  187.7020  177.8770  140.5310 C   0  0  2  0  0  3  0  0  0  0  0  0
  189.5970  176.5430  136.8670 C   0  0  0  0  0  2  0  0  0  0  0  0
  190.1150  177.2550  143.5970 C   0  0  1  0  0  3  0  0  0  0  0  0
  188.3300  178.5780  136.1260 C   0  0  0  0  0  1  0  0  0  0  0  0
  186.6040  179.3750  142.2220 C   0  0  0  0  0  2  0  0  0  0  0  0
  182.7450  178.5710  143.9770 O   0  0  0  0  0  1  0  0  0  0  0  0
  186.7200  179.0480  140.7310 C   0  0  2  0  0  3  0  0  0  0  0  0
  191.3600  177.9920  143.1830 C   0  0  0  0  0  3  0  0  0  0  0  0
  188.8550  177.8410  145.6760 C   0  0  0  0  0  3  0  0  0  0  0  0
  189.9940  177.2770  145.0930 C   0  0  0  0  0  0  0  0  0  0  0  0
  191.0020  176.7450  145.9130 C   0  0  0  0  0  3  0  0  0  0  0  0
  191.8410  176.2690  148.0930 F   0  0  0  0  0  0  0  0  0  0  0  0
  189.7270  177.3490  147.8810 C   0  0  0  0  0  3  0  0  0  0  0  0
  190.8680  176.7820  147.3040 C   0  0  0  0  0  0  0  0  0  0  0  0
  188.7210  177.8780  147.0680 C   0  0  0  0  0  3  0  0  0  0  0  0
  183.6560  178.9010  138.4970 C   0  0  0  0  0  1  0  0  0  0  0  0
  183.2290  179.5460  139.8020 C   0  0  0  0  0  2  0  0  0  0  0  0
  1 27  1  0  0  0  0
  1  4  1  0  0  0  0
  2 22  1  0  0  0  0
  2 17  1  0  0  0  0
  3 20  1  0  0  0  0
  3  7  1  0  0  0  0
  4 12  1  0  0  0  0
  6 11  1  0  0  0  0
  6  9  1  0  0  0  0
  7 10  1  0  0  0  0
  8 18  1  0  0  0  0
  8 26  1  0  0  0  0
  9  3  1  0  0  0  0
 10  5  1  0  0  0  0
 10 23  1  0  0  0  0
 11 16  1  0  0  0  0
 12  8  1  0  0  0  0
 13  9  1  0  0  0  0
 13 21  1  0  0  0  0
 14  2  1  0  0  0  0
 15 28  2  0  0  0  0
 16 20  1  0  0  0  0
 17 13  1  0  0  0  0
 19  5  1  0  0  0  0
 19 18  1  0  0  0  0
 20 15  1  0  0  0  0
 21 27  1  0  0  0  0
 21  7  1  0  0  0  0
 22  6  1  0  0  0  0
 23 30  1  0  0  0  0
 24  2  1  0  0  0  0
 25 19  1  0  0  0  0
 27 25  1  0  0  0  0
 28 23  1  0  0  0  0
 29 35  1  0  0  0  0
 30 29  2  0  0  0  0
 30 31  1  0  0  0  0
 31 34  2  0  0  0  0
 34 33  1  0  0  0  0
 34 32  1  0  0  0  0
 35 33  2  0  0  0  0
 36 37  1  0  0  0  0
 37  4  1  0  0  0  0
M  END
>  <MODEL>
3

>  <REMARK>
 VINA RESULT:     -10.7      3.231      7.329
  Name = 
  2 active torsions:
  status: ('A' for Active; 'I' for Inactive)
    1  A    between atoms: N_4  and  C_37
    2  A    between atoms: C_23  and  C_30
                            x       y       z     vdW  Elec       q    Type
                         _______ _______ _______ _____ _____    ______ ____

>  <TORSDO>
F 2

$$$$
=
 OpenBabel11122411233D

 37 43  0  0  1  0  0  0  0  0999 V2000
  188.5110  177.5170  140.0100 C   0  0  0  0  0  2  0  0  0  0  0  0
  184.0590  179.0630  140.1810 C   0  0  0  0  0  0  0  0  0  0  0  0
  186.0300  178.6520  144.0590 C   0  0  1  0  0  3  0  0  0  0  0  0
  189.7180  176.8880  139.4720 N   0  0  0  0  0  0  0  0  0  0  0  0
  189.6430  178.1890  143.9560 C   0  0  0  0  0  2  0  0  0  0  0  0
  183.8070  178.7740  142.7140 C   0  0  1  0  0  3  0  0  0  0  0  0
  187.0750  177.6240  143.6310 C   0  0  2  0  0  3  0  0  0  0  0  0
  191.7740  177.1220  140.8020 C   0  0  2  0  0  3  0  0  0  0  0  0
  185.2880  179.0380  142.7850 C   0  0  2  0  0  3  0  0  0  0  0  0
  188.3470  177.5700  144.5330 C   0  0  2  0  0  3  0  0  0  0  0  0
  183.1450  179.1920  144.0070 C   0  0  0  0  0  2  0  0  0  0  0  0
  190.8450  177.7710  139.7690 C   0  0  0  0  0  2  0  0  0  0  0  0
  185.8730  178.2030  141.6870 C   0  0  1  0  0  3  0  0  0  0  0  0
  183.8020  180.0870  139.0950 C   0  0  0  0  0  1  0  0  0  0  0  0
  185.6690  177.3240  146.2460 C   0  0  0  0  0  3  0  0  0  0  0  0
  183.6650  178.2540  145.0930 C   0  0  0  0  0  2  0  0  0  0  0  0
  185.5950  178.9380  140.3800 C   0  0  0  0  0  2  0  0  0  0  0  0
  191.5180  177.5990  142.2410 C   0  0  0  0  0  2  0  0  0  0  0  0
  190.0350  177.6180  142.5880 C   0  0  1  0  0  3  0  0  0  0  0  0
  185.1750  178.4140  145.3330 C   0  0  2  0  0  3  0  0  0  0  0  0
  187.2890  177.9520  142.1400 C   0  0  2  0  0  3  0  0  0  0  0  0
  183.3000  179.5110  141.4660 C   0  0  0  0  0  2  0  0  0  0  0  0
  188.0900  177.9350  146.0090 C   0  0  1  0  0  3  0  0  0  0  0  0
  183.5020  177.7300  139.7120 C   0  0  0  0  0  1  0  0  0  0  0  0
  189.2530  176.3860  142.1410 C   0  0  0  0  0  2  0  0  0  0  0  0
  193.1010  177.3790  140.4620 O   0  0  0  0  0  1  0  0  0  0  0  0
  188.0470  176.8780  141.3360 C   0  0  2  0  0  3  0  0  0  0  0  0
  186.9540  177.1240  146.5710 C   0  0  0  0  0  3  0  0  0  0  0  0
  189.3980  178.4120  148.0870 C   0  0  0  0  0  3  0  0  0  0  0  0
  189.3110  177.7440  146.8620 C   0  0  0  0  0  0  0  0  0  0  0  0
  190.3630  176.9100  146.4510 C   0  0  0  0  0  3  0  0  0  0  0  0
  192.5050  175.9480  146.8610 F   0  0  0  0  0  0  0  0  0  0  0  0
  191.5730  177.4240  148.4840 C   0  0  0  0  0  3  0  0  0  0  0  0
  191.4910  176.7510  147.2610 C   0  0  0  0  0  0  0  0  0  0  0  0
  190.5270  178.2530  148.8970 C   0  0  0  0  0  3  0  0  0  0  0  0
  190.4780  175.8110  137.4310 C   0  0  0  0  0  1  0  0  0  0  0  0
  189.5760  176.8740  138.0260 C   0  0  0  0  0  2  0  0  0  0  0  0
  1 27  1  0  0  0  0
  2 17  1  0  0  0  0
  2 22  1  0  0  0  0
  3 20  1  0  0  0  0
  4 12  1  0  0  0  0
  4  1  1  0  0  0  0
  5 10  1  0  0  0  0
  6  9  1  0  0  0  0
  6 11  1  0  0  0  0
  7  3  1  0  0  0  0
  7 10  1  0  0  0  0
  8 18  1  0  0  0  0
  9  3  1  0  0  0  0
 10 23  1  0  0  0  0
 11 16  1  0  0  0  0
 12  8  1  0  0  0  0
 13 21  1  0  0  0  0
 13  9  1  0  0  0  0
 14  2  1  0  0  0  0
 15 28  2  0  0  0  0
 16 20  1  0  0  0  0
 17 13  1  0  0  0  0
 18 19  1  0  0  0  0
 19  5  1  0  0  0  0
 20 15  1  0  0  0  0
 21  7  1  0  0  0  0
 22  6  1  0  0  0  0
 23 28  1  0  0  0  0
 23 30  1  0  0  0  0
 24  2  1  0  0  0  0
 25 19  1  0  0  0  0
 26  8  1  0  0  0  0
 27 21  1  0  0  0  0
 27 25  1  0  0  0  0
 29 35  1  0  0  0  0
 30 29  2  0  0  0  0
 31 30  1  0  0  0  0
 31 34  2  0  0  0  0
 32 34  1  0  0  0  0
 33 35  2  0  0  0  0
 34 33  1  0  0  0  0
 36 37  1  0  0  0  0
 37  4  1  0  0  0  0
M  END
>  <MODEL>
4

>  <REMARK>
 VINA RESULT:      -9.4      3.194      6.851
  Name = 
  2 active torsions:
  status: ('A' for Active; 'I' for Inactive)
    1  A    between atoms: N_4  and  C_37
    2  A    between atoms: C_23  and  C_30
                            x       y       z     vdW  Elec       q    Type
                         _______ _______ _______ _____ _____    ______ ____

>  <TORSDO>
F 2

$$$$
=
 OpenBabel11122411233D

 37 43  0  0  1  0  0  0  0  0999 V2000
  190.7200  177.4900  141.8340 C   0  0  0  0  0  2  0  0  0  0  0  0
  190.5670  176.6890  146.4800 C   0  0  0  0  0  0  0  0  0  0  0  0
  186.7300  177.6810  144.6420 C   0  0  1  0  0  3  0  0  0  0  0  0
  191.2850  177.7970  140.5200 N   0  0  0  0  0  0  0  0  0  0  0  0
  186.6450  177.5760  141.0000 C   0  0  0  0  0  2  0  0  0  0  0  0
  188.1870  177.5810  146.7940 C   0  0  1  0  0  3  0  0  0  0  0  0
  187.2870  178.4200  143.4270 C   0  0  2  0  0  3  0  0  0  0  0  0
  189.7780  177.5740  138.5890 C   0  0  2  0  0  3  0  0  0  0  0  0
  187.9430  177.1270  145.3780 C   0  0  2  0  0  3  0  0  0  0  0  0
  186.3210  178.4930  142.2040 C   0  0  2  0  0  3  0  0  0  0  0  0
  186.8900  177.5700  147.5700 C   0  0  0  0  0  2  0  0  0  0  0  0
  190.7150  176.8500  139.5620 C   0  0  0  0  0  2  0  0  0  0  0  0
  189.1480  177.5960  144.6200 C   0  0  1  0  0  3  0  0  0  0  0  0
  191.4210  175.4940  146.8480 C   0  0  0  0  0  1  0  0  0  0  0  0
  184.9210  179.5100  144.8820 C   0  0  0  0  0  3  0  0  0  0  0  0
  185.9970  178.6440  146.9550 C   0  0  0  0  0  2  0  0  0  0  0  0
  190.2800  176.6320  144.9540 C   0  0  0  0  0  2  0  0  0  0  0  0
  188.2950  177.4810  138.9810 C   0  0  0  0  0  2  0  0  0  0  0  0
  188.0700  177.7580  140.4610 C   0  0  1  0  0  3  0  0  0  0  0  0
  185.6100  178.3240  145.5030 C   0  0  2  0  0  3  0  0  0  0  0  0
  188.6490  177.7340  143.2030 C   0  0  2  0  0  3  0  0  0  0  0  0
  189.2790  176.6610  147.3560 C   0  0  0  0  0  2  0  0  0  0  0  0
  184.8260  178.5150  142.5810 C   0  0  1  0  0  3  0  0  0  0  0  0
  191.3590  177.9470  146.7950 C   0  0  0  0  0  1  0  0  0  0  0  0
  188.8350  178.9560  141.0160 C   0  0  0  0  0  2  0  0  0  0  0  0
  189.9480  177.0560  137.3060 O   0  0  0  0  0  1  0  0  0  0  0  0
  189.6060  178.4750  142.2490 C   0  0  2  0  0  3  0  0  0  0  0  0
  184.5460  179.5880  143.5970 C   0  0  0  0  0  3  0  0  0  0  0  0
  184.4520  179.3770  140.2630 C   0  0  0  0  0  3  0  0  0  0  0  0
  183.9420  178.7150  141.3850 C   0  0  0  0  0  0  0  0  0  0  0  0
  182.6160  178.2530  141.3730 C   0  0  0  0  0  3  0  0  0  0  0  0
  180.5330  178.0100  140.2410 F   0  0  0  0  0  0  0  0  0  0  0  0
  182.3270  179.1190  139.1310 C   0  0  0  0  0  3  0  0  0  0  0  0
  181.8110  178.4550  140.2490 C   0  0  0  0  0  0  0  0  0  0  0  0
  183.6470  179.5790  139.1380 C   0  0  0  0  0  3  0  0  0  0  0  0
  193.1850  176.9450  139.2680 C   0  0  0  0  0  1  0  0  0  0  0  0
  192.7060  177.5020  140.5940 C   0  0  0  0  0  2  0  0  0  0  0  0
  1 27  1  0  0  0  0
  2 24  1  0  0  0  0
  2 14  1  0  0  0  0
  2 22  1  0  0  0  0
  3  9  1  0  0  0  0
  3 20  1  0  0  0  0
  4 37  1  0  0  0  0
  4  1  1  0  0  0  0
  5 10  1  0  0  0  0
  6 22  1  0  0  0  0
  6 11  1  0  0  0  0
  7  3  1  0  0  0  0
  8 18  1  0  0  0  0
  8 12  1  0  0  0  0
  9  6  1  0  0  0  0
 10 23  1  0  0  0  0
 10  7  1  0  0  0  0
 12  4  1  0  0  0  0
 13 17  1  0  0  0  0
 13  9  1  0  0  0  0
 15 20  1  0  0  0  0
 16 11  1  0  0  0  0
 17  2  1  0  0  0  0
 18 19  1  0  0  0  0
 19  5  1  0  0  0  0
 19 25  1  0  0  0  0
 20 16  1  0  0  0  0
 21  7  1  0  0  0  0
 21 13  1  0  0  0  0
 23 28  1  0  0  0  0
 25 27  1  0  0  0  0
 26  8  1  0  0  0  0
 27 21  1  0  0  0  0
 28 15  2  0  0  0  0
 29 30  1  0  0  0  0
 30 23  1  0  0  0  0
 31 30  2  0  0  0  0
 32 34  1  0  0  0  0
 33 35  1  0  0  0  0
 33 34  2  0  0  0  0
 34 31  1  0  0  0  0
 35 29  2  0  0  0  0
 36 37  1  0  0  0  0
M  END
>  <MODEL>
5

>  <REMARK>
 VINA RESULT:      -9.4      1.870      2.863
  Name = 
  2 active torsions:
  status: ('A' for Active; 'I' for Inactive)
    1  A    between atoms: N_4  and  C_37
    2  A    between atoms: C_23  and  C_30
                            x       y       z     vdW  Elec       q    Type
                         _______ _______ _______ _____ _____    ______ ____

>  <TORSDO>
F 2

$$$$
=
 OpenBabel11122411233D

 37 43  0  0  1  0  0  0  0  0999 V2000
  188.6400  177.8480  145.4770 C   0  0  0  0  0  2  0  0  0  0  0  0
  184.2850  178.8660  143.9780 C   0  0  0  0  0  0  0  0  0  0  0  0
  187.1180  177.7630  140.8390 C   0  0  1  0  0  3  0  0  0  0  0  0
  189.8010  177.8020  146.3660 N   0  0  0  0  0  0  0  0  0  0  0  0
  190.2390  176.2650  141.9780 C   0  0  0  0  0  2  0  0  0  0  0  0
  184.9100  178.9720  141.4970 C   0  0  1  0  0  3  0  0  0  0  0  0
  188.3920  178.1260  141.5980 C   0  0  2  0  0  3  0  0  0  0  0  0
  191.6800  176.3820  145.6570 C   0  0  2  0  0  3  0  0  0  0  0  0
  185.9780  177.9630  141.8300 C   0  0  2  0  0  3  0  0  0  0  0  0
  189.6820  177.4070  141.0950 C   0  0  2  0  0  3  0  0  0  0  0  0
  184.5000  178.8300  140.0490 C   0  0  0  0  0  2  0  0  0  0  0  0
  190.3140  176.4320  146.3510 C   0  0  0  0  0  2  0  0  0  0  0  0
  186.6010  178.4780  143.0920 C   0  0  1  0  0  3  0  0  0  0  0  0
  183.2450  178.2530  144.8910 C   0  0  0  0  0  1  0  0  0  0  0  0
  188.1180  178.8410  138.7140 C   0  0  0  0  0  3  0  0  0  0  0  0
  185.7060  179.2320  139.2050 C   0  0  0  0  0  2  0  0  0  0  0  0
  185.6390  178.1430  144.2260 C   0  0  0  0  0  2  0  0  0  0  0  0
  191.6030  175.9610  144.1810 C   0  0  0  0  0  2  0  0  0  0  0  0
  190.4950  176.6870  143.4300 C   0  0  1  0  0  3  0  0  0  0  0  0
  186.8960  178.2780  139.3910 C   0  0  2  0  0  3  0  0  0  0  0  0
  187.9920  177.8960  143.0690 C   0  0  2  0  0  3  0  0  0  0  0  0
  183.7790  178.7490  142.5090 C   0  0  0  0  0  2  0  0  0  0  0  0
  189.6730  177.0770  139.5880 C   0  0  1  0  0  3  0  0  0  0  0  0
  184.4250  180.3330  144.3430 C   0  0  0  0  0  1  0  0  0  0  0  0
  190.4050  178.1860  143.7050 C   0  0  0  0  0  2  0  0  0  0  0  0
  192.5180  175.5030  146.3420 O   0  0  0  0  0  1  0  0  0  0  0  0
  188.9600  178.4900  144.1110 C   0  0  2  0  0  3  0  0  0  0  0  0
  189.3420  178.2980  138.7740 C   0  0  0  0  0  3  0  0  0  0  0  0
  192.1720  177.1280  139.5130 C   0  0  0  0  0  3  0  0  0  0  0  0
  190.9810  176.5060  139.1250 C   0  0  0  0  0  0  0  0  0  0  0  0
  191.0290  175.3630  138.3090 C   0  0  0  0  0  3  0  0  0  0  0  0
  192.3040  173.7530  137.1000 F   0  0  0  0  0  0  0  0  0  0  0  0
  193.4480  175.4810  138.2780 C   0  0  0  0  0  3  0  0  0  0  0  0
  192.2600  174.8540  137.8870 C   0  0  0  0  0  0  0  0  0  0  0  0
  193.4030  176.6170  139.0900 C   0  0  0  0  0  3  0  0  0  0  0  0
  187.8040  177.8780  147.7480 C   0  0  0  0  0  1  0  0  0  0  0  0
  189.3110  178.0430  147.7120 C   0  0  0  0  0  2  0  0  0  0  0  0
  1  4  1  0  0  0  0
  2 17  1  0  0  0  0
  2 24  1  0  0  0  0
  2 14  1  0  0  0  0
  3  7  1  0  0  0  0
  3  9  1  0  0  0  0
  4 37  1  0  0  0  0
  5 19  1  0  0  0  0
  6  9  1  0  0  0  0
  6 22  1  0  0  0  0
  7 21  1  0  0  0  0
  8 26  1  0  0  0  0
  8 12  1  0  0  0  0
  9 13  1  0  0  0  0
 10  7  1  0  0  0  0
 10  5  1  0  0  0  0
 11  6  1  0  0  0  0
 12  4  1  0  0  0  0
 13 17  1  0  0  0  0
 15 28  2  0  0  0  0
 15 20  1  0  0  0  0
 16 20  1  0  0  0  0
 16 11  1  0  0  0  0
 18  8  1  0  0  0  0
 19 25  1  0  0  0  0
 19 18  1  0  0  0  0
 20  3  1  0  0  0  0
 21 13  1  0  0  0  0
 21 27  1  0  0  0  0
 22  2  1  0  0  0  0
 23 10  1  0  0  0  0
 25 27  1  0  0  0  0
 27  1  1  0  0  0  0
 28 23  1  0  0  0  0
 30 29  1  0  0  0  0
 30 23  1  0  0  0  0
 31 30  2  0  0  0  0
 32 34  1  0  0  0  0
 33 35  1  0  0  0  0
 34 33  2  0  0  0  0
 34 31  1  0  0  0  0
 35 29  2  0  0  0  0
 37 36  1  0  0  0  0
M  END
>  <MODEL>
6

>  <REMARK>
 VINA RESULT:      -9.2      3.640      8.460
  Name = 
  2 active torsions:
  status: ('A' for Active; 'I' for Inactive)
    1  A    between atoms: N_4  and  C_37
    2  A    between atoms: C_23  and  C_30
                            x       y       z     vdW  Elec       q    Type
                         _______ _______ _______ _____ _____    ______ ____

>  <TORSDO>
F 2

$$$$
