=
 OpenBabel11122412183D

 34 40  0  0  1  0  0  0  0  0999 V2000
  185.4060  178.5540  143.7760 C   0  0  0  0  0  0  0  0  0  0  0  0
  183.4470  178.0580  142.3080 C   0  0  0  0  0  2  0  0  0  0  0  0
  191.6250  176.4230  145.2630 C   0  0  0  0  0  2  0  0  0  0  0  0
  187.5440  177.7030  144.5570 C   0  0  0  0  0  0  0  0  0  0  0  0
  189.0930  176.8180  142.8510 C   0  0  0  0  0  0  0  0  0  0  0  0
  190.6980  174.9300  143.5140 C   0  0  0  0  0  2  0  0  0  0  0  0
  191.9610  175.6090  144.0200 C   0  0  0  0  0  2  0  0  0  0  0  0
  191.3060  178.3710  144.1050 C   0  0  0  0  0  2  0  0  0  0  0  0
  185.2430  179.3170  141.3570 C   0  0  1  0  0  3  0  0  0  0  0  0
  185.0080  177.7230  138.5950 C   0  0  0  0  0  2  0  0  0  0  0  0
  188.3180  177.2820  141.9120 N   0  0  0  0  0  0  0  0  0  0  0  0
  189.8370  178.6110  144.4570 C   0  0  0  0  0  2  0  0  0  0  0  0
  186.2940  178.3060  141.0920 N   0  0  2  0  0  0  0  0  0  0  0  0
  183.2280  178.0990  140.9180 O   0  0  0  0  0  0  0  0  0  0  0  0
  188.9770  177.3560  144.2660 C   0  0  1  0  0  3  0  0  0  0  0  0
  192.0270  177.7680  145.1540 O   0  0  0  0  0  0  0  0  0  0  0  0
  184.3040  179.0350  138.9280 C   0  0  2  0  0  3  0  0  0  0  0  0
  186.7260  178.1760  143.5180 C   0  0  0  0  0  0  0  0  0  0  0  0
  190.0050  175.7590  142.5330 N   0  0  0  0  0  2  0  0  0  0  0  0
  187.3220  178.3400  142.1440 C   0  0  1  0  0  3  0  0  0  0  0  0
  185.7110  177.9710  146.1130 C   0  0  0  0  0  3  0  0  0  0  0  0
  186.5260  177.8610  138.6850 C   0  0  0  0  0  2  0  0  0  0  0  0
  187.0340  177.6020  145.8560 C   0  0  0  0  0  3  0  0  0  0  0  0
  186.9760  178.7150  139.8660 C   0  0  0  0  0  2  0  0  0  0  0  0
  184.0330  179.1470  140.4340 C   0  0  2  0  0  3  0  0  0  0  0  0
  184.8990  178.4470  145.0780 C   0  0  0  0  0  3  0  0  0  0  0  0
  184.5310  179.0570  142.6690 C   0  0  2  0  0  3  0  0  0  0  0  0
  182.9960  179.1430  138.1610 C   0  0  0  0  0  2  0  0  0  0  0  0
  182.2120  180.3600  138.6230 C   0  0  0  0  0  2  0  0  0  0  0  0
  179.6320  178.0350  139.4020 C   0  0  0  0  0  2  0  0  0  0  0  0
  180.4550  180.1620  140.1620 C   0  0  0  0  0  2  0  0  0  0  0  0
  180.8060  180.0190  138.7560 N   0  0  0  0  0  0  0  0  0  0  0  0
  179.4940  179.0470  140.5120 C   0  0  0  0  0  2  0  0  0  0  0  0
  180.6860  178.5980  138.4750 C   0  0  0  0  0  2  0  0  0  0  0  0
  1 26  1  0  0  0  0
  2 27  1  0  0  0  0
  4 23  2  0  0  0  0
  5 15  1  0  0  0  0
  6  7  1  0  0  0  0
  7  3  1  0  0  0  0
  8 12  1  0  0  0  0
  8 16  1  0  0  0  0
  9 27  1  0  0  0  0
 10 22  1  0  0  0  0
 10 17  1  0  0  0  0
 11 20  1  0  0  0  0
 11  5  2  0  0  0  0
 13  9  1  0  0  0  0
 13 20  1  0  0  0  0
 14  2  1  0  0  0  0
 15 12  1  0  0  0  0
 15  4  1  0  0  0  0
 16  3  1  0  0  0  0
 17 25  1  0  0  0  0
 18  1  2  0  0  0  0
 18  4  1  0  0  0  0
 19  5  1  0  0  0  0
 19  6  1  0  0  0  0
 20 18  1  0  0  0  0
 22 24  1  0  0  0  0
 23 21  1  0  0  0  0
 24 13  1  0  0  0  0
 25 14  1  0  0  0  0
 25  9  1  0  0  0  0
 26 21  2  0  0  0  0
 27  1  1  0  0  0  0
 28 29  1  0  0  0  0
 28 17  1  0  0  0  0
 29 32  1  0  0  0  0
 30 33  1  0  0  0  0
 31 33  1  0  0  0  0
 32 31  1  0  0  0  0
 34 32  1  0  0  0  0
 34 30  1  0  0  0  0
M  END
>  <MODEL>
1

>  <REMARK>
 VINA RESULT:      -8.6      0.000      0.000
  Name = 
  3 active torsions:
  status: ('A' for Active; 'I' for Inactive)
    1  A    between atoms: C_17  and  C_28
    2  A    between atoms: C_28  and  C_29
    3  A    between atoms: C_29  and  N_32
                            x       y       z     vdW  Elec       q    Type
                         _______ _______ _______ _____ _____    ______ ____

>  <TORSDO>
F 3

$$$$
=
 OpenBabel11122412183D

 34 40  0  0  1  0  0  0  0  0999 V2000
  185.4260  178.5480  143.8390 C   0  0  0  0  0  0  0  0  0  0  0  0
  183.4600  178.0720  142.3730 C   0  0  0  0  0  2  0  0  0  0  0  0
  191.6410  176.3800  145.2880 C   0  0  0  0  0  2  0  0  0  0  0  0
  187.5630  177.6820  144.6060 C   0  0  0  0  0  0  0  0  0  0  0  0
  189.1030  176.8040  142.8880 C   0  0  0  0  0  0  0  0  0  0  0  0
  190.7020  174.9050  143.5310 C   0  0  0  0  0  2  0  0  0  0  0  0
  191.9700  175.5740  144.0380 C   0  0  0  0  0  2  0  0  0  0  0  0
  191.3260  178.3380  144.1460 C   0  0  0  0  0  2  0  0  0  0  0  0
  185.2580  179.3310  141.4260 C   0  0  1  0  0  3  0  0  0  0  0  0
  185.0070  177.7590  138.6530 C   0  0  0  0  0  2  0  0  0  0  0  0
  188.3270  177.2790  141.9550 N   0  0  0  0  0  0  0  0  0  0  0  0
  189.8590  178.5820  144.5050 C   0  0  0  0  0  2  0  0  0  0  0  0
  186.3040  178.3180  141.1500 N   0  0  2  0  0  0  0  0  0  0  0  0
  183.2370  178.1250  140.9850 O   0  0  0  0  0  0  0  0  0  0  0  0
  188.9930  177.3320  144.3070 C   0  0  1  0  0  3  0  0  0  0  0  0
  192.0490  177.7240  145.1880 O   0  0  0  0  0  0  0  0  0  0  0  0
  184.3100  179.0720  138.9980 C   0  0  2  0  0  3  0  0  0  0  0  0
  186.7440  178.1670  143.5730 C   0  0  0  0  0  0  0  0  0  0  0  0
  190.0100  175.7440  142.5590 N   0  0  0  0  0  2  0  0  0  0  0  0
  187.3350  178.3390  142.1980 C   0  0  1  0  0  3  0  0  0  0  0  0
  185.7360  177.9460  146.1700 C   0  0  0  0  0  3  0  0  0  0  0  0
  186.5260  177.8900  138.7390 C   0  0  0  0  0  2  0  0  0  0  0  0
  187.0570  177.5730  145.9050 C   0  0  0  0  0  3  0  0  0  0  0  0
  186.9830  178.7330  139.9250 C   0  0  0  0  0  2  0  0  0  0  0  0
  184.0440  179.1730  140.5070 C   0  0  2  0  0  3  0  0  0  0  0  0
  184.9230  178.4330  145.1420 C   0  0  0  0  0  3  0  0  0  0  0  0
  184.5490  179.0630  142.7390 C   0  0  2  0  0  3  0  0  0  0  0  0
  183.0000  179.1910  138.2370 C   0  0  0  0  0  2  0  0  0  0  0  0
  182.7410  177.9290  137.4300 C   0  0  0  0  0  2  0  0  0  0  0  0
  180.4750  176.2310  139.5870 C   0  0  0  0  0  2  0  0  0  0  0  0
  180.7510  178.3960  138.5790 C   0  0  0  0  0  2  0  0  0  0  0  0
  181.4150  177.4160  137.7300 N   0  0  0  0  0  0  0  0  0  0  0  0
  179.9350  177.6400  139.6040 C   0  0  0  0  0  2  0  0  0  0  0  0
  181.5950  176.2430  138.5710 C   0  0  0  0  0  2  0  0  0  0  0  0
  1 26  1  0  0  0  0
  2 27  1  0  0  0  0
  4 23  2  0  0  0  0
  5 15  1  0  0  0  0
  6  7  1  0  0  0  0
  7  3  1  0  0  0  0
  8 12  1  0  0  0  0
  8 16  1  0  0  0  0
  9 27  1  0  0  0  0
 10 22  1  0  0  0  0
 10 17  1  0  0  0  0
 11 20  1  0  0  0  0
 11  5  2  0  0  0  0
 13  9  1  0  0  0  0
 13 20  1  0  0  0  0
 14  2  1  0  0  0  0
 15 12  1  0  0  0  0
 15  4  1  0  0  0  0
 16  3  1  0  0  0  0
 17 25  1  0  0  0  0
 18  1  2  0  0  0  0
 18  4  1  0  0  0  0
 19  5  1  0  0  0  0
 19  6  1  0  0  0  0
 20 18  1  0  0  0  0
 22 24  1  0  0  0  0
 23 21  1  0  0  0  0
 24 13  1  0  0  0  0
 25 14  1  0  0  0  0
 25  9  1  0  0  0  0
 26 21  2  0  0  0  0
 27  1  1  0  0  0  0
 28 17  1  0  0  0  0
 29 32  1  0  0  0  0
 29 28  1  0  0  0  0
 30 33  1  0  0  0  0
 31 33  1  0  0  0  0
 32 34  1  0  0  0  0
 32 31  1  0  0  0  0
 34 30  1  0  0  0  0
M  END
>  <MODEL>
2

>  <REMARK>
 VINA RESULT:      -8.6      0.788      1.015
  Name = 
  3 active torsions:
  status: ('A' for Active; 'I' for Inactive)
    1  A    between atoms: C_17  and  C_28
    2  A    between atoms: C_28  and  C_29
    3  A    between atoms: C_29  and  N_32
                            x       y       z     vdW  Elec       q    Type
                         _______ _______ _______ _____ _____    ______ ____

>  <TORSDO>
F 3

$$$$
=
 OpenBabel11122412183D

 34 40  0  0  1  0  0  0  0  0999 V2000
  187.5340  178.2090  139.8020 C   0  0  0  0  0  0  0  0  0  0  0  0
  188.9090  176.8460  141.3810 C   0  0  0  0  0  2  0  0  0  0  0  0
  181.2380  178.9860  137.5260 C   0  0  0  0  0  2  0  0  0  0  0  0
  185.3560  178.3860  138.7390 C   0  0  0  0  0  0  0  0  0  0  0  0
  183.3740  178.1310  140.1890 C   0  0  0  0  0  0  0  0  0  0  0  0
  181.2360  177.1380  139.1780 C   0  0  0  0  0  2  0  0  0  0  0  0
  180.4390  178.3140  138.6360 C   0  0  0  0  0  2  0  0  0  0  0  0
  182.1760  180.5440  138.9150 C   0  0  0  0  0  2  0  0  0  0  0  0
  187.6820  178.6830  142.2950 C   0  0  1  0  0  3  0  0  0  0  0  0
  186.8820  176.9720  144.8760 C   0  0  0  0  0  2  0  0  0  0  0  0
  184.1420  178.1680  141.2400 N   0  0  0  0  0  0  0  0  0  0  0  0
  183.6460  180.1650  138.7280 C   0  0  0  0  0  2  0  0  0  0  0  0
  186.2840  178.1930  142.3500 N   0  0  2  0  0  0  0  0  0  0  0  0
  188.9440  176.7060  142.7810 O   0  0  0  0  0  0  0  0  0  0  0  0
  183.8830  178.6560  138.8580 C   0  0  1  0  0  3  0  0  0  0  0  0
  181.4120  180.3660  137.7450 O   0  0  0  0  0  0  0  0  0  0  0  0
  188.1000  177.8840  144.7540 C   0  0  2  0  0  3  0  0  0  0  0  0
  186.1540  178.4060  139.8950 C   0  0  0  0  0  0  0  0  0  0  0  0
  182.0750  177.5370  140.3030 N   0  0  0  0  0  2  0  0  0  0  0  0
  185.5060  178.7200  141.2180 C   0  0  1  0  0  3  0  0  0  0  0  0
  187.3220  177.9530  137.3970 C   0  0  0  0  0  3  0  0  0  0  0  0
  185.5810  177.7400  144.6620 C   0  0  0  0  0  2  0  0  0  0  0  0
  185.9420  178.1590  137.4900 C   0  0  0  0  0  3  0  0  0  0  0  0
  185.6780  178.7750  143.5460 C   0  0  0  0  0  2  0  0  0  0  0  0
  188.5850  177.9630  143.3010 C   0  0  2  0  0  3  0  0  0  0  0  0
  188.1160  177.9790  138.5480 C   0  0  0  0  0  3  0  0  0  0  0  0
  188.3870  178.2280  141.0330 C   0  0  2  0  0  3  0  0  0  0  0  0
  189.2250  177.3850  145.6450 C   0  0  0  0  0  2  0  0  0  0  0  0
  190.5080  178.1450  145.3510 C   0  0  0  0  0  2  0  0  0  0  0  0
  191.8820  175.6130  147.4430 C   0  0  0  0  0  2  0  0  0  0  0  0
  191.7780  176.1890  145.1110 C   0  0  0  0  0  2  0  0  0  0  0  0
  191.6470  177.4160  145.8840 N   0  0  0  0  0  0  0  0  0  0  0  0
  192.1880  175.0870  146.0620 C   0  0  0  0  0  2  0  0  0  0  0  0
  191.2840  176.9850  147.2240 C   0  0  0  0  0  2  0  0  0  0  0  0
  1 18  1  0  0  0  0
  1 27  1  0  0  0  0
  2 14  1  0  0  0  0
  3 16  1  0  0  0  0
  3  7  1  0  0  0  0
  4 15  1  0  0  0  0
  4 18  2  0  0  0  0
  5 19  1  0  0  0  0
  5 11  2  0  0  0  0
  6 19  1  0  0  0  0
  7  6  1  0  0  0  0
  9 13  1  0  0  0  0
  9 25  1  0  0  0  0
 12 15  1  0  0  0  0
 12  8  1  0  0  0  0
 13 24  1  0  0  0  0
 14 25  1  0  0  0  0
 15  5  1  0  0  0  0
 16  8  1  0  0  0  0
 17 10  1  0  0  0  0
 17 28  1  0  0  0  0
 18 20  1  0  0  0  0
 20 11  1  0  0  0  0
 20 13  1  0  0  0  0
 21 23  2  0  0  0  0
 21 26  1  0  0  0  0
 22 10  1  0  0  0  0
 23  4  1  0  0  0  0
 24 22  1  0  0  0  0
 25 17  1  0  0  0  0
 26  1  2  0  0  0  0
 27  2  1  0  0  0  0
 27  9  1  0  0  0  0
 29 28  1  0  0  0  0
 29 32  1  0  0  0  0
 31 32  1  0  0  0  0
 31 33  1  0  0  0  0
 32 34  1  0  0  0  0
 33 30  1  0  0  0  0
 34 30  1  0  0  0  0
M  END
>  <MODEL>
3

>  <REMARK>
 VINA RESULT:      -8.3      1.827      8.979
  Name = 
  3 active torsions:
  status: ('A' for Active; 'I' for Inactive)
    1  A    between atoms: C_17  and  C_28
    2  A    between atoms: C_28  and  C_29
    3  A    between atoms: C_29  and  N_32
                            x       y       z     vdW  Elec       q    Type
                         _______ _______ _______ _____ _____    ______ ____

>  <TORSDO>
F 3

$$$$
=
 OpenBabel11122412183D

 34 40  0  0  1  0  0  0  0  0999 V2000
  185.3690  178.7500  145.5870 C   0  0  0  0  0  0  0  0  0  0  0  0
  182.9930  178.2520  144.9990 C   0  0  0  0  0  2  0  0  0  0  0  0
  191.6810  176.6600  144.4830 C   0  0  0  0  0  2  0  0  0  0  0  0
  187.6460  177.9100  145.4540 C   0  0  0  0  0  0  0  0  0  0  0  0
  188.4040  177.0590  143.2650 C   0  0  0  0  0  0  0  0  0  0  0  0
  190.1480  175.1790  143.2180 C   0  0  0  0  0  2  0  0  0  0  0  0
  191.5060  175.8630  143.1970 C   0  0  0  0  0  2  0  0  0  0  0  0
  190.9250  178.6180  143.5710 C   0  0  0  0  0  2  0  0  0  0  0  0
  184.2660  179.5380  143.4380 C   0  0  1  0  0  3  0  0  0  0  0  0
  182.9720  177.9730  140.9670 C   0  0  0  0  0  2  0  0  0  0  0  0
  187.3210  177.5260  142.7120 N   0  0  0  0  0  0  0  0  0  0  0  0
  189.7110  178.8410  144.4740 C   0  0  0  0  0  2  0  0  0  0  0  0
  185.1320  178.5400  142.7670 N   0  0  2  0  0  0  0  0  0  0  0  0
  182.2460  178.3070  143.8080 O   0  0  0  0  0  0  0  0  0  0  0  0
  188.8500  177.5800  144.6190 C   0  0  1  0  0  3  0  0  0  0  0  0
  192.0030  178.0100  144.2440 O   0  0  0  0  0  0  0  0  0  0  0  0
  182.4500  179.2750  141.5680 C   0  0  2  0  0  3  0  0  0  0  0  0
  186.4830  178.3880  144.8260 C   0  0  0  0  0  0  0  0  0  0  0  0
  189.1230  176.0120  142.6000 N   0  0  0  0  0  2  0  0  0  0  0  0
  186.4910  178.5720  143.3310 C   0  0  1  0  0  3  0  0  0  0  0  0
  186.5700  178.1440  147.6090 C   0  0  0  0  0  3  0  0  0  0  0  0
  184.4030  178.1240  140.4570 C   0  0  0  0  0  2  0  0  0  0  0  0
  187.6870  177.7900  146.8470 C   0  0  0  0  0  3  0  0  0  0  0  0
  185.2760  178.9690  141.3780 C   0  0  0  0  0  2  0  0  0  0  0  0
  182.7910  179.3670  143.0620 C   0  0  2  0  0  3  0  0  0  0  0  0
  185.4150  178.6240  146.9820 C   0  0  0  0  0  3  0  0  0  0  0  0
  184.1280  179.2570  144.9200 C   0  0  2  0  0  3  0  0  0  0  0  0
  180.9460  179.3790  141.3780 C   0  0  0  0  0  2  0  0  0  0  0  0
  180.6160  179.6760  139.9250 C   0  0  0  0  0  2  0  0  0  0  0  0
  181.0260  182.3840  137.6500 C   0  0  0  0  0  2  0  0  0  0  0  0
  179.5000  181.6580  139.3600 C   0  0  0  0  0  2  0  0  0  0  0  0
  180.8080  181.0910  139.6540 N   0  0  0  0  0  0  0  0  0  0  0  0
  179.6780  182.6800  138.2590 C   0  0  0  0  0  2  0  0  0  0  0  0
  181.5540  181.1880  138.4100 C   0  0  0  0  0  2  0  0  0  0  0  0
  1 26  1  0  0  0  0
  4 23  2  0  0  0  0
  5 15  1  0  0  0  0
  7  6  1  0  0  0  0
  7  3  1  0  0  0  0
  8 16  1  0  0  0  0
  8 12  1  0  0  0  0
  9 27  1  0  0  0  0
 10 17  1  0  0  0  0
 11  5  2  0  0  0  0
 11 20  1  0  0  0  0
 12 15  1  0  0  0  0
 13 20  1  0  0  0  0
 13  9  1  0  0  0  0
 14  2  1  0  0  0  0
 15  4  1  0  0  0  0
 16  3  1  0  0  0  0
 17 25  1  0  0  0  0
 18  4  1  0  0  0  0
 18  1  2  0  0  0  0
 19  6  1  0  0  0  0
 19  5  1  0  0  0  0
 20 18  1  0  0  0  0
 22 10  1  0  0  0  0
 22 24  1  0  0  0  0
 23 21  1  0  0  0  0
 24 13  1  0  0  0  0
 25  9  1  0  0  0  0
 25 14  1  0  0  0  0
 26 21  2  0  0  0  0
 27  2  1  0  0  0  0
 27  1  1  0  0  0  0
 28 17  1  0  0  0  0
 29 28  1  0  0  0  0
 30 33  1  0  0  0  0
 30 34  1  0  0  0  0
 31 32  1  0  0  0  0
 32 29  1  0  0  0  0
 33 31  1  0  0  0  0
 34 32  1  0  0  0  0
M  END
>  <MODEL>
4

>  <REMARK>
 VINA RESULT:      -8.1      1.444      2.247
  Name = 
  3 active torsions:
  status: ('A' for Active; 'I' for Inactive)
    1  A    between atoms: C_17  and  C_28
    2  A    between atoms: C_28  and  C_29
    3  A    between atoms: C_29  and  N_32
                            x       y       z     vdW  Elec       q    Type
                         _______ _______ _______ _____ _____    ______ ____

>  <TORSDO>
F 3

$$$$
=
 OpenBabel11122412183D

 34 40  0  0  1  0  0  0  0  0999 V2000
  185.2630  178.1200  144.8290 C   0  0  0  0  0  0  0  0  0  0  0  0
  187.3740  178.7850  145.9860 C   0  0  0  0  0  2  0  0  0  0  0  0
  181.7160  179.1660  139.1940 C   0  0  0  0  0  2  0  0  0  0  0  0
  183.7990  178.6310  142.9570 C   0  0  0  0  0  0  0  0  0  0  0  0
  184.8630  178.9490  140.7530 C   0  0  0  0  0  0  0  0  0  0  0  0
  183.7650  180.5560  139.0820 C   0  0  0  0  0  2  0  0  0  0  0  0
  182.7920  179.7180  138.2680 C   0  0  0  0  0  2  0  0  0  0  0  0
  182.7970  177.1780  139.5390 C   0  0  0  0  0  2  0  0  0  0  0  0
  187.5240  177.0780  144.3200 C   0  0  1  0  0  3  0  0  0  0  0  0
  190.2650  178.2900  143.2050 C   0  0  0  0  0  2  0  0  0  0  0  0
  185.9940  178.5220  141.2410 N   0  0  0  0  0  0  0  0  0  0  0  0
  182.9980  177.2840  141.0520 C   0  0  0  0  0  2  0  0  0  0  0  0
  187.4410  177.8150  143.0370 N   0  0  2  0  0  0  0  0  0  0  0  0
  188.7420  178.5960  145.7130 O   0  0  0  0  0  0  0  0  0  0  0  0
  183.5630  178.6450  141.4740 C   0  0  1  0  0  3  0  0  0  0  0  0
  181.5930  177.7660  139.1050 O   0  0  0  0  0  0  0  0  0  0  0  0
  190.1400  177.2010  144.2670 C   0  0  2  0  0  3  0  0  0  0  0  0
  185.0380  178.1900  143.4520 C   0  0  0  0  0  0  0  0  0  0  0  0
  184.8830  179.7530  139.5670 N   0  0  0  0  0  2  0  0  0  0  0  0
  186.0850  177.7240  142.4740 C   0  0  1  0  0  3  0  0  0  0  0  0
  183.0140  178.9470  145.2240 C   0  0  0  0  0  3  0  0  0  0  0  0
  189.6150  177.8690  141.8890 C   0  0  0  0  0  2  0  0  0  0  0  0
  182.7880  179.0090  143.8460 C   0  0  0  0  0  3  0  0  0  0  0  0
  188.3050  177.1140  142.0890 C   0  0  0  0  0  2  0  0  0  0  0  0
  188.8350  177.3540  145.0600 C   0  0  2  0  0  3  0  0  0  0  0  0
  184.2470  178.5030  145.7150 C   0  0  0  0  0  3  0  0  0  0  0  0
  186.5830  177.6520  145.3590 C   0  0  2  0  0  3  0  0  0  0  0  0
  191.3270  177.2490  145.2150 C   0  0  0  0  0  2  0  0  0  0  0  0
  191.6810  175.8490  145.6880 C   0  0  0  0  0  2  0  0  0  0  0  0
  193.0770  176.0080  148.9590 C   0  0  0  0  0  2  0  0  0  0  0  0
  191.4120  177.1280  147.6340 C   0  0  0  0  0  2  0  0  0  0  0  0
  191.5470  175.7670  147.1320 N   0  0  0  0  0  0  0  0  0  0  0  0
  192.1710  177.2140  148.9400 C   0  0  0  0  0  2  0  0  0  0  0  0
  192.8190  175.2940  147.6510 C   0  0  0  0  0  2  0  0  0  0  0  0
  1 27  1  0  0  0  0
  1 26  1  0  0  0  0
  4 18  1  0  0  0  0
  4 23  2  0  0  0  0
  5 11  2  0  0  0  0
  5 15  1  0  0  0  0
  6 19  1  0  0  0  0
  7  6  1  0  0  0  0
  7  3  1  0  0  0  0
  8 12  1  0  0  0  0
  9 25  1  0  0  0  0
  9 27  1  0  0  0  0
 10 17  1  0  0  0  0
 11 20  1  0  0  0  0
 12 15  1  0  0  0  0
 13  9  1  0  0  0  0
 14  2  1  0  0  0  0
 15  4  1  0  0  0  0
 16  3  1  0  0  0  0
 16  8  1  0  0  0  0
 17 25  1  0  0  0  0
 17 28  1  0  0  0  0
 18  1  2  0  0  0  0
 19  5  1  0  0  0  0
 20 13  1  0  0  0  0
 20 18  1  0  0  0  0
 21 26  2  0  0  0  0
 22 24  1  0  0  0  0
 22 10  1  0  0  0  0
 23 21  1  0  0  0  0
 24 13  1  0  0  0  0
 25 14  1  0  0  0  0
 27  2  1  0  0  0  0
 28 29  1  0  0  0  0
 29 32  1  0  0  0  0
 31 33  1  0  0  0  0
 32 31  1  0  0  0  0
 32 34  1  0  0  0  0
 33 30  1  0  0  0  0
 34 30  1  0  0  0  0
M  END
>  <MODEL>
5

>  <REMARK>
 VINA RESULT:      -7.6      1.976      8.737
  Name = 
  3 active torsions:
  status: ('A' for Active; 'I' for Inactive)
    1  A    between atoms: C_17  and  C_28
    2  A    between atoms: C_28  and  C_29
    3  A    between atoms: C_29  and  N_32
                            x       y       z     vdW  Elec       q    Type
                         _______ _______ _______ _____ _____    ______ ____

>  <TORSDO>
F 3

$$$$
=
 OpenBabel11122412183D

 34 40  0  0  1  0  0  0  0  0999 V2000
  191.7620  177.3660  140.4830 C   0  0  0  0  0  0  0  0  0  0  0  0
  191.8350  176.6060  142.8610 C   0  0  0  0  0  2  0  0  0  0  0  0
  188.4530  176.4240  134.6880 C   0  0  0  0  0  2  0  0  0  0  0  0
  190.8010  176.9050  138.2990 C   0  0  0  0  0  0  0  0  0  0  0  0
  188.3690  176.4950  138.2050 C   0  0  0  0  0  0  0  0  0  0  0  0
  187.4600  174.9240  136.3930 C   0  0  0  0  0  2  0  0  0  0  0  0
  187.1560  175.8000  135.1880 C   0  0  0  0  0  2  0  0  0  0  0  0
  188.1800  178.3560  135.8850 C   0  0  0  0  0  2  0  0  0  0  0  0
  190.2240  178.2770  142.2900 C   0  0  1  0  0  3  0  0  0  0  0  0
  188.0160  176.9010  144.1490 C   0  0  0  0  0  2  0  0  0  0  0  0
  188.2610  176.8680  139.4490 N   0  0  0  0  0  0  0  0  0  0  0  0
  189.4320  178.2640  136.7600 C   0  0  0  0  0  2  0  0  0  0  0  0
  189.1550  177.5250  141.5920 N   0  0  2  0  0  0  0  0  0  0  0  0
  190.9540  176.7160  143.9530 O   0  0  0  0  0  0  0  0  0  0  0  0
  189.5980  176.8800  137.4000 C   0  0  1  0  0  3  0  0  0  0  0  0
  188.3760  177.8270  134.5940 O   0  0  0  0  0  0  0  0  0  0  0  0
  188.9720  178.0110  144.5750 C   0  0  2  0  0  3  0  0  0  0  0  0
  190.6490  177.2870  139.6420 C   0  0  0  0  0  0  0  0  0  0  0  0
  187.3400  175.6730  137.6390 N   0  0  0  0  0  2  0  0  0  0  0  0
  189.2800  177.6790  140.1340 C   0  0  1  0  0  3  0  0  0  0  0  0
  193.1840  176.6680  138.6430 C   0  0  0  0  0  3  0  0  0  0  0  0
  187.1350  177.3350  142.9800 C   0  0  0  0  0  2  0  0  0  0  0  0
  192.0710  176.5960  137.8010 C   0  0  0  0  0  3  0  0  0  0  0  0
  187.8880  178.1630  141.9440 C   0  0  0  0  0  2  0  0  0  0  0  0
  190.2840  177.9410  143.7830 C   0  0  2  0  0  3  0  0  0  0  0  0
  193.0320  177.0530  139.9800 C   0  0  0  0  0  3  0  0  0  0  0  0
  191.6030  177.7710  141.9160 C   0  0  2  0  0  3  0  0  0  0  0  0
  189.2640  177.9150  146.0630 C   0  0  0  0  0  2  0  0  0  0  0  0
  188.4510  176.7940  146.6900 C   0  0  0  0  0  2  0  0  0  0  0  0
  186.4680  179.5610  147.7330 C   0  0  0  0  0  2  0  0  0  0  0  0
  186.2070  177.4630  146.5880 C   0  0  0  0  0  2  0  0  0  0  0  0
  187.3600  177.3540  147.4700 N   0  0  0  0  0  0  0  0  0  0  0  0
  185.4820  178.7450  146.9340 C   0  0  0  0  0  2  0  0  0  0  0  0
  187.7260  178.7240  147.7900 C   0  0  0  0  0  2  0  0  0  0  0  0
  1 27  1  0  0  0  0
  2 14  1  0  0  0  0
  3  7  1  0  0  0  0
  4 18  1  0  0  0  0
  5 11  2  0  0  0  0
  6 19  1  0  0  0  0
  7  6  1  0  0  0  0
  8 12  1  0  0  0  0
  9 25  1  0  0  0  0
 10 17  1  0  0  0  0
 11 20  1  0  0  0  0
 12 15  1  0  0  0  0
 13 24  1  0  0  0  0
 13  9  1  0  0  0  0
 15  5  1  0  0  0  0
 15  4  1  0  0  0  0
 16  3  1  0  0  0  0
 16  8  1  0  0  0  0
 17 28  1  0  0  0  0
 18 20  1  0  0  0  0
 18  1  2  0  0  0  0
 19  5  1  0  0  0  0
 20 13  1  0  0  0  0
 21 26  2  0  0  0  0
 22 10  1  0  0  0  0
 23  4  2  0  0  0  0
 23 21  1  0  0  0  0
 24 22  1  0  0  0  0
 25 14  1  0  0  0  0
 25 17  1  0  0  0  0
 26  1  1  0  0  0  0
 27  9  1  0  0  0  0
 27  2  1  0  0  0  0
 28 29  1  0  0  0  0
 29 32  1  0  0  0  0
 30 34  1  0  0  0  0
 31 33  1  0  0  0  0
 31 32  1  0  0  0  0
 32 34  1  0  0  0  0
 33 30  1  0  0  0  0
M  END
>  <MODEL>
6

>  <REMARK>
 VINA RESULT:      -7.5      4.253      8.148
  Name = 
  3 active torsions:
  status: ('A' for Active; 'I' for Inactive)
    1  A    between atoms: C_17  and  C_28
    2  A    between atoms: C_28  and  C_29
    3  A    between atoms: C_29  and  N_32
                            x       y       z     vdW  Elec       q    Type
                         _______ _______ _______ _____ _____    ______ ____

>  <TORSDO>
F 3

$$$$
=
 OpenBabel11122412183D

 34 40  0  0  1  0  0  0  0  0999 V2000
  188.4650  177.4790  138.9970 C   0  0  0  0  0  0  0  0  0  0  0  0
  188.0990  178.9900  140.9530 C   0  0  0  0  0  2  0  0  0  0  0  0
  193.2120  175.3840  134.6970 C   0  0  0  0  0  2  0  0  0  0  0  0
  190.0400  176.8680  137.2510 C   0  0  0  0  0  0  0  0  0  0  0  0
  192.3830  176.4940  137.9320 C   0  0  0  0  0  0  0  0  0  0  0  0
  194.2470  177.0170  136.2490 C   0  0  0  0  0  2  0  0  0  0  0  0
  194.4800  175.7350  135.4650 C   0  0  0  0  0  2  0  0  0  0  0  0
  192.4130  173.9860  136.3230 C   0  0  0  0  0  2  0  0  0  0  0  0
  189.0310  176.8330  141.3890 C   0  0  1  0  0  3  0  0  0  0  0  0
  191.0600  178.0530  143.5390 C   0  0  0  0  0  2  0  0  0  0  0  0
  192.0260  176.5520  139.1830 N   0  0  0  0  0  0  0  0  0  0  0  0
  191.1190  174.7310  136.6530 C   0  0  0  0  0  2  0  0  0  0  0  0
  190.4450  176.9560  140.9610 N   0  0  2  0  0  0  0  0  0  0  0  0
  188.5680  179.0060  142.2800 O   0  0  0  0  0  0  0  0  0  0  0  0
  191.3440  176.2340  136.8560 C   0  0  1  0  0  3  0  0  0  0  0  0
  192.7650  174.0760  134.9620 O   0  0  0  0  0  0  0  0  0  0  0  0
  189.6770  177.4840  143.8430 C   0  0  2  0  0  3  0  0  0  0  0  0
  189.6940  176.9400  138.6110 C   0  0  0  0  0  0  0  0  0  0  0  0
  193.7550  176.7370  137.5940 N   0  0  0  0  0  2  0  0  0  0  0  0
  190.6370  176.3580  139.6310 C   0  0  1  0  0  3  0  0  0  0  0  0
  187.9280  177.8920  136.6650 C   0  0  0  0  0  3  0  0  0  0  0  0
  191.9670  177.0100  142.8910 C   0  0  0  0  0  2  0  0  0  0  0  0
  189.1540  177.3440  136.2790 C   0  0  0  0  0  3  0  0  0  0  0  0
  191.2370  176.1360  141.8750 C   0  0  0  0  0  2  0  0  0  0  0  0
  188.7350  177.6580  142.6440 C   0  0  2  0  0  3  0  0  0  0  0  0
  187.5820  177.9580  138.0200 C   0  0  0  0  0  3  0  0  0  0  0  0
  188.0940  177.5590  140.4460 C   0  0  2  0  0  3  0  0  0  0  0  0
  189.0830  178.1620  145.0660 C   0  0  0  0  0  2  0  0  0  0  0  0
  187.7570  177.5180  145.4350 C   0  0  0  0  0  2  0  0  0  0  0  0
  184.3920  178.6150  145.0520 C   0  0  0  0  0  2  0  0  0  0  0  0
  186.0100  178.2800  146.7990 C   0  0  0  0  0  2  0  0  0  0  0  0
  186.7310  178.5400  145.5610 N   0  0  0  0  0  0  0  0  0  0  0  0
  184.5480  178.5840  146.5530 C   0  0  0  0  0  2  0  0  0  0  0  0
  185.7650  178.3030  144.5000 C   0  0  0  0  0  2  0  0  0  0  0  0
  1 27  1  0  0  0  0
  2 14  1  0  0  0  0
  3 16  1  0  0  0  0
  3  7  1  0  0  0  0
  4 18  2  0  0  0  0
  5 11  2  0  0  0  0
  6 19  1  0  0  0  0
  7  6  1  0  0  0  0
  8 12  1  0  0  0  0
  9 25  1  0  0  0  0
 10 17  1  0  0  0  0
 11 20  1  0  0  0  0
 12 15  1  0  0  0  0
 13  9  1  0  0  0  0
 13 24  1  0  0  0  0
 14 25  1  0  0  0  0
 15  4  1  0  0  0  0
 15  5  1  0  0  0  0
 16  8  1  0  0  0  0
 17 28  1  0  0  0  0
 18  1  1  0  0  0  0
 18 20  1  0  0  0  0
 19  5  1  0  0  0  0
 20 13  1  0  0  0  0
 21 26  1  0  0  0  0
 22 10  1  0  0  0  0
 23 21  2  0  0  0  0
 23  4  1  0  0  0  0
 24 22  1  0  0  0  0
 25 17  1  0  0  0  0
 26  1  2  0  0  0  0
 27  2  1  0  0  0  0
 27  9  1  0  0  0  0
 28 29  1  0  0  0  0
 29 32  1  0  0  0  0
 30 33  1  0  0  0  0
 32 31  1  0  0  0  0
 33 31  1  0  0  0  0
 34 30  1  0  0  0  0
 34 32  1  0  0  0  0
M  END
>  <MODEL>
7

>  <REMARK>
 VINA RESULT:      -7.5      4.436      7.566
  Name = 
  3 active torsions:
  status: ('A' for Active; 'I' for Inactive)
    1  A    between atoms: C_17  and  C_28
    2  A    between atoms: C_28  and  C_29
    3  A    between atoms: C_29  and  N_32
                            x       y       z     vdW  Elec       q    Type
                         _______ _______ _______ _____ _____    ______ ____

>  <TORSDO>
F 3

$$$$
=
 OpenBabel11122412183D

 34 40  0  0  1  0  0  0  0  0999 V2000
  186.4130  177.9210  137.8900 C   0  0  0  0  0  0  0  0  0  0  0  0
  188.3740  176.8760  139.0290 C   0  0  0  0  0  2  0  0  0  0  0  0
  179.6730  177.9880  137.8740 C   0  0  0  0  0  2  0  0  0  0  0  0
  183.9980  177.8150  137.6380 C   0  0  0  0  0  0  0  0  0  0  0  0
  182.6590  177.6400  139.7040 C   0  0  0  0  0  0  0  0  0  0  0  0
  180.4220  176.3870  139.6120 C   0  0  0  0  0  2  0  0  0  0  0  0
  179.3700  177.4270  139.2570 C   0  0  0  0  0  2  0  0  0  0  0  0
  180.8540  179.7770  138.6740 C   0  0  0  0  0  2  0  0  0  0  0  0
  187.3410  178.7410  140.1090 C   0  0  1  0  0  3  0  0  0  0  0  0
  187.6420  177.3550  142.9750 C   0  0  0  0  0  2  0  0  0  0  0  0
  183.7280  177.8690  140.4120 N   0  0  0  0  0  0  0  0  0  0  0  0
  182.2070  179.4670  138.0300 C   0  0  0  0  0  2  0  0  0  0  0  0
  186.1030  178.1780  140.6990 N   0  0  2  0  0  0  0  0  0  0  0  0
  188.8930  176.9320  140.3360 O   0  0  0  0  0  0  0  0  0  0  0  0
  182.6310  178.0080  138.2310 C   0  0  1  0  0  3  0  0  0  0  0  0
  179.7650  179.3920  137.8680 O   0  0  0  0  0  0  0  0  0  0  0  0
  188.6450  178.3150  142.3410 C   0  0  2  0  0  3  0  0  0  0  0  0
  185.1320  178.0440  138.4350 C   0  0  0  0  0  0  0  0  0  0  0  0
  181.5440  176.9880  140.3260 N   0  0  0  0  0  2  0  0  0  0  0  0
  184.9380  178.4960  139.8590 C   0  0  1  0  0  3  0  0  0  0  0  0
  185.4310  177.3250  135.7510 C   0  0  0  0  0  3  0  0  0  0  0  0
  186.2720  178.0050  143.1460 C   0  0  0  0  0  2  0  0  0  0  0  0
  184.1500  177.4560  136.2940 C   0  0  0  0  0  3  0  0  0  0  0  0
  185.8780  178.8800  141.9600 C   0  0  0  0  0  2  0  0  0  0  0  0
  188.6010  178.2240  140.8100 C   0  0  2  0  0  3  0  0  0  0  0  0
  186.5590  177.5580  136.5440 C   0  0  0  0  0  3  0  0  0  0  0  0
  187.6240  178.1620  138.7370 C   0  0  2  0  0  3  0  0  0  0  0  0
  190.0500  178.0140  142.8330 C   0  0  0  0  0  2  0  0  0  0  0  0
  190.0120  176.9590  143.9270 C   0  0  0  0  0  2  0  0  0  0  0  0
  190.0340  177.0840  147.4840 C   0  0  0  0  0  2  0  0  0  0  0  0
  191.5500  176.6530  145.6690 C   0  0  0  0  0  2  0  0  0  0  0  0
  190.4930  177.5250  145.1750 N   0  0  0  0  0  0  0  0  0  0  0  0
  191.4220  176.5810  147.1740 C   0  0  0  0  0  2  0  0  0  0  0  0
  189.4140  177.3990  146.1410 C   0  0  0  0  0  2  0  0  0  0  0  0
  1 18  1  0  0  0  0
  1 27  1  0  0  0  0
  2 14  1  0  0  0  0
  3  7  1  0  0  0  0
  4 15  1  0  0  0  0
  4 18  2  0  0  0  0
  5 19  1  0  0  0  0
  5 11  2  0  0  0  0
  6 19  1  0  0  0  0
  7  6  1  0  0  0  0
  9 13  1  0  0  0  0
  9 25  1  0  0  0  0
 10 22  1  0  0  0  0
 12 15  1  0  0  0  0
 12  8  1  0  0  0  0
 13 24  1  0  0  0  0
 14 25  1  0  0  0  0
 15  5  1  0  0  0  0
 16  3  1  0  0  0  0
 16  8  1  0  0  0  0
 17 28  1  0  0  0  0
 17 10  1  0  0  0  0
 18 20  1  0  0  0  0
 20 11  1  0  0  0  0
 20 13  1  0  0  0  0
 21 23  2  0  0  0  0
 21 26  1  0  0  0  0
 23  4  1  0  0  0  0
 24 22  1  0  0  0  0
 25 17  1  0  0  0  0
 26  1  2  0  0  0  0
 27  2  1  0  0  0  0
 27  9  1  0  0  0  0
 28 29  1  0  0  0  0
 29 32  1  0  0  0  0
 31 33  1  0  0  0  0
 32 31  1  0  0  0  0
 32 34  1  0  0  0  0
 33 30  1  0  0  0  0
 34 30  1  0  0  0  0
M  END
>  <MODEL>
8

>  <REMARK>
 VINA RESULT:      -7.3      2.153      9.069
  Name = 
  3 active torsions:
  status: ('A' for Active; 'I' for Inactive)
    1  A    between atoms: C_17  and  C_28
    2  A    between atoms: C_28  and  C_29
    3  A    between atoms: C_29  and  N_32
                            x       y       z     vdW  Elec       q    Type
                         _______ _______ _______ _____ _____    ______ ____

>  <TORSDO>
F 3

$$$$
=
 OpenBabel11122412183D

 34 40  0  0  1  0  0  0  0  0999 V2000
  188.4920  177.4490  138.7970 C   0  0  0  0  0  0  0  0  0  0  0  0
  188.0780  178.9930  140.7160 C   0  0  0  0  0  2  0  0  0  0  0  0
  193.3240  175.3490  134.5940 C   0  0  0  0  0  2  0  0  0  0  0  0
  190.0980  176.8300  137.0810 C   0  0  0  0  0  0  0  0  0  0  0  0
  192.4380  176.5090  137.7950 C   0  0  0  0  0  0  0  0  0  0  0  0
  194.3120  177.0300  136.1230 C   0  0  0  0  0  2  0  0  0  0  0  0
  194.5760  175.7360  135.3690 C   0  0  0  0  0  2  0  0  0  0  0  0
  192.5290  173.9700  136.2390 C   0  0  0  0  0  2  0  0  0  0  0  0
  189.0420  176.8610  141.2070 C   0  0  1  0  0  3  0  0  0  0  0  0
  191.0250  178.1590  143.3540 C   0  0  0  0  0  2  0  0  0  0  0  0
  192.0650  176.5870  139.0410 N   0  0  0  0  0  0  0  0  0  0  0  0
  191.2190  174.6990  136.5390 C   0  0  0  0  0  2  0  0  0  0  0  0
  190.4580  176.9990  140.7930 N   0  0  2  0  0  0  0  0  0  0  0  0
  188.5310  179.0440  142.0480 O   0  0  0  0  0  0  0  0  0  0  0  0
  191.4160  176.2100  136.7140 C   0  0  1  0  0  3  0  0  0  0  0  0
  192.8950  174.0380  134.8800 O   0  0  0  0  0  0  0  0  0  0  0  0
  189.6480  177.5730  143.6540 C   0  0  2  0  0  3  0  0  0  0  0  0
  189.7350  176.9230  138.4350 C   0  0  0  0  0  0  0  0  0  0  0  0
  193.8090  176.7690  137.4680 N   0  0  0  0  0  2  0  0  0  0  0  0
  190.6750  176.3780  139.4770 C   0  0  1  0  0  3  0  0  0  0  0  0
  187.9750  177.8050  136.4510 C   0  0  0  0  0  3  0  0  0  0  0  0
  191.9560  177.1190  142.7380 C   0  0  0  0  0  2  0  0  0  0  0  0
  189.2150  177.2710  136.0900 C   0  0  0  0  0  3  0  0  0  0  0  0
  191.2530  176.2130  141.7330 C   0  0  0  0  0  2  0  0  0  0  0  0
  188.7170  177.7070  142.4420 C   0  0  2  0  0  3  0  0  0  0  0  0
  187.6130  177.8930  137.7990 C   0  0  0  0  0  3  0  0  0  0  0  0
  188.1030  177.5520  140.2390 C   0  0  2  0  0  3  0  0  0  0  0  0
  189.0280  178.2650  144.8570 C   0  0  0  0  0  2  0  0  0  0  0  0
  187.6720  177.6580  145.1750 C   0  0  0  0  0  2  0  0  0  0  0  0
  188.9020  177.8810  148.5080 C   0  0  0  0  0  2  0  0  0  0  0  0
  186.8860  178.3310  147.2780 C   0  0  0  0  0  2  0  0  0  0  0  0
  187.6170  177.2840  146.5780 N   0  0  0  0  0  0  0  0  0  0  0  0
  187.5460  178.5310  148.6250 C   0  0  0  0  0  2  0  0  0  0  0  0
  188.9750  177.3580  147.0910 C   0  0  0  0  0  2  0  0  0  0  0  0
  1 27  1  0  0  0  0
  2 14  1  0  0  0  0
  3 16  1  0  0  0  0
  3  7  1  0  0  0  0
  4 18  2  0  0  0  0
  5 11  2  0  0  0  0
  6 19  1  0  0  0  0
  7  6  1  0  0  0  0
  8 12  1  0  0  0  0
  9 25  1  0  0  0  0
 10 17  1  0  0  0  0
 11 20  1  0  0  0  0
 12 15  1  0  0  0  0
 13  9  1  0  0  0  0
 13 24  1  0  0  0  0
 14 25  1  0  0  0  0
 15  4  1  0  0  0  0
 15  5  1  0  0  0  0
 16  8  1  0  0  0  0
 17 28  1  0  0  0  0
 18  1  1  0  0  0  0
 18 20  1  0  0  0  0
 19  5  1  0  0  0  0
 20 13  1  0  0  0  0
 21 26  1  0  0  0  0
 22 10  1  0  0  0  0
 23 21  2  0  0  0  0
 23  4  1  0  0  0  0
 24 22  1  0  0  0  0
 25 17  1  0  0  0  0
 26  1  2  0  0  0  0
 27  2  1  0  0  0  0
 27  9  1  0  0  0  0
 28 29  1  0  0  0  0
 29 32  1  0  0  0  0
 30 33  1  0  0  0  0
 31 33  1  0  0  0  0
 32 34  1  0  0  0  0
 32 31  1  0  0  0  0
 34 30  1  0  0  0  0
M  END
>  <MODEL>
9

>  <REMARK>
 VINA RESULT:      -7.3      4.616      8.195
  Name = 
  3 active torsions:
  status: ('A' for Active; 'I' for Inactive)
    1  A    between atoms: C_17  and  C_28
    2  A    between atoms: C_28  and  C_29
    3  A    between atoms: C_29  and  N_32
                            x       y       z     vdW  Elec       q    Type
                         _______ _______ _______ _____ _____    ______ ____

>  <TORSDO>
F 3

$$$$
