=
 OpenBabel11122412053D

 34 41  0  0  1  0  0  0  0  0999 V2000
  187.0160  178.4260  140.5460 C   0  0  0  0  0  0  0  0  0  0  0  0
  184.8660  178.6200  139.2180 C   0  0  0  0  0  3  0  0  0  0  0  0
  190.3590  176.8370  146.1890 C   0  0  0  0  0  0  0  0  0  0  0  0
  188.8810  177.7760  141.9390 C   0  0  0  0  0  0  0  0  0  0  0  0
  188.5880  177.5300  144.3420 C   0  0  0  0  0  0  0  0  0  0  0  0
  188.2570  177.2040  147.2410 S   0  0  0  0  0  0  0  0  0  0  0  0
  189.8660  176.7660  147.5920 C   0  0  0  0  0  2  0  0  0  0  0  0
  191.7470  176.7700  144.1830 C   0  0  0  0  0  3  0  0  0  0  0  0
  184.8880  179.3150  141.5460 C   0  0  2  0  0  3  0  0  0  0  0  0
  182.2140  178.6490  143.2780 C   0  0  0  0  0  2  0  0  0  0  0  0
  187.2400  177.8750  144.1960 C   0  0  0  0  0  3  0  0  0  0  0  0
  190.8850  177.1160  143.2160 C   0  0  0  0  0  3  0  0  0  0  0  0
  185.2070  178.4790  142.8100 C   0  0  1  0  0  3  0  0  0  0  0  0
  183.4460  179.0160  139.5840 C   0  0  0  0  0  3  0  0  0  0  0  0
  189.4370  177.4770  143.2050 C   0  0  0  0  0  0  0  0  0  0  0  0
  191.5260  176.6280  145.6240 C   0  0  0  0  0  3  0  0  0  0  0  0
  182.5730  178.2280  141.8420 C   0  0  2  0  0  3  0  0  0  0  0  0
  187.5250  178.1470  141.8210 C   0  0  0  0  0  0  0  0  0  0  0  0
  189.0490  177.2310  145.6550 N   0  0  0  0  0  0  0  0  0  0  0  0
  186.6950  178.2070  142.9530 C   0  0  0  0  0  0  0  0  0  0  0  0
  189.1200  177.9530  139.5820 C   0  0  0  0  0  3  0  0  0  0  0  0
  183.1880  179.6430  143.9150 C   0  0  0  0  0  2  0  0  0  0  0  0
  189.6400  177.6930  140.8090 N   0  0  0  0  0  0  0  0  0  0  0  0
  184.6030  179.0890  144.0870 C   0  0  0  0  0  2  0  0  0  0  0  0
  183.4160  179.2810  141.0920 C   0  0  1  0  0  3  0  0  0  0  0  0
  187.8160  178.3140  139.4550 N   0  0  0  0  0  0  0  0  0  0  0  0
  185.6530  178.8350  140.4120 N   0  0  0  0  0  0  0  0  0  0  0  0
  181.3930  177.9360  141.1450 O   0  0  0  0  0  0  0  0  0  0  0  0
  180.4220  178.3850  141.9180 O   0  0  0  0  0  0  0  0  0  0  0  0
  180.1740  180.8710  139.7430 C   0  0  0  0  0  2  0  0  0  0  0  0
  179.8460  178.5840  139.6190 C   0  0  0  0  0  2  0  0  0  0  0  0
  179.5030  178.9700  141.0420 C   0  0  2  0  0  3  0  0  0  0  0  0
  179.8620  179.7970  138.8150 N   0  0  0  0  0  2  0  0  0  0  0  0
  179.6340  180.4730  141.0960 C   0  0  0  0  0  2  0  0  0  0  0  0
  1 18  1  0  0  0  0
  2 14  2  0  0  0  0
  2 27  1  0  0  0  0
  3  7  1  0  0  0  0
  4 15  1  0  0  0  0
  5 19  1  0  0  0  0
  6  7  1  0  0  0  0
  8 16  1  0  0  0  0
  9 27  1  6  0  0  0
  9 13  1  0  0  0  0
 10 22  1  0  0  0  0
 11  5  1  0  0  0  0
 12  8  2  0  0  0  0
 13 20  1  0  0  0  0
 13 24  1  1  0  0  0
 15 12  1  0  0  0  0
 15  5  2  0  0  0  0
 16  3  2  0  0  0  0
 17 28  1  6  0  0  0
 17 10  1  0  0  0  0
 18  4  2  0  0  0  0
 18 20  1  0  0  0  0
 19  3  1  0  0  0  0
 19  6  1  0  0  0  0
 20 11  2  0  0  0  0
 21 23  2  0  0  0  0
 22 24  1  0  0  0  0
 23  4  1  0  0  0  0
 25 14  1  6  0  0  0
 25  9  1  0  0  0  0
 25 17  1  0  0  0  0
 26 21  1  0  0  0  0
 26  1  2  0  0  0  0
 27  1  1  0  0  0  0
 28 29  1  0  0  0  0
 30 34  1  0  0  0  0
 31 32  1  0  0  0  0
 32 34  1  0  0  0  0
 32 29  1  1  0  0  0
 33 31  1  0  0  0  0
 33 30  1  0  0  0  0
M  END
>  <MODEL>
1

>  <REMARK>
 VINA RESULT:      -9.6      0.000      0.000
  Name = 
  3 active torsions:
  status: ('A' for Active; 'I' for Inactive)
    1  A    between atoms: C_17  and  O_28
    2  A    between atoms: O_28  and  O_29
    3  A    between atoms: O_29  and  C_32
                            x       y       z     vdW  Elec       q    Type
                         _______ _______ _______ _____ _____    ______ ____

>  <TORSDO>
F 3

$$$$
=
 OpenBabel11122412053D

 34 41  0  0  1  0  0  0  0  0999 V2000
  188.3670  177.9070  140.6040 C   0  0  0  0  0  0  0  0  0  0  0  0
  186.7810  177.8770  138.6280 C   0  0  0  0  0  3  0  0  0  0  0  0
  189.6370  177.0860  147.1810 C   0  0  0  0  0  0  0  0  0  0  0  0
  189.6590  177.4820  142.6010 C   0  0  0  0  0  0  0  0  0  0  0  0
  188.5840  177.5050  144.7840 C   0  0  0  0  0  0  0  0  0  0  0  0
  187.3080  177.5030  147.4280 S   0  0  0  0  0  0  0  0  0  0  0  0
  188.7060  177.1610  148.3400 C   0  0  0  0  0  2  0  0  0  0  0  0
  191.6120  176.8350  145.7690 C   0  0  0  0  0  3  0  0  0  0  0  0
  186.0350  178.8350  140.7320 C   0  0  2  0  0  3  0  0  0  0  0  0
  182.9330  178.2860  141.5500 C   0  0  0  0  0  2  0  0  0  0  0  0
  187.3640  177.7860  144.1610 C   0  0  0  0  0  3  0  0  0  0  0  0
  191.1220  177.0390  144.5370 C   0  0  0  0  0  3  0  0  0  0  0  0
  185.9100  178.1610  142.1200 C   0  0  1  0  0  3  0  0  0  0  0  0
  185.3230  178.2660  138.4540 C   0  0  0  0  0  3  0  0  0  0  0  0
  189.7620  177.3480  144.0060 C   0  0  0  0  0  0  0  0  0  0  0  0
  190.9240  176.8520  147.0630 C   0  0  0  0  0  3  0  0  0  0  0  0
  183.7450  177.7150  140.3730 C   0  0  2  0  0  3  0  0  0  0  0  0
  188.4220  177.7930  142.0000 C   0  0  0  0  0  0  0  0  0  0  0  0
  188.5820  177.3730  146.2010 N   0  0  0  0  0  0  0  0  0  0  0  0
  187.2640  177.9560  142.7780 C   0  0  0  0  0  0  0  0  0  0  0  0
  190.6680  177.3960  140.4530 C   0  0  0  0  0  3  0  0  0  0  0  0
  183.6480  179.3780  142.3500 C   0  0  0  0  0  2  0  0  0  0  0  0
  190.7500  177.2950  141.8040 N   0  0  0  0  0  0  0  0  0  0  0  0
  184.9220  178.8930  143.0440 C   0  0  0  0  0  2  0  0  0  0  0  0
  184.7970  178.7010  139.8240 C   0  0  1  0  0  3  0  0  0  0  0  0
  189.4830  177.6970  139.8600 N   0  0  0  0  0  0  0  0  0  0  0  0
  187.1290  178.2530  139.9800 N   0  0  0  0  0  0  0  0  0  0  0  0
  182.8600  177.3070  139.3660 O   0  0  0  0  0  0  0  0  0  0  0  0
  182.6780  176.0170  139.5760 O   0  0  0  0  0  0  0  0  0  0  0  0
  179.4850  176.5770  140.2580 C   0  0  0  0  0  2  0  0  0  0  0  0
  180.8370  176.9920  138.4270 C   0  0  0  0  0  2  0  0  0  0  0  0
  181.4010  175.7460  139.0770 C   0  0  2  0  0  3  0  0  0  0  0  0
  179.4950  177.2030  138.9460 N   0  0  0  0  0  2  0  0  0  0  0  0
  180.4660  175.4280  140.2180 C   0  0  0  0  0  2  0  0  0  0  0  0
  1 18  1  0  0  0  0
  2 27  1  0  0  0  0
  3  7  1  0  0  0  0
  4 15  1  0  0  0  0
  5 19  1  0  0  0  0
  6  7  1  0  0  0  0
  8 16  1  0  0  0  0
  9 27  1  6  0  0  0
  9 13  1  0  0  0  0
 10 22  1  0  0  0  0
 11  5  1  0  0  0  0
 12  8  2  0  0  0  0
 13 20  1  0  0  0  0
 13 24  1  1  0  0  0
 14  2  2  0  0  0  0
 15 12  1  0  0  0  0
 15  5  2  0  0  0  0
 16  3  2  0  0  0  0
 17 28  1  6  0  0  0
 17 10  1  0  0  0  0
 18  4  2  0  0  0  0
 18 20  1  0  0  0  0
 19  3  1  0  0  0  0
 19  6  1  0  0  0  0
 20 11  2  0  0  0  0
 21 23  2  0  0  0  0
 22 24  1  0  0  0  0
 23  4  1  0  0  0  0
 25 14  1  6  0  0  0
 25 17  1  0  0  0  0
 25  9  1  0  0  0  0
 26 21  1  0  0  0  0
 26  1  2  0  0  0  0
 27  1  1  0  0  0  0
 28 29  1  0  0  0  0
 31 33  1  0  0  0  0
 31 32  1  0  0  0  0
 32 29  1  1  0  0  0
 32 34  1  0  0  0  0
 33 30  1  0  0  0  0
 34 30  1  0  0  0  0
M  END
>  <MODEL>
2

>  <REMARK>
 VINA RESULT:      -9.3      1.706      2.139
  Name = 
  3 active torsions:
  status: ('A' for Active; 'I' for Inactive)
    1  A    between atoms: C_17  and  O_28
    2  A    between atoms: O_28  and  O_29
    3  A    between atoms: O_29  and  C_32
                            x       y       z     vdW  Elec       q    Type
                         _______ _______ _______ _____ _____    ______ ____

>  <TORSDO>
F 3

$$$$
=
 OpenBabel11122412053D

 34 41  0  0  1  0  0  0  0  0999 V2000
  189.5560  177.7200  143.6180 C   0  0  0  0  0  0  0  0  0  0  0  0
  191.7100  176.8630  142.5940 C   0  0  0  0  0  3  0  0  0  0  0  0
  182.8930  178.7590  143.3700 C   0  0  0  0  0  0  0  0  0  0  0  0
  187.3130  178.0840  144.4380 C   0  0  0  0  0  0  0  0  0  0  0  0
  185.4660  178.3550  142.8760 C   0  0  0  0  0  0  0  0  0  0  0  0
  183.2160  178.6610  141.0150 S   0  0  0  0  0  0  0  0  0  0  0  0
  181.9980  178.8780  142.1860 C   0  0  0  0  0  2  0  0  0  0  0  0
  183.7800  178.6620  145.6410 C   0  0  0  0  0  3  0  0  0  0  0  0
  190.1340  178.0770  141.1980 C   0  0  2  0  0  3  0  0  0  0  0  0
  189.7990  177.0160  138.1400 C   0  0  0  0  0  2  0  0  0  0  0  0
  186.3620  178.1900  141.8150 C   0  0  0  0  0  3  0  0  0  0  0  0
  185.0890  178.4550  145.4390 C   0  0  0  0  0  3  0  0  0  0  0  0
  188.6630  177.7310  140.8600 C   0  0  1  0  0  3  0  0  0  0  0  0
  192.2580  176.8470  141.1770 C   0  0  0  0  0  3  0  0  0  0  0  0
  185.9330  178.3050  144.2170 C   0  0  0  0  0  0  0  0  0  0  0  0
  182.6960  178.8140  144.6670 C   0  0  0  0  0  3  0  0  0  0  0  0
  190.5960  176.3970  139.3020 C   0  0  2  0  0  3  0  0  0  0  0  0
  188.2000  177.9470  143.3500 C   0  0  0  0  0  0  0  0  0  0  0  0
  184.0950  178.5560  142.5510 N   0  0  0  0  0  0  0  0  0  0  0  0
  187.7310  178.0080  142.0270 C   0  0  0  0  0  0  0  0  0  0  0  0
  189.1220  177.7440  145.9390 C   0  0  0  0  0  3  0  0  0  0  0  0
  189.2130  178.4000  138.4310 C   0  0  0  0  0  2  0  0  0  0  0  0
  187.8050  177.9800  145.7060 N   0  0  0  0  0  0  0  0  0  0  0  0
  188.1840  178.4020  139.5620 C   0  0  0  0  0  2  0  0  0  0  0  0
  191.1870  177.4500  140.2630 C   0  0  1  0  0  3  0  0  0  0  0  0
  189.9870  177.6140  144.9010 N   0  0  0  0  0  0  0  0  0  0  0  0
  190.4750  177.6120  142.5280 N   0  0  0  0  0  0  0  0  0  0  0  0
  191.5990  175.5720  138.7770 O   0  0  0  0  0  0  0  0  0  0  0  0
  190.9560  174.6660  138.0660 O   0  0  0  0  0  0  0  0  0  0  0  0
  192.9130  175.6610  135.5860 C   0  0  0  0  0  2  0  0  0  0  0  0
  193.2890  174.6010  137.6080 C   0  0  0  0  0  2  0  0  0  0  0  0
  191.9060  174.1680  137.1700 C   0  0  2  0  0  3  0  0  0  0  0  0
  193.9700  175.1680  136.4540 N   0  0  0  0  0  2  0  0  0  0  0  0
  191.6990  174.7910  135.8100 C   0  0  0  0  0  2  0  0  0  0  0  0
  1 26  1  0  0  0  0
  3 16  2  0  0  0  0
  4 23  2  0  0  0  0
  5 15  2  0  0  0  0
  6  7  1  0  0  0  0
  6 19  1  0  0  0  0
  7  3  1  0  0  0  0
  9 27  1  1  0  0  0
 10 22  1  0  0  0  0
 10 17  1  0  0  0  0
 11 20  2  0  0  0  0
 11  5  1  0  0  0  0
 12  8  2  0  0  0  0
 13 24  1  6  0  0  0
 13  9  1  0  0  0  0
 13 20  1  0  0  0  0
 14  2  2  0  0  0  0
 15  4  1  0  0  0  0
 15 12  1  0  0  0  0
 16  8  1  0  0  0  0
 17 28  1  6  0  0  0
 17 25  1  0  0  0  0
 18  1  2  0  0  0  0
 18  4  1  0  0  0  0
 19  5  1  0  0  0  0
 19  3  1  0  0  0  0
 20 18  1  0  0  0  0
 22 24  1  0  0  0  0
 23 21  1  0  0  0  0
 25 14  1  1  0  0  0
 25  9  1  0  0  0  0
 26 21  2  0  0  0  0
 27  2  1  0  0  0  0
 27  1  1  0  0  0  0
 29 28  1  0  0  0  0
 30 34  1  0  0  0  0
 30 33  1  0  0  0  0
 32 31  1  0  0  0  0
 32 29  1  1  0  0  0
 33 31  1  0  0  0  0
 34 32  1  0  0  0  0
M  END
>  <MODEL>
3

>  <REMARK>
 VINA RESULT:      -9.2      3.915      8.503
  Name = 
  3 active torsions:
  status: ('A' for Active; 'I' for Inactive)
    1  A    between atoms: C_17  and  O_28
    2  A    between atoms: O_28  and  O_29
    3  A    between atoms: O_29  and  C_32
                            x       y       z     vdW  Elec       q    Type
                         _______ _______ _______ _____ _____    ______ ____

>  <TORSDO>
F 3

$$$$
=
 OpenBabel11122412053D

 34 41  0  0  1  0  0  0  0  0999 V2000
  183.3400  178.7310  143.6560 C   0  0  0  0  0  0  0  0  0  0  0  0
  181.1330  179.6990  142.8730 C   0  0  0  0  0  3  0  0  0  0  0  0
  189.8780  177.3720  142.6860 C   0  0  0  0  0  0  0  0  0  0  0  0
  185.6390  178.2530  144.2280 C   0  0  0  0  0  0  0  0  0  0  0  0
  187.2900  177.9040  142.4750 C   0  0  0  0  0  0  0  0  0  0  0  0
  189.3080  177.5030  140.3810 S   0  0  0  0  0  0  0  0  0  0  0  0
  190.6330  177.2190  141.4130 C   0  0  0  0  0  2  0  0  0  0  0  0
  189.2480  177.4940  145.0410 C   0  0  0  0  0  3  0  0  0  0  0  0
  182.4870  178.4210  141.3120 C   0  0  2  0  0  3  0  0  0  0  0  0
  182.5420  179.4880  138.2380 C   0  0  0  0  0  2  0  0  0  0  0  0
  186.2940  178.1210  141.5180 C   0  0  0  0  0  3  0  0  0  0  0  0
  187.9360  177.7660  144.9810 C   0  0  0  0  0  3  0  0  0  0  0  0
  183.9280  178.6980  140.8190 C   0  0  1  0  0  3  0  0  0  0  0  0
  180.4370  179.7530  141.5240 C   0  0  0  0  0  3  0  0  0  0  0  0
  186.9740  177.9660  143.8580 C   0  0  0  0  0  0  0  0  0  0  0  0
  190.2120  177.2980  143.9550 C   0  0  0  0  0  3  0  0  0  0  0  0
  181.9070  180.1360  139.4810 C   0  0  2  0  0  3  0  0  0  0  0  0
  184.6470  178.4400  143.2430 C   0  0  0  0  0  0  0  0  0  0  0  0
  188.6070  177.6390  142.0030 N   0  0  0  0  0  0  0  0  0  0  0  0
  184.9670  178.3670  141.8770 C   0  0  0  0  0  0  0  0  0  0  0  0
  184.0210  178.6680  145.9170 C   0  0  0  0  0  3  0  0  0  0  0  0
  183.0880  178.0750  138.4610 C   0  0  0  0  0  2  0  0  0  0  0  0
  185.2920  178.3700  145.5420 N   0  0  0  0  0  0  0  0  0  0  0  0
  184.2320  178.0140  139.4740 C   0  0  0  0  0  2  0  0  0  0  0  0
  181.3720  179.1060  140.4990 C   0  0  1  0  0  3  0  0  0  0  0  0
  183.0560  178.8480  144.9790 N   0  0  0  0  0  0  0  0  0  0  0  0
  182.3160  178.8920  142.6730 N   0  0  0  0  0  0  0  0  0  0  0  0
  180.8950  181.0130  139.0700 O   0  0  0  0  0  0  0  0  0  0  0  0
  181.5230  181.9800  138.4290 O   0  0  0  0  0  0  0  0  0  0  0  0
  181.1690  184.2570  136.0500 C   0  0  0  0  0  2  0  0  0  0  0  0
  180.4870  182.0600  136.2900 C   0  0  0  0  0  2  0  0  0  0  0  0
  180.5290  182.6300  137.6920 C   0  0  2  0  0  3  0  0  0  0  0  0
  180.5030  183.1710  135.3510 N   0  0  0  0  0  2  0  0  0  0  0  0
  180.8900  184.0860  137.5250 C   0  0  0  0  0  2  0  0  0  0  0  0
  1 26  1  0  0  0  0
  3 16  2  0  0  0  0
  4 23  2  0  0  0  0
  5 15  2  0  0  0  0
  6  7  1  0  0  0  0
  6 19  1  0  0  0  0
  7  3  1  0  0  0  0
  9 27  1  1  0  0  0
 10 22  1  0  0  0  0
 10 17  1  0  0  0  0
 11 20  2  0  0  0  0
 11  5  1  0  0  0  0
 12  8  2  0  0  0  0
 13 24  1  6  0  0  0
 13  9  1  0  0  0  0
 13 20  1  0  0  0  0
 14  2  2  0  0  0  0
 15  4  1  0  0  0  0
 15 12  1  0  0  0  0
 16  8  1  0  0  0  0
 17 28  1  6  0  0  0
 17 25  1  0  0  0  0
 18  1  2  0  0  0  0
 18  4  1  0  0  0  0
 19  5  1  0  0  0  0
 19  3  1  0  0  0  0
 20 18  1  0  0  0  0
 22 24  1  0  0  0  0
 23 21  1  0  0  0  0
 25  9  1  0  0  0  0
 25 14  1  1  0  0  0
 26 21  2  0  0  0  0
 27  2  1  0  0  0  0
 27  1  1  0  0  0  0
 29 28  1  0  0  0  0
 30 34  1  0  0  0  0
 31 32  1  0  0  0  0
 32 29  1  1  0  0  0
 33 30  1  0  0  0  0
 33 31  1  0  0  0  0
 34 32  1  0  0  0  0
M  END
>  <MODEL>
4

>  <REMARK>
 VINA RESULT:      -9.0      2.813      4.559
  Name = 
  3 active torsions:
  status: ('A' for Active; 'I' for Inactive)
    1  A    between atoms: C_17  and  O_28
    2  A    between atoms: O_28  and  O_29
    3  A    between atoms: O_29  and  C_32
                            x       y       z     vdW  Elec       q    Type
                         _______ _______ _______ _____ _____    ______ ____

>  <TORSDO>
F 3

$$$$
=
 OpenBabel11122412053D

 34 41  0  0  1  0  0  0  0  0999 V2000
  190.6600  177.2440  141.6430 C   0  0  0  0  0  0  0  0  0  0  0  0
  191.7310  176.4560  139.4850 C   0  0  0  0  0  3  0  0  0  0  0  0
  185.2210  178.4640  145.4460 C   0  0  0  0  0  0  0  0  0  0  0  0
  189.3570  177.5670  143.6520 C   0  0  0  0  0  0  0  0  0  0  0  0
  186.9770  178.0560  143.5030 C   0  0  0  0  0  0  0  0  0  0  0  0
  184.1010  178.6240  143.3530 S   0  0  0  0  0  0  0  0  0  0  0  0
  183.8180  178.7360  145.0290 C   0  0  0  0  0  2  0  0  0  0  0  0
  187.2530  178.0910  146.7440 C   0  0  0  0  0  3  0  0  0  0  0  0
  189.7470  177.8560  139.3830 C   0  0  2  0  0  3  0  0  0  0  0  0
  187.6040  177.1550  137.0370 C   0  0  0  0  0  2  0  0  0  0  0  0
  187.0690  177.9900  142.1090 C   0  0  0  0  0  3  0  0  0  0  0  0
  188.1750  177.8770  145.7940 C   0  0  0  0  0  3  0  0  0  0  0  0
  188.3330  177.5860  139.9500 C   0  0  1  0  0  3  0  0  0  0  0  0
  191.3460  176.5860  138.0210 C   0  0  0  0  0  3  0  0  0  0  0  0
  188.1320  177.8450  144.3030 C   0  0  0  0  0  0  0  0  0  0  0  0
  185.8220  178.3770  146.6100 C   0  0  0  0  0  3  0  0  0  0  0  0
  188.8710  176.3900  137.4560 C   0  0  2  0  0  3  0  0  0  0  0  0
  189.4280  177.5320  142.2440 C   0  0  0  0  0  0  0  0  0  0  0  0
  185.6980  178.3260  144.0640 N   0  0  0  0  0  0  0  0  0  0  0  0
  188.2830  177.7520  141.4600 C   0  0  0  0  0  0  0  0  0  0  0  0
  191.6650  177.0180  143.7690 C   0  0  0  0  0  3  0  0  0  0  0  0
  187.4180  178.5110  137.7230 C   0  0  0  0  0  2  0  0  0  0  0  0
  190.4850  177.3100  144.3740 N   0  0  0  0  0  0  0  0  0  0  0  0
  187.2460  178.4110  139.2400 C   0  0  0  0  0  2  0  0  0  0  0  0
  189.9990  177.3130  137.9630 C   0  0  1  0  0  3  0  0  0  0  0  0
  191.7480  176.9840  142.4130 N   0  0  0  0  0  0  0  0  0  0  0  0
  190.7580  177.2370  140.2170 N   0  0  0  0  0  0  0  0  0  0  0  0
  189.3050  175.6050  136.3800 O   0  0  0  0  0  0  0  0  0  0  0  0
  188.3510  174.7120  136.2040 O   0  0  0  0  0  0  0  0  0  0  0  0
  187.8640  171.4740  135.7020 C   0  0  0  0  0  2  0  0  0  0  0  0
  189.5450  172.9570  135.1320 C   0  0  0  0  0  2  0  0  0  0  0  0
  188.9650  173.4770  136.4300 C   0  0  2  0  0  3  0  0  0  0  0  0
  189.1120  171.5780  134.9650 N   0  0  0  0  0  2  0  0  0  0  0  0
  187.9290  172.4610  136.8450 C   0  0  0  0  0  2  0  0  0  0  0  0
  1 18  2  0  0  0  0
  1 26  1  0  0  0  0
  2 27  1  0  0  0  0
  3 16  2  0  0  0  0
  4 15  1  0  0  0  0
  4 23  2  0  0  0  0
  5 19  1  0  0  0  0
  5 15  2  0  0  0  0
  6 19  1  0  0  0  0
  6  7  1  0  0  0  0
  7  3  1  0  0  0  0
  9 13  1  0  0  0  0
  9 27  1  1  0  0  0
 10 17  1  0  0  0  0
 10 22  1  0  0  0  0
 11  5  1  0  0  0  0
 12  8  2  0  0  0  0
 13 24  1  6  0  0  0
 13 20  1  0  0  0  0
 14  2  2  0  0  0  0
 15 12  1  0  0  0  0
 16  8  1  0  0  0  0
 17 28  1  6  0  0  0
 17 25  1  0  0  0  0
 18  4  1  0  0  0  0
 19  3  1  0  0  0  0
 20 11  2  0  0  0  0
 20 18  1  0  0  0  0
 21 23  1  0  0  0  0
 22 24  1  0  0  0  0
 25 14  1  1  0  0  0
 25  9  1  0  0  0  0
 26 21  2  0  0  0  0
 27  1  1  0  0  0  0
 29 28  1  0  0  0  0
 30 34  1  0  0  0  0
 31 32  1  0  0  0  0
 32 29  1  6  0  0  0
 32 34  1  0  0  0  0
 33 31  1  0  0  0  0
 33 30  1  0  0  0  0
M  END
>  <MODEL>
5

>  <REMARK>
 VINA RESULT:      -8.9      4.105      7.189
  Name = 
  3 active torsions:
  status: ('A' for Active; 'I' for Inactive)
    1  A    between atoms: C_17  and  O_28
    2  A    between atoms: O_28  and  O_29
    3  A    between atoms: O_29  and  C_32
                            x       y       z     vdW  Elec       q    Type
                         _______ _______ _______ _____ _____    ______ ____

>  <TORSDO>
F 3

$$$$
=
 OpenBabel11122412053D

 34 41  0  0  1  0  0  0  0  0999 V2000
  182.4770  178.8580  143.5860 C   0  0  0  0  0  0  0  0  0  0  0  0
  184.0450  178.6280  145.5640 C   0  0  0  0  0  3  0  0  0  0  0  0
  180.8840  177.6860  137.1350 C   0  0  0  0  0  0  0  0  0  0  0  0
  181.0730  178.5740  141.6410 C   0  0  0  0  0  0  0  0  0  0  0  0
  182.0660  178.0720  139.4760 C   0  0  0  0  0  0  0  0  0  0  0  0
  183.2340  177.4430  136.8580 S   0  0  0  0  0  0  0  0  0  0  0  0
  181.7750  177.3850  135.9810 C   0  0  0  0  0  2  0  0  0  0  0  0
  178.9460  178.1220  138.5530 C   0  0  0  0  0  3  0  0  0  0  0  0
  184.9680  179.1180  143.3710 C   0  0  2  0  0  3  0  0  0  0  0  0
  187.7960  177.6820  142.6410 C   0  0  0  0  0  2  0  0  0  0  0  0
  183.3310  178.0880  140.0720 C   0  0  0  0  0  3  0  0  0  0  0  0
  179.5010  178.3230  139.7570 C   0  0  0  0  0  3  0  0  0  0  0  0
  184.8790  178.2860  142.0670 C   0  0  1  0  0  3  0  0  0  0  0  0
  185.5580  178.6340  145.7030 C   0  0  0  0  0  3  0  0  0  0  0  0
  180.9070  178.3190  140.2600 C   0  0  0  0  0  0  0  0  0  0  0  0
  179.5840  177.8150  137.2700 C   0  0  0  0  0  3  0  0  0  0  0  0
  186.8910  177.4790  143.8680 C   0  0  2  0  0  3  0  0  0  0  0  0
  182.3620  178.6110  142.2120 C   0  0  0  0  0  0  0  0  0  0  0  0
  182.0000  177.7900  138.0830 N   0  0  0  0  0  0  0  0  0  0  0  0
  183.5040  178.3760  141.4280 C   0  0  0  0  0  0  0  0  0  0  0  0
  180.1270  178.9930  143.7790 C   0  0  0  0  0  3  0  0  0  0  0  0
  187.3760  178.8300  141.7190 C   0  0  0  0  0  2  0  0  0  0  0  0
  179.9900  178.7700  142.4470 N   0  0  0  0  0  0  0  0  0  0  0  0
  186.0040  178.6260  141.0740 C   0  0  0  0  0  2  0  0  0  0  0  0
  186.1480  178.7620  144.2960 C   0  0  1  0  0  3  0  0  0  0  0  0
  181.3630  179.0340  144.3420 N   0  0  0  0  0  0  0  0  0  0  0  0
  183.7770  178.9320  144.1760 N   0  0  0  0  0  0  0  0  0  0  0  0
  187.6600  176.9640  144.9200 O   0  0  0  0  0  0  0  0  0  0  0  0
  188.8830  176.8740  144.4340 O   0  0  0  0  0  0  0  0  0  0  0  0
  190.5540  176.7530  147.2920 C   0  0  0  0  0  2  0  0  0  0  0  0
  191.1210  177.2990  145.1160 C   0  0  0  0  0  2  0  0  0  0  0  0
  189.6640  177.6800  145.2670 C   0  0  2  0  0  3  0  0  0  0  0  0
  191.6790  177.1190  146.4470 N   0  0  0  0  0  2  0  0  0  0  0  0
  189.3210  177.4040  146.7100 C   0  0  0  0  0  2  0  0  0  0  0  0
  1 27  1  0  0  0  0
  1 26  1  0  0  0  0
  2 14  2  0  0  0  0
  3 16  2  0  0  0  0
  3 19  1  0  0  0  0
  4 18  1  0  0  0  0
  4 23  2  0  0  0  0
  5 11  1  0  0  0  0
  5 15  2  0  0  0  0
  6 19  1  0  0  0  0
  7  6  1  0  0  0  0
  7  3  1  0  0  0  0
  8 12  2  0  0  0  0
  9 27  1  1  0  0  0
  9 25  1  0  0  0  0
 10 17  1  0  0  0  0
 11 20  2  0  0  0  0
 12 15  1  0  0  0  0
 13 24  1  6  0  0  0
 13  9  1  0  0  0  0
 15  4  1  0  0  0  0
 16  8  1  0  0  0  0
 17 25  1  0  0  0  0
 17 28  1  1  0  0  0
 18  1  2  0  0  0  0
 19  5  1  0  0  0  0
 20 13  1  0  0  0  0
 20 18  1  0  0  0  0
 21 26  2  0  0  0  0
 22 10  1  0  0  0  0
 23 21  1  0  0  0  0
 24 22  1  0  0  0  0
 25 14  1  1  0  0  0
 27  2  1  0  0  0  0
 29 28  1  0  0  0  0
 31 32  1  0  0  0  0
 31 33  1  0  0  0  0
 32 29  1  6  0  0  0
 32 34  1  0  0  0  0
 33 30  1  0  0  0  0
 34 30  1  0  0  0  0
M  END
>  <MODEL>
6

>  <REMARK>
 VINA RESULT:      -8.7      3.470      9.225
  Name = 
  3 active torsions:
  status: ('A' for Active; 'I' for Inactive)
    1  A    between atoms: C_17  and  O_28
    2  A    between atoms: O_28  and  O_29
    3  A    between atoms: O_29  and  C_32
                            x       y       z     vdW  Elec       q    Type
                         _______ _______ _______ _____ _____    ______ ____

>  <TORSDO>
F 3

$$$$
=
 OpenBabel11122412053D

 34 41  0  0  1  0  0  0  0  0999 V2000
  190.3370  177.4640  141.2000 C   0  0  0  0  0  0  0  0  0  0  0  0
  190.5600  176.9220  138.7340 C   0  0  0  0  0  3  0  0  0  0  0  0
  186.6430  178.0510  146.8160 C   0  0  0  0  0  0  0  0  0  0  0  0
  189.8530  177.5420  143.5660 C   0  0  0  0  0  0  0  0  0  0  0  0
  187.5750  177.9080  144.3390 C   0  0  0  0  0  0  0  0  0  0  0  0
  184.8320  178.3230  145.2990 S   0  0  0  0  0  0  0  0  0  0  0  0
  185.1800  178.2780  146.9660 C   0  0  0  0  0  2  0  0  0  0  0  0
  189.0180  177.6850  147.2460 C   0  0  0  0  0  3  0  0  0  0  0  0
  188.6470  178.2110  139.4970 C   0  0  2  0  0  3  0  0  0  0  0  0
  185.8090  177.5900  138.0310 C   0  0  0  0  0  2  0  0  0  0  0  0
  187.1510  177.9640  143.0070 C   0  0  0  0  0  3  0  0  0  0  0  0
  189.5320  177.6040  146.0110 C   0  0  0  0  0  3  0  0  0  0  0  0
  187.5440  177.8150  140.5090 C   0  0  1  0  0  3  0  0  0  0  0  0
  189.6630  177.1520  137.5300 C   0  0  0  0  0  3  0  0  0  0  0  0
  188.9460  177.6950  144.6410 C   0  0  0  0  0  0  0  0  0  0  0  0
  187.6310  177.9010  147.6690 C   0  0  0  0  0  3  0  0  0  0  0  0
  187.1580  176.8650  137.8840 C   0  0  2  0  0  3  0  0  0  0  0  0
  189.4040  177.6310  142.2320 C   0  0  0  0  0  0  0  0  0  0  0  0
  186.5840  178.0570  145.3490 N   0  0  0  0  0  0  0  0  0  0  0  0
  188.0470  177.8510  141.9420 C   0  0  0  0  0  0  0  0  0  0  0  0
  192.0550  177.1160  142.7830 C   0  0  0  0  0  3  0  0  0  0  0  0
  185.8580  178.8710  138.8680 C   0  0  0  0  0  2  0  0  0  0  0  0
  191.1730  177.2890  143.8010 N   0  0  0  0  0  0  0  0  0  0  0  0
  186.2550  178.6340  140.3260 C   0  0  0  0  0  2  0  0  0  0  0  0
  188.3730  177.8050  138.0360 C   0  0  1  0  0  3  0  0  0  0  0  0
  191.6370  177.2010  141.4940 N   0  0  0  0  0  0  0  0  0  0  0  0
  189.9060  177.5820  139.8420 N   0  0  0  0  0  0  0  0  0  0  0  0
  187.1850  176.1990  136.6520 O   0  0  0  0  0  0  0  0  0  0  0  0
  187.2120  174.9170  136.9590 O   0  0  0  0  0  0  0  0  0  0  0  0
  185.3760  172.6760  135.3530 C   0  0  0  0  0  2  0  0  0  0  0  0
  185.7110  173.1820  137.5860 C   0  0  0  0  0  2  0  0  0  0  0  0
  185.8880  174.4870  136.8400 C   0  0  2  0  0  3  0  0  0  0  0  0
  185.0390  172.2440  136.6990 N   0  0  0  0  0  2  0  0  0  0  0  0
  185.5820  174.1730  135.3960 C   0  0  0  0  0  2  0  0  0  0  0  0
  1 26  2  0  0  0  0
  1 18  1  0  0  0  0
  2 27  1  0  0  0  0
  3  7  1  0  0  0  0
  3 16  2  0  0  0  0
  4 23  1  0  0  0  0
  4 15  1  0  0  0  0
  5 15  2  0  0  0  0
  5 19  1  0  0  0  0
  6 19  1  0  0  0  0
  6  7  1  0  0  0  0
  8 16  1  0  0  0  0
  9 27  1  1  0  0  0
  9 13  1  0  0  0  0
 10 22  1  0  0  0  0
 11  5  1  0  0  0  0
 12  8  2  0  0  0  0
 13 24  1  1  0  0  0
 13 20  1  0  0  0  0
 14  2  2  0  0  0  0
 15 12  1  0  0  0  0
 17 28  1  6  0  0  0
 17 10  1  0  0  0  0
 17 25  1  0  0  0  0
 18  4  2  0  0  0  0
 19  3  1  0  0  0  0
 20 18  1  0  0  0  0
 20 11  2  0  0  0  0
 21 23  2  0  0  0  0
 22 24  1  0  0  0  0
 25 14  1  1  0  0  0
 25  9  1  0  0  0  0
 26 21  1  0  0  0  0
 27  1  1  0  0  0  0
 28 29  1  0  0  0  0
 30 34  1  0  0  0  0
 30 33  1  0  0  0  0
 32 29  1  6  0  0  0
 32 31  1  0  0  0  0
 33 31  1  0  0  0  0
 34 32  1  0  0  0  0
M  END
>  <MODEL>
7

>  <REMARK>
 VINA RESULT:      -8.4      3.984      5.650
  Name = 
  3 active torsions:
  status: ('A' for Active; 'I' for Inactive)
    1  A    between atoms: C_17  and  O_28
    2  A    between atoms: O_28  and  O_29
    3  A    between atoms: O_29  and  C_32
                            x       y       z     vdW  Elec       q    Type
                         _______ _______ _______ _____ _____    ______ ____

>  <TORSDO>
F 3

$$$$
=
 OpenBabel11122412053D

 34 41  0  0  1  0  0  0  0  0999 V2000
  187.7720  178.0370  139.7520 C   0  0  0  0  0  0  0  0  0  0  0  0
  186.6120  178.2290  141.9970 C   0  0  0  0  0  3  0  0  0  0  0  0
  192.7060  175.6240  135.8320 C   0  0  0  0  0  0  0  0  0  0  0  0
  188.8880  177.3500  137.7220 C   0  0  0  0  0  0  0  0  0  0  0  0
  191.1590  176.4780  137.8080 C   0  0  0  0  0  0  0  0  0  0  0  0
  193.8890  175.4020  137.8840 S   0  0  0  0  0  0  0  0  0  0  0  0
  194.0610  175.1370  136.2100 C   0  0  0  0  0  2  0  0  0  0  0  0
  190.7020  176.2620  134.5940 C   0  0  0  0  0  3  0  0  0  0  0  0
  189.0380  178.3240  141.9040 C   0  0  2  0  0  3  0  0  0  0  0  0
  190.6350  176.8610  144.3330 C   0  0  0  0  0  2  0  0  0  0  0  0
  191.1510  176.6440  139.1960 C   0  0  0  0  0  3  0  0  0  0  0  0
  189.8850  176.7020  135.5610 C   0  0  0  0  0  3  0  0  0  0  0  0
  190.0360  177.2600  141.3860 C   0  0  1  0  0  3  0  0  0  0  0  0
  187.1150  178.3060  143.4290 C   0  0  0  0  0  3  0  0  0  0  0  0
  190.0160  176.8340  137.0420 C   0  0  0  0  0  0  0  0  0  0  0  0
  192.0670  175.7370  134.6900 C   0  0  0  0  0  3  0  0  0  0  0  0
  189.1280  176.8650  144.0240 C   0  0  2  0  0  3  0  0  0  0  0  0
  188.9160  177.5320  139.1200 C   0  0  0  0  0  0  0  0  0  0  0  0
  192.3360  175.9370  137.2180 N   0  0  0  0  0  0  0  0  0  0  0  0
  190.0540  177.1870  139.8690 C   0  0  0  0  0  0  0  0  0  0  0  0
  186.6470  178.1360  137.6780 C   0  0  0  0  0  3  0  0  0  0  0  0
  191.4700  177.8010  143.4600 C   0  0  0  0  0  2  0  0  0  0  0  0
  187.7490  177.6620  137.0410 N   0  0  0  0  0  0  0  0  0  0  0  0
  191.4460  177.4400  141.9750 C   0  0  0  0  0  2  0  0  0  0  0  0
  188.6410  178.1840  143.3870 C   0  0  1  0  0  3  0  0  0  0  0  0
  186.6620  178.3190  139.0240 N   0  0  0  0  0  0  0  0  0  0  0  0
  187.7930  178.2580  141.1640 N   0  0  0  0  0  0  0  0  0  0  0  0
  188.4210  176.5820  145.2000 O   0  0  0  0  0  0  0  0  0  0  0  0
  189.3120  176.6920  146.1670 O   0  0  0  0  0  0  0  0  0  0  0  0
  187.5660  177.7420  148.7780 C   0  0  0  0  0  2  0  0  0  0  0  0
  189.7730  177.9660  148.1210 C   0  0  0  0  0  2  0  0  0  0  0  0
  188.9730  177.8690  146.8400 C   0  0  2  0  0  3  0  0  0  0  0  0
  188.8520  178.2680  149.2060 N   0  0  0  0  0  2  0  0  0  0  0  0
  187.5270  177.8110  147.2700 C   0  0  0  0  0  2  0  0  0  0  0  0
  1 27  1  0  0  0  0
  2 14  2  0  0  0  0
  3  7  1  0  0  0  0
  3 19  1  0  0  0  0
  4 18  1  0  0  0  0
  5 11  2  0  0  0  0
  7  6  1  0  0  0  0
  8 16  1  0  0  0  0
  8 12  2  0  0  0  0
  9 27  1  6  0  0  0
  9 25  1  0  0  0  0
 11 20  1  0  0  0  0
 12 15  1  0  0  0  0
 13  9  1  0  0  0  0
 13 24  1  6  0  0  0
 15  4  2  0  0  0  0
 15  5  1  0  0  0  0
 16  3  2  0  0  0  0
 17 10  1  0  0  0  0
 17 28  1  1  0  0  0
 18  1  1  0  0  0  0
 18 20  2  0  0  0  0
 19  5  1  0  0  0  0
 19  6  1  0  0  0  0
 20 13  1  0  0  0  0
 21 26  1  0  0  0  0
 22 10  1  0  0  0  0
 23 21  2  0  0  0  0
 23  4  1  0  0  0  0
 24 22  1  0  0  0  0
 25 14  1  6  0  0  0
 25 17  1  0  0  0  0
 26  1  2  0  0  0  0
 27  2  1  0  0  0  0
 28 29  1  0  0  0  0
 30 33  1  0  0  0  0
 31 33  1  0  0  0  0
 32 29  1  1  0  0  0
 32 34  1  0  0  0  0
 32 31  1  0  0  0  0
 34 30  1  0  0  0  0
M  END
>  <MODEL>
8

>  <REMARK>
 VINA RESULT:      -8.3      4.430      8.113
  Name = 
  3 active torsions:
  status: ('A' for Active; 'I' for Inactive)
    1  A    between atoms: C_17  and  O_28
    2  A    between atoms: O_28  and  O_29
    3  A    between atoms: O_29  and  C_32
                            x       y       z     vdW  Elec       q    Type
                         _______ _______ _______ _____ _____    ______ ____

>  <TORSDO>
F 3

$$$$
=
 OpenBabel11122412053D

 34 41  0  0  1  0  0  0  0  0999 V2000
  188.5130  177.9690  138.8040 C   0  0  0  0  0  0  0  0  0  0  0  0
  186.8530  178.3420  140.6830 C   0  0  0  0  0  3  0  0  0  0  0  0
  194.0680  175.0600  136.3120 C   0  0  0  0  0  0  0  0  0  0  0  0
  190.0400  177.1150  137.1390 C   0  0  0  0  0  0  0  0  0  0  0  0
  192.1500  176.1060  137.8130 C   0  0  0  0  0  0  0  0  0  0  0  0
  194.6900  174.8620  138.6000 S   0  0  0  0  0  0  0  0  0  0  0  0
  195.2490  174.5060  137.0300 C   0  0  0  0  0  2  0  0  0  0  0  0
  192.4840  175.7650  134.5950 C   0  0  0  0  0  3  0  0  0  0  0  0
  189.2280  178.2770  141.1940 C   0  0  2  0  0  3  0  0  0  0  0  0
  190.0650  176.8330  143.9880 C   0  0  0  0  0  2  0  0  0  0  0  0
  191.8130  176.3370  139.1510 C   0  0  0  0  0  3  0  0  0  0  0  0
  191.4890  176.3020  135.3150 C   0  0  0  0  0  3  0  0  0  0  0  0
  190.2420  177.1280  140.9740 C   0  0  1  0  0  3  0  0  0  0  0  0
  186.9930  178.4550  142.1920 C   0  0  0  0  0  3  0  0  0  0  0  0
  191.2600  176.4970  136.7770 C   0  0  0  0  0  0  0  0  0  0  0  0
  193.7400  175.1590  135.0440 C   0  0  0  0  0  3  0  0  0  0  0  0
  188.6850  176.9190  143.3130 C   0  0  2  0  0  3  0  0  0  0  0  0
  189.7370  177.3620  138.4930 C   0  0  0  0  0  0  0  0  0  0  0  0
  193.3920  175.4630  137.5510 N   0  0  0  0  0  0  0  0  0  0  0  0
  190.6270  176.9810  139.5110 C   0  0  0  0  0  0  0  0  0  0  0  0
  187.9440  178.0400  136.5130 C   0  0  0  0  0  3  0  0  0  0  0  0
  191.1560  177.6750  143.3220 C   0  0  0  0  0  2  0  0  0  0  0  0
  189.1310  177.4670  136.1850 N   0  0  0  0  0  0  0  0  0  0  0  0
  191.4720  177.2450  141.8890 C   0  0  0  0  0  2  0  0  0  0  0  0
  188.4690  178.2340  142.5350 C   0  0  1  0  0  3  0  0  0  0  0  0
  187.6400  178.2860  137.8140 N   0  0  0  0  0  0  0  0  0  0  0  0
  188.2020  178.2550  140.1700 N   0  0  0  0  0  0  0  0  0  0  0  0
  187.6910  176.7370  144.2850 O   0  0  0  0  0  0  0  0  0  0  0  0
  188.0950  177.4480  145.3200 O   0  0  0  0  0  0  0  0  0  0  0  0
  186.2820  179.3560  147.3310 C   0  0  0  0  0  2  0  0  0  0  0  0
  185.7750  177.8800  145.6230 C   0  0  0  0  0  2  0  0  0  0  0  0
  187.0530  177.3600  146.2470 C   0  0  2  0  0  3  0  0  0  0  0  0
  185.1760  178.8300  146.5480 N   0  0  0  0  0  2  0  0  0  0  0  0
  187.3330  178.2740  147.4160 C   0  0  0  0  0  2  0  0  0  0  0  0
  1 27  1  0  0  0  0
  2 14  2  0  0  0  0
  3  7  1  0  0  0  0
  3 19  1  0  0  0  0
  4 18  1  0  0  0  0
  5 11  2  0  0  0  0
  7  6  1  0  0  0  0
  8 16  1  0  0  0  0
  8 12  2  0  0  0  0
  9 27  1  6  0  0  0
  9 25  1  0  0  0  0
 11 20  1  0  0  0  0
 12 15  1  0  0  0  0
 13  9  1  0  0  0  0
 13 24  1  1  0  0  0
 15  4  2  0  0  0  0
 15  5  1  0  0  0  0
 16  3  2  0  0  0  0
 17 10  1  0  0  0  0
 17 28  1  1  0  0  0
 18  1  1  0  0  0  0
 18 20  2  0  0  0  0
 19  5  1  0  0  0  0
 19  6  1  0  0  0  0
 20 13  1  0  0  0  0
 21 26  1  0  0  0  0
 22 10  1  0  0  0  0
 23 21  2  0  0  0  0
 23  4  1  0  0  0  0
 24 22  1  0  0  0  0
 25 14  1  6  0  0  0
 25 17  1  0  0  0  0
 26  1  2  0  0  0  0
 27  2  1  0  0  0  0
 28 29  1  0  0  0  0
 30 34  1  0  0  0  0
 31 32  1  0  0  0  0
 31 33  1  0  0  0  0
 32 29  1  6  0  0  0
 32 34  1  0  0  0  0
 33 30  1  0  0  0  0
M  END
>  <MODEL>
9

>  <REMARK>
 VINA RESULT:      -8.2      4.431      7.516
  Name = 
  3 active torsions:
  status: ('A' for Active; 'I' for Inactive)
    1  A    between atoms: C_17  and  O_28
    2  A    between atoms: O_28  and  O_29
    3  A    between atoms: O_29  and  C_32
                            x       y       z     vdW  Elec       q    Type
                         _______ _______ _______ _____ _____    ______ ____

>  <TORSDO>
F 3

$$$$
