=
 OpenBabel11122411513D

 28 32  0  0  1  0  0  0  0  0999 V2000
  183.1090  176.5480  137.6710 C   0  0  0  0  0  0  0  0  0  0  0  0
  180.8730  178.7050  135.5490 O   0  0  0  0  0  0  0  0  0  0  0  0
  184.8450  177.9060  142.1580 O   0  0  0  0  0  1  0  0  0  0  0  0
  181.5520  174.2150  137.5660 C   0  0  0  0  0  3  0  0  0  0  0  0
  184.0240  177.7300  137.7290 C   0  0  0  0  0  2  0  0  0  0  0  0
  178.9340  178.1800  136.9740 O   0  0  0  0  0  0  0  0  0  0  0  0
  180.1160  179.0900  136.7880 S   0  0  0  0  0  0  0  0  0  0  0  0
  180.9400  181.7290  137.5410 C   0  0  1  0  0  3  0  0  0  0  0  0
  181.1800  179.0250  138.2070 C   0  0  1  0  0  3  0  0  0  0  0  0
  186.2770  178.8250  140.1390 O   0  0  0  0  0  1  0  0  0  0  0  0
  181.5500  178.0440  140.3890 C   0  0  2  0  0  3  0  0  0  0  0  0
  180.9780  181.3790  138.9710 N   0  0  0  0  0  2  0  0  0  0  0  0
  179.4610  181.0830  136.6600 S   0  0  0  0  0  0  0  0  0  0  0  0
  185.0840  178.7630  139.4200 C   0  0  2  0  0  3  0  0  0  0  0  0
  181.8150  176.5330  138.2590 C   0  0  0  0  0  0  0  0  0  0  0  0
  183.7140  178.6020  141.7340 C   0  0  1  0  0  3  0  0  0  0  0  0
  181.0010  183.2340  137.3890 C   0  0  0  0  0  1  0  0  0  0  0  0
  183.8490  179.1120  140.2860 C   0  0  2  0  0  3  0  0  0  0  0  0
  181.0550  175.3580  138.1960 C   0  0  0  0  0  3  0  0  0  0  0  0
  183.5940  175.3930  137.0450 C   0  0  0  0  0  3  0  0  0  0  0  0
  182.8200  174.2340  136.9900 C   0  0  0  0  0  3  0  0  0  0  0  0
  184.9750  177.5360  138.7440 O   0  0  0  0  0  0  0  0  0  0  0  0
  181.0680  179.4930  140.5940 C   0  0  1  0  0  3  0  0  0  0  0  0
  183.0630  177.8400  140.6030 C   0  0  2  0  0  3  0  0  0  0  0  0
  180.6060  179.9830  139.2250 C   0  0  2  0  0  3  0  0  0  0  0  0
  181.1540  177.7110  138.9430 C   0  0  2  0  0  3  0  0  0  0  0  0
  179.9110  179.5150  141.5770 C   0  0  0  0  0  2  0  0  0  0  0  0
  179.9970  180.6450  142.3900 O   0  0  0  0  0  1  0  0  0  0  0  0
  1  5  1  0  0  0  0
  1 15  1  0  0  0  0
  2  7  2  0  0  0  0
  4 19  1  0  0  0  0
  5 22  1  0  0  0  0
  7  6  2  0  0  0  0
  8 17  1  1  0  0  0
  8 12  1  0  0  0  0
  9  7  1  6  0  0  0
  9 26  1  0  0  0  0
  9 25  1  0  0  0  0
 11 23  1  0  0  0  0
 11 24  1  0  0  0  0
 12 25  1  0  0  0  0
 13  7  1  0  0  0  0
 13  8  1  0  0  0  0
 14 10  1  0  0  0  0
 14 18  1  0  0  0  0
 15 26  1  0  0  0  0
 16  3  1  0  0  0  0
 18 24  1  0  0  0  0
 18 16  1  0  0  0  0
 19 15  2  0  0  0  0
 20  1  2  0  0  0  0
 21 20  1  0  0  0  0
 21  4  2  0  0  0  0
 22 14  1  0  0  0  0
 23 27  1  0  0  0  0
 24 16  1  0  0  0  0
 25 23  1  0  0  0  0
 26 11  1  0  0  0  0
 27 28  1  0  0  0  0
M  END
>  <MODEL>
1

>  <REMARK>
 VINA RESULT:      -5.6      0.000      0.000
  Name = 
  1 active torsions:
  status: ('A' for Active; 'I' for Inactive)
    1  A    between atoms: C_5  and  C_24
                            x       y       z     vdW  Elec       q    Type
                         _______ _______ _______ _____ _____    ______ ____

>  <TORSDO>
F 1

$$$$
=
 OpenBabel11122411513D

 28 32  0  0  1  0  0  0  0  0999 V2000
  181.1490  179.6240  139.8240 C   0  0  0  0  0  0  0  0  0  0  0  0
  180.0660  177.0180  137.3350 O   0  0  0  0  0  0  0  0  0  0  0  0
  185.6510  179.7000  141.9960 O   0  0  0  0  0  1  0  0  0  0  0  0
  180.4320  181.8770  138.3120 C   0  0  0  0  0  3  0  0  0  0  0  0
  181.5040  178.4770  140.7170 C   0  0  0  0  0  2  0  0  0  0  0  0
  181.4150  178.0790  135.5680 O   0  0  0  0  0  0  0  0  0  0  0  0
  181.4280  177.0960  136.7050 S   0  0  0  0  0  0  0  0  0  0  0  0
  182.9220  174.8020  137.5510 C   0  0  1  0  0  3  0  0  0  0  0  0
  182.6420  177.5600  137.9140 C   0  0  1  0  0  3  0  0  0  0  0  0
  183.9190  178.1020  143.1890 O   0  0  0  0  0  1  0  0  0  0  0  0
  184.3380  179.1720  138.5310 C   0  0  2  0  0  3  0  0  0  0  0  0
  184.1490  175.5940  137.7460 N   0  0  0  0  0  2  0  0  0  0  0  0
  182.0200  175.2060  136.0010 S   0  0  0  0  0  0  0  0  0  0  0  0
  183.3340  177.9920  141.9280 C   0  0  2  0  0  3  0  0  0  0  0  0
  181.8170  179.8980  138.6000 C   0  0  0  0  0  0  0  0  0  0  0  0
  185.5840  178.9650  140.8130 C   0  0  1  0  0  3  0  0  0  0  0  0
  183.2660  173.3280  137.5660 C   0  0  0  0  0  1  0  0  0  0  0  0
  184.3770  178.0080  140.7850 C   0  0  2  0  0  3  0  0  0  0  0  0
  181.4440  181.0280  137.8610 C   0  0  0  0  0  3  0  0  0  0  0  0
  180.1370  180.4870  140.2640 C   0  0  0  0  0  3  0  0  0  0  0  0
  179.7780  181.6060  139.5120 C   0  0  0  0  0  3  0  0  0  0  0  0
  182.3070  178.9380  141.7730 O   0  0  0  0  0  0  0  0  0  0  0  0
  185.0500  177.8950  138.0440 C   0  0  1  0  0  3  0  0  0  0  0  0
  184.3330  179.3540  140.0620 C   0  0  2  0  0  3  0  0  0  0  0  0
  183.9660  177.0150  137.4310 C   0  0  2  0  0  3  0  0  0  0  0  0
  182.9070  179.0410  137.9920 C   0  0  2  0  0  3  0  0  0  0  0  0
  186.0890  178.2540  136.9970 C   0  0  0  0  0  2  0  0  0  0  0  0
  187.1210  178.9890  137.5810 O   0  0  0  0  0  1  0  0  0  0  0  0
  1 20  1  0  0  0  0
  1  5  1  0  0  0  0
  4 21  1  0  0  0  0
  5 22  1  0  0  0  0
  6  7  2  0  0  0  0
  7  2  2  0  0  0  0
  8 17  1  6  0  0  0
  8 12  1  0  0  0  0
  9  7  1  6  0  0  0
  9 26  1  0  0  0  0
 11 24  1  0  0  0  0
 13  7  1  0  0  0  0
 13  8  1  0  0  0  0
 14 10  1  0  0  0  0
 15  1  2  0  0  0  0
 16  3  1  0  0  0  0
 18 16  1  0  0  0  0
 18 14  1  0  0  0  0
 19  4  2  0  0  0  0
 19 15  1  0  0  0  0
 21 20  2  0  0  0  0
 22 14  1  0  0  0  0
 23 11  1  0  0  0  0
 24 18  1  0  0  0  0
 24 16  1  0  0  0  0
 25 12  1  0  0  0  0
 25  9  1  0  0  0  0
 25 23  1  0  0  0  0
 26 11  1  0  0  0  0
 26 15  1  0  0  0  0
 27 28  1  0  0  0  0
 27 23  1  0  0  0  0
M  END
>  <MODEL>
2

>  <REMARK>
 VINA RESULT:      -5.5      2.119      5.294
  Name = 
  1 active torsions:
  status: ('A' for Active; 'I' for Inactive)
    1  A    between atoms: C_5  and  C_24
                            x       y       z     vdW  Elec       q    Type
                         _______ _______ _______ _____ _____    ______ ____

>  <TORSDO>
F 1

$$$$
=
 OpenBabel11122411513D

 28 32  0  0  1  0  0  0  0  0999 V2000
  184.5220  176.1010  137.3410 C   0  0  0  0  0  0  0  0  0  0  0  0
  181.9490  176.5220  134.6280 O   0  0  0  0  0  0  0  0  0  0  0  0
  184.0970  178.0790  141.9130 O   0  0  0  0  0  1  0  0  0  0  0  0
  184.7490  173.3080  137.1830 C   0  0  0  0  0  3  0  0  0  0  0  0
  184.5040  177.5930  137.4490 C   0  0  0  0  0  2  0  0  0  0  0  0
  180.4710  174.8740  135.7100 O   0  0  0  0  0  0  0  0  0  0  0  0
  180.8730  176.3220  135.6580 S   0  0  0  0  0  0  0  0  0  0  0  0
  179.7610  178.8880  136.2800 C   0  0  1  0  0  3  0  0  0  0  0  0
  181.4330  176.8690  137.2510 C   0  0  1  0  0  3  0  0  0  0  0  0
  185.0730  179.7500  140.1160 O   0  0  0  0  0  1  0  0  0  0  0  0
  181.8490  176.2410  139.5510 C   0  0  2  0  0  3  0  0  0  0  0  0
  179.7000  178.5840  137.7200 N   0  0  0  0  0  2  0  0  0  0  0  0
  179.1960  177.5060  135.2070 S   0  0  0  0  0  0  0  0  0  0  0  0
  184.3420  178.9980  139.1950 C   0  0  2  0  0  3  0  0  0  0  0  0
  183.4110  175.2800  137.6740 C   0  0  0  0  0  0  0  0  0  0  0  0
  182.8960  177.9550  141.2150 C   0  0  1  0  0  3  0  0  0  0  0  0
  178.9340  180.1230  135.9910 C   0  0  0  0  0  1  0  0  0  0  0  0
  182.9990  178.4920  139.7750 C   0  0  2  0  0  3  0  0  0  0  0  0
  183.5460  173.8880  137.5890 C   0  0  0  0  0  3  0  0  0  0  0  0
  185.7230  175.5040  136.9380 C   0  0  0  0  0  3  0  0  0  0  0  0
  185.8360  174.1150  136.8570 C   0  0  0  0  0  3  0  0  0  0  0  0
  185.1390  177.9840  138.6400 O   0  0  0  0  0  0  0  0  0  0  0  0
  180.5620  177.0880  139.5140 C   0  0  1  0  0  3  0  0  0  0  0  0
  183.0920  176.9940  140.0660 C   0  0  2  0  0  3  0  0  0  0  0  0
  180.2000  177.2420  138.0400 C   0  0  2  0  0  3  0  0  0  0  0  0
  182.0490  175.7870  138.0980 C   0  0  2  0  0  3  0  0  0  0  0  0
  179.4510  176.3670  140.2550 C   0  0  0  0  0  2  0  0  0  0  0  0
  179.2990  176.9070  141.5310 O   0  0  0  0  0  1  0  0  0  0  0  0
  1  5  1  0  0  0  0
  1 15  1  0  0  0  0
  2  7  2  0  0  0  0
  4 19  1  0  0  0  0
  5 22  1  0  0  0  0
  7  6  2  0  0  0  0
  8 17  1  1  0  0  0
  8 12  1  0  0  0  0
  9  7  1  6  0  0  0
  9 25  1  0  0  0  0
  9 26  1  0  0  0  0
 11 24  1  0  0  0  0
 12 25  1  0  0  0  0
 13  7  1  0  0  0  0
 13  8  1  0  0  0  0
 14 18  1  0  0  0  0
 14 10  1  0  0  0  0
 15 26  1  0  0  0  0
 16  3  1  0  0  0  0
 18 24  1  0  0  0  0
 18 16  1  0  0  0  0
 19 15  2  0  0  0  0
 20  1  2  0  0  0  0
 21 20  1  0  0  0  0
 21  4  2  0  0  0  0
 22 14  1  0  0  0  0
 23 11  1  0  0  0  0
 23 27  1  0  0  0  0
 24 16  1  0  0  0  0
 25 23  1  0  0  0  0
 26 11  1  0  0  0  0
 27 28  1  0  0  0  0
M  END
>  <MODEL>
3

>  <REMARK>
 VINA RESULT:      -5.0      2.243      2.609
  Name = 
  1 active torsions:
  status: ('A' for Active; 'I' for Inactive)
    1  A    between atoms: C_5  and  C_24
                            x       y       z     vdW  Elec       q    Type
                         _______ _______ _______ _____ _____    ______ ____

>  <TORSDO>
F 1

$$$$
=
 OpenBabel11122411513D

 28 32  0  0  1  0  0  0  0  0999 V2000
  180.5430  180.2550  139.5250 C   0  0  0  0  0  0  0  0  0  0  0  0
  179.0920  177.7500  137.1220 O   0  0  0  0  0  0  0  0  0  0  0  0
  184.8060  179.5530  142.0420 O   0  0  0  0  0  1  0  0  0  0  0  0
  180.4270  182.4850  137.8250 C   0  0  0  0  0  3  0  0  0  0  0  0
  180.5860  179.1310  140.5120 C   0  0  0  0  0  2  0  0  0  0  0  0
  180.7500  178.3660  135.4060 O   0  0  0  0  0  0  0  0  0  0  0  0
  180.4770  177.4920  136.5990 S   0  0  0  0  0  0  0  0  0  0  0  0
  181.3870  175.0090  137.7010 C   0  0  1  0  0  3  0  0  0  0  0  0
  181.6810  177.7830  137.8710 C   0  0  1  0  0  3  0  0  0  0  0  0
  182.6980  178.4500  143.1880 O   0  0  0  0  0  1  0  0  0  0  0  0
  183.6400  179.0480  138.5210 C   0  0  2  0  0  3  0  0  0  0  0  0
  182.7390  175.5380  137.9450 N   0  0  0  0  0  2  0  0  0  0  0  0
  180.6950  175.4720  136.0620 S   0  0  0  0  0  0  0  0  0  0  0  0
  182.1860  178.3680  141.8930 C   0  0  2  0  0  3  0  0  0  0  0  0
  181.3330  180.2880  138.3440 C   0  0  0  0  0  0  0  0  0  0  0  0
  184.6610  178.7600  140.9040 C   0  0  1  0  0  3  0  0  0  0  0  0
  181.4050  173.5010  137.8330 C   0  0  0  0  0  1  0  0  0  0  0  0
  183.2810  178.0780  140.8390 C   0  0  2  0  0  3  0  0  0  0  0  0
  181.2600  181.4110  137.5100 C   0  0  0  0  0  3  0  0  0  0  0  0
  179.7140  181.3420  139.8290 C   0  0  0  0  0  3  0  0  0  0  0  0
  179.6530  182.4500  138.9830 C   0  0  0  0  0  3  0  0  0  0  0  0
  181.3980  179.4940  141.5990 O   0  0  0  0  0  0  0  0  0  0  0  0
  184.0910  177.6170  138.1720 C   0  0  1  0  0  3  0  0  0  0  0  0
  183.5730  179.3440  140.0330 C   0  0  2  0  0  3  0  0  0  0  0  0
  182.8860  176.9380  137.5290 C   0  0  2  0  0  3  0  0  0  0  0  0
  182.2510  179.1780  137.8790 C   0  0  2  0  0  3  0  0  0  0  0  0
  185.2490  177.6680  137.1920 C   0  0  0  0  0  2  0  0  0  0  0  0
  186.2180  178.5650  137.6440 O   0  0  0  0  0  1  0  0  0  0  0  0
  1 20  1  0  0  0  0
  1  5  1  0  0  0  0
  4 21  1  0  0  0  0
  5 22  1  0  0  0  0
  6  7  2  0  0  0  0
  7  2  2  0  0  0  0
  8 17  1  6  0  0  0
  8 12  1  0  0  0  0
  9  7  1  6  0  0  0
  9 26  1  0  0  0  0
 11 24  1  0  0  0  0
 13  7  1  0  0  0  0
 13  8  1  0  0  0  0
 14 10  1  0  0  0  0
 15  1  2  0  0  0  0
 16  3  1  0  0  0  0
 18 16  1  0  0  0  0
 18 14  1  0  0  0  0
 19  4  2  0  0  0  0
 19 15  1  0  0  0  0
 21 20  2  0  0  0  0
 22 14  1  0  0  0  0
 23 11  1  0  0  0  0
 24 18  1  0  0  0  0
 24 16  1  0  0  0  0
 25  9  1  0  0  0  0
 25 12  1  0  0  0  0
 25 23  1  0  0  0  0
 26 15  1  0  0  0  0
 26 11  1  0  0  0  0
 27 28  1  0  0  0  0
 27 23  1  0  0  0  0
M  END
>  <MODEL>
4

>  <REMARK>
 VINA RESULT:      -4.9      1.837      5.250
  Name = 
  1 active torsions:
  status: ('A' for Active; 'I' for Inactive)
    1  A    between atoms: C_5  and  C_24
                            x       y       z     vdW  Elec       q    Type
                         _______ _______ _______ _____ _____    ______ ____

>  <TORSDO>
F 1

$$$$
=
 OpenBabel11122411513D

 28 32  0  0  1  0  0  0  0  0999 V2000
  179.7470  180.7080  139.1630 C   0  0  0  0  0  0  0  0  0  0  0  0
  179.0040  178.7180  136.0570 O   0  0  0  0  0  0  0  0  0  0  0  0
  182.8570  179.1830  142.7680 O   0  0  0  0  0  1  0  0  0  0  0  0
  180.3710  183.1300  137.8900 C   0  0  0  0  0  3  0  0  0  0  0  0
  179.3740  179.4730  139.9210 C   0  0  0  0  0  2  0  0  0  0  0  0
  181.1800  179.3370  135.0840 O   0  0  0  0  0  0  0  0  0  0  0  0
  180.4610  178.3600  135.9720 S   0  0  0  0  0  0  0  0  0  0  0  0
  180.7630  175.6660  136.9000 C   0  0  1  0  0  3  0  0  0  0  0  0
  181.1870  178.3420  137.5910 C   0  0  1  0  0  3  0  0  0  0  0  0
  180.4120  178.2100  142.9890 O   0  0  0  0  0  1  0  0  0  0  0  0
  182.9030  179.2670  139.0260 C   0  0  2  0  0  3  0  0  0  0  0  0
  181.9910  175.9930  137.6450 N   0  0  0  0  0  2  0  0  0  0  0  0
  180.6960  176.4120  135.2210 S   0  0  0  0  0  0  0  0  0  0  0  0
  180.3590  178.3540  141.6030 C   0  0  2  0  0  3  0  0  0  0  0  0
  180.8870  180.7910  138.3180 C   0  0  0  0  0  0  0  0  0  0  0  0
  183.0430  178.5610  141.5340 C   0  0  1  0  0  3  0  0  0  0  0  0
  180.6240  174.1630  136.7910 C   0  0  0  0  0  1  0  0  0  0  0  0
  181.7190  178.0660  140.9230 C   0  0  2  0  0  3  0  0  0  0  0  0
  181.1810  182.0100  137.6930 C   0  0  0  0  0  3  0  0  0  0  0  0
  178.9470  181.8410  139.3530 C   0  0  0  0  0  3  0  0  0  0  0  0
  179.2540  183.0450  138.7180 C   0  0  0  0  0  3  0  0  0  0  0  0
  179.8000  179.5950  141.2540 O   0  0  0  0  0  0  0  0  0  0  0  0
  183.3380  177.8460  138.6190 C   0  0  1  0  0  3  0  0  0  0  0  0
  182.3560  179.3780  140.4640 C   0  0  2  0  0  3  0  0  0  0  0  0
  182.3710  177.4050  137.5250 C   0  0  2  0  0  3  0  0  0  0  0  0
  181.8230  179.6440  138.0020 C   0  0  2  0  0  3  0  0  0  0  0  0
  184.7580  177.8780  138.0820 C   0  0  0  0  0  2  0  0  0  0  0  0
  185.4450  178.9690  138.6150 O   0  0  0  0  0  1  0  0  0  0  0  0
  1 20  1  0  0  0  0
  1  5  1  0  0  0  0
  4 21  1  0  0  0  0
  5 22  1  0  0  0  0
  6  7  2  0  0  0  0
  7  2  2  0  0  0  0
  8 17  1  6  0  0  0
  8 12  1  0  0  0  0
  9  7  1  6  0  0  0
  9 26  1  0  0  0  0
 11 24  1  0  0  0  0
 13  7  1  0  0  0  0
 13  8  1  0  0  0  0
 14 10  1  0  0  0  0
 15  1  2  0  0  0  0
 16  3  1  0  0  0  0
 18 16  1  0  0  0  0
 18 14  1  0  0  0  0
 19  4  2  0  0  0  0
 19 15  1  0  0  0  0
 21 20  2  0  0  0  0
 22 14  1  0  0  0  0
 23 11  1  0  0  0  0
 24 18  1  0  0  0  0
 24 16  1  0  0  0  0
 25  9  1  0  0  0  0
 25 12  1  0  0  0  0
 25 23  1  0  0  0  0
 26 15  1  0  0  0  0
 26 11  1  0  0  0  0
 27 28  1  0  0  0  0
 27 23  1  0  0  0  0
M  END
>  <MODEL>
5

>  <REMARK>
 VINA RESULT:      -4.9      1.830      5.353
  Name = 
  1 active torsions:
  status: ('A' for Active; 'I' for Inactive)
    1  A    between atoms: C_5  and  C_24
                            x       y       z     vdW  Elec       q    Type
                         _______ _______ _______ _____ _____    ______ ____

>  <TORSDO>
F 1

$$$$
=
 OpenBabel11122411513D

 28 32  0  0  1  0  0  0  0  0999 V2000
  181.0800  175.8890  137.1500 C   0  0  0  0  0  0  0  0  0  0  0  0
  178.9370  178.8000  138.1940 O   0  0  0  0  0  0  0  0  0  0  0  0
  186.0560  176.1040  136.7300 O   0  0  0  0  0  1  0  0  0  0  0  0
  180.0400  174.0170  138.9630 C   0  0  0  0  0  3  0  0  0  0  0  0
  181.6460  176.8080  136.1140 C   0  0  0  0  0  2  0  0  0  0  0  0
  179.6130  178.5150  140.5450 O   0  0  0  0  0  0  0  0  0  0  0  0
  179.9670  179.1510  139.2300 S   0  0  0  0  0  0  0  0  0  0  0  0
  181.4750  181.3830  138.2540 C   0  0  1  0  0  3  0  0  0  0  0  0
  181.5780  178.6250  138.7000 C   0  0  1  0  0  3  0  0  0  0  0  0
  184.7690  176.9750  134.5950 O   0  0  0  0  0  1  0  0  0  0  0  0
  183.5090  177.2600  139.2160 C   0  0  2  0  0  3  0  0  0  0  0  0
  182.7470  180.8160  138.7340 N   0  0  0  0  0  2  0  0  0  0  0  0
  180.0970  181.2350  139.4620 S   0  0  0  0  0  0  0  0  0  0  0  0
  183.7480  177.2980  135.4900 C   0  0  2  0  0  3  0  0  0  0  0  0
  181.2640  176.0770  138.5460 C   0  0  0  0  0  0  0  0  0  0  0  0
  185.4940  177.0960  137.5320 C   0  0  1  0  0  3  0  0  0  0  0  0
  181.6770  182.8400  137.8940 C   0  0  0  0  0  1  0  0  0  0  0  0
  184.2890  177.7790  136.8580 C   0  0  2  0  0  3  0  0  0  0  0  0
  180.7370  175.1300  139.4340 C   0  0  0  0  0  3  0  0  0  0  0  0
  180.3800  174.7650  136.6930 C   0  0  0  0  0  3  0  0  0  0  0  0
  179.8590  173.8350  137.5940 C   0  0  0  0  0  3  0  0  0  0  0  0
  182.8200  176.2480  135.5830 O   0  0  0  0  0  0  0  0  0  0  0  0
  183.8800  178.7310  139.4860 C   0  0  1  0  0  3  0  0  0  0  0  0
  184.0890  176.6860  137.9070 C   0  0  2  0  0  3  0  0  0  0  0  0
  182.5770  179.5190  139.3980 C   0  0  2  0  0  3  0  0  0  0  0  0
  181.9740  177.2540  139.1810 C   0  0  2  0  0  3  0  0  0  0  0  0
  184.4810  178.8630  140.8740 C   0  0  0  0  0  2  0  0  0  0  0  0
  185.8240  179.2270  140.7810 O   0  0  0  0  0  1  0  0  0  0  0  0
  1 15  1  0  0  0  0
  2  7  2  0  0  0  0
  3 16  1  0  0  0  0
  4 19  1  0  0  0  0
  5  1  1  0  0  0  0
  7 13  1  0  0  0  0
  7  6  2  0  0  0  0
  8 17  1  1  0  0  0
  8 12  1  0  0  0  0
  8 13  1  0  0  0  0
  9 26  1  0  0  0  0
  9  7  1  1  0  0  0
  9 25  1  0  0  0  0
 10 14  1  0  0  0  0
 11 23  1  0  0  0  0
 12 25  1  0  0  0  0
 14 22  1  0  0  0  0
 14 18  1  0  0  0  0
 15 26  1  0  0  0  0
 15 19  2  0  0  0  0
 16 24  1  0  0  0  0
 18 16  1  0  0  0  0
 18 24  1  0  0  0  0
 20  1  2  0  0  0  0
 20 21  1  0  0  0  0
 21  4  2  0  0  0  0
 22  5  1  0  0  0  0
 23 27  1  0  0  0  0
 24 11  1  0  0  0  0
 25 23  1  0  0  0  0
 26 11  1  0  0  0  0
 28 27  1  0  0  0  0
M  END
>  <MODEL>
6

>  <REMARK>
 VINA RESULT:      -4.7      1.890      3.373
  Name = 
  1 active torsions:
  status: ('A' for Active; 'I' for Inactive)
    1  A    between atoms: C_5  and  C_24
                            x       y       z     vdW  Elec       q    Type
                         _______ _______ _______ _____ _____    ______ ____

>  <TORSDO>
F 1

$$$$
=
 OpenBabel11122411513D

 28 32  0  0  1  0  0  0  0  0999 V2000
  183.7810  176.4290  138.1760 C   0  0  0  0  0  0  0  0  0  0  0  0
  184.5230  177.4060  141.7330 O   0  0  0  0  0  0  0  0  0  0  0  0
  179.4500  177.3900  135.8700 O   0  0  0  0  0  1  0  0  0  0  0  0
  186.0990  177.5090  137.0210 C   0  0  0  0  0  3  0  0  0  0  0  0
  182.5490  175.7770  138.7190 C   0  0  0  0  0  2  0  0  0  0  0  0
  184.8650  179.7530  141.0660 O   0  0  0  0  0  0  0  0  0  0  0  0
  183.8490  178.7250  141.4810 S   0  0  0  0  0  0  0  0  0  0  0  0
  181.2500  178.6290  142.6830 C   0  0  1  0  0  3  0  0  0  0  0  0
  182.5970  178.5500  140.2350 C   0  0  1  0  0  3  0  0  0  0  0  0
  179.4090  175.1990  137.3430 O   0  0  0  0  0  1  0  0  0  0  0  0
  181.8140  179.2880  138.0670 C   0  0  2  0  0  3  0  0  0  0  0  0
  180.6240  179.3110  141.5370 N   0  0  0  0  0  2  0  0  0  0  0  0
  182.8450  179.3780  143.2080 S   0  0  0  0  0  0  0  0  0  0  0  0
  180.3880  175.8370  138.1050 C   0  0  2  0  0  3  0  0  0  0  0  0
  183.9950  177.8340  138.1980 C   0  0  0  0  0  0  0  0  0  0  0  0
  179.7110  178.1900  136.9830 C   0  0  1  0  0  3  0  0  0  0  0  0
  180.2870  178.6210  143.8510 C   0  0  0  0  0  1  0  0  0  0  0  0
  180.1640  177.3650  138.2020 C   0  0  2  0  0  3  0  0  0  0  0  0
  185.1590  178.3520  137.6160 C   0  0  0  0  0  3  0  0  0  0  0  0
  184.7330  175.5970  137.5730 C   0  0  0  0  0  3  0  0  0  0  0  0
  185.8870  176.1320  137.0020 C   0  0  0  0  0  3  0  0  0  0  0  0
  181.6720  175.4780  137.6630 O   0  0  0  0  0  0  0  0  0  0  0  0
  180.9100  179.9220  139.1400 C   0  0  1  0  0  3  0  0  0  0  0  0
  181.1790  178.0940  137.3230 C   0  0  2  0  0  3  0  0  0  0  0  0
  181.5850  179.6450  140.4800 C   0  0  2  0  0  3  0  0  0  0  0  0
  183.0680  178.8470  138.8350 C   0  0  2  0  0  3  0  0  0  0  0  0
  180.8060  181.4190  138.9050 C   0  0  0  0  0  2  0  0  0  0  0  0
  181.1800  181.7230  137.5960 O   0  0  0  0  0  1  0  0  0  0  0  0
  1 15  1  0  0  0  0
  1  5  1  0  0  0  0
  3 16  1  0  0  0  0
  4 19  1  0  0  0  0
  6  7  2  0  0  0  0
  7  2  2  0  0  0  0
  7 13  1  0  0  0  0
  8 13  1  0  0  0  0
  8 17  1  1  0  0  0
  9 25  1  0  0  0  0
  9  7  1  1  0  0  0
 10 14  1  0  0  0  0
 11 26  1  0  0  0  0
 11 23  1  0  0  0  0
 12  8  1  0  0  0  0
 14 18  1  0  0  0  0
 15 26  1  0  0  0  0
 16 24  1  0  0  0  0
 16 18  1  0  0  0  0
 19 15  2  0  0  0  0
 20  1  2  0  0  0  0
 21  4  2  0  0  0  0
 21 20  1  0  0  0  0
 22 14  1  0  0  0  0
 22  5  1  0  0  0  0
 23 25  1  0  0  0  0
 24 11  1  0  0  0  0
 24 18  1  0  0  0  0
 25 12  1  0  0  0  0
 26  9  1  0  0  0  0
 27 23  1  0  0  0  0
 28 27  1  0  0  0  0
M  END
>  <MODEL>
7

>  <REMARK>
 VINA RESULT:      -4.4      2.543      5.066
  Name = 
  1 active torsions:
  status: ('A' for Active; 'I' for Inactive)
    1  A    between atoms: C_5  and  C_24
                            x       y       z     vdW  Elec       q    Type
                         _______ _______ _______ _____ _____    ______ ____

>  <TORSDO>
F 1

$$$$
=
 OpenBabel11122411513D

 28 32  0  0  1  0  0  0  0  0999 V2000
  180.9060  179.6790  138.9390 C   0  0  0  0  0  0  0  0  0  0  0  0
  184.6050  180.1280  139.4660 O   0  0  0  0  0  0  0  0  0  0  0  0
  178.9310  176.4590  135.6650 O   0  0  0  0  0  1  0  0  0  0  0  0
  180.2040  179.3390  141.6340 C   0  0  0  0  0  3  0  0  0  0  0  0
  181.1890  179.9090  137.4870 C   0  0  0  0  0  2  0  0  0  0  0  0
  184.7230  178.0300  140.7510 O   0  0  0  0  0  0  0  0  0  0  0  0
  184.7690  178.6370  139.3770 S   0  0  0  0  0  0  0  0  0  0  0  0
  185.8230  178.0200  136.7850 C   0  0  1  0  0  3  0  0  0  0  0  0
  183.5050  177.9370  138.3460 C   0  0  1  0  0  3  0  0  0  0  0  0
  179.6330  178.7690  134.5950 O   0  0  0  0  0  1  0  0  0  0  0  0
  181.6660  176.3690  138.2190 C   0  0  2  0  0  3  0  0  0  0  0  0
  184.9380  176.8520  136.6320 N   0  0  0  0  0  2  0  0  0  0  0  0
  186.5920  178.1530  138.4490 S   0  0  0  0  0  0  0  0  0  0  0  0
  180.5790  178.8190  135.6190 C   0  0  2  0  0  3  0  0  0  0  0  0
  181.3770  178.5460  139.6560 C   0  0  0  0  0  0  0  0  0  0  0  0
  180.2450  176.1800  136.0400 C   0  0  1  0  0  3  0  0  0  0  0  0
  186.9070  177.9710  135.7300 C   0  0  0  0  0  1  0  0  0  0  0  0
  181.1500  177.4240  135.9690 C   0  0  2  0  0  3  0  0  0  0  0  0
  181.0140  178.3960  141.0000 C   0  0  0  0  0  3  0  0  0  0  0  0
  180.0920  180.6160  139.5880 C   0  0  0  0  0  3  0  0  0  0  0  0
  179.7450  180.4500  140.9290 C   0  0  0  0  0  3  0  0  0  0  0  0
  180.0740  179.5210  136.7260 O   0  0  0  0  0  0  0  0  0  0  0  0
  182.8650  175.7570  137.4710 C   0  0  1  0  0  3  0  0  0  0  0  0
  180.5690  176.9460  137.3000 C   0  0  2  0  0  3  0  0  0  0  0  0
  184.0620  176.6460  137.7920 C   0  0  2  0  0  3  0  0  0  0  0  0
  182.2820  177.4720  139.0920 C   0  0  2  0  0  3  0  0  0  0  0  0
  183.1140  174.3440  137.9680 C   0  0  0  0  0  2  0  0  0  0  0  0
  182.4430  173.4280  137.1580 O   0  0  0  0  0  1  0  0  0  0  0  0
  1 20  2  0  0  0  0
  1 15  1  0  0  0  0
  3 16  1  0  0  0  0
  5  1  1  0  0  0  0
  7  2  2  0  0  0  0
  7  6  2  0  0  0  0
  8 17  1  6  0  0  0
  8 13  1  0  0  0  0
  9 26  1  0  0  0  0
  9  7  1  1  0  0  0
 10 14  1  0  0  0  0
 11 26  1  0  0  0  0
 12  8  1  0  0  0  0
 12 25  1  0  0  0  0
 13  7  1  0  0  0  0
 14 18  1  0  0  0  0
 14 22  1  0  0  0  0
 15 19  2  0  0  0  0
 16 24  1  0  0  0  0
 18 16  1  0  0  0  0
 18 24  1  0  0  0  0
 19  4  1  0  0  0  0
 20 21  1  0  0  0  0
 21  4  2  0  0  0  0
 22  5  1  0  0  0  0
 23 25  1  0  0  0  0
 23 27  1  0  0  0  0
 23 11  1  0  0  0  0
 24 11  1  0  0  0  0
 25  9  1  0  0  0  0
 26 15  1  0  0  0  0
 28 27  1  0  0  0  0
M  END
>  <MODEL>
8

>  <REMARK>
 VINA RESULT:      -4.3      2.721      6.103
  Name = 
  1 active torsions:
  status: ('A' for Active; 'I' for Inactive)
    1  A    between atoms: C_5  and  C_24
                            x       y       z     vdW  Elec       q    Type
                         _______ _______ _______ _____ _____    ______ ____

>  <TORSDO>
F 1

$$$$
=
 OpenBabel11122411513D

 28 32  0  0  1  0  0  0  0  0999 V2000
  187.2210  174.5450  136.4470 C   0  0  0  0  0  0  0  0  0  0  0  0
  187.1630  177.4510  138.8360 O   0  0  0  0  0  0  0  0  0  0  0  0
  183.1120  172.3780  134.5990 O   0  0  0  0  0  1  0  0  0  0  0  0
  189.0170  175.6460  134.5940 C   0  0  0  0  0  3  0  0  0  0  0  0
  186.3050  173.8630  137.4140 C   0  0  0  0  0  2  0  0  0  0  0  0
  186.6040  179.0030  137.0070 O   0  0  0  0  0  0  0  0  0  0  0  0
  186.0470  178.0540  138.0310 S   0  0  0  0  0  0  0  0  0  0  0  0
  183.5980  177.6130  139.4520 C   0  0  1  0  0  3  0  0  0  0  0  0
  185.0960  176.7790  137.2440 C   0  0  1  0  0  3  0  0  0  0  0  0
  183.8050  171.4850  136.9850 O   0  0  0  0  0  1  0  0  0  0  0  0
  184.2980  175.8870  135.1400 C   0  0  2  0  0  3  0  0  0  0  0  0
  182.8670  177.2790  138.2170 N   0  0  0  0  0  2  0  0  0  0  0  0
  184.7040  179.0720  139.2860 S   0  0  0  0  0  0  0  0  0  0  0  0
  184.3700  172.7490  137.1620 C   0  0  2  0  0  3  0  0  0  0  0  0
  186.8540  175.7010  135.7060 C   0  0  0  0  0  0  0  0  0  0  0  0
  182.9230  173.6710  135.0860 C   0  0  1  0  0  3  0  0  0  0  0  0
  182.6100  177.8520  140.5730 C   0  0  0  0  0  1  0  0  0  0  0  0
  183.5470  173.8680  136.4810 C   0  0  2  0  0  3  0  0  0  0  0  0
  187.7660  176.2340  134.7860 C   0  0  0  0  0  3  0  0  0  0  0  0
  188.4790  173.9650  136.2410 C   0  0  0  0  0  3  0  0  0  0  0  0
  189.3740  174.5140  135.3220 C   0  0  0  0  0  3  0  0  0  0  0  0
  185.7270  172.7400  136.7990 O   0  0  0  0  0  0  0  0  0  0  0  0
  183.1160  176.5850  135.8390 C   0  0  1  0  0  3  0  0  0  0  0  0
  184.2670  174.3470  135.2200 C   0  0  2  0  0  3  0  0  0  0  0  0
  183.7130  177.3450  137.0200 C   0  0  2  0  0  3  0  0  0  0  0  0
  185.5430  176.4450  135.8440 C   0  0  2  0  0  3  0  0  0  0  0  0
  182.4480  177.5510  134.8780 C   0  0  0  0  0  2  0  0  0  0  0  0
  181.0990  177.6910  135.2030 O   0  0  0  0  0  1  0  0  0  0  0  0
  1  5  1  0  0  0  0
  3 16  1  0  0  0  0
  4 19  2  0  0  0  0
  4 21  1  0  0  0  0
  6  7  2  0  0  0  0
  7  2  2  0  0  0  0
  7 13  1  0  0  0  0
  8 17  1  1  0  0  0
  9  7  1  6  0  0  0
 10 14  1  0  0  0  0
 11 24  1  0  0  0  0
 11 23  1  0  0  0  0
 11 26  1  0  0  0  0
 12  8  1  0  0  0  0
 13  8  1  0  0  0  0
 15 26  1  0  0  0  0
 15  1  2  0  0  0  0
 16 24  1  0  0  0  0
 16 18  1  0  0  0  0
 18 14  1  0  0  0  0
 19 15  1  0  0  0  0
 20  1  1  0  0  0  0
 21 20  2  0  0  0  0
 22 14  1  0  0  0  0
 22  5  1  0  0  0  0
 23 25  1  0  0  0  0
 24 18  1  0  0  0  0
 25  9  1  0  0  0  0
 25 12  1  0  0  0  0
 26  9  1  0  0  0  0
 27 28  1  0  0  0  0
 27 23  1  0  0  0  0
M  END
>  <MODEL>
9

>  <REMARK>
 VINA RESULT:      -4.2      3.850      6.542
  Name = 
  1 active torsions:
  status: ('A' for Active; 'I' for Inactive)
    1  A    between atoms: C_5  and  C_24
                            x       y       z     vdW  Elec       q    Type
                         _______ _______ _______ _____ _____    ______ ____

>  <TORSDO>
F 1

$$$$
