=
 OpenBabel11122410543D

 31 35  0  0  1  0  0  0  0  0999 V2000
  190.1120  176.0890  142.8100 C   0  0  0  0  0  0  0  0  0  0  0  0
  186.5740  177.1230  143.7320 C   0  0  2  0  0  3  0  0  0  0  0  0
  186.6830  177.8380  145.0690 C   0  0  0  0  0  0  0  0  0  0  0  0
  187.8200  178.1630  147.1970 C   0  0  0  0  0  0  0  0  0  0  0  0
  187.8910  177.0270  142.9890 C   0  0  0  0  0  0  0  0  0  0  0  0
  190.3440  176.8530  141.7110 N   0  0  0  0  0  0  0  0  0  0  0  0
  187.7540  177.5680  145.9350 C   0  0  0  0  0  3  0  0  0  0  0  0
  185.9330  178.9700  142.1070 C   0  0  2  0  0  3  0  0  0  0  0  0
  191.0770  175.2570  143.2730 F   0  0  0  0  0  0  0  0  0  0  0  0
  184.4790  179.0050  144.6310 C   0  0  0  0  0  2  0  0  0  0  0  0
  188.9700  177.8780  148.0940 C   0  0  0  0  0  1  0  0  0  0  0  0
  187.0910  178.6280  141.1760 C   0  0  0  0  0  2  0  0  0  0  0  0
  185.4570  177.7090  142.8470 C   0  0  2  0  0  3  0  0  0  0  0  0
  188.8820  176.1590  143.4640 C   0  0  0  0  0  3  0  0  0  0  0  0
  186.8040  179.0220  147.6160 C   0  0  0  0  0  3  0  0  0  0  0  0
  188.1530  177.8040  141.8410 C   0  0  0  0  0  0  0  0  0  0  0  0
  189.3970  177.6910  141.2130 C   0  0  0  0  0  3  0  0  0  0  0  0
  184.2450  177.9520  143.6400 N   0  0  0  0  0  2  0  0  0  0  0  0
  185.6410  178.6770  145.5180 C   0  0  0  0  0  0  0  0  0  0  0  0
  185.7170  179.2800  146.7780 C   0  0  0  0  0  3  0  0  0  0  0  0
  184.1810  177.5030  140.4030 O   0  0  0  0  0  0  0  0  0  0  0  0
  183.9930  178.7460  140.5010 C   0  0  0  0  0  0  0  0  0  0  0  0
  184.8390  179.5410  141.3330 N   0  0  0  0  0  2  0  0  0  0  0  0
  180.4480  177.8630  139.7470 C   0  0  1  0  0  3  0  0  0  0  0  0
  181.6770  179.7040  140.6250 C   0  0  0  0  0  2  0  0  0  0  0  0
  183.6070  178.2480  137.5880 C   0  0  0  0  0  1  0  0  0  0  0  0
  179.6020  176.6590  140.1020 C   0  0  0  0  0  1  0  0  0  0  0  0
  180.9740  178.4670  140.9700 N   0  0  0  0  0  2  0  0  0  0  0  0
  182.4420  178.6420  138.4790 C   0  0  2  0  0  3  0  0  0  0  0  0
  182.8890  179.4160  139.7320 C   0  0  2  0  0  3  0  0  0  0  0  0
  181.5950  177.4250  138.8400 C   0  0  0  0  0  2  0  0  0  0  0  0
  1  9  1  0  0  0  0
  1 14  1  0  0  0  0
  2  5  1  6  0  0  0
  2  3  1  0  0  0  0
  3 19  2  0  0  0  0
  3  7  1  0  0  0  0
  4 15  1  0  0  0  0
  4 11  1  0  0  0  0
  5 14  2  0  0  0  0
  6  1  2  0  0  0  0
  7  4  2  0  0  0  0
  8 23  1  6  0  0  0
  8 13  1  0  0  0  0
 10 19  1  0  0  0  0
 12 16  1  0  0  0  0
 12  8  1  0  0  0  0
 13 18  1  1  0  0  0
 13  2  1  0  0  0  0
 16  5  1  0  0  0  0
 17  6  1  0  0  0  0
 17 16  2  0  0  0  0
 18 10  1  0  0  0  0
 19 20  1  0  0  0  0
 20 15  2  0  0  0  0
 21 22  2  0  0  0  0
 22 23  1  0  0  0  0
 24 27  1  1  0  0  0
 24 28  1  0  0  0  0
 25 28  1  0  0  0  0
 29 26  1  1  0  0  0
 29 31  1  0  0  0  0
 29 30  1  0  0  0  0
 30 22  1  1  0  0  0
 30 25  1  0  0  0  0
 31 24  1  0  0  0  0
M  END
>  <MODEL>
1

>  <REMARK>
 VINA RESULT:      -9.6      0.000      0.000
  Name = 
  2 active torsions:
  status: ('A' for Active; 'I' for Inactive)
    1  A    between atoms: C_5  and  C_30
    2  A    between atoms: C_10  and  N_16
                            x       y       z     vdW  Elec       q    Type
                         _______ _______ _______ _____ _____    ______ ____

>  <TORSDO>
F 2

$$$$
=
 OpenBabel11122410543D

 31 35  0  0  1  0  0  0  0  0999 V2000
  191.4040  176.4990  144.9060 C   0  0  0  0  0  0  0  0  0  0  0  0
  187.7770  176.9600  143.8710 C   0  0  2  0  0  3  0  0  0  0  0  0
  187.1220  177.7560  144.9880 C   0  0  0  0  0  0  0  0  0  0  0  0
  187.0090  178.3900  147.3360 C   0  0  0  0  0  0  0  0  0  0  0  0
  189.2900  177.0490  143.8710 C   0  0  0  0  0  0  0  0  0  0  0  0
  192.0540  177.2290  143.9620 N   0  0  0  0  0  0  0  0  0  0  0  0
  187.6490  177.7230  146.2890 C   0  0  0  0  0  3  0  0  0  0  0  0
  187.8030  178.5750  141.9080 C   0  0  2  0  0  3  0  0  0  0  0  0
  192.1070  175.8730  145.8800 F   0  0  0  0  0  0  0  0  0  0  0  0
  185.3000  178.5010  143.3960 C   0  0  0  0  0  2  0  0  0  0  0  0
  187.5900  178.3580  148.7030 C   0  0  0  0  0  1  0  0  0  0  0  0
  189.3020  178.3850  141.7020 C   0  0  0  0  0  2  0  0  0  0  0  0
  187.1820  177.2940  142.4900 C   0  0  2  0  0  3  0  0  0  0  0  0
  190.0140  176.3930  144.8740 C   0  0  0  0  0  3  0  0  0  0  0  0
  185.8220  179.0840  147.0970 C   0  0  0  0  0  3  0  0  0  0  0  0
  189.9880  177.7950  142.8980 C   0  0  0  0  0  0  0  0  0  0  0  0
  191.3820  177.8620  142.9650 C   0  0  0  0  0  3  0  0  0  0  0  0
  185.7170  177.3690  142.5640 N   0  0  0  0  0  2  0  0  0  0  0  0
  185.9000  178.4270  144.7660 C   0  0  0  0  0  0  0  0  0  0  0  0
  185.2700  179.1040  145.8150 C   0  0  0  0  0  3  0  0  0  0  0  0
  188.2440  177.2020  139.4490 O   0  0  0  0  0  0  0  0  0  0  0  0
  187.4360  178.1710  139.4400 C   0  0  0  0  0  0  0  0  0  0  0  0
  187.1750  178.9050  140.6370 N   0  0  0  0  0  2  0  0  0  0  0  0
  186.4960  176.3820  136.3040 C   0  0  1  0  0  3  0  0  0  0  0  0
  185.4650  177.7730  137.9390 C   0  0  0  0  0  2  0  0  0  0  0  0
  188.9750  179.2100  137.1080 C   0  0  0  0  0  1  0  0  0  0  0  0
  186.7000  174.9540  135.8480 C   0  0  0  0  0  1  0  0  0  0  0  0
  185.7740  176.3890  137.5760 N   0  0  0  0  0  2  0  0  0  0  0  0
  187.6440  178.5020  136.9200 C   0  0  2  0  0  3  0  0  0  0  0  0
  186.7480  178.5800  138.1680 C   0  0  2  0  0  3  0  0  0  0  0  0
  187.8540  177.0600  136.4660 C   0  0  0  0  0  2  0  0  0  0  0  0
  1  9  1  0  0  0  0
  2  5  1  6  0  0  0
  2  3  1  0  0  0  0
  3  7  1  0  0  0  0
  4 11  1  0  0  0  0
  5 14  2  0  0  0  0
  6  1  2  0  0  0  0
  7  4  2  0  0  0  0
  8 23  1  6  0  0  0
  8 13  1  0  0  0  0
 10 19  1  0  0  0  0
 12  8  1  0  0  0  0
 12 16  1  0  0  0  0
 13 18  1  1  0  0  0
 13  2  1  0  0  0  0
 14  1  1  0  0  0  0
 15  4  1  0  0  0  0
 16 17  2  0  0  0  0
 16  5  1  0  0  0  0
 17  6  1  0  0  0  0
 18 10  1  0  0  0  0
 19  3  2  0  0  0  0
 19 20  1  0  0  0  0
 20 15  2  0  0  0  0
 22 21  2  0  0  0  0
 22 23  1  0  0  0  0
 24 27  1  1  0  0  0
 24 31  1  0  0  0  0
 24 28  1  0  0  0  0
 25 30  1  0  0  0  0
 28 25  1  0  0  0  0
 29 26  1  1  0  0  0
 29 30  1  0  0  0  0
 30 22  1  1  0  0  0
 31 29  1  0  0  0  0
M  END
>  <MODEL>
2

>  <REMARK>
 VINA RESULT:      -9.5      2.735      3.648
  Name = 
  2 active torsions:
  status: ('A' for Active; 'I' for Inactive)
    1  A    between atoms: C_5  and  C_30
    2  A    between atoms: C_10  and  N_16
                            x       y       z     vdW  Elec       q    Type
                         _______ _______ _______ _____ _____    ______ ____

>  <TORSDO>
F 2

$$$$
=
 OpenBabel11122410543D

 31 35  0  0  1  0  0  0  0  0999 V2000
  179.8600  178.8270  143.5690 C   0  0  0  0  0  0  0  0  0  0  0  0
  183.1210  179.3450  141.6900 C   0  0  2  0  0  3  0  0  0  0  0  0
  184.2170  178.8140  142.6000 C   0  0  0  0  0  0  0  0  0  0  0  0
  185.0520  178.3460  144.8390 C   0  0  0  0  0  0  0  0  0  0  0  0
  181.7390  178.8390  142.0480 C   0  0  0  0  0  0  0  0  0  0  0  0
  179.2380  177.9020  142.7910 N   0  0  0  0  0  0  0  0  0  0  0  0
  184.0230  178.7600  143.9900 C   0  0  0  0  0  3  0  0  0  0  0  0
  183.0900  177.6980  139.7540 C   0  0  2  0  0  3  0  0  0  0  0  0
  179.2590  179.2770  144.6970 F   0  0  0  0  0  0  0  0  0  0  0  0
  185.7480  178.5330  140.6030 C   0  0  0  0  0  2  0  0  0  0  0  0
  184.8230  178.2780  146.3050 C   0  0  0  0  0  1  0  0  0  0  0  0
  181.5930  177.4530  139.9150 C   0  0  0  0  0  2  0  0  0  0  0  0
  183.4450  179.1260  140.1990 C   0  0  2  0  0  3  0  0  0  0  0  0
  181.1160  179.3140  143.2090 C   0  0  0  0  0  3  0  0  0  0  0  0
  186.2950  177.9990  144.3090 C   0  0  0  0  0  3  0  0  0  0  0  0
  181.0700  177.8840  141.2530 C   0  0  0  0  0  0  0  0  0  0  0  0
  179.8070  177.4360  141.6480 C   0  0  0  0  0  3  0  0  0  0  0  0
  184.8470  179.4640  139.9210 N   0  0  0  0  0  2  0  0  0  0  0  0
  185.4900  178.5000  142.0790 C   0  0  0  0  0  0  0  0  0  0  0  0
  186.5130  178.0740  142.9320 C   0  0  0  0  0  3  0  0  0  0  0  0
  183.5240  175.1680  138.5140 O   0  0  0  0  0  0  0  0  0  0  0  0
  183.6650  176.1990  137.8010 C   0  0  0  0  0  0  0  0  0  0  0  0
  183.4680  177.4970  138.3620 N   0  0  0  0  0  2  0  0  0  0  0  0
  184.7990  173.3770  135.6400 C   0  0  1  0  0  3  0  0  0  0  0  0
  183.1530  175.0970  135.6060 C   0  0  0  0  0  2  0  0  0  0  0  0
  186.4870  176.5860  136.9240 C   0  0  0  0  0  1  0  0  0  0  0  0
  185.0520  171.9130  135.9290 C   0  0  0  0  0  1  0  0  0  0  0  0
  183.4270  173.7170  136.0130 N   0  0  0  0  0  2  0  0  0  0  0  0
  185.5340  175.7010  136.1380 C   0  0  2  0  0  3  0  0  0  0  0  0
  184.0580  176.0800  136.3550 C   0  0  2  0  0  3  0  0  0  0  0  0
  185.7870  174.2270  136.4360 C   0  0  0  0  0  2  0  0  0  0  0  0
  1  9  1  0  0  0  0
  2  5  1  1  0  0  0
  2  3  1  0  0  0  0
  3  7  1  0  0  0  0
  4 11  1  0  0  0  0
  5 14  2  0  0  0  0
  6  1  2  0  0  0  0
  7  4  2  0  0  0  0
  8 23  1  6  0  0  0
  8 12  1  0  0  0  0
  8 13  1  0  0  0  0
 10 19  1  0  0  0  0
 12 16  1  0  0  0  0
 13 18  1  1  0  0  0
 13  2  1  0  0  0  0
 14  1  1  0  0  0  0
 15  4  1  0  0  0  0
 16 17  2  0  0  0  0
 16  5  1  0  0  0  0
 17  6  1  0  0  0  0
 18 10  1  0  0  0  0
 19  3  2  0  0  0  0
 19 20  1  0  0  0  0
 20 15  2  0  0  0  0
 22 23  1  0  0  0  0
 22 21  2  0  0  0  0
 24 27  1  1  0  0  0
 24 28  1  0  0  0  0
 24 31  1  0  0  0  0
 25 28  1  0  0  0  0
 25 30  1  0  0  0  0
 29 30  1  0  0  0  0
 29 31  1  0  0  0  0
 29 26  1  1  0  0  0
 30 22  1  1  0  0  0
M  END
>  <MODEL>
3

>  <REMARK>
 VINA RESULT:      -9.1      3.738      6.309
  Name = 
  2 active torsions:
  status: ('A' for Active; 'I' for Inactive)
    1  A    between atoms: C_5  and  C_30
    2  A    between atoms: C_10  and  N_16
                            x       y       z     vdW  Elec       q    Type
                         _______ _______ _______ _____ _____    ______ ____

>  <TORSDO>
F 2

$$$$
=
 OpenBabel11122410543D

 31 35  0  0  1  0  0  0  0  0999 V2000
  190.7660  176.8510  146.4480 C   0  0  0  0  0  0  0  0  0  0  0  0
  188.0690  176.9890  143.7750 C   0  0  2  0  0  3  0  0  0  0  0  0
  186.9690  177.8760  144.3360 C   0  0  0  0  0  0  0  0  0  0  0  0
  185.7610  178.7770  146.2480 C   0  0  0  0  0  0  0  0  0  0  0  0
  189.4010  177.1600  144.4770 C   0  0  0  0  0  0  0  0  0  0  0  0
  191.7920  177.4990  145.8360 N   0  0  0  0  0  0  0  0  0  0  0  0
  186.8150  178.0260  145.7230 C   0  0  0  0  0  3  0  0  0  0  0  0
  189.0370  178.3580  141.8650 C   0  0  2  0  0  3  0  0  0  0  0  0
  190.9160  176.3850  147.7110 F   0  0  0  0  0  0  0  0  0  0  0  0
  186.1280  178.3260  141.9910 C   0  0  0  0  0  2  0  0  0  0  0  0
  185.6230  178.9390  147.7180 C   0  0  0  0  0  1  0  0  0  0  0  0
  190.4540  178.2270  142.4170 C   0  0  0  0  0  2  0  0  0  0  0  0
  188.2040  177.1240  142.2460 C   0  0  2  0  0  3  0  0  0  0  0  0
  189.5560  176.6670  145.7780 C   0  0  0  0  0  3  0  0  0  0  0  0
  184.8350  179.3720  145.3890 C   0  0  0  0  0  3  0  0  0  0  0  0
  190.4840  177.8210  143.8600 C   0  0  0  0  0  0  0  0  0  0  0  0
  191.6800  177.9710  144.5670 C   0  0  0  0  0  3  0  0  0  0  0  0
  186.8800  177.1280  141.6100 N   0  0  0  0  0  2  0  0  0  0  0  0
  186.0050  178.4480  143.4790 C   0  0  0  0  0  0  0  0  0  0  0  0
  184.9580  179.2090  144.0080 C   0  0  0  0  0  3  0  0  0  0  0  0
  190.4030  176.5970  140.0880 O   0  0  0  0  0  0  0  0  0  0  0  0
  189.7910  177.5760  139.5820 C   0  0  0  0  0  0  0  0  0  0  0  0
  189.0910  178.5000  140.4170 N   0  0  0  0  0  2  0  0  0  0  0  0
  187.1630  177.5380  136.9340 C   0  0  1  0  0  3  0  0  0  0  0  0
  188.9010  178.9750  137.6980 C   0  0  0  0  0  2  0  0  0  0  0  0
  190.2160  175.3220  137.6790 C   0  0  0  0  0  1  0  0  0  0  0  0
  185.6750  177.2650  136.9830 C   0  0  0  0  0  1  0  0  0  0  0  0
  187.4870  178.6300  137.8510 N   0  0  0  0  0  2  0  0  0  0  0  0
  189.4210  176.5520  137.2760 C   0  0  2  0  0  3  0  0  0  0  0  0
  189.7990  177.7980  138.0950 C   0  0  2  0  0  3  0  0  0  0  0  0
  187.9220  176.2750  137.3310 C   0  0  0  0  0  2  0  0  0  0  0  0
  1  9  1  0  0  0  0
  2  3  1  1  0  0  0
  2  5  1  0  0  0  0
  3  7  1  0  0  0  0
  4 11  1  0  0  0  0
  5 14  1  0  0  0  0
  6  1  1  0  0  0  0
  7  4  2  0  0  0  0
  8 23  1  6  0  0  0
  8 13  1  0  0  0  0
  8 12  1  0  0  0  0
 10 19  1  0  0  0  0
 12 16  1  0  0  0  0
 13 18  1  6  0  0  0
 13  2  1  0  0  0  0
 14  1  2  0  0  0  0
 15  4  1  0  0  0  0
 16  5  2  0  0  0  0
 16 17  1  0  0  0  0
 17  6  2  0  0  0  0
 18 10  1  0  0  0  0
 19 20  1  0  0  0  0
 19  3  2  0  0  0  0
 20 15  2  0  0  0  0
 22 21  2  0  0  0  0
 22 23  1  0  0  0  0
 24 27  1  1  0  0  0
 24 31  1  0  0  0  0
 24 28  1  0  0  0  0
 25 28  1  0  0  0  0
 25 30  1  0  0  0  0
 29 31  1  0  0  0  0
 29 26  1  1  0  0  0
 29 30  1  0  0  0  0
 30 22  1  1  0  0  0
M  END
>  <MODEL>
4

>  <REMARK>
 VINA RESULT:      -9.0      3.221      4.754
  Name = 
  2 active torsions:
  status: ('A' for Active; 'I' for Inactive)
    1  A    between atoms: C_5  and  C_30
    2  A    between atoms: C_10  and  N_16
                            x       y       z     vdW  Elec       q    Type
                         _______ _______ _______ _____ _____    ______ ____

>  <TORSDO>
F 2

$$$$
=
 OpenBabel11122410543D

 31 35  0  0  1  0  0  0  0  0999 V2000
  193.1680  175.2970  135.8970 C   0  0  0  0  0  0  0  0  0  0  0  0
  190.0650  177.1140  137.1240 C   0  0  2  0  0  3  0  0  0  0  0  0
  188.9030  176.1620  136.8920 C   0  0  0  0  0  0  0  0  0  0  0  0
  187.8940  174.3390  135.6320 C   0  0  0  0  0  0  0  0  0  0  0  0
  191.4170  176.4320  137.1190 C   0  0  0  0  0  0  0  0  0  0  0  0
  193.8570  175.1180  137.0550 N   0  0  0  0  0  0  0  0  0  0  0  0
  188.9850  175.1680  135.9030 C   0  0  0  0  0  3  0  0  0  0  0  0
  190.2640  177.2220  139.6560 C   0  0  2  0  0  3  0  0  0  0  0  0
  193.6720  174.8310  134.7300 F   0  0  0  0  0  0  0  0  0  0  0  0
  187.5400  177.3880  138.6380 C   0  0  0  0  0  2  0  0  0  0  0  0
  188.0040  173.2820  134.5940 C   0  0  0  0  0  1  0  0  0  0  0  0
  191.7450  176.8600  139.6090 C   0  0  0  0  0  2  0  0  0  0  0  0
  189.8640  177.9830  138.3810 C   0  0  2  0  0  3  0  0  0  0  0  0
  191.9410  175.9600  135.9090 C   0  0  0  0  0  3  0  0  0  0  0  0
  186.7000  174.5070  136.3350 C   0  0  0  0  0  3  0  0  0  0  0  0
  192.1550  176.2410  138.3060 C   0  0  0  0  0  0  0  0  0  0  0  0
  193.3850  175.5810  138.2420 C   0  0  0  0  0  3  0  0  0  0  0  0
  188.4870  178.4890  138.4440 N   0  0  0  0  0  2  0  0  0  0  0  0
  187.6780  176.3490  137.5680 C   0  0  0  0  0  0  0  0  0  0  0  0
  186.5930  175.5080  137.3010 C   0  0  0  0  0  3  0  0  0  0  0  0
  190.2060  176.2710  142.3420 O   0  0  0  0  0  0  0  0  0  0  0  0
  189.9920  177.5000  142.1530 C   0  0  0  0  0  0  0  0  0  0  0  0
  190.0010  178.0400  140.8320 N   0  0  0  0  0  2  0  0  0  0  0  0
  190.8110  177.4110  145.7920 C   0  0  1  0  0  3  0  0  0  0  0  0
  191.0020  178.9190  143.9590 C   0  0  0  0  0  2  0  0  0  0  0  0
  187.5280  177.1950  143.8020 C   0  0  0  0  0  1  0  0  0  0  0  0
  191.5500  176.4010  146.6430 C   0  0  0  0  0  1  0  0  0  0  0  0
  191.6740  177.8470  144.6960 N   0  0  0  0  0  2  0  0  0  0  0  0
  188.7950  177.7950  144.3860 C   0  0  2  0  0  3  0  0  0  0  0  0
  189.7080  178.4140  143.3130 C   0  0  2  0  0  3  0  0  0  0  0  0
  189.5390  176.7720  145.2390 C   0  0  0  0  0  2  0  0  0  0  0  0
  1 14  2  0  0  0  0
  1  6  1  0  0  0  0
  2  3  1  1  0  0  0
  2 13  1  0  0  0  0
  3 19  1  0  0  0  0
  4  7  1  0  0  0  0
  4 15  2  0  0  0  0
  5  2  1  0  0  0  0
  5 16  2  0  0  0  0
  6 17  2  0  0  0  0
  7  3  2  0  0  0  0
  8 23  1  1  0  0  0
  9  1  1  0  0  0  0
 11  4  1  0  0  0  0
 12  8  1  0  0  0  0
 13 18  1  1  0  0  0
 13  8  1  0  0  0  0
 14  5  1  0  0  0  0
 15 20  1  0  0  0  0
 16 12  1  0  0  0  0
 17 16  1  0  0  0  0
 18 10  1  0  0  0  0
 19 10  1  0  0  0  0
 20 19  2  0  0  0  0
 22 21  2  0  0  0  0
 23 22  1  0  0  0  0
 24 27  1  6  0  0  0
 25 28  1  0  0  0  0
 28 24  1  0  0  0  0
 29 26  1  6  0  0  0
 29 31  1  0  0  0  0
 30 22  1  6  0  0  0
 30 25  1  0  0  0  0
 30 29  1  0  0  0  0
 31 24  1  0  0  0  0
M  END
>  <MODEL>
5

>  <REMARK>
 VINA RESULT:      -8.7      4.549      8.829
  Name = 
  2 active torsions:
  status: ('A' for Active; 'I' for Inactive)
    1  A    between atoms: C_5  and  C_30
    2  A    between atoms: C_10  and  N_16
                            x       y       z     vdW  Elec       q    Type
                         _______ _______ _______ _____ _____    ______ ____

>  <TORSDO>
F 2

$$$$
=
 OpenBabel11122410543D

 31 35  0  0  1  0  0  0  0  0999 V2000
  189.1180  177.7290  143.7730 C   0  0  0  0  0  0  0  0  0  0  0  0
  186.9020  178.9120  140.9230 C   0  0  2  0  0  3  0  0  0  0  0  0
  187.2830  178.0680  139.7180 C   0  0  0  0  0  0  0  0  0  0  0  0
  188.9430  176.7720  138.4950 C   0  0  0  0  0  0  0  0  0  0  0  0
  187.3390  178.3140  142.2440 C   0  0  0  0  0  0  0  0  0  0  0  0
  188.2080  177.1770  144.6170 N   0  0  0  0  0  0  0  0  0  0  0  0
  188.5580  177.4860  139.6330 C   0  0  0  0  0  3  0  0  0  0  0  0
  184.5490  178.1340  141.4880 C   0  0  2  0  0  3  0  0  0  0  0  0
  190.4340  177.7160  144.0930 F   0  0  0  0  0  0  0  0  0  0  0  0
  185.0420  178.5660  138.6500 C   0  0  0  0  0  2  0  0  0  0  0  0
  190.2900  176.1490  138.4300 C   0  0  0  0  0  1  0  0  0  0  0  0
  184.9310  177.8540  142.9380 C   0  0  0  0  0  2  0  0  0  0  0  0
  185.4050  179.2800  140.9260 C   0  0  2  0  0  3  0  0  0  0  0  0
  188.6990  178.3110  142.5760 C   0  0  0  0  0  3  0  0  0  0  0  0
  188.0630  176.6490  137.4190 C   0  0  0  0  0  3  0  0  0  0  0  0
  186.4130  177.7410  143.1410 C   0  0  0  0  0  0  0  0  0  0  0  0
  186.8790  177.1820  144.3330 C   0  0  0  0  0  3  0  0  0  0  0  0
  184.9720  179.6930  139.5840 N   0  0  0  0  0  2  0  0  0  0  0  0
  186.4170  177.9710  138.6080 C   0  0  0  0  0  0  0  0  0  0  0  0
  186.8020  177.2460  137.4760 C   0  0  0  0  0  3  0  0  0  0  0  0
  182.5740  176.6990  140.0160 O   0  0  0  0  0  0  0  0  0  0  0  0
  182.1960  177.7140  140.6630 C   0  0  0  0  0  0  0  0  0  0  0  0
  183.1360  178.4810  141.4160 N   0  0  0  0  0  2  0  0  0  0  0  0
  179.1750  176.5710  138.7960 C   0  0  1  0  0  3  0  0  0  0  0  0
  179.8220  176.9980  141.0480 C   0  0  0  0  0  2  0  0  0  0  0  0
  181.2350  179.8190  138.7840 C   0  0  0  0  0  1  0  0  0  0  0  0
  178.9720  175.4950  137.7520 C   0  0  0  0  0  1  0  0  0  0  0  0
  179.7550  175.9780  140.0000 N   0  0  0  0  0  2  0  0  0  0  0  0
  180.3020  178.7330  139.2930 C   0  0  2  0  0  3  0  0  0  0  0  0
  180.7560  178.1430  140.6400 C   0  0  2  0  0  3  0  0  0  0  0  0
  180.1040  177.6470  138.2400 C   0  0  0  0  0  2  0  0  0  0  0  0
  1  9  1  0  0  0  0
  1  6  1  0  0  0  0
  2  3  1  6  0  0  0
  2 13  1  0  0  0  0
  2  5  1  0  0  0  0
  4  7  2  0  0  0  0
  5 14  1  0  0  0  0
  5 16  2  0  0  0  0
  7  3  1  0  0  0  0
  8 23  1  1  0  0  0
  8 12  1  0  0  0  0
 10 18  1  0  0  0  0
 11  4  1  0  0  0  0
 12 16  1  0  0  0  0
 13 18  1  6  0  0  0
 13  8  1  0  0  0  0
 14  1  2  0  0  0  0
 15 20  2  0  0  0  0
 15  4  1  0  0  0  0
 16 17  1  0  0  0  0
 17  6  2  0  0  0  0
 19 10  1  0  0  0  0
 19  3  2  0  0  0  0
 20 19  1  0  0  0  0
 21 22  2  0  0  0  0
 22 23  1  0  0  0  0
 24 27  1  6  0  0  0
 24 28  1  0  0  0  0
 28 25  1  0  0  0  0
 29 26  1  6  0  0  0
 29 30  1  0  0  0  0
 30 22  1  6  0  0  0
 30 25  1  0  0  0  0
 31 24  1  0  0  0  0
 31 29  1  0  0  0  0
M  END
>  <MODEL>
6

>  <REMARK>
 VINA RESULT:      -8.5      2.145      4.767
  Name = 
  2 active torsions:
  status: ('A' for Active; 'I' for Inactive)
    1  A    between atoms: C_5  and  C_30
    2  A    between atoms: C_10  and  N_16
                            x       y       z     vdW  Elec       q    Type
                         _______ _______ _______ _____ _____    ______ ____

>  <TORSDO>
F 2

$$$$
=
 OpenBabel11122410543D

 31 35  0  0  1  0  0  0  0  0999 V2000
  188.7960  177.8590  143.9580 C   0  0  0  0  0  0  0  0  0  0  0  0
  186.7700  179.0020  140.9540 C   0  0  2  0  0  3  0  0  0  0  0  0
  187.2390  178.1520  139.7850 C   0  0  0  0  0  0  0  0  0  0  0  0
  188.9880  176.8610  138.6890 C   0  0  0  0  0  0  0  0  0  0  0  0
  187.1210  178.4170  142.3070 C   0  0  0  0  0  0  0  0  0  0  0  0
  187.8350  177.3050  144.7430 N   0  0  0  0  0  0  0  0  0  0  0  0
  188.5220  177.5790  139.7910 C   0  0  0  0  0  3  0  0  0  0  0  0
  184.3900  178.2090  141.3640 C   0  0  2  0  0  3  0  0  0  0  0  0
  190.0880  177.8580  144.3670 F   0  0  0  0  0  0  0  0  0  0  0  0
  185.0730  178.6240  138.5630 C   0  0  0  0  0  2  0  0  0  0  0  0
  190.3410  176.2480  138.7200 C   0  0  0  0  0  1  0  0  0  0  0  0
  184.6750  177.9420  142.8390 C   0  0  0  0  0  2  0  0  0  0  0  0
  185.2740  179.3580  140.8520 C   0  0  2  0  0  3  0  0  0  0  0  0
  188.4550  178.4280  142.7310 C   0  0  0  0  0  3  0  0  0  0  0  0
  188.1850  176.7220  137.5560 C   0  0  0  0  0  3  0  0  0  0  0  0
  186.1400  177.8440  143.1430 C   0  0  0  0  0  0  0  0  0  0  0  0
  186.5280  177.2970  144.3690 C   0  0  0  0  0  3  0  0  0  0  0  0
  184.9310  179.7560  139.4810 N   0  0  0  0  0  2  0  0  0  0  0  0
  186.4510  178.0400  138.6200 C   0  0  0  0  0  0  0  0  0  0  0  0
  186.9190  177.3090  137.5220 C   0  0  0  0  0  3  0  0  0  0  0  0
  182.5180  176.7140  139.8190 O   0  0  0  0  0  0  0  0  0  0  0  0
  182.0960  177.7460  140.4080 C   0  0  0  0  0  0  0  0  0  0  0  0
  182.9830  178.5430  141.1940 N   0  0  0  0  0  2  0  0  0  0  0  0
  179.4850  178.8410  142.8390 C   0  0  1  0  0  3  0  0  0  0  0  0
  180.4410  179.5940  140.7920 C   0  0  0  0  0  2  0  0  0  0  0  0
  179.8810  175.7580  140.5740 C   0  0  0  0  0  1  0  0  0  0  0  0
  179.5010  179.0030  144.3430 C   0  0  0  0  0  1  0  0  0  0  0  0
  180.5500  179.6510  142.2510 N   0  0  0  0  0  2  0  0  0  0  0  0
  179.6670  177.2090  140.9700 C   0  0  2  0  0  3  0  0  0  0  0  0
  180.6580  178.1650  140.2820 C   0  0  2  0  0  3  0  0  0  0  0  0
  179.6890  177.3690  142.4860 C   0  0  0  0  0  2  0  0  0  0  0  0
  1  9  1  0  0  0  0
  1  6  1  0  0  0  0
  2  3  1  6  0  0  0
  2  5  1  0  0  0  0
  3  7  1  0  0  0  0
  4 11  1  0  0  0  0
  4  7  2  0  0  0  0
  5 14  1  0  0  0  0
  5 16  2  0  0  0  0
  8 23  1  1  0  0  0
  8 12  1  0  0  0  0
 10 19  1  0  0  0  0
 10 18  1  0  0  0  0
 12 16  1  0  0  0  0
 13 18  1  6  0  0  0
 13  2  1  0  0  0  0
 13  8  1  0  0  0  0
 14  1  2  0  0  0  0
 15  4  1  0  0  0  0
 16 17  1  0  0  0  0
 17  6  2  0  0  0  0
 19  3  2  0  0  0  0
 20 15  2  0  0  0  0
 20 19  1  0  0  0  0
 21 22  2  0  0  0  0
 22 23  1  0  0  0  0
 24 27  1  1  0  0  0
 25 28  1  0  0  0  0
 28 24  1  0  0  0  0
 29 26  1  1  0  0  0
 29 31  1  0  0  0  0
 30 22  1  1  0  0  0
 30 25  1  0  0  0  0
 30 29  1  0  0  0  0
 31 24  1  0  0  0  0
M  END
>  <MODEL>
7

>  <REMARK>
 VINA RESULT:      -8.4      2.204      4.940
  Name = 
  2 active torsions:
  status: ('A' for Active; 'I' for Inactive)
    1  A    between atoms: C_5  and  C_30
    2  A    between atoms: C_10  and  N_16
                            x       y       z     vdW  Elec       q    Type
                         _______ _______ _______ _____ _____    ______ ____

>  <TORSDO>
F 2

$$$$
=
 OpenBabel11122410543D

 31 35  0  0  1  0  0  0  0  0999 V2000
  184.8300  178.4190  139.0050 C   0  0  0  0  0  0  0  0  0  0  0  0
  188.6130  178.1880  139.2850 C   0  0  2  0  0  3  0  0  0  0  0  0
  188.8920  177.4920  140.6060 C   0  0  0  0  0  0  0  0  0  0  0  0
  188.2350  176.9700  142.8920 C   0  0  0  0  0  0  0  0  0  0  0  0
  187.1980  177.9850  138.7810 C   0  0  0  0  0  0  0  0  0  0  0  0
  184.5830  177.6020  137.9470 N   0  0  0  0  0  0  0  0  0  0  0  0
  187.9530  177.5420  141.6490 C   0  0  0  0  0  3  0  0  0  0  0  0
  189.3480  176.4930  137.5390 C   0  0  2  0  0  3  0  0  0  0  0  0
  183.8040  179.0320  139.6410 F   0  0  0  0  0  0  0  0  0  0  0  0
  191.1870  176.8190  139.7740 C   0  0  0  0  0  2  0  0  0  0  0  0
  187.2220  177.0180  143.9780 C   0  0  0  0  0  1  0  0  0  0  0  0
  188.0000  176.5600  136.8280 C   0  0  0  0  0  2  0  0  0  0  0  0
  189.6610  177.8400  138.2100 C   0  0  2  0  0  3  0  0  0  0  0  0
  186.1410  178.6280  139.4360 C   0  0  0  0  0  3  0  0  0  0  0  0
  189.4690  176.3580  143.1140 C   0  0  0  0  0  3  0  0  0  0  0  0
  186.9160  177.1480  137.6810 C   0  0  0  0  0  0  0  0  0  0  0  0
  185.5890  176.9790  137.2780 C   0  0  0  0  0  3  0  0  0  0  0  0
  191.0150  177.8790  138.7780 N   0  0  0  0  0  2  0  0  0  0  0  0
  190.1520  176.9060  140.8550 C   0  0  0  0  0  0  0  0  0  0  0  0
  190.4250  176.3250  142.0970 C   0  0  0  0  0  3  0  0  0  0  0  0
  190.9370  174.1270  137.5930 O   0  0  0  0  0  0  0  0  0  0  0  0
  191.1460  174.9490  136.6600 C   0  0  0  0  0  0  0  0  0  0  0  0
  190.3890  176.1570  136.5780 N   0  0  0  0  0  2  0  0  0  0  0  0
  193.9580  172.5110  136.3970 C   0  0  1  0  0  3  0  0  0  0  0  0
  192.1120  173.2490  135.0860 C   0  0  0  0  0  2  0  0  0  0  0  0
  193.7820  176.3370  136.7430 C   0  0  0  0  0  1  0  0  0  0  0  0
  194.4570  171.4300  137.3310 C   0  0  0  0  0  1  0  0  0  0  0  0
  192.5470  172.2790  136.0930 N   0  0  0  0  0  2  0  0  0  0  0  0
  193.6370  174.9620  136.1140 C   0  0  2  0  0  3  0  0  0  0  0  0
  192.2050  174.6800  135.6270 C   0  0  2  0  0  3  0  0  0  0  0  0
  194.1360  173.8750  137.0610 C   0  0  0  0  0  2  0  0  0  0  0  0
  1 14  1  0  0  0  0
  1  9  1  0  0  0  0
  2  5  1  6  0  0  0
  2  3  1  0  0  0  0
  3 19  2  0  0  0  0
  3  7  1  0  0  0  0
  4 15  1  0  0  0  0
  4 11  1  0  0  0  0
  5 14  2  0  0  0  0
  6  1  2  0  0  0  0
  7  4  2  0  0  0  0
  8 23  1  6  0  0  0
  8 13  1  0  0  0  0
 10 19  1  0  0  0  0
 12  8  1  0  0  0  0
 12 16  1  0  0  0  0
 13 18  1  1  0  0  0
 13  2  1  0  0  0  0
 16  5  1  0  0  0  0
 17 16  2  0  0  0  0
 17  6  1  0  0  0  0
 18 10  1  0  0  0  0
 19 20  1  0  0  0  0
 20 15  2  0  0  0  0
 22 21  2  0  0  0  0
 23 22  1  0  0  0  0
 24 31  1  0  0  0  0
 24 27  1  1  0  0  0
 25 30  1  0  0  0  0
 25 28  1  0  0  0  0
 28 24  1  0  0  0  0
 29 26  1  1  0  0  0
 29 31  1  0  0  0  0
 30 29  1  0  0  0  0
 30 22  1  1  0  0  0
M  END
>  <MODEL>
8

>  <REMARK>
 VINA RESULT:      -7.8      5.006      8.759
  Name = 
  2 active torsions:
  status: ('A' for Active; 'I' for Inactive)
    1  A    between atoms: C_5  and  C_30
    2  A    between atoms: C_10  and  N_16
                            x       y       z     vdW  Elec       q    Type
                         _______ _______ _______ _____ _____    ______ ____

>  <TORSDO>
F 2

$$$$
=
 OpenBabel11122410543D

 31 35  0  0  1  0  0  0  0  0999 V2000
  190.3700  176.8400  146.1010 C   0  0  0  0  0  0  0  0  0  0  0  0
  188.1880  176.9300  142.9910 C   0  0  2  0  0  3  0  0  0  0  0  0
  187.0540  177.8920  143.3030 C   0  0  0  0  0  0  0  0  0  0  0  0
  185.5790  178.9530  144.9240 C   0  0  0  0  0  0  0  0  0  0  0  0
  189.3850  177.0870  143.9060 C   0  0  0  0  0  0  0  0  0  0  0  0
  191.5180  177.4080  145.6470 N   0  0  0  0  0  0  0  0  0  0  0  0
  186.6690  178.1300  144.6330 C   0  0  0  0  0  3  0  0  0  0  0  0
  189.5410  178.1430  141.2140 C   0  0  2  0  0  3  0  0  0  0  0  0
  190.2750  176.4430  147.3920 F   0  0  0  0  0  0  0  0  0  0  0  0
  186.6560  178.2370  140.8270 C   0  0  0  0  0  2  0  0  0  0  0  0
  185.1960  179.2070  146.3370 C   0  0  0  0  0  1  0  0  0  0  0  0
  190.8320  177.9870  142.0120 C   0  0  0  0  0  2  0  0  0  0  0  0
  188.5930  176.9690  141.5040 C   0  0  2  0  0  3  0  0  0  0  0  0
  189.2870  176.6660  145.2380 C   0  0  0  0  0  3  0  0  0  0  0  0
  184.8480  179.5340  143.8870 C   0  0  0  0  0  3  0  0  0  0  0  0
  190.5900  177.6660  143.4570 C   0  0  0  0  0  0  0  0  0  0  0  0
  191.6520  177.8090  144.3550 C   0  0  0  0  0  3  0  0  0  0  0  0
  187.4010  176.9900  140.6460 N   0  0  0  0  0  2  0  0  0  0  0  0
  186.2830  178.4520  142.2620 C   0  0  0  0  0  0  0  0  0  0  0  0
  185.2000  179.2850  142.5600 C   0  0  0  0  0  3  0  0  0  0  0  0
  190.5990  175.9880  139.6770 O   0  0  0  0  0  0  0  0  0  0  0  0
  190.3770  177.0770  139.0800 C   0  0  0  0  0  0  0  0  0  0  0  0
  189.8530  178.1980  139.7920 N   0  0  0  0  0  2  0  0  0  0  0  0
  190.3580  174.7220  136.1860 C   0  0  1  0  0  3  0  0  0  0  0  0
  189.4580  176.8520  136.7550 C   0  0  0  0  0  2  0  0  0  0  0  0
  193.1280  176.6700  138.0080 C   0  0  0  0  0  1  0  0  0  0  0  0
  190.0590  173.2420  136.0810 C   0  0  0  0  0  1  0  0  0  0  0  0
  189.2130  175.4090  136.7820 N   0  0  0  0  0  2  0  0  0  0  0  0
  191.9030  176.4200  137.1450 C   0  0  2  0  0  3  0  0  0  0  0  0
  190.6740  177.2190  137.6130 C   0  0  2  0  0  3  0  0  0  0  0  0
  191.6020  174.9280  137.0470 C   0  0  0  0  0  2  0  0  0  0  0  0
  1  9  1  0  0  0  0
  2  3  1  6  0  0  0
  2  5  1  0  0  0  0
  3  7  1  0  0  0  0
  4 11  1  0  0  0  0
  5 14  1  0  0  0  0
  6  1  1  0  0  0  0
  7  4  2  0  0  0  0
  8 23  1  6  0  0  0
  8 13  1  0  0  0  0
  8 12  1  0  0  0  0
 10 19  1  0  0  0  0
 12 16  1  0  0  0  0
 13 18  1  6  0  0  0
 13  2  1  0  0  0  0
 14  1  2  0  0  0  0
 15  4  1  0  0  0  0
 16  5  2  0  0  0  0
 16 17  1  0  0  0  0
 17  6  2  0  0  0  0
 18 10  1  0  0  0  0
 19 20  1  0  0  0  0
 19  3  2  0  0  0  0
 20 15  2  0  0  0  0
 22 21  2  0  0  0  0
 22 23  1  0  0  0  0
 24 27  1  1  0  0  0
 24 28  1  0  0  0  0
 24 31  1  0  0  0  0
 25 28  1  0  0  0  0
 25 30  1  0  0  0  0
 29 30  1  0  0  0  0
 29 26  1  1  0  0  0
 30 22  1  1  0  0  0
 31 29  1  0  0  0  0
M  END
>  <MODEL>
9

>  <REMARK>
 VINA RESULT:      -7.6      3.431      6.144
  Name = 
  2 active torsions:
  status: ('A' for Active; 'I' for Inactive)
    1  A    between atoms: C_5  and  C_30
    2  A    between atoms: C_10  and  N_16
                            x       y       z     vdW  Elec       q    Type
                         _______ _______ _______ _____ _____    ______ ____

>  <TORSDO>
F 2

$$$$
