=
 OpenBabel11122411033D

 31 36  0  0  1  0  0  0  0  0999 V2000
  193.1710  173.9540  135.6570 C   0  0  0  0  0  0  0  0  0  0  0  0
  190.2690  176.2400  136.5380 C   0  0  2  0  0  3  0  0  0  0  0  0
  188.9920  175.3600  136.4630 C   0  0  1  0  0  3  0  0  0  0  0  0
  187.8440  173.1750  136.7570 C   0  0  1  0  0  3  0  0  0  0  0  0
  191.5610  175.4720  136.6510 C   0  0  0  0  0  0  0  0  0  0  0  0
  193.8910  173.9300  136.8540 C   0  0  0  0  0  3  0  0  0  0  0  0
  189.1300  173.9500  137.0440 C   0  0  0  0  0  2  0  0  0  0  0  0
  190.4600  176.8030  138.9800 C   0  0  2  0  0  3  0  0  0  0  0  0
  193.5970  173.2290  134.5960 F   0  0  0  0  0  0  0  0  0  0  0  0
  187.8380  177.3170  136.6920 O   0  0  0  0  0  0  0  0  0  0  0  0
  187.8960  171.9320  137.3860 O   0  0  0  0  0  1  0  0  0  0  0  0
  191.9090  176.3120  139.0260 C   0  0  0  0  0  2  0  0  0  0  0  0
  190.1440  177.3670  137.5830 C   0  0  2  0  0  3  0  0  0  0  0  0
  192.0080  174.7220  135.5570 C   0  0  0  0  0  3  0  0  0  0  0  0
  186.6130  173.9450  137.2400 C   0  0  0  0  0  2  0  0  0  0  0  0
  192.2840  175.4410  137.8610 C   0  0  0  0  0  0  0  0  0  0  0  0
  193.4520  174.6770  137.9490 C   0  0  0  0  0  3  0  0  0  0  0  0
  188.7400  178.0190  137.5230 C   0  0  0  0  0  2  0  0  0  0  0  0
  187.8670  176.0290  137.1260 N   0  0  1  0  0  0  0  0  0  0  0  0
  186.6370  175.3740  136.6950 C   0  0  0  0  0  2  0  0  0  0  0  0
  191.4200  177.8460  140.8960 O   0  0  0  0  0  0  0  0  0  0  0  0
  190.2910  177.1850  141.4140 C   0  0  2  0  0  3  0  0  0  0  0  0
  190.2700  177.8380  140.0840 C   0  0  2  0  0  3  0  0  0  0  0  0
  190.8230  177.2270  145.0650 C   0  0  1  0  0  3  0  0  0  0  0  0
  190.7340  178.8990  143.1880 C   0  0  0  0  0  2  0  0  0  0  0  0
  187.8430  176.5310  142.9310 O   0  0  0  0  0  1  0  0  0  0  0  0
  191.7420  176.3280  145.8650 C   0  0  0  0  0  1  0  0  0  0  0  0
  191.6440  178.0140  144.0440 C   0  0  0  0  0  2  0  0  0  0  0  0
  188.8560  177.2800  143.5300 C   0  0  2  0  0  3  0  0  0  0  0  0
  189.6550  178.0720  142.4840 C   0  0  2  0  0  3  0  0  0  0  0  0
  189.7660  176.3810  144.3630 C   0  0  0  0  0  2  0  0  0  0  0  0
  1  6  1  0  0  0  0
  2  5  1  1  0  0  0
  2 13  1  0  0  0  0
  3  2  1  0  0  0  0
  3  7  1  1  0  0  0
  3 19  1  0  0  0  0
  4  7  1  0  0  0  0
  4 15  1  0  0  0  0
  4 11  1  1  0  0  0
  5 16  2  0  0  0  0
  6 17  2  0  0  0  0
  8 12  1  6  0  0  0
  8 23  1  0  0  0  0
  9  1  1  0  0  0  0
 10 19  1  0  0  0  0
 10 18  1  0  0  0  0
 13 18  1  1  0  0  0
 13  8  1  0  0  0  0
 14  1  2  0  0  0  0
 14  5  1  0  0  0  0
 16 17  1  0  0  0  0
 16 12  1  0  0  0  0
 19 20  1  6  0  0  0
 20 15  1  0  0  0  0
 22 21  1  1  0  0  0
 22 30  1  0  0  0  0
 23 21  1  1  0  0  0
 23 22  1  0  0  0  0
 24 27  1  6  0  0  0
 25 28  1  0  0  0  0
 28 24  1  0  0  0  0
 29 26  1  6  0  0  0
 29 31  1  0  0  0  0
 30 25  1  1  0  0  0
 30 29  1  0  0  0  0
 31 24  1  0  0  0  0
M  END
>  <MODEL>
1

>  <REMARK>
 VINA RESULT:      -7.4      0.000      0.000
  Name = 
  2 active torsions:
  status: ('A' for Active; 'I' for Inactive)
    1  A    between atoms: C_5  and  C_30
    2  A    between atoms: C_10  and  C_16
                            x       y       z     vdW  Elec       q    Type
                         _______ _______ _______ _____ _____    ______ ____

>  <TORSDO>
F 2

$$$$
=
 OpenBabel11122411033D

 31 36  0  0  1  0  0  0  0  0999 V2000
  183.6230  178.8630  143.6100 C   0  0  0  0  0  0  0  0  0  0  0  0
  182.6390  177.4680  140.2170 C   0  0  2  0  0  3  0  0  0  0  0  0
  181.3690  178.2500  139.7850 C   0  0  1  0  0  3  0  0  0  0  0  0
  180.0210  180.3380  139.7320 C   0  0  1  0  0  3  0  0  0  0  0  0
  183.4470  178.1270  141.3050 C   0  0  0  0  0  0  0  0  0  0  0  0
  184.8580  179.4520  143.3320 C   0  0  0  0  0  3  0  0  0  0  0  0
  181.3910  179.7530  140.0780 C   0  0  0  0  0  2  0  0  0  0  0  0
  184.3810  178.2000  138.5610 C   0  0  2  0  0  3  0  0  0  0  0  0
  183.1050  178.9350  144.8600 F   0  0  0  0  0  0  0  0  0  0  0  0
  181.2220  176.7300  138.0870 O   0  0  0  0  0  0  0  0  0  0  0  0
  180.0560  181.7240  139.8700 O   0  0  0  0  0  1  0  0  0  0  0  0
  185.3520  178.5800  139.6820 C   0  0  0  0  0  2  0  0  0  0  0  0
  183.4950  177.0260  139.0130 C   0  0  2  0  0  3  0  0  0  0  0  0
  182.9190  178.2040  142.6000 C   0  0  0  0  0  3  0  0  0  0  0  0
  179.6070  179.9730  138.3040 C   0  0  0  0  0  2  0  0  0  0  0  0
  184.6920  178.7280  141.0230 C   0  0  0  0  0  0  0  0  0  0  0  0
  185.3930  179.3780  142.0440 C   0  0  0  0  0  3  0  0  0  0  0  0
  182.5970  176.4990  137.8660 C   0  0  0  0  0  2  0  0  0  0  0  0
  181.1110  178.0580  138.3530 N   0  0  1  0  0  0  0  0  0  0  0  0
  179.7360  178.4640  138.0860 C   0  0  0  0  0  2  0  0  0  0  0  0
  185.6290  176.5340  137.3990 O   0  0  0  0  0  0  0  0  0  0  0  0
  186.5870  177.5230  137.6830 C   0  0  2  0  0  3  0  0  0  0  0  0
  185.1950  177.8710  137.3140 C   0  0  2  0  0  3  0  0  0  0  0  0
  190.0780  176.3890  137.3060 C   0  0  1  0  0  3  0  0  0  0  0  0
  187.9370  176.2520  135.9950 C   0  0  0  0  0  2  0  0  0  0  0  0
  188.4680  179.7530  137.2180 O   0  0  0  0  0  1  0  0  0  0  0  0
  190.9290  175.6880  138.3450 C   0  0  0  0  0  1  0  0  0  0  0  0
  188.8400  175.5460  137.0100 C   0  0  0  0  0  2  0  0  0  0  0  0
  188.7930  178.4660  136.7920 C   0  0  2  0  0  3  0  0  0  0  0  0
  187.5310  177.6450  136.4860 C   0  0  2  0  0  3  0  0  0  0  0  0
  189.6770  177.7670  137.8220 C   0  0  0  0  0  2  0  0  0  0  0  0
  1  9  1  0  0  0  0
  2  5  1  1  0  0  0
  3  7  1  6  0  0  0
  3  2  1  0  0  0  0
  4 11  1  6  0  0  0
  4  7  1  0  0  0  0
  5 14  1  0  0  0  0
  6  1  1  0  0  0  0
  8 13  1  0  0  0  0
  8 12  1  1  0  0  0
 10 19  1  0  0  0  0
 12 16  1  0  0  0  0
 13 18  1  6  0  0  0
 13  2  1  0  0  0  0
 14  1  2  0  0  0  0
 15  4  1  0  0  0  0
 16  5  2  0  0  0  0
 16 17  1  0  0  0  0
 17  6  2  0  0  0  0
 18 10  1  0  0  0  0
 19 20  1  1  0  0  0
 19  3  1  0  0  0  0
 20 15  1  0  0  0  0
 22 21  1  6  0  0  0
 23 21  1  1  0  0  0
 23 22  1  0  0  0  0
 23  8  1  0  0  0  0
 24 31  1  0  0  0  0
 24 27  1  1  0  0  0
 25 28  1  0  0  0  0
 28 24  1  0  0  0  0
 29 26  1  1  0  0  0
 29 31  1  0  0  0  0
 30 25  1  1  0  0  0
 30 29  1  0  0  0  0
 30 22  1  0  0  0  0
M  END
>  <MODEL>
2

>  <REMARK>
 VINA RESULT:      -6.4      5.830      8.963
  Name = 
  2 active torsions:
  status: ('A' for Active; 'I' for Inactive)
    1  A    between atoms: C_5  and  C_30
    2  A    between atoms: C_10  and  C_16
                            x       y       z     vdW  Elec       q    Type
                         _______ _______ _______ _____ _____    ______ ____

>  <TORSDO>
F 2

$$$$
=
 OpenBabel11122411033D

 31 36  0  0  1  0  0  0  0  0999 V2000
  182.2510  171.3600  135.9310 C   0  0  0  0  0  0  0  0  0  0  0  0
  183.4150  174.9180  135.2880 C   0  0  2  0  0  3  0  0  0  0  0  0
  182.6390  175.8110  136.2940 C   0  0  1  0  0  3  0  0  0  0  0  0
  181.5890  176.1620  138.5200 C   0  0  1  0  0  3  0  0  0  0  0  0
  183.4440  173.4520  135.6350 C   0  0  0  0  0  0  0  0  0  0  0  0
  183.4230  170.7540  136.3900 C   0  0  0  0  0  3  0  0  0  0  0  0
  182.4970  175.2380  137.7070 C   0  0  0  0  0  2  0  0  0  0  0  0
  185.8000  175.0890  136.0580 C   0  0  2  0  0  3  0  0  0  0  0  0
  181.1040  170.6450  135.8540 F   0  0  0  0  0  0  0  0  0  0  0  0
  183.4950  177.5750  135.1240 O   0  0  0  0  0  0  0  0  0  0  0  0
  181.5470  175.7300  139.8440 O   0  0  0  0  0  1  0  0  0  0  0  0
  185.9410  173.5650  136.1050 C   0  0  0  0  0  2  0  0  0  0  0  0
  184.8080  175.4870  134.9510 C   0  0  2  0  0  3  0  0  0  0  0  0
  182.2620  172.7060  135.5560 C   0  0  0  0  0  3  0  0  0  0  0  0
  182.0800  177.6100  138.4660 C   0  0  0  0  0  2  0  0  0  0  0  0
  184.6250  172.8410  136.1060 C   0  0  0  0  0  0  0  0  0  0  0  0
  184.6070  171.4910  136.4690 C   0  0  0  0  0  3  0  0  0  0  0  0
  184.7410  177.0220  134.7550 C   0  0  0  0  0  2  0  0  0  0  0  0
  183.2610  177.1370  136.3890 N   0  0  1  0  0  0  0  0  0  0  0  0
  182.3000  178.0400  137.0140 C   0  0  0  0  0  2  0  0  0  0  0  0
  188.1280  174.9070  136.5360 O   0  0  0  0  0  0  0  0  0  0  0  0
  187.7650  176.1250  137.1360 C   0  0  2  0  0  3  0  0  0  0  0  0
  187.1850  175.6900  135.8440 C   0  0  2  0  0  3  0  0  0  0  0  0
  189.9950  177.7020  139.6180 C   0  0  1  0  0  3  0  0  0  0  0  0
  190.2250  176.5230  137.4080 C   0  0  0  0  0  2  0  0  0  0  0  0
  187.4780  179.0630  137.2240 O   0  0  0  0  0  1  0  0  0  0  0  0
  189.9770  177.5040  141.1190 C   0  0  0  0  0  1  0  0  0  0  0  0
  190.2470  176.3610  138.9300 C   0  0  0  0  0  2  0  0  0  0  0  0
  188.6640  178.4650  137.6490 C   0  0  2  0  0  3  0  0  0  0  0  0
  188.9020  177.1270  136.9320 C   0  0  2  0  0  3  0  0  0  0  0  0
  188.6630  178.2930  139.1660 C   0  0  0  0  0  2  0  0  0  0  0  0
  1  6  1  0  0  0  0
  2  5  1  1  0  0  0
  2  3  1  0  0  0  0
  3 19  1  0  0  0  0
  3  7  1  1  0  0  0
  4 11  1  1  0  0  0
  5 16  2  0  0  0  0
  6 17  2  0  0  0  0
  7  4  1  0  0  0  0
  8 12  1  6  0  0  0
  9  1  1  0  0  0  0
 10 19  1  0  0  0  0
 12 16  1  0  0  0  0
 13 18  1  1  0  0  0
 13  2  1  0  0  0  0
 13  8  1  0  0  0  0
 14  5  1  0  0  0  0
 14  1  2  0  0  0  0
 15  4  1  0  0  0  0
 16 17  1  0  0  0  0
 18 10  1  0  0  0  0
 19 20  1  6  0  0  0
 20 15  1  0  0  0  0
 22 21  1  6  0  0  0
 23  8  1  0  0  0  0
 23 21  1  1  0  0  0
 23 22  1  0  0  0  0
 24 27  1  1  0  0  0
 25 28  1  0  0  0  0
 28 24  1  0  0  0  0
 29 26  1  6  0  0  0
 29 31  1  0  0  0  0
 30 22  1  0  0  0  0
 30 25  1  1  0  0  0
 30 29  1  0  0  0  0
 31 24  1  0  0  0  0
M  END
>  <MODEL>
3

>  <REMARK>
 VINA RESULT:      -6.3      4.133      7.198
  Name = 
  2 active torsions:
  status: ('A' for Active; 'I' for Inactive)
    1  A    between atoms: C_5  and  C_30
    2  A    between atoms: C_10  and  C_16
                            x       y       z     vdW  Elec       q    Type
                         _______ _______ _______ _____ _____    ______ ____

>  <TORSDO>
F 2

$$$$
=
 OpenBabel11122411033D

 31 36  0  0  1  0  0  0  0  0999 V2000
  191.1540  173.6540  135.6160 C   0  0  0  0  0  0  0  0  0  0  0  0
  188.7020  176.4370  136.4330 C   0  0  2  0  0  3  0  0  0  0  0  0
  187.2980  175.7750  136.4610 C   0  0  1  0  0  3  0  0  0  0  0  0
  185.8250  173.8310  136.9450 C   0  0  1  0  0  3  0  0  0  0  0  0
  189.8560  175.4760  136.5550 C   0  0  0  0  0  0  0  0  0  0  0  0
  191.9130  173.5880  136.7870 C   0  0  0  0  0  3  0  0  0  0  0  0
  187.2320  174.4010  137.1350 C   0  0  0  0  0  2  0  0  0  0  0  0
  189.0890  177.1150  138.8210 C   0  0  2  0  0  3  0  0  0  0  0  0
  191.4100  172.8040  134.5940 F   0  0  0  0  0  0  0  0  0  0  0  0
  186.4860  177.9060  136.5930 O   0  0  0  0  0  0  0  0  0  0  0  0
  185.7040  172.6400  137.6570 O   0  0  0  0  0  1  0  0  0  0  0  0
  190.4400  176.3960  138.8530 C   0  0  0  0  0  2  0  0  0  0  0  0
  188.8070  177.6330  137.4000 C   0  0  2  0  0  3  0  0  0  0  0  0
  190.1280  174.5950  135.5010 C   0  0  0  0  0  3  0  0  0  0  0  0
  184.7580  174.8220  137.4140 C   0  0  0  0  0  2  0  0  0  0  0  0
  190.6180  175.4040  137.7400 C   0  0  0  0  0  0  0  0  0  0  0  0
  191.6500  174.4650  137.8410 C   0  0  0  0  0  3  0  0  0  0  0  0
  187.5250  178.5010  137.3420 C   0  0  0  0  0  2  0  0  0  0  0  0
  186.3260  176.6610  137.1140 N   0  0  1  0  0  0  0  0  0  0  0  0
  184.9880  176.1910  136.7710 C   0  0  0  0  0  2  0  0  0  0  0  0
  189.8380  177.7890  140.9810 O   0  0  0  0  0  0  0  0  0  0  0  0
  188.4370  177.8060  141.1000 C   0  0  2  0  0  3  0  0  0  0  0  0
  189.1180  178.2340  139.8560 C   0  0  2  0  0  3  0  0  0  0  0  0
  187.0460  177.8980  144.5170 C   0  0  1  0  0  3  0  0  0  0  0  0
  188.8820  179.0420  143.2360 C   0  0  0  0  0  2  0  0  0  0  0  0
  185.7370  179.0000  141.2010 O   0  0  0  0  0  1  0  0  0  0  0  0
  186.7210  176.7140  145.4030 C   0  0  0  0  0  1  0  0  0  0  0  0
  188.5330  177.8800  144.1700 C   0  0  0  0  0  2  0  0  0  0  0  0
  186.5460  179.0070  142.3370 C   0  0  2  0  0  3  0  0  0  0  0  0
  188.0360  179.0050  141.9600 C   0  0  2  0  0  3  0  0  0  0  0  0
  186.1990  177.8320  143.2490 C   0  0  0  0  0  2  0  0  0  0  0  0
  1  6  1  0  0  0  0
  2  3  1  0  0  0  0
  2  5  1  1  0  0  0
  2 13  1  0  0  0  0
  3 19  1  0  0  0  0
  3  7  1  1  0  0  0
  4  7  1  0  0  0  0
  4 15  1  0  0  0  0
  4 11  1  1  0  0  0
  5 16  2  0  0  0  0
  6 17  2  0  0  0  0
  8 12  1  6  0  0  0
  8 23  1  0  0  0  0
  9  1  1  0  0  0  0
 10 19  1  0  0  0  0
 10 18  1  0  0  0  0
 13 18  1  1  0  0  0
 13  8  1  0  0  0  0
 14  1  2  0  0  0  0
 14  5  1  0  0  0  0
 16 17  1  0  0  0  0
 16 12  1  0  0  0  0
 19 20  1  6  0  0  0
 20 15  1  0  0  0  0
 22 21  1  1  0  0  0
 22 30  1  0  0  0  0
 23 21  1  1  0  0  0
 23 22  1  0  0  0  0
 24 27  1  1  0  0  0
 25 28  1  0  0  0  0
 28 24  1  0  0  0  0
 29 26  1  6  0  0  0
 29 31  1  0  0  0  0
 30 29  1  0  0  0  0
 30 25  1  1  0  0  0
 31 24  1  0  0  0  0
M  END
>  <MODEL>
4

>  <REMARK>
 VINA RESULT:      -6.1      1.816      2.344
  Name = 
  2 active torsions:
  status: ('A' for Active; 'I' for Inactive)
    1  A    between atoms: C_5  and  C_30
    2  A    between atoms: C_10  and  C_16
                            x       y       z     vdW  Elec       q    Type
                         _______ _______ _______ _____ _____    ______ ____

>  <TORSDO>
F 2

$$$$
=
 OpenBabel11122411033D

 31 36  0  0  1  0  0  0  0  0999 V2000
  180.0760  179.3710  142.5850 C   0  0  0  0  0  0  0  0  0  0  0  0
  182.8620  179.1660  140.0110 C   0  0  2  0  0  3  0  0  0  0  0  0
  184.1860  179.1080  140.8180 C   0  0  1  0  0  3  0  0  0  0  0  0
  185.4780  178.3940  142.8190 C   0  0  1  0  0  3  0  0  0  0  0  0
  181.6250  178.8220  140.8000 C   0  0  0  0  0  0  0  0  0  0  0  0
  179.4040  178.1640  142.3770 C   0  0  0  0  0  3  0  0  0  0  0  0
  184.1580  178.2220  142.0670 C   0  0  0  0  0  2  0  0  0  0  0  0
  182.7270  176.9040  138.9250 C   0  0  2  0  0  3  0  0  0  0  0  0
  179.6560  180.2220  143.5510 F   0  0  0  0  0  0  0  0  0  0  0  0
  185.2250  179.3770  138.8020 O   0  0  0  0  0  0  0  0  0  0  0  0
  185.5260  177.5030  143.8890 O   0  0  0  0  0  1  0  0  0  0  0  0
  181.3140  176.6770  139.4680 C   0  0  0  0  0  2  0  0  0  0  0  0
  182.9550  178.4050  138.6730 C   0  0  2  0  0  3  0  0  0  0  0  0
  181.1840  179.6980  141.7990 C   0  0  0  0  0  3  0  0  0  0  0  0
  186.6760  178.1560  141.8970 C   0  0  0  0  0  2  0  0  0  0  0  0
  180.9500  177.5990  140.5960 C   0  0  0  0  0  0  0  0  0  0  0  0
  179.8360  177.2860  141.3810 C   0  0  0  0  0  3  0  0  0  0  0  0
  184.3140  178.6790  137.9800 C   0  0  0  0  0  2  0  0  0  0  0  0
  185.2920  178.6670  139.9600 N   0  0  1  0  0  0  0  0  0  0  0  0
  186.5440  179.0030  140.6300 C   0  0  0  0  0  2  0  0  0  0  0  0
  182.9550  174.7100  138.0230 O   0  0  0  0  0  0  0  0  0  0  0  0
  184.1750  175.3270  137.6950 C   0  0  2  0  0  3  0  0  0  0  0  0
  182.8930  176.0690  137.6600 C   0  0  2  0  0  3  0  0  0  0  0  0
  186.8420  172.9850  136.6850 C   0  0  1  0  0  3  0  0  0  0  0  0
  184.4090  173.3520  136.1680 C   0  0  0  0  0  2  0  0  0  0  0  0
  186.2520  176.6100  136.0330 O   0  0  0  0  0  1  0  0  0  0  0  0
  187.8080  172.2530  137.5930 C   0  0  0  0  0  1  0  0  0  0  0  0
  185.4100  172.5910  137.0410 C   0  0  0  0  0  2  0  0  0  0  0  0
  186.0460  175.2340  135.9520 C   0  0  2  0  0  3  0  0  0  0  0  0
  184.5950  174.8660  136.2990 C   0  0  2  0  0  3  0  0  0  0  0  0
  187.0380  174.4900  136.8420 C   0  0  0  0  0  2  0  0  0  0  0  0
  1  9  1  0  0  0  0
  2  5  1  1  0  0  0
  2  3  1  0  0  0  0
  3  7  1  1  0  0  0
  4 11  1  1  0  0  0
  5 14  1  0  0  0  0
  6  1  1  0  0  0  0
  7  4  1  0  0  0  0
  8 12  1  6  0  0  0
 10 19  1  0  0  0  0
 12 16  1  0  0  0  0
 13 18  1  1  0  0  0
 13  8  1  0  0  0  0
 13  2  1  0  0  0  0
 14  1  2  0  0  0  0
 15  4  1  0  0  0  0
 16  5  2  0  0  0  0
 16 17  1  0  0  0  0
 17  6  2  0  0  0  0
 18 10  1  0  0  0  0
 19 20  1  1  0  0  0
 19  3  1  0  0  0  0
 20 15  1  0  0  0  0
 22 21  1  1  0  0  0
 23 22  1  0  0  0  0
 23 21  1  1  0  0  0
 23  8  1  0  0  0  0
 24 31  1  0  0  0  0
 24 28  1  0  0  0  0
 24 27  1  1  0  0  0
 25 28  1  0  0  0  0
 29 26  1  1  0  0  0
 29 30  1  0  0  0  0
 29 31  1  0  0  0  0
 30 25  1  1  0  0  0
 30 22  1  0  0  0  0
M  END
>  <MODEL>
5

>  <REMARK>
 VINA RESULT:      -5.9      5.962      9.991
  Name = 
  2 active torsions:
  status: ('A' for Active; 'I' for Inactive)
    1  A    between atoms: C_5  and  C_30
    2  A    between atoms: C_10  and  C_16
                            x       y       z     vdW  Elec       q    Type
                         _______ _______ _______ _____ _____    ______ ____

>  <TORSDO>
F 2

$$$$
=
 OpenBabel11122411033D

 31 36  0  0  1  0  0  0  0  0999 V2000
  182.2420  174.2020  135.4290 C   0  0  0  0  0  0  0  0  0  0  0  0
  181.4810  177.3140  137.4700 C   0  0  2  0  0  3  0  0  0  0  0  0
  180.4200  176.8890  138.5190 C   0  0  1  0  0  3  0  0  0  0  0  0
  179.4440  175.1930  140.0530 C   0  0  1  0  0  3  0  0  0  0  0  0
  182.2420  176.1750  136.8420 C   0  0  0  0  0  0  0  0  0  0  0  0
  183.5820  173.9700  135.7490 C   0  0  0  0  0  3  0  0  0  0  0  0
  180.6470  175.5200  139.1670 C   0  0  0  0  0  2  0  0  0  0  0  0
  183.5130  177.8300  138.8550 C   0  0  2  0  0  3  0  0  0  0  0  0
  181.5900  173.3600  134.5940 F   0  0  0  0  0  0  0  0  0  0  0  0
  180.2430  179.1160  138.9900 O   0  0  0  0  0  0  0  0  0  0  0  0
  179.6850  174.0110  140.7510 O   0  0  0  0  0  1  0  0  0  0  0  0
  184.3840  176.9010  138.0050 C   0  0  0  0  0  2  0  0  0  0  0  0
  182.3990  178.4400  137.9860 C   0  0  2  0  0  3  0  0  0  0  0  0
  181.5740  175.3010  135.9760 C   0  0  0  0  0  3  0  0  0  0  0  0
  179.1610  176.3260  141.0420 C   0  0  0  0  0  2  0  0  0  0  0  0
  183.5930  175.9350  137.1700 C   0  0  0  0  0  0  0  0  0  0  0  0
  184.2560  174.8380  136.6110 C   0  0  0  0  0  3  0  0  0  0  0  0
  181.5800  179.5070  138.7560 C   0  0  0  0  0  2  0  0  0  0  0  0
  180.3160  177.8950  139.5820 N   0  0  1  0  0  0  0  0  0  0  0  0
  179.0690  177.6620  140.3030 C   0  0  0  0  0  2  0  0  0  0  0  0
  185.7400  178.6540  139.0700 O   0  0  0  0  0  0  0  0  0  0  0  0
  185.4080  178.2600  140.3780 C   0  0  2  0  0  3  0  0  0  0  0  0
  184.4140  178.8910  139.4790 C   0  0  2  0  0  3  0  0  0  0  0  0
  187.4780  177.7080  143.3830 C   0  0  1  0  0  3  0  0  0  0  0  0
  187.5300  179.1820  141.3460 C   0  0  0  0  0  2  0  0  0  0  0  0
  184.1000  179.2010  142.8530 O   0  0  0  0  0  1  0  0  0  0  0  0
  187.9320  176.3790  143.9480 C   0  0  0  0  0  1  0  0  0  0  0  0
  188.0120  177.8650  141.9600 C   0  0  0  0  0  2  0  0  0  0  0  0
  185.4890  179.0980  142.7950 C   0  0  2  0  0  3  0  0  0  0  0  0
  186.0010  179.2750  141.3570 C   0  0  2  0  0  3  0  0  0  0  0  0
  185.9530  177.7720  143.3930 C   0  0  0  0  0  2  0  0  0  0  0  0
  1  6  2  0  0  0  0
  1 14  1  0  0  0  0
  2  5  1  1  0  0  0
  2 13  1  0  0  0  0
  2  3  1  0  0  0  0
  3  7  1  1  0  0  0
  3 19  1  0  0  0  0
  4 11  1  1  0  0  0
  4 15  1  0  0  0  0
  5 16  1  0  0  0  0
  6 17  1  0  0  0  0
  7  4  1  0  0  0  0
  8 12  1  6  0  0  0
  8 23  1  0  0  0  0
  9  1  1  0  0  0  0
 10 19  1  0  0  0  0
 13 18  1  1  0  0  0
 13  8  1  0  0  0  0
 14  5  2  0  0  0  0
 16 12  1  0  0  0  0
 17 16  2  0  0  0  0
 18 10  1  0  0  0  0
 19 20  1  6  0  0  0
 20 15  1  0  0  0  0
 22 21  1  6  0  0  0
 22 30  1  0  0  0  0
 23 21  1  6  0  0  0
 23 22  1  0  0  0  0
 24 31  1  0  0  0  0
 24 27  1  6  0  0  0
 25 28  1  0  0  0  0
 28 24  1  0  0  0  0
 29 26  1  6  0  0  0
 29 31  1  0  0  0  0
 30 25  1  1  0  0  0
 30 29  1  0  0  0  0
M  END
>  <MODEL>
6

>  <REMARK>
 VINA RESULT:      -5.7      5.720      7.780
  Name = 
  2 active torsions:
  status: ('A' for Active; 'I' for Inactive)
    1  A    between atoms: C_5  and  C_30
    2  A    between atoms: C_10  and  C_16
                            x       y       z     vdW  Elec       q    Type
                         _______ _______ _______ _____ _____    ______ ____

>  <TORSDO>
F 2

$$$$
=
 OpenBabel11122411033D

 31 36  0  0  1  0  0  0  0  0999 V2000
  181.3700  178.9840  140.8340 C   0  0  0  0  0  0  0  0  0  0  0  0
  184.5270  178.6220  138.7530 C   0  0  2  0  0  3  0  0  0  0  0  0
  185.7110  178.7130  139.7520 C   0  0  1  0  0  3  0  0  0  0  0  0
  186.6950  178.2830  141.9950 C   0  0  1  0  0  3  0  0  0  0  0  0
  183.1920  178.3120  139.3800 C   0  0  0  0  0  0  0  0  0  0  0  0
  180.7720  177.7330  140.6680 C   0  0  0  0  0  3  0  0  0  0  0  0
  185.5130  177.9700  141.0770 C   0  0  0  0  0  2  0  0  0  0  0  0
  184.6250  176.2510  137.9280 C   0  0  2  0  0  3  0  0  0  0  0  0
  180.7820  179.9170  141.6200 F   0  0  0  0  0  0  0  0  0  0  0  0
  187.0420  178.8050  137.8990 O   0  0  0  0  0  0  0  0  0  0  0  0
  186.6000  177.5190  143.1560 O   0  0  0  0  0  1  0  0  0  0  0  0
  183.1510  176.0220  138.2740 C   0  0  0  0  0  2  0  0  0  0  0  0
  184.8480  177.7230  137.5420 C   0  0  2  0  0  3  0  0  0  0  0  0
  182.5770  179.2720  140.1930 C   0  0  0  0  0  3  0  0  0  0  0  0
  188.0280  178.0000  141.2990 C   0  0  0  0  0  2  0  0  0  0  0  0
  182.5910  177.0450  139.2190 C   0  0  0  0  0  0  0  0  0  0  0  0
  181.3770  176.7700  139.8570 C   0  0  0  0  0  3  0  0  0  0  0  0
  186.2890  177.9800  137.0350 C   0  0  0  0  0  2  0  0  0  0  0  0
  186.9480  178.2310  139.1280 N   0  0  1  0  0  0  0  0  0  0  0  0
  188.0710  178.6950  139.9360 C   0  0  0  0  0  2  0  0  0  0  0  0
  185.1720  174.0030  137.3560 O   0  0  0  0  0  0  0  0  0  0  0  0
  186.3500  174.7110  137.0600 C   0  0  2  0  0  3  0  0  0  0  0  0
  185.0090  175.2890  136.8090 C   0  0  2  0  0  3  0  0  0  0  0  0
  189.8610  173.8800  136.2880 C   0  0  1  0  0  3  0  0  0  0  0  0
  187.6100  172.7780  136.0800 C   0  0  0  0  0  2  0  0  0  0  0  0
  187.4330  176.3020  134.8190 O   0  0  0  0  0  1  0  0  0  0  0  0
  191.0620  174.0570  137.1920 C   0  0  0  0  0  1  0  0  0  0  0  0
  188.8570  172.9400  136.9530 C   0  0  0  0  0  2  0  0  0  0  0  0
  187.9920  175.0630  135.1300 C   0  0  2  0  0  3  0  0  0  0  0  0
  186.9590  174.1320  135.7830 C   0  0  2  0  0  3  0  0  0  0  0  0
  189.2230  175.2390  136.0170 C   0  0  0  0  0  2  0  0  0  0  0  0
  1  9  1  0  0  0  0
  2  5  1  1  0  0  0
  2  3  1  0  0  0  0
  3  7  1  1  0  0  0
  4 11  1  1  0  0  0
  5 14  1  0  0  0  0
  6  1  1  0  0  0  0
  7  4  1  0  0  0  0
  8 12  1  6  0  0  0
 10 19  1  0  0  0  0
 12 16  1  0  0  0  0
 13 18  1  1  0  0  0
 13  8  1  0  0  0  0
 13  2  1  0  0  0  0
 14  1  2  0  0  0  0
 15  4  1  0  0  0  0
 16  5  2  0  0  0  0
 16 17  1  0  0  0  0
 17  6  2  0  0  0  0
 18 10  1  0  0  0  0
 19  3  1  0  0  0  0
 19 20  1  1  0  0  0
 20 15  1  0  0  0  0
 22 21  1  1  0  0  0
 23 22  1  0  0  0  0
 23 21  1  1  0  0  0
 23  8  1  0  0  0  0
 24 28  1  0  0  0  0
 24 27  1  1  0  0  0
 25 28  1  0  0  0  0
 29 26  1  1  0  0  0
 29 30  1  0  0  0  0
 29 31  1  0  0  0  0
 30 25  1  1  0  0  0
 30 22  1  0  0  0  0
 31 24  1  0  0  0  0
M  END
>  <MODEL>
7

>  <REMARK>
 VINA RESULT:      -5.7      4.622      8.738
  Name = 
  2 active torsions:
  status: ('A' for Active; 'I' for Inactive)
    1  A    between atoms: C_5  and  C_30
    2  A    between atoms: C_10  and  C_16
                            x       y       z     vdW  Elec       q    Type
                         _______ _______ _______ _____ _____    ______ ____

>  <TORSDO>
F 2

$$$$
=
 OpenBabel11122411033D

 31 36  0  0  1  0  0  0  0  0999 V2000
  191.0450  176.7030  139.2680 C   0  0  0  0  0  0  0  0  0  0  0  0
  188.6570  176.7450  142.2210 C   0  0  2  0  0  3  0  0  0  0  0  0
  189.4860  177.2430  143.4350 C   0  0  1  0  0  3  0  0  0  0  0  0
  191.2870  178.6620  144.3960 C   0  0  1  0  0  3  0  0  0  0  0  0
  189.2610  177.0500  140.8740 C   0  0  0  0  0  0  0  0  0  0  0  0
  190.4890  177.6760  138.4350 C   0  0  0  0  0  3  0  0  0  0  0  0
  190.4500  178.3970  143.1440 C   0  0  0  0  0  2  0  0  0  0  0  0
  187.0010  178.5940  141.8320 C   0  0  2  0  0  3  0  0  0  0  0  0
  192.1810  176.0640  138.8980 F   0  0  0  0  0  0  0  0  0  0  0  0
  187.6710  176.6620  144.6930 O   0  0  0  0  0  0  0  0  0  0  0  0
  192.0810  179.7900  144.1970 O   0  0  0  0  0  1  0  0  0  0  0  0
  187.3910  178.6940  140.3550 C   0  0  0  0  0  2  0  0  0  0  0  0
  187.1710  177.1450  142.3200 C   0  0  2  0  0  3  0  0  0  0  0  0
  190.4340  176.3920  140.4850 C   0  0  0  0  0  3  0  0  0  0  0  0
  190.3980  178.8690  145.6240 C   0  0  0  0  0  2  0  0  0  0  0  0
  188.7030  178.0390  140.0360 C   0  0  0  0  0  0  0  0  0  0  0  0
  189.3180  178.3360  138.8150 C   0  0  0  0  0  3  0  0  0  0  0  0
  186.6470  176.9520  143.7660 C   0  0  0  0  0  2  0  0  0  0  0  0
  188.5990  177.6420  144.5330 N   0  0  1  0  0  0  0  0  0  0  0  0
  189.3970  177.7190  145.7520 C   0  0  0  0  0  2  0  0  0  0  0  0
  184.7450  178.0110  142.3350 O   0  0  0  0  0  0  0  0  0  0  0  0
  184.6820  178.4380  140.9960 C   0  0  2  0  0  3  0  0  0  0  0  0
  185.5690  179.0970  141.9840 C   0  0  2  0  0  3  0  0  0  0  0  0
  181.8330  177.7550  138.7530 C   0  0  1  0  0  3  0  0  0  0  0  0
  182.1820  178.3540  141.1700 C   0  0  0  0  0  2  0  0  0  0  0  0
  184.2760  180.5650  138.9880 O   0  0  0  0  0  1  0  0  0  0  0  0
  181.6900  176.6020  137.7820 C   0  0  0  0  0  1  0  0  0  0  0  0
  181.9900  177.2100  140.1720 C   0  0  0  0  0  2  0  0  0  0  0  0
  183.2110  179.7460  139.3610 C   0  0  2  0  0  3  0  0  0  0  0  0
  183.3860  179.2240  140.7960 C   0  0  2  0  0  3  0  0  0  0  0  0
  183.0440  178.5990  138.3670 C   0  0  0  0  0  2  0  0  0  0  0  0
  1 14  1  0  0  0  0
  2  5  1  6  0  0  0
  2 13  1  0  0  0  0
  2  3  1  0  0  0  0
  3  7  1  6  0  0  0
  3 19  1  0  0  0  0
  4 11  1  6  0  0  0
  4 15  1  0  0  0  0
  6 17  1  0  0  0  0
  6  1  2  0  0  0  0
  7  4  1  0  0  0  0
  8 12  1  6  0  0  0
  8 23  1  0  0  0  0
  8 13  1  0  0  0  0
  9  1  1  0  0  0  0
 13 18  1  1  0  0  0
 14  5  2  0  0  0  0
 15 20  1  0  0  0  0
 16 12  1  0  0  0  0
 16  5  1  0  0  0  0
 17 16  2  0  0  0  0
 18 10  1  0  0  0  0
 19 10  1  0  0  0  0
 19 20  1  1  0  0  0
 22 23  1  0  0  0  0
 22 21  1  1  0  0  0
 23 21  1  1  0  0  0
 24 27  1  6  0  0  0
 24 28  1  0  0  0  0
 28 25  1  0  0  0  0
 29 26  1  6  0  0  0
 29 30  1  0  0  0  0
 30 22  1  0  0  0  0
 30 25  1  6  0  0  0
 31 24  1  0  0  0  0
 31 29  1  0  0  0  0
M  END
>  <MODEL>
8

>  <REMARK>
 VINA RESULT:      -5.7      3.941      7.680
  Name = 
  2 active torsions:
  status: ('A' for Active; 'I' for Inactive)
    1  A    between atoms: C_5  and  C_30
    2  A    between atoms: C_10  and  C_16
                            x       y       z     vdW  Elec       q    Type
                         _______ _______ _______ _____ _____    ______ ____

>  <TORSDO>
F 2

$$$$
=
 OpenBabel11122411033D

 31 36  0  0  1  0  0  0  0  0999 V2000
  190.8010  177.2070  141.2800 C   0  0  0  0  0  0  0  0  0  0  0  0
  190.1420  175.5110  137.9460 C   0  0  2  0  0  3  0  0  0  0  0  0
  188.9900  176.3110  137.2800 C   0  0  1  0  0  3  0  0  0  0  0  0
  187.8040  178.4520  136.8460 C   0  0  1  0  0  3  0  0  0  0  0  0
  190.8560  176.2380  139.0570 C   0  0  0  0  0  0  0  0  0  0  0  0
  192.0980  177.6930  141.1040 C   0  0  0  0  0  3  0  0  0  0  0  0
  189.0780  177.8330  137.4210 C   0  0  0  0  0  2  0  0  0  0  0  0
  192.1170  175.9630  136.4610 C   0  0  2  0  0  3  0  0  0  0  0  0
  190.1420  177.4420  142.4400 F   0  0  0  0  0  0  0  0  0  0  0  0
  188.9450  174.6270  135.7380 O   0  0  0  0  0  0  0  0  0  0  0  0
  187.9160  179.8410  136.8480 O   0  0  0  0  0  1  0  0  0  0  0  0
  192.9690  176.4070  137.6520 C   0  0  0  0  0  2  0  0  0  0  0  0
  191.1050  174.8960  136.9110 C   0  0  2  0  0  3  0  0  0  0  0  0
  190.1810  176.4830  140.2590 C   0  0  0  0  0  3  0  0  0  0  0  0
  187.5420  177.9590  135.4210 C   0  0  0  0  0  2  0  0  0  0  0  0
  192.1640  176.7350  138.8760 C   0  0  0  0  0  0  0  0  0  0  0  0
  192.7790  177.4510  139.9080 C   0  0  0  0  0  3  0  0  0  0  0  0
  190.3190  174.2980  135.7170 C   0  0  0  0  0  2  0  0  0  0  0  0
  188.8940  175.9800  135.8530 N   0  0  1  0  0  0  0  0  0  0  0  0
  187.5920  176.4310  135.3730 C   0  0  0  0  0  2  0  0  0  0  0  0
  193.3930  174.1200  135.6490 O   0  0  0  0  0  0  0  0  0  0  0  0
  194.3680  175.0910  135.9400 C   0  0  2  0  0  3  0  0  0  0  0  0
  193.0520  175.4560  135.3670 C   0  0  2  0  0  3  0  0  0  0  0  0
  197.8190  173.8000  136.1340 C   0  0  1  0  0  3  0  0  0  0  0  0
  195.8440  173.5760  134.5940 C   0  0  0  0  0  2  0  0  0  0  0  0
  196.3970  177.1810  135.4510 O   0  0  0  0  0  1  0  0  0  0  0  0
  198.5060  173.2040  137.3440 C   0  0  0  0  0  1  0  0  0  0  0  0
  196.5850  172.9690  135.7880 C   0  0  0  0  0  2  0  0  0  0  0  0
  196.7070  175.8400  135.2230 C   0  0  2  0  0  3  0  0  0  0  0  0
  195.4510  175.0310  134.8630 C   0  0  2  0  0  3  0  0  0  0  0  0
  197.4270  175.2440  136.4300 C   0  0  0  0  0  2  0  0  0  0  0  0
  1  9  1  0  0  0  0
  2  5  1  1  0  0  0
  3  7  1  6  0  0  0
  3  2  1  0  0  0  0
  4 11  1  6  0  0  0
  4  7  1  0  0  0  0
  5 14  1  0  0  0  0
  6  1  1  0  0  0  0
  8 13  1  0  0  0  0
  8 12  1  1  0  0  0
 10 19  1  0  0  0  0
 12 16  1  0  0  0  0
 13 18  1  6  0  0  0
 13  2  1  0  0  0  0
 14  1  2  0  0  0  0
 15  4  1  0  0  0  0
 16  5  2  0  0  0  0
 16 17  1  0  0  0  0
 17  6  2  0  0  0  0
 18 10  1  0  0  0  0
 19 20  1  1  0  0  0
 19  3  1  0  0  0  0
 20 15  1  0  0  0  0
 22 21  1  6  0  0  0
 23 21  1  1  0  0  0
 23 22  1  0  0  0  0
 23  8  1  0  0  0  0
 24 31  1  0  0  0  0
 24 27  1  1  0  0  0
 25 28  1  0  0  0  0
 28 24  1  0  0  0  0
 29 26  1  1  0  0  0
 29 31  1  0  0  0  0
 30 25  1  1  0  0  0
 30 29  1  0  0  0  0
 30 22  1  0  0  0  0
M  END
>  <MODEL>
9

>  <REMARK>
 VINA RESULT:      -5.7      3.255      7.056
  Name = 
  2 active torsions:
  status: ('A' for Active; 'I' for Inactive)
    1  A    between atoms: C_5  and  C_30
    2  A    between atoms: C_10  and  C_16
                            x       y       z     vdW  Elec       q    Type
                         _______ _______ _______ _____ _____    ______ ____

>  <TORSDO>
F 2

$$$$
