=
 OpenBabel11122412183D

 34 41  0  0  1  0  0  0  0  0999 V2000
  189.1170  177.2920  143.3420 C   0  0  0  0  0  0  0  0  0  0  0  0
  187.4800  177.4240  145.3030 C   0  0  0  0  0  3  0  0  0  0  0  0
  191.2430  175.4460  138.0420 C   0  0  2  0  0  3  0  0  0  0  0  0
  190.5820  177.2150  141.3820 C   0  0  0  0  0  0  0  0  0  0  0  0
  189.7510  177.8380  139.2420 C   0  0  0  0  0  0  0  0  0  0  0  0
  189.3630  176.7250  137.0220 C   0  0  0  0  0  2  0  0  0  0  0  0
  190.5020  175.7280  136.7520 C   0  0  0  0  0  2  0  0  0  0  0  0
  192.2330  176.5940  138.1090 C   0  0  1  0  0  3  0  0  0  0  0  0
  186.8330  178.0060  143.0860 C   0  0  0  0  0  0  0  0  0  0  0  0
  183.9930  179.0000  142.2460 C   0  0  0  0  0  3  0  0  0  0  0  0
  188.5060  178.0940  139.8120 C   0  0  0  0  0  3  0  0  0  0  0  0
  192.1690  177.1560  139.5220 C   0  0  0  0  0  2  0  0  0  0  0  0
  187.0210  178.1880  141.7300 N   0  0  0  0  0  0  0  0  0  0  0  0
  186.0240  177.8550  145.2750 C   0  0  0  0  0  3  0  0  0  0  0  0
  190.7930  177.3900  140.0330 N   0  0  0  0  0  0  0  0  0  0  0  0
  192.7290  175.1730  137.9480 C   0  0  0  0  0  2  0  0  0  0  0  0
  184.3920  178.6740  143.4650 C   0  0  0  0  0  0  0  0  0  0  0  0
  189.3070  177.4820  141.9580 C   0  0  0  0  0  0  0  0  0  0  0  0
  189.8330  178.0010  137.7440 C   0  0  0  0  0  2  0  0  0  0  0  0
  188.2730  177.9220  141.1850 C   0  0  0  0  0  0  0  0  0  0  0  0
  191.4160  176.5800  143.5890 C   0  0  0  0  0  3  0  0  0  0  0  0
  184.7490  178.9730  141.0070 C   0  0  0  0  0  3  0  0  0  0  0  0
  191.6200  176.7630  142.2220 C   0  0  0  0  0  3  0  0  0  0  0  0
  186.0130  178.6330  140.7970 C   0  0  0  0  0  3  0  0  0  0  0  0
  185.7410  178.1980  143.8370 C   0  0  0  0  0  0  0  0  0  0  0  0
  190.1690  176.8440  144.1470 C   0  0  0  0  0  3  0  0  0  0  0  0
  187.8680  177.5610  143.8810 C   0  0  0  0  0  0  0  0  0  0  0  0
  183.3640  178.8270  144.5400 C   0  0  0  0  0  2  0  0  0  0  0  0
  182.1100  179.4790  143.9800 C   0  0  0  0  0  2  0  0  0  0  0  0
  178.9310  179.4590  143.2920 O   0  0  0  0  0  0  0  0  0  0  0  0
  180.7210  178.2500  142.3410 C   0  0  0  0  0  2  0  0  0  0  0  0
  181.0110  178.4460  143.8020 C   0  0  2  0  0  3  0  0  0  0  0  0
  179.2710  178.6450  142.2030 C   0  0  0  0  0  2  0  0  0  0  0  0
  179.7150  178.9910  144.3570 C   0  0  0  0  0  2  0  0  0  0  0  0
  1 27  2  0  0  0  0
  1 26  1  0  0  0  0
  3  7  1  6  0  0  0
  3  8  1  0  0  0  0
  4 18  1  0  0  0  0
  4 23  2  0  0  0  0
  5 11  2  0  0  0  0
  5 15  1  0  0  0  0
  6 19  1  0  0  0  0
  7  6  1  0  0  0  0
  8 16  1  1  0  0  0
  8 12  1  0  0  0  0
  9 25  2  0  0  0  0
  9 27  1  0  0  0  0
 10 17  2  0  0  0  0
 11 20  1  0  0  0  0
 12 15  1  0  0  0  0
 13  9  1  0  0  0  0
 14  2  2  0  0  0  0
 15  4  1  0  0  0  0
 16  3  1  0  0  0  0
 17 25  1  0  0  0  0
 17 28  1  0  0  0  0
 18  1  1  0  0  0  0
 19  5  1  0  0  0  0
 20 13  1  0  0  0  0
 20 18  2  0  0  0  0
 21 26  2  0  0  0  0
 22 10  1  0  0  0  0
 23 21  1  0  0  0  0
 24 22  2  0  0  0  0
 24 13  1  0  0  0  0
 25 14  1  0  0  0  0
 27  2  1  0  0  0  0
 29 28  1  0  0  0  0
 30 34  1  0  0  0  0
 31 32  1  0  0  0  0
 32 29  1  6  0  0  0
 32 34  1  0  0  0  0
 33 31  1  0  0  0  0
 33 30  1  0  0  0  0
M  END
>  <MODEL>
1

>  <REMARK>
 VINA RESULT:     -10.7      0.000      0.000
  Name = 
  3 active torsions:
  status: ('A' for Active; 'I' for Inactive)
    1  A    between atoms: C_17  and  C_28
    2  A    between atoms: C_28  and  C_29
    3  A    between atoms: C_29  and  C_32
                            x       y       z     vdW  Elec       q    Type
                         _______ _______ _______ _____ _____    ______ ____

>  <TORSDO>
F 3

$$$$
=
 OpenBabel11122412183D

 34 41  0  0  1  0  0  0  0  0999 V2000
  185.9230  178.3040  145.3580 C   0  0  0  0  0  0  0  0  0  0  0  0
  183.4740  178.6660  144.7140 C   0  0  0  0  0  3  0  0  0  0  0  0
  191.2330  175.5100  145.5230 C   0  0  2  0  0  3  0  0  0  0  0  0
  188.3000  177.9640  145.8380 C   0  0  0  0  0  0  0  0  0  0  0  0
  189.8730  177.8330  144.0580 C   0  0  0  0  0  0  0  0  0  0  0  0
  191.4450  176.1140  143.1150 C   0  0  0  0  0  2  0  0  0  0  0  0
  192.0530  175.3000  144.2690 C   0  0  0  0  0  2  0  0  0  0  0  0
  191.8190  176.7900  146.0870 C   0  0  1  0  0  3  0  0  0  0  0  0
  185.1940  178.5070  143.0740 C   0  0  0  0  0  0  0  0  0  0  0  0
  184.7570  178.7200  139.9880 C   0  0  0  0  0  3  0  0  0  0  0  0
  188.8370  178.0080  143.1440 C   0  0  0  0  0  3  0  0  0  0  0  0
  190.6500  177.6900  146.4600 C   0  0  0  0  0  2  0  0  0  0  0  0
  186.4900  178.3490  142.6250 N   0  0  0  0  0  0  0  0  0  0  0  0
  182.8880  178.8080  143.3200 C   0  0  0  0  0  3  0  0  0  0  0  0
  189.6000  177.8050  145.4140 N   0  0  0  0  0  0  0  0  0  0  0  0
  191.9640  175.4890  146.8480 C   0  0  0  0  0  2  0  0  0  0  0  0
  183.8310  178.8090  140.9280 C   0  0  0  0  0  0  0  0  0  0  0  0
  187.2470  178.1470  144.8970 C   0  0  0  0  0  0  0  0  0  0  0  0
  191.2400  177.6000  143.4650 C   0  0  0  0  0  2  0  0  0  0  0  0
  187.5060  178.1720  143.5580 C   0  0  0  0  0  0  0  0  0  0  0  0
  186.6690  178.1030  147.6510 C   0  0  0  0  0  3  0  0  0  0  0  0
  186.1840  178.4950  140.1380 C   0  0  0  0  0  3  0  0  0  0  0  0
  187.9820  177.9460  147.2110 C   0  0  0  0  0  3  0  0  0  0  0  0
  186.9020  178.3410  141.2410 C   0  0  0  0  0  3  0  0  0  0  0  0
  184.0610  178.6970  142.3850 C   0  0  0  0  0  0  0  0  0  0  0  0
  185.6420  178.2820  146.7280 C   0  0  0  0  0  3  0  0  0  0  0  0
  184.9150  178.4830  144.4230 C   0  0  0  0  0  0  0  0  0  0  0  0
  182.4410  179.0610  140.4400 C   0  0  0  0  0  2  0  0  0  0  0  0
  181.7320  177.7440  140.1690 C   0  0  0  0  0  2  0  0  0  0  0  0
  179.4320  177.4490  142.4500 O   0  0  0  0  0  0  0  0  0  0  0  0
  179.9080  179.2170  140.9610 C   0  0  0  0  0  2  0  0  0  0  0  0
  180.2270  177.9230  140.2690 C   0  0  2  0  0  3  0  0  0  0  0  0
  179.1350  178.7930  142.1860 C   0  0  0  0  0  2  0  0  0  0  0  0
  179.6560  176.8700  141.1920 C   0  0  0  0  0  2  0  0  0  0  0  0
  1 26  1  0  0  0  0
  3  7  1  6  0  0  0
  3  8  1  0  0  0  0
  3 16  1  0  0  0  0
  4 23  2  0  0  0  0
  5 15  1  0  0  0  0
  6 19  1  0  0  0  0
  6  7  1  0  0  0  0
  8 12  1  1  0  0  0
  8 16  1  0  0  0  0
  9 27  1  0  0  0  0
 10 22  1  0  0  0  0
 10 17  2  0  0  0  0
 11 20  1  0  0  0  0
 11  5  2  0  0  0  0
 13  9  1  0  0  0  0
 13 20  1  0  0  0  0
 14  2  2  0  0  0  0
 15  4  1  0  0  0  0
 15 12  1  0  0  0  0
 17 25  1  0  0  0  0
 18  1  1  0  0  0  0
 18  4  1  0  0  0  0
 19  5  1  0  0  0  0
 20 18  2  0  0  0  0
 22 24  2  0  0  0  0
 23 21  1  0  0  0  0
 24 13  1  0  0  0  0
 25  9  2  0  0  0  0
 25 14  1  0  0  0  0
 26 21  2  0  0  0  0
 27  2  1  0  0  0  0
 27  1  2  0  0  0  0
 28 17  1  0  0  0  0
 29 28  1  0  0  0  0
 31 33  1  0  0  0  0
 32 29  1  1  0  0  0
 32 31  1  0  0  0  0
 32 34  1  0  0  0  0
 33 30  1  0  0  0  0
 34 30  1  0  0  0  0
M  END
>  <MODEL>
2

>  <REMARK>
 VINA RESULT:     -10.4      2.746      4.734
  Name = 
  3 active torsions:
  status: ('A' for Active; 'I' for Inactive)
    1  A    between atoms: C_17  and  C_28
    2  A    between atoms: C_28  and  C_29
    3  A    between atoms: C_29  and  C_32
                            x       y       z     vdW  Elec       q    Type
                         _______ _______ _______ _____ _____    ______ ____

>  <TORSDO>
F 3

$$$$
=
 OpenBabel11122412183D

 34 41  0  0  1  0  0  0  0  0999 V2000
  186.1260  178.3030  145.5320 C   0  0  0  0  0  0  0  0  0  0  0  0
  183.7170  178.7380  144.7920 C   0  0  0  0  0  3  0  0  0  0  0  0
  191.3210  175.3260  145.9450 C   0  0  2  0  0  3  0  0  0  0  0  0
  188.4710  177.8890  146.1040 C   0  0  0  0  0  0  0  0  0  0  0  0
  190.1000  177.6640  144.3860 C   0  0  0  0  0  0  0  0  0  0  0  0
  191.6410  175.8700  143.5340 C   0  0  0  0  0  2  0  0  0  0  0  0
  192.1780  175.0590  144.7260 C   0  0  0  0  0  2  0  0  0  0  0  0
  191.9330  176.5950  146.5050 C   0  0  1  0  0  3  0  0  0  0  0  0
  185.4870  178.4830  143.2190 C   0  0  0  0  0  0  0  0  0  0  0  0
  185.1680  178.6470  140.1150 C   0  0  0  0  0  3  0  0  0  0  0  0
  189.1050  177.8560  143.4310 C   0  0  0  0  0  3  0  0  0  0  0  0
  190.7850  177.5440  146.8160 C   0  0  0  0  0  2  0  0  0  0  0  0
  186.7920  178.2700  142.8210 N   0  0  0  0  0  0  0  0  0  0  0  0
  183.1860  178.8720  143.3750 C   0  0  0  0  0  3  0  0  0  0  0  0
  189.7780  177.6740  145.7310 N   0  0  0  0  0  0  0  0  0  0  0  0
  192.0040  175.3070  147.2950 C   0  0  0  0  0  2  0  0  0  0  0  0
  184.2130  178.7880  141.0200 C   0  0  0  0  0  0  0  0  0  0  0  0
  187.4590  178.0890  145.1220 C   0  0  0  0  0  0  0  0  0  0  0  0
  191.4780  177.3690  143.8470 C   0  0  0  0  0  2  0  0  0  0  0  0
  187.7670  178.0770  143.7940 C   0  0  0  0  0  0  0  0  0  0  0  0
  186.7820  178.1240  147.8540 C   0  0  0  0  0  3  0  0  0  0  0  0
  186.5800  178.3740  140.3220 C   0  0  0  0  0  3  0  0  0  0  0  0
  188.1030  177.9110  147.4640 C   0  0  0  0  0  3  0  0  0  0  0  0
  187.2520  178.2170  141.4530 C   0  0  0  0  0  3  0  0  0  0  0  0
  184.3870  178.6990  142.4860 C   0  0  0  0  0  0  0  0  0  0  0  0
  185.7970  178.3200  146.8910 C   0  0  0  0  0  3  0  0  0  0  0  0
  185.1590  178.4980  144.5580 C   0  0  0  0  0  0  0  0  0  0  0  0
  182.8510  179.0790  140.4760 C   0  0  0  0  0  2  0  0  0  0  0  0
  182.9600  179.8520  139.1710 C   0  0  0  0  0  2  0  0  0  0  0  0
  180.0880  181.1970  139.8980 O   0  0  0  0  0  0  0  0  0  0  0  0
  181.4260  181.3720  137.9620 C   0  0  0  0  0  2  0  0  0  0  0  0
  181.5930  179.9890  138.5230 C   0  0  2  0  0  3  0  0  0  0  0  0
  180.2410  181.9280  138.7120 C   0  0  0  0  0  2  0  0  0  0  0  0
  180.5210  179.8990  139.5860 C   0  0  0  0  0  2  0  0  0  0  0  0
  1 26  1  0  0  0  0
  3  7  1  6  0  0  0
  3  8  1  0  0  0  0
  3 16  1  0  0  0  0
  4 23  2  0  0  0  0
  5 15  1  0  0  0  0
  6 19  1  0  0  0  0
  6  7  1  0  0  0  0
  8 12  1  1  0  0  0
  8 16  1  0  0  0  0
  9 27  1  0  0  0  0
 10 22  1  0  0  0  0
 10 17  2  0  0  0  0
 11 20  1  0  0  0  0
 11  5  2  0  0  0  0
 13  9  1  0  0  0  0
 13 20  1  0  0  0  0
 14  2  2  0  0  0  0
 15  4  1  0  0  0  0
 15 12  1  0  0  0  0
 17 25  1  0  0  0  0
 18  1  1  0  0  0  0
 18  4  1  0  0  0  0
 19  5  1  0  0  0  0
 20 18  2  0  0  0  0
 22 24  2  0  0  0  0
 23 21  1  0  0  0  0
 24 13  1  0  0  0  0
 25  9  2  0  0  0  0
 25 14  1  0  0  0  0
 26 21  2  0  0  0  0
 27  2  1  0  0  0  0
 27  1  2  0  0  0  0
 28 17  1  0  0  0  0
 29 28  1  0  0  0  0
 31 32  1  0  0  0  0
 31 33  1  0  0  0  0
 32 29  1  1  0  0  0
 32 34  1  0  0  0  0
 33 30  1  0  0  0  0
 34 30  1  0  0  0  0
M  END
>  <MODEL>
3

>  <REMARK>
 VINA RESULT:     -10.3      2.970      5.169
  Name = 
  3 active torsions:
  status: ('A' for Active; 'I' for Inactive)
    1  A    between atoms: C_17  and  C_28
    2  A    between atoms: C_28  and  C_29
    3  A    between atoms: C_29  and  C_32
                            x       y       z     vdW  Elec       q    Type
                         _______ _______ _______ _____ _____    ______ ____

>  <TORSDO>
F 3

$$$$
=
 OpenBabel11122412183D

 34 41  0  0  1  0  0  0  0  0999 V2000
  186.0430  178.2830  145.3540 C   0  0  0  0  0  0  0  0  0  0  0  0
  183.6560  178.6920  144.5320 C   0  0  0  0  0  3  0  0  0  0  0  0
  191.2600  175.3720  145.9300 C   0  0  2  0  0  3  0  0  0  0  0  0
  188.3710  177.8960  146.0070 C   0  0  0  0  0  0  0  0  0  0  0  0
  190.0640  177.7060  144.3460 C   0  0  0  0  0  0  0  0  0  0  0  0
  191.6590  175.9400  143.5370 C   0  0  0  0  0  2  0  0  0  0  0  0
  192.1630  175.1270  144.7400 C   0  0  0  0  0  2  0  0  0  0  0  0
  191.8350  176.6450  146.5210 C   0  0  1  0  0  3  0  0  0  0  0  0
  185.4850  178.4740  143.0210 C   0  0  0  0  0  0  0  0  0  0  0  0
  185.2750  178.6580  139.9100 C   0  0  0  0  0  3  0  0  0  0  0  0
  189.1010  177.8930  143.3580 C   0  0  0  0  0  3  0  0  0  0  0  0
  190.6630  177.5760  146.7990 C   0  0  0  0  0  2  0  0  0  0  0  0
  186.8050  178.2810  142.6680 N   0  0  0  0  0  0  0  0  0  0  0  0
  183.1750  178.8300  143.0980 C   0  0  0  0  0  3  0  0  0  0  0  0
  189.6940  177.7010  145.6790 N   0  0  0  0  0  0  0  0  0  0  0  0
  191.8950  175.3510  147.3040 C   0  0  0  0  0  2  0  0  0  0  0  0
  184.2860  178.7790  140.7800 C   0  0  0  0  0  0  0  0  0  0  0  0
  187.3930  178.0900  144.9910 C   0  0  0  0  0  0  0  0  0  0  0  0
  191.4640  177.4340  143.8550 C   0  0  0  0  0  2  0  0  0  0  0  0
  187.7480  178.0930  143.6740 C   0  0  0  0  0  0  0  0  0  0  0  0
  186.6180  178.0940  147.6970 C   0  0  0  0  0  3  0  0  0  0  0  0
  186.6820  178.4020  140.1640 C   0  0  0  0  0  3  0  0  0  0  0  0
  187.9550  177.9020  147.3530 C   0  0  0  0  0  3  0  0  0  0  0  0
  187.3150  178.2460  141.3180 C   0  0  0  0  0  3  0  0  0  0  0  0
  184.4090  178.6810  142.2510 C   0  0  0  0  0  0  0  0  0  0  0  0
  185.6650  178.2850  146.7000 C   0  0  0  0  0  3  0  0  0  0  0  0
  185.1090  178.4730  144.3480 C   0  0  0  0  0  0  0  0  0  0  0  0
  182.9410  179.0570  140.1910 C   0  0  0  0  0  2  0  0  0  0  0  0
  182.9820  178.8840  138.6810 C   0  0  0  0  0  2  0  0  0  0  0  0
  183.0040  175.6370  138.8690 O   0  0  0  0  0  0  0  0  0  0  0  0
  181.3330  177.2030  139.4400 C   0  0  0  0  0  2  0  0  0  0  0  0
  182.0870  177.7340  138.2550 C   0  0  2  0  0  3  0  0  0  0  0  0
  181.7810  175.7650  139.5420 C   0  0  0  0  0  2  0  0  0  0  0  0
  182.9430  176.5660  137.8190 C   0  0  0  0  0  2  0  0  0  0  0  0
  1 26  1  0  0  0  0
  3  7  1  6  0  0  0
  3  8  1  0  0  0  0
  3 16  1  0  0  0  0
  4 23  2  0  0  0  0
  5 15  1  0  0  0  0
  6 19  1  0  0  0  0
  6  7  1  0  0  0  0
  8 12  1  1  0  0  0
  8 16  1  0  0  0  0
  9 27  1  0  0  0  0
 10 22  1  0  0  0  0
 10 17  2  0  0  0  0
 11 20  1  0  0  0  0
 11  5  2  0  0  0  0
 13  9  1  0  0  0  0
 13 20  1  0  0  0  0
 14  2  2  0  0  0  0
 15  4  1  0  0  0  0
 15 12  1  0  0  0  0
 17 25  1  0  0  0  0
 18  1  1  0  0  0  0
 18  4  1  0  0  0  0
 19  5  1  0  0  0  0
 20 18  2  0  0  0  0
 22 24  2  0  0  0  0
 23 21  1  0  0  0  0
 24 13  1  0  0  0  0
 25  9  2  0  0  0  0
 25 14  1  0  0  0  0
 26 21  2  0  0  0  0
 27  2  1  0  0  0  0
 27  1  2  0  0  0  0
 28 17  1  0  0  0  0
 29 28  1  0  0  0  0
 30 33  1  0  0  0  0
 31 33  1  0  0  0  0
 32 29  1  1  0  0  0
 32 31  1  0  0  0  0
 34 32  1  0  0  0  0
 34 30  1  0  0  0  0
M  END
>  <MODEL>
4

>  <REMARK>
 VINA RESULT:     -10.2      3.125      5.336
  Name = 
  3 active torsions:
  status: ('A' for Active; 'I' for Inactive)
    1  A    between atoms: C_17  and  C_28
    2  A    between atoms: C_28  and  C_29
    3  A    between atoms: C_29  and  C_32
                            x       y       z     vdW  Elec       q    Type
                         _______ _______ _______ _____ _____    ______ ____

>  <TORSDO>
F 3

$$$$
=
 OpenBabel11122412183D

 34 41  0  0  1  0  0  0  0  0999 V2000
  185.4700  178.3600  144.9170 C   0  0  0  0  0  0  0  0  0  0  0  0
  182.9890  178.6270  144.3550 C   0  0  0  0  0  3  0  0  0  0  0  0
  190.8930  175.7890  144.8760 C   0  0  2  0  0  3  0  0  0  0  0  0
  187.8740  178.1140  145.3170 C   0  0  0  0  0  0  0  0  0  0  0  0
  189.3930  178.0710  143.4870 C   0  0  0  0  0  0  0  0  0  0  0  0
  191.0040  176.4310  142.4710 C   0  0  0  0  0  2  0  0  0  0  0  0
  191.6810  175.6280  143.5940 C   0  0  0  0  0  2  0  0  0  0  0  0
  191.4440  177.0850  145.4390 C   0  0  1  0  0  3  0  0  0  0  0  0
  184.6610  178.5610  142.6600 C   0  0  0  0  0  0  0  0  0  0  0  0
  184.1170  178.7950  139.5920 C   0  0  0  0  0  3  0  0  0  0  0  0
  188.3220  178.2140  142.6080 C   0  0  0  0  0  3  0  0  0  0  0  0
  190.2510  177.9300  145.8610 C   0  0  0  0  0  2  0  0  0  0  0  0
  185.9470  178.4630  142.1680 N   0  0  0  0  0  0  0  0  0  0  0  0
  182.3540  178.7630  142.9830 C   0  0  0  0  0  3  0  0  0  0  0  0
  189.1650  178.0140  144.8500 N   0  0  0  0  0  0  0  0  0  0  0  0
  191.6670  175.7810  146.1770 C   0  0  0  0  0  2  0  0  0  0  0  0
  183.2190  178.8330  140.5630 C   0  0  0  0  0  0  0  0  0  0  0  0
  186.7840  178.2640  144.4120 C   0  0  0  0  0  0  0  0  0  0  0  0
  190.7490  177.9020  142.8480 C   0  0  0  0  0  2  0  0  0  0  0  0
  186.9990  178.3170  143.0670 C   0  0  0  0  0  0  0  0  0  0  0  0
  186.2970  178.1620  147.1820 C   0  0  0  0  0  3  0  0  0  0  0  0
  185.5560  178.6280  139.6940 C   0  0  0  0  0  3  0  0  0  0  0  0
  187.6000  178.0650  146.6990 C   0  0  0  0  0  3  0  0  0  0  0  0
  186.3150  178.4900  140.7720 C   0  0  0  0  0  3  0  0  0  0  0  0
  183.5000  178.7120  142.0100 C   0  0  0  0  0  0  0  0  0  0  0  0
  185.2350  178.3090  146.2950 C   0  0  0  0  0  3  0  0  0  0  0  0
  184.4260  178.5080  144.0170 C   0  0  0  0  0  0  0  0  0  0  0  0
  181.8040  179.0330  140.1220 C   0  0  0  0  0  2  0  0  0  0  0  0
  181.7640  179.8250  138.8250 C   0  0  0  0  0  2  0  0  0  0  0  0
  179.8220  182.0210  137.4160 O   0  0  0  0  0  0  0  0  0  0  0  0
  179.9160  181.2520  139.6450 C   0  0  0  0  0  2  0  0  0  0  0  0
  181.3110  181.2500  139.0900 C   0  0  2  0  0  3  0  0  0  0  0  0
  179.1210  182.0360  138.6300 C   0  0  0  0  0  2  0  0  0  0  0  0
  181.1770  181.9870  137.7760 C   0  0  0  0  0  2  0  0  0  0  0  0
  1 26  1  0  0  0  0
  3  7  1  6  0  0  0
  3  8  1  0  0  0  0
  3 16  1  0  0  0  0
  4 23  2  0  0  0  0
  5 15  1  0  0  0  0
  6 19  1  0  0  0  0
  6  7  1  0  0  0  0
  8 12  1  1  0  0  0
  8 16  1  0  0  0  0
  9 27  1  0  0  0  0
 10 22  1  0  0  0  0
 10 17  2  0  0  0  0
 11 20  1  0  0  0  0
 11  5  2  0  0  0  0
 13  9  1  0  0  0  0
 13 20  1  0  0  0  0
 14  2  2  0  0  0  0
 15  4  1  0  0  0  0
 15 12  1  0  0  0  0
 17 25  1  0  0  0  0
 18  1  1  0  0  0  0
 18  4  1  0  0  0  0
 19  5  1  0  0  0  0
 20 18  2  0  0  0  0
 22 24  2  0  0  0  0
 23 21  1  0  0  0  0
 24 13  1  0  0  0  0
 25  9  2  0  0  0  0
 25 14  1  0  0  0  0
 26 21  2  0  0  0  0
 27  2  1  0  0  0  0
 27  1  2  0  0  0  0
 28 17  1  0  0  0  0
 29 28  1  0  0  0  0
 30 34  1  0  0  0  0
 30 33  1  0  0  0  0
 32 29  1  6  0  0  0
 32 31  1  0  0  0  0
 33 31  1  0  0  0  0
 34 32  1  0  0  0  0
M  END
>  <MODEL>
5

>  <REMARK>
 VINA RESULT:      -9.8      2.927      5.002
  Name = 
  3 active torsions:
  status: ('A' for Active; 'I' for Inactive)
    1  A    between atoms: C_17  and  C_28
    2  A    between atoms: C_28  and  C_29
    3  A    between atoms: C_29  and  C_32
                            x       y       z     vdW  Elec       q    Type
                         _______ _______ _______ _____ _____    ______ ____

>  <TORSDO>
F 3

$$$$
=
 OpenBabel11122412183D

 34 41  0  0  1  0  0  0  0  0999 V2000
  190.0590  177.2680  142.2650 C   0  0  0  0  0  0  0  0  0  0  0  0
  190.7060  177.5150  139.8020 C   0  0  0  0  0  3  0  0  0  0  0  0
  187.9600  178.9850  147.6200 C   0  0  2  0  0  3  0  0  0  0  0  0
  189.3060  177.0600  144.5850 C   0  0  0  0  0  0  0  0  0  0  0  0
  187.0250  177.4430  145.1420 C   0  0  0  0  0  0  0  0  0  0  0  0
  185.7200  179.0800  146.5330 C   0  0  0  0  0  2  0  0  0  0  0  0
  186.5210  179.4140  147.8030 C   0  0  0  0  0  2  0  0  0  0  0  0
  187.9180  177.5180  148.0040 C   0  0  1  0  0  3  0  0  0  0  0  0
  188.4730  177.8600  140.5550 C   0  0  0  0  0  0  0  0  0  0  0  0
  186.0600  178.6270  138.7240 C   0  0  0  0  0  3  0  0  0  0  0  0
  186.7550  177.7140  143.8030 C   0  0  0  0  0  3  0  0  0  0  0  0
  188.6750  176.7530  146.9290 C   0  0  0  0  0  2  0  0  0  0  0  0
  187.4590  177.9270  141.4900 N   0  0  0  0  0  0  0  0  0  0  0  0
  189.8070  177.8820  138.6350 C   0  0  0  0  0  3  0  0  0  0  0  0
  188.3110  177.1200  145.5360 N   0  0  0  0  0  0  0  0  0  0  0  0
  188.7060  178.5000  148.8440 C   0  0  0  0  0  2  0  0  0  0  0  0
  187.3100  178.4220  138.3440 C   0  0  0  0  0  0  0  0  0  0  0  0
  189.0200  177.3340  143.2170 C   0  0  0  0  0  0  0  0  0  0  0  0
  185.8660  177.6120  146.0930 C   0  0  0  0  0  2  0  0  0  0  0  0
  187.7560  177.6560  142.8210 C   0  0  0  0  0  0  0  0  0  0  0  0
  191.6430  176.6690  143.9920 C   0  0  0  0  0  3  0  0  0  0  0  0
  185.4950  178.5620  140.0610 C   0  0  0  0  0  3  0  0  0  0  0  0
  190.6280  176.7310  144.9450 C   0  0  0  0  0  3  0  0  0  0  0  0
  186.0840  178.2690  141.2120 C   0  0  0  0  0  3  0  0  0  0  0  0
  188.4390  178.0670  139.2320 C   0  0  0  0  0  0  0  0  0  0  0  0
  191.3600  176.9370  142.6560 C   0  0  0  0  0  3  0  0  0  0  0  0
  189.7560  177.5370  140.9380 C   0  0  0  0  0  0  0  0  0  0  0  0
  187.5660  178.5540  136.8780 C   0  0  0  0  0  2  0  0  0  0  0  0
  186.8000  177.4880  136.1110 C   0  0  0  0  0  2  0  0  0  0  0  0
  186.9330  174.5880  134.6430 O   0  0  0  0  0  0  0  0  0  0  0  0
  188.6350  175.9030  135.6150 C   0  0  0  0  0  2  0  0  0  0  0  0
  187.3740  176.1120  136.4030 C   0  0  2  0  0  3  0  0  0  0  0  0
  188.3260  174.7100  134.7430 C   0  0  0  0  0  2  0  0  0  0  0  0
  186.4350  175.0530  135.8690 C   0  0  0  0  0  2  0  0  0  0  0  0
  1 26  1  0  0  0  0
  1 18  1  0  0  0  0
  2 27  1  0  0  0  0
  3  7  1  1  0  0  0
  3  8  1  0  0  0  0
  3 16  1  0  0  0  0
  4 23  2  0  0  0  0
  4 15  1  0  0  0  0
  5 15  1  0  0  0  0
  5 19  1  0  0  0  0
  6  7  1  0  0  0  0
  8 12  1  6  0  0  0
  8 16  1  0  0  0  0
  9 27  1  0  0  0  0
  9 13  1  0  0  0  0
 10 22  1  0  0  0  0
 11  5  2  0  0  0  0
 13 20  1  0  0  0  0
 14 25  1  0  0  0  0
 14  2  2  0  0  0  0
 15 12  1  0  0  0  0
 17 10  2  0  0  0  0
 17 25  1  0  0  0  0
 18  4  1  0  0  0  0
 19  6  1  0  0  0  0
 20 18  2  0  0  0  0
 20 11  1  0  0  0  0
 21 23  1  0  0  0  0
 22 24  2  0  0  0  0
 24 13  1  0  0  0  0
 25  9  2  0  0  0  0
 26 21  2  0  0  0  0
 27  1  2  0  0  0  0
 28 17  1  0  0  0  0
 29 28  1  0  0  0  0
 30 33  1  0  0  0  0
 30 34  1  0  0  0  0
 31 32  1  0  0  0  0
 32 29  1  6  0  0  0
 33 31  1  0  0  0  0
 34 32  1  0  0  0  0
M  END
>  <MODEL>
6

>  <REMARK>
 VINA RESULT:      -9.6      3.465      7.574
  Name = 
  3 active torsions:
  status: ('A' for Active; 'I' for Inactive)
    1  A    between atoms: C_17  and  C_28
    2  A    between atoms: C_28  and  C_29
    3  A    between atoms: C_29  and  C_32
                            x       y       z     vdW  Elec       q    Type
                         _______ _______ _______ _____ _____    ______ ____

>  <TORSDO>
F 3

$$$$
=
 OpenBabel11122412183D

 34 41  0  0  1  0  0  0  0  0999 V2000
  185.9710  178.3700  141.2790 C   0  0  0  0  0  0  0  0  0  0  0  0
  188.2400  177.9580  142.3840 C   0  0  0  0  0  3  0  0  0  0  0  0
  180.2230  177.3110  139.9130 C   0  0  2  0  0  3  0  0  0  0  0  0
  183.7420  178.7770  140.3500 C   0  0  0  0  0  0  0  0  0  0  0  0
  181.8780  179.0710  141.7980 C   0  0  0  0  0  0  0  0  0  0  0  0
  179.7200  177.8780  142.2870 C   0  0  0  0  0  2  0  0  0  0  0  0
  179.1450  177.3190  140.9750 C   0  0  0  0  0  2  0  0  0  0  0  0
  180.1560  178.7250  139.3670 C   0  0  1  0  0  3  0  0  0  0  0  0
  186.2580  178.2750  143.6660 C   0  0  0  0  0  0  0  0  0  0  0  0
  186.1160  178.2530  146.7870 C   0  0  0  0  0  3  0  0  0  0  0  0
  182.7160  178.8980  142.8960 C   0  0  0  0  0  3  0  0  0  0  0  0
  181.5860  179.2420  139.2930 C   0  0  0  0  0  2  0  0  0  0  0  0
  184.9100  178.5010  143.8580 N   0  0  0  0  0  0  0  0  0  0  0  0
  188.5540  177.8750  143.8670 C   0  0  0  0  0  3  0  0  0  0  0  0
  182.3940  179.0040  140.5170 N   0  0  0  0  0  0  0  0  0  0  0  0
  179.7950  177.5520  138.4810 C   0  0  0  0  0  2  0  0  0  0  0  0
  187.1960  178.0870  146.0400 C   0  0  0  0  0  0  0  0  0  0  0  0
  184.5940  178.6050  141.4780 C   0  0  0  0  0  0  0  0  0  0  0  0
  180.4120  179.2420  142.1120 C   0  0  0  0  0  2  0  0  0  0  0  0
  184.0930  178.6670  142.7450 C   0  0  0  0  0  0  0  0  0  0  0  0
  185.6690  178.4730  138.8800 C   0  0  0  0  0  3  0  0  0  0  0  0
  184.7450  178.4720  146.3630 C   0  0  0  0  0  3  0  0  0  0  0  0
  184.3070  178.7060  139.0610 C   0  0  0  0  0  3  0  0  0  0  0  0
  184.2470  178.5750  145.1380 C   0  0  0  0  0  3  0  0  0  0  0  0
  187.2370  178.0940  144.5620 C   0  0  0  0  0  0  0  0  0  0  0  0
  186.4990  178.3070  139.9860 C   0  0  0  0  0  3  0  0  0  0  0  0
  186.7810  178.2080  142.3920 C   0  0  0  0  0  0  0  0  0  0  0  0
  188.4740  177.8930  146.7920 C   0  0  0  0  0  2  0  0  0  0  0  0
  189.2930  176.7800  146.1590 C   0  0  0  0  0  2  0  0  0  0  0  0
  191.8380  175.4960  147.7270 O   0  0  0  0  0  0  0  0  0  0  0  0
  191.5710  176.1090  145.4640 C   0  0  0  0  0  2  0  0  0  0  0  0
  190.7770  177.0670  146.3050 C   0  0  2  0  0  3  0  0  0  0  0  0
  192.4310  175.3730  146.4630 C   0  0  0  0  0  2  0  0  0  0  0  0
  191.2140  176.7530  147.7180 C   0  0  0  0  0  2  0  0  0  0  0  0
  1 18  1  0  0  0  0
  1 27  2  0  0  0  0
  2 27  1  0  0  0  0
  2 14  2  0  0  0  0
  3 16  1  6  0  0  0
  3  7  1  0  0  0  0
  4 15  1  0  0  0  0
  4 18  1  0  0  0  0
  5 19  1  0  0  0  0
  5 11  2  0  0  0  0
  7  6  1  0  0  0  0
  8 16  1  6  0  0  0
  8  3  1  0  0  0  0
  9 13  1  0  0  0  0
  9 25  2  0  0  0  0
 12  8  1  0  0  0  0
 12 15  1  0  0  0  0
 13 24  1  0  0  0  0
 14 25  1  0  0  0  0
 15  5  1  0  0  0  0
 17 10  2  0  0  0  0
 17 28  1  0  0  0  0
 18 20  2  0  0  0  0
 19  6  1  0  0  0  0
 20 11  1  0  0  0  0
 20 13  1  0  0  0  0
 21 23  1  0  0  0  0
 21 26  2  0  0  0  0
 22 10  1  0  0  0  0
 23  4  2  0  0  0  0
 24 22  2  0  0  0  0
 25 17  1  0  0  0  0
 26  1  1  0  0  0  0
 27  9  1  0  0  0  0
 29 28  1  0  0  0  0
 31 32  1  0  0  0  0
 31 33  1  0  0  0  0
 32 29  1  1  0  0  0
 32 34  1  0  0  0  0
 33 30  1  0  0  0  0
 34 30  1  0  0  0  0
M  END
>  <MODEL>
7

>  <REMARK>
 VINA RESULT:      -9.2      3.977      8.430
  Name = 
  3 active torsions:
  status: ('A' for Active; 'I' for Inactive)
    1  A    between atoms: C_17  and  C_28
    2  A    between atoms: C_28  and  C_29
    3  A    between atoms: C_29  and  C_32
                            x       y       z     vdW  Elec       q    Type
                         _______ _______ _______ _____ _____    ______ ____

>  <TORSDO>
F 3

$$$$
=
 OpenBabel11122412183D

 34 41  0  0  1  0  0  0  0  0999 V2000
  182.8430  178.6140  143.9980 C   0  0  0  0  0  0  0  0  0  0  0  0
  184.4760  178.2620  145.9350 C   0  0  0  0  0  3  0  0  0  0  0  0
  180.4410  181.3600  139.2310 C   0  0  2  0  0  3  0  0  0  0  0  0
  181.3880  178.9410  142.0550 C   0  0  0  0  0  0  0  0  0  0  0  0
  182.3160  179.0210  139.8660 C   0  0  0  0  0  0  0  0  0  0  0  0
  182.5130  180.7060  138.0110 C   0  0  0  0  0  2  0  0  0  0  0  0
  181.2210  181.5380  137.9470 C   0  0  0  0  0  2  0  0  0  0  0  0
  179.6610  180.0860  138.9680 C   0  0  1  0  0  3  0  0  0  0  0  0
  185.2150  178.3720  143.6730 C   0  0  0  0  0  0  0  0  0  0  0  0
  188.1840  178.1010  142.7390 C   0  0  0  0  0  3  0  0  0  0  0  0
  183.5860  178.8380  140.4090 C   0  0  0  0  0  3  0  0  0  0  0  0
  179.8170  179.2050  140.1990 C   0  0  0  0  0  2  0  0  0  0  0  0
  185.0620  178.5080  142.3080 N   0  0  0  0  0  0  0  0  0  0  0  0
  185.9830  178.0980  145.8640 C   0  0  0  0  0  3  0  0  0  0  0  0
  181.2120  179.0790  140.6960 N   0  0  0  0  0  0  0  0  0  0  0  0
  178.9310  181.4000  139.1430 C   0  0  0  0  0  2  0  0  0  0  0  0
  187.7340  178.0400  143.9820 C   0  0  0  0  0  0  0  0  0  0  0  0
  182.6890  178.7490  142.6020 C   0  0  0  0  0  0  0  0  0  0  0  0
  182.2650  179.2290  138.3720 C   0  0  0  0  0  2  0  0  0  0  0  0
  183.7840  178.6950  141.7910 C   0  0  0  0  0  0  0  0  0  0  0  0
  180.4550  178.8530  144.3110 C   0  0  0  0  0  3  0  0  0  0  0  0
  187.4350  178.3160  141.5130 C   0  0  0  0  0  3  0  0  0  0  0  0
  180.2880  178.9890  142.9340 C   0  0  0  0  0  3  0  0  0  0  0  0
  186.1320  178.4850  141.3390 C   0  0  0  0  0  3  0  0  0  0  0  0
  186.3220  178.1790  144.4010 C   0  0  0  0  0  0  0  0  0  0  0  0
  181.7280  178.6660  144.8410 C   0  0  0  0  0  3  0  0  0  0  0  0
  184.1180  178.4260  144.5070 C   0  0  0  0  0  0  0  0  0  0  0  0
  188.7710  177.7920  145.0300 C   0  0  0  0  0  2  0  0  0  0  0  0
  189.9170  176.9760  144.4520 C   0  0  0  0  0  2  0  0  0  0  0  0
  190.9840  176.1870  147.4220 O   0  0  0  0  0  0  0  0  0  0  0  0
  191.9810  175.9080  145.3020 C   0  0  0  0  0  2  0  0  0  0  0  0
  191.1760  177.1760  145.2770 C   0  0  2  0  0  3  0  0  0  0  0  0
  192.0420  175.5430  146.7650 C   0  0  0  0  0  2  0  0  0  0  0  0
  190.7990  177.3910  146.7260 C   0  0  0  0  0  2  0  0  0  0  0  0
  1 27  2  0  0  0  0
  1 26  1  0  0  0  0
  3  7  1  6  0  0  0
  4 18  1  0  0  0  0
  4 23  2  0  0  0  0
  5 11  2  0  0  0  0
  5 15  1  0  0  0  0
  6 19  1  0  0  0  0
  7  6  1  0  0  0  0
  8 16  1  1  0  0  0
  8  3  1  0  0  0  0
  8 12  1  0  0  0  0
  9 25  2  0  0  0  0
  9 27  1  0  0  0  0
 10 17  2  0  0  0  0
 11 20  1  0  0  0  0
 12 15  1  0  0  0  0
 13  9  1  0  0  0  0
 14  2  2  0  0  0  0
 15  4  1  0  0  0  0
 16  3  1  0  0  0  0
 17 25  1  0  0  0  0
 17 28  1  0  0  0  0
 18  1  1  0  0  0  0
 19  5  1  0  0  0  0
 20 13  1  0  0  0  0
 20 18  2  0  0  0  0
 21 26  2  0  0  0  0
 22 10  1  0  0  0  0
 23 21  1  0  0  0  0
 24 22  2  0  0  0  0
 24 13  1  0  0  0  0
 25 14  1  0  0  0  0
 27  2  1  0  0  0  0
 29 28  1  0  0  0  0
 31 33  1  0  0  0  0
 32 29  1  6  0  0  0
 32 31  1  0  0  0  0
 32 34  1  0  0  0  0
 33 30  1  0  0  0  0
 34 30  1  0  0  0  0
M  END
>  <MODEL>
8

>  <REMARK>
 VINA RESULT:      -9.1      3.854      8.712
  Name = 
  3 active torsions:
  status: ('A' for Active; 'I' for Inactive)
    1  A    between atoms: C_17  and  C_28
    2  A    between atoms: C_28  and  C_29
    3  A    between atoms: C_29  and  C_32
                            x       y       z     vdW  Elec       q    Type
                         _______ _______ _______ _____ _____    ______ ____

>  <TORSDO>
F 3

$$$$
=
 OpenBabel11122412183D

 34 41  0  0  1  0  0  0  0  0999 V2000
  184.5630  178.5390  143.0590 C   0  0  0  0  0  0  0  0  0  0  0  0
  186.8830  178.1790  144.0750 C   0  0  0  0  0  3  0  0  0  0  0  0
  180.3290  181.2700  139.7980 C   0  0  2  0  0  3  0  0  0  0  0  0
  182.4010  178.8710  141.9590 C   0  0  0  0  0  0  0  0  0  0  0  0
  182.2590  178.9000  139.5850 C   0  0  0  0  0  0  0  0  0  0  0  0
  181.6310  180.5530  137.7990 C   0  0  0  0  0  2  0  0  0  0  0  0
  180.4570  181.4120  138.2970 C   0  0  0  0  0  2  0  0  0  0  0  0
  179.4960  180.0100  139.9380 C   0  0  1  0  0  3  0  0  0  0  0  0
  186.5390  178.2410  141.7190 C   0  0  0  0  0  0  0  0  0  0  0  0
  188.7780  177.8900  139.5690 C   0  0  0  0  0  3  0  0  0  0  0  0
  183.6340  178.6960  139.5100 C   0  0  0  0  0  3  0  0  0  0  0  0
  180.1710  179.1430  140.9900 C   0  0  0  0  0  2  0  0  0  0  0  0
  185.7970  178.3610  140.5610 N   0  0  0  0  0  0  0  0  0  0  0  0
  188.1990  177.9800  143.3460 C   0  0  0  0  0  3  0  0  0  0  0  0
  181.6400  178.9940  140.8180 N   0  0  0  0  0  0  0  0  0  0  0  0
  178.9370  181.3430  140.3890 C   0  0  0  0  0  2  0  0  0  0  0  0
  188.9280  177.8570  140.8830 C   0  0  0  0  0  0  0  0  0  0  0  0
  183.8060  178.6590  141.8750 C   0  0  0  0  0  0  0  0  0  0  0  0
  181.5500  179.0880  138.2660 C   0  0  0  0  0  2  0  0  0  0  0  0
  184.4250  178.5680  140.6630 C   0  0  0  0  0  0  0  0  0  0  0  0
  182.5680  178.8360  144.3960 C   0  0  0  0  0  3  0  0  0  0  0  0
  187.5660  178.1040  138.7990 C   0  0  0  0  0  3  0  0  0  0  0  0
  181.8070  178.9560  143.2340 C   0  0  0  0  0  3  0  0  0  0  0  0
  186.3240  178.3000  139.2190 C   0  0  0  0  0  3  0  0  0  0  0  0
  187.8520  178.0330  141.8830 C   0  0  0  0  0  0  0  0  0  0  0  0
  183.9420  178.6280  144.3090 C   0  0  0  0  0  3  0  0  0  0  0  0
  185.9300  178.3310  142.9520 C   0  0  0  0  0  0  0  0  0  0  0  0
  190.3190  177.6010  141.3650 C   0  0  0  0  0  2  0  0  0  0  0  0
  190.3480  176.3730  142.2610 C   0  0  0  0  0  2  0  0  0  0  0  0
  191.3580  178.2830  144.6930 O   0  0  0  0  0  0  0  0  0  0  0  0
  191.1250  175.9380  144.5700 C   0  0  0  0  0  2  0  0  0  0  0  0
  191.5290  176.4400  143.2130 C   0  0  2  0  0  3  0  0  0  0  0  0
  191.3510  177.1230  145.4780 C   0  0  0  0  0  2  0  0  0  0  0  0
  191.8950  177.8870  143.4580 C   0  0  0  0  0  2  0  0  0  0  0  0
  1 26  1  0  0  0  0
  3  7  1  6  0  0  0
  3  8  1  0  0  0  0
  3 16  1  0  0  0  0
  4 23  2  0  0  0  0
  5 15  1  0  0  0  0
  6 19  1  0  0  0  0
  6  7  1  0  0  0  0
  8 16  1  1  0  0  0
  8 12  1  0  0  0  0
  9 25  2  0  0  0  0
  9 27  1  0  0  0  0
 10 17  2  0  0  0  0
 11  5  2  0  0  0  0
 11 20  1  0  0  0  0
 13 20  1  0  0  0  0
 13  9  1  0  0  0  0
 14  2  2  0  0  0  0
 15 12  1  0  0  0  0
 15  4  1  0  0  0  0
 17 28  1  0  0  0  0
 17 25  1  0  0  0  0
 18  4  1  0  0  0  0
 18  1  1  0  0  0  0
 19  5  1  0  0  0  0
 20 18  2  0  0  0  0
 22 24  2  0  0  0  0
 22 10  1  0  0  0  0
 23 21  1  0  0  0  0
 24 13  1  0  0  0  0
 25 14  1  0  0  0  0
 26 21  2  0  0  0  0
 27  1  2  0  0  0  0
 27  2  1  0  0  0  0
 28 29  1  0  0  0  0
 30 33  1  0  0  0  0
 31 33  1  0  0  0  0
 32 29  1  6  0  0  0
 32 34  1  0  0  0  0
 32 31  1  0  0  0  0
 34 30  1  0  0  0  0
M  END
>  <MODEL>
9

>  <REMARK>
 VINA RESULT:      -8.9      3.093      8.541
  Name = 
  3 active torsions:
  status: ('A' for Active; 'I' for Inactive)
    1  A    between atoms: C_17  and  C_28
    2  A    between atoms: C_28  and  C_29
    3  A    between atoms: C_29  and  C_32
                            x       y       z     vdW  Elec       q    Type
                         _______ _______ _______ _____ _____    ______ ____

>  <TORSDO>
F 3

$$$$
