=
 OpenBabel11122411363D

 37 42  0  0  1  0  0  0  0  0999 V2000
  190.1400  177.4630  143.3790 C   0  0  0  0  0  0  0  0  0  0  0  0
  186.0410  177.8810  144.3840 C   0  0  0  0  0  0  0  0  0  0  0  0
  183.3340  177.7060  141.4830 C   0  0  0  0  0  2  0  0  0  0  0  0
  188.3480  178.0190  145.1350 C   0  0  0  0  0  0  0  0  0  0  0  0
  185.2900  177.5300  143.1270 C   0  0  1  0  0  3  0  0  0  0  0  0
  187.3880  177.7180  144.1700 C   0  0  0  0  0  0  0  0  0  0  0  0
  183.9890  178.3020  142.7580 C   0  0  2  0  0  3  0  0  0  0  0  0
  187.9080  178.4240  146.4000 C   0  0  0  0  0  3  0  0  0  0  0  0
  187.6880  177.2040  142.8260 C   0  0  2  0  0  3  0  0  0  0  0  0
  190.3650  175.9660  143.5160 C   0  0  0  0  0  1  0  0  0  0  0  0
  184.1430  178.2620  146.0230 C   0  0  0  0  0  2  0  0  0  0  0  0
  186.5310  178.4980  146.6730 C   0  0  0  0  0  3  0  0  0  0  0  0
  189.0390  177.7420  142.3370 C   0  0  0  0  0  2  0  0  0  0  0  0
  184.5710  178.5830  139.7780 C   0  0  1  0  0  3  0  0  0  0  0  0
  184.2610  177.3970  140.4730 O   0  0  0  0  0  0  0  0  0  0  0  0
  185.5840  178.2220  145.6710 C   0  0  0  0  0  0  0  0  0  0  0  0
  186.4200  177.5730  142.0370 C   0  0  2  0  0  3  0  0  0  0  0  0
  189.8090  178.0620  144.7660 C   0  0  0  0  0  2  0  0  0  0  0  0
  182.9280  178.3740  143.8790 C   0  0  1  0  0  3  0  0  0  0  0  0
  191.4290  178.0870  142.8880 C   0  0  0  0  0  1  0  0  0  0  0  0
  185.3980  179.5570  140.6380 C   0  0  0  0  0  2  0  0  0  0  0  0
  186.6180  178.9420  141.3330 C   0  0  0  0  0  2  0  0  0  0  0  0
  183.4010  179.1740  145.0790 C   0  0  0  0  0  2  0  0  0  0  0  0
  180.5200  178.9440  144.2780 C   0  0  0  0  0  3  0  0  0  0  0  0
  181.6220  178.9580  143.4120 C   0  0  0  0  0  0  0  0  0  0  0  0
  181.4900  179.5210  142.1310 C   0  0  0  0  0  3  0  0  0  0  0  0
  180.1290  180.6500  140.3650 C   0  0  0  0  0  1  0  0  0  0  0  0
  179.1680  180.0380  142.5900 C   0  0  0  0  0  3  0  0  0  0  0  0
  180.2640  180.0560  141.7220 C   0  0  0  0  0  0  0  0  0  0  0  0
  179.2950  179.4820  143.8670 C   0  0  0  0  0  3  0  0  0  0  0  0
  185.2920  178.2710  138.5000 C   0  0  0  0  0  0  0  0  0  0  0  0
  186.7160  178.3920  138.4470 N   0  0  0  0  0  2  0  0  0  0  0  0
  184.6450  177.9190  137.4730 O   0  0  0  0  0  0  0  0  0  0  0  0
  187.8360  176.5980  137.2080 C   0  0  0  0  0  1  0  0  0  0  0  0
  187.4910  178.0840  137.2520 C   0  0  2  0  0  3  0  0  0  0  0  0
  189.0980  179.3650  138.5080 O   0  0  0  0  0  1  0  0  0  0  0  0
  188.7600  178.9290  137.2230 C   0  0  0  0  0  2  0  0  0  0  0  0
  1 10  1  0  0  0  0
  1 18  1  0  0  0  0
  2 16  1  0  0  0  0
  4  8  2  0  0  0  0
  5  2  1  1  0  0  0
  6  2  2  0  0  0  0
  6  4  1  0  0  0  0
  7  3  1  6  0  0  0
  7  5  1  0  0  0  0
  7 19  1  0  0  0  0
  8 12  1  0  0  0  0
  9 13  1  6  0  0  0
  9  6  1  0  0  0  0
 13  1  1  0  0  0  0
 14 31  1  6  0  0  0
 14 15  1  0  0  0  0
 14 21  1  0  0  0  0
 15  3  1  0  0  0  0
 16 11  1  0  0  0  0
 16 12  2  0  0  0  0
 17 22  1  1  0  0  0
 17  9  1  0  0  0  0
 17  5  1  0  0  0  0
 18  4  1  0  0  0  0
 19 25  1  6  0  0  0
 19 23  1  0  0  0  0
 20  1  1  0  0  0  0
 21 22  1  0  0  0  0
 23 11  1  0  0  0  0
 25 24  2  0  0  0  0
 26 25  1  0  0  0  0
 27 29  1  0  0  0  0
 28 30  2  0  0  0  0
 29 26  2  0  0  0  0
 29 28  1  0  0  0  0
 30 24  1  0  0  0  0
 32 31  1  0  0  0  0
 33 31  2  0  0  0  0
 35 34  1  1  0  0  0
 35 32  1  0  0  0  0
 37 35  1  0  0  0  0
 37 36  1  0  0  0  0
M  END
>  <MODEL>
1

>  <REMARK>
 VINA RESULT:      -9.3      0.000      0.000
  Name = 
  4 active torsions:
  status: ('A' for Active; 'I' for Inactive)
    1  A    between atoms: CA_4  and  N_12
    2  A    between atoms: CA_4  and  C_37
    3  A    between atoms: C_8  and  C_18
    4  A    between atoms: C_23  and  C_30
                            x       y       z     vdW  Elec       q    Type
                         _______ _______ _______ _____ _____    ______ ____

>  <TORSDO>
F 4

$$$$
=
 OpenBabel11122411363D

 37 42  0  0  1  0  0  0  0  0999 V2000
  188.6140  177.3680  147.7870 C   0  0  0  0  0  0  0  0  0  0  0  0
  189.7480  177.5860  143.7060 C   0  0  0  0  0  0  0  0  0  0  0  0
  187.2120  179.1880  141.1010 C   0  0  0  0  0  2  0  0  0  0  0  0
  190.2630  176.7330  145.9220 C   0  0  0  0  0  0  0  0  0  0  0  0
  188.6960  178.4440  143.0510 C   0  0  1  0  0  3  0  0  0  0  0  0
  189.4930  177.5050  145.0540 C   0  0  0  0  0  0  0  0  0  0  0  0
  188.2180  178.1180  141.6060 C   0  0  2  0  0  3  0  0  0  0  0  0
  191.3900  176.0830  145.4050 C   0  0  0  0  0  3  0  0  0  0  0  0
  188.3310  178.3090  145.4580 C   0  0  2  0  0  3  0  0  0  0  0  0
  189.1520  178.6730  148.3510 C   0  0  0  0  0  1  0  0  0  0  0  0
  191.3420  177.1700  141.7770 C   0  0  0  0  0  2  0  0  0  0  0  0
  191.7280  176.2370  144.0490 C   0  0  0  0  0  3  0  0  0  0  0  0
  187.6160  177.6540  146.6470 C   0  0  0  0  0  2  0  0  0  0  0  0
  185.2470  178.5970  142.0960 C   0  0  1  0  0  3  0  0  0  0  0  0
  186.2680  179.5670  142.0710 O   0  0  0  0  0  0  0  0  0  0  0  0
  190.9140  176.9940  143.1870 C   0  0  0  0  0  0  0  0  0  0  0  0
  187.5620  178.4730  144.1370 C   0  0  2  0  0  3  0  0  0  0  0  0
  189.7950  176.4790  147.3320 C   0  0  0  0  0  2  0  0  0  0  0  0
  189.3450  177.9580  140.5610 C   0  0  1  0  0  3  0  0  0  0  0  0
  187.8770  176.6470  148.8950 C   0  0  0  0  0  1  0  0  0  0  0  0
  185.7350  177.2580  142.6790 C   0  0  0  0  0  2  0  0  0  0  0  0
  186.4880  177.3600  144.0110 C   0  0  0  0  0  2  0  0  0  0  0  0
  190.2330  176.7590  140.8410 C   0  0  0  0  0  2  0  0  0  0  0  0
  189.0960  178.8610  138.2360 C   0  0  0  0  0  3  0  0  0  0  0  0
  188.8250  177.8370  139.1540 C   0  0  0  0  0  0  0  0  0  0  0  0
  188.0830  176.7170  138.7440 C   0  0  0  0  0  3  0  0  0  0  0  0
  186.8240  175.4430  136.9990 C   0  0  0  0  0  1  0  0  0  0  0  0
  187.8840  177.6560  136.5180 C   0  0  0  0  0  3  0  0  0  0  0  0
  187.6110  176.6300  137.4290 C   0  0  0  0  0  0  0  0  0  0  0  0
  188.6250  178.7710  136.9220 C   0  0  0  0  0  3  0  0  0  0  0  0
  184.0610  179.1010  142.8640 C   0  0  0  0  0  0  0  0  0  0  0  0
  182.7430  178.8530  142.3660 N   0  0  0  0  0  2  0  0  0  0  0  0
  184.2240  179.7530  143.9340 O   0  0  0  0  0  0  0  0  0  0  0  0
  181.0330  178.1840  143.9910 C   0  0  0  0  0  1  0  0  0  0  0  0
  181.5400  179.2860  143.0650 C   0  0  2  0  0  3  0  0  0  0  0  0
  179.8190  180.8530  142.4450 O   0  0  0  0  0  1  0  0  0  0  0  0
  180.4640  179.6750  142.0560 C   0  0  0  0  0  2  0  0  0  0  0  0
  1 10  1  0  0  0  0
  1 20  1  0  0  0  0
  2  6  1  0  0  0  0
  3 15  1  0  0  0  0
  4 18  1  0  0  0  0
  5  2  1  1  0  0  0
  5 17  1  0  0  0  0
  6  9  1  0  0  0  0
  6  4  2  0  0  0  0
  7  3  1  6  0  0  0
  7  5  1  0  0  0  0
  8  4  1  0  0  0  0
  9 13  1  1  0  0  0
 11 16  1  0  0  0  0
 12  8  2  0  0  0  0
 13  1  1  0  0  0  0
 14 21  1  0  0  0  0
 14 31  1  1  0  0  0
 15 14  1  0  0  0  0
 16  2  2  0  0  0  0
 16 12  1  0  0  0  0
 17 22  1  6  0  0  0
 17  9  1  0  0  0  0
 18  1  1  0  0  0  0
 19 25  1  6  0  0  0
 19 23  1  0  0  0  0
 19  7  1  0  0  0  0
 21 22  1  0  0  0  0
 23 11  1  0  0  0  0
 24 25  1  0  0  0  0
 26 25  2  0  0  0  0
 27 29  1  0  0  0  0
 28 30  1  0  0  0  0
 28 29  2  0  0  0  0
 29 26  1  0  0  0  0
 30 24  2  0  0  0  0
 31 33  2  0  0  0  0
 32 31  1  0  0  0  0
 32 35  1  0  0  0  0
 35 34  1  6  0  0  0
 37 36  1  0  0  0  0
 37 35  1  0  0  0  0
M  END
>  <MODEL>
2

>  <REMARK>
 VINA RESULT:      -9.2      2.117      6.726
  Name = 
  4 active torsions:
  status: ('A' for Active; 'I' for Inactive)
    1  A    between atoms: CA_4  and  N_12
    2  A    between atoms: CA_4  and  C_37
    3  A    between atoms: C_8  and  C_18
    4  A    between atoms: C_23  and  C_30
                            x       y       z     vdW  Elec       q    Type
                         _______ _______ _______ _____ _____    ______ ____

>  <TORSDO>
F 4

$$$$
=
 OpenBabel11122411363D

 37 42  0  0  1  0  0  0  0  0999 V2000
  185.5110  178.4540  145.8950 C   0  0  0  0  0  0  0  0  0  0  0  0
  187.3590  178.1170  142.0930 C   0  0  0  0  0  0  0  0  0  0  0  0
  185.3440  179.2910  138.8770 C   0  0  0  0  0  2  0  0  0  0  0  0
  187.4620  177.5920  144.4630 C   0  0  0  0  0  0  0  0  0  0  0  0
  186.4490  178.8550  141.1470 C   0  0  1  0  0  3  0  0  0  0  0  0
  186.8670  178.2210  143.3720 C   0  0  0  0  0  0  0  0  0  0  0  0
  186.2340  178.3210  139.7000 C   0  0  2  0  0  3  0  0  0  0  0  0
  188.6590  176.8970  144.2530 C   0  0  0  0  0  3  0  0  0  0  0  0
  185.6570  179.0530  143.4450 C   0  0  2  0  0  3  0  0  0  0  0  0
  185.9490  179.8340  146.3570 C   0  0  0  0  0  1  0  0  0  0  0  0
  189.2700  177.4630  140.5590 C   0  0  0  0  0  2  0  0  0  0  0  0
  189.2350  176.8650  142.9710 C   0  0  0  0  0  3  0  0  0  0  0  0
  184.7360  178.5580  144.5670 C   0  0  0  0  0  2  0  0  0  0  0  0
  183.2270  178.8100  139.5800 C   0  0  1  0  0  3  0  0  0  0  0  0
  184.2440  179.7850  139.6000 O   0  0  0  0  0  0  0  0  0  0  0  0
  188.5950  177.4790  141.8800 C   0  0  0  0  0  0  0  0  0  0  0  0
  185.1380  179.0160  141.9970 C   0  0  2  0  0  3  0  0  0  0  0  0
  186.7470  177.5310  145.7890 C   0  0  0  0  0  2  0  0  0  0  0  0
  187.5290  178.0360  138.9070 C   0  0  1  0  0  3  0  0  0  0  0  0
  184.5810  177.8820  146.9450 C   0  0  0  0  0  1  0  0  0  0  0  0
  183.5930  177.5760  140.4230 C   0  0  0  0  0  2  0  0  0  0  0  0
  184.0960  177.8770  141.8400 C   0  0  0  0  0  2  0  0  0  0  0  0
  188.3440  176.9050  139.5070 C   0  0  0  0  0  2  0  0  0  0  0  0
  187.7540  178.5720  136.4690 C   0  0  0  0  0  3  0  0  0  0  0  0
  187.2690  177.7090  137.4610 C   0  0  0  0  0  0  0  0  0  0  0  0
  186.5590  176.5550  137.0890 C   0  0  0  0  0  3  0  0  0  0  0  0
  185.5770  175.0540  135.3490 C   0  0  0  0  0  1  0  0  0  0  0  0
  186.8160  177.1410  134.7520 C   0  0  0  0  0  3  0  0  0  0  0  0
  186.3310  176.2760  135.7370 C   0  0  0  0  0  0  0  0  0  0  0  0
  187.5260  178.2900  135.1170 C   0  0  0  0  0  3  0  0  0  0  0  0
  181.9270  179.3960  140.0440 C   0  0  0  0  0  0  0  0  0  0  0  0
  181.3190  178.9000  141.2410 N   0  0  0  0  0  2  0  0  0  0  0  0
  181.3640  180.3090  139.3760 O   0  0  0  0  0  0  0  0  0  0  0  0
  180.2110  179.7350  143.2620 C   0  0  0  0  0  1  0  0  0  0  0  0
  180.0710  179.4330  141.7720 C   0  0  2  0  0  3  0  0  0  0  0  0
  179.3710  177.1290  141.7420 O   0  0  0  0  0  1  0  0  0  0  0  0
  178.9380  178.4410  141.5300 C   0  0  0  0  0  2  0  0  0  0  0  0
  1 10  1  0  0  0  0
  1 20  1  0  0  0  0
  2  6  1  0  0  0  0
  3 15  1  0  0  0  0
  4 18  1  0  0  0  0
  5 17  1  0  0  0  0
  5  2  1  1  0  0  0
  6  9  1  0  0  0  0
  6  4  2  0  0  0  0
  7  3  1  6  0  0  0
  7  5  1  0  0  0  0
  8  4  1  0  0  0  0
  9 13  1  1  0  0  0
 11 16  1  0  0  0  0
 12  8  2  0  0  0  0
 13  1  1  0  0  0  0
 14 15  1  0  0  0  0
 14 31  1  1  0  0  0
 14 21  1  0  0  0  0
 16  2  2  0  0  0  0
 16 12  1  0  0  0  0
 17 22  1  1  0  0  0
 17  9  1  0  0  0  0
 18  1  1  0  0  0  0
 19 25  1  6  0  0  0
 19 23  1  0  0  0  0
 19  7  1  0  0  0  0
 21 22  1  0  0  0  0
 23 11  1  0  0  0  0
 24 25  1  0  0  0  0
 26 25  2  0  0  0  0
 27 29  1  0  0  0  0
 28 30  1  0  0  0  0
 28 29  2  0  0  0  0
 29 26  1  0  0  0  0
 30 24  2  0  0  0  0
 31 32  1  0  0  0  0
 32 35  1  0  0  0  0
 33 31  2  0  0  0  0
 35 34  1  1  0  0  0
 37 36  1  0  0  0  0
 37 35  1  0  0  0  0
M  END
>  <MODEL>
3

>  <REMARK>
 VINA RESULT:      -9.1      2.111      6.650
  Name = 
  4 active torsions:
  status: ('A' for Active; 'I' for Inactive)
    1  A    between atoms: CA_4  and  N_12
    2  A    between atoms: CA_4  and  C_37
    3  A    between atoms: C_8  and  C_18
    4  A    between atoms: C_23  and  C_30
                            x       y       z     vdW  Elec       q    Type
                         _______ _______ _______ _____ _____    ______ ____

>  <TORSDO>
F 4

$$$$
=
 OpenBabel11122411363D

 37 42  0  0  1  0  0  0  0  0999 V2000
  189.0760  177.5830  137.5120 C   0  0  0  0  0  0  0  0  0  0  0  0
  189.9010  177.0750  141.6400 C   0  0  0  0  0  0  0  0  0  0  0  0
  186.8700  177.0720  144.2090 C   0  0  0  0  0  2  0  0  0  0  0  0
  190.7990  177.4370  139.4120 C   0  0  0  0  0  0  0  0  0  0  0  0
  188.5550  176.8810  142.2890 C   0  0  1  0  0  3  0  0  0  0  0  0
  189.7380  177.1920  140.2810 C   0  0  0  0  0  0  0  0  0  0  0  0
  188.2780  177.4820  143.6980 C   0  0  2  0  0  3  0  0  0  0  0  0
  192.0920  177.4800  139.9440 C   0  0  0  0  0  3  0  0  0  0  0  0
  188.3360  177.0380  139.8660 C   0  0  2  0  0  3  0  0  0  0  0  0
  188.9120  176.1520  137.0270 C   0  0  0  0  0  1  0  0  0  0  0  0
  191.4670  176.7680  143.6110 C   0  0  0  0  0  2  0  0  0  0  0  0
  192.2930  177.2590  141.3190 C   0  0  0  0  0  3  0  0  0  0  0  0
  188.0510  177.8890  138.6220 C   0  0  0  0  0  2  0  0  0  0  0  0
  185.4620  178.4910  143.1100 C   0  0  1  0  0  3  0  0  0  0  0  0
  185.8750  177.1480  143.2190 O   0  0  0  0  0  0  0  0  0  0  0  0
  191.2010  177.0490  142.1790 C   0  0  0  0  0  0  0  0  0  0  0  0
  187.5670  177.3480  141.1610 C   0  0  2  0  0  3  0  0  0  0  0  0
  190.5340  177.8060  137.9740 C   0  0  0  0  0  2  0  0  0  0  0  0
  189.3250  177.1300  144.7790 C   0  0  1  0  0  3  0  0  0  0  0  0
  188.8020  178.5070  136.3440 C   0  0  0  0  0  1  0  0  0  0  0  0
  186.5520  179.3830  142.4900 C   0  0  0  0  0  2  0  0  0  0  0  0
  187.1760  178.8490  141.1950 C   0  0  0  0  0  2  0  0  0  0  0  0
  190.6910  177.7220  144.4840 C   0  0  0  0  0  2  0  0  0  0  0  0
  189.8090  177.4080  147.2230 C   0  0  0  0  0  3  0  0  0  0  0  0
  188.9120  177.5710  146.1580 C   0  0  0  0  0  0  0  0  0  0  0  0
  187.6530  178.1460  146.3950 C   0  0  0  0  0  3  0  0  0  0  0  0
  185.9590  179.1540  147.9330 C   0  0  0  0  0  1  0  0  0  0  0  0
  188.1930  178.3810  148.7450 C   0  0  0  0  0  3  0  0  0  0  0  0
  187.2950  178.5470  147.6870 C   0  0  0  0  0  0  0  0  0  0  0  0
  189.4500  177.8120  148.5140 C   0  0  0  0  0  3  0  0  0  0  0  0
  184.1920  178.5880  142.3180 C   0  0  0  0  0  0  0  0  0  0  0  0
  184.2210  178.3470  140.9090 N   0  0  0  0  0  2  0  0  0  0  0  0
  183.1070  178.8950  142.8880 O   0  0  0  0  0  0  0  0  0  0  0  0
  182.8200  177.0640  139.3600 C   0  0  0  0  0  1  0  0  0  0  0  0
  183.0280  178.3960  140.0740 C   0  0  2  0  0  3  0  0  0  0  0  0
  184.4190  180.1130  139.1140 O   0  0  0  0  0  1  0  0  0  0  0  0
  183.1470  179.5330  139.0630 C   0  0  0  0  0  2  0  0  0  0  0  0
  1 18  1  0  0  0  0
  1 13  1  0  0  0  0
  2 16  1  0  0  0  0
  4  8  2  0  0  0  0
  4  6  1  0  0  0  0
  5  2  1  6  0  0  0
  5  7  1  0  0  0  0
  6  2  2  0  0  0  0
  7  3  1  1  0  0  0
  7 19  1  0  0  0  0
  8 12  1  0  0  0  0
  9 13  1  6  0  0  0
  9  6  1  0  0  0  0
  9 17  1  0  0  0  0
 10  1  1  0  0  0  0
 11 23  1  0  0  0  0
 12 16  2  0  0  0  0
 14 31  1  6  0  0  0
 14 15  1  0  0  0  0
 15  3  1  0  0  0  0
 16 11  1  0  0  0  0
 17 22  1  1  0  0  0
 17  5  1  0  0  0  0
 18  4  1  0  0  0  0
 19 25  1  1  0  0  0
 20  1  1  0  0  0  0
 21 14  1  0  0  0  0
 22 21  1  0  0  0  0
 23 19  1  0  0  0  0
 24 30  1  0  0  0  0
 25 26  1  0  0  0  0
 25 24  2  0  0  0  0
 26 29  2  0  0  0  0
 29 27  1  0  0  0  0
 29 28  1  0  0  0  0
 30 28  2  0  0  0  0
 31 33  2  0  0  0  0
 32 31  1  0  0  0  0
 35 34  1  6  0  0  0
 35 32  1  0  0  0  0
 37 36  1  0  0  0  0
 37 35  1  0  0  0  0
M  END
>  <MODEL>
4

>  <REMARK>
 VINA RESULT:      -8.7      2.458      6.408
  Name = 
  4 active torsions:
  status: ('A' for Active; 'I' for Inactive)
    1  A    between atoms: CA_4  and  N_12
    2  A    between atoms: CA_4  and  C_37
    3  A    between atoms: C_8  and  C_18
    4  A    between atoms: C_23  and  C_30
                            x       y       z     vdW  Elec       q    Type
                         _______ _______ _______ _____ _____    ______ ____

>  <TORSDO>
F 4

$$$$
=
 OpenBabel11122411363D

 37 42  0  0  1  0  0  0  0  0999 V2000
  184.5290  178.4890  139.4440 C   0  0  0  0  0  0  0  0  0  0  0  0
  186.1830  178.5790  143.3480 C   0  0  0  0  0  0  0  0  0  0  0  0
  190.1330  178.4550  143.7540 C   0  0  0  0  0  2  0  0  0  0  0  0
  184.1790  178.3930  141.9880 C   0  0  0  0  0  0  0  0  0  0  0  0
  187.6640  178.7620  143.1430 C   0  0  1  0  0  3  0  0  0  0  0  0
  185.5500  178.5950  142.1290 C   0  0  0  0  0  0  0  0  0  0  0  0
  188.6730  178.0420  144.0860 C   0  0  2  0  0  3  0  0  0  0  0  0
  183.4090  178.2530  143.1480 C   0  0  0  0  0  3  0  0  0  0  0  0
  186.4770  178.8400  141.0140 C   0  0  2  0  0  3  0  0  0  0  0  0
  184.4220  179.9650  139.0940 C   0  0  0  0  0  1  0  0  0  0  0  0
  186.0050  178.6430  145.8770 C   0  0  0  0  0  2  0  0  0  0  0  0
  184.0220  178.3370  144.4110 C   0  0  0  0  0  3  0  0  0  0  0  0
  185.9940  178.1200  139.7500 C   0  0  0  0  0  2  0  0  0  0  0  0
  190.6470  177.1980  141.9200 C   0  0  1  0  0  3  0  0  0  0  0  0
  190.3960  178.5080  142.3740 O   0  0  0  0  0  0  0  0  0  0  0  0
  185.4130  178.5060  144.5240 C   0  0  0  0  0  0  0  0  0  0  0  0
  187.8350  178.4390  141.6160 C   0  0  2  0  0  3  0  0  0  0  0  0
  183.5790  178.1710  140.6220 C   0  0  0  0  0  2  0  0  0  0  0  0
  188.4250  178.2530  145.5960 C   0  0  1  0  0  3  0  0  0  0  0  0
  184.0770  177.6890  138.2410 C   0  0  0  0  0  1  0  0  0  0  0  0
  189.3770  176.3280  141.9370 C   0  0  0  0  0  2  0  0  0  0  0  0
  188.1440  176.9560  141.2770 C   0  0  0  0  0  2  0  0  0  0  0  0
  187.1170  177.6400  146.0630 C   0  0  0  0  0  2  0  0  0  0  0  0
  189.6520  178.1390  147.7790 C   0  0  0  0  0  3  0  0  0  0  0  0
  189.5320  177.7010  146.4530 C   0  0  0  0  0  0  0  0  0  0  0  0
  190.4400  176.7520  145.9520 C   0  0  0  0  0  3  0  0  0  0  0  0
  192.4200  175.2530  146.2360 C   0  0  0  0  0  1  0  0  0  0  0  0
  191.5760  176.6980  148.0930 C   0  0  0  0  0  3  0  0  0  0  0  0
  191.4600  176.2560  146.7710 C   0  0  0  0  0  0  0  0  0  0  0  0
  190.6730  177.6400  148.5970 C   0  0  0  0  0  3  0  0  0  0  0  0
  191.2480  177.2220  140.5460 C   0  0  0  0  0  0  0  0  0  0  0  0
  190.6220  176.4870  139.4910 N   0  0  0  0  0  2  0  0  0  0  0  0
  192.3070  177.8740  140.3260 O   0  0  0  0  0  0  0  0  0  0  0  0
  190.1120  177.1080  137.1750 C   0  0  0  0  0  1  0  0  0  0  0  0
  191.1280  176.4800  138.1250 C   0  0  2  0  0  3  0  0  0  0  0  0
  190.2820  174.2880  137.5940 O   0  0  0  0  0  1  0  0  0  0  0  0
  191.4490  175.0510  137.6970 C   0  0  0  0  0  2  0  0  0  0  0  0
  1 13  1  0  0  0  0
  1 18  1  0  0  0  0
  2 16  1  0  0  0  0
  4  6  1  0  0  0  0
  4  8  2  0  0  0  0
  5  2  1  1  0  0  0
  5  7  1  0  0  0  0
  6  2  2  0  0  0  0
  7  3  1  6  0  0  0
  7 19  1  0  0  0  0
  8 12  1  0  0  0  0
  9 13  1  6  0  0  0
  9 17  1  0  0  0  0
  9  6  1  0  0  0  0
 10  1  1  0  0  0  0
 11 23  1  0  0  0  0
 12 16  2  0  0  0  0
 14 31  1  6  0  0  0
 14 21  1  0  0  0  0
 14 15  1  0  0  0  0
 15  3  1  0  0  0  0
 16 11  1  0  0  0  0
 17 22  1  1  0  0  0
 17  5  1  0  0  0  0
 18  4  1  0  0  0  0
 19 23  1  0  0  0  0
 19 25  1  1  0  0  0
 20  1  1  0  0  0  0
 22 21  1  0  0  0  0
 24 30  1  0  0  0  0
 25 24  2  0  0  0  0
 26 25  1  0  0  0  0
 26 29  2  0  0  0  0
 27 29  1  0  0  0  0
 28 30  2  0  0  0  0
 29 28  1  0  0  0  0
 32 31  1  0  0  0  0
 33 31  2  0  0  0  0
 35 34  1  6  0  0  0
 35 32  1  0  0  0  0
 36 37  1  0  0  0  0
 37 35  1  0  0  0  0
M  END
>  <MODEL>
5

>  <REMARK>
 VINA RESULT:      -8.6      2.690      7.009
  Name = 
  4 active torsions:
  status: ('A' for Active; 'I' for Inactive)
    1  A    between atoms: CA_4  and  N_12
    2  A    between atoms: CA_4  and  C_37
    3  A    between atoms: C_8  and  C_18
    4  A    between atoms: C_23  and  C_30
                            x       y       z     vdW  Elec       q    Type
                         _______ _______ _______ _____ _____    ______ ____

>  <TORSDO>
F 4

$$$$
=
 OpenBabel11122411363D

 37 42  0  0  1  0  0  0  0  0999 V2000
  182.2450  179.4190  138.7230 C   0  0  0  0  0  0  0  0  0  0  0  0
  184.9020  178.7610  141.9610 C   0  0  0  0  0  0  0  0  0  0  0  0
  188.8070  178.6590  141.2390 C   0  0  0  0  0  2  0  0  0  0  0  0
  182.5980  178.8020  141.1920 C   0  0  0  0  0  0  0  0  0  0  0  0
  186.2760  179.0190  141.4010 C   0  0  1  0  0  3  0  0  0  0  0  0
  183.9620  179.0060  140.9900 C   0  0  0  0  0  0  0  0  0  0  0  0
  187.4820  178.1500  141.8670 C   0  0  2  0  0  3  0  0  0  0  0  0
  182.1700  178.4090  142.4650 C   0  0  0  0  0  3  0  0  0  0  0  0
  184.5570  179.4950  139.7380 C   0  0  2  0  0  3  0  0  0  0  0  0
  182.0930  180.9310  138.7200 C   0  0  0  0  0  1  0  0  0  0  0  0
  185.4230  178.3070  144.4020 C   0  0  0  0  0  2  0  0  0  0  0  0
  183.1060  178.2530  143.5020 C   0  0  0  0  0  3  0  0  0  0  0  0
  183.7250  179.0330  138.5350 C   0  0  0  0  0  2  0  0  0  0  0  0
  188.7630  177.8120  139.1210 C   0  0  1  0  0  3  0  0  0  0  0  0
  188.6860  178.9960  139.8800 O   0  0  0  0  0  0  0  0  0  0  0  0
  184.4800  178.4320  143.2630 C   0  0  0  0  0  0  0  0  0  0  0  0
  186.0150  179.0160  139.8520 C   0  0  2  0  0  3  0  0  0  0  0  0
  181.6430  178.8440  140.0260 C   0  0  0  0  0  2  0  0  0  0  0  0
  187.6610  178.0440  143.3980 C   0  0  1  0  0  3  0  0  0  0  0  0
  181.4570  178.8670  137.5530 C   0  0  0  0  0  1  0  0  0  0  0  0
  187.5190  176.9240  139.3080 C   0  0  0  0  0  2  0  0  0  0  0  0
  186.1730  177.6410  139.1500 C   0  0  0  0  0  2  0  0  0  0  0  0
  186.5120  177.3170  144.0710 C   0  0  0  0  0  2  0  0  0  0  0  0
  189.5820  176.5250  142.8640 C   0  0  0  0  0  3  0  0  0  0  0  0
  188.9430  177.3590  143.7910 C   0  0  0  0  0  0  0  0  0  0  0  0
  189.5100  177.5460  145.0620 C   0  0  0  0  0  3  0  0  0  0  0  0
  191.2980  177.0950  146.7500 C   0  0  0  0  0  1  0  0  0  0  0  0
  191.3350  176.0630  144.4730 C   0  0  0  0  0  3  0  0  0  0  0  0
  190.7020  176.8960  145.4020 C   0  0  0  0  0  0  0  0  0  0  0  0
  190.7750  175.8770  143.2050 C   0  0  0  0  0  3  0  0  0  0  0  0
  188.9670  178.1290  137.6690 C   0  0  0  0  0  0  0  0  0  0  0  0
  189.1830  177.0630  136.7400 N   0  0  0  0  0  2  0  0  0  0  0  0
  188.9650  179.3280  137.2720 O   0  0  0  0  0  0  0  0  0  0  0  0
  188.0160  177.2720  134.5940 C   0  0  0  0  0  1  0  0  0  0  0  0
  189.3630  177.2850  135.3110 C   0  0  2  0  0  3  0  0  0  0  0  0
  191.3990  176.0220  135.5600 O   0  0  0  0  0  1  0  0  0  0  0  0
  190.2890  176.2210  134.7320 C   0  0  0  0  0  2  0  0  0  0  0  0
  1 18  1  0  0  0  0
  2 16  1  0  0  0  0
  4  8  2  0  0  0  0
  5  7  1  0  0  0  0
  5  2  1  1  0  0  0
  6  4  1  0  0  0  0
  6  2  2  0  0  0  0
  7  3  1  6  0  0  0
  7 19  1  0  0  0  0
  8 12  1  0  0  0  0
  9 13  1  6  0  0  0
  9 17  1  0  0  0  0
  9  6  1  0  0  0  0
 10  1  1  0  0  0  0
 13  1  1  0  0  0  0
 14 31  1  6  0  0  0
 14 21  1  0  0  0  0
 14 15  1  0  0  0  0
 15  3  1  0  0  0  0
 16 12  2  0  0  0  0
 16 11  1  0  0  0  0
 17 22  1  1  0  0  0
 17  5  1  0  0  0  0
 18  4  1  0  0  0  0
 19 25  1  6  0  0  0
 19 23  1  0  0  0  0
 20  1  1  0  0  0  0
 22 21  1  0  0  0  0
 23 11  1  0  0  0  0
 24 30  2  0  0  0  0
 24 25  1  0  0  0  0
 25 26  2  0  0  0  0
 26 29  1  0  0  0  0
 28 29  2  0  0  0  0
 29 27  1  0  0  0  0
 30 28  1  0  0  0  0
 32 31  1  0  0  0  0
 33 31  2  0  0  0  0
 35 34  1  6  0  0  0
 35 32  1  0  0  0  0
 37 35  1  0  0  0  0
 37 36  1  0  0  0  0
M  END
>  <MODEL>
6

>  <REMARK>
 VINA RESULT:      -8.3      2.020      6.890
  Name = 
  4 active torsions:
  status: ('A' for Active; 'I' for Inactive)
    1  A    between atoms: CA_4  and  N_12
    2  A    between atoms: CA_4  and  C_37
    3  A    between atoms: C_8  and  C_18
    4  A    between atoms: C_23  and  C_30
                            x       y       z     vdW  Elec       q    Type
                         _______ _______ _______ _____ _____    ______ ____

>  <TORSDO>
F 4

$$$$
=
 OpenBabel11122411363D

 37 42  0  0  1  0  0  0  0  0999 V2000
  185.7250  178.5110  146.4610 C   0  0  0  0  0  0  0  0  0  0  0  0
  187.1820  177.8510  142.5340 C   0  0  0  0  0  0  0  0  0  0  0  0
  190.5140  175.7400  142.0600 C   0  0  0  0  0  2  0  0  0  0  0  0
  185.5890  179.0210  143.9470 C   0  0  0  0  0  0  0  0  0  0  0  0
  188.2880  176.8400  142.6890 C   0  0  1  0  0  3  0  0  0  0  0  0
  186.6060  178.0870  143.7580 C   0  0  0  0  0  0  0  0  0  0  0  0
  189.5620  176.9390  141.8000 C   0  0  2  0  0  3  0  0  0  0  0  0
  185.0810  179.6800  142.8220 C   0  0  0  0  0  3  0  0  0  0  0  0
  187.1870  177.2580  144.8240 C   0  0  2  0  0  3  0  0  0  0  0  0
  184.7850  177.3340  146.6690 C   0  0  0  0  0  1  0  0  0  0  0  0
  187.0960  178.1320  140.0140 C   0  0  0  0  0  2  0  0  0  0  0  0
  185.5850  179.3770  141.5440 C   0  0  0  0  0  3  0  0  0  0  0  0
  187.1510  178.0060  146.1630 C   0  0  0  0  0  2  0  0  0  0  0  0
  191.5810  176.3070  143.9950 C   0  0  1  0  0  3  0  0  0  0  0  0
  190.6470  175.4210  143.4220 O   0  0  0  0  0  0  0  0  0  0  0  0
  186.6360  178.4570  141.3860 C   0  0  0  0  0  0  0  0  0  0  0  0
  188.5530  176.8670  144.2370 C   0  0  2  0  0  3  0  0  0  0  0  0
  185.1710  179.4200  145.3390 C   0  0  0  0  0  2  0  0  0  0  0  0
  189.2960  177.0460  140.2810 C   0  0  1  0  0  3  0  0  0  0  0  0
  185.7630  179.3130  147.7450 C   0  0  0  0  0  1  0  0  0  0  0  0
  191.0330  177.7430  144.0890 C   0  0  0  0  0  2  0  0  0  0  0  0
  189.6370  177.8710  144.7110 C   0  0  0  0  0  2  0  0  0  0  0  0
  188.5870  178.3340  139.9030 C   0  0  0  0  0  2  0  0  0  0  0  0
  191.7650  177.3780  140.0100 C   0  0  0  0  0  3  0  0  0  0  0  0
  190.5520  176.9450  139.4590 C   0  0  0  0  0  0  0  0  0  0  0  0
  190.5310  176.4190  138.1560 C   0  0  0  0  0  3  0  0  0  0  0  0
  191.6870  175.7810  136.0330 C   0  0  0  0  0  1  0  0  0  0  0  0
  192.9220  176.7720  137.9680 C   0  0  0  0  0  3  0  0  0  0  0  0
  191.7140  176.3370  137.4130 C   0  0  0  0  0  0  0  0  0  0  0  0
  192.9480  177.2930  139.2660 C   0  0  0  0  0  3  0  0  0  0  0  0
  192.0090  175.8200  145.3470 C   0  0  0  0  0  0  0  0  0  0  0  0
  191.9660  176.7140  146.4640 N   0  0  0  0  0  2  0  0  0  0  0  0
  192.4180  174.6340  145.4980 O   0  0  0  0  0  0  0  0  0  0  0  0
  191.6160  175.0260  148.2070 C   0  0  0  0  0  1  0  0  0  0  0  0
  192.3400  176.3100  147.8130 C   0  0  2  0  0  3  0  0  0  0  0  0
  193.1300  177.7250  149.5950 O   0  0  0  0  0  1  0  0  0  0  0  0
  192.0190  177.4300  148.7980 C   0  0  0  0  0  2  0  0  0  0  0  0
  1 10  1  0  0  0  0
  1 20  1  0  0  0  0
  2  6  1  0  0  0  0
  3 15  1  0  0  0  0
  4 18  1  0  0  0  0
  5  2  1  6  0  0  0
  5 17  1  0  0  0  0
  6  4  2  0  0  0  0
  6  9  1  0  0  0  0
  7  3  1  6  0  0  0
  7  5  1  0  0  0  0
  8  4  1  0  0  0  0
  9 13  1  1  0  0  0
 11 16  1  0  0  0  0
 12  8  2  0  0  0  0
 13  1  1  0  0  0  0
 14 21  1  0  0  0  0
 14 31  1  1  0  0  0
 15 14  1  0  0  0  0
 16 12  1  0  0  0  0
 16  2  2  0  0  0  0
 17 22  1  6  0  0  0
 17  9  1  0  0  0  0
 18  1  1  0  0  0  0
 19 25  1  6  0  0  0
 19  7  1  0  0  0  0
 21 22  1  0  0  0  0
 23 11  1  0  0  0  0
 23 19  1  0  0  0  0
 25 24  1  0  0  0  0
 26 25  2  0  0  0  0
 27 29  1  0  0  0  0
 28 30  1  0  0  0  0
 29 28  2  0  0  0  0
 29 26  1  0  0  0  0
 30 24  2  0  0  0  0
 31 33  2  0  0  0  0
 31 32  1  0  0  0  0
 32 35  1  0  0  0  0
 35 34  1  1  0  0  0
 35 37  1  0  0  0  0
 37 36  1  0  0  0  0
M  END
>  <MODEL>
7

>  <REMARK>
 VINA RESULT:      -8.3      3.921      8.605
  Name = 
  4 active torsions:
  status: ('A' for Active; 'I' for Inactive)
    1  A    between atoms: CA_4  and  N_12
    2  A    between atoms: CA_4  and  C_37
    3  A    between atoms: C_8  and  C_18
    4  A    between atoms: C_23  and  C_30
                            x       y       z     vdW  Elec       q    Type
                         _______ _______ _______ _____ _____    ______ ____

>  <TORSDO>
F 4

$$$$
=
 OpenBabel11122411363D

 37 42  0  0  1  0  0  0  0  0999 V2000
  184.4460  178.6140  141.8060 C   0  0  0  0  0  0  0  0  0  0  0  0
  186.9550  178.2730  145.2070 C   0  0  0  0  0  0  0  0  0  0  0  0
  190.8750  177.9220  144.6640 C   0  0  0  0  0  2  0  0  0  0  0  0
  184.6840  178.3060  144.3460 C   0  0  0  0  0  0  0  0  0  0  0  0
  188.3580  178.4010  144.6750 C   0  0  1  0  0  3  0  0  0  0  0  0
  186.0610  178.4290  144.1760 C   0  0  0  0  0  0  0  0  0  0  0  0
  189.5060  177.5520  145.2970 C   0  0  2  0  0  3  0  0  0  0  0  0
  184.1940  178.0990  145.6400 C   0  0  0  0  0  3  0  0  0  0  0  0
  186.7220  178.7280  142.8970 C   0  0  2  0  0  3  0  0  0  0  0  0
  184.3620  180.1180  141.6040 C   0  0  0  0  0  1  0  0  0  0  0  0
  187.3680  178.1160  147.7050 C   0  0  0  0  0  2  0  0  0  0  0  0
  185.0850  178.0390  146.7260 C   0  0  0  0  0  3  0  0  0  0  0  0
  185.9130  178.1480  141.7300 C   0  0  0  0  0  2  0  0  0  0  0  0
  190.8670  176.8120  142.6710 C   0  0  1  0  0  3  0  0  0  0  0  0
  190.8170  178.0870  143.2690 O   0  0  0  0  0  0  0  0  0  0  0  0
  186.4730  178.1310  146.5220 C   0  0  0  0  0  0  0  0  0  0  0  0
  188.1520  178.2100  143.1300 C   0  0  2  0  0  3  0  0  0  0  0  0
  183.7730  178.2360  143.1460 C   0  0  0  0  0  2  0  0  0  0  0  0
  189.6270  177.6380  146.8350 C   0  0  1  0  0  3  0  0  0  0  0  0
  183.6760  177.9470  140.6850 C   0  0  0  0  0  1  0  0  0  0  0  0
  189.5790  176.0060  142.9180 C   0  0  0  0  0  2  0  0  0  0  0  0
  188.2730  176.7500  142.6160 C   0  0  0  0  0  2  0  0  0  0  0  0
  188.4220  177.0490  147.5480 C   0  0  0  0  0  2  0  0  0  0  0  0
  191.2890  175.7630  146.7710 C   0  0  0  0  0  3  0  0  0  0  0  0
  190.8610  176.9580  147.3640 C   0  0  0  0  0  0  0  0  0  0  0  0
  191.5930  177.5030  148.4320 C   0  0  0  0  0  3  0  0  0  0  0  0
  193.5090  177.4290  150.0370 C   0  0  0  0  0  1  0  0  0  0  0  0
  193.1580  175.6560  148.3090 C   0  0  0  0  0  3  0  0  0  0  0  0
  192.7370  176.8500  148.9040 C   0  0  0  0  0  0  0  0  0  0  0  0
  192.4340  175.1120  147.2430 C   0  0  0  0  0  3  0  0  0  0  0  0
  191.1370  176.9310  141.2000 C   0  0  0  0  0  0  0  0  0  0  0  0
  190.2050  176.3780  140.2670 N   0  0  0  0  0  2  0  0  0  0  0  0
  192.1860  177.5020  140.7880 O   0  0  0  0  0  0  0  0  0  0  0  0
  189.0260  176.5470  138.1240 C   0  0  0  0  0  1  0  0  0  0  0  0
  190.3810  176.4740  138.8240 C   0  0  2  0  0  3  0  0  0  0  0  0
  190.3560  174.3790  137.6350 O   0  0  0  0  0  1  0  0  0  0  0  0
  191.1810  175.2780  138.3170 C   0  0  0  0  0  2  0  0  0  0  0  0
  1 18  1  0  0  0  0
  2 16  1  0  0  0  0
  4  8  2  0  0  0  0
  5  2  1  1  0  0  0
  5  7  1  0  0  0  0
  6  4  1  0  0  0  0
  6  2  2  0  0  0  0
  7  3  1  6  0  0  0
  7 19  1  0  0  0  0
  8 12  1  0  0  0  0
  9 13  1  6  0  0  0
  9 17  1  0  0  0  0
  9  6  1  0  0  0  0
 10  1  1  0  0  0  0
 13  1  1  0  0  0  0
 14 31  1  6  0  0  0
 14 21  1  0  0  0  0
 14 15  1  0  0  0  0
 15  3  1  0  0  0  0
 16 12  2  0  0  0  0
 16 11  1  0  0  0  0
 17 22  1  1  0  0  0
 17  5  1  0  0  0  0
 18  4  1  0  0  0  0
 19 25  1  1  0  0  0
 19 23  1  0  0  0  0
 20  1  1  0  0  0  0
 22 21  1  0  0  0  0
 23 11  1  0  0  0  0
 24 30  2  0  0  0  0
 24 25  1  0  0  0  0
 25 26  2  0  0  0  0
 26 29  1  0  0  0  0
 28 29  2  0  0  0  0
 29 27  1  0  0  0  0
 30 28  1  0  0  0  0
 32 31  1  0  0  0  0
 33 31  2  0  0  0  0
 35 34  1  6  0  0  0
 35 32  1  0  0  0  0
 36 37  1  0  0  0  0
 37 35  1  0  0  0  0
M  END
>  <MODEL>
8

>  <REMARK>
 VINA RESULT:      -8.2      2.874      7.618
  Name = 
  4 active torsions:
  status: ('A' for Active; 'I' for Inactive)
    1  A    between atoms: CA_4  and  N_12
    2  A    between atoms: CA_4  and  C_37
    3  A    between atoms: C_8  and  C_18
    4  A    between atoms: C_23  and  C_30
                            x       y       z     vdW  Elec       q    Type
                         _______ _______ _______ _____ _____    ______ ____

>  <TORSDO>
F 4

$$$$
=
 OpenBabel11122411363D

 37 42  0  0  1  0  0  0  0  0999 V2000
  192.7430  175.8230  137.4940 C   0  0  0  0  0  0  0  0  0  0  0  0
  188.9050  177.5060  138.1360 C   0  0  0  0  0  0  0  0  0  0  0  0
  188.0380  178.9760  141.7240 C   0  0  0  0  0  2  0  0  0  0  0  0
  190.3550  176.2470  136.6480 C   0  0  0  0  0  0  0  0  0  0  0  0
  188.9880  178.1720  139.4850 C   0  0  1  0  0  3  0  0  0  0  0  0
  190.1310  176.9760  137.8140 C   0  0  0  0  0  0  0  0  0  0  0  0
  187.7600  178.1450  140.4420 C   0  0  2  0  0  3  0  0  0  0  0  0
  189.3040  176.1260  135.7330 C   0  0  0  0  0  3  0  0  0  0  0  0
  191.1540  177.2610  138.8310 C   0  0  2  0  0  3  0  0  0  0  0  0
  193.5480  177.0110  136.9930 C   0  0  0  0  0  1  0  0  0  0  0  0
  186.5600  178.1340  137.4010 C   0  0  0  0  0  2  0  0  0  0  0  0
  188.0700  176.7490  135.9940 C   0  0  0  0  0  3  0  0  0  0  0  0
  192.1750  176.1180  138.8960 C   0  0  0  0  0  2  0  0  0  0  0  0
  189.3150  177.5840  143.0040 C   0  0  1  0  0  3  0  0  0  0  0  0
  189.3260  178.7740  142.2500 O   0  0  0  0  0  0  0  0  0  0  0  0
  187.8600  177.4500  137.1950 C   0  0  0  0  0  0  0  0  0  0  0  0
  190.3080  177.5630  140.0800 C   0  0  2  0  0  3  0  0  0  0  0  0
  191.6400  175.4800  136.4660 C   0  0  0  0  0  2  0  0  0  0  0  0
  186.4300  178.6210  139.8160 C   0  0  1  0  0  3  0  0  0  0  0  0
  193.6780  174.6360  137.6000 C   0  0  0  0  0  1  0  0  0  0  0  0
  189.1690  176.3370  142.1140 C   0  0  0  0  0  2  0  0  0  0  0  0
  190.1280  176.2700  140.9200 C   0  0  0  0  0  2  0  0  0  0  0  0
  185.9450  177.7030  138.7090 C   0  0  0  0  0  2  0  0  0  0  0  0
  183.9990  178.8510  140.3810 C   0  0  0  0  0  3  0  0  0  0  0  0
  185.3240  178.7590  140.8280 C   0  0  0  0  0  0  0  0  0  0  0  0
  185.5950  178.7900  142.2060 C   0  0  0  0  0  3  0  0  0  0  0  0
  184.8380  178.9540  144.5830 C   0  0  0  0  0  1  0  0  0  0  0  0
  183.2270  179.0120  142.6730 C   0  0  0  0  0  3  0  0  0  0  0  0
  184.5470  178.9200  143.1250 C   0  0  0  0  0  0  0  0  0  0  0  0
  182.9520  178.9790  141.3020 C   0  0  0  0  0  3  0  0  0  0  0  0
  190.5500  177.4850  143.8490 C   0  0  0  0  0  0  0  0  0  0  0  0
  190.5270  176.6910  145.0390 N   0  0  0  0  0  2  0  0  0  0  0  0
  191.5980  178.1090  143.5220 O   0  0  0  0  0  0  0  0  0  0  0  0
  192.2980  175.1350  145.7110 C   0  0  0  0  0  1  0  0  0  0  0  0
  191.6910  176.5230  145.8990 C   0  0  2  0  0  3  0  0  0  0  0  0
  192.4260  176.7520  148.1810 O   0  0  0  0  0  1  0  0  0  0  0  0
  191.2970  176.7420  147.3560 C   0  0  0  0  0  2  0  0  0  0  0  0
  1 20  1  0  0  0  0
  1 13  1  0  0  0  0
  3 15  1  0  0  0  0
  4  6  2  0  0  0  0
  5  2  1  6  0  0  0
  5 17  1  0  0  0  0
  5  7  1  0  0  0  0
  6  2  1  0  0  0  0
  6  9  1  0  0  0  0
  7  3  1  1  0  0  0
  8 12  2  0  0  0  0
  8  4  1  0  0  0  0
  9 13  1  1  0  0  0
  9 17  1  0  0  0  0
 10  1  1  0  0  0  0
 11 23  1  0  0  0  0
 12 16  1  0  0  0  0
 14 31  1  6  0  0  0
 15 14  1  0  0  0  0
 16 11  1  0  0  0  0
 16  2  2  0  0  0  0
 17 22  1  6  0  0  0
 18  4  1  0  0  0  0
 18  1  1  0  0  0  0
 19  7  1  0  0  0  0
 19 25  1  1  0  0  0
 21 14  1  0  0  0  0
 22 21  1  0  0  0  0
 23 19  1  0  0  0  0
 24 25  2  0  0  0  0
 24 30  1  0  0  0  0
 25 26  1  0  0  0  0
 26 29  2  0  0  0  0
 28 29  1  0  0  0  0
 29 27  1  0  0  0  0
 30 28  2  0  0  0  0
 31 32  1  0  0  0  0
 32 35  1  0  0  0  0
 33 31  2  0  0  0  0
 35 34  1  1  0  0  0
 35 37  1  0  0  0  0
 37 36  1  0  0  0  0
M  END
>  <MODEL>
9

>  <REMARK>
 VINA RESULT:      -7.8      3.469      7.186
  Name = 
  4 active torsions:
  status: ('A' for Active; 'I' for Inactive)
    1  A    between atoms: CA_4  and  N_12
    2  A    between atoms: CA_4  and  C_37
    3  A    between atoms: C_8  and  C_18
    4  A    between atoms: C_23  and  C_30
                            x       y       z     vdW  Elec       q    Type
                         _______ _______ _______ _____ _____    ______ ____

>  <TORSDO>
F 4

$$$$
