=
 OpenBabel11122410383D

 32 37  0  0  1  0  0  0  0  0999 V2000
  187.5570  176.9530  143.7790 C   0  0  0  0  0  2  0  0  0  0  0  0
  190.7280  177.3550  139.1520 C   0  0  1  0  0  3  0  0  0  0  0  0
  186.4060  175.6970  137.3280 C   0  0  0  0  0  2  0  0  0  0  0  0
  187.1000  175.1200  136.0880 C   0  0  0  0  0  2  0  0  0  0  0  0
  192.8580  176.3750  138.1880 C   0  0  0  0  0  0  0  0  0  0  0  0
  193.5640  175.9290  136.9800 C   0  0  0  0  0  0  0  0  0  0  0  0
  189.8540  177.6480  141.5020 C   0  0  1  0  0  3  0  0  0  0  0  0
  188.6030  178.6360  139.7530 C   0  0  0  0  0  2  0  0  0  0  0  0
  193.9510  175.1140  134.8770 C   0  0  1  0  0  3  0  0  0  0  0  0
  187.6980  178.6270  141.9030 C   0  0  0  0  0  2  0  0  0  0  0  0
  187.0830  176.9910  137.7880 C   0  0  0  0  0  2  0  0  0  0  0  0
  189.3490  177.8650  138.6560 C   0  0  2  0  0  3  0  0  0  0  0  0
  188.5570  176.7020  138.0600 C   0  0  2  0  0  3  0  0  0  0  0  0
  190.7560  176.3140  136.7870 C   0  0  2  0  0  3  0  0  0  0  0  0
  195.2150  175.4280  135.5440 N   0  0  0  0  0  0  0  0  0  0  0  0
  188.7060  176.1230  143.2180 C   0  0  0  0  0  2  0  0  0  0  0  0
  188.4940  177.8390  140.9700 N   0  0  2  0  0  0  0  0  0  0  0  0
  194.9920  175.8890  136.7340 C   0  0  0  0  0  3  0  0  0  0  0  0
  189.8910  177.0320  142.9100 C   0  0  0  0  0  2  0  0  0  0  0  0
  186.7860  177.6960  142.6880 C   0  0  2  0  0  3  0  0  0  0  0  0
  188.5990  174.9210  136.3290 C   0  0  0  0  0  2  0  0  0  0  0  0
  189.2110  176.2570  136.7490 C   0  0  1  0  0  3  0  0  0  0  0  0
  191.4510  175.3450  135.8150 C   0  0  0  0  0  2  0  0  0  0  0  0
  190.6380  176.7470  140.5550 C   0  0  0  0  0  2  0  0  0  0  0  0
  193.5100  176.7530  139.1990 O   0  0  0  0  0  0  0  0  0  0  0  0
  193.8820  173.6230  134.5940 C   0  0  0  0  0  1  0  0  0  0  0  0
  191.3490  176.2880  138.2190 C   0  0  2  0  0  3  0  0  0  0  0  0
  192.9420  175.4940  135.9040 C   0  0  0  0  0  0  0  0  0  0  0  0
  185.7120  178.4720  143.2880 N   0  0  0  0  0  2  0  0  0  0  0  0
  184.3910  178.5090  142.7450 C   0  0  0  0  0  0  0  0  0  0  0  0
  184.1120  177.8770  141.6910 O   0  0  0  0  0  0  0  0  0  0  0  0
  183.3830  179.2720  143.3970 N   0  0  0  0  0  1  0  0  0  0  0  0
  2 24  1  1  0  0  0
  3 11  1  0  0  0  0
  4 21  1  0  0  0  0
  4  3  1  0  0  0  0
  5 25  2  0  0  0  0
  6  5  1  0  0  0  0
  7 24  1  6  0  0  0
  7 19  1  0  0  0  0
  9 26  1  1  0  0  0
  9 15  1  0  0  0  0
  9 28  1  0  0  0  0
 10 20  1  0  0  0  0
 12  2  1  0  0  0  0
 12  8  1  1  0  0  0
 13 11  1  6  0  0  0
 13 12  1  0  0  0  0
 14 23  1  6  0  0  0
 14 27  1  0  0  0  0
 15 18  2  0  0  0  0
 16  1  1  0  0  0  0
 17  8  1  6  0  0  0
 17  7  1  0  0  0  0
 17 10  1  0  0  0  0
 18  6  1  0  0  0  0
 19 16  1  0  0  0  0
 20 29  1  1  0  0  0
 20  1  1  0  0  0  0
 22 21  1  1  0  0  0
 22 14  1  0  0  0  0
 22 13  1  0  0  0  0
 23 28  1  0  0  0  0
 27  5  1  6  0  0  0
 27  2  1  0  0  0  0
 28  6  2  0  0  0  0
 30 29  1  0  0  0  0
 30 32  1  0  0  0  0
 31 30  2  0  0  0  0
M  END
>  <MODEL>
1

>  <REMARK>
 VINA RESULT:      -8.4      0.000      0.000
  Name = 
  1 active torsions:
  status: ('A' for Active; 'I' for Inactive)
    1  A    between atoms: C_20  and  N_29
                            x       y       z     vdW  Elec       q    Type
                         _______ _______ _______ _____ _____    ______ ____

>  <TORSDO>
F 1

$$$$
=
 OpenBabel11122410383D

 32 37  0  0  1  0  0  0  0  0999 V2000
  192.7360  174.0170  136.9860 C   0  0  0  0  0  2  0  0  0  0  0  0
  188.9310  177.7770  138.7210 C   0  0  1  0  0  3  0  0  0  0  0  0
  190.7810  176.0890  143.0190 C   0  0  0  0  0  2  0  0  0  0  0  0
  189.5170  176.5090  143.7800 C   0  0  0  0  0  2  0  0  0  0  0  0
  186.4320  178.1810  138.6000 C   0  0  0  0  0  0  0  0  0  0  0  0
  185.2390  178.6900  139.2890 C   0  0  0  0  0  0  0  0  0  0  0  0
  190.5590  176.4890  137.2840 C   0  0  1  0  0  3  0  0  0  0  0  0
  191.4660  177.8050  139.0280 C   0  0  0  0  0  2  0  0  0  0  0  0
  183.7930  179.2840  140.9610 C   0  0  1  0  0  3  0  0  0  0  0  0
  192.8880  176.3760  137.8560 C   0  0  0  0  0  2  0  0  0  0  0  0
  191.1030  177.0770  141.8950 C   0  0  0  0  0  2  0  0  0  0  0  0
  190.1050  178.0120  139.7080 C   0  0  2  0  0  3  0  0  0  0  0  0
  189.8980  177.1650  140.9620 C   0  0  2  0  0  3  0  0  0  0  0  0
  187.5560  178.2200  140.8640 C   0  0  2  0  0  3  0  0  0  0  0  0
  183.2070  179.5720  139.6520 N   0  0  0  0  0  0  0  0  0  0  0  0
  191.2130  174.0190  137.0450 C   0  0  0  0  0  2  0  0  0  0  0  0
  191.5350  176.4970  138.3850 N   0  0  2  0  0  0  0  0  0  0  0  0
  184.0270  179.2350  138.7080 C   0  0  0  0  0  3  0  0  0  0  0  0
  190.6760  175.2690  136.3570 C   0  0  0  0  0  2  0  0  0  0  0  0
  193.3630  174.9400  138.0320 C   0  0  2  0  0  3  0  0  0  0  0  0
  188.3300  176.6920  142.8300 C   0  0  0  0  0  2  0  0  0  0  0  0
  188.7100  177.7130  141.7590 C   0  0  1  0  0  3  0  0  0  0  0  0
  186.1720  178.1880  141.5340 C   0  0  0  0  0  2  0  0  0  0  0  0
  189.1500  176.5260  137.8650 C   0  0  0  0  0  2  0  0  0  0  0  0
  186.4690  178.1460  137.3410 O   0  0  0  0  0  0  0  0  0  0  0  0
  182.9550  178.2380  141.6750 C   0  0  0  0  0  1  0  0  0  0  0  0
  187.5650  177.6250  139.4310 C   0  0  2  0  0  3  0  0  0  0  0  0
  185.1260  178.7240  140.6000 C   0  0  0  0  0  0  0  0  0  0  0  0
  194.8120  174.8990  137.9170 N   0  0  0  0  0  2  0  0  0  0  0  0
  195.6000  173.8470  138.4780 C   0  0  0  0  0  0  0  0  0  0  0  0
  195.0570  172.9130  139.1250 O   0  0  0  0  0  0  0  0  0  0  0  0
  197.0130  173.8580  138.3080 N   0  0  0  0  0  1  0  0  0  0  0  0
  1 16  1  0  0  0  0
  1 20  1  0  0  0  0
  2 24  1  1  0  0  0
  2 27  1  0  0  0  0
  2 12  1  0  0  0  0
  3  4  1  0  0  0  0
  5  6  1  0  0  0  0
  6 28  2  0  0  0  0
  7 19  1  1  0  0  0
  7 24  1  0  0  0  0
  7 17  1  0  0  0  0
  9 26  1  6  0  0  0
 10 20  1  0  0  0  0
 11  3  1  0  0  0  0
 12  8  1  6  0  0  0
 12 13  1  0  0  0  0
 13 22  1  0  0  0  0
 13 11  1  1  0  0  0
 14 23  1  1  0  0  0
 14 22  1  0  0  0  0
 15  9  1  0  0  0  0
 17 10  1  6  0  0  0
 17  8  1  0  0  0  0
 18  6  1  0  0  0  0
 18 15  2  0  0  0  0
 19 16  1  0  0  0  0
 20 29  1  6  0  0  0
 21  4  1  0  0  0  0
 22 21  1  1  0  0  0
 25  5  2  0  0  0  0
 27  5  1  6  0  0  0
 27 14  1  0  0  0  0
 28  9  1  0  0  0  0
 28 23  1  0  0  0  0
 29 30  1  0  0  0  0
 30 31  2  0  0  0  0
 32 30  1  0  0  0  0
M  END
>  <MODEL>
2

>  <REMARK>
 VINA RESULT:      -7.7      2.288      8.534
  Name = 
  1 active torsions:
  status: ('A' for Active; 'I' for Inactive)
    1  A    between atoms: C_20  and  N_29
                            x       y       z     vdW  Elec       q    Type
                         _______ _______ _______ _____ _____    ______ ____

>  <TORSDO>
F 1

$$$$
=
 OpenBabel11122410383D

 32 37  0  0  1  0  0  0  0  0999 V2000
  189.3380  175.2730  136.7800 C   0  0  0  0  0  2  0  0  0  0  0  0
  185.8010  178.5390  139.6860 C   0  0  1  0  0  3  0  0  0  0  0  0
  188.7700  176.7600  143.2590 C   0  0  0  0  0  2  0  0  0  0  0  0
  187.7020  177.0090  144.3330 C   0  0  0  0  0  2  0  0  0  0  0  0
  183.3250  178.7130  140.2000 C   0  0  0  0  0  0  0  0  0  0  0  0
  182.3020  179.0620  141.1940 C   0  0  0  0  0  0  0  0  0  0  0  0
  187.1190  177.5050  137.7980 C   0  0  1  0  0  3  0  0  0  0  0  0
  188.3240  178.7860  139.3810 C   0  0  0  0  0  2  0  0  0  0  0  0
  181.2690  179.4090  143.2070 C   0  0  1  0  0  3  0  0  0  0  0  0
  189.5200  177.5750  137.7860 C   0  0  0  0  0  2  0  0  0  0  0  0
  188.7300  177.8440  142.1790 C   0  0  0  0  0  2  0  0  0  0  0  0
  187.1600  178.8200  140.3810 C   0  0  2  0  0  3  0  0  0  0  0  0
  187.3300  177.8780  141.5720 C   0  0  2  0  0  3  0  0  0  0  0  0
  184.9630  178.7120  142.1240 C   0  0  2  0  0  3  0  0  0  0  0  0
  180.3600  179.7240  142.1050 N   0  0  0  0  0  0  0  0  0  0  0  0
  187.8800  175.1280  137.2010 C   0  0  0  0  0  2  0  0  0  0  0  0
  188.3320  177.5340  138.6310 N   0  0  2  0  0  0  0  0  0  0  0  0
  180.9470  179.5270  140.9670 C   0  0  0  0  0  3  0  0  0  0  0  0
  187.0980  176.3630  136.7690 C   0  0  0  0  0  2  0  0  0  0  0  0
  190.1300  176.1820  137.7210 C   0  0  2  0  0  3  0  0  0  0  0  0
  186.3080  177.1400  143.7120 C   0  0  0  0  0  2  0  0  0  0  0  0
  186.3360  178.2590  142.6720 C   0  0  1  0  0  3  0  0  0  0  0  0
  183.7910  178.5070  143.1010 C   0  0  0  0  0  2  0  0  0  0  0  0
  185.8980  177.3720  138.6990 C   0  0  0  0  0  2  0  0  0  0  0  0
  183.0550  178.7630  138.9690 O   0  0  0  0  0  0  0  0  0  0  0  0
  180.7130  178.2450  144.0080 C   0  0  0  0  0  1  0  0  0  0  0  0
  184.6660  178.2140  140.6860 C   0  0  2  0  0  3  0  0  0  0  0  0
  182.5110  179.0010  142.4920 C   0  0  0  0  0  0  0  0  0  0  0  0
  191.5060  176.2840  137.2610 N   0  0  0  0  0  2  0  0  0  0  0  0
  192.5950  176.5590  138.1430 C   0  0  0  0  0  0  0  0  0  0  0  0
  192.3940  176.7510  139.3720 O   0  0  0  0  0  0  0  0  0  0  0  0
  193.9200  176.6230  137.6280 N   0  0  0  0  0  1  0  0  0  0  0  0
  1 16  1  0  0  0  0
  1 20  1  0  0  0  0
  2 24  1  6  0  0  0
  2 12  1  0  0  0  0
  2 27  1  0  0  0  0
  3  4  1  0  0  0  0
  5  6  1  0  0  0  0
  6 28  2  0  0  0  0
  7 19  1  6  0  0  0
  7 17  1  0  0  0  0
  7 24  1  0  0  0  0
  9 26  1  6  0  0  0
 11  3  1  0  0  0  0
 12  8  1  6  0  0  0
 12 13  1  0  0  0  0
 13 11  1  1  0  0  0
 13 22  1  0  0  0  0
 14 22  1  0  0  0  0
 14 23  1  1  0  0  0
 15  9  1  0  0  0  0
 17 10  1  6  0  0  0
 17  8  1  0  0  0  0
 18  6  1  0  0  0  0
 18 15  2  0  0  0  0
 19 16  1  0  0  0  0
 20 29  1  6  0  0  0
 20 10  1  0  0  0  0
 21  4  1  0  0  0  0
 22 21  1  1  0  0  0
 25  5  2  0  0  0  0
 27  5  1  6  0  0  0
 27 14  1  0  0  0  0
 28 23  1  0  0  0  0
 28  9  1  0  0  0  0
 29 30  1  0  0  0  0
 30 31  2  0  0  0  0
 32 30  1  0  0  0  0
M  END
>  <MODEL>
3

>  <REMARK>
 VINA RESULT:      -7.3      2.178      9.292
  Name = 
  1 active torsions:
  status: ('A' for Active; 'I' for Inactive)
    1  A    between atoms: C_20  and  N_29
                            x       y       z     vdW  Elec       q    Type
                         _______ _______ _______ _____ _____    ______ ____

>  <TORSDO>
F 1

$$$$
=
 OpenBabel11122410383D

 32 37  0  0  1  0  0  0  0  0999 V2000
  191.0050  173.5630  136.4610 C   0  0  0  0  0  2  0  0  0  0  0  0
  187.2910  177.5860  137.7430 C   0  0  1  0  0  3  0  0  0  0  0  0
  189.9910  177.2790  141.9090 C   0  0  0  0  0  2  0  0  0  0  0  0
  188.8520  177.8770  142.7440 C   0  0  0  0  0  2  0  0  0  0  0  0
  184.7860  177.8830  137.9900 C   0  0  0  0  0  0  0  0  0  0  0  0
  183.6970  178.5480  138.7190 C   0  0  0  0  0  0  0  0  0  0  0  0
  188.7330  175.9660  136.4500 C   0  0  1  0  0  3  0  0  0  0  0  0
  189.8300  177.7560  137.5400 C   0  0  0  0  0  2  0  0  0  0  0  0
  182.5280  179.5780  140.3950 C   0  0  1  0  0  3  0  0  0  0  0  0
  191.1280  176.0760  136.5760 C   0  0  0  0  0  2  0  0  0  0  0  0
  190.0340  177.8980  140.5090 C   0  0  0  0  0  2  0  0  0  0  0  0
  188.5990  178.1260  138.3780 C   0  0  2  0  0  3  0  0  0  0  0  0
  188.6810  177.6820  139.8380 C   0  0  2  0  0  3  0  0  0  0  0  0
  186.2850  178.6120  139.8900 C   0  0  2  0  0  3  0  0  0  0  0  0
  181.7000  179.4550  139.1950 N   0  0  0  0  0  0  0  0  0  0  0  0
  189.5200  173.5500  136.8070 C   0  0  0  0  0  2  0  0  0  0  0  0
  189.8840  176.3190  137.2960 N   0  0  2  0  0  0  0  0  0  0  0  0
  182.3650  178.8720  138.2490 C   0  0  0  0  0  3  0  0  0  0  0  0
  188.7780  174.5300  135.9050 C   0  0  0  0  0  2  0  0  0  0  0  0
  191.7340  174.7660  137.0600 C   0  0  2  0  0  3  0  0  0  0  0  0
  187.5060  177.7470  142.0260 C   0  0  0  0  0  2  0  0  0  0  0  0
  187.6140  178.4150  140.6560 C   0  0  1  0  0  3  0  0  0  0  0  0
  185.0460  178.7490  140.7930 C   0  0  0  0  0  2  0  0  0  0  0  0
  187.4500  176.1430  137.2540 C   0  0  0  0  0  2  0  0  0  0  0  0
  184.6040  177.4800  136.8100 O   0  0  0  0  0  0  0  0  0  0  0  0
  181.9110  178.7710  141.5240 C   0  0  0  0  0  1  0  0  0  0  0  0
  186.0870  177.6210  138.7130 C   0  0  2  0  0  3  0  0  0  0  0  0
  183.8150  178.9640  139.9620 C   0  0  0  0  0  0  0  0  0  0  0  0
  193.1400  174.7230  136.6880 N   0  0  0  0  0  2  0  0  0  0  0  0
  194.1610  175.3530  137.4630 C   0  0  0  0  0  0  0  0  0  0  0  0
  193.8710  176.0010  138.5030 O   0  0  0  0  0  0  0  0  0  0  0  0
  195.5200  175.2510  137.0520 N   0  0  0  0  0  1  0  0  0  0  0  0
  1 16  1  0  0  0  0
  1 20  1  0  0  0  0
  2 24  1  1  0  0  0
  2 12  1  0  0  0  0
  2 27  1  0  0  0  0
  3  4  1  0  0  0  0
  5  6  1  0  0  0  0
  6 28  2  0  0  0  0
  7 19  1  1  0  0  0
  7 24  1  0  0  0  0
  7 17  1  0  0  0  0
  9 26  1  1  0  0  0
 10 20  1  0  0  0  0
 11  3  1  0  0  0  0
 12  8  1  6  0  0  0
 12 13  1  0  0  0  0
 13 11  1  1  0  0  0
 13 22  1  0  0  0  0
 14 22  1  0  0  0  0
 14 23  1  1  0  0  0
 15  9  1  0  0  0  0
 17 10  1  6  0  0  0
 17  8  1  0  0  0  0
 18  6  1  0  0  0  0
 18 15  2  0  0  0  0
 19 16  1  0  0  0  0
 20 29  1  6  0  0  0
 21  4  1  0  0  0  0
 22 21  1  1  0  0  0
 25  5  2  0  0  0  0
 27  5  1  6  0  0  0
 27 14  1  0  0  0  0
 28  9  1  0  0  0  0
 28 23  1  0  0  0  0
 29 30  1  0  0  0  0
 30 31  2  0  0  0  0
 32 30  1  0  0  0  0
M  END
>  <MODEL>
4

>  <REMARK>
 VINA RESULT:      -7.0      2.349      8.687
  Name = 
  1 active torsions:
  status: ('A' for Active; 'I' for Inactive)
    1  A    between atoms: C_20  and  N_29
                            x       y       z     vdW  Elec       q    Type
                         _______ _______ _______ _____ _____    ______ ____

>  <TORSDO>
F 1

$$$$
=
 OpenBabel11122410383D

 32 37  0  0  1  0  0  0  0  0999 V2000
  188.3630  172.8410  136.6690 C   0  0  0  0  0  2  0  0  0  0  0  0
  185.0780  177.3890  137.0550 C   0  0  1  0  0  3  0  0  0  0  0  0
  188.0670  177.9110  140.9970 C   0  0  0  0  0  2  0  0  0  0  0  0
  187.0470  178.8080  141.7080 C   0  0  0  0  0  2  0  0  0  0  0  0
  182.6300  177.9740  137.3570 C   0  0  0  0  0  0  0  0  0  0  0  0
  181.6560  178.9030  137.9450 C   0  0  0  0  0  0  0  0  0  0  0  0
  186.2860  175.3640  136.1550 C   0  0  1  0  0  3  0  0  0  0  0  0
  187.5980  177.2630  136.6720 C   0  0  0  0  0  2  0  0  0  0  0  0
  180.7040  180.4340  139.3560 C   0  0  1  0  0  3  0  0  0  0  0  0
  188.6850  175.2760  136.1120 C   0  0  0  0  0  2  0  0  0  0  0  0
  188.0460  178.1430  139.4830 C   0  0  0  0  0  2  0  0  0  0  0  0
  186.4690  177.9490  137.4520 C   0  0  2  0  0  3  0  0  0  0  0  0
  186.6320  177.8890  138.9700 C   0  0  2  0  0  3  0  0  0  0  0  0
  184.3250  179.0220  138.9110 C   0  0  2  0  0  3  0  0  0  0  0  0
  179.7780  180.0850  138.2790 N   0  0  0  0  0  0  0  0  0  0  0  0
  186.9130  173.0570  137.0890 C   0  0  0  0  0  2  0  0  0  0  0  0
  187.5240  175.8120  136.8120 N   0  0  2  0  0  0  0  0  0  0  0  0
  180.3190  179.2190  137.4830 C   0  0  0  0  0  3  0  0  0  0  0  0
  186.1780  173.8380  136.0050 C   0  0  0  0  0  2  0  0  0  0  0  0
  189.2260  174.0840  136.8880 C   0  0  2  0  0  3  0  0  0  0  0  0
  185.6420  178.6250  141.1260 C   0  0  0  0  0  2  0  0  0  0  0  0
  185.6910  178.9050  139.6250 C   0  0  1  0  0  3  0  0  0  0  0  0
  183.1760  179.5030  139.8140 C   0  0  0  0  0  2  0  0  0  0  0  0
  185.0880  175.8610  136.9550 C   0  0  0  0  0  2  0  0  0  0  0  0
  182.3250  177.3000  136.3360 O   0  0  0  0  0  0  0  0  0  0  0  0
  180.1180  180.0060  140.6900 C   0  0  0  0  0  1  0  0  0  0  0  0
  183.9600  177.7860  138.0490 C   0  0  2  0  0  3  0  0  0  0  0  0
  181.9020  179.6110  139.0270 C   0  0  0  0  0  0  0  0  0  0  0  0
  190.5910  173.8150  136.4620 N   0  0  0  0  0  2  0  0  0  0  0  0
  191.7300  174.2300  137.2170 C   0  0  0  0  0  0  0  0  0  0  0  0
  191.5890  174.8790  138.2880 O   0  0  0  0  0  0  0  0  0  0  0  0
  193.0370  173.9140  136.7520 N   0  0  0  0  0  1  0  0  0  0  0  0
  1 20  1  0  0  0  0
  1 16  1  0  0  0  0
  2 24  1  1  0  0  0
  2 12  1  0  0  0  0
  2 27  1  0  0  0  0
  3  4  1  0  0  0  0
  5  6  1  0  0  0  0
  6 28  2  0  0  0  0
  7 19  1  1  0  0  0
  7 17  1  0  0  0  0
  7 24  1  0  0  0  0
  8 17  1  0  0  0  0
  9 26  1  1  0  0  0
 10 20  1  0  0  0  0
 11  3  1  0  0  0  0
 12  8  1  6  0  0  0
 12 13  1  0  0  0  0
 13 11  1  6  0  0  0
 13 22  1  0  0  0  0
 14 22  1  0  0  0  0
 14 23  1  1  0  0  0
 15  9  1  0  0  0  0
 17 10  1  6  0  0  0
 18  6  1  0  0  0  0
 18 15  2  0  0  0  0
 19 16  1  0  0  0  0
 20 29  1  6  0  0  0
 21  4  1  0  0  0  0
 22 21  1  1  0  0  0
 25  5  2  0  0  0  0
 27  5  1  6  0  0  0
 27 14  1  0  0  0  0
 28  9  1  0  0  0  0
 28 23  1  0  0  0  0
 29 30  1  0  0  0  0
 30 31  2  0  0  0  0
 32 30  1  0  0  0  0
M  END
>  <MODEL>
5

>  <REMARK>
 VINA RESULT:      -6.6      3.469      9.333
  Name = 
  1 active torsions:
  status: ('A' for Active; 'I' for Inactive)
    1  A    between atoms: C_20  and  N_29
                            x       y       z     vdW  Elec       q    Type
                         _______ _______ _______ _____ _____    ______ ____

>  <TORSDO>
F 1

$$$$
=
 OpenBabel11122410383D

 32 37  0  0  1  0  0  0  0  0999 V2000
  188.9350  178.7920  148.3330 C   0  0  0  0  0  2  0  0  0  0  0  0
  185.2080  177.7480  144.2540 C   0  0  1  0  0  3  0  0  0  0  0  0
  189.4450  178.2730  141.7010 C   0  0  0  0  0  2  0  0  0  0  0  0
  188.6810  178.6280  140.4190 C   0  0  0  0  0  2  0  0  0  0  0  0
  183.1090  178.7640  143.2610 C   0  0  0  0  0  0  0  0  0  0  0  0
  182.3210  179.0030  142.0450 C   0  0  0  0  0  0  0  0  0  0  0  0
  186.3170  177.9080  146.5170 C   0  0  1  0  0  3  0  0  0  0  0  0
  187.2220  176.3570  144.9770 C   0  0  0  0  0  2  0  0  0  0  0  0
  181.7830  179.3330  139.8440 C   0  0  1  0  0  3  0  0  0  0  0  0
  188.3740  176.7530  146.9660 C   0  0  0  0  0  2  0  0  0  0  0  0
  188.6800  177.2400  142.5330 C   0  0  0  0  0  2  0  0  0  0  0  0
  186.4470  176.9400  143.7880 C   0  0  2  0  0  3  0  0  0  0  0  0
  187.2940  177.7960  142.8480 C   0  0  2  0  0  3  0  0  0  0  0  0
  185.0200  178.1800  141.7140 C   0  0  2  0  0  3  0  0  0  0  0  0
  180.5810  179.3760  140.6770 N   0  0  0  0  0  0  0  0  0  0  0  0
  187.8340  179.6190  147.6810 C   0  0  0  0  0  2  0  0  0  0  0  0
  187.5700  177.3990  145.9360 N   0  0  2  0  0  0  0  0  0  0  0  0
  180.8880  179.1880  141.9210 C   0  0  0  0  0  3  0  0  0  0  0  0
  186.5220  178.8440  147.7190 C   0  0  0  0  0  2  0  0  0  0  0  0
  189.4770  177.7040  147.4060 C   0  0  2  0  0  3  0  0  0  0  0  0
  187.2550  179.0940  140.7310 C   0  0  0  0  0  2  0  0  0  0  0  0
  186.5440  178.0020  141.5290 C   0  0  1  0  0  3  0  0  0  0  0  0
  184.3330  178.9760  140.5900 C   0  0  0  0  0  2  0  0  0  0  0  0
  185.5370  178.6570  145.4430 C   0  0  0  0  0  2  0  0  0  0  0  0
  182.5430  178.7400  144.3870 O   0  0  0  0  0  0  0  0  0  0  0  0
  181.9940  180.6850  139.1850 C   0  0  0  0  0  1  0  0  0  0  0  0
  184.6100  178.6370  143.1380 C   0  0  2  0  0  3  0  0  0  0  0  0
  182.8560  179.0710  140.8440 C   0  0  0  0  0  0  0  0  0  0  0  0
  190.5160  176.9490  148.0890 N   0  0  0  0  0  2  0  0  0  0  0  0
  191.7090  176.5150  147.4350 C   0  0  0  0  0  0  0  0  0  0  0  0
  191.8960  176.7550  146.2130 O   0  0  0  0  0  0  0  0  0  0  0  0
  192.6950  175.7990  148.1710 N   0  0  0  0  0  1  0  0  0  0  0  0
  2 24  1  1  0  0  0
  3 11  1  0  0  0  0
  4 21  1  0  0  0  0
  4  3  1  0  0  0  0
  5 25  2  0  0  0  0
  6  5  1  0  0  0  0
  7 24  1  6  0  0  0
  7 19  1  0  0  0  0
  9 26  1  1  0  0  0
  9 15  1  0  0  0  0
  9 28  1  0  0  0  0
 10 20  1  0  0  0  0
 12  2  1  0  0  0  0
 12  8  1  1  0  0  0
 13 11  1  6  0  0  0
 13 12  1  0  0  0  0
 14 23  1  6  0  0  0
 14 27  1  0  0  0  0
 15 18  2  0  0  0  0
 16 19  1  0  0  0  0
 16  1  1  0  0  0  0
 17  8  1  6  0  0  0
 17  7  1  0  0  0  0
 17 10  1  0  0  0  0
 18  6  1  0  0  0  0
 20 29  1  1  0  0  0
 20  1  1  0  0  0  0
 22 21  1  1  0  0  0
 22 14  1  0  0  0  0
 22 13  1  0  0  0  0
 23 28  1  0  0  0  0
 27  5  1  6  0  0  0
 27  2  1  0  0  0  0
 28  6  2  0  0  0  0
 30 29  1  0  0  0  0
 30 32  1  0  0  0  0
 31 30  2  0  0  0  0
M  END
>  <MODEL>
6

>  <REMARK>
 VINA RESULT:      -6.5      5.153      9.046
  Name = 
  1 active torsions:
  status: ('A' for Active; 'I' for Inactive)
    1  A    between atoms: C_20  and  N_29
                            x       y       z     vdW  Elec       q    Type
                         _______ _______ _______ _____ _____    ______ ____

>  <TORSDO>
F 1

$$$$
=
 OpenBabel11122410383D

 32 37  0  0  1  0  0  0  0  0999 V2000
  183.5210  178.5520  142.0440 C   0  0  0  0  0  2  0  0  0  0  0  0
  188.1190  177.9390  138.8650 C   0  0  1  0  0  3  0  0  0  0  0  0
  184.9530  174.7230  136.7710 C   0  0  0  0  0  2  0  0  0  0  0  0
  186.1070  173.9090  136.1720 C   0  0  0  0  0  2  0  0  0  0  0  0
  190.5380  177.2170  139.0990 C   0  0  0  0  0  0  0  0  0  0  0  0
  191.6780  176.5350  138.4740 C   0  0  0  0  0  0  0  0  0  0  0  0
  186.4170  178.8730  140.4780 C   0  0  1  0  0  3  0  0  0  0  0  0
  185.8100  178.7960  138.1930 C   0  0  0  0  0  2  0  0  0  0  0  0
  192.8890  175.1080  137.1560 C   0  0  1  0  0  3  0  0  0  0  0  0
  184.1820  179.3780  139.7580 C   0  0  0  0  0  2  0  0  0  0  0  0
  185.2860  176.2180  136.7940 C   0  0  0  0  0  2  0  0  0  0  0  0
  186.9780  177.8750  137.8160 C   0  0  2  0  0  3  0  0  0  0  0  0
  186.5760  176.4190  137.5840 C   0  0  2  0  0  3  0  0  0  0  0  0
  189.1160  176.1260  137.3170 C   0  0  2  0  0  3  0  0  0  0  0  0
  193.7820  175.9470  137.9570 N   0  0  0  0  0  0  0  0  0  0  0  0
  184.8700  177.8780  142.2670 C   0  0  0  0  0  2  0  0  0  0  0  0
  185.3370  178.5150  139.5440 N   0  0  2  0  0  0  0  0  0  0  0  0
  193.0930  176.7530  138.7010 C   0  0  0  0  0  3  0  0  0  0  0  0
  185.9910  178.8620  141.9550 C   0  0  0  0  0  2  0  0  0  0  0  0
  183.1380  178.6190  140.5650 C   0  0  2  0  0  3  0  0  0  0  0  0
  187.4240  174.1850  136.9040 C   0  0  0  0  0  2  0  0  0  0  0  0
  187.7070  175.6860  136.8570 C   0  0  1  0  0  3  0  0  0  0  0  0
  190.2090  175.0620  137.1190 C   0  0  0  0  0  2  0  0  0  0  0  0
  187.5770  177.9020  140.2970 C   0  0  0  0  0  2  0  0  0  0  0  0
  190.7320  178.0930  139.9850 O   0  0  0  0  0  0  0  0  0  0  0  0
  193.0730  173.6520  137.5470 C   0  0  0  0  0  1  0  0  0  0  0  0
  189.1390  176.7850  138.7210 C   0  0  2  0  0  3  0  0  0  0  0  0
  191.5410  175.5900  137.5680 C   0  0  0  0  0  0  0  0  0  0  0  0
  181.8500  179.2780  140.4210 N   0  0  0  0  0  2  0  0  0  0  0  0
  180.6120  178.5670  140.4550 C   0  0  0  0  0  0  0  0  0  0  0  0
  180.5940  177.3140  140.5890 O   0  0  0  0  0  0  0  0  0  0  0  0
  179.3860  179.2790  140.3300 N   0  0  0  0  0  1  0  0  0  0  0  0
  1 16  1  0  0  0  0
  2 24  1  1  0  0  0
  3 11  1  0  0  0  0
  4  3  1  0  0  0  0
  4 21  1  0  0  0  0
  5 25  2  0  0  0  0
  6 18  1  0  0  0  0
  6  5  1  0  0  0  0
  7 24  1  1  0  0  0
  7 19  1  0  0  0  0
  9 26  1  1  0  0  0
  9 28  1  0  0  0  0
  9 15  1  0  0  0  0
 10 20  1  0  0  0  0
 12  8  1  1  0  0  0
 12  2  1  0  0  0  0
 13 11  1  6  0  0  0
 13 12  1  0  0  0  0
 14 23  1  1  0  0  0
 14 27  1  0  0  0  0
 15 18  2  0  0  0  0
 17  8  1  6  0  0  0
 17 10  1  0  0  0  0
 17  7  1  0  0  0  0
 19 16  1  0  0  0  0
 20 29  1  1  0  0  0
 20  1  1  0  0  0  0
 22 21  1  1  0  0  0
 22 14  1  0  0  0  0
 22 13  1  0  0  0  0
 23 28  1  0  0  0  0
 27  2  1  0  0  0  0
 27  5  1  6  0  0  0
 28  6  2  0  0  0  0
 29 30  1  0  0  0  0
 30 31  2  0  0  0  0
 32 30  1  0  0  0  0
M  END
>  <MODEL>
7

>  <REMARK>
 VINA RESULT:      -6.5      2.222      3.219
  Name = 
  1 active torsions:
  status: ('A' for Active; 'I' for Inactive)
    1  A    between atoms: C_20  and  N_29
                            x       y       z     vdW  Elec       q    Type
                         _______ _______ _______ _____ _____    ______ ____

>  <TORSDO>
F 1

$$$$
=
 OpenBabel11122410383D

 32 37  0  0  1  0  0  0  0  0999 V2000
  195.5090  172.5430  137.8210 C   0  0  0  0  0  2  0  0  0  0  0  0
  191.1290  175.7960  136.4570 C   0  0  1  0  0  3  0  0  0  0  0  0
  191.9710  177.0910  141.1850 C   0  0  0  0  0  2  0  0  0  0  0  0
  190.5300  177.5900  141.3520 C   0  0  0  0  0  2  0  0  0  0  0  0
  188.7150  175.5610  135.7190 C   0  0  0  0  0  0  0  0  0  0  0  0
  187.3550  176.1100  135.7880 C   0  0  0  0  0  0  0  0  0  0  0  0
  193.1520  174.2930  136.2980 C   0  0  1  0  0  3  0  0  0  0  0  0
  193.4980  176.4900  137.1050 C   0  0  0  0  0  2  0  0  0  0  0  0
  185.5000  177.2060  136.5610 C   0  0  1  0  0  3  0  0  0  0  0  0
  195.2680  174.9740  137.2070 C   0  0  0  0  0  2  0  0  0  0  0  0
  192.4890  177.3600  139.7700 C   0  0  0  0  0  2  0  0  0  0  0  0
  192.0010  176.7530  137.3120 C   0  0  2  0  0  3  0  0  0  0  0  0
  191.5500  176.6910  138.7700 C   0  0  2  0  0  3  0  0  0  0  0  0
  189.2360  177.0340  137.7060 C   0  0  2  0  0  3  0  0  0  0  0  0
  185.2380  176.6220  135.2460 N   0  0  0  0  0  0  0  0  0  0  0  0
  194.0230  172.2720  137.6170 C   0  0  0  0  0  2  0  0  0  0  0  0
  193.8210  175.0870  137.3410 N   0  0  2  0  0  0  0  0  0  0  0  0
  186.2890  176.0020  134.8110 C   0  0  0  0  0  3  0  0  0  0  0  0
  193.5840  172.8190  136.2640 C   0  0  0  0  0  2  0  0  0  0  0  0
  195.7870  173.9860  138.2420 C   0  0  2  0  0  3  0  0  0  0  0  0
  189.6060  176.9930  140.2870 C   0  0  0  0  0  2  0  0  0  0  0  0
  190.1650  177.3300  138.9050 C   0  0  1  0  0  3  0  0  0  0  0  0
  187.7350  177.0910  138.0370 C   0  0  0  0  0  2  0  0  0  0  0  0
  191.6440  174.3540  136.5140 C   0  0  0  0  0  2  0  0  0  0  0  0
  189.0670  174.8640  134.7300 O   0  0  0  0  0  0  0  0  0  0  0  0
  184.5890  176.5640  137.5940 C   0  0  0  0  0  1  0  0  0  0  0  0
  189.6440  175.7790  136.8910 C   0  0  2  0  0  3  0  0  0  0  0  0
  186.9170  176.8190  136.8080 C   0  0  0  0  0  0  0  0  0  0  0  0
  197.2190  174.1810  138.4120 N   0  0  0  0  0  2  0  0  0  0  0  0
  197.7680  175.0080  139.4390 C   0  0  0  0  0  0  0  0  0  0  0  0
  197.0140  175.6310  140.2340 O   0  0  0  0  0  0  0  0  0  0  0  0
  199.1800  175.1360  139.5610 N   0  0  0  0  0  1  0  0  0  0  0  0
  1 20  1  0  0  0  0
  2 24  1  1  0  0  0
  2 27  1  0  0  0  0
  2 12  1  0  0  0  0
  3  4  1  0  0  0  0
  5  6  1  0  0  0  0
  6 28  2  0  0  0  0
  7 19  1  1  0  0  0
  7 24  1  0  0  0  0
  7 17  1  0  0  0  0
  9 28  1  0  0  0  0
  9 26  1  1  0  0  0
 10 17  1  0  0  0  0
 10 20  1  0  0  0  0
 11  3  1  0  0  0  0
 12  8  1  1  0  0  0
 12 13  1  0  0  0  0
 13 22  1  0  0  0  0
 13 11  1  1  0  0  0
 14 23  1  1  0  0  0
 14 22  1  0  0  0  0
 15  9  1  0  0  0  0
 16  1  1  0  0  0  0
 17  8  1  6  0  0  0
 18 15  2  0  0  0  0
 18  6  1  0  0  0  0
 19 16  1  0  0  0  0
 20 29  1  6  0  0  0
 21  4  1  0  0  0  0
 22 21  1  1  0  0  0
 25  5  2  0  0  0  0
 27  5  1  6  0  0  0
 27 14  1  0  0  0  0
 28 23  1  0  0  0  0
 29 30  1  0  0  0  0
 30 32  1  0  0  0  0
 30 31  2  0  0  0  0
M  END
>  <MODEL>
8

>  <REMARK>
 VINA RESULT:      -6.2      3.529      8.268
  Name = 
  1 active torsions:
  status: ('A' for Active; 'I' for Inactive)
    1  A    between atoms: C_20  and  N_29
                            x       y       z     vdW  Elec       q    Type
                         _______ _______ _______ _____ _____    ______ ____

>  <TORSDO>
F 1

$$$$
=
 OpenBabel11122410383D

 32 37  0  0  1  0  0  0  0  0999 V2000
  190.0080  174.5690  136.4770 C   0  0  0  0  0  2  0  0  0  0  0  0
  187.6910  178.1230  140.1670 C   0  0  1  0  0  3  0  0  0  0  0  0
  191.6550  176.4480  142.6630 C   0  0  0  0  0  2  0  0  0  0  0  0
  191.0100  176.7970  144.0100 C   0  0  0  0  0  2  0  0  0  0  0  0
  185.5300  178.4140  141.4610 C   0  0  0  0  0  0  0  0  0  0  0  0
  184.9030  178.8580  142.7120 C   0  0  0  0  0  0  0  0  0  0  0  0
  188.2890  176.9340  138.0220 C   0  0  1  0  0  3  0  0  0  0  0  0
  189.9700  178.2600  139.0270 C   0  0  0  0  0  2  0  0  0  0  0  0
  184.6060  179.3570  144.9260 C   0  0  1  0  0  3  0  0  0  0  0  0
  190.5480  176.9170  137.2100 C   0  0  0  0  0  2  0  0  0  0  0  0
  191.2730  177.4680  141.5870 C   0  0  0  0  0  2  0  0  0  0  0  0
  189.2070  178.3940  140.3510 C   0  0  2  0  0  3  0  0  0  0  0  0
  189.7520  177.5170  141.4780 C   0  0  2  0  0  3  0  0  0  0  0  0
  187.7170  178.4670  142.7280 C   0  0  2  0  0  3  0  0  0  0  0  0
  183.3860  179.6400  144.1700 N   0  0  0  0  0  0  0  0  0  0  0  0
  188.7720  174.5000  137.3660 C   0  0  0  0  0  2  0  0  0  0  0  0
  189.7100  176.9680  138.4010 N   0  0  2  0  0  0  0  0  0  0  0  0
  183.5570  179.3570  142.9180 C   0  0  0  0  0  3  0  0  0  0  0  0
  187.9090  175.7360  137.1370 C   0  0  0  0  0  2  0  0  0  0  0  0
  191.0820  175.5010  137.0380 C   0  0  2  0  0  3  0  0  0  0  0  0
  189.4910  176.9420  143.8800 C   0  0  0  0  0  2  0  0  0  0  0  0
  189.1870  177.9970  142.8180 C   0  0  1  0  0  3  0  0  0  0  0  0
  186.9350  178.3610  144.0490 C   0  0  0  0  0  2  0  0  0  0  0  0
  187.4360  176.8970  139.2850 C   0  0  0  0  0  2  0  0  0  0  0  0
  184.8670  178.4030  140.3890 O   0  0  0  0  0  0  0  0  0  0  0  0
  184.3320  178.2620  145.9430 C   0  0  0  0  0  1  0  0  0  0  0  0
  186.9500  177.8970  141.5060 C   0  0  2  0  0  3  0  0  0  0  0  0
  185.5320  178.8640  143.8690 C   0  0  0  0  0  0  0  0  0  0  0  0
  192.2270  175.5270  136.1420 N   0  0  0  0  0  2  0  0  0  0  0  0
  193.4690  176.1370  136.4960 C   0  0  0  0  0  0  0  0  0  0  0  0
  193.6100  176.7070  137.6100 O   0  0  0  0  0  0  0  0  0  0  0  0
  194.5560  176.1060  135.5780 N   0  0  0  0  0  1  0  0  0  0  0  0
  1 20  1  0  0  0  0
  1 16  1  0  0  0  0
  2 24  1  6  0  0  0
  2 12  1  0  0  0  0
  2 27  1  0  0  0  0
  3  4  1  0  0  0  0
  5  6  1  0  0  0  0
  6 18  1  0  0  0  0
  6 28  2  0  0  0  0
  7 19  1  6  0  0  0
  7 17  1  0  0  0  0
  7 24  1  0  0  0  0
  9 26  1  1  0  0  0
 11  3  1  0  0  0  0
 12  8  1  6  0  0  0
 12 13  1  0  0  0  0
 13 11  1  1  0  0  0
 13 22  1  0  0  0  0
 14 22  1  0  0  0  0
 14 23  1  1  0  0  0
 15  9  1  0  0  0  0
 17 10  1  6  0  0  0
 17  8  1  0  0  0  0
 18 15  2  0  0  0  0
 19 16  1  0  0  0  0
 20 29  1  6  0  0  0
 20 10  1  0  0  0  0
 21  4  1  0  0  0  0
 22 21  1  1  0  0  0
 25  5  2  0  0  0  0
 27  5  1  6  0  0  0
 27 14  1  0  0  0  0
 28 23  1  0  0  0  0
 28  9  1  0  0  0  0
 29 30  1  0  0  0  0
 30 31  2  0  0  0  0
 32 30  1  0  0  0  0
M  END
>  <MODEL>
9

>  <REMARK>
 VINA RESULT:      -6.1      1.532      8.898
  Name = 
  1 active torsions:
  status: ('A' for Active; 'I' for Inactive)
    1  A    between atoms: C_20  and  N_29
                            x       y       z     vdW  Elec       q    Type
                         _______ _______ _______ _____ _____    ______ ____

>  <TORSDO>
F 1

$$$$
