=
 OpenBabel11122410283D

 30 35  0  0  1  0  0  0  0  0999 V2000
  186.0690  178.4850  142.1050 C   0  0  0  0  0  0  0  0  0  0  0  0
  183.4920  178.4610  142.1680 C   0  0  0  0  0  0  0  0  0  0  0  0
  185.9850  178.4220  146.2720 N   0  0  0  0  0  2  0  0  0  0  0  0
  187.2740  178.3430  142.8270 C   0  0  0  0  0  0  0  0  0  0  0  0
  186.1300  178.4850  140.7060 C   0  0  0  0  0  3  0  0  0  0  0  0
  189.6830  177.7880  140.0490 O   0  0  0  0  0  1  0  0  0  0  0  0
  190.1450  178.2780  144.1570 C   0  0  1  0  0  3  0  0  0  0  0  0
  188.5000  178.0500  140.7380 C   0  0  0  0  0  0  0  0  0  0  0  0
  189.3560  177.8590  145.4000 C   0  0  2  0  0  3  0  0  0  0  0  0
  187.0700  177.5160  146.3420 C   0  0  0  0  0  0  0  0  0  0  0  0
  187.3290  178.2960  140.0190 C   0  0  0  0  0  0  0  0  0  0  0  0
  188.4890  178.0550  142.1430 C   0  0  0  0  0  0  0  0  0  0  0  0
  182.3040  178.6090  142.8860 C   0  0  0  0  0  3  0  0  0  0  0  0
  190.0810  176.7640  146.0260 N   0  0  0  0  0  2  0  0  0  0  0  0
  191.5720  177.9330  144.5170 C   0  0  0  0  0  2  0  0  0  0  0  0
  183.3380  178.1020  140.7290 C   0  0  0  0  0  1  0  0  0  0  0  0
  186.0200  179.1100  144.9910 C   0  0  0  0  0  0  0  0  0  0  0  0
  182.3240  178.9050  144.2430 C   0  0  0  0  0  3  0  0  0  0  0  0
  184.7540  178.6200  142.8190 C   0  0  0  0  0  0  0  0  0  0  0  0
  187.2990  178.6150  144.3010 C   0  0  0  0  0  0  0  0  0  0  0  0
  187.2650  176.7770  147.3420 O   0  0  0  0  0  0  0  0  0  0  0  0
  187.9020  177.4860  145.1190 C   0  0  1  0  0  3  0  0  0  0  0  0
  191.4870  177.0290  145.7380 C   0  0  0  0  0  2  0  0  0  0  0  0
  189.7510  176.0380  142.9430 C   0  0  0  0  0  1  0  0  0  0  0  0
  183.5410  179.0420  144.9000 C   0  0  0  0  0  3  0  0  0  0  0  0
  184.7520  178.8770  144.2150 C   0  0  0  0  0  0  0  0  0  0  0  0
  189.7450  177.5620  142.8450 C   0  0  2  0  0  3  0  0  0  0  0  0
  187.3620  178.3040  138.5880 N   0  0  0  0  0  2  0  0  0  0  0  0
  186.0710  176.8670  137.1220 C   0  0  0  0  0  1  0  0  0  0  0  0
  186.1630  178.2340  137.7680 C   0  0  0  0  0  2  0  0  0  0  0  0
  1 19  1  0  0  0  0
  1  4  1  0  0  0  0
  2 19  2  0  0  0  0
  2 13  1  0  0  0  0
  3 10  1  0  0  0  0
  4 20  1  0  0  0  0
  5  1  2  0  0  0  0
  6  8  1  0  0  0  0
  7 15  1  1  0  0  0
  7  9  1  0  0  0  0
  8 12  1  0  0  0  0
  9 14  1  6  0  0  0
 10 21  2  0  0  0  0
 11  5  1  0  0  0  0
 11  8  2  0  0  0  0
 12  4  2  0  0  0  0
 12 27  1  0  0  0  0
 13 18  2  0  0  0  0
 15 23  1  0  0  0  0
 16  2  1  0  0  0  0
 17  3  1  0  0  0  0
 18 25  1  0  0  0  0
 19 26  1  0  0  0  0
 20 17  2  0  0  0  0
 22 20  1  6  0  0  0
 22  9  1  0  0  0  0
 22 10  1  0  0  0  0
 23 14  1  0  0  0  0
 26 25  2  0  0  0  0
 26 17  1  0  0  0  0
 27 24  1  1  0  0  0
 27  7  1  0  0  0  0
 28 11  1  0  0  0  0
 29 30  1  0  0  0  0
 30 28  1  0  0  0  0
M  END
>  <MODEL>
1

>  <REMARK>
 VINA RESULT:     -10.0      0.000      0.000
  Name = 
  2 active torsions:
  status: ('A' for Active; 'I' for Inactive)
    1  A    between atoms: C_11  and  N_28
    2  A    between atoms: N_28  and  C_30
                            x       y       z     vdW  Elec       q    Type
                         _______ _______ _______ _____ _____    ______ ____

>  <TORSDO>
F 2

$$$$
=
 OpenBabel11122410283D

 30 35  0  0  1  0  0  0  0  0999 V2000
  188.6310  177.3170  145.1680 C   0  0  0  0  0  0  0  0  0  0  0  0
  187.1880  178.2070  147.1090 C   0  0  0  0  0  0  0  0  0  0  0  0
  185.5050  178.3570  142.6140 N   0  0  0  0  0  2  0  0  0  0  0  0
  188.8050  177.2140  143.7700 C   0  0  0  0  0  0  0  0  0  0  0  0
  189.7070  176.9770  145.9960 C   0  0  0  0  0  3  0  0  0  0  0  0
  192.4020  176.2890  143.5870 O   0  0  0  0  0  1  0  0  0  0  0  0
  189.4050  176.6280  140.7180 C   0  0  1  0  0  3  0  0  0  0  0  0
  191.1430  176.5980  144.0990 C   0  0  0  0  0  0  0  0  0  0  0  0
  188.2090  177.5570  140.4960 C   0  0  2  0  0  3  0  0  0  0  0  0
  186.3920  178.8430  141.6250 C   0  0  0  0  0  0  0  0  0  0  0  0
  190.9460  176.5960  145.4810 C   0  0  0  0  0  0  0  0  0  0  0  0
  190.0880  176.9190  143.2270 C   0  0  0  0  0  0  0  0  0  0  0  0
  185.9480  178.6300  147.5920 C   0  0  0  0  0  3  0  0  0  0  0  0
  188.5580  178.4620  139.4130 N   0  0  0  0  0  2  0  0  0  0  0  0
  190.0470  176.5530  139.3520 C   0  0  0  0  0  2  0  0  0  0  0  0
  188.3140  178.2570  148.0860 C   0  0  0  0  0  1  0  0  0  0  0  0
  186.2140  177.4220  143.4740 C   0  0  0  0  0  0  0  0  0  0  0  0
  184.8340  178.6620  146.7630 C   0  0  0  0  0  3  0  0  0  0  0  0
  187.3300  177.7920  145.7490 C   0  0  0  0  0  0  0  0  0  0  0  0
  187.6150  177.2950  142.8610 C   0  0  0  0  0  0  0  0  0  0  0  0
  186.0370  179.6840  140.7580 O   0  0  0  0  0  0  0  0  0  0  0  0
  187.7680  178.3160  141.7470 C   0  0  1  0  0  3  0  0  0  0  0  0
  189.4380  177.6890  138.5430 C   0  0  0  0  0  2  0  0  0  0  0  0
  190.9540  178.5300  141.5100 C   0  0  0  0  0  1  0  0  0  0  0  0
  184.9560  178.2850  145.4310 C   0  0  0  0  0  3  0  0  0  0  0  0
  186.1900  177.8780  144.9080 C   0  0  0  0  0  0  0  0  0  0  0  0
  190.4380  177.1150  141.7610 C   0  0  2  0  0  3  0  0  0  0  0  0
  192.0260  176.2500  146.3520 N   0  0  0  0  0  2  0  0  0  0  0  0
  192.9630  175.8800  148.5570 C   0  0  0  0  0  1  0  0  0  0  0  0
  191.8370  175.5380  147.6060 C   0  0  0  0  0  2  0  0  0  0  0  0
  1 19  1  0  0  0  0
  1  5  1  0  0  0  0
  2 13  1  0  0  0  0
  2 16  1  0  0  0  0
  3 17  1  0  0  0  0
  4  1  2  0  0  0  0
  6  8  1  0  0  0  0
  7 15  1  6  0  0  0
  7 27  1  0  0  0  0
  8 11  1  0  0  0  0
  9 14  1  6  0  0  0
  9  7  1  0  0  0  0
  9 22  1  0  0  0  0
 10  3  1  0  0  0  0
 11  5  2  0  0  0  0
 11 28  1  0  0  0  0
 12  4  1  0  0  0  0
 12  8  2  0  0  0  0
 17 26  1  0  0  0  0
 18 13  2  0  0  0  0
 19  2  2  0  0  0  0
 20 17  2  0  0  0  0
 20  4  1  0  0  0  0
 21 10  2  0  0  0  0
 22 10  1  6  0  0  0
 22 20  1  0  0  0  0
 23 15  1  0  0  0  0
 23 14  1  0  0  0  0
 25 18  1  0  0  0  0
 26 25  2  0  0  0  0
 26 19  1  0  0  0  0
 27 24  1  1  0  0  0
 27 12  1  0  0  0  0
 28 30  1  0  0  0  0
 30 29  1  0  0  0  0
M  END
>  <MODEL>
2

>  <REMARK>
 VINA RESULT:      -9.8      2.397      5.912
  Name = 
  2 active torsions:
  status: ('A' for Active; 'I' for Inactive)
    1  A    between atoms: C_11  and  N_28
    2  A    between atoms: N_28  and  C_30
                            x       y       z     vdW  Elec       q    Type
                         _______ _______ _______ _____ _____    ______ ____

>  <TORSDO>
F 2

$$$$
=
 OpenBabel11122410283D

 30 35  0  0  1  0  0  0  0  0999 V2000
  188.9810  177.4340  143.4630 C   0  0  0  0  0  0  0  0  0  0  0  0
  191.0860  177.2670  144.9420 C   0  0  0  0  0  0  0  0  0  0  0  0
  186.7480  177.5590  146.9810 N   0  0  0  0  0  2  0  0  0  0  0  0
  187.5910  177.6770  143.4020 C   0  0  0  0  0  0  0  0  0  0  0  0
  189.7040  177.4170  142.2650 C   0  0  0  0  0  3  0  0  0  0  0  0
  187.1690  178.3660  139.7720 O   0  0  0  0  0  1  0  0  0  0  0  0
  184.4770  177.9790  142.9230 C   0  0  1  0  0  3  0  0  0  0  0  0
  187.7510  178.0280  140.9920 C   0  0  0  0  0  0  0  0  0  0  0  0
  184.4740  178.3580  144.4070 C   0  0  2  0  0  3  0  0  0  0  0  0
  185.8730  178.5440  146.4650 C   0  0  0  0  0  0  0  0  0  0  0  0
  189.1030  177.6840  141.0350 C   0  0  0  0  0  0  0  0  0  0  0  0
  186.9820  178.0450  142.1690 C   0  0  0  0  0  0  0  0  0  0  0  0
  191.6630  177.0430  146.1930 C   0  0  0  0  0  3  0  0  0  0  0  0
  183.6040  179.5130  144.5570 N   0  0  0  0  0  2  0  0  0  0  0  0
  183.1180  178.4340  142.4440 C   0  0  0  0  0  2  0  0  0  0  0  0
  192.0360  177.5910  143.8390 C   0  0  0  0  0  1  0  0  0  0  0  0
  187.3790  176.8550  145.8760 C   0  0  0  0  0  0  0  0  0  0  0  0
  190.8740  176.7710  147.3030 C   0  0  0  0  0  3  0  0  0  0  0  0
  189.6670  177.2130  144.7820 C   0  0  0  0  0  0  0  0  0  0  0  0
  186.7350  177.4320  144.6090 C   0  0  0  0  0  0  0  0  0  0  0  0
  185.2100  179.3120  147.2100 O   0  0  0  0  0  0  0  0  0  0  0  0
  185.8630  178.6170  144.9870 C   0  0  1  0  0  3  0  0  0  0  0  0
  182.5780  179.3490  143.5320 C   0  0  0  0  0  2  0  0  0  0  0  0
  185.6350  180.1630  142.1930 C   0  0  0  0  0  1  0  0  0  0  0  0
  189.4910  176.7360  147.1730 C   0  0  0  0  0  3  0  0  0  0  0  0
  188.8770  176.9800  145.9380 C   0  0  0  0  0  0  0  0  0  0  0  0
  185.5860  178.6410  142.0730 C   0  0  2  0  0  3  0  0  0  0  0  0
  189.8670  177.6550  139.8250 N   0  0  0  0  0  2  0  0  0  0  0  0
  191.5160  176.5490  138.4340 C   0  0  0  0  0  1  0  0  0  0  0  0
  191.2500  177.2060  139.7720 C   0  0  0  0  0  2  0  0  0  0  0  0
  1 19  1  0  0  0  0
  2 13  1  0  0  0  0
  4  1  1  0  0  0  0
  4 20  1  0  0  0  0
  5  1  2  0  0  0  0
  6  8  1  0  0  0  0
  7 15  1  6  0  0  0
  7  9  1  0  0  0  0
  8 11  2  0  0  0  0
  8 12  1  0  0  0  0
  9 14  1  6  0  0  0
  9 22  1  0  0  0  0
 10  3  1  0  0  0  0
 10 21  2  0  0  0  0
 11  5  1  0  0  0  0
 12  4  2  0  0  0  0
 13 18  2  0  0  0  0
 15 23  1  0  0  0  0
 16  2  1  0  0  0  0
 17 26  1  0  0  0  0
 17  3  1  0  0  0  0
 19  2  2  0  0  0  0
 19 26  1  0  0  0  0
 20 17  2  0  0  0  0
 22 20  1  6  0  0  0
 22 10  1  0  0  0  0
 23 14  1  0  0  0  0
 25 18  1  0  0  0  0
 26 25  2  0  0  0  0
 27 12  1  0  0  0  0
 27 24  1  1  0  0  0
 27  7  1  0  0  0  0
 28 11  1  0  0  0  0
 29 30  1  0  0  0  0
 30 28  1  0  0  0  0
M  END
>  <MODEL>
3

>  <REMARK>
 VINA RESULT:      -9.7      1.795      5.517
  Name = 
  2 active torsions:
  status: ('A' for Active; 'I' for Inactive)
    1  A    between atoms: C_11  and  N_28
    2  A    between atoms: N_28  and  C_30
                            x       y       z     vdW  Elec       q    Type
                         _______ _______ _______ _____ _____    ______ ____

>  <TORSDO>
F 2

$$$$
=
 OpenBabel11122410283D

 30 35  0  0  1  0  0  0  0  0999 V2000
  188.1100  178.0400  141.5090 C   0  0  0  0  0  0  0  0  0  0  0  0
  189.0250  177.3280  143.8110 C   0  0  0  0  0  0  0  0  0  0  0  0
  191.6630  176.6120  139.8620 N   0  0  0  0  0  2  0  0  0  0  0  0
  188.2610  177.9900  140.1050 C   0  0  0  0  0  0  0  0  0  0  0  0
  186.8970  178.5080  142.0290 C   0  0  0  0  0  3  0  0  0  0  0  0
  184.8570  179.0090  139.0070 O   0  0  0  0  0  1  0  0  0  0  0  0
  188.3970  178.2460  136.9540 C   0  0  1  0  0  3  0  0  0  0  0  0
  185.9490  178.7180  139.8230 C   0  0  0  0  0  0  0  0  0  0  0  0
  189.5560  177.2570  137.1090 C   0  0  2  0  0  3  0  0  0  0  0  0
  190.9940  176.0470  138.7510 C   0  0  0  0  0  0  0  0  0  0  0  0
  185.8310  178.8700  141.2060 C   0  0  0  0  0  0  0  0  0  0  0  0
  187.1520  178.2640  139.2550 C   0  0  0  0  0  0  0  0  0  0  0  0
  190.0980  176.9210  144.6060 C   0  0  0  0  0  3  0  0  0  0  0  0
  189.4060  176.2470  136.0740 N   0  0  0  0  0  2  0  0  0  0  0  0
  188.0840  178.1860  135.4770 C   0  0  0  0  0  2  0  0  0  0  0  0
  187.7080  177.4270  144.5020 C   0  0  0  0  0  1  0  0  0  0  0  0
  190.8340  177.6610  140.4350 C   0  0  0  0  0  0  0  0  0  0  0  0
  191.3650  176.7570  144.0620 C   0  0  0  0  0  3  0  0  0  0  0  0
  189.2170  177.5900  142.4190 C   0  0  0  0  0  0  0  0  0  0  0  0
  189.6170  177.7660  139.5070 C   0  0  0  0  0  0  0  0  0  0  0  0
  191.4840  175.1020  138.0800 O   0  0  0  0  0  0  0  0  0  0  0  0
  189.6580  176.6310  138.4990 C   0  0  1  0  0  3  0  0  0  0  0  0
  188.7910  176.9470  134.9500 C   0  0  0  0  0  2  0  0  0  0  0  0
  186.6010  176.4990  137.5590 C   0  0  0  0  0  1  0  0  0  0  0  0
  191.5680  176.9850  142.7070 C   0  0  0  0  0  3  0  0  0  0  0  0
  190.5090  177.3710  141.8750 C   0  0  0  0  0  0  0  0  0  0  0  0
  187.1290  177.9150  137.7760 C   0  0  2  0  0  3  0  0  0  0  0  0
  184.6040  179.3480  141.7650 N   0  0  0  0  0  2  0  0  0  0  0  0
  183.9920  179.4200  144.1100 C   0  0  0  0  0  1  0  0  0  0  0  0
  183.8830  178.6440  142.8150 C   0  0  0  0  0  2  0  0  0  0  0  0
  1  5  1  0  0  0  0
  1 19  1  0  0  0  0
  2 16  1  0  0  0  0
  2 13  1  0  0  0  0
  3 17  1  0  0  0  0
  4  1  2  0  0  0  0
  6  8  1  0  0  0  0
  7 15  1  6  0  0  0
  7  9  1  0  0  0  0
  7 27  1  0  0  0  0
  8 11  1  0  0  0  0
  9 14  1  6  0  0  0
  9 22  1  0  0  0  0
 10  3  1  0  0  0  0
 11 28  1  0  0  0  0
 11  5  2  0  0  0  0
 12  8  2  0  0  0  0
 12  4  1  0  0  0  0
 17 26  1  0  0  0  0
 18 13  2  0  0  0  0
 19  2  2  0  0  0  0
 20  4  1  0  0  0  0
 20 17  2  0  0  0  0
 21 10  2  0  0  0  0
 22 10  1  6  0  0  0
 22 20  1  0  0  0  0
 23 15  1  0  0  0  0
 23 14  1  0  0  0  0
 25 18  1  0  0  0  0
 26 19  1  0  0  0  0
 26 25  2  0  0  0  0
 27 24  1  1  0  0  0
 27 12  1  0  0  0  0
 28 30  1  0  0  0  0
 30 29  1  0  0  0  0
M  END
>  <MODEL>
4

>  <REMARK>
 VINA RESULT:      -9.0      2.675      6.889
  Name = 
  2 active torsions:
  status: ('A' for Active; 'I' for Inactive)
    1  A    between atoms: C_11  and  N_28
    2  A    between atoms: N_28  and  C_30
                            x       y       z     vdW  Elec       q    Type
                         _______ _______ _______ _____ _____    ______ ____

>  <TORSDO>
F 2

$$$$
=
 OpenBabel11122410283D

 30 35  0  0  1  0  0  0  0  0999 V2000
  186.0910  178.0850  142.8580 C   0  0  0  0  0  0  0  0  0  0  0  0
  186.6080  178.4220  140.3560 C   0  0  0  0  0  0  0  0  0  0  0  0
  190.1120  177.1120  143.3670 N   0  0  0  0  0  2  0  0  0  0  0  0
  186.6040  177.8850  144.1590 C   0  0  0  0  0  0  0  0  0  0  0  0
  184.7410  178.4280  142.7240 C   0  0  0  0  0  3  0  0  0  0  0  0
  183.6470  178.8060  146.2170 O   0  0  0  0  0  1  0  0  0  0  0  0
  187.3900  177.2470  147.1580 C   0  0  1  0  0  3  0  0  0  0  0  0
  184.4540  178.5340  145.1150 C   0  0  0  0  0  0  0  0  0  0  0  0
  188.8150  177.4390  146.6300 C   0  0  2  0  0  3  0  0  0  0  0  0
  190.1950  177.8240  144.5860 C   0  0  0  0  0  0  0  0  0  0  0  0
  183.9150  178.6280  143.8310 C   0  0  0  0  0  0  0  0  0  0  0  0
  185.8020  178.1780  145.2980 C   0  0  0  0  0  0  0  0  0  0  0  0
  187.4710  178.2530  139.2710 C   0  0  0  0  0  3  0  0  0  0  0  0
  189.5350  178.2390  147.6070 N   0  0  0  0  0  2  0  0  0  0  0  0
  187.5640  177.3050  148.6580 C   0  0  0  0  0  2  0  0  0  0  0  0
  185.3380  179.1480  140.0650 C   0  0  0  0  0  1  0  0  0  0  0  0
  188.7220  176.7680  143.1080 C   0  0  0  0  0  0  0  0  0  0  0  0
  188.7000  177.6260  139.4310 C   0  0  0  0  0  3  0  0  0  0  0  0
  186.9750  177.9440  141.6520 C   0  0  0  0  0  0  0  0  0  0  0  0
  187.9510  177.2520  144.3430 C   0  0  0  0  0  0  0  0  0  0  0  0
  191.2860  178.2570  145.0390 O   0  0  0  0  0  0  0  0  0  0  0  0
  188.8840  178.0530  145.2330 C   0  0  1  0  0  3  0  0  0  0  0  0
  188.9530  177.8770  148.8950 C   0  0  0  0  0  2  0  0  0  0  0  0
  186.8050  179.7510  146.9770 C   0  0  0  0  0  1  0  0  0  0  0  0
  189.0850  177.1740  140.6870 C   0  0  0  0  0  3  0  0  0  0  0  0
  188.2540  177.3480  141.8010 C   0  0  0  0  0  0  0  0  0  0  0  0
  186.3660  178.3140  146.7030 C   0  0  2  0  0  3  0  0  0  0  0  0
  182.5370  178.9750  143.6630 N   0  0  0  0  0  2  0  0  0  0  0  0
  180.4280  178.6030  142.5270 C   0  0  0  0  0  1  0  0  0  0  0  0
  181.8790  179.0030  142.3660 C   0  0  0  0  0  2  0  0  0  0  0  0
  1  4  1  0  0  0  0
  2 19  1  0  0  0  0
  3 10  1  0  0  0  0
  4 20  1  0  0  0  0
  4 12  2  0  0  0  0
  5  1  2  0  0  0  0
  5 11  1  0  0  0  0
  7 15  1  1  0  0  0
  8 12  1  0  0  0  0
  8  6  1  0  0  0  0
  9  7  1  0  0  0  0
  9 14  1  1  0  0  0
 10 21  2  0  0  0  0
 10 22  1  0  0  0  0
 11  8  2  0  0  0  0
 12 27  1  0  0  0  0
 13 18  1  0  0  0  0
 13  2  2  0  0  0  0
 14 23  1  0  0  0  0
 15 23  1  0  0  0  0
 16  2  1  0  0  0  0
 17  3  1  0  0  0  0
 17 20  2  0  0  0  0
 18 25  2  0  0  0  0
 19 26  2  0  0  0  0
 19  1  1  0  0  0  0
 22 20  1  6  0  0  0
 22  9  1  0  0  0  0
 25 26  1  0  0  0  0
 26 17  1  0  0  0  0
 27 24  1  6  0  0  0
 27  7  1  0  0  0  0
 28 11  1  0  0  0  0
 30 29  1  0  0  0  0
 30 28  1  0  0  0  0
M  END
>  <MODEL>
5

>  <REMARK>
 VINA RESULT:      -8.9      2.166      4.984
  Name = 
  2 active torsions:
  status: ('A' for Active; 'I' for Inactive)
    1  A    between atoms: C_11  and  N_28
    2  A    between atoms: N_28  and  C_30
                            x       y       z     vdW  Elec       q    Type
                         _______ _______ _______ _____ _____    ______ ____

>  <TORSDO>
F 2

$$$$
=
 OpenBabel11122410283D

 30 35  0  0  1  0  0  0  0  0999 V2000
  187.6970  177.9920  139.6690 C   0  0  0  0  0  0  0  0  0  0  0  0
  185.4870  177.9540  138.3430 C   0  0  0  0  0  0  0  0  0  0  0  0
  185.4220  178.7580  143.0770 N   0  0  0  0  0  2  0  0  0  0  0  0
  188.3190  178.0090  140.9370 C   0  0  0  0  0  0  0  0  0  0  0  0
  188.4870  177.7140  138.5470 C   0  0  0  0  0  3  0  0  0  0  0  0
  191.7630  176.9370  140.0320 O   0  0  0  0  0  1  0  0  0  0  0  0
  190.0340  178.2400  143.5870 C   0  0  1  0  0  3  0  0  0  0  0  0
  190.4280  177.3190  139.9200 C   0  0  0  0  0  0  0  0  0  0  0  0
  188.6710  178.0680  144.2630 C   0  0  2  0  0  3  0  0  0  0  0  0
  186.2120  177.8960  143.8740 C   0  0  0  0  0  0  0  0  0  0  0  0
  189.8430  177.4050  138.6560 C   0  0  0  0  0  0  0  0  0  0  0  0
  189.6770  177.6030  141.0750 C   0  0  0  0  0  0  0  0  0  0  0  0
  184.1200  178.2290  138.2740 C   0  0  0  0  0  3  0  0  0  0  0  0
  188.8460  177.1280  145.3590 N   0  0  0  0  0  2  0  0  0  0  0  0
  191.0140  177.9890  144.7100 C   0  0  0  0  0  2  0  0  0  0  0  0
  186.0810  177.3140  137.1340 C   0  0  0  0  0  1  0  0  0  0  0  0
  186.1950  179.1780  141.9180 C   0  0  0  0  0  0  0  0  0  0  0  0
  183.4510  178.7890  139.3540 C   0  0  0  0  0  3  0  0  0  0  0  0
  186.2240  178.2530  139.5310 C   0  0  0  0  0  0  0  0  0  0  0  0
  187.5890  178.5690  142.1210 C   0  0  0  0  0  0  0  0  0  0  0  0
  185.7770  177.3730  144.9330 O   0  0  0  0  0  0  0  0  0  0  0  0
  187.5560  177.6310  143.3150 C   0  0  1  0  0  3  0  0  0  0  0  0
  190.2100  177.3450  145.8290 C   0  0  0  0  0  2  0  0  0  0  0  0
  190.1220  175.7990  142.7620 C   0  0  0  0  0  1  0  0  0  0  0  0
  184.1440  179.0670  140.5250 C   0  0  0  0  0  3  0  0  0  0  0  0
  185.5110  178.7820  140.6380 C   0  0  0  0  0  0  0  0  0  0  0  0
  190.3180  177.2730  142.4130 C   0  0  2  0  0  3  0  0  0  0  0  0
  190.6260  177.1280  137.4910 N   0  0  0  0  0  2  0  0  0  0  0  0
  190.3720  174.7320  137.2190 C   0  0  0  0  0  1  0  0  0  0  0  0
  190.2870  176.0820  136.5380 C   0  0  0  0  0  2  0  0  0  0  0  0
  1  4  1  0  0  0  0
  2 19  1  0  0  0  0
  3 10  1  0  0  0  0
  4 12  1  0  0  0  0
  4 20  2  0  0  0  0
  5 11  2  0  0  0  0
  5  1  1  0  0  0  0
  7  9  1  0  0  0  0
  7 15  1  1  0  0  0
  8  6  1  0  0  0  0
  8 12  2  0  0  0  0
  9 14  1  1  0  0  0
 10 21  2  0  0  0  0
 11  8  1  0  0  0  0
 12 27  1  0  0  0  0
 13  2  2  0  0  0  0
 13 18  1  0  0  0  0
 14 23  1  0  0  0  0
 15 23  1  0  0  0  0
 16  2  1  0  0  0  0
 17 20  1  0  0  0  0
 17  3  1  0  0  0  0
 18 25  2  0  0  0  0
 19  1  2  0  0  0  0
 19 26  1  0  0  0  0
 22 20  1  6  0  0  0
 22 10  1  0  0  0  0
 22  9  1  0  0  0  0
 25 26  1  0  0  0  0
 26 17  2  0  0  0  0
 27 24  1  1  0  0  0
 27  7  1  0  0  0  0
 28 11  1  0  0  0  0
 30 29  1  0  0  0  0
 30 28  1  0  0  0  0
M  END
>  <MODEL>
6

>  <REMARK>
 VINA RESULT:      -8.7      1.986      3.121
  Name = 
  2 active torsions:
  status: ('A' for Active; 'I' for Inactive)
    1  A    between atoms: C_11  and  N_28
    2  A    between atoms: N_28  and  C_30
                            x       y       z     vdW  Elec       q    Type
                         _______ _______ _______ _____ _____    ______ ____

>  <TORSDO>
F 2

$$$$
=
 OpenBabel11122410283D

 30 35  0  0  1  0  0  0  0  0999 V2000
  187.0690  177.6720  143.1890 C   0  0  0  0  0  0  0  0  0  0  0  0
  185.7960  178.5010  145.2710 C   0  0  0  0  0  0  0  0  0  0  0  0
  183.7720  178.8600  140.9310 N   0  0  0  0  0  2  0  0  0  0  0  0
  187.1320  177.6240  141.7780 C   0  0  0  0  0  0  0  0  0  0  0  0
  188.1990  177.2840  143.9160 C   0  0  0  0  0  3  0  0  0  0  0  0
  190.6880  176.6580  141.2780 O   0  0  0  0  0  1  0  0  0  0  0  0
  187.4830  177.1560  138.6680 C   0  0  1  0  0  3  0  0  0  0  0  0
  189.4780  176.9630  141.8980 C   0  0  0  0  0  0  0  0  0  0  0  0
  186.2890  178.1100  138.5780 C   0  0  2  0  0  3  0  0  0  0  0  0
  184.5870  179.3730  139.8960 C   0  0  0  0  0  0  0  0  0  0  0  0
  189.3880  176.9070  143.2900 C   0  0  0  0  0  0  0  0  0  0  0  0
  188.3630  177.3340  141.1260 C   0  0  0  0  0  0  0  0  0  0  0  0
  184.6040  178.9210  145.8660 C   0  0  0  0  0  3  0  0  0  0  0  0
  186.5690  179.0540  137.5080 N   0  0  0  0  0  2  0  0  0  0  0  0
  188.0160  177.1290  137.2540 C   0  0  0  0  0  2  0  0  0  0  0  0
  186.9950  178.4960  146.1580 C   0  0  0  0  0  1  0  0  0  0  0  0
  184.5300  177.8800  141.6940 C   0  0  0  0  0  0  0  0  0  0  0  0
  183.4310  179.0030  145.1280 C   0  0  0  0  0  3  0  0  0  0  0  0
  185.8250  178.1410  143.8890 C   0  0  0  0  0  0  0  0  0  0  0  0
  185.8770  177.7590  140.9690 C   0  0  0  0  0  0  0  0  0  0  0  0
  184.1810  180.2540  139.0930 O   0  0  0  0  0  0  0  0  0  0  0  0
  185.9600  178.8230  139.8880 C   0  0  1  0  0  3  0  0  0  0  0  0
  187.3650  178.3050  136.5410 C   0  0  0  0  0  2  0  0  0  0  0  0
  189.1210  179.0030  139.4110 C   0  0  0  0  0  1  0  0  0  0  0  0
  183.4420  178.6790  143.7770 C   0  0  0  0  0  3  0  0  0  0  0  0
  184.6250  178.2770  143.1430 C   0  0  0  0  0  0  0  0  0  0  0  0
  188.6030  177.5860  139.6460 C   0  0  2  0  0  3  0  0  0  0  0  0
  190.5270  176.5110  144.0600 N   0  0  0  0  0  2  0  0  0  0  0  0
  191.6810  178.6420  144.1470 C   0  0  0  0  0  1  0  0  0  0  0  0
  191.2490  177.4230  144.9340 C   0  0  0  0  0  2  0  0  0  0  0  0
  1 19  1  0  0  0  0
  1  5  1  0  0  0  0
  2 13  1  0  0  0  0
  2 16  1  0  0  0  0
  3 17  1  0  0  0  0
  4  1  2  0  0  0  0
  6  8  1  0  0  0  0
  7 15  1  6  0  0  0
  7 27  1  0  0  0  0
  8 11  1  0  0  0  0
  9 14  1  6  0  0  0
  9  7  1  0  0  0  0
  9 22  1  0  0  0  0
 10  3  1  0  0  0  0
 11  5  2  0  0  0  0
 11 28  1  0  0  0  0
 12  4  1  0  0  0  0
 12  8  2  0  0  0  0
 17 26  1  0  0  0  0
 18 13  2  0  0  0  0
 19  2  2  0  0  0  0
 20 17  2  0  0  0  0
 20  4  1  0  0  0  0
 21 10  2  0  0  0  0
 22 10  1  6  0  0  0
 22 20  1  0  0  0  0
 23 15  1  0  0  0  0
 23 14  1  0  0  0  0
 25 18  1  0  0  0  0
 26 25  2  0  0  0  0
 26 19  1  0  0  0  0
 27 24  1  1  0  0  0
 27 12  1  0  0  0  0
 28 30  1  0  0  0  0
 29 30  1  0  0  0  0
M  END
>  <MODEL>
7

>  <REMARK>
 VINA RESULT:      -8.6      2.034      5.638
  Name = 
  2 active torsions:
  status: ('A' for Active; 'I' for Inactive)
    1  A    between atoms: C_11  and  N_28
    2  A    between atoms: N_28  and  C_30
                            x       y       z     vdW  Elec       q    Type
                         _______ _______ _______ _____ _____    ______ ____

>  <TORSDO>
F 2

$$$$
=
 OpenBabel11122410283D

 30 35  0  0  1  0  0  0  0  0999 V2000
  186.1730  178.5710  142.2300 C   0  0  0  0  0  0  0  0  0  0  0  0
  185.0520  178.2900  144.5340 C   0  0  0  0  0  0  0  0  0  0  0  0
  189.6520  177.0430  143.9430 N   0  0  0  0  0  2  0  0  0  0  0  0
  187.2930  178.2960  141.4140 C   0  0  0  0  0  0  0  0  0  0  0  0
  185.0140  179.0670  141.6200 C   0  0  0  0  0  3  0  0  0  0  0  0
  185.8750  178.9740  138.0430 O   0  0  0  0  0  1  0  0  0  0  0  0
  189.7040  178.0330  139.3800 C   0  0  1  0  0  3  0  0  0  0  0  0
  185.9960  178.8680  139.4270 C   0  0  0  0  0  0  0  0  0  0  0  0
  190.2850  177.1340  140.4750 C   0  0  2  0  0  3  0  0  0  0  0  0
  189.9550  176.2750  142.7940 C   0  0  0  0  0  0  0  0  0  0  0  0
  184.9230  179.2420  140.2390 C   0  0  0  0  0  0  0  0  0  0  0  0
  187.1840  178.3790  139.9970 C   0  0  0  0  0  0  0  0  0  0  0  0
  185.1640  178.0660  145.9070 C   0  0  0  0  0  3  0  0  0  0  0  0
  190.8440  175.9610  139.8210 N   0  0  0  0  0  2  0  0  0  0  0  0
  190.5610  177.7160  138.1770 C   0  0  0  0  0  2  0  0  0  0  0  0
  183.6630  178.4450  144.0140 C   0  0  0  0  0  1  0  0  0  0  0  0
  188.7700  178.1370  143.5660 C   0  0  0  0  0  0  0  0  0  0  0  0
  186.4050  177.8690  146.4980 C   0  0  0  0  0  3  0  0  0  0  0  0
  186.2200  178.3260  143.7110 C   0  0  0  0  0  0  0  0  0  0  0  0
  188.6290  178.0350  142.0420 C   0  0  0  0  0  0  0  0  0  0  0  0
  190.6880  175.2530  142.8430 O   0  0  0  0  0  0  0  0  0  0  0  0
  189.2850  176.7510  141.5640 C   0  0  1  0  0  3  0  0  0  0  0  0
  191.3090  176.4380  138.5230 C   0  0  0  0  0  2  0  0  0  0  0  0
  187.8810  176.3350  138.7180 C   0  0  0  0  0  1  0  0  0  0  0  0
  187.5510  177.8780  145.7120 C   0  0  0  0  0  3  0  0  0  0  0  0
  187.4740  178.0750  144.3280 C   0  0  0  0  0  0  0  0  0  0  0  0
  188.2130  177.7890  139.0450 C   0  0  2  0  0  3  0  0  0  0  0  0
  183.7260  179.7530  139.6430 N   0  0  0  0  0  2  0  0  0  0  0  0
  181.6070  178.9400  140.4950 C   0  0  0  0  0  1  0  0  0  0  0  0
  182.5760  178.9180  139.3320 C   0  0  0  0  0  2  0  0  0  0  0  0
  1 19  1  0  0  0  0
  2 13  1  0  0  0  0
  4 20  1  0  0  0  0
  4  1  2  0  0  0  0
  5  1  1  0  0  0  0
  6  8  1  0  0  0  0
  7 15  1  6  0  0  0
  7  9  1  0  0  0  0
  8 12  2  0  0  0  0
  8 11  1  0  0  0  0
  9 14  1  6  0  0  0
  9 22  1  0  0  0  0
 10 21  2  0  0  0  0
 10  3  1  0  0  0  0
 11  5  2  0  0  0  0
 12  4  1  0  0  0  0
 13 18  2  0  0  0  0
 15 23  1  0  0  0  0
 16  2  1  0  0  0  0
 17  3  1  0  0  0  0
 17 26  1  0  0  0  0
 19 26  1  0  0  0  0
 19  2  2  0  0  0  0
 20 17  2  0  0  0  0
 22 20  1  1  0  0  0
 22 10  1  0  0  0  0
 23 14  1  0  0  0  0
 25 18  1  0  0  0  0
 26 25  2  0  0  0  0
 27 24  1  1  0  0  0
 27  7  1  0  0  0  0
 27 12  1  0  0  0  0
 28 11  1  0  0  0  0
 30 28  1  0  0  0  0
 30 29  1  0  0  0  0
M  END
>  <MODEL>
8

>  <REMARK>
 VINA RESULT:      -8.5      2.245      4.217
  Name = 
  2 active torsions:
  status: ('A' for Active; 'I' for Inactive)
    1  A    between atoms: C_11  and  N_28
    2  A    between atoms: N_28  and  C_30
                            x       y       z     vdW  Elec       q    Type
                         _______ _______ _______ _____ _____    ______ ____

>  <TORSDO>
F 2

$$$$
=
 OpenBabel11122410283D

 30 35  0  0  1  0  0  0  0  0999 V2000
  186.2330  178.2600  142.4680 C   0  0  0  0  0  0  0  0  0  0  0  0
  188.4720  177.1200  143.0400 C   0  0  0  0  0  0  0  0  0  0  0  0
  187.2970  177.9160  138.4530 N   0  0  0  0  0  2  0  0  0  0  0  0
  185.3020  178.6110  141.4650 C   0  0  0  0  0  0  0  0  0  0  0  0
  185.8370  178.3710  143.8060 C   0  0  0  0  0  3  0  0  0  0  0  0
  182.2930  179.3200  143.5300 O   0  0  0  0  0  1  0  0  0  0  0  0
  183.1090  179.7140  139.4670 C   0  0  1  0  0  3  0  0  0  0  0  0
  183.6000  179.0030  143.1690 C   0  0  0  0  0  0  0  0  0  0  0  0
  183.9160  178.9210  138.4360 C   0  0  2  0  0  3  0  0  0  0  0  0
  185.9810  177.5670  138.0690 C   0  0  0  0  0  0  0  0  0  0  0  0
  184.5470  178.7610  144.1660 C   0  0  0  0  0  0  0  0  0  0  0  0
  183.9560  178.9180  141.8120 C   0  0  0  0  0  0  0  0  0  0  0  0
  189.7430  176.6960  142.6450 C   0  0  0  0  0  3  0  0  0  0  0  0
  182.9660  178.2120  137.5940 N   0  0  0  0  0  2  0  0  0  0  0  0
  181.8110  180.0000  138.7490 C   0  0  0  0  0  2  0  0  0  0  0  0
  188.0990  176.8170  144.4520 C   0  0  0  0  0  1  0  0  0  0  0  0
  187.2510  178.6280  139.7210 C   0  0  0  0  0  0  0  0  0  0  0  0
  190.1850  176.8890  141.3430 C   0  0  0  0  0  3  0  0  0  0  0  0
  187.6060  177.7700  142.1080 C   0  0  0  0  0  0  0  0  0  0  0  0
  185.7600  178.7770  140.0470 C   0  0  0  0  0  0  0  0  0  0  0  0
  185.7350  176.9270  137.0140 O   0  0  0  0  0  0  0  0  0  0  0  0
  184.9470  177.9730  139.0460 C   0  0  1  0  0  3  0  0  0  0  0  0
  181.7910  179.0760  137.5400 C   0  0  0  0  0  2  0  0  0  0  0  0
  182.1830  177.6020  140.6190 C   0  0  0  0  0  1  0  0  0  0  0  0
  189.3500  177.4990  140.4150 C   0  0  0  0  0  3  0  0  0  0  0  0
  188.0610  177.9160  140.7710 C   0  0  0  0  0  0  0  0  0  0  0  0
  182.8260  178.9760  140.7970 C   0  0  2  0  0  3  0  0  0  0  0  0
  184.1720  178.8680  145.5430 N   0  0  0  0  0  2  0  0  0  0  0  0
  186.0280  179.1950  147.0670 C   0  0  0  0  0  1  0  0  0  0  0  0
  184.9310  178.2530  146.6210 C   0  0  0  0  0  2  0  0  0  0  0  0
  1  5  1  0  0  0  0
  2 16  1  0  0  0  0
  3 17  1  0  0  0  0
  4 12  1  0  0  0  0
  4  1  2  0  0  0  0
  5 11  2  0  0  0  0
  7 15  1  6  0  0  0
  7 27  1  0  0  0  0
  8  6  1  0  0  0  0
  8 11  1  0  0  0  0
  9 14  1  1  0  0  0
  9 22  1  0  0  0  0
  9  7  1  0  0  0  0
 10  3  1  0  0  0  0
 11 28  1  0  0  0  0
 12  8  2  0  0  0  0
 13  2  1  0  0  0  0
 17 20  2  0  0  0  0
 17 26  1  0  0  0  0
 18 13  2  0  0  0  0
 19  1  1  0  0  0  0
 19  2  2  0  0  0  0
 20  4  1  0  0  0  0
 21 10  2  0  0  0  0
 22 10  1  6  0  0  0
 22 20  1  0  0  0  0
 23 14  1  0  0  0  0
 23 15  1  0  0  0  0
 25 26  2  0  0  0  0
 25 18  1  0  0  0  0
 26 19  1  0  0  0  0
 27 24  1  6  0  0  0
 27 12  1  0  0  0  0
 28 30  1  0  0  0  0
 30 29  1  0  0  0  0
M  END
>  <MODEL>
9

>  <REMARK>
 VINA RESULT:      -8.4      2.383      7.583
  Name = 
  2 active torsions:
  status: ('A' for Active; 'I' for Inactive)
    1  A    between atoms: C_11  and  N_28
    2  A    between atoms: N_28  and  C_30
                            x       y       z     vdW  Elec       q    Type
                         _______ _______ _______ _____ _____    ______ ____

>  <TORSDO>
F 2

$$$$
