=
 OpenBabel11122410313D

 30 35  0  0  1  0  0  0  0  0999 V2000
  189.2930  177.1700  143.2390 C   0  0  0  0  0  0  0  0  0  0  0  0
  191.2690  176.3660  144.5500 C   0  0  0  0  0  0  0  0  0  0  0  0
  187.1760  177.9350  146.6940 N   0  0  0  0  0  0  0  0  0  0  0  0
  187.9740  177.7110  143.2110 C   0  0  0  0  0  0  0  0  0  0  0  0
  189.9450  176.8400  141.9280 C   0  0  0  0  0  2  0  0  0  0  0  0
  187.7670  178.4890  139.6440 O   0  0  0  0  0  0  0  0  0  0  0  0
  184.9530  177.9790  142.6220 C   0  0  1  0  0  3  0  0  0  0  0  0
  188.2480  178.1950  140.7740 C   0  0  0  0  0  0  0  0  0  0  0  0
  184.9560  178.5130  143.9610 N   0  0  0  0  0  0  0  0  0  0  0  0
  186.0200  178.3430  146.1910 N   0  0  0  0  0  0  0  0  0  0  0  0
  189.7240  177.9510  140.9150 C   0  0  2  0  0  3  0  0  0  0  0  0
  187.4000  178.1420  141.9430 N   0  0  0  0  0  0  0  0  0  0  0  0
  191.8670  176.1240  145.7900 C   0  0  0  0  0  3  0  0  0  0  0  0
  183.6790  179.0710  144.3570 C   0  0  0  0  0  2  0  0  0  0  0  0
  183.5740  178.2770  142.0510 C   0  0  0  0  0  2  0  0  0  0  0  0
  191.9960  176.0880  143.4400 F   0  0  0  0  0  0  0  0  0  0  0  0
  187.9810  177.6630  145.6470 C   0  0  0  0  0  0  0  0  0  0  0  0
  191.1850  176.3930  146.9750 C   0  0  0  0  0  3  0  0  0  0  0  0
  189.9530  176.8930  144.4800 C   0  0  0  0  0  0  0  0  0  0  0  0
  187.3410  177.9070  144.4570 C   0  0  0  0  0  0  0  0  0  0  0  0
  184.8760  178.6670  147.0270 C   0  0  0  0  0  1  0  0  0  0  0  0
  186.0760  178.3310  144.8370 C   0  0  0  0  0  0  0  0  0  0  0  0
  182.7280  178.7880  143.2090 C   0  0  0  0  0  2  0  0  0  0  0  0
  185.7930  179.6280  141.1110 O   0  0  0  0  0  0  0  0  0  0  0  0
  189.8920  176.9100  146.9320 C   0  0  0  0  0  3  0  0  0  0  0  0
  189.2760  177.1620  145.7020 C   0  0  0  0  0  0  0  0  0  0  0  0
  186.0460  178.6230  141.8320 C   0  0  0  0  0  0  0  0  0  0  0  0
  190.3700  177.5660  139.5870 C   0  0  0  0  0  2  0  0  0  0  0  0
  190.4510  175.7840  138.0760 C   0  0  0  0  0  1  0  0  0  0  0  0
  190.5040  176.1210  139.4870 N   0  0  0  0  0  2  0  0  0  0  0  0
  1 19  1  0  0  0  0
  2 13  1  0  0  0  0
  4  1  2  0  0  0  0
  4 20  1  0  0  0  0
  5  1  1  0  0  0  0
  6  8  2  0  0  0  0
  7 15  1  6  0  0  0
  7  9  1  0  0  0  0
  8 11  1  0  0  0  0
  8 12  1  0  0  0  0
  9 14  1  0  0  0  0
  9 22  1  0  0  0  0
 10  3  1  0  0  0  0
 10 21  1  0  0  0  0
 11 28  1  6  0  0  0
 11  5  1  0  0  0  0
 12  4  1  0  0  0  0
 13 18  2  0  0  0  0
 15 23  1  0  0  0  0
 16  2  1  0  0  0  0
 17 26  1  0  0  0  0
 17  3  2  0  0  0  0
 19  2  2  0  0  0  0
 19 26  1  0  0  0  0
 20 22  2  0  0  0  0
 20 17  1  0  0  0  0
 22 10  1  0  0  0  0
 23 14  1  0  0  0  0
 24 27  2  0  0  0  0
 25 18  1  0  0  0  0
 26 25  2  0  0  0  0
 27 12  1  0  0  0  0
 27  7  1  0  0  0  0
 29 30  1  0  0  0  0
 30 28  1  0  0  0  0
M  END
>  <MODEL>
1

>  <REMARK>
 VINA RESULT:     -11.7      0.000      0.000
  Name = 
  2 active torsions:
  status: ('A' for Active; 'I' for Inactive)
    1  A    between atoms: C_11  and  C_28
    2  A    between atoms: C_28  and  N_30
                            x       y       z     vdW  Elec       q    Type
                         _______ _______ _______ _____ _____    ______ ____

>  <TORSDO>
F 2

$$$$
=
 OpenBabel11122410313D

 30 35  0  0  1  0  0  0  0  0999 V2000
  188.1190  177.5570  144.2250 C   0  0  0  0  0  0  0  0  0  0  0  0
  186.5570  177.8660  146.1570 C   0  0  0  0  0  0  0  0  0  0  0  0
  185.2580  178.8720  141.5620 N   0  0  0  0  0  0  0  0  0  0  0  0
  188.3800  177.6560  142.8270 C   0  0  0  0  0  0  0  0  0  0  0  0
  189.1940  176.9800  145.1000 C   0  0  0  0  0  2  0  0  0  0  0  0
  191.9800  177.0200  142.8830 O   0  0  0  0  0  0  0  0  0  0  0  0
  189.0950  176.8330  139.9370 C   0  0  1  0  0  3  0  0  0  0  0  0
  190.8120  177.2970  143.2770 C   0  0  0  0  0  0  0  0  0  0  0  0
  188.0570  177.7870  139.6330 N   0  0  0  0  0  0  0  0  0  0  0  0
  185.9040  178.7310  140.4150 N   0  0  0  0  0  0  0  0  0  0  0  0
  190.5560  177.5460  144.7350 C   0  0  2  0  0  3  0  0  0  0  0  0
  189.7300  177.4270  142.3280 N   0  0  0  0  0  0  0  0  0  0  0  0
  185.3030  178.2600  146.6340 C   0  0  0  0  0  3  0  0  0  0  0  0
  187.9310  178.0650  138.2180 C   0  0  0  0  0  2  0  0  0  0  0  0
  189.7670  176.5060  138.6100 C   0  0  0  0  0  2  0  0  0  0  0  0
  187.4630  177.4270  147.0650 F   0  0  0  0  0  0  0  0  0  0  0  0
  186.1060  178.4840  142.5360 C   0  0  0  0  0  0  0  0  0  0  0  0
  184.3240  178.7300  145.7620 C   0  0  0  0  0  3  0  0  0  0  0  0
  186.8500  177.9380  144.7710 C   0  0  0  0  0  0  0  0  0  0  0  0
  187.3150  178.0970  142.0120 C   0  0  0  0  0  0  0  0  0  0  0  0
  185.2790  178.9930  139.1290 C   0  0  0  0  0  1  0  0  0  0  0  0
  187.1520  178.2530  140.6430 C   0  0  0  0  0  0  0  0  0  0  0  0
  188.9080  177.1350  137.5220 C   0  0  0  0  0  2  0  0  0  0  0  0
  191.0970  178.0000  140.5160 O   0  0  0  0  0  0  0  0  0  0  0  0
  184.5890  178.8110  144.3960 C   0  0  0  0  0  3  0  0  0  0  0  0
  185.8370  178.4230  143.8980 C   0  0  0  0  0  0  0  0  0  0  0  0
  190.0440  177.4330  140.9210 C   0  0  0  0  0  0  0  0  0  0  0  0
  191.6250  176.9120  145.6210 C   0  0  0  0  0  2  0  0  0  0  0  0
  192.0720  175.8240  147.6420 C   0  0  0  0  0  1  0  0  0  0  0  0
  191.0900  176.6350  146.9440 N   0  0  0  0  0  2  0  0  0  0  0  0
  1 19  1  0  0  0  0
  1  5  1  0  0  0  0
  2 13  1  0  0  0  0
  2 16  1  0  0  0  0
  3 17  2  0  0  0  0
  4  1  2  0  0  0  0
  6  8  2  0  0  0  0
  7 15  1  6  0  0  0
  7 27  1  0  0  0  0
  8 11  1  0  0  0  0
  9  7  1  0  0  0  0
  9 22  1  0  0  0  0
 10 22  1  0  0  0  0
 10  3  1  0  0  0  0
 11  5  1  0  0  0  0
 11 28  1  1  0  0  0
 12  4  1  0  0  0  0
 12  8  1  0  0  0  0
 14  9  1  0  0  0  0
 17 26  1  0  0  0  0
 18 13  2  0  0  0  0
 19  2  2  0  0  0  0
 20 17  1  0  0  0  0
 20  4  1  0  0  0  0
 21 10  1  0  0  0  0
 22 20  2  0  0  0  0
 23 14  1  0  0  0  0
 23 15  1  0  0  0  0
 24 27  2  0  0  0  0
 25 18  1  0  0  0  0
 26 25  2  0  0  0  0
 26 19  1  0  0  0  0
 27 12  1  0  0  0  0
 28 30  1  0  0  0  0
 30 29  1  0  0  0  0
M  END
>  <MODEL>
2

>  <REMARK>
 VINA RESULT:     -10.9      2.399      5.631
  Name = 
  2 active torsions:
  status: ('A' for Active; 'I' for Inactive)
    1  A    between atoms: C_11  and  C_28
    2  A    between atoms: C_28  and  N_30
                            x       y       z     vdW  Elec       q    Type
                         _______ _______ _______ _____ _____    ______ ____

>  <TORSDO>
F 2

$$$$
=
 OpenBabel11122410313D

 30 35  0  0  1  0  0  0  0  0999 V2000
  186.8950  177.8920  143.0700 C   0  0  0  0  0  0  0  0  0  0  0  0
  187.9320  177.6200  145.3330 C   0  0  0  0  0  0  0  0  0  0  0  0
  183.2490  178.8570  144.7370 N   0  0  0  0  0  0  0  0  0  0  0  0
  185.7600  178.2120  142.2680 C   0  0  0  0  0  0  0  0  0  0  0  0
  188.1520  177.4640  142.3690 C   0  0  0  0  0  2  0  0  0  0  0  0
  187.4090  178.3760  139.0080 O   0  0  0  0  0  0  0  0  0  0  0  0
  183.4840  177.9150  140.2010 C   0  0  1  0  0  3  0  0  0  0  0  0
  187.2430  178.3420  140.2590 C   0  0  0  0  0  0  0  0  0  0  0  0
  182.7590  178.6480  141.2090 N   0  0  0  0  0  0  0  0  0  0  0  0
  182.5080  178.9980  143.6480 N   0  0  0  0  0  0  0  0  0  0  0  0
  188.4370  178.3530  141.1700 C   0  0  2  0  0  3  0  0  0  0  0  0
  185.9130  178.3440  140.8240 N   0  0  0  0  0  0  0  0  0  0  0  0
  187.8040  177.6710  146.7240 C   0  0  0  0  0  3  0  0  0  0  0  0
  181.4380  179.0580  140.7800 C   0  0  0  0  0  2  0  0  0  0  0  0
  182.5930  177.9030  138.9660 C   0  0  0  0  0  2  0  0  0  0  0  0
  189.1440  177.2850  144.8270 F   0  0  0  0  0  0  0  0  0  0  0  0
  184.4950  178.5510  144.3230 C   0  0  0  0  0  0  0  0  0  0  0  0
  186.5920  178.0160  147.3160 C   0  0  0  0  0  3  0  0  0  0  0  0
  186.8220  177.9190  144.5000 C   0  0  0  0  0  0  0  0  0  0  0  0
  184.5600  178.5030  142.9520 C   0  0  0  0  0  0  0  0  0  0  0  0
  181.0810  179.2690  143.7050 C   0  0  0  0  0  1  0  0  0  0  0  0
  183.2640  178.7810  142.5450 C   0  0  0  0  0  0  0  0  0  0  0  0
  181.2420  178.4540  139.4020 C   0  0  0  0  0  2  0  0  0  0  0  0
  184.9050  179.4140  139.0020 O   0  0  0  0  0  0  0  0  0  0  0  0
  185.4880  178.3140  146.5200 C   0  0  0  0  0  3  0  0  0  0  0  0
  185.5940  178.2710  145.1260 C   0  0  0  0  0  0  0  0  0  0  0  0
  184.7940  178.5860  139.9490 C   0  0  0  0  0  0  0  0  0  0  0  0
  189.7010  177.8680  140.4650 C   0  0  0  0  0  2  0  0  0  0  0  0
  191.6500  177.3390  141.6420 C   0  0  0  0  0  1  0  0  0  0  0  0
  190.3500  176.8270  141.2450 N   0  0  0  0  0  2  0  0  0  0  0  0
  1 19  1  0  0  0  0
  2 13  1  0  0  0  0
  4 20  1  0  0  0  0
  4  1  2  0  0  0  0
  5  1  1  0  0  0  0
  6  8  2  0  0  0  0
  7 15  1  6  0  0  0
  7  9  1  0  0  0  0
  8 12  1  0  0  0  0
  8 11  1  0  0  0  0
  9 22  1  0  0  0  0
 10 21  1  0  0  0  0
 10  3  1  0  0  0  0
 11 28  1  6  0  0  0
 11  5  1  0  0  0  0
 12  4  1  0  0  0  0
 13 18  2  0  0  0  0
 14  9  1  0  0  0  0
 15 23  1  0  0  0  0
 16  2  1  0  0  0  0
 17  3  2  0  0  0  0
 17 26  1  0  0  0  0
 19 26  1  0  0  0  0
 19  2  2  0  0  0  0
 20 17  1  0  0  0  0
 22 20  2  0  0  0  0
 22 10  1  0  0  0  0
 23 14  1  0  0  0  0
 24 27  2  0  0  0  0
 25 18  1  0  0  0  0
 26 25  2  0  0  0  0
 27  7  1  0  0  0  0
 27 12  1  0  0  0  0
 28 30  1  0  0  0  0
 30 29  1  0  0  0  0
M  END
>  <MODEL>
3

>  <REMARK>
 VINA RESULT:     -10.4      2.118      3.369
  Name = 
  2 active torsions:
  status: ('A' for Active; 'I' for Inactive)
    1  A    between atoms: C_11  and  C_28
    2  A    between atoms: C_28  and  N_30
                            x       y       z     vdW  Elec       q    Type
                         _______ _______ _______ _____ _____    ______ ____

>  <TORSDO>
F 2

$$$$
=
 OpenBabel11122410313D

 30 35  0  0  1  0  0  0  0  0999 V2000
  187.5330  177.6940  143.7570 C   0  0  0  0  0  0  0  0  0  0  0  0
  185.3780  178.1250  144.9560 C   0  0  0  0  0  0  0  0  0  0  0  0
  185.8480  178.7190  140.1360 N   0  0  0  0  0  0  0  0  0  0  0  0
  188.2850  177.6830  142.5460 C   0  0  0  0  0  0  0  0  0  0  0  0
  188.2110  177.2150  145.0080 C   0  0  0  0  0  2  0  0  0  0  0  0
  191.6130  177.1370  143.9600 O   0  0  0  0  0  0  0  0  0  0  0  0
  189.9960  176.6410  140.1940 C   0  0  1  0  0  3  0  0  0  0  0  0
  190.3850  177.4180  143.8770 C   0  0  0  0  0  0  0  0  0  0  0  0
  189.1470  177.5430  139.4550 N   0  0  0  0  0  0  0  0  0  0  0  0
  186.8660  178.4980  139.3180 N   0  0  0  0  0  0  0  0  0  0  0  0
  189.6170  177.7800  145.1160 C   0  0  2  0  0  3  0  0  0  0  0  0
  189.7220  177.4440  142.5920 N   0  0  0  0  0  0  0  0  0  0  0  0
  184.0400  178.5280  144.9100 C   0  0  0  0  0  3  0  0  0  0  0  0
  189.5470  177.7000  138.0720 C   0  0  0  0  0  2  0  0  0  0  0  0
  191.1010  176.2210  139.2350 C   0  0  0  0  0  2  0  0  0  0  0  0
  185.8870  177.7840  146.1650 F   0  0  0  0  0  0  0  0  0  0  0  0
  186.2800  178.4320  141.3800 C   0  0  0  0  0  0  0  0  0  0  0  0
  183.4490  178.9030  143.7050 C   0  0  0  0  0  3  0  0  0  0  0  0
  186.1560  178.0900  143.7700 C   0  0  0  0  0  0  0  0  0  0  0  0
  187.5940  178.0310  141.3650 C   0  0  0  0  0  0  0  0  0  0  0  0
  186.7540  178.6400  137.8750 C   0  0  0  0  0  1  0  0  0  0  0  0
  187.9410  178.0700  140.0230 C   0  0  0  0  0  0  0  0  0  0  0  0
  190.7020  176.7390  137.8600 C   0  0  0  0  0  2  0  0  0  0  0  0
  191.6600  177.8980  141.3590 O   0  0  0  0  0  0  0  0  0  0  0  0
  184.1930  178.8760  142.5270 C   0  0  0  0  0  3  0  0  0  0  0  0
  185.5340  178.4770  142.5520 C   0  0  0  0  0  0  0  0  0  0  0  0
  190.5270  177.3420  141.4020 C   0  0  0  0  0  0  0  0  0  0  0  0
  190.2850  177.2460  146.3800 C   0  0  0  0  0  2  0  0  0  0  0  0
  189.1690  178.0190  148.2840 C   0  0  0  0  0  1  0  0  0  0  0  0
  189.2840  176.8930  147.3740 N   0  0  0  0  0  2  0  0  0  0  0  0
  1 19  1  0  0  0  0
  1  5  1  0  0  0  0
  2 16  1  0  0  0  0
  3 17  2  0  0  0  0
  4 12  1  0  0  0  0
  4  1  2  0  0  0  0
  5 11  1  0  0  0  0
  7 15  1  6  0  0  0
  7 27  1  0  0  0  0
  8  6  2  0  0  0  0
  8 11  1  0  0  0  0
  9 22  1  0  0  0  0
  9  7  1  0  0  0  0
 10 22  1  0  0  0  0
 10  3  1  0  0  0  0
 11 28  1  1  0  0  0
 12  8  1  0  0  0  0
 13  2  1  0  0  0  0
 14  9  1  0  0  0  0
 17 26  1  0  0  0  0
 18 13  2  0  0  0  0
 19  2  2  0  0  0  0
 20 17  1  0  0  0  0
 20  4  1  0  0  0  0
 21 10  1  0  0  0  0
 22 20  2  0  0  0  0
 23 14  1  0  0  0  0
 23 15  1  0  0  0  0
 24 27  2  0  0  0  0
 25 26  2  0  0  0  0
 25 18  1  0  0  0  0
 26 19  1  0  0  0  0
 27 12  1  0  0  0  0
 28 30  1  0  0  0  0
 30 29  1  0  0  0  0
M  END
>  <MODEL>
4

>  <REMARK>
 VINA RESULT:     -10.4      2.427      6.458
  Name = 
  2 active torsions:
  status: ('A' for Active; 'I' for Inactive)
    1  A    between atoms: C_11  and  C_28
    2  A    between atoms: C_28  and  N_30
                            x       y       z     vdW  Elec       q    Type
                         _______ _______ _______ _____ _____    ______ ____

>  <TORSDO>
F 2

$$$$
=
 OpenBabel11122410313D

 30 35  0  0  1  0  0  0  0  0999 V2000
  187.0140  178.2030  142.3470 C   0  0  0  0  0  0  0  0  0  0  0  0
  184.7050  179.0310  141.8480 C   0  0  0  0  0  0  0  0  0  0  0  0
  186.1060  177.7550  146.3450 N   0  0  0  0  0  0  0  0  0  0  0  0
  187.9670  177.7060  143.2860 C   0  0  0  0  0  0  0  0  0  0  0  0
  187.4700  178.4170  140.9330 C   0  0  0  0  0  2  0  0  0  0  0  0
  190.5800  176.6840  140.9420 O   0  0  0  0  0  0  0  0  0  0  0  0
  190.5350  177.4980  144.9890 C   0  0  1  0  0  3  0  0  0  0  0  0
  189.4560  177.0410  141.3910 C   0  0  0  0  0  0  0  0  0  0  0  0
  189.5870  177.0590  145.9830 N   0  0  0  0  0  0  0  0  0  0  0  0
  187.2740  177.3510  146.8200 N   0  0  0  0  0  0  0  0  0  0  0  0
  188.3060  177.2460  140.4460 C   0  0  2  0  0  3  0  0  0  0  0  0
  189.2510  177.2050  142.8120 N   0  0  0  0  0  0  0  0  0  0  0  0
  183.4190  179.3410  142.2990 C   0  0  0  0  0  3  0  0  0  0  0  0
  190.2120  176.5730  147.1950 C   0  0  0  0  0  2  0  0  0  0  0  0
  191.9140  177.2060  145.5640 C   0  0  0  0  0  2  0  0  0  0  0  0
  184.9650  179.2060  140.5290 F   0  0  0  0  0  0  0  0  0  0  0  0
  186.2650  177.9250  145.0170 C   0  0  0  0  0  0  0  0  0  0  0  0
  183.0750  179.1780  143.6390 C   0  0  0  0  0  3  0  0  0  0  0  0
  185.6840  178.5450  142.7530 C   0  0  0  0  0  0  0  0  0  0  0  0
  187.5470  177.6190  144.6310 C   0  0  0  0  0  0  0  0  0  0  0  0
  187.5050  177.1260  148.2380 C   0  0  0  0  0  1  0  0  0  0  0  0
  188.1780  177.2650  145.8140 C   0  0  0  0  0  0  0  0  0  0  0  0
  191.7010  176.8060  147.0180 C   0  0  0  0  0  2  0  0  0  0  0  0
  190.9440  175.7190  143.4480 O   0  0  0  0  0  0  0  0  0  0  0  0
  184.0190  178.7030  144.5480 C   0  0  0  0  0  3  0  0  0  0  0  0
  185.3120  178.3850  144.1170 C   0  0  0  0  0  0  0  0  0  0  0  0
  190.2860  176.7630  143.7120 C   0  0  0  0  0  0  0  0  0  0  0  0
  188.7780  177.5140  139.0200 C   0  0  0  0  0  2  0  0  0  0  0  0
  189.0440  179.0950  137.3180 C   0  0  0  0  0  1  0  0  0  0  0  0
  188.7190  178.9370  138.7240 N   0  0  0  0  0  2  0  0  0  0  0  0
  1 19  1  0  0  0  0
  1  4  2  0  0  0  0
  2 13  2  0  0  0  0
  2 19  1  0  0  0  0
  3 10  1  0  0  0  0
  4 20  1  0  0  0  0
  5  1  1  0  0  0  0
  6  8  2  0  0  0  0
  7 15  1  1  0  0  0
  7  9  1  0  0  0  0
  8 12  1  0  0  0  0
  9 14  1  0  0  0  0
 10 21  1  0  0  0  0
 11 28  1  6  0  0  0
 11  5  1  0  0  0  0
 11  8  1  0  0  0  0
 12  4  1  0  0  0  0
 12 27  1  0  0  0  0
 13 18  1  0  0  0  0
 15 23  1  0  0  0  0
 16  2  1  0  0  0  0
 17  3  2  0  0  0  0
 18 25  2  0  0  0  0
 19 26  2  0  0  0  0
 20 17  1  0  0  0  0
 20 22  2  0  0  0  0
 22  9  1  0  0  0  0
 22 10  1  0  0  0  0
 23 14  1  0  0  0  0
 24 27  2  0  0  0  0
 26 25  1  0  0  0  0
 26 17  1  0  0  0  0
 27  7  1  0  0  0  0
 29 30  1  0  0  0  0
 30 28  1  0  0  0  0
M  END
>  <MODEL>
5

>  <REMARK>
 VINA RESULT:     -10.2      2.382      5.355
  Name = 
  2 active torsions:
  status: ('A' for Active; 'I' for Inactive)
    1  A    between atoms: C_11  and  C_28
    2  A    between atoms: C_28  and  N_30
                            x       y       z     vdW  Elec       q    Type
                         _______ _______ _______ _____ _____    ______ ____

>  <TORSDO>
F 2

$$$$
=
 OpenBabel11122410313D

 30 35  0  0  1  0  0  0  0  0999 V2000
  189.5780  177.7220  143.5400 C   0  0  0  0  0  0  0  0  0  0  0  0
  191.5560  177.5060  142.0210 C   0  0  0  0  0  0  0  0  0  0  0  0
  187.0210  178.1200  140.3290 N   0  0  0  0  0  0  0  0  0  0  0  0
  188.1700  177.8760  143.7110 C   0  0  0  0  0  0  0  0  0  0  0  0
  190.4340  177.6780  144.7720 C   0  0  0  0  0  2  0  0  0  0  0  0
  187.9710  177.2320  147.3050 O   0  0  0  0  0  0  0  0  0  0  0  0
  185.4630  179.0740  144.5930 C   0  0  1  0  0  3  0  0  0  0  0  0
  188.4200  177.2790  146.1260 C   0  0  0  0  0  0  0  0  0  0  0  0
  185.0770  178.6260  143.2780 N   0  0  0  0  0  0  0  0  0  0  0  0
  185.8670  178.3040  140.9520 N   0  0  0  0  0  0  0  0  0  0  0  0
  189.8110  176.7910  145.8370 C   0  0  2  0  0  3  0  0  0  0  0  0
  187.5890  177.7500  145.0420 N   0  0  0  0  0  0  0  0  0  0  0  0
  192.0710  177.4540  140.7230 C   0  0  0  0  0  3  0  0  0  0  0  0
  183.6570  178.7530  143.0240 C   0  0  0  0  0  2  0  0  0  0  0  0
  184.1720  179.4620  145.3020 C   0  0  0  0  0  2  0  0  0  0  0  0
  192.4340  177.3840  143.0480 F   0  0  0  0  0  0  0  0  0  0  0  0
  187.9570  177.9560  141.2850 C   0  0  0  0  0  0  0  0  0  0  0  0
  191.2300  177.5630  139.6170 C   0  0  0  0  0  3  0  0  0  0  0  0
  190.1630  177.6710  142.2330 C   0  0  0  0  0  0  0  0  0  0  0  0
  187.4000  178.0270  142.5380 C   0  0  0  0  0  0  0  0  0  0  0  0
  184.6300  178.5810  140.2400 C   0  0  0  0  0  1  0  0  0  0  0  0
  186.0560  178.2650  142.2940 C   0  0  0  0  0  0  0  0  0  0  0  0
  183.0750  179.4370  144.2470 C   0  0  0  0  0  2  0  0  0  0  0  0
  185.5590  177.1990  146.0700 O   0  0  0  0  0  0  0  0  0  0  0  0
  189.8580  177.7260  139.8000 C   0  0  0  0  0  3  0  0  0  0  0  0
  189.3220  177.7780  141.0910 C   0  0  0  0  0  0  0  0  0  0  0  0
  186.1880  177.9740  145.2960 C   0  0  0  0  0  0  0  0  0  0  0  0
  190.6910  176.7980  147.0840 C   0  0  0  0  0  2  0  0  0  0  0  0
  192.5790  175.7770  148.0110 C   0  0  0  0  0  1  0  0  0  0  0  0
  192.0170  176.2890  146.7730 N   0  0  0  0  0  2  0  0  0  0  0  0
  1  4  2  0  0  0  0
  1  5  1  0  0  0  0
  2 19  1  0  0  0  0
  2 16  1  0  0  0  0
  3 10  1  0  0  0  0
  3 17  2  0  0  0  0
  4 12  1  0  0  0  0
  5 11  1  0  0  0  0
  7 27  1  0  0  0  0
  7 15  1  1  0  0  0
  8  6  2  0  0  0  0
  9  7  1  0  0  0  0
 10 22  1  0  0  0  0
 11  8  1  0  0  0  0
 11 28  1  1  0  0  0
 12 27  1  0  0  0  0
 12  8  1  0  0  0  0
 13  2  2  0  0  0  0
 14  9  1  0  0  0  0
 14 23  1  0  0  0  0
 17 20  1  0  0  0  0
 18 25  2  0  0  0  0
 18 13  1  0  0  0  0
 19  1  1  0  0  0  0
 20  4  1  0  0  0  0
 21 10  1  0  0  0  0
 22 20  2  0  0  0  0
 22  9  1  0  0  0  0
 23 15  1  0  0  0  0
 25 26  1  0  0  0  0
 26 17  1  0  0  0  0
 26 19  2  0  0  0  0
 27 24  2  0  0  0  0
 30 28  1  0  0  0  0
 30 29  1  0  0  0  0
M  END
>  <MODEL>
6

>  <REMARK>
 VINA RESULT:      -9.4      2.185      4.934
  Name = 
  2 active torsions:
  status: ('A' for Active; 'I' for Inactive)
    1  A    between atoms: C_11  and  C_28
    2  A    between atoms: C_28  and  N_30
                            x       y       z     vdW  Elec       q    Type
                         _______ _______ _______ _____ _____    ______ ____

>  <TORSDO>
F 2

$$$$
=
 OpenBabel11122410313D

 30 35  0  0  1  0  0  0  0  0999 V2000
  185.6440  178.2710  142.2340 C   0  0  0  0  0  0  0  0  0  0  0  0
  185.3720  178.3650  139.7470 C   0  0  0  0  0  0  0  0  0  0  0  0
  189.7390  177.9410  141.8810 N   0  0  0  0  0  0  0  0  0  0  0  0
  186.4950  178.1870  143.3760 C   0  0  0  0  0  0  0  0  0  0  0  0
  184.1610  178.2950  142.4650 C   0  0  0  0  0  2  0  0  0  0  0  0
  184.0200  178.9040  145.9700 O   0  0  0  0  0  0  0  0  0  0  0  0
  187.7510  177.1370  145.9950 C   0  0  1  0  0  3  0  0  0  0  0  0
  184.5640  178.8140  144.8340 C   0  0  0  0  0  0  0  0  0  0  0  0
  188.9590  177.5800  145.3440 N   0  0  0  0  0  0  0  0  0  0  0  0
  190.0890  177.8230  143.1530 N   0  0  0  0  0  0  0  0  0  0  0  0
  183.8020  179.2290  143.6080 C   0  0  2  0  0  3  0  0  0  0  0  0
  185.9320  178.3640  144.7080 N   0  0  0  0  0  0  0  0  0  0  0  0
  185.9540  178.3690  138.4770 C   0  0  0  0  0  3  0  0  0  0  0  0
  190.1260  177.5180  146.2000 C   0  0  0  0  0  2  0  0  0  0  0  0
  188.1380  176.8240  147.4340 C   0  0  0  0  0  2  0  0  0  0  0  0
  184.0210  178.4620  139.8170 F   0  0  0  0  0  0  0  0  0  0  0  0
  188.3980  178.0760  141.8580 C   0  0  0  0  0  0  0  0  0  0  0  0
  187.3370  178.2820  138.3260 C   0  0  0  0  0  3  0  0  0  0  0  0
  186.1840  178.2710  140.9070 C   0  0  0  0  0  0  0  0  0  0  0  0
  187.8780  178.0540  143.1290 C   0  0  0  0  0  0  0  0  0  0  0  0
  191.4630  177.5930  143.5680 C   0  0  0  0  0  1  0  0  0  0  0  0
  188.9880  177.8760  143.9410 C   0  0  0  0  0  0  0  0  0  0  0  0
  189.6580  176.8840  147.4970 C   0  0  0  0  0  2  0  0  0  0  0  0
  186.5780  179.0300  146.8580 O   0  0  0  0  0  0  0  0  0  0  0  0
  188.1550  178.1890  139.4500 C   0  0  0  0  0  3  0  0  0  0  0  0
  187.5920  178.1850  140.7310 C   0  0  0  0  0  0  0  0  0  0  0  0
  186.7190  178.2130  145.9060 C   0  0  0  0  0  0  0  0  0  0  0  0
  182.2930  179.2020  143.8350 C   0  0  0  0  0  2  0  0  0  0  0  0
  180.3540  179.7720  142.6610 C   0  0  0  0  0  1  0  0  0  0  0  0
  181.5930  179.0210  142.5730 N   0  0  0  0  0  2  0  0  0  0  0  0
  1  5  1  0  0  0  0
  1  4  2  0  0  0  0
  2 16  1  0  0  0  0
  2 19  1  0  0  0  0
  3 10  1  0  0  0  0
  4 12  1  0  0  0  0
  5 11  1  0  0  0  0
  7 15  1  1  0  0  0
  8  6  2  0  0  0  0
  9  7  1  0  0  0  0
  9 14  1  0  0  0  0
 10 21  1  0  0  0  0
 10 22  1  0  0  0  0
 11 28  1  1  0  0  0
 11  8  1  0  0  0  0
 12  8  1  0  0  0  0
 12 27  1  0  0  0  0
 13  2  2  0  0  0  0
 14 23  1  0  0  0  0
 15 23  1  0  0  0  0
 17  3  2  0  0  0  0
 17 20  1  0  0  0  0
 18 13  1  0  0  0  0
 18 25  2  0  0  0  0
 19  1  1  0  0  0  0
 20  4  1  0  0  0  0
 20 22  2  0  0  0  0
 22  9  1  0  0  0  0
 25 26  1  0  0  0  0
 26 19  2  0  0  0  0
 26 17  1  0  0  0  0
 27  7  1  0  0  0  0
 27 24  2  0  0  0  0
 30 29  1  0  0  0  0
 30 28  1  0  0  0  0
M  END
>  <MODEL>
7

>  <REMARK>
 VINA RESULT:      -9.4      2.828      6.736
  Name = 
  2 active torsions:
  status: ('A' for Active; 'I' for Inactive)
    1  A    between atoms: C_11  and  C_28
    2  A    between atoms: C_28  and  N_30
                            x       y       z     vdW  Elec       q    Type
                         _______ _______ _______ _____ _____    ______ ____

>  <TORSDO>
F 2

$$$$
=
 OpenBabel11122410313D

 30 35  0  0  1  0  0  0  0  0999 V2000
  185.8370  178.5650  141.7730 C   0  0  0  0  0  0  0  0  0  0  0  0
  183.3800  179.0290  141.8920 C   0  0  0  0  0  0  0  0  0  0  0  0
  186.0140  177.8740  145.8340 N   0  0  0  0  0  0  0  0  0  0  0  0
  187.0530  178.2000  142.4230 C   0  0  0  0  0  0  0  0  0  0  0  0
  185.8950  178.8850  140.3070 C   0  0  0  0  0  2  0  0  0  0  0  0
  189.1330  177.6680  139.4630 O   0  0  0  0  0  0  0  0  0  0  0  0
  189.9630  178.3580  143.4480 C   0  0  1  0  0  3  0  0  0  0  0  0
  188.1130  177.8300  140.1890 C   0  0  0  0  0  0  0  0  0  0  0  0
  189.3630  177.7480  144.6090 N   0  0  0  0  0  0  0  0  0  0  0  0
  187.3090  177.6470  145.9910 N   0  0  0  0  0  0  0  0  0  0  0  0
  186.7490  177.8750  139.5610 C   0  0  2  0  0  3  0  0  0  0  0  0
  188.2410  177.9220  141.6260 N   0  0  0  0  0  0  0  0  0  0  0  0
  182.2130  179.1190  142.6560 C   0  0  0  0  0  3  0  0  0  0  0  0
  190.3310  177.3360  145.6040 C   0  0  0  0  0  2  0  0  0  0  0  0
  191.4680  178.2730  143.6580 C   0  0  0  0  0  2  0  0  0  0  0  0
  183.2790  179.2770  140.5630 F   0  0  0  0  0  0  0  0  0  0  0  0
  185.8150  178.1010  144.5200 C   0  0  0  0  0  0  0  0  0  0  0  0
  182.2360  178.8690  144.0260 C   0  0  0  0  0  3  0  0  0  0  0  0
  184.6120  178.6810  142.5050 C   0  0  0  0  0  0  0  0  0  0  0  0
  186.9940  178.0130  143.8210 C   0  0  0  0  0  0  0  0  0  0  0  0
  187.9110  177.4250  147.2950 C   0  0  0  0  0  1  0  0  0  0  0  0
  187.9410  177.7330  144.7950 C   0  0  0  0  0  0  0  0  0  0  0  0
  191.6800  177.8070  145.0920 C   0  0  0  0  0  2  0  0  0  0  0  0
  190.2390  176.7070  141.7430 O   0  0  0  0  0  0  0  0  0  0  0  0
  183.4330  178.5250  144.6510 C   0  0  0  0  0  3  0  0  0  0  0  0
  184.6130  178.4280  143.9050 C   0  0  0  0  0  0  0  0  0  0  0  0
  189.5190  177.6270  142.2230 C   0  0  0  0  0  0  0  0  0  0  0  0
  186.8120  178.2520  138.0830 C   0  0  0  0  0  2  0  0  0  0  0  0
  185.0670  176.9680  137.2030 C   0  0  0  0  0  1  0  0  0  0  0  0
  186.5130  177.0970  137.2520 N   0  0  0  0  0  2  0  0  0  0  0  0
  1  4  2  0  0  0  0
  1 19  1  0  0  0  0
  2 19  2  0  0  0  0
  2 13  1  0  0  0  0
  3 10  1  0  0  0  0
  4 20  1  0  0  0  0
  5  1  1  0  0  0  0
  6  8  2  0  0  0  0
  7 15  1  1  0  0  0
  7  9  1  0  0  0  0
  8 12  1  0  0  0  0
  9 22  1  0  0  0  0
  9 14  1  0  0  0  0
 10 21  1  0  0  0  0
 11 28  1  6  0  0  0
 11  8  1  0  0  0  0
 11  5  1  0  0  0  0
 12 27  1  0  0  0  0
 12  4  1  0  0  0  0
 13 18  2  0  0  0  0
 15 23  1  0  0  0  0
 16  2  1  0  0  0  0
 17  3  2  0  0  0  0
 18 25  1  0  0  0  0
 19 26  1  0  0  0  0
 20 17  1  0  0  0  0
 20 22  2  0  0  0  0
 22 10  1  0  0  0  0
 23 14  1  0  0  0  0
 24 27  2  0  0  0  0
 26 17  1  0  0  0  0
 26 25  2  0  0  0  0
 27  7  1  0  0  0  0
 29 30  1  0  0  0  0
 30 28  1  0  0  0  0
M  END
>  <MODEL>
8

>  <REMARK>
 VINA RESULT:      -9.3      2.616      5.555
  Name = 
  2 active torsions:
  status: ('A' for Active; 'I' for Inactive)
    1  A    between atoms: C_11  and  C_28
    2  A    between atoms: C_28  and  N_30
                            x       y       z     vdW  Elec       q    Type
                         _______ _______ _______ _____ _____    ______ ____

>  <TORSDO>
F 2

$$$$
=
 OpenBabel11122410313D

 30 35  0  0  1  0  0  0  0  0999 V2000
  187.3950  178.1260  141.3830 C   0  0  0  0  0  0  0  0  0  0  0  0
  185.1890  178.8440  140.4420 C   0  0  0  0  0  0  0  0  0  0  0  0
  185.8090  177.8540  145.1800 N   0  0  0  0  0  0  0  0  0  0  0  0
  188.1790  177.7120  142.5000 C   0  0  0  0  0  0  0  0  0  0  0  0
  188.0870  178.2820  140.0600 C   0  0  0  0  0  2  0  0  0  0  0  0
  191.1910  176.6630  140.7110 O   0  0  0  0  0  0  0  0  0  0  0  0
  190.4130  177.6840  144.6340 C   0  0  1  0  0  3  0  0  0  0  0  0
  189.9960  177.0030  140.9350 C   0  0  0  0  0  0  0  0  0  0  0  0
  189.3160  177.2650  145.4710 N   0  0  0  0  0  0  0  0  0  0  0  0
  186.8850  177.5170  145.8740 N   0  0  0  0  0  0  0  0  0  0  0  0
  189.0250  177.1170  139.7940 C   0  0  2  0  0  3  0  0  0  0  0  0
  189.5400  177.2330  142.2880 N   0  0  0  0  0  0  0  0  0  0  0  0
  183.8360  179.1310  140.6430 C   0  0  0  0  0  3  0  0  0  0  0  0
  189.7300  176.8650  146.8000 C   0  0  0  0  0  2  0  0  0  0  0  0
  191.6760  177.4720  145.4570 C   0  0  0  0  0  2  0  0  0  0  0  0
  185.6730  178.9590  139.1800 F   0  0  0  0  0  0  0  0  0  0  0  0
  186.1950  177.9610  143.8930 C   0  0  0  0  0  0  0  0  0  0  0  0
  183.2660  179.0260  141.9100 C   0  0  0  0  0  3  0  0  0  0  0  0
  186.0060  178.4410  141.5300 C   0  0  0  0  0  0  0  0  0  0  0  0
  187.5320  177.6800  143.7540 C   0  0  0  0  0  0  0  0  0  0  0  0
  186.8670  177.3750  147.3210 C   0  0  0  0  0  1  0  0  0  0  0  0
  187.9530  177.4120  145.0480 C   0  0  0  0  0  0  0  0  0  0  0  0
  191.2200  177.1420  146.8720 C   0  0  0  0  0  2  0  0  0  0  0  0
  191.1320  175.8430  143.2930 O   0  0  0  0  0  0  0  0  0  0  0  0
  184.0470  178.6330  142.9940 C   0  0  0  0  0  3  0  0  0  0  0  0
  185.4030  178.3390  142.8140 C   0  0  0  0  0  0  0  0  0  0  0  0
  190.4110  176.8760  143.3780 C   0  0  0  0  0  0  0  0  0  0  0  0
  189.7340  177.3270  138.4590 C   0  0  0  0  0  2  0  0  0  0  0  0
  188.4460  175.8990  137.1300 C   0  0  0  0  0  1  0  0  0  0  0  0
  189.7680  176.0870  137.7010 N   0  0  0  0  0  2  0  0  0  0  0  0
  1 19  1  0  0  0  0
  1  4  2  0  0  0  0
  2 13  2  0  0  0  0
  2 19  1  0  0  0  0
  3 10  1  0  0  0  0
  4 20  1  0  0  0  0
  5  1  1  0  0  0  0
  6  8  2  0  0  0  0
  7 15  1  1  0  0  0
  7  9  1  0  0  0  0
  8 12  1  0  0  0  0
  9 14  1  0  0  0  0
 10 21  1  0  0  0  0
 11 28  1  6  0  0  0
 11  5  1  0  0  0  0
 11  8  1  0  0  0  0
 12  4  1  0  0  0  0
 12 27  1  0  0  0  0
 13 18  1  0  0  0  0
 14 23  1  0  0  0  0
 15 23  1  0  0  0  0
 16  2  1  0  0  0  0
 17  3  2  0  0  0  0
 18 25  2  0  0  0  0
 19 26  2  0  0  0  0
 20 17  1  0  0  0  0
 20 22  2  0  0  0  0
 22  9  1  0  0  0  0
 22 10  1  0  0  0  0
 24 27  2  0  0  0  0
 26 25  1  0  0  0  0
 26 17  1  0  0  0  0
 27  7  1  0  0  0  0
 29 30  1  0  0  0  0
 30 28  1  0  0  0  0
M  END
>  <MODEL>
9

>  <REMARK>
 VINA RESULT:      -9.1      2.338      5.315
  Name = 
  2 active torsions:
  status: ('A' for Active; 'I' for Inactive)
    1  A    between atoms: C_11  and  C_28
    2  A    between atoms: C_28  and  N_30
                            x       y       z     vdW  Elec       q    Type
                         _______ _______ _______ _____ _____    ______ ____

>  <TORSDO>
F 2

$$$$
