=
 OpenBabel11122412003D

 28 32  0  0  1  0  0  0  0  0999 V2000
  181.2390  178.9230  141.8750 C   0  0  2  0  0  3  0  0  0  0  0  0
  181.0380  176.3610  140.5290 F   0  0  0  0  0  0  0  0  0  0  0  0
  186.3710  178.8260  138.0760 O   0  0  0  0  0  0  0  0  0  0  0  0
  179.3790  181.0180  140.9960 C   0  0  0  0  0  2  0  0  0  0  0  0
  184.5160  177.4190  137.4860 C   0  0  2  0  0  3  0  0  0  0  0  0
  182.4090  178.2160  142.5270 C   0  0  0  0  0  2  0  0  0  0  0  0
  178.9900  177.3820  139.9100 C   0  0  0  0  0  1  0  0  0  0  0  0
  180.2930  176.7900  139.4210 C   0  0  1  0  0  0  0  0  0  0  0  0
  181.1650  175.0600  137.8850 C   0  0  1  0  0  3  0  0  0  0  0  0
  181.0860  177.8730  138.5910 C   0  0  2  0  0  3  0  0  0  0  0  0
  185.8670  177.9540  142.9980 C   0  0  0  0  0  1  0  0  0  0  0  0
  183.3300  177.8550  139.6170 C   0  0  1  0  0  3  0  0  0  0  0  0
  181.5140  176.0900  136.9290 N   0  0  0  0  0  2  0  0  0  0  0  0
  179.9150  175.5450  138.5880 C   0  0  0  0  0  2  0  0  0  0  0  0
  184.7750  178.3560  142.0340 C   0  0  2  0  0  3  0  0  0  0  0  0
  181.5380  179.6430  140.5280 C   0  0  2  0  0  3  0  0  0  0  0  0
  185.2460  178.3240  138.3810 C   0  0  0  0  0  0  0  0  0  0  0  0
  180.8860  173.8260  137.1590 N   0  0  0  0  0  1  0  0  0  0  0  0
  185.3280  179.0100  140.7790 C   0  0  0  0  0  2  0  0  0  0  0  0
  180.2730  180.3470  139.9340 C   0  0  0  0  0  2  0  0  0  0  0  0
  180.4490  179.7920  142.8550 C   0  0  0  0  0  2  0  0  0  0  0  0
  179.1100  180.0840  142.1830 C   0  0  0  0  0  2  0  0  0  0  0  0
  183.6330  179.1040  142.6830 C   0  0  0  0  0  2  0  0  0  0  0  0
  183.3540  176.9710  138.3450 C   0  0  1  0  0  3  0  0  0  0  0  0
  184.5660  178.6180  139.5810 N   0  0  0  0  0  0  0  0  0  0  0  0
  182.0540  177.2540  137.6000 C   0  0  2  0  0  3  0  0  0  0  0  0
  185.3350  176.2130  137.1140 C   0  0  0  0  0  1  0  0  0  0  0  0
  182.0800  178.7290  139.4000 C   0  0  2  0  0  3  0  0  0  0  0  0
  1  6  1  1  0  0  0
  1 21  1  0  0  0  0
  3 17  2  0  0  0  0
  4 22  1  0  0  0  0
  5 27  1  1  0  0  0
  5 24  1  0  0  0  0
  5 17  1  0  0  0  0
  6 23  1  0  0  0  0
  8  7  1  1  0  0  0
  8  2  1  0  0  0  0
  9 18  1  6  0  0  0
  9 14  1  0  0  0  0
 10 28  1  0  0  0  0
 10  8  1  0  0  0  0
 13 26  1  0  0  0  0
 13  9  1  0  0  0  0
 14  8  1  0  0  0  0
 15 23  1  0  0  0  0
 15 11  1  0  0  0  0
 16  1  1  0  0  0  0
 17 25  1  0  0  0  0
 19 15  1  0  0  0  0
 20 16  1  0  0  0  0
 20  4  1  0  0  0  0
 22 21  1  0  0  0  0
 24 12  1  0  0  0  0
 25 12  1  0  0  0  0
 25 19  1  0  0  0  0
 26 24  1  0  0  0  0
 26 10  1  0  0  0  0
 28 12  1  0  0  0  0
 28 16  1  0  0  0  0
M  END
>  <MODEL>
1

>  <REMARK>
 VINA RESULT:      -6.3      0.000      0.000
  Name = 
  0 active torsions:
  status: ('A' for Active; 'I' for Inactive)
                            x       y       z     vdW  Elec       q    Type
                         _______ _______ _______ _____ _____    ______ ____

>  <TORSDO>
F 0

$$$$
=
 OpenBabel11122412003D

 28 32  0  0  1  0  0  0  0  0999 V2000
  180.9500  175.5530  137.2210 C   0  0  2  0  0  3  0  0  0  0  0  0
  183.4670  176.2790  138.4670 F   0  0  0  0  0  0  0  0  0  0  0  0
  179.1600  178.4390  142.6290 O   0  0  0  0  0  0  0  0  0  0  0  0
  180.1190  177.1550  134.9060 C   0  0  0  0  0  2  0  0  0  0  0  0
  181.3400  178.9470  141.7580 C   0  0  2  0  0  3  0  0  0  0  0  0
  180.9260  174.5910  138.3910 C   0  0  0  0  0  2  0  0  0  0  0  0
  183.6240  177.4090  136.3890 C   0  0  0  0  0  1  0  0  0  0  0  0
  183.5980  177.5530  137.8950 C   0  0  1  0  0  0  0  0  0  0  0  0
  184.9130  178.5010  139.7600 C   0  0  1  0  0  3  0  0  0  0  0  0
  182.3980  178.4880  138.3140 C   0  0  2  0  0  3  0  0  0  0  0  0
  179.4660  173.5750  141.4050 C   0  0  0  0  0  1  0  0  0  0  0  0
  181.2180  177.1720  140.0340 C   0  0  1  0  0  3  0  0  0  0  0  0
  183.9860  179.6090  139.8470 N   0  0  0  0  0  2  0  0  0  0  0  0
  184.9780  178.1190  138.2970 C   0  0  0  0  0  2  0  0  0  0  0  0
  179.7630  174.7540  140.5080 C   0  0  2  0  0  3  0  0  0  0  0  0
  180.3710  176.9720  137.4890 C   0  0  2  0  0  3  0  0  0  0  0  0
  180.0830  178.1920  141.7930 C   0  0  0  0  0  0  0  0  0  0  0  0
  186.2220  178.9510  140.2210 N   0  0  0  0  0  1  0  0  0  0  0  0
  179.1100  176.0330  141.0050 C   0  0  0  0  0  2  0  0  0  0  0  0
  180.4340  177.8900  136.2240 C   0  0  0  0  0  2  0  0  0  0  0  0
  180.4250  174.9270  135.9280 C   0  0  0  0  0  2  0  0  0  0  0  0
  180.8940  175.8360  134.7930 C   0  0  0  0  0  2  0  0  0  0  0  0
  179.5560  174.4710  139.0380 C   0  0  0  0  0  2  0  0  0  0  0  0
  182.1560  178.1850  140.7360 C   0  0  1  0  0  3  0  0  0  0  0  0
  179.9770  177.2050  140.7910 N   0  0  0  0  0  0  0  0  0  0  0  0
  182.6230  179.1570  139.6580 C   0  0  2  0  0  3  0  0  0  0  0  0
  182.0600  178.9060  143.0790 C   0  0  0  0  0  1  0  0  0  0  0  0
  181.0720  177.7650  138.6210 C   0  0  2  0  0  3  0  0  0  0  0  0
  1 21  1  6  0  0  0
  1 16  1  0  0  0  0
  1  6  1  0  0  0  0
  4 20  1  0  0  0  0
  5 17  1  0  0  0  0
  5 27  1  1  0  0  0
  6 23  1  0  0  0  0
  8  7  1  6  0  0  0
  8 14  1  0  0  0  0
  8 10  1  0  0  0  0
  8  2  1  0  0  0  0
  9 13  1  0  0  0  0
  9 18  1  6  0  0  0
 10 28  1  0  0  0  0
 10 26  1  0  0  0  0
 12 24  1  0  0  0  0
 12 25  1  0  0  0  0
 14  9  1  0  0  0  0
 15 19  1  0  0  0  0
 15 11  1  0  0  0  0
 16 28  1  0  0  0  0
 17  3  2  0  0  0  0
 20 16  1  0  0  0  0
 22  4  1  0  0  0  0
 22 21  1  0  0  0  0
 23 15  1  0  0  0  0
 24  5  1  0  0  0  0
 25 19  1  0  0  0  0
 25 17  1  0  0  0  0
 26 13  1  0  0  0  0
 26 24  1  0  0  0  0
 28 12  1  0  0  0  0
M  END
>  <MODEL>
2

>  <REMARK>
 VINA RESULT:      -6.2      2.625      5.863
  Name = 
  0 active torsions:
  status: ('A' for Active; 'I' for Inactive)
                            x       y       z     vdW  Elec       q    Type
                         _______ _______ _______ _____ _____    ______ ____

>  <TORSDO>
F 0

$$$$
=
 OpenBabel11122412003D

 28 32  0  0  1  0  0  0  0  0999 V2000
  190.5090  174.1900  136.2330 C   0  0  2  0  0  3  0  0  0  0  0  0
  189.8890  175.4350  138.7790 F   0  0  0  0  0  0  0  0  0  0  0  0
  184.8550  176.9700  135.1970 O   0  0  0  0  0  0  0  0  0  0  0  0
  192.5790  175.4880  134.6060 C   0  0  0  0  0  2  0  0  0  0  0  0
  186.2120  177.8280  136.9820 C   0  0  2  0  0  3  0  0  0  0  0  0
  189.3580  173.3030  136.6610 C   0  0  0  0  0  2  0  0  0  0  0  0
  191.9550  176.4650  138.2400 C   0  0  0  0  0  1  0  0  0  0  0  0
  190.4850  176.6800  138.5290 C   0  0  1  0  0  0  0  0  0  0  0  0
  188.9830  177.9500  140.0250 C   0  0  1  0  0  3  0  0  0  0  0  0
  189.8040  177.3950  137.2980 C   0  0  2  0  0  3  0  0  0  0  0  0
  186.0800  172.1910  136.1480 C   0  0  0  0  0  1  0  0  0  0  0  0
  187.8470  175.9740  136.8160 C   0  0  1  0  0  3  0  0  0  0  0  0
  188.6920  178.8700  138.9460 N   0  0  0  0  0  2  0  0  0  0  0  0
  190.4190  177.5120  139.8290 C   0  0  0  0  0  2  0  0  0  0  0  0
  187.0300  173.3560  136.0000 C   0  0  2  0  0  3  0  0  0  0  0  0
  190.1240  175.4890  135.4680 C   0  0  2  0  0  3  0  0  0  0  0  0
  185.8800  176.8560  135.9360 C   0  0  0  0  0  0  0  0  0  0  0  0
  188.8440  178.6590  141.2930 N   0  0  0  0  0  1  0  0  0  0  0  0
  186.4050  174.5160  135.2430 C   0  0  0  0  0  2  0  0  0  0  0  0
  191.3760  176.3360  135.0640 C   0  0  0  0  0  2  0  0  0  0  0  0
  191.6400  173.4120  135.5590 C   0  0  0  0  0  2  0  0  0  0  0  0
  192.8590  174.3310  135.5740 C   0  0  0  0  0  2  0  0  0  0  0  0
  188.4100  172.9640  135.5240 C   0  0  0  0  0  2  0  0  0  0  0  0
  187.3900  177.1790  137.6750 C   0  0  1  0  0  3  0  0  0  0  0  0
  186.8230  175.8160  135.7970 N   0  0  0  0  0  0  0  0  0  0  0  0
  188.5550  178.1630  137.6890 C   0  0  2  0  0  3  0  0  0  0  0  0
  185.0950  177.9900  137.9770 C   0  0  0  0  0  1  0  0  0  0  0  0
  189.1920  176.4560  136.2410 C   0  0  2  0  0  3  0  0  0  0  0  0
  1 21  1  6  0  0  0
  1  6  1  0  0  0  0
  3 17  2  0  0  0  0
  4 20  1  0  0  0  0
  4 22  1  0  0  0  0
  5 24  1  0  0  0  0
  5 27  1  1  0  0  0
  8  7  1  6  0  0  0
  8  2  1  0  0  0  0
  8 14  1  0  0  0  0
  9 18  1  1  0  0  0
 10 26  1  0  0  0  0
 10  8  1  0  0  0  0
 12 24  1  0  0  0  0
 13  9  1  0  0  0  0
 14  9  1  0  0  0  0
 15 11  1  0  0  0  0
 16  1  1  0  0  0  0
 16 28  1  0  0  0  0
 17  5  1  0  0  0  0
 19 25  1  0  0  0  0
 19 15  1  0  0  0  0
 20 16  1  0  0  0  0
 21 22  1  0  0  0  0
 23 15  1  0  0  0  0
 23  6  1  0  0  0  0
 24 26  1  0  0  0  0
 25 17  1  0  0  0  0
 25 12  1  0  0  0  0
 26 13  1  0  0  0  0
 28 12  1  0  0  0  0
 28 10  1  0  0  0  0
M  END
>  <MODEL>
3

>  <REMARK>
 VINA RESULT:      -6.2      5.006      9.591
  Name = 
  0 active torsions:
  status: ('A' for Active; 'I' for Inactive)
                            x       y       z     vdW  Elec       q    Type
                         _______ _______ _______ _____ _____    ______ ____

>  <TORSDO>
F 0

$$$$
=
 OpenBabel11122412003D

 28 32  0  0  1  0  0  0  0  0999 V2000
  181.4320  178.9930  140.6610 C   0  0  2  0  0  3  0  0  0  0  0  0
  181.4960  176.4340  139.2950 F   0  0  0  0  0  0  0  0  0  0  0  0
  187.3520  178.7170  138.2860 O   0  0  0  0  0  0  0  0  0  0  0  0
  179.9230  181.1440  139.3500 C   0  0  0  0  0  2  0  0  0  0  0  0
  185.6640  177.3690  137.2380 C   0  0  2  0  0  3  0  0  0  0  0  0
  182.3750  178.2500  141.5840 C   0  0  0  0  0  2  0  0  0  0  0  0
  179.7060  177.5190  138.1830 C   0  0  0  0  0  1  0  0  0  0  0  0
  181.0710  176.8830  138.0360 C   0  0  1  0  0  0  0  0  0  0  0  0
  182.2470  175.1210  136.7630 C   0  0  1  0  0  3  0  0  0  0  0  0
  182.0820  177.9370  137.4410 C   0  0  2  0  0  3  0  0  0  0  0  0
  185.5900  177.8780  142.9150 C   0  0  0  0  0  1  0  0  0  0  0  0
  183.9900  177.8500  139.0010 C   0  0  1  0  0  3  0  0  0  0  0  0
  182.8600  176.1350  135.9320 N   0  0  0  0  0  2  0  0  0  0  0  0
  180.8760  175.6480  137.1290 C   0  0  0  0  0  2  0  0  0  0  0  0
  184.7910  178.3120  141.7080 C   0  0  2  0  0  3  0  0  0  0  0  0
  182.0850  179.6990  139.4370 C   0  0  2  0  0  3  0  0  0  0  0  0
  186.1710  178.2530  138.2930 C   0  0  0  0  0  0  0  0  0  0  0  0
  182.1220  173.8940  135.9840 N   0  0  0  0  0  1  0  0  0  0  0  0
  185.6660  178.9430  140.6370 C   0  0  0  0  0  2  0  0  0  0  0  0
  181.0350  180.4400  138.5460 C   0  0  0  0  0  2  0  0  0  0  0  0
  180.4470  179.8900  141.4130 C   0  0  0  0  0  2  0  0  0  0  0  0
  179.3320  180.2230  140.4250 C   0  0  0  0  0  2  0  0  0  0  0  0
  183.5470  179.0990  142.0490 C   0  0  0  0  0  2  0  0  0  0  0  0
  184.3080  176.9610  137.7730 C   0  0  1  0  0  3  0  0  0  0  0  0
  185.2190  178.5730  139.2830 N   0  0  0  0  0  0  0  0  0  0  0  0
  183.2490  177.2840  136.7230 C   0  0  2  0  0  3  0  0  0  0  0  0
  186.5110  176.1360  137.0800 C   0  0  0  0  0  1  0  0  0  0  0  0
  182.8660  178.7630  138.4790 C   0  0  2  0  0  3  0  0  0  0  0  0
  1 21  1  1  0  0  0
  1  6  1  0  0  0  0
  3 17  2  0  0  0  0
  4 22  1  0  0  0  0
  5 27  1  1  0  0  0
  5 24  1  0  0  0  0
  5 17  1  0  0  0  0
  6 23  1  0  0  0  0
  8  7  1  1  0  0  0
  8  2  1  0  0  0  0
  9 18  1  6  0  0  0
  9 14  1  0  0  0  0
 10  8  1  0  0  0  0
 10 28  1  0  0  0  0
 12 25  1  0  0  0  0
 13 26  1  0  0  0  0
 13  9  1  0  0  0  0
 14  8  1  0  0  0  0
 15 23  1  0  0  0  0
 15 11  1  0  0  0  0
 16  1  1  0  0  0  0
 17 25  1  0  0  0  0
 19 15  1  0  0  0  0
 20  4  1  0  0  0  0
 20 16  1  0  0  0  0
 22 21  1  0  0  0  0
 24 12  1  0  0  0  0
 25 19  1  0  0  0  0
 26 10  1  0  0  0  0
 26 24  1  0  0  0  0
 28 12  1  0  0  0  0
 28 16  1  0  0  0  0
M  END
>  <MODEL>
4

>  <REMARK>
 VINA RESULT:      -6.1      1.142      1.305
  Name = 
  0 active torsions:
  status: ('A' for Active; 'I' for Inactive)
                            x       y       z     vdW  Elec       q    Type
                         _______ _______ _______ _____ _____    ______ ____

>  <TORSDO>
F 0

$$$$
=
 OpenBabel11122412003D

 28 32  0  0  1  0  0  0  0  0999 V2000
  188.0950  177.3700  138.4960 C   0  0  2  0  0  3  0  0  0  0  0  0
  188.9290  174.7710  137.5150 F   0  0  0  0  0  0  0  0  0  0  0  0
  194.3660  177.2680  139.6930 O   0  0  0  0  0  0  0  0  0  0  0  0
  187.4930  179.4080  136.4690 C   0  0  0  0  0  2  0  0  0  0  0  0
  193.5320  175.8130  137.9740 C   0  0  2  0  0  3  0  0  0  0  0  0
  188.4050  176.7020  139.8190 C   0  0  0  0  0  2  0  0  0  0  0  0
  188.0020  175.7390  135.5590 C   0  0  0  0  0  1  0  0  0  0  0  0
  189.2420  175.1570  136.2030 C   0  0  1  0  0  0  0  0  0  0  0  0
  190.9490  173.4050  135.8560 C   0  0  1  0  0  3  0  0  0  0  0  0
  190.3960  176.2330  136.1900 C   0  0  2  0  0  3  0  0  0  0  0  0
  190.4010  176.5150  142.6860 C   0  0  0  0  0  1  0  0  0  0  0  0
  191.1640  176.2820  138.5340 C   0  0  1  0  0  3  0  0  0  0  0  0
  191.8950  174.4150  135.4330 N   0  0  0  0  0  2  0  0  0  0  0  0
  189.5880  173.8840  135.3990 C   0  0  0  0  0  2  0  0  0  0  0  0
  190.3720  176.8720  141.2190 C   0  0  2  0  0  3  0  0  0  0  0  0
  189.2920  178.0610  137.7800 C   0  0  2  0  0  3  0  0  0  0  0  0
  193.3750  176.7530  139.0890 C   0  0  0  0  0  0  0  0  0  0  0  0
  191.2850  172.1470  135.1980 N   0  0  0  0  0  1  0  0  0  0  0  0
  191.6740  177.5020  140.7540 C   0  0  0  0  0  2  0  0  0  0  0  0
  188.8750  178.7250  136.4270 C   0  0  0  0  0  2  0  0  0  0  0  0
  186.8450  178.2500  138.5530 C   0  0  0  0  0  2  0  0  0  0  0  0
  186.4320  178.5000  137.1040 C   0  0  0  0  0  2  0  0  0  0  0  0
  189.1260  177.6150  140.7960 C   0  0  0  0  0  2  0  0  0  0  0  0
  192.1090  175.3650  137.7170 C   0  0  1  0  0  3  0  0  0  0  0  0
  192.0340  177.0660  139.3940 N   0  0  0  0  0  0  0  0  0  0  0  0
  191.7770  175.6060  136.2480 C   0  0  2  0  0  3  0  0  0  0  0  0
  194.3530  174.6120  138.3610 C   0  0  0  0  0  1  0  0  0  0  0  0
  190.4820  177.1270  137.4420 C   0  0  2  0  0  3  0  0  0  0  0  0
  1 21  1  1  0  0  0
  1  6  1  0  0  0  0
  4 22  1  0  0  0  0
  5 27  1  1  0  0  0
  5 17  1  0  0  0  0
  6 23  1  0  0  0  0
  8  7  1  6  0  0  0
  8  2  1  0  0  0  0
  9 18  1  6  0  0  0
 10  8  1  0  0  0  0
 10 26  1  0  0  0  0
 10 28  1  0  0  0  0
 12 25  1  0  0  0  0
 13  9  1  0  0  0  0
 13 26  1  0  0  0  0
 14  9  1  0  0  0  0
 14  8  1  0  0  0  0
 15 11  1  0  0  0  0
 16  1  1  0  0  0  0
 17 25  1  0  0  0  0
 17  3  2  0  0  0  0
 19 15  1  0  0  0  0
 20  4  1  0  0  0  0
 20 16  1  0  0  0  0
 22 21  1  0  0  0  0
 23 15  1  0  0  0  0
 24  5  1  0  0  0  0
 24 12  1  0  0  0  0
 25 19  1  0  0  0  0
 26 24  1  0  0  0  0
 28 16  1  0  0  0  0
 28 12  1  0  0  0  0
M  END
>  <MODEL>
5

>  <REMARK>
 VINA RESULT:      -5.3      6.509      8.705
  Name = 
  0 active torsions:
  status: ('A' for Active; 'I' for Inactive)
                            x       y       z     vdW  Elec       q    Type
                         _______ _______ _______ _____ _____    ______ ____

>  <TORSDO>
F 0

$$$$
=
 OpenBabel11122412003D

 28 32  0  0  1  0  0  0  0  0999 V2000
  185.3390  174.9230  135.9200 C   0  0  2  0  0  3  0  0  0  0  0  0
  183.1790  176.5820  134.9200 F   0  0  0  0  0  0  0  0  0  0  0  0
  184.8540  179.5400  140.3030 O   0  0  0  0  0  0  0  0  0  0  0  0
  184.5770  172.3410  137.0920 C   0  0  0  0  0  2  0  0  0  0  0  0
  182.9320  179.0910  138.9360 C   0  0  2  0  0  3  0  0  0  0  0  0
  186.1370  176.1510  135.5350 C   0  0  0  0  0  2  0  0  0  0  0  0
  182.1020  174.4810  135.1310 C   0  0  0  0  0  1  0  0  0  0  0  0
  182.1230  175.9280  135.5720 C   0  0  1  0  0  0  0  0  0  0  0  0
  180.6700  177.9230  135.6990 C   0  0  1  0  0  3  0  0  0  0  0  0
  182.2960  175.9990  137.1390 C   0  0  2  0  0  3  0  0  0  0  0  0
  188.0890  178.8840  136.5150 C   0  0  0  0  0  1  0  0  0  0  0  0
  184.1820  177.5600  137.4410 C   0  0  1  0  0  3  0  0  0  0  0  0
  180.5060  177.7080  137.1210 N   0  0  0  0  0  2  0  0  0  0  0  0
  180.7980  176.5490  135.0780 C   0  0  0  0  0  2  0  0  0  0  0  0
  186.9660  177.9570  136.9160 C   0  0  2  0  0  3  0  0  0  0  0  0
  184.7230  174.9260  137.3490 C   0  0  2  0  0  3  0  0  0  0  0  0
  184.3430  178.9400  139.3090 C   0  0  0  0  0  0  0  0  0  0  0  0
  179.4810  178.5960  135.1890 N   0  0  0  0  0  1  0  0  0  0  0  0
  186.5190  178.1820  138.3510 C   0  0  0  0  0  2  0  0  0  0  0  0
  183.9220  173.6180  137.6570 C   0  0  0  0  0  2  0  0  0  0  0  0
  186.0590  173.6160  135.5820 C   0  0  0  0  0  2  0  0  0  0  0  0
  184.9970  172.5190  135.6280 C   0  0  0  0  0  2  0  0  0  0  0  0
  187.2070  176.5110  136.5510 C   0  0  0  0  0  2  0  0  0  0  0  0
  182.8540  178.3370  137.6260 C   0  0  1  0  0  3  0  0  0  0  0  0
  185.0600  178.0380  138.4950 N   0  0  0  0  0  0  0  0  0  0  0  0
  181.7520  177.2880  137.7270 C   0  0  2  0  0  3  0  0  0  0  0  0
  182.5650  180.5290  138.6880 C   0  0  0  0  0  1  0  0  0  0  0  0
  183.7490  176.0950  137.6420 C   0  0  2  0  0  3  0  0  0  0  0  0
  1  6  1  1  0  0  0
  1 16  1  0  0  0  0
  2  8  1  0  0  0  0
  4 20  1  0  0  0  0
  5 27  1  6  0  0  0
  5 17  1  0  0  0  0
  6 23  1  0  0  0  0
  8  7  1  6  0  0  0
  8 10  1  0  0  0  0
  9 18  1  6  0  0  0
  9 13  1  0  0  0  0
 10 28  1  0  0  0  0
 10 26  1  0  0  0  0
 11 15  1  0  0  0  0
 12 24  1  0  0  0  0
 12 28  1  0  0  0  0
 12 25  1  0  0  0  0
 13 26  1  0  0  0  0
 14  8  1  0  0  0  0
 14  9  1  0  0  0  0
 15 19  1  0  0  0  0
 16 28  1  0  0  0  0
 16 20  1  0  0  0  0
 17  3  2  0  0  0  0
 19 25  1  0  0  0  0
 21 22  1  0  0  0  0
 21  1  1  0  0  0  0
 22  4  1  0  0  0  0
 23 15  1  0  0  0  0
 24 26  1  0  0  0  0
 24  5  1  0  0  0  0
 25 17  1  0  0  0  0
M  END
>  <MODEL>
6

>  <REMARK>
 VINA RESULT:      -5.3      2.935      5.953
  Name = 
  0 active torsions:
  status: ('A' for Active; 'I' for Inactive)
                            x       y       z     vdW  Elec       q    Type
                         _______ _______ _______ _____ _____    ______ ____

>  <TORSDO>
F 0

$$$$
=
 OpenBabel11122412003D

 28 32  0  0  1  0  0  0  0  0999 V2000
  181.2730  179.2310  137.9900 C   0  0  2  0  0  3  0  0  0  0  0  0
  180.6580  176.4840  138.6880 F   0  0  0  0  0  0  0  0  0  0  0  0
  186.7360  176.1380  136.8240 O   0  0  0  0  0  0  0  0  0  0  0  0
  180.1320  180.2360  135.4780 C   0  0  0  0  0  2  0  0  0  0  0  0
  184.7050  174.8570  136.8280 C   0  0  2  0  0  3  0  0  0  0  0  0
  182.1250  179.1030  139.2360 C   0  0  0  0  0  2  0  0  0  0  0  0
  179.0370  176.9210  137.0140 C   0  0  0  0  0  1  0  0  0  0  0  0
  180.2150  176.0650  137.4240 C   0  0  1  0  0  0  0  0  0  0  0  0
  180.8590  173.6990  137.7360 C   0  0  1  0  0  3  0  0  0  0  0  0
  181.3630  176.1970  136.3500 C   0  0  2  0  0  3  0  0  0  0  0  0
  185.3030  179.0020  140.6960 C   0  0  0  0  0  1  0  0  0  0  0  0
  183.3540  176.7430  137.6990 C   0  0  1  0  0  3  0  0  0  0  0  0
  181.5870  173.7360  136.4860 N   0  0  0  0  0  2  0  0  0  0  0  0
  179.6740  174.6240  137.5610 C   0  0  0  0  0  2  0  0  0  0  0  0
  184.4990  178.6900  139.4550 C   0  0  2  0  0  3  0  0  0  0  0  0
  181.9370  178.7780  136.6570 C   0  0  2  0  0  3  0  0  0  0  0  0
  185.4900  176.0740  137.0570 C   0  0  0  0  0  0  0  0  0  0  0  0
  180.4000  172.3330  137.9680 N   0  0  0  0  0  1  0  0  0  0  0  0
  185.3770  178.2350  138.3000 C   0  0  0  0  0  2  0  0  0  0  0  0
  180.9850  178.9520  135.4280 C   0  0  0  0  0  2  0  0  0  0  0  0
  180.5810  180.5910  137.8810 C   0  0  0  0  0  2  0  0  0  0  0  0
  179.4690  180.4230  136.8490 C   0  0  0  0  0  2  0  0  0  0  0  0
  183.4900  179.7560  139.0970 C   0  0  0  0  0  2  0  0  0  0  0  0
  183.3530  175.2230  137.4020 C   0  0  1  0  0  3  0  0  0  0  0  0
  184.7300  177.1720  137.5120 N   0  0  0  0  0  0  0  0  0  0  0  0
  182.2880  174.9940  136.3350 C   0  0  2  0  0  3  0  0  0  0  0  0
  185.2510  173.6810  137.5920 C   0  0  0  0  0  1  0  0  0  0  0  0
  182.4020  177.3010  136.6240 C   0  0  2  0  0  3  0  0  0  0  0  0
  1 21  1  6  0  0  0
  1  6  1  0  0  0  0
  3 17  2  0  0  0  0
  4 22  1  0  0  0  0
  5 17  1  0  0  0  0
  5 24  1  0  0  0  0
  5 27  1  1  0  0  0
  8  7  1  6  0  0  0
  8 14  1  0  0  0  0
  8  2  1  0  0  0  0
  9 18  1  6  0  0  0
 10 28  1  0  0  0  0
 10  8  1  0  0  0  0
 13  9  1  0  0  0  0
 14  9  1  0  0  0  0
 15 11  1  0  0  0  0
 16  1  1  0  0  0  0
 17 25  1  0  0  0  0
 19 15  1  0  0  0  0
 20  4  1  0  0  0  0
 20 16  1  0  0  0  0
 22 21  1  0  0  0  0
 23  6  1  0  0  0  0
 23 15  1  0  0  0  0
 24 12  1  0  0  0  0
 25 12  1  0  0  0  0
 25 19  1  0  0  0  0
 26 10  1  0  0  0  0
 26 13  1  0  0  0  0
 26 24  1  0  0  0  0
 28 16  1  0  0  0  0
 28 12  1  0  0  0  0
M  END
>  <MODEL>
7

>  <REMARK>
 VINA RESULT:      -5.1      2.227      3.182
  Name = 
  0 active torsions:
  status: ('A' for Active; 'I' for Inactive)
                            x       y       z     vdW  Elec       q    Type
                         _______ _______ _______ _____ _____    ______ ____

>  <TORSDO>
F 0

$$$$
=
 OpenBabel11122412003D

 28 32  0  0  1  0  0  0  0  0999 V2000
  189.2390  174.8530  136.2200 C   0  0  2  0  0  3  0  0  0  0  0  0
  188.0950  176.0440  138.6060 F   0  0  0  0  0  0  0  0  0  0  0  0
  183.1250  175.7930  134.6350 O   0  0  0  0  0  0  0  0  0  0  0  0
  190.9740  176.5760  134.5950 C   0  0  0  0  0  2  0  0  0  0  0  0
  184.0400  177.1340  136.4050 C   0  0  2  0  0  3  0  0  0  0  0  0
  188.3580  173.7040  136.6650 C   0  0  0  0  0  2  0  0  0  0  0  0
  189.8180  177.5870  138.0860 C   0  0  0  0  0  1  0  0  0  0  0  0
  188.3300  177.3870  138.2760 C   0  0  1  0  0  0  0  0  0  0  0  0
  186.4180  178.2710  139.5680 C   0  0  1  0  0  3  0  0  0  0  0  0
  187.5710  177.7850  136.9510 C   0  0  2  0  0  3  0  0  0  0  0  0
  185.5820  171.6560  136.0800 C   0  0  0  0  0  1  0  0  0  0  0  0
  186.1430  175.8260  136.4950 C   0  0  1  0  0  3  0  0  0  0  0  0
  185.9620  178.9870  138.3960 N   0  0  0  0  0  2  0  0  0  0  0  0
  187.9300  178.2540  139.4900 C   0  0  0  0  0  2  0  0  0  0  0  0
  186.1700  173.0330  135.8780 C   0  0  2  0  0  3  0  0  0  0  0  0
  188.5610  175.9280  135.3200 C   0  0  2  0  0  3  0  0  0  0  0  0
  184.0800  176.0350  135.4350 C   0  0  0  0  0  0  0  0  0  0  0  0
  185.9850  178.9980  140.7570 N   0  0  0  0  0  1  0  0  0  0  0  0
  185.3010  173.9050  134.9870 C   0  0  0  0  0  2  0  0  0  0  0  0
  189.5470  177.0700  134.9090 C   0  0  0  0  0  2  0  0  0  0  0  0
  190.5930  174.3910  135.6810 C   0  0  0  0  0  2  0  0  0  0  0  0
  191.4950  175.6230  135.6770 C   0  0  0  0  0  2  0  0  0  0  0  0
  187.6370  173.0240  135.5130 C   0  0  0  0  0  2  0  0  0  0  0  0
  185.2970  176.9060  137.2160 C   0  0  1  0  0  3  0  0  0  0  0  0
  185.2880  175.3050  135.4420 N   0  0  0  0  0  0  0  0  0  0  0  0
  186.1290  178.1830  137.2030 C   0  0  2  0  0  3  0  0  0  0  0  0
  182.8500  177.0350  137.3200 C   0  0  0  0  0  1  0  0  0  0  0  0
  187.3360  176.6350  135.9520 C   0  0  2  0  0  3  0  0  0  0  0  0
  1 21  1  6  0  0  0
  1  6  1  0  0  0  0
  3 17  2  0  0  0  0
  4 20  1  0  0  0  0
  4 22  1  0  0  0  0
  5 24  1  0  0  0  0
  5 27  1  1  0  0  0
  8  7  1  6  0  0  0
  8  2  1  0  0  0  0
  8 14  1  0  0  0  0
  9 18  1  1  0  0  0
 10 26  1  0  0  0  0
 10  8  1  0  0  0  0
 12 24  1  0  0  0  0
 13  9  1  0  0  0  0
 14  9  1  0  0  0  0
 15 11  1  0  0  0  0
 16 28  1  0  0  0  0
 16  1  1  0  0  0  0
 17 25  1  0  0  0  0
 17  5  1  0  0  0  0
 19 25  1  0  0  0  0
 19 15  1  0  0  0  0
 20 16  1  0  0  0  0
 22 21  1  0  0  0  0
 23 15  1  0  0  0  0
 23  6  1  0  0  0  0
 25 12  1  0  0  0  0
 26 24  1  0  0  0  0
 26 13  1  0  0  0  0
 28 12  1  0  0  0  0
 28 10  1  0  0  0  0
M  END
>  <MODEL>
8

>  <REMARK>
 VINA RESULT:      -5.1      4.128      8.442
  Name = 
  0 active torsions:
  status: ('A' for Active; 'I' for Inactive)
                            x       y       z     vdW  Elec       q    Type
                         _______ _______ _______ _____ _____    ______ ____

>  <TORSDO>
F 0

$$$$
=
 OpenBabel11122412003D

 28 32  0  0  1  0  0  0  0  0999 V2000
  187.8480  176.1580  136.2730 C   0  0  2  0  0  3  0  0  0  0  0  0
  188.7230  175.7080  139.0020 F   0  0  0  0  0  0  0  0  0  0  0  0
  183.8000  179.6770  139.7370 O   0  0  0  0  0  0  0  0  0  0  0  0
  189.5370  177.9040  134.6230 C   0  0  0  0  0  2  0  0  0  0  0  0
  185.9240  179.1300  140.7150 C   0  0  2  0  0  3  0  0  0  0  0  0
  186.6740  175.3400  136.7700 C   0  0  0  0  0  2  0  0  0  0  0  0
  190.6880  176.5940  138.0150 C   0  0  0  0  0  1  0  0  0  0  0  0
  189.6330  176.7720  139.0850 C   0  0  1  0  0  0  0  0  0  0  0  0
  189.3990  177.0750  141.5260 C   0  0  1  0  0  3  0  0  0  0  0  0
  188.9040  178.1570  138.8800 C   0  0  2  0  0  3  0  0  0  0  0  0
  183.2770  175.1650  137.5890 C   0  0  0  0  0  1  0  0  0  0  0  0
  186.5120  177.5550  138.8940 C   0  0  1  0  0  3  0  0  0  0  0  0
  189.1340  178.4830  141.3230 N   0  0  0  0  0  2  0  0  0  0  0  0
  190.3690  176.6670  140.4380 C   0  0  0  0  0  2  0  0  0  0  0  0
  184.4910  176.0620  137.5260 C   0  0  2  0  0  3  0  0  0  0  0  0
  187.7670  177.6930  136.5180 C   0  0  2  0  0  3  0  0  0  0  0  0
  184.8850  179.0200  139.6860 C   0  0  0  0  0  0  0  0  0  0  0  0
  190.0130  176.9010  142.8380 N   0  0  0  0  0  1  0  0  0  0  0  0
  184.1530  177.5100  137.8380 C   0  0  0  0  0  2  0  0  0  0  0  0
  189.0180  178.4520  135.9680 C   0  0  0  0  0  2  0  0  0  0  0  0
  188.2560  175.8030  134.8420 C   0  0  0  0  0  2  0  0  0  0  0  0
  189.6580  176.3750  134.6440 C   0  0  0  0  0  2  0  0  0  0  0  0
  185.3330  175.8640  136.2860 C   0  0  0  0  0  2  0  0  0  0  0  0
  186.9100  178.0570  140.3050 C   0  0  1  0  0  3  0  0  0  0  0  0
  185.2200  178.1610  138.6180 N   0  0  0  0  0  0  0  0  0  0  0  0
  188.2910  178.6870  140.1630 C   0  0  2  0  0  3  0  0  0  0  0  0
  185.3970  178.8030  142.0850 C   0  0  0  0  0  1  0  0  0  0  0  0
  187.6370  178.1150  138.0040 C   0  0  2  0  0  3  0  0  0  0  0  0
  1 21  1  6  0  0  0
  1 16  1  0  0  0  0
  1  6  1  0  0  0  0
  2  8  1  0  0  0  0
  4 22  1  0  0  0  0
  4 20  1  0  0  0  0
  5 27  1  1  0  0  0
  8  7  1  6  0  0  0
  8 14  1  0  0  0  0
  9 18  1  1  0  0  0
 10  8  1  0  0  0  0
 10 26  1  0  0  0  0
 12 24  1  0  0  0  0
 13  9  1  0  0  0  0
 14  9  1  0  0  0  0
 15 11  1  0  0  0  0
 15 19  1  0  0  0  0
 16 28  1  0  0  0  0
 17  3  2  0  0  0  0
 17  5  1  0  0  0  0
 19 25  1  0  0  0  0
 20 16  1  0  0  0  0
 22 21  1  0  0  0  0
 23  6  1  0  0  0  0
 23 15  1  0  0  0  0
 24  5  1  0  0  0  0
 25 12  1  0  0  0  0
 25 17  1  0  0  0  0
 26 24  1  0  0  0  0
 26 13  1  0  0  0  0
 28 10  1  0  0  0  0
 28 12  1  0  0  0  0
M  END
>  <MODEL>
9

>  <REMARK>
 VINA RESULT:      -4.9      3.764      8.102
  Name = 
  0 active torsions:
  status: ('A' for Active; 'I' for Inactive)
                            x       y       z     vdW  Elec       q    Type
                         _______ _______ _______ _____ _____    ______ ____

>  <TORSDO>
F 0

$$$$
