=
 OpenBabel11122411363D

 37 42  0  0  1  0  0  0  0  0999 V2000
  188.7470  177.6190  142.8440 C   0  0  0  0  0  0  0  0  0  0  0  0
  184.5000  178.0680  143.3990 C   0  0  0  0  0  0  0  0  0  0  0  0
  182.9830  177.0140  140.9860 C   0  0  0  0  0  2  0  0  0  0  0  0
  186.8460  177.9920  144.4990 C   0  0  0  0  0  0  0  0  0  0  0  0
  184.1910  178.8810  142.2170 N   0  0  0  0  0  0  0  0  0  0  0  0
  182.6500  178.0720  137.8690 C   0  0  0  0  0  0  0  0  0  0  0  0
  185.9680  177.8820  143.3360 C   0  0  0  0  0  0  0  0  0  0  0  0
  182.9300  178.4200  141.6100 C   0  0  2  0  0  3  0  0  0  0  0  0
  186.3230  178.4530  145.6390 C   0  0  0  0  0  3  0  0  0  0  0  0
  182.2290  179.2710  137.2070 N   0  0  0  0  0  2  0  0  0  0  0  0
  186.3860  178.1400  142.1250 C   0  0  2  0  0  3  0  0  0  0  0  0
  188.7010  176.1230  142.5850 C   0  0  0  0  0  1  0  0  0  0  0  0
  182.5930  179.0250  144.8830 C   0  0  0  0  0  2  0  0  0  0  0  0
  184.8850  178.8210  145.7310 C   0  0  0  0  0  3  0  0  0  0  0  0
  187.8470  178.3550  141.8260 C   0  0  0  0  0  2  0  0  0  0  0  0
  183.6640  178.1280  138.8830 N   0  0  0  0  0  0  0  0  0  0  0  0
  183.8690  176.9550  139.7390 C   0  0  0  0  0  2  0  0  0  0  0  0
  184.0500  178.7290  144.6800 C   0  0  0  0  0  0  0  0  0  0  0  0
  185.3030  178.6630  141.3680 N   0  0  2  0  0  0  0  0  0  0  0  0
  188.3360  177.8990  144.3100 C   0  0  0  0  0  2  0  0  0  0  0  0
  181.7180  178.5710  142.5480 C   0  0  1  0  0  3  0  0  0  0  0  0
  190.1740  178.0870  142.6500 C   0  0  0  0  0  1  0  0  0  0  0  0
  184.2450  179.4350  139.2290 C   0  0  0  0  0  2  0  0  0  0  0  0
  182.1170  176.9690  137.5670 O   0  0  0  0  0  0  0  0  0  0  0  0
  185.5130  179.3540  140.0910 C   0  0  0  0  0  2  0  0  0  0  0  0
  181.9170  179.6240  143.6460 C   0  0  0  0  0  2  0  0  0  0  0  0
  179.7810  177.7770  141.0820 C   0  0  0  0  0  3  0  0  0  0  0  0
  180.5030  178.8840  141.7350 C   0  0  0  0  0  0  0  0  0  0  0  0
  180.1270  180.1210  141.5720 N   0  0  0  0  0  0  0  0  0  0  0  0
  178.9370  181.9810  140.5570 C   0  0  0  0  0  1  0  0  0  0  0  0
  178.9310  179.6010  139.2180 S   0  0  0  0  0  0  0  0  0  0  0  0
  178.9370  180.4870  140.8070 C   0  0  1  0  0  3  0  0  0  0  0  0
  179.0000  177.9910  140.0220 C   0  0  0  0  0  3  0  0  0  0  0  0
  181.7800  178.8120  134.8460 C   0  0  0  0  0  1  0  0  0  0  0  0
  181.2040  179.2810  136.1730 C   0  0  2  0  0  3  0  0  0  0  0  0
  180.4170  181.0960  134.5940 C   0  0  0  0  0  1  0  0  0  0  0  0
  180.5830  180.6690  136.0440 C   0  0  0  0  0  2  0  0  0  0  0  0
  1 20  1  0  0  0  0
  2 18  1  0  0  0  0
  4  9  2  0  0  0  0
  5  2  1  0  0  0  0
  6 16  1  0  0  0  0
  7  2  2  0  0  0  0
  7  4  1  0  0  0  0
  8  3  1  1  0  0  0
  8  5  1  0  0  0  0
  8 21  1  0  0  0  0
  9 14  1  0  0  0  0
 10  6  1  0  0  0  0
 11 15  1  1  0  0  0
 11  7  1  0  0  0  0
 12  1  1  0  0  0  0
 15  1  1  0  0  0  0
 16 23  1  0  0  0  0
 16 17  1  0  0  0  0
 17  3  1  0  0  0  0
 18 13  1  0  0  0  0
 18 14  2  0  0  0  0
 19 25  1  1  0  0  0
 19 11  1  0  0  0  0
 19  5  1  0  0  0  0
 20  4  1  0  0  0  0
 21 28  1  6  0  0  0
 21 26  1  0  0  0  0
 22  1  1  0  0  0  0
 23 25  1  0  0  0  0
 24  6  2  0  0  0  0
 26 13  1  0  0  0  0
 27 28  1  0  0  0  0
 29 28  2  0  0  0  0
 31 33  1  0  0  0  0
 31 32  1  0  0  0  0
 32 30  1  6  0  0  0
 32 29  1  0  0  0  0
 33 27  2  0  0  0  0
 35 34  1  6  0  0  0
 35 10  1  0  0  0  0
 36 37  1  0  0  0  0
 37 35  1  0  0  0  0
M  END
>  <MODEL>
1

>  <REMARK>
 VINA RESULT:      -7.1      0.000      0.000
  Name = 
  3 active torsions:
  status: ('A' for Active; 'I' for Inactive)
    1  A    between atoms: C_4  and  N_12
    2  A    between atoms: C_4  and  C_37
    3  A    between atoms: C_23  and  C_30
                            x       y       z     vdW  Elec       q    Type
                         _______ _______ _______ _____ _____    ______ ____

>  <TORSDO>
F 3

$$$$
=
 OpenBabel11122411363D

 37 42  0  0  1  0  0  0  0  0999 V2000
  180.1170  172.9620  136.7320 C   0  0  0  0  0  0  0  0  0  0  0  0
  182.5750  176.3930  137.5830 C   0  0  0  0  0  0  0  0  0  0  0  0
  185.0500  176.4080  135.8180 C   0  0  0  0  0  2  0  0  0  0  0  0
  180.2430  175.2810  137.7780 C   0  0  0  0  0  0  0  0  0  0  0  0
  183.8260  175.7090  137.9340 N   0  0  0  0  0  0  0  0  0  0  0  0
  187.7730  174.5310  135.7040 C   0  0  0  0  0  0  0  0  0  0  0  0
  181.6260  175.2910  137.3060 C   0  0  0  0  0  0  0  0  0  0  0  0
  184.9710  176.4340  137.3550 C   0  0  2  0  0  3  0  0  0  0  0  0
  179.8680  176.2270  138.6450 C   0  0  0  0  0  3  0  0  0  0  0  0
  188.8120  174.1340  136.6070 N   0  0  0  0  0  2  0  0  0  0  0  0
  182.2930  174.1880  137.0890 C   0  0  2  0  0  3  0  0  0  0  0  0
  179.9750  173.2510  135.2470 C   0  0  0  0  0  1  0  0  0  0  0  0
  182.9690  178.4570  139.1120 C   0  0  0  0  0  2  0  0  0  0  0  0
  180.8220  177.2730  139.1000 C   0  0  0  0  0  3  0  0  0  0  0  0
  181.6140  172.8440  137.1020 C   0  0  0  0  0  2  0  0  0  0  0  0
  186.3960  174.3450  136.0640 N   0  0  0  0  0  0  0  0  0  0  0  0
  185.3640  175.0140  135.2670 C   0  0  0  0  0  2  0  0  0  0  0  0
  182.1000  177.3110  138.6830 C   0  0  0  0  0  0  0  0  0  0  0  0
  183.6670  174.4210  137.3650 N   0  0  2  0  0  0  0  0  0  0  0  0
  179.3910  174.0630  137.5420 C   0  0  0  0  0  2  0  0  0  0  0  0
  185.1150  177.8670  137.8990 C   0  0  1  0  0  3  0  0  0  0  0  0
  179.4450  171.6360  137.0190 C   0  0  0  0  0  1  0  0  0  0  0  0
  186.0840  173.7530  137.3740 C   0  0  0  0  0  2  0  0  0  0  0  0
  188.0720  175.0590  134.5980 O   0  0  0  0  0  0  0  0  0  0  0  0
  184.6200  173.3200  137.5390 C   0  0  0  0  0  2  0  0  0  0  0  0
  184.4450  178.0780  139.2630 C   0  0  0  0  0  2  0  0  0  0  0  0
  187.2710  178.5640  136.7170 C   0  0  0  0  0  3  0  0  0  0  0  0
  186.5650  178.2240  137.9660 C   0  0  0  0  0  0  0  0  0  0  0  0
  187.1960  178.1850  139.1060 N   0  0  0  0  0  0  0  0  0  0  0  0
  189.1110  178.1180  140.6000 C   0  0  0  0  0  1  0  0  0  0  0  0
  189.5750  177.7150  137.9390 S   0  0  0  0  0  0  0  0  0  0  0  0
  188.6060  178.5440  139.2370 C   0  0  1  0  0  3  0  0  0  0  0  0
  188.5970  178.4570  136.6210 C   0  0  0  0  0  3  0  0  0  0  0  0
  190.7290  173.1390  135.4590 C   0  0  0  0  0  1  0  0  0  0  0  0
  190.2260  174.2990  136.3010 C   0  0  2  0  0  3  0  0  0  0  0  0
  192.4600  174.9200  137.3180 C   0  0  0  0  0  1  0  0  0  0  0  0
  191.0400  174.4420  137.5840 C   0  0  0  0  0  2  0  0  0  0  0  0
  1 22  1  0  0  0  0
  1 15  1  0  0  0  0
  1 20  1  0  0  0  0
  2  5  1  0  0  0  0
  2 18  1  0  0  0  0
  4  9  2  0  0  0  0
  6 16  1  0  0  0  0
  6 10  1  0  0  0  0
  7  2  2  0  0  0  0
  7  4  1  0  0  0  0
  8  3  1  6  0  0  0
  8 21  1  0  0  0  0
  8  5  1  0  0  0  0
  9 14  1  0  0  0  0
 11 15  1  1  0  0  0
 11  7  1  0  0  0  0
 11 19  1  0  0  0  0
 12  1  1  0  0  0  0
 13 26  1  0  0  0  0
 16 23  1  0  0  0  0
 17  3  1  0  0  0  0
 17 16  1  0  0  0  0
 18 14  2  0  0  0  0
 18 13  1  0  0  0  0
 19 25  1  1  0  0  0
 19  5  1  0  0  0  0
 20  4  1  0  0  0  0
 21 28  1  1  0  0  0
 21 26  1  0  0  0  0
 23 25  1  0  0  0  0
 24  6  2  0  0  0  0
 27 28  1  0  0  0  0
 28 29  2  0  0  0  0
 29 32  1  0  0  0  0
 31 32  1  0  0  0  0
 32 30  1  1  0  0  0
 33 27  2  0  0  0  0
 33 31  1  0  0  0  0
 35 34  1  1  0  0  0
 35 10  1  0  0  0  0
 35 37  1  0  0  0  0
 36 37  1  0  0  0  0
M  END
>  <MODEL>
2

>  <REMARK>
 VINA RESULT:      -6.2      4.839      8.783
  Name = 
  3 active torsions:
  status: ('A' for Active; 'I' for Inactive)
    1  A    between atoms: C_4  and  N_12
    2  A    between atoms: C_4  and  C_37
    3  A    between atoms: C_23  and  C_30
                            x       y       z     vdW  Elec       q    Type
                         _______ _______ _______ _____ _____    ______ ____

>  <TORSDO>
F 3

$$$$
=
 OpenBabel11122411363D

 37 42  0  0  1  0  0  0  0  0999 V2000
  191.2010  177.0620  147.8470 C   0  0  0  0  0  0  0  0  0  0  0  0
  187.4970  177.4990  145.6950 C   0  0  0  0  0  0  0  0  0  0  0  0
  187.6670  176.1530  142.9750 C   0  0  0  0  0  2  0  0  0  0  0  0
  188.7120  177.5880  147.9820 C   0  0  0  0  0  0  0  0  0  0  0  0
  188.0000  178.1680  144.4890 N   0  0  0  0  0  0  0  0  0  0  0  0
  189.3220  176.8450  140.1950 C   0  0  0  0  0  0  0  0  0  0  0  0
  188.6980  177.3320  146.5440 C   0  0  0  0  0  0  0  0  0  0  0  0
  187.3290  177.6200  143.2970 C   0  0  2  0  0  3  0  0  0  0  0  0
  187.6370  178.1660  148.5270 C   0  0  0  0  0  3  0  0  0  0  0  0
  189.4460  177.9540  139.2970 N   0  0  0  0  0  2  0  0  0  0  0  0
  189.7700  177.4580  145.8070 C   0  0  2  0  0  3  0  0  0  0  0  0
  191.2370  175.5460  147.7640 C   0  0  0  0  0  1  0  0  0  0  0  0
  185.1370  178.5860  145.6320 C   0  0  0  0  0  2  0  0  0  0  0  0
  186.4520  178.5180  147.7010 C   0  0  0  0  0  3  0  0  0  0  0  0
  191.1290  177.6630  146.4240 C   0  0  0  0  0  2  0  0  0  0  0  0
  189.5300  177.0330  141.6030 N   0  0  0  0  0  0  0  0  0  0  0  0
  189.1180  175.9680  142.5230 C   0  0  0  0  0  2  0  0  0  0  0  0
  186.4070  178.2930  146.3750 C   0  0  0  0  0  0  0  0  0  0  0  0
  189.3860  177.8740  144.5040 N   0  0  2  0  0  0  0  0  0  0  0  0
  190.0120  177.5000  148.7360 C   0  0  0  0  0  2  0  0  0  0  0  0
  185.8070  177.8550  143.2990 C   0  0  1  0  0  3  0  0  0  0  0  0
  192.4830  177.5290  148.5010 C   0  0  0  0  0  1  0  0  0  0  0  0
  189.8580  178.3800  142.0940 C   0  0  0  0  0  2  0  0  0  0  0  0
  189.0150  175.7070  139.7460 O   0  0  0  0  0  0  0  0  0  0  0  0
  190.3540  178.4190  143.5470 C   0  0  0  0  0  2  0  0  0  0  0  0
  185.3670  179.0290  144.1840 C   0  0  0  0  0  2  0  0  0  0  0  0
  186.2840  178.5920  140.8990 C   0  0  0  0  0  3  0  0  0  0  0  0
  185.3380  178.0540  141.8940 C   0  0  0  0  0  0  0  0  0  0  0  0
  184.1000  177.7990  141.5760 N   0  0  0  0  0  0  0  0  0  0  0  0
  182.0780  177.8670  140.2300 C   0  0  0  0  0  1  0  0  0  0  0  0
  184.1060  179.5630  139.5430 S   0  0  0  0  0  0  0  0  0  0  0  0
  183.5900  177.9520  140.2150 C   0  0  1  0  0  3  0  0  0  0  0  0
  185.8520  179.1990  139.7930 C   0  0  0  0  0  3  0  0  0  0  0  0
  190.4830  177.2520  137.1950 C   0  0  0  0  0  1  0  0  0  0  0  0
  189.2440  177.8290  137.8600 C   0  0  2  0  0  3  0  0  0  0  0  0
  187.5600  179.1210  136.4790 C   0  0  0  0  0  1  0  0  0  0  0  0
  188.8700  179.1780  137.2500 C   0  0  0  0  0  2  0  0  0  0  0  0
  1 22  1  0  0  0  0
  1 20  1  0  0  0  0
  2 18  2  0  0  0  0
  2  7  1  0  0  0  0
  4  9  1  0  0  0  0
  4 20  1  0  0  0  0
  5 19  1  0  0  0  0
  5  2  1  0  0  0  0
  6 16  1  0  0  0  0
  7  4  2  0  0  0  0
  8  3  1  1  0  0  0
  8 21  1  0  0  0  0
  8  5  1  0  0  0  0
 10  6  1  0  0  0  0
 11 15  1  1  0  0  0
 11  7  1  0  0  0  0
 12  1  1  0  0  0  0
 13 18  1  0  0  0  0
 14  9  2  0  0  0  0
 15  1  1  0  0  0  0
 16 23  1  0  0  0  0
 16 17  1  0  0  0  0
 17  3  1  0  0  0  0
 18 14  1  0  0  0  0
 19 25  1  1  0  0  0
 19 11  1  0  0  0  0
 21 28  1  6  0  0  0
 21 26  1  0  0  0  0
 23 25  1  0  0  0  0
 24  6  2  0  0  0  0
 26 13  1  0  0  0  0
 27 28  1  0  0  0  0
 29 28  2  0  0  0  0
 31 33  1  0  0  0  0
 31 32  1  0  0  0  0
 32 30  1  1  0  0  0
 32 29  1  0  0  0  0
 33 27  2  0  0  0  0
 35 34  1  6  0  0  0
 35 10  1  0  0  0  0
 36 37  1  0  0  0  0
 37 35  1  0  0  0  0
M  END
>  <MODEL>
3

>  <REMARK>
 VINA RESULT:      -6.2      3.408      5.733
  Name = 
  3 active torsions:
  status: ('A' for Active; 'I' for Inactive)
    1  A    between atoms: C_4  and  N_12
    2  A    between atoms: C_4  and  C_37
    3  A    between atoms: C_23  and  C_30
                            x       y       z     vdW  Elec       q    Type
                         _______ _______ _______ _____ _____    ______ ____

>  <TORSDO>
F 3

$$$$
=
 OpenBabel11122411363D

 37 42  0  0  1  0  0  0  0  0999 V2000
  188.1520  177.9100  147.4460 C   0  0  0  0  0  0  0  0  0  0  0  0
  189.6610  177.8250  143.4130 C   0  0  0  0  0  0  0  0  0  0  0  0
  187.8610  179.4240  141.5580 C   0  0  0  0  0  2  0  0  0  0  0  0
  190.1530  177.4670  145.9320 C   0  0  0  0  0  0  0  0  0  0  0  0
  188.4890  177.2590  142.7330 N   0  0  0  0  0  0  0  0  0  0  0  0
  184.8040  178.9460  140.3850 C   0  0  0  0  0  0  0  0  0  0  0  0
  189.2670  177.8630  144.8400 C   0  0  0  0  0  0  0  0  0  0  0  0
  188.2780  177.9460  141.4470 C   0  0  2  0  0  3  0  0  0  0  0  0
  191.3120  176.8790  145.6190 C   0  0  0  0  0  3  0  0  0  0  0  0
  184.1060  177.9260  139.6600 N   0  0  0  0  0  2  0  0  0  0  0  0
  187.9660  177.7690  144.9340 C   0  0  2  0  0  3  0  0  0  0  0  0
  188.1210  179.4250  147.5560 C   0  0  0  0  0  1  0  0  0  0  0  0
  191.4180  176.8390  141.7730 C   0  0  0  0  0  2  0  0  0  0  0  0
  191.7000  176.6540  144.2020 C   0  0  0  0  0  3  0  0  0  0  0  0
  187.2930  177.4550  146.2440 C   0  0  0  0  0  2  0  0  0  0  0  0
  185.5220  178.6140  141.5830 N   0  0  0  0  0  0  0  0  0  0  0  0
  186.4550  179.5980  142.1400 C   0  0  0  0  0  2  0  0  0  0  0  0
  190.9080  177.0090  143.1730 C   0  0  0  0  0  0  0  0  0  0  0  0
  187.4320  177.4980  143.6460 N   0  0  2  0  0  0  0  0  0  0  0  0
  189.6200  177.4320  147.3400 C   0  0  0  0  0  2  0  0  0  0  0  0
  189.4540  177.7690  140.4680 C   0  0  1  0  0  3  0  0  0  0  0  0
  187.5520  177.3340  148.7110 C   0  0  0  0  0  1  0  0  0  0  0  0
  185.5320  177.2130  142.0340 C   0  0  0  0  0  2  0  0  0  0  0  0
  184.7970  180.1330  139.9600 O   0  0  0  0  0  0  0  0  0  0  0  0
  186.0600  177.0130  143.4620 C   0  0  0  0  0  2  0  0  0  0  0  0
  190.3130  176.5310  140.7570 C   0  0  0  0  0  2  0  0  0  0  0  0
  189.1600  178.8840  138.1880 C   0  0  0  0  0  3  0  0  0  0  0  0
  188.9270  177.7260  139.0700 C   0  0  0  0  0  0  0  0  0  0  0  0
  188.2330  176.7010  138.6640 N   0  0  0  0  0  0  0  0  0  0  0  0
  186.7180  175.4520  137.2320 C   0  0  0  0  0  1  0  0  0  0  0  0
  186.8910  178.1490  136.8340 S   0  0  0  0  0  0  0  0  0  0  0  0
  187.7110  176.5930  137.3030 C   0  0  1  0  0  3  0  0  0  0  0  0
  188.3790  179.1180  137.1320 C   0  0  0  0  0  3  0  0  0  0  0  0
  181.9640  178.6950  138.7640 C   0  0  0  0  0  1  0  0  0  0  0  0
  183.3630  178.1980  138.4380 C   0  0  2  0  0  3  0  0  0  0  0  0
  183.0940  175.6820  138.3500 C   0  0  0  0  0  1  0  0  0  0  0  0
  183.3140  176.9580  137.5500 C   0  0  0  0  0  2  0  0  0  0  0  0
  1 12  1  0  0  0  0
  1 22  1  0  0  0  0
  2  7  1  0  0  0  0
  3 17  1  0  0  0  0
  4 20  1  0  0  0  0
  5  2  1  0  0  0  0
  5 19  1  0  0  0  0
  6 16  1  0  0  0  0
  7 11  1  0  0  0  0
  7  4  2  0  0  0  0
  8  3  1  1  0  0  0
  8  5  1  0  0  0  0
  9  4  1  0  0  0  0
 10  6  1  0  0  0  0
 11 15  1  1  0  0  0
 13 18  1  0  0  0  0
 14  9  2  0  0  0  0
 15  1  1  0  0  0  0
 16 23  1  0  0  0  0
 16 17  1  0  0  0  0
 18  2  2  0  0  0  0
 18 14  1  0  0  0  0
 19 25  1  1  0  0  0
 19 11  1  0  0  0  0
 20  1  1  0  0  0  0
 21 28  1  6  0  0  0
 21 26  1  0  0  0  0
 21  8  1  0  0  0  0
 23 25  1  0  0  0  0
 24  6  2  0  0  0  0
 26 13  1  0  0  0  0
 27 28  1  0  0  0  0
 29 28  2  0  0  0  0
 31 33  1  0  0  0  0
 31 32  1  0  0  0  0
 32 30  1  1  0  0  0
 32 29  1  0  0  0  0
 33 27  2  0  0  0  0
 35 34  1  1  0  0  0
 35 10  1  0  0  0  0
 37 36  1  0  0  0  0
 37 35  1  0  0  0  0
M  END
>  <MODEL>
4

>  <REMARK>
 VINA RESULT:      -6.1      3.163      6.421
  Name = 
  3 active torsions:
  status: ('A' for Active; 'I' for Inactive)
    1  A    between atoms: C_4  and  N_12
    2  A    between atoms: C_4  and  C_37
    3  A    between atoms: C_23  and  C_30
                            x       y       z     vdW  Elec       q    Type
                         _______ _______ _______ _____ _____    ______ ____

>  <TORSDO>
F 3

$$$$
=
 OpenBabel11122411363D

 37 42  0  0  1  0  0  0  0  0999 V2000
  194.5950  175.1710  135.8510 C   0  0  0  0  0  0  0  0  0  0  0  0
  190.4920  173.9410  135.4120 C   0  0  0  0  0  0  0  0  0  0  0  0
  188.6240  176.3300  135.6160 C   0  0  0  0  0  2  0  0  0  0  0  0
  192.9920  173.3580  135.0560 C   0  0  0  0  0  0  0  0  0  0  0  0
  189.9550  174.4450  136.6820 N   0  0  0  0  0  0  0  0  0  0  0  0
  187.7260  178.3070  138.1130 C   0  0  0  0  0  0  0  0  0  0  0  0
  191.9330  174.2760  135.4700 C   0  0  0  0  0  0  0  0  0  0  0  0
  188.6270  175.0430  136.4610 C   0  0  2  0  0  3  0  0  0  0  0  0
  192.6540  172.0960  134.7750 C   0  0  0  0  0  3  0  0  0  0  0  0
  187.1550  178.1550  139.4180 N   0  0  0  0  0  2  0  0  0  0  0  0
  192.1280  175.1950  136.3790 C   0  0  2  0  0  3  0  0  0  0  0  0
  194.5600  176.1920  134.7270 C   0  0  0  0  0  1  0  0  0  0  0  0
  188.8320  171.9530  135.1960 C   0  0  0  0  0  2  0  0  0  0  0  0
  191.2400  171.6420  134.8580 C   0  0  0  0  0  3  0  0  0  0  0  0
  193.5070  175.5080  136.8970 C   0  0  0  0  0  2  0  0  0  0  0  0
  188.8950  177.5590  137.7480 N   0  0  0  0  0  0  0  0  0  0  0  0
  189.2860  177.5090  136.3360 C   0  0  0  0  0  2  0  0  0  0  0  0
  190.2420  172.4620  135.2340 C   0  0  0  0  0  0  0  0  0  0  0  0
  190.9140  175.4060  137.0860 N   0  0  2  0  0  0  0  0  0  0  0  0
  194.4300  173.7500  135.2610 C   0  0  0  0  0  2  0  0  0  0  0  0
  187.5880  174.0320  135.9420 C   0  0  1  0  0  3  0  0  0  0  0  0
  195.9490  175.2560  136.5220 C   0  0  0  0  0  1  0  0  0  0  0  0
  189.4780  176.6350  138.7340 C   0  0  0  0  0  2  0  0  0  0  0  0
  187.1900  179.0890  137.2810 O   0  0  0  0  0  0  0  0  0  0  0  0
  190.8770  176.1190  138.3670 C   0  0  0  0  0  2  0  0  0  0  0  0
  187.9320  172.5730  136.2700 C   0  0  0  0  0  2  0  0  0  0  0  0
  185.5670  173.4380  137.3890 C   0  0  0  0  0  3  0  0  0  0  0  0
  186.2420  174.3870  136.4860 C   0  0  0  0  0  0  0  0  0  0  0  0
  185.6620  175.4970  136.1220 N   0  0  0  0  0  0  0  0  0  0  0  0
  183.8350  177.0690  135.8150 C   0  0  0  0  0  1  0  0  0  0  0  0
  183.1920  174.5150  136.5400 S   0  0  0  0  0  0  0  0  0  0  0  0
  184.3580  175.9090  136.6360 C   0  0  1  0  0  3  0  0  0  0  0  0
  184.2430  173.4590  137.5510 C   0  0  0  0  0  3  0  0  0  0  0  0
  185.9050  178.9560  141.3640 C   0  0  0  0  0  1  0  0  0  0  0  0
  185.9680  178.8830  139.8470 C   0  0  2  0  0  3  0  0  0  0  0  0
  183.5990  179.2560  139.0360 C   0  0  0  0  0  1  0  0  0  0  0  0
  184.7070  178.2420  139.2740 C   0  0  0  0  0  2  0  0  0  0  0  0
  1 22  1  0  0  0  0
  1 15  1  0  0  0  0
  2  7  1  0  0  0  0
  2  5  1  0  0  0  0
  3 17  1  0  0  0  0
  4 20  1  0  0  0  0
  4  7  2  0  0  0  0
  5 19  1  0  0  0  0
  6 10  1  0  0  0  0
  7 11  1  0  0  0  0
  8  3  1  6  0  0  0
  8  5  1  0  0  0  0
  9 14  2  0  0  0  0
  9  4  1  0  0  0  0
 10 35  1  0  0  0  0
 11 15  1  1  0  0  0
 11 19  1  0  0  0  0
 12  1  1  0  0  0  0
 13 18  1  0  0  0  0
 13 26  1  0  0  0  0
 14 18  1  0  0  0  0
 16  6  1  0  0  0  0
 16 23  1  0  0  0  0
 17 16  1  0  0  0  0
 18  2  2  0  0  0  0
 19 25  1  1  0  0  0
 20  1  1  0  0  0  0
 21 26  1  0  0  0  0
 21  8  1  0  0  0  0
 21 28  1  1  0  0  0
 24  6  2  0  0  0  0
 25 23  1  0  0  0  0
 27 33  2  0  0  0  0
 28 27  1  0  0  0  0
 29 28  2  0  0  0  0
 29 32  1  0  0  0  0
 31 32  1  0  0  0  0
 31 33  1  0  0  0  0
 32 30  1  6  0  0  0
 35 34  1  1  0  0  0
 36 37  1  0  0  0  0
 37 35  1  0  0  0  0
M  END
>  <MODEL>
5

>  <REMARK>
 VINA RESULT:      -5.9      6.434      9.089
  Name = 
  3 active torsions:
  status: ('A' for Active; 'I' for Inactive)
    1  A    between atoms: C_4  and  N_12
    2  A    between atoms: C_4  and  C_37
    3  A    between atoms: C_23  and  C_30
                            x       y       z     vdW  Elec       q    Type
                         _______ _______ _______ _____ _____    ______ ____

>  <TORSDO>
F 3

$$$$
=
 OpenBabel11122411363D

 37 42  0  0  1  0  0  0  0  0999 V2000
  180.8720  177.4320  135.8080 C   0  0  0  0  0  0  0  0  0  0  0  0
  184.0100  178.5830  138.5230 C   0  0  0  0  0  0  0  0  0  0  0  0
  186.6850  178.7070  137.0850 C   0  0  0  0  0  2  0  0  0  0  0  0
  181.4640  178.4960  138.0450 C   0  0  0  0  0  0  0  0  0  0  0  0
  184.8990  177.4260  138.3620 N   0  0  0  0  0  0  0  0  0  0  0  0
  188.6870  176.4050  135.8040 C   0  0  0  0  0  0  0  0  0  0  0  0
  182.8540  178.2740  137.6510 C   0  0  0  0  0  0  0  0  0  0  0  0
  186.3020  177.8760  138.3230 C   0  0  2  0  0  3  0  0  0  0  0  0
  181.2180  178.8330  139.3150 C   0  0  0  0  0  3  0  0  0  0  0  0
  189.3510  175.2210  136.2610 N   0  0  0  0  0  2  0  0  0  0  0  0
  183.1910  177.3440  136.7970 C   0  0  2  0  0  3  0  0  0  0  0  0
  181.1320  178.5450  134.8070 C   0  0  0  0  0  1  0  0  0  0  0  0
  184.6760  179.0860  140.9840 C   0  0  0  0  0  2  0  0  0  0  0  0
  182.3240  178.9980  140.2950 C   0  0  0  0  0  3  0  0  0  0  0  0
  182.1550  176.5920  136.0020 C   0  0  0  0  0  2  0  0  0  0  0  0
  187.2740  176.5600  136.0020 N   0  0  0  0  0  0  0  0  0  0  0  0
  186.6750  177.8820  135.7940 C   0  0  0  0  0  2  0  0  0  0  0  0
  183.6140  178.8020  139.9630 C   0  0  0  0  0  0  0  0  0  0  0  0
  184.4850  176.8600  137.1310 N   0  0  2  0  0  0  0  0  0  0  0  0
  180.3560  178.0420  137.1330 C   0  0  0  0  0  2  0  0  0  0  0  0
  186.7510  178.5690  139.6220 C   0  0  1  0  0  3  0  0  0  0  0  0
  179.7920  176.5340  135.2430 C   0  0  0  0  0  1  0  0  0  0  0  0
  186.5360  175.4880  136.6880 C   0  0  0  0  0  2  0  0  0  0  0  0
  189.3510  177.3180  135.2400 O   0  0  0  0  0  0  0  0  0  0  0  0
  185.0090  175.6050  136.5830 C   0  0  0  0  0  2  0  0  0  0  0  0
  185.9080  178.1860  140.8460 C   0  0  0  0  0  2  0  0  0  0  0  0
  189.1630  178.5080  138.7800 C   0  0  0  0  0  3  0  0  0  0  0  0
  188.1950  178.2690  139.8660 C   0  0  0  0  0  0  0  0  0  0  0  0
  188.5730  177.7590  141.0040 N   0  0  0  0  0  0  0  0  0  0  0  0
  190.0500  176.6240  142.5640 C   0  0  0  0  0  1  0  0  0  0  0  0
  190.7270  176.5640  139.9190 S   0  0  0  0  0  0  0  0  0  0  0  0
  189.9720  177.4650  141.3080 C   0  0  1  0  0  3  0  0  0  0  0  0
  190.3370  177.8760  138.7490 C   0  0  0  0  0  3  0  0  0  0  0  0
  191.0720  174.3840  134.7350 C   0  0  0  0  0  1  0  0  0  0  0  0
  190.7810  175.0050  136.0920 C   0  0  2  0  0  3  0  0  0  0  0  0
  192.7970  174.4300  137.5110 C   0  0  0  0  0  1  0  0  0  0  0  0
  191.3320  174.1400  137.2230 C   0  0  0  0  0  2  0  0  0  0  0  0
  1 15  1  0  0  0  0
  1 20  1  0  0  0  0
  2 18  1  0  0  0  0
  4  9  2  0  0  0  0
  5  2  1  0  0  0  0
  6 16  1  0  0  0  0
  6 10  1  0  0  0  0
  7  4  1  0  0  0  0
  7  2  2  0  0  0  0
  8  3  1  6  0  0  0
  8  5  1  0  0  0  0
  8 21  1  0  0  0  0
  9 14  1  0  0  0  0
 11 15  1  1  0  0  0
 11 19  1  0  0  0  0
 11  7  1  0  0  0  0
 12  1  1  0  0  0  0
 16 23  1  0  0  0  0
 17 16  1  0  0  0  0
 17  3  1  0  0  0  0
 18 14  2  0  0  0  0
 18 13  1  0  0  0  0
 19 25  1  1  0  0  0
 19  5  1  0  0  0  0
 20  4  1  0  0  0  0
 21 28  1  1  0  0  0
 21 26  1  0  0  0  0
 22  1  1  0  0  0  0
 24  6  2  0  0  0  0
 25 23  1  0  0  0  0
 26 13  1  0  0  0  0
 27 28  1  0  0  0  0
 28 29  2  0  0  0  0
 29 32  1  0  0  0  0
 31 32  1  0  0  0  0
 32 30  1  1  0  0  0
 33 27  2  0  0  0  0
 33 31  1  0  0  0  0
 35 34  1  6  0  0  0
 35 10  1  0  0  0  0
 35 37  1  0  0  0  0
 37 36  1  0  0  0  0
M  END
>  <MODEL>
6

>  <REMARK>
 VINA RESULT:      -5.8      4.295      8.563
  Name = 
  3 active torsions:
  status: ('A' for Active; 'I' for Inactive)
    1  A    between atoms: C_4  and  N_12
    2  A    between atoms: C_4  and  C_37
    3  A    between atoms: C_23  and  C_30
                            x       y       z     vdW  Elec       q    Type
                         _______ _______ _______ _____ _____    ______ ____

>  <TORSDO>
F 3

$$$$
=
 OpenBabel11122411363D

 37 42  0  0  1  0  0  0  0  0999 V2000
  188.5270  177.7170  147.9830 C   0  0  0  0  0  0  0  0  0  0  0  0
  186.8120  177.9180  144.0370 C   0  0  0  0  0  0  0  0  0  0  0  0
  188.4360  176.2620  142.0730 C   0  0  0  0  0  2  0  0  0  0  0  0
  186.4710  178.2680  146.5820 C   0  0  0  0  0  0  0  0  0  0  0  0
  187.9710  178.4390  143.3010 N   0  0  0  0  0  0  0  0  0  0  0  0
  191.4450  176.6170  140.7430 C   0  0  0  0  0  0  0  0  0  0  0  0
  187.2790  177.8450  145.4410 C   0  0  0  0  0  0  0  0  0  0  0  0
  188.0810  177.7590  141.9980 C   0  0  2  0  0  3  0  0  0  0  0  0
  185.3250  178.9110  146.3370 C   0  0  0  0  0  3  0  0  0  0  0  0
  192.1490  177.6130  139.9920 N   0  0  0  0  0  2  0  0  0  0  0  0
  188.5850  177.8800  145.4650 C   0  0  2  0  0  3  0  0  0  0  0  0
  188.4940  176.2020  148.0760 C   0  0  0  0  0  1  0  0  0  0  0  0
  185.0170  179.0020  142.5020 C   0  0  0  0  0  2  0  0  0  0  0  0
  184.8720  179.1700  144.9440 C   0  0  0  0  0  3  0  0  0  0  0  0
  189.3410  178.1480  146.7410 C   0  0  0  0  0  2  0  0  0  0  0  0
  190.8080  176.9660  141.9810 N   0  0  0  0  0  0  0  0  0  0  0  0
  189.8620  176.0190  142.5770 C   0  0  0  0  0  2  0  0  0  0  0  0
  185.5920  178.7920  143.8720 C   0  0  0  0  0  0  0  0  0  0  0  0
  189.0620  178.1420  144.1530 N   0  0  2  0  0  0  0  0  0  0  0  0
  187.0780  178.2620  147.9590 C   0  0  0  0  0  2  0  0  0  0  0  0
  186.8650  178.0000  141.0860 C   0  0  1  0  0  3  0  0  0  0  0  0
  189.2180  178.2510  149.2190 C   0  0  0  0  0  1  0  0  0  0  0  0
  190.8860  178.3600  142.4450 C   0  0  0  0  0  2  0  0  0  0  0  0
  191.3760  175.4350  140.3070 O   0  0  0  0  0  0  0  0  0  0  0  0
  190.4430  178.5670  143.9010 C   0  0  0  0  0  2  0  0  0  0  0  0
  186.0790  179.2720  141.4320 C   0  0  0  0  0  2  0  0  0  0  0  0
  188.6740  178.5290  139.3600 C   0  0  0  0  0  3  0  0  0  0  0  0
  187.3180  178.0350  139.6620 C   0  0  0  0  0  0  0  0  0  0  0  0
  186.5040  177.6800  138.7080 N   0  0  0  0  0  0  0  0  0  0  0  0
  185.6670  177.5030  136.4330 C   0  0  0  0  0  1  0  0  0  0  0  0
  187.7270  179.2380  136.8850 S   0  0  0  0  0  0  0  0  0  0  0  0
  186.8970  177.6730  137.3000 C   0  0  1  0  0  3  0  0  0  0  0  0
  188.9850  179.0010  138.1520 C   0  0  0  0  0  3  0  0  0  0  0  0
  191.8260  176.7520  137.7240 C   0  0  0  0  0  1  0  0  0  0  0  0
  192.8140  177.3220  138.7290 C   0  0  2  0  0  3  0  0  0  0  0  0
  193.9920  175.2200  137.9520 C   0  0  0  0  0  1  0  0  0  0  0  0
  193.9890  176.3710  138.9460 C   0  0  0  0  0  2  0  0  0  0  0  0
  1 12  1  0  0  0  0
  1 22  1  0  0  0  0
  2  7  1  0  0  0  0
  3 17  1  0  0  0  0
  4 20  1  0  0  0  0
  5  2  1  0  0  0  0
  5 19  1  0  0  0  0
  6 16  1  0  0  0  0
  7 11  1  0  0  0  0
  7  4  2  0  0  0  0
  8  3  1  1  0  0  0
  8  5  1  0  0  0  0
  9  4  1  0  0  0  0
 10  6  1  0  0  0  0
 11 15  1  1  0  0  0
 13 18  1  0  0  0  0
 14  9  2  0  0  0  0
 15  1  1  0  0  0  0
 16 23  1  0  0  0  0
 16 17  1  0  0  0  0
 18  2  2  0  0  0  0
 18 14  1  0  0  0  0
 19 25  1  1  0  0  0
 19 11  1  0  0  0  0
 20  1  1  0  0  0  0
 21 28  1  6  0  0  0
 21 26  1  0  0  0  0
 21  8  1  0  0  0  0
 23 25  1  0  0  0  0
 24  6  2  0  0  0  0
 26 13  1  0  0  0  0
 27 28  1  0  0  0  0
 29 28  2  0  0  0  0
 31 32  1  0  0  0  0
 31 33  1  0  0  0  0
 32 30  1  6  0  0  0
 32 29  1  0  0  0  0
 33 27  2  0  0  0  0
 35 34  1  6  0  0  0
 35 37  1  0  0  0  0
 35 10  1  0  0  0  0
 36 37  1  0  0  0  0
M  END
>  <MODEL>
7

>  <REMARK>
 VINA RESULT:      -5.4      4.309      7.481
  Name = 
  3 active torsions:
  status: ('A' for Active; 'I' for Inactive)
    1  A    between atoms: C_4  and  N_12
    2  A    between atoms: C_4  and  C_37
    3  A    between atoms: C_23  and  C_30
                            x       y       z     vdW  Elec       q    Type
                         _______ _______ _______ _____ _____    ______ ____

>  <TORSDO>
F 3

$$$$
=
 OpenBabel11122411363D

 37 42  0  0  1  0  0  0  0  0999 V2000
  189.5590  176.1410  136.0500 C   0  0  0  0  0  0  0  0  0  0  0  0
  185.9170  173.8610  135.7680 C   0  0  0  0  0  0  0  0  0  0  0  0
  183.5720  175.6630  135.0660 C   0  0  0  0  0  2  0  0  0  0  0  0
  188.5080  173.8360  135.7830 C   0  0  0  0  0  0  0  0  0  0  0  0
  185.1130  174.5730  136.7690 N   0  0  0  0  0  0  0  0  0  0  0  0
  181.9310  178.0090  136.7250 C   0  0  0  0  0  0  0  0  0  0  0  0
  187.2300  174.5440  135.8080 C   0  0  0  0  0  0  0  0  0  0  0  0
  183.7310  174.7290  136.2810 C   0  0  2  0  0  3  0  0  0  0  0  0
  188.4910  172.5050  135.9040 C   0  0  0  0  0  3  0  0  0  0  0  0
  181.2290  178.1180  137.9690 N   0  0  0  0  0  2  0  0  0  0  0  0
  187.0950  175.7100  136.3810 C   0  0  2  0  0  3  0  0  0  0  0  0
  189.4640  176.7360  134.6560 C   0  0  0  0  0  1  0  0  0  0  0  0
  184.7680  171.5540  136.1010 C   0  0  0  0  0  2  0  0  0  0  0  0
  187.2100  171.7620  136.0390 C   0  0  0  0  0  3  0  0  0  0  0  0
  188.2890  176.4950  136.8580 C   0  0  0  0  0  2  0  0  0  0  0  0
  183.2730  177.5000  136.6980 N   0  0  0  0  0  0  0  0  0  0  0  0
  183.8590  177.1280  135.4070 C   0  0  0  0  0  2  0  0  0  0  0  0
  186.0170  172.3840  136.0630 C   0  0  0  0  0  0  0  0  0  0  0  0
  185.7770  175.8170  136.9010 N   0  0  2  0  0  0  0  0  0  0  0  0
  189.7870  174.6140  135.9430 C   0  0  0  0  0  2  0  0  0  0  0  0
  183.0160  173.3850  136.0510 C   0  0  1  0  0  3  0  0  0  0  0  0
  190.7560  176.7540  136.7440 C   0  0  0  0  0  1  0  0  0  0  0  0
  183.8960  177.0870  137.9660 C   0  0  0  0  0  2  0  0  0  0  0  0
  181.3610  178.3490  135.6510 O   0  0  0  0  0  0  0  0  0  0  0  0
  185.4100  176.8480  137.8770 C   0  0  0  0  0  2  0  0  0  0  0  0
  183.6150  172.2240  136.8550 C   0  0  0  0  0  2  0  0  0  0  0  0
  180.5960  173.5600  135.2490 C   0  0  0  0  0  3  0  0  0  0  0  0
  181.5620  173.5430  136.3620 C   0  0  0  0  0  0  0  0  0  0  0  0
  181.1720  173.7120  137.5940 N   0  0  0  0  0  0  0  0  0  0  0  0
  179.6610  174.3200  139.3970 C   0  0  0  0  0  1  0  0  0  0  0  0
  178.9570  175.0540  136.8620 S   0  0  0  0  0  0  0  0  0  0  0  0
  179.7640  173.8500  137.9610 C   0  0  1  0  0  3  0  0  0  0  0  0
  179.3950  174.1220  135.3840 C   0  0  0  0  0  3  0  0  0  0  0  0
  179.8630  180.1430  138.1220 C   0  0  0  0  0  1  0  0  0  0  0  0
  179.8660  178.6240  138.0610 C   0  0  2  0  0  3  0  0  0  0  0  0
  180.0590  177.9110  140.4830 C   0  0  0  0  0  1  0  0  0  0  0  0
  179.1500  178.0240  139.2680 C   0  0  0  0  0  2  0  0  0  0  0  0
  1 22  1  0  0  0  0
  1 15  1  0  0  0  0
  2  7  2  0  0  0  0
  2 18  1  0  0  0  0
  2  5  1  0  0  0  0
  3 17  1  0  0  0  0
  4  7  1  0  0  0  0
  4  9  2  0  0  0  0
  4 20  1  0  0  0  0
  5 19  1  0  0  0  0
  6 10  1  0  0  0  0
  7 11  1  0  0  0  0
  8  3  1  6  0  0  0
  8  5  1  0  0  0  0
  9 14  1  0  0  0  0
 10 35  1  0  0  0  0
 11 15  1  1  0  0  0
 11 19  1  0  0  0  0
 12  1  1  0  0  0  0
 13 26  1  0  0  0  0
 14 18  2  0  0  0  0
 16  6  1  0  0  0  0
 16 23  1  0  0  0  0
 17 16  1  0  0  0  0
 18 13  1  0  0  0  0
 19 25  1  1  0  0  0
 20  1  1  0  0  0  0
 21  8  1  0  0  0  0
 21 28  1  1  0  0  0
 21 26  1  0  0  0  0
 24  6  2  0  0  0  0
 25 23  1  0  0  0  0
 27 33  2  0  0  0  0
 27 28  1  0  0  0  0
 28 29  2  0  0  0  0
 29 32  1  0  0  0  0
 31 32  1  0  0  0  0
 32 30  1  1  0  0  0
 33 31  1  0  0  0  0
 35 34  1  1  0  0  0
 35 37  1  0  0  0  0
 37 36  1  0  0  0  0
M  END
>  <MODEL>
8

>  <REMARK>
 VINA RESULT:      -4.9      4.812      7.167
  Name = 
  3 active torsions:
  status: ('A' for Active; 'I' for Inactive)
    1  A    between atoms: C_4  and  N_12
    2  A    between atoms: C_4  and  C_37
    3  A    between atoms: C_23  and  C_30
                            x       y       z     vdW  Elec       q    Type
                         _______ _______ _______ _____ _____    ______ ____

>  <TORSDO>
F 3

$$$$
=
 OpenBabel11122411363D

 37 42  0  0  1  0  0  0  0  0999 V2000
  179.8260  178.0930  136.5380 C   0  0  0  0  0  0  0  0  0  0  0  0
  182.3740  178.8250  139.9320 C   0  0  0  0  0  0  0  0  0  0  0  0
  185.2280  179.3680  139.0370 C   0  0  0  0  0  2  0  0  0  0  0  0
  179.9560  178.7120  139.0060 C   0  0  0  0  0  0  0  0  0  0  0  0
  183.3710  177.7690  139.7130 N   0  0  0  0  0  0  0  0  0  0  0  0
  187.5960  177.4740  137.7140 C   0  0  0  0  0  0  0  0  0  0  0  0
  181.4050  178.6420  138.8270 C   0  0  0  0  0  0  0  0  0  0  0  0
  184.7190  178.2860  140.0070 C   0  0  2  0  0  3  0  0  0  0  0  0
  179.4790  178.7720  140.2530 C   0  0  0  0  0  3  0  0  0  0  0  0
  188.2720  176.2560  138.0460 N   0  0  0  0  0  2  0  0  0  0  0  0
  181.9530  177.9210  137.8840 C   0  0  2  0  0  3  0  0  0  0  0  0
  180.1530  179.3970  135.8290 C   0  0  0  0  0  1  0  0  0  0  0  0
  182.5860  178.8530  142.5210 C   0  0  0  0  0  2  0  0  0  0  0  0
  180.3940  178.7900  141.4250 C   0  0  0  0  0  3  0  0  0  0  0  0
  181.1260  177.2950  136.7920 C   0  0  0  0  0  2  0  0  0  0  0  0
  186.1620  177.5160  137.6860 N   0  0  0  0  0  0  0  0  0  0  0  0
  185.4970  178.8220  137.6320 C   0  0  0  0  0  2  0  0  0  0  0  0
  181.7320  178.7290  141.2950 C   0  0  0  0  0  0  0  0  0  0  0  0
  183.2100  177.4440  138.3430 N   0  0  2  0  0  0  0  0  0  0  0  0
  179.0530  178.3970  137.8430 C   0  0  0  0  0  2  0  0  0  0  0  0
  184.8910  178.7240  141.4730 C   0  0  1  0  0  3  0  0  0  0  0  0
  178.9310  177.2760  135.6310 C   0  0  0  0  0  1  0  0  0  0  0  0
  185.4140  176.2930  138.0150 C   0  0  0  0  0  2  0  0  0  0  0  0
  188.2650  178.5130  137.4610 O   0  0  0  0  0  0  0  0  0  0  0  0
  183.9190  176.3530  137.6670 C   0  0  0  0  0  2  0  0  0  0  0  0
  183.8950  178.0610  142.4340 C   0  0  0  0  0  2  0  0  0  0  0  0
  187.3830  178.6000  140.9210 C   0  0  0  0  0  3  0  0  0  0  0  0
  186.2960  178.4520  141.9060 C   0  0  0  0  0  0  0  0  0  0  0  0
  186.5390  178.0460  143.1200 N   0  0  0  0  0  0  0  0  0  0  0  0
  187.8210  177.0570  144.9320 C   0  0  0  0  0  1  0  0  0  0  0  0
  188.7960  176.7700  142.3960 S   0  0  0  0  0  0  0  0  0  0  0  0
  187.8920  177.7850  143.6060 C   0  0  1  0  0  3  0  0  0  0  0  0
  188.5490  177.9730  141.0790 C   0  0  0  0  0  3  0  0  0  0  0  0
  190.3500  177.5050  138.3820 C   0  0  0  0  0  1  0  0  0  0  0  0
  189.7240  176.1500  138.0940 C   0  0  2  0  0  3  0  0  0  0  0  0
  191.1500  174.3460  137.0340 C   0  0  0  0  0  1  0  0  0  0  0  0
  190.2630  175.5590  136.7940 C   0  0  0  0  0  2  0  0  0  0  0  0
  1 15  1  0  0  0  0
  1 20  1  0  0  0  0
  2 18  1  0  0  0  0
  4  9  2  0  0  0  0
  5  2  1  0  0  0  0
  5  8  1  0  0  0  0
  6 10  1  0  0  0  0
  7  4  1  0  0  0  0
  7  2  2  0  0  0  0
  8  3  1  6  0  0  0
  8 21  1  0  0  0  0
  9 14  1  0  0  0  0
 10 35  1  0  0  0  0
 11 15  1  1  0  0  0
 11 19  1  0  0  0  0
 11  7  1  0  0  0  0
 12  1  1  0  0  0  0
 16  6  1  0  0  0  0
 16 23  1  0  0  0  0
 17 16  1  0  0  0  0
 17  3  1  0  0  0  0
 18 14  2  0  0  0  0
 18 13  1  0  0  0  0
 19 25  1  1  0  0  0
 19  5  1  0  0  0  0
 20  4  1  0  0  0  0
 21 28  1  1  0  0  0
 21 26  1  0  0  0  0
 22  1  1  0  0  0  0
 24  6  2  0  0  0  0
 25 23  1  0  0  0  0
 26 13  1  0  0  0  0
 27 33  2  0  0  0  0
 27 28  1  0  0  0  0
 28 29  2  0  0  0  0
 29 32  1  0  0  0  0
 31 32  1  0  0  0  0
 32 30  1  1  0  0  0
 33 31  1  0  0  0  0
 35 34  1  6  0  0  0
 37 36  1  0  0  0  0
 37 35  1  0  0  0  0
M  END
>  <MODEL>
9

>  <REMARK>
 VINA RESULT:      -4.5      3.236      7.686
  Name = 
  3 active torsions:
  status: ('A' for Active; 'I' for Inactive)
    1  A    between atoms: C_4  and  N_12
    2  A    between atoms: C_4  and  C_37
    3  A    between atoms: C_23  and  C_30
                            x       y       z     vdW  Elec       q    Type
                         _______ _______ _______ _____ _____    ______ ____

>  <TORSDO>
F 3

$$$$
