=
 OpenBabel11122411173D

 31 35  0  0  1  0  0  0  0  0999 V2000
  190.3880  173.4790  135.7750 C   0  0  0  0  0  0  0  0  0  0  0  0
  188.8430  176.8850  136.4980 C   0  0  2  0  0  3  0  0  0  0  0  0
  187.4180  176.6020  136.9470 C   0  0  0  0  0  0  0  0  0  0  0  0
  185.4960  175.1260  137.1490 C   0  0  0  0  0  0  0  0  0  0  0  0
  189.7710  175.6870  136.5810 C   0  0  0  0  0  0  0  0  0  0  0  0
  191.4070  173.4090  136.7260 C   0  0  0  0  0  3  0  0  0  0  0  0
  186.8370  175.3320  136.8170 C   0  0  0  0  0  3  0  0  0  0  0  0
  190.0230  177.7690  138.5810 C   0  0  1  0  0  3  0  0  0  0  0  0
  190.1820  172.4430  134.9270 F   0  0  0  0  0  0  0  0  0  0  0  0
  187.1590  179.0030  137.4520 N   0  0  0  0  0  0  0  0  0  0  0  0
  184.7940  173.5300  136.9980 Cl  0  0  0  0  0  0  0  0  0  0  0  0
  191.1800  176.7910  138.3980 C   0  0  0  0  0  2  0  0  0  0  0  0
  189.4320  178.1230  137.2130 C   0  0  2  0  0  3  0  0  0  0  0  0
  189.5780  174.6130  135.7010 C   0  0  0  0  0  3  0  0  0  0  0  0
  184.7150  176.1940  137.5930 C   0  0  0  0  0  3  0  0  0  0  0  0
  190.8160  175.6180  137.5340 C   0  0  0  0  0  0  0  0  0  0  0  0
  191.6270  174.4810  137.5940 C   0  0  0  0  0  3  0  0  0  0  0  0
  188.4320  179.2390  137.3410 C   0  0  0  0  0  3  0  0  0  0  0  0
  186.6150  177.6800  137.3770 C   0  0  0  0  0  0  0  0  0  0  0  0
  185.2720  177.4690  137.7010 C   0  0  0  0  0  3  0  0  0  0  0  0
  189.0390  177.1960  139.4350 O   0  0  0  0  0  0  0  0  0  0  0  0
  188.3610  178.4460  141.2550 O   0  0  0  0  0  0  0  0  0  0  0  0
  189.0010  177.4560  140.8080 C   0  0  0  0  0  0  0  0  0  0  0  0
  189.5410  177.7720  144.4280 C   0  0  0  0  0  0  0  0  0  0  0  0
  188.8530  176.0020  142.8260 C   0  0  0  0  0  2  0  0  0  0  0  0
  191.9900  177.5040  141.7630 O   0  0  0  0  0  0  0  0  0  0  0  0
  189.4360  178.2790  145.5740 O   0  0  0  0  0  0  0  0  0  0  0  0
  188.3730  177.0610  143.8190 C   0  0  0  0  0  2  0  0  0  0  0  0
  190.9110  177.3490  142.3910 C   0  0  0  0  0  0  0  0  0  0  0  0
  189.7770  176.5950  141.7560 C   0  0  2  0  0  3  0  0  0  0  0  0
  190.7590  177.9230  143.6930 N   0  0  0  0  0  2  0  0  0  0  0  0
  1  6  1  0  0  0  0
  2  5  1  1  0  0  0
  2  3  1  0  0  0  0
  2 13  1  0  0  0  0
  3 19  1  0  0  0  0
  4 15  2  0  0  0  0
  5 16  2  0  0  0  0
  6 17  2  0  0  0  0
  7  3  2  0  0  0  0
  7  4  1  0  0  0  0
  8 21  1  1  0  0  0
  9  1  1  0  0  0  0
 11  4  1  0  0  0  0
 12  8  1  0  0  0  0
 13 18  1  1  0  0  0
 13  8  1  0  0  0  0
 14  1  2  0  0  0  0
 14  5  1  0  0  0  0
 15 20  1  0  0  0  0
 16 17  1  0  0  0  0
 16 12  1  0  0  0  0
 18 10  2  0  0  0  0
 19 10  1  0  0  0  0
 19 20  2  0  0  0  0
 21 23  1  0  0  0  0
 23 22  2  0  0  0  0
 24 27  2  0  0  0  0
 25 28  1  0  0  0  0
 26 29  2  0  0  0  0
 28 24  1  0  0  0  0
 29 31  1  0  0  0  0
 30 23  1  6  0  0  0
 30 29  1  0  0  0  0
 30 25  1  0  0  0  0
 31 24  1  0  0  0  0
M  END
>  <MODEL>
1

>  <REMARK>
 VINA RESULT:      -7.4      0.000      0.000
  Name = 
  3 active torsions:
  status: ('A' for Active; 'I' for Inactive)
    1  A    between atoms: C_5  and  O_16
    2  A    between atoms: C_5  and  C_30
    3  A    between atoms: C_10  and  O_16
                            x       y       z     vdW  Elec       q    Type
                         _______ _______ _______ _____ _____    ______ ____

>  <TORSDO>
F 3

$$$$
=
 OpenBabel11122411173D

 31 35  0  0  1  0  0  0  0  0999 V2000
  190.2890  173.4200  135.5700 C   0  0  0  0  0  0  0  0  0  0  0  0
  188.7900  176.8440  136.3040 C   0  0  2  0  0  3  0  0  0  0  0  0
  187.3740  176.5770  136.7910 C   0  0  0  0  0  0  0  0  0  0  0  0
  185.4460  175.1170  137.0510 C   0  0  0  0  0  0  0  0  0  0  0  0
  189.7100  175.6390  136.3740 C   0  0  0  0  0  0  0  0  0  0  0  0
  191.3310  173.3500  136.4960 C   0  0  0  0  0  3  0  0  0  0  0  0
  186.7800  175.3100  136.6840 C   0  0  0  0  0  3  0  0  0  0  0  0
  190.0270  177.7350  138.3510 C   0  0  1  0  0  3  0  0  0  0  0  0
  190.0540  172.3800  134.7350 F   0  0  0  0  0  0  0  0  0  0  0  0
  187.1460  178.9830  137.2830 N   0  0  0  0  0  0  0  0  0  0  0  0
  184.7280  173.5270  136.9290 Cl  0  0  0  0  0  0  0  0  0  0  0  0
  191.1710  176.7460  138.1480 C   0  0  0  0  0  2  0  0  0  0  0  0
  189.4060  178.0830  136.9950 C   0  0  2  0  0  3  0  0  0  0  0  0
  189.4870  174.5610  135.5070 C   0  0  0  0  0  3  0  0  0  0  0  0
  184.6840  176.1950  137.5050 C   0  0  0  0  0  3  0  0  0  0  0  0
  190.7770  175.5690  137.3020 C   0  0  0  0  0  0  0  0  0  0  0  0
  191.5800  174.4260  137.3510 C   0  0  0  0  0  3  0  0  0  0  0  0
  188.4180  179.2080  137.1390 C   0  0  0  0  0  3  0  0  0  0  0  0
  186.5900  177.6640  137.2310 C   0  0  0  0  0  0  0  0  0  0  0  0
  185.2530  177.4670  137.5900 C   0  0  0  0  0  3  0  0  0  0  0  0
  189.0600  177.1760  139.2330 O   0  0  0  0  0  0  0  0  0  0  0  0
  189.6980  176.1840  141.2180 O   0  0  0  0  0  0  0  0  0  0  0  0
  189.2220  177.1870  140.6210 C   0  0  0  0  0  0  0  0  0  0  0  0
  187.3270  177.3630  143.7630 C   0  0  0  0  0  0  0  0  0  0  0  0
  189.4010  178.3500  142.8170 C   0  0  0  0  0  2  0  0  0  0  0  0
  186.6020  178.9160  140.5650 O   0  0  0  0  0  0  0  0  0  0  0  0
  186.7110  176.9270  144.7690 O   0  0  0  0  0  0  0  0  0  0  0  0
  188.8170  177.2430  143.6950 C   0  0  0  0  0  2  0  0  0  0  0  0
  187.2700  178.4350  141.5160 C   0  0  0  0  0  0  0  0  0  0  0  0
  188.7690  178.3690  141.4210 C   0  0  2  0  0  3  0  0  0  0  0  0
  186.5960  177.9230  142.6690 N   0  0  0  0  0  2  0  0  0  0  0  0
  1  6  1  0  0  0  0
  2  5  1  1  0  0  0
  2  3  1  0  0  0  0
  2 13  1  0  0  0  0
  3 19  1  0  0  0  0
  4 15  2  0  0  0  0
  5 16  2  0  0  0  0
  6 17  2  0  0  0  0
  7  3  2  0  0  0  0
  7  4  1  0  0  0  0
  8 21  1  1  0  0  0
  9  1  1  0  0  0  0
 11  4  1  0  0  0  0
 12  8  1  0  0  0  0
 13 18  1  1  0  0  0
 13  8  1  0  0  0  0
 14  1  2  0  0  0  0
 14  5  1  0  0  0  0
 15 20  1  0  0  0  0
 16 17  1  0  0  0  0
 16 12  1  0  0  0  0
 18 10  2  0  0  0  0
 19 10  1  0  0  0  0
 19 20  2  0  0  0  0
 21 23  1  0  0  0  0
 23 22  2  0  0  0  0
 24 27  2  0  0  0  0
 25 28  1  0  0  0  0
 26 29  2  0  0  0  0
 28 24  1  0  0  0  0
 29 31  1  0  0  0  0
 30 23  1  1  0  0  0
 30 29  1  0  0  0  0
 30 25  1  0  0  0  0
 31 24  1  0  0  0  0
M  END
>  <MODEL>
2

>  <REMARK>
 VINA RESULT:      -7.1      1.265      1.793
  Name = 
  3 active torsions:
  status: ('A' for Active; 'I' for Inactive)
    1  A    between atoms: C_5  and  O_16
    2  A    between atoms: C_5  and  C_30
    3  A    between atoms: C_10  and  O_16
                            x       y       z     vdW  Elec       q    Type
                         _______ _______ _______ _____ _____    ______ ____

>  <TORSDO>
F 3

$$$$
=
 OpenBabel11122411173D

 31 35  0  0  1  0  0  0  0  0999 V2000
  185.6100  178.6120  141.6410 C   0  0  0  0  0  0  0  0  0  0  0  0
  182.8710  179.6150  139.1910 C   0  0  2  0  0  3  0  0  0  0  0  0
  182.9140  178.5780  138.0790 C   0  0  0  0  0  0  0  0  0  0  0  0
  184.0290  176.7810  136.8780 C   0  0  0  0  0  0  0  0  0  0  0  0
  183.5560  179.1810  140.4740 C   0  0  0  0  0  0  0  0  0  0  0  0
  184.8810  178.3160  142.7930 C   0  0  0  0  0  3  0  0  0  0  0  0
  183.9670  177.6580  137.9640 C   0  0  0  0  0  3  0  0  0  0  0  0
  180.6590  179.1940  140.3920 C   0  0  1  0  0  3  0  0  0  0  0  0
  186.9580  178.4740  141.6380 F   0  0  0  0  0  0  0  0  0  0  0  0
  180.8950  179.6120  137.1110 N   0  0  0  0  0  0  0  0  0  0  0  0
  185.3390  175.6280  136.7610 Cl  0  0  0  0  0  0  0  0  0  0  0  0
  181.3480  179.1670  141.7530 C   0  0  0  0  0  2  0  0  0  0  0  0
  181.4310  180.1190  139.4460 C   0  0  2  0  0  3  0  0  0  0  0  0
  184.9510  179.0460  140.4900 C   0  0  0  0  0  3  0  0  0  0  0  0
  183.0510  176.8310  135.8830 C   0  0  0  0  0  3  0  0  0  0  0  0
  182.8220  178.8930  141.6500 C   0  0  0  0  0  0  0  0  0  0  0  0
  183.4930  178.4670  142.8000 C   0  0  0  0  0  3  0  0  0  0  0  0
  180.6640  180.3300  138.1690 C   0  0  0  0  0  3  0  0  0  0  0  0
  181.9420  178.6360  137.0590 C   0  0  0  0  0  0  0  0  0  0  0  0
  182.0130  177.7610  135.9700 C   0  0  0  0  0  3  0  0  0  0  0  0
  180.5750  177.8740  139.8680 O   0  0  0  0  0  0  0  0  0  0  0  0
  178.9310  177.0580  141.2690 O   0  0  0  0  0  0  0  0  0  0  0  0
  179.9500  176.8340  140.5620 C   0  0  0  0  0  0  0  0  0  0  0  0
  179.4130  174.0790  138.1920 C   0  0  0  0  0  0  0  0  0  0  0  0
  181.3400  175.2420  139.2440 C   0  0  0  0  0  2  0  0  0  0  0  0
  179.0150  174.1050  141.7990 O   0  0  0  0  0  0  0  0  0  0  0  0
  178.9340  173.4940  137.1870 O   0  0  0  0  0  0  0  0  0  0  0  0
  180.4440  175.1470  138.0080 C   0  0  0  0  0  2  0  0  0  0  0  0
  179.4630  174.4010  140.6620 C   0  0  0  0  0  0  0  0  0  0  0  0
  180.5270  175.4530  140.5260 C   0  0  2  0  0  3  0  0  0  0  0  0
  178.9310  173.7580  139.5000 N   0  0  0  0  0  2  0  0  0  0  0  0
  1  6  1  0  0  0  0
  2  3  1  6  0  0  0
  2 13  1  0  0  0  0
  2  5  1  0  0  0  0
  4  7  2  0  0  0  0
  5 14  1  0  0  0  0
  5 16  2  0  0  0  0
  6 17  2  0  0  0  0
  7  3  1  0  0  0  0
  8 21  1  6  0  0  0
  8 12  1  0  0  0  0
  9  1  1  0  0  0  0
 10 18  2  0  0  0  0
 11  4  1  0  0  0  0
 13 18  1  6  0  0  0
 13  8  1  0  0  0  0
 14  1  2  0  0  0  0
 15 20  2  0  0  0  0
 15  4  1  0  0  0  0
 16 12  1  0  0  0  0
 16 17  1  0  0  0  0
 19 10  1  0  0  0  0
 19  3  2  0  0  0  0
 20 19  1  0  0  0  0
 21 23  1  0  0  0  0
 23 22  2  0  0  0  0
 24 31  1  0  0  0  0
 25 30  1  0  0  0  0
 27 24  2  0  0  0  0
 28 24  1  0  0  0  0
 28 25  1  0  0  0  0
 29 26  2  0  0  0  0
 30 23  1  6  0  0  0
 30 29  1  0  0  0  0
 31 29  1  0  0  0  0
M  END
>  <MODEL>
3

>  <REMARK>
 VINA RESULT:      -6.7      6.404      8.970
  Name = 
  3 active torsions:
  status: ('A' for Active; 'I' for Inactive)
    1  A    between atoms: C_5  and  O_16
    2  A    between atoms: C_5  and  C_30
    3  A    between atoms: C_10  and  O_16
                            x       y       z     vdW  Elec       q    Type
                         _______ _______ _______ _____ _____    ______ ____

>  <TORSDO>
F 3

$$$$
=
 OpenBabel11122411173D

 31 35  0  0  1  0  0  0  0  0999 V2000
  183.1160  175.0180  136.9900 C   0  0  0  0  0  0  0  0  0  0  0  0
  181.9850  178.4450  138.2090 C   0  0  2  0  0  3  0  0  0  0  0  0
  181.1150  178.1810  139.4290 C   0  0  0  0  0  0  0  0  0  0  0  0
  179.8040  176.6900  140.8330 C   0  0  0  0  0  0  0  0  0  0  0  0
  182.8900  177.2880  137.8270 C   0  0  0  0  0  0  0  0  0  0  0  0
  184.4990  175.0830  137.1660 C   0  0  0  0  0  3  0  0  0  0  0  0
  180.6800  176.8900  139.7640 C   0  0  0  0  0  3  0  0  0  0  0  0
  184.0710  179.5920  139.1300 C   0  0  1  0  0  3  0  0  0  0  0  0
  182.5470  173.8860  136.5080 F   0  0  0  0  0  0  0  0  0  0  0  0
  180.9890  180.6160  139.7980 N   0  0  0  0  0  0  0  0  0  0  0  0
  179.2870  175.0710  141.2480 Cl  0  0  0  0  0  0  0  0  0  0  0  0
  184.9880  178.6290  138.3820 C   0  0  0  0  0  2  0  0  0  0  0  0
  182.7680  179.7720  138.3440 C   0  0  2  0  0  3  0  0  0  0  0  0
  182.3170  176.1160  137.3150 C   0  0  0  0  0  3  0  0  0  0  0  0
  179.3350  177.7820  141.5650 C   0  0  0  0  0  3  0  0  0  0  0  0
  184.2950  177.3550  137.9910 C   0  0  0  0  0  0  0  0  0  0  0  0
  185.0860  176.2520  137.6540 C   0  0  0  0  0  3  0  0  0  0  0  0
  181.9350  180.8700  138.9440 C   0  0  0  0  0  3  0  0  0  0  0  0
  180.6200  179.2800  140.1600 C   0  0  0  0  0  0  0  0  0  0  0  0
  179.7370  179.0750  141.2250 C   0  0  0  0  0  3  0  0  0  0  0  0
  183.8190  179.0970  140.4400 O   0  0  0  0  0  0  0  0  0  0  0  0
  185.8290  179.7530  141.3670 O   0  0  0  0  0  0  0  0  0  0  0  0
  184.8250  178.9920  141.4040 C   0  0  0  0  0  0  0  0  0  0  0  0
  185.1410  179.2100  145.0580 C   0  0  0  0  0  0  0  0  0  0  0  0
  183.5830  178.1940  143.4110 C   0  0  0  0  0  2  0  0  0  0  0  0
  186.9970  177.1470  142.7200 O   0  0  0  0  0  0  0  0  0  0  0  0
  185.3060  179.7660  146.1740 O   0  0  0  0  0  0  0  0  0  0  0  0
  183.8510  179.3930  144.3210 C   0  0  0  0  0  2  0  0  0  0  0  0
  186.0420  177.8020  143.2120 C   0  0  0  0  0  0  0  0  0  0  0  0
  184.7500  177.9280  142.4540 C   0  0  2  0  0  3  0  0  0  0  0  0
  186.2050  178.4520  144.4760 N   0  0  0  0  0  2  0  0  0  0  0  0
  1  6  2  0  0  0  0
  1 14  1  0  0  0  0
  2  5  1  1  0  0  0
  2 13  1  0  0  0  0
  2  3  1  0  0  0  0
  3  7  2  0  0  0  0
  3 19  1  0  0  0  0
  4 11  1  0  0  0  0
  4 15  2  0  0  0  0
  5 16  1  0  0  0  0
  6 17  1  0  0  0  0
  7  4  1  0  0  0  0
  8 21  1  1  0  0  0
  9  1  1  0  0  0  0
 10 19  1  0  0  0  0
 12  8  1  0  0  0  0
 13 18  1  1  0  0  0
 13  8  1  0  0  0  0
 14  5  2  0  0  0  0
 16 12  1  0  0  0  0
 17 16  2  0  0  0  0
 18 10  2  0  0  0  0
 19 20  2  0  0  0  0
 20 15  1  0  0  0  0
 21 23  1  0  0  0  0
 22 23  2  0  0  0  0
 24 27  2  0  0  0  0
 25 28  1  0  0  0  0
 26 29  2  0  0  0  0
 28 24  1  0  0  0  0
 29 31  1  0  0  0  0
 30 23  1  6  0  0  0
 30 29  1  0  0  0  0
 30 25  1  0  0  0  0
 31 24  1  0  0  0  0
M  END
>  <MODEL>
4

>  <REMARK>
 VINA RESULT:      -6.7      4.687      6.330
  Name = 
  3 active torsions:
  status: ('A' for Active; 'I' for Inactive)
    1  A    between atoms: C_5  and  O_16
    2  A    between atoms: C_5  and  C_30
    3  A    between atoms: C_10  and  O_16
                            x       y       z     vdW  Elec       q    Type
                         _______ _______ _______ _____ _____    ______ ____

>  <TORSDO>
F 3

$$$$
=
 OpenBabel11122411173D

 31 35  0  0  1  0  0  0  0  0999 V2000
  183.3920  178.3260  140.4730 C   0  0  0  0  0  0  0  0  0  0  0  0
  186.6950  178.7160  138.6170 C   0  0  2  0  0  3  0  0  0  0  0  0
  187.7670  178.2220  139.5760 C   0  0  0  0  0  0  0  0  0  0  0  0
  188.5130  177.6000  141.8060 C   0  0  0  0  0  0  0  0  0  0  0  0
  185.2910  178.2530  138.9590 C   0  0  0  0  0  0  0  0  0  0  0  0
  182.7220  177.3870  139.6880 C   0  0  0  0  0  3  0  0  0  0  0  0
  187.4890  177.9600  140.9270 C   0  0  0  0  0  3  0  0  0  0  0  0
  186.6570  176.9930  136.7340 C   0  0  1  0  0  3  0  0  0  0  0  0
  182.8060  178.8150  141.5920 F   0  0  0  0  0  0  0  0  0  0  0  0
  189.4280  178.4890  137.7730 N   0  0  0  0  0  0  0  0  0  0  0  0
  188.1450  177.2580  143.4820 Cl  0  0  0  0  0  0  0  0  0  0  0  0
  185.1420  176.8480  136.8350 C   0  0  0  0  0  2  0  0  0  0  0  0
  187.0630  178.4120  137.1460 C   0  0  2  0  0  3  0  0  0  0  0  0
  184.6670  178.7600  140.1070 C   0  0  0  0  0  3  0  0  0  0  0  0
  189.8290  177.5190  141.3490 C   0  0  0  0  0  3  0  0  0  0  0  0
  184.6010  177.3110  138.1580 C   0  0  0  0  0  0  0  0  0  0  0  0
  183.3210  176.8900  138.5290 C   0  0  0  0  0  3  0  0  0  0  0  0
  188.5190  178.6500  136.8590 C   0  0  0  0  0  3  0  0  0  0  0  0
  189.1020  178.1580  139.1290 C   0  0  0  0  0  0  0  0  0  0  0  0
  190.1240  177.8040  140.0150 C   0  0  0  0  0  3  0  0  0  0  0  0
  187.2900  176.0180  137.5550 O   0  0  0  0  0  0  0  0  0  0  0  0
  187.7200  173.8130  137.0220 O   0  0  0  0  0  0  0  0  0  0  0  0
  188.1040  175.0130  137.0260 C   0  0  0  0  0  0  0  0  0  0  0  0
  190.5910  172.9230  135.3110 C   0  0  0  0  0  0  0  0  0  0  0  0
  189.5460  175.1550  134.9990 C   0  0  0  0  0  2  0  0  0  0  0  0
  190.9510  174.8850  138.3420 O   0  0  0  0  0  0  0  0  0  0  0  0
  191.0670  171.8810  134.7910 O   0  0  0  0  0  0  0  0  0  0  0  0
  189.5080  173.6770  134.6050 C   0  0  0  0  0  2  0  0  0  0  0  0
  190.5350  174.5360  137.2080 C   0  0  0  0  0  0  0  0  0  0  0  0
  189.4730  175.3450  136.5180 C   0  0  2  0  0  3  0  0  0  0  0  0
  191.0510  173.3510  136.5960 N   0  0  0  0  0  2  0  0  0  0  0  0
  1  9  1  0  0  0  0
  2  5  1  1  0  0  0
  2  3  1  0  0  0  0
  3  7  1  0  0  0  0
  4 11  1  0  0  0  0
  5 14  2  0  0  0  0
  6  1  2  0  0  0  0
  7  4  2  0  0  0  0
  8 12  1  0  0  0  0
  8 13  1  0  0  0  0
  8 21  1  1  0  0  0
 10 19  1  0  0  0  0
 12 16  1  0  0  0  0
 13 18  1  1  0  0  0
 13  2  1  0  0  0  0
 14  1  1  0  0  0  0
 15  4  1  0  0  0  0
 16 17  2  0  0  0  0
 16  5  1  0  0  0  0
 17  6  1  0  0  0  0
 18 10  2  0  0  0  0
 19  3  2  0  0  0  0
 19 20  1  0  0  0  0
 20 15  2  0  0  0  0
 22 23  2  0  0  0  0
 23 21  1  0  0  0  0
 24 31  1  0  0  0  0
 25 30  1  0  0  0  0
 27 24  2  0  0  0  0
 28 25  1  0  0  0  0
 28 24  1  0  0  0  0
 29 26  2  0  0  0  0
 30 23  1  1  0  0  0
 30 29  1  0  0  0  0
 31 29  1  0  0  0  0
M  END
>  <MODEL>
5

>  <REMARK>
 VINA RESULT:      -6.4      3.642      6.940
  Name = 
  3 active torsions:
  status: ('A' for Active; 'I' for Inactive)
    1  A    between atoms: C_5  and  O_16
    2  A    between atoms: C_5  and  C_30
    3  A    between atoms: C_10  and  O_16
                            x       y       z     vdW  Elec       q    Type
                         _______ _______ _______ _____ _____    ______ ____

>  <TORSDO>
F 3

$$$$
=
 OpenBabel11122411173D

 31 35  0  0  1  0  0  0  0  0999 V2000
  183.9140  178.4570  139.7630 C   0  0  0  0  0  0  0  0  0  0  0  0
  186.6850  178.1260  137.1700 C   0  0  2  0  0  3  0  0  0  0  0  0
  187.9360  177.7570  137.9510 C   0  0  0  0  0  0  0  0  0  0  0  0
  189.1740  177.5700  140.0360 C   0  0  0  0  0  0  0  0  0  0  0  0
  185.3880  177.8800  137.9200 C   0  0  0  0  0  0  0  0  0  0  0  0
  183.0390  177.4340  139.3920 C   0  0  0  0  0  3  0  0  0  0  0  0
  187.9830  177.8230  139.3520 C   0  0  0  0  0  3  0  0  0  0  0  0
  186.1290  176.0450  135.8020 C   0  0  1  0  0  3  0  0  0  0  0  0
  183.6340  179.2300  140.8400 F   0  0  0  0  0  0  0  0  0  0  0  0
  189.1230  177.4700  135.8080 N   0  0  0  0  0  0  0  0  0  0  0  0
  189.2090  177.6390  141.7840 Cl  0  0  0  0  0  0  0  0  0  0  0  0
  184.6780  176.0650  136.2740 C   0  0  0  0  0  2  0  0  0  0  0  0
  186.6750  177.4760  135.7670 C   0  0  2  0  0  3  0  0  0  0  0  0
  185.0790  178.6810  139.0270 C   0  0  0  0  0  3  0  0  0  0  0  0
  190.3380  177.2720  139.3260 C   0  0  0  0  0  3  0  0  0  0  0  0
  184.4910  176.8530  137.5390 C   0  0  0  0  0  0  0  0  0  0  0  0
  183.3220  176.6430  138.2770 C   0  0  0  0  0  3  0  0  0  0  0  0
  188.0270  177.5100  135.1110 C   0  0  0  0  0  3  0  0  0  0  0  0
  189.1210  177.4740  137.2410 C   0  0  0  0  0  0  0  0  0  0  0  0
  190.3130  177.2300  137.9310 C   0  0  0  0  0  3  0  0  0  0  0  0
  186.9040  175.2180  136.6630 O   0  0  0  0  0  0  0  0  0  0  0  0
  188.2150  174.0070  135.1980 O   0  0  0  0  0  0  0  0  0  0  0  0
  187.4860  174.0250  136.2270 C   0  0  0  0  0  0  0  0  0  0  0  0
  185.3040  171.2180  135.3020 C   0  0  0  0  0  0  0  0  0  0  0  0
  187.6360  171.5420  136.0950 C   0  0  0  0  0  2  0  0  0  0  0  0
  185.3060  173.2110  138.3340 O   0  0  0  0  0  0  0  0  0  0  0  0
  184.4940  170.5660  134.5940 O   0  0  0  0  0  0  0  0  0  0  0  0
  186.7340  171.3360  134.8770 C   0  0  0  0  0  2  0  0  0  0  0  0
  185.7410  172.6280  137.3080 C   0  0  0  0  0  0  0  0  0  0  0  0
  187.1930  172.7420  136.9400 C   0  0  2  0  0  3  0  0  0  0  0  0
  184.8410  171.8860  136.4790 N   0  0  0  0  0  2  0  0  0  0  0  0
  1  9  1  0  0  0  0
  2  5  1  1  0  0  0
  2  3  1  0  0  0  0
  3  7  1  0  0  0  0
  4 11  1  0  0  0  0
  5 14  1  0  0  0  0
  6  1  1  0  0  0  0
  7  4  2  0  0  0  0
  8 12  1  0  0  0  0
  8 21  1  1  0  0  0
 10 19  1  0  0  0  0
 12 16  1  0  0  0  0
 13 18  1  1  0  0  0
 13  8  1  0  0  0  0
 13  2  1  0  0  0  0
 14  1  2  0  0  0  0
 15  4  1  0  0  0  0
 16  5  2  0  0  0  0
 16 17  1  0  0  0  0
 17  6  2  0  0  0  0
 18 10  2  0  0  0  0
 19 20  1  0  0  0  0
 19  3  2  0  0  0  0
 20 15  2  0  0  0  0
 22 23  2  0  0  0  0
 23 21  1  0  0  0  0
 24 31  1  0  0  0  0
 25 30  1  0  0  0  0
 27 24  2  0  0  0  0
 28 24  1  0  0  0  0
 28 25  1  0  0  0  0
 29 26  2  0  0  0  0
 30 23  1  6  0  0  0
 30 29  1  0  0  0  0
 31 29  1  0  0  0  0
M  END
>  <MODEL>
6

>  <REMARK>
 VINA RESULT:      -6.4      4.319      7.457
  Name = 
  3 active torsions:
  status: ('A' for Active; 'I' for Inactive)
    1  A    between atoms: C_5  and  O_16
    2  A    between atoms: C_5  and  C_30
    3  A    between atoms: C_10  and  O_16
                            x       y       z     vdW  Elec       q    Type
                         _______ _______ _______ _____ _____    ______ ____

>  <TORSDO>
F 3

$$$$
=
 OpenBabel11122411173D

 31 35  0  0  1  0  0  0  0  0999 V2000
  185.1740  179.0210  141.3410 C   0  0  0  0  0  0  0  0  0  0  0  0
  184.6580  178.1940  137.6590 C   0  0  2  0  0  3  0  0  0  0  0  0
  185.9270  177.4830  137.2150 C   0  0  0  0  0  0  0  0  0  0  0  0
  188.2570  176.8700  137.5460 C   0  0  0  0  0  0  0  0  0  0  0  0
  184.4530  178.2230  139.1620 C   0  0  0  0  0  0  0  0  0  0  0  0
  184.1740  178.2670  141.9560 C   0  0  0  0  0  3  0  0  0  0  0  0
  187.0760  177.4470  138.0190 C   0  0  0  0  0  3  0  0  0  0  0  0
  182.8430  176.4010  137.5840 C   0  0  1  0  0  3  0  0  0  0  0  0
  186.0170  179.7690  142.0930 F   0  0  0  0  0  0  0  0  0  0  0  0
  184.8590  177.0540  135.0340 N   0  0  0  0  0  0  0  0  0  0  0  0
  189.6740  176.8170  138.5700 Cl  0  0  0  0  0  0  0  0  0  0  0  0
  182.3820  176.7420  138.9980 C   0  0  0  0  0  2  0  0  0  0  0  0
  183.4130  177.6560  136.9160 C   0  0  2  0  0  3  0  0  0  0  0  0
  185.3090  179.0020  139.9520 C   0  0  0  0  0  3  0  0  0  0  0  0
  188.3080  176.3440  136.2540 C   0  0  0  0  0  3  0  0  0  0  0  0
  183.4310  177.4700  139.7900 C   0  0  0  0  0  0  0  0  0  0  0  0
  183.2990  177.5040  141.1810 C   0  0  0  0  0  3  0  0  0  0  0  0
  183.6820  177.4030  135.4580 C   0  0  0  0  0  3  0  0  0  0  0  0
  185.9940  176.9680  135.9040 C   0  0  0  0  0  0  0  0  0  0  0  0
  187.1800  176.3980  135.4330 C   0  0  0  0  0  3  0  0  0  0  0  0
  183.8110  175.3580  137.6320 O   0  0  0  0  0  0  0  0  0  0  0  0
  182.8520  174.0260  136.0080 O   0  0  0  0  0  0  0  0  0  0  0  0
  183.6050  174.1220  137.0140 C   0  0  0  0  0  0  0  0  0  0  0  0
  185.8860  171.6740  135.4960 C   0  0  0  0  0  0  0  0  0  0  0  0
  185.7550  173.0030  137.5920 C   0  0  0  0  0  2  0  0  0  0  0  0
  182.6800  171.1230  137.1030 O   0  0  0  0  0  0  0  0  0  0  0  0
  186.6000  171.1590  134.5980 O   0  0  0  0  0  0  0  0  0  0  0  0
  186.3420  172.9250  136.1820 C   0  0  0  0  0  2  0  0  0  0  0  0
  183.7910  171.6510  136.8440 C   0  0  0  0  0  0  0  0  0  0  0  0
  184.2270  172.8850  137.5840 C   0  0  2  0  0  3  0  0  0  0  0  0
  184.6210  171.0920  135.8200 N   0  0  0  0  0  2  0  0  0  0  0  0
  1  6  1  0  0  0  0
  1  9  1  0  0  0  0
  2  3  1  1  0  0  0
  2  5  1  0  0  0  0
  3  7  1  0  0  0  0
  4  7  2  0  0  0  0
  4 11  1  0  0  0  0
  5 16  2  0  0  0  0
  5 14  1  0  0  0  0
  8 21  1  1  0  0  0
  8 12  1  0  0  0  0
 10 18  2  0  0  0  0
 10 19  1  0  0  0  0
 12 16  1  0  0  0  0
 13 18  1  6  0  0  0
 13  8  1  0  0  0  0
 13  2  1  0  0  0  0
 14  1  2  0  0  0  0
 15  4  1  0  0  0  0
 16 17  1  0  0  0  0
 17  6  2  0  0  0  0
 19  3  2  0  0  0  0
 20 19  1  0  0  0  0
 20 15  2  0  0  0  0
 22 23  2  0  0  0  0
 23 21  1  0  0  0  0
 24 31  1  0  0  0  0
 24 28  1  0  0  0  0
 27 24  2  0  0  0  0
 28 25  1  0  0  0  0
 29 26  2  0  0  0  0
 29 30  1  0  0  0  0
 30 23  1  6  0  0  0
 30 25  1  0  0  0  0
 31 29  1  0  0  0  0
M  END
>  <MODEL>
7

>  <REMARK>
 VINA RESULT:      -6.4      5.054      7.945
  Name = 
  3 active torsions:
  status: ('A' for Active; 'I' for Inactive)
    1  A    between atoms: C_5  and  O_16
    2  A    between atoms: C_5  and  C_30
    3  A    between atoms: C_10  and  O_16
                            x       y       z     vdW  Elec       q    Type
                         _______ _______ _______ _____ _____    ______ ____

>  <TORSDO>
F 3

$$$$
=
 OpenBabel11122411173D

 31 35  0  0  1  0  0  0  0  0999 V2000
  183.9880  178.3140  140.4610 C   0  0  0  0  0  0  0  0  0  0  0  0
  186.3600  178.3020  137.4810 C   0  0  2  0  0  3  0  0  0  0  0  0
  187.7090  177.8630  138.0310 C   0  0  0  0  0  0  0  0  0  0  0  0
  189.2290  177.4610  139.8860 C   0  0  0  0  0  0  0  0  0  0  0  0
  185.1820  177.9610  138.3750 C   0  0  0  0  0  0  0  0  0  0  0  0
  183.0650  177.3290  140.1070 C   0  0  0  0  0  3  0  0  0  0  0  0
  187.9540  177.7740  139.4100 C   0  0  0  0  0  3  0  0  0  0  0  0
  185.6060  176.3780  135.9830 C   0  0  1  0  0  3  0  0  0  0  0  0
  183.8670  178.9600  141.6450 F   0  0  0  0  0  0  0  0  0  0  0  0
  188.5770  177.8270  135.7230 N   0  0  0  0  0  0  0  0  0  0  0  0
  189.5120  177.3370  141.6080 Cl  0  0  0  0  0  0  0  0  0  0  0  0
  184.2370  176.3300  136.6550 C   0  0  0  0  0  2  0  0  0  0  0  0
  186.1480  177.8110  136.0300 C   0  0  2  0  0  3  0  0  0  0  0  0
  185.0370  178.6310  139.5970 C   0  0  0  0  0  3  0  0  0  0  0  0
  190.2790  177.2560  138.9890 C   0  0  0  0  0  3  0  0  0  0  0  0
  184.2350  176.9720  138.0130 C   0  0  0  0  0  0  0  0  0  0  0  0
  183.1820  176.6690  138.8820 C   0  0  0  0  0  3  0  0  0  0  0  0
  187.3940  177.9320  135.1970 C   0  0  0  0  0  3  0  0  0  0  0  0
  188.7790  177.6740  137.1330 C   0  0  0  0  0  0  0  0  0  0  0  0
  190.0550  177.3680  137.6150 C   0  0  0  0  0  3  0  0  0  0  0  0
  186.4920  175.4700  136.6290 O   0  0  0  0  0  0  0  0  0  0  0  0
  187.0640  174.3650  134.6840 O   0  0  0  0  0  0  0  0  0  0  0  0
  187.1300  174.4350  135.9410 C   0  0  0  0  0  0  0  0  0  0  0  0
  190.2920  172.7060  135.2330 C   0  0  0  0  0  0  0  0  0  0  0  0
  189.2200  173.8450  137.1620 C   0  0  0  0  0  2  0  0  0  0  0  0
  186.9980  171.3010  135.8140 O   0  0  0  0  0  0  0  0  0  0  0  0
  191.3450  172.4310  134.6010 O   0  0  0  0  0  0  0  0  0  0  0  0
  190.1980  173.9900  135.9960 C   0  0  0  0  0  2  0  0  0  0  0  0
  187.9680  172.0980  135.8890 C   0  0  0  0  0  0  0  0  0  0  0  0
  187.8420  173.3580  136.6980 C   0  0  2  0  0  3  0  0  0  0  0  0
  189.1750  171.8160  135.1740 N   0  0  0  0  0  2  0  0  0  0  0  0
  1  9  1  0  0  0  0
  2  3  1  1  0  0  0
  2  5  1  0  0  0  0
  3  7  1  0  0  0  0
  4 11  1  0  0  0  0
  5 14  1  0  0  0  0
  6  1  1  0  0  0  0
  7  4  2  0  0  0  0
  8 13  1  0  0  0  0
  8 21  1  1  0  0  0
  8 12  1  0  0  0  0
 10 19  1  0  0  0  0
 12 16  1  0  0  0  0
 13 18  1  6  0  0  0
 13  2  1  0  0  0  0
 14  1  2  0  0  0  0
 15  4  1  0  0  0  0
 16  5  2  0  0  0  0
 16 17  1  0  0  0  0
 17  6  2  0  0  0  0
 18 10  2  0  0  0  0
 19 20  1  0  0  0  0
 19  3  2  0  0  0  0
 20 15  2  0  0  0  0
 22 23  2  0  0  0  0
 23 21  1  0  0  0  0
 24 28  1  0  0  0  0
 26 29  2  0  0  0  0
 27 24  2  0  0  0  0
 28 25  1  0  0  0  0
 29 30  1  0  0  0  0
 30 23  1  6  0  0  0
 30 25  1  0  0  0  0
 31 24  1  0  0  0  0
 31 29  1  0  0  0  0
M  END
>  <MODEL>
8

>  <REMARK>
 VINA RESULT:      -6.3      4.259      7.223
  Name = 
  3 active torsions:
  status: ('A' for Active; 'I' for Inactive)
    1  A    between atoms: C_5  and  O_16
    2  A    between atoms: C_5  and  C_30
    3  A    between atoms: C_10  and  O_16
                            x       y       z     vdW  Elec       q    Type
                         _______ _______ _______ _____ _____    ______ ____

>  <TORSDO>
F 3

$$$$
=
 OpenBabel11122411173D

 31 35  0  0  1  0  0  0  0  0999 V2000
  180.8050  181.0420  136.4520 C   0  0  0  0  0  0  0  0  0  0  0  0
  180.5710  177.6080  138.0840 C   0  0  2  0  0  3  0  0  0  0  0  0
  181.7480  176.8130  137.5400 C   0  0  0  0  0  0  0  0  0  0  0  0
  183.5340  176.4810  135.9240 C   0  0  0  0  0  0  0  0  0  0  0  0
  180.7070  179.1110  137.9240 C   0  0  0  0  0  0  0  0  0  0  0  0
  181.0220  181.8760  137.5500 C   0  0  0  0  0  3  0  0  0  0  0  0
  182.5210  177.2760  136.4640 C   0  0  0  0  0  3  0  0  0  0  0  0
  181.1070  177.9610  140.5550 C   0  0  1  0  0  3  0  0  0  0  0  0
  180.7550  181.5650  135.2040 F   0  0  0  0  0  0  0  0  0  0  0  0
  181.1610  174.9860  139.0900 N   0  0  0  0  0  0  0  0  0  0  0  0
  184.5010  177.0820  134.5950 Cl  0  0  0  0  0  0  0  0  0  0  0  0
  180.8320  179.4580  140.4490 C   0  0  0  0  0  2  0  0  0  0  0  0
  180.2380  177.2090  139.5410 C   0  0  2  0  0  3  0  0  0  0  0  0
  180.6450  179.6680  136.6400 C   0  0  0  0  0  3  0  0  0  0  0  0
  183.7710  175.2050  136.4380 C   0  0  0  0  0  3  0  0  0  0  0  0
  180.9130  179.9630  139.0360 C   0  0  0  0  0  0  0  0  0  0  0  0
  181.0640  181.3390  138.8380 C   0  0  0  0  0  3  0  0  0  0  0  0
  180.3300  175.7250  139.7630 C   0  0  0  0  0  3  0  0  0  0  0  0
  181.9800  175.5150  138.0400 C   0  0  0  0  0  0  0  0  0  0  0  0
  182.9910  174.7210  137.4900 C   0  0  0  0  0  3  0  0  0  0  0  0
  182.4900  177.7080  140.3360 O   0  0  0  0  0  0  0  0  0  0  0  0
  183.6320  177.8800  142.3360 O   0  0  0  0  0  0  0  0  0  0  0  0
  183.4860  178.2630  141.1440 C   0  0  0  0  0  0  0  0  0  0  0  0
  186.5420  178.1510  139.1070 C   0  0  0  0  0  0  0  0  0  0  0  0
  184.3690  179.3570  139.0870 C   0  0  0  0  0  2  0  0  0  0  0  0
  185.9900  179.7470  142.3190 O   0  0  0  0  0  0  0  0  0  0  0  0
  187.4800  177.6240  138.4560 O   0  0  0  0  0  0  0  0  0  0  0  0
  185.1590  178.1690  138.5350 C   0  0  0  0  0  2  0  0  0  0  0  0
  185.7450  179.2950  141.1710 C   0  0  0  0  0  0  0  0  0  0  0  0
  184.3490  179.3680  140.6190 C   0  0  2  0  0  3  0  0  0  0  0  0
  186.7910  178.6820  140.4110 N   0  0  0  0  0  2  0  0  0  0  0  0
  1 14  2  0  0  0  0
  1  6  1  0  0  0  0
  2  3  1  1  0  0  0
  2 13  1  0  0  0  0
  3 19  1  0  0  0  0
  4 15  2  0  0  0  0
  4  7  1  0  0  0  0
  5  2  1  0  0  0  0
  5 16  2  0  0  0  0
  6 17  2  0  0  0  0
  7  3  2  0  0  0  0
  8 21  1  6  0  0  0
  9  1  1  0  0  0  0
 10 18  2  0  0  0  0
 11  4  1  0  0  0  0
 12  8  1  0  0  0  0
 13 18  1  6  0  0  0
 13  8  1  0  0  0  0
 14  5  1  0  0  0  0
 15 20  1  0  0  0  0
 16 12  1  0  0  0  0
 17 16  1  0  0  0  0
 19 10  1  0  0  0  0
 20 19  2  0  0  0  0
 21 23  1  0  0  0  0
 23 22  2  0  0  0  0
 24 31  1  0  0  0  0
 25 30  1  0  0  0  0
 27 24  2  0  0  0  0
 28 25  1  0  0  0  0
 28 24  1  0  0  0  0
 29 26  2  0  0  0  0
 30 23  1  1  0  0  0
 30 29  1  0  0  0  0
 31 29  1  0  0  0  0
M  END
>  <MODEL>
9

>  <REMARK>
 VINA RESULT:      -6.3      4.907      8.081
  Name = 
  3 active torsions:
  status: ('A' for Active; 'I' for Inactive)
    1  A    between atoms: C_5  and  O_16
    2  A    between atoms: C_5  and  C_30
    3  A    between atoms: C_10  and  O_16
                            x       y       z     vdW  Elec       q    Type
                         _______ _______ _______ _____ _____    ______ ____

>  <TORSDO>
F 3

$$$$
