=
 OpenBabel11122410253D

 30 35  0  0  1  0  0  0  0  0999 V2000
  186.4530  177.8290  141.5870 C   0  0  2  0  0  3  0  0  0  0  0  0
  183.9740  178.4450  141.5570 C   0  0  0  0  0  0  0  0  0  0  0  0
  186.3200  178.0660  145.8650 N   0  0  0  0  0  2  0  0  0  0  0  0
  187.6980  177.7760  142.4830 C   0  0  2  0  0  3  0  0  0  0  0  0
  186.8430  178.6840  140.3930 C   0  0  0  0  0  2  0  0  0  0  0  0
  189.8030  176.5560  139.7520 O   0  0  0  0  0  0  0  0  0  0  0  0
  190.3000  178.1050  143.5610 C   0  0  1  0  0  3  0  0  0  0  0  0
  188.9250  177.1490  140.3620 C   0  0  0  0  0  0  0  0  0  0  0  0
  189.5460  178.0080  144.8940 C   0  0  2  0  0  3  0  0  0  0  0  0
  187.5110  177.3400  146.1500 C   0  0  0  0  0  0  0  0  0  0  0  0
  187.9680  178.0300  139.5720 C   0  0  2  0  0  3  0  0  0  0  0  0
  188.7670  176.8840  141.8470 C   0  0  1  0  0  3  0  0  0  0  0  0
  182.7950  178.8220  142.2070 C   0  0  0  0  0  3  0  0  0  0  0  0
  190.4730  177.6920  145.8990 O   0  0  0  0  0  0  0  0  0  0  0  0
  191.7370  178.2430  143.9750 C   0  0  0  0  0  2  0  0  0  0  0  0
  183.9380  178.1900  140.1910 O   0  0  0  0  0  1  0  0  0  0  0  0
  186.4250  178.4110  144.4610 C   0  0  1  0  0  3  0  0  0  0  0  0
  182.7880  179.0570  143.5820 C   0  0  0  0  0  3  0  0  0  0  0  0
  185.1760  178.3160  142.2830 C   0  0  0  0  0  0  0  0  0  0  0  0
  187.2940  177.3280  143.8710 C   0  0  2  0  0  3  0  0  0  0  0  0
  187.8110  176.9670  147.3140 O   0  0  0  0  0  0  0  0  0  0  0  0
  188.3430  177.0460  144.9450 C   0  0  1  0  0  3  0  0  0  0  0  0
  191.6740  178.2880  145.4860 C   0  0  0  0  0  2  0  0  0  0  0  0
  190.4680  175.5740  143.1670 C   0  0  0  0  0  1  0  0  0  0  0  0
  183.9590  178.9030  144.3230 C   0  0  0  0  0  3  0  0  0  0  0  0
  185.1430  178.5030  143.6940 C   0  0  0  0  0  0  0  0  0  0  0  0
  190.1260  176.9330  142.5710 C   0  0  2  0  0  3  0  0  0  0  0  0
  188.7400  179.1040  138.8130 C   0  0  0  0  0  2  0  0  0  0  0  0
  187.4930  178.7120  136.6880 C   0  0  0  0  0  1  0  0  0  0  0  0
  188.8630  178.7600  137.3360 C   0  0  0  0  0  2  0  0  0  0  0  0
  1  5  1  6  0  0  0
  1 19  1  0  0  0  0
  1  4  1  0  0  0  0
  2 13  2  0  0  0  0
  2 19  1  0  0  0  0
  3 10  1  0  0  0  0
  4 20  1  0  0  0  0
  6  8  2  0  0  0  0
  7 15  1  0  0  0  0
  7  9  1  0  0  0  0
  8 12  1  0  0  0  0
  9 22  1  0  0  0  0
  9 14  1  0  0  0  0
 10 21  2  0  0  0  0
 11  8  1  0  0  0  0
 11  5  1  0  0  0  0
 12  4  1  0  0  0  0
 12 27  1  0  0  0  0
 13 18  1  0  0  0  0
 15 23  1  0  0  0  0
 16  2  1  0  0  0  0
 17  3  1  0  0  0  0
 18 25  2  0  0  0  0
 19 26  2  0  0  0  0
 20 17  1  0  0  0  0
 20 22  1  0  0  0  0
 22 10  1  0  0  0  0
 23 14  1  0  0  0  0
 26 25  1  0  0  0  0
 26 17  1  0  0  0  0
 27 24  1  0  0  0  0
 27  7  1  0  0  0  0
 28 11  1  0  0  0  0
 29 30  1  0  0  0  0
 30 28  1  0  0  0  0
M  END
>  <MODEL>
1

>  <REMARK>
 VINA RESULT:      -9.0      0.000      0.000
  Name = 
  2 active torsions:
  status: ('A' for Active; 'I' for Inactive)
    1  A    between atoms: C_11  and  C_28
    2  A    between atoms: C_28  and  C_30
                            x       y       z     vdW  Elec       q    Type
                         _______ _______ _______ _____ _____    ______ ____

>  <TORSDO>
F 2

$$$$
=
 OpenBabel11122410253D

 30 35  0  0  1  0  0  0  0  0999 V2000
  187.5330  178.0540  143.1630 C   0  0  2  0  0  3  0  0  0  0  0  0
  186.1610  178.3520  145.2970 C   0  0  0  0  0  0  0  0  0  0  0  0
  183.9750  178.8920  140.9220 N   0  0  0  0  0  2  0  0  0  0  0  0
  187.4220  177.8790  141.6420 C   0  0  2  0  0  3  0  0  0  0  0  0
  188.3350  176.8610  143.6560 C   0  0  0  0  0  2  0  0  0  0  0  0
  191.0490  177.6100  141.2520 O   0  0  0  0  0  0  0  0  0  0  0  0
  187.6540  176.9280  138.9800 C   0  0  1  0  0  3  0  0  0  0  0  0
  189.9250  177.5210  141.7240 C   0  0  0  0  0  0  0  0  0  0  0  0
  186.2770  177.5920  138.8330 C   0  0  2  0  0  3  0  0  0  0  0  0
  184.5850  179.2030  139.6740 C   0  0  0  0  0  0  0  0  0  0  0  0
  189.7660  176.8690  143.0900 C   0  0  2  0  0  3  0  0  0  0  0  0
  188.7720  178.1670  140.9790 C   0  0  1  0  0  3  0  0  0  0  0  0
  184.9470  178.5730  145.9550 C   0  0  0  0  0  3  0  0  0  0  0  0
  186.0330  177.7920  137.4660 O   0  0  0  0  0  0  0  0  0  0  0  0
  187.9420  176.4000  137.6050 C   0  0  0  0  0  2  0  0  0  0  0  0
  187.3290  178.2740  146.0460 O   0  0  0  0  0  1  0  0  0  0  0  0
  185.0080  178.2120  141.6780 C   0  0  1  0  0  3  0  0  0  0  0  0
  183.7590  178.6860  145.2320 C   0  0  0  0  0  3  0  0  0  0  0  0
  186.1940  178.2210  143.8930 C   0  0  0  0  0  0  0  0  0  0  0  0
  186.3020  178.7520  141.1200 C   0  0  2  0  0  3  0  0  0  0  0  0
  183.9440  179.7110  138.7180 O   0  0  0  0  0  0  0  0  0  0  0  0
  186.0470  178.8960  139.6210 C   0  0  1  0  0  3  0  0  0  0  0  0
  186.6930  176.7360  136.8200 C   0  0  0  0  0  2  0  0  0  0  0  0
  189.0210  179.0730  138.6410 C   0  0  0  0  0  1  0  0  0  0  0  0
  183.7760  178.5920  143.8410 C   0  0  0  0  0  3  0  0  0  0  0  0
  184.9840  178.3940  143.1640 C   0  0  0  0  0  0  0  0  0  0  0  0
  188.8120  177.8190  139.4790 C   0  0  2  0  0  3  0  0  0  0  0  0
  190.3160  175.4480  143.0660 C   0  0  0  0  0  2  0  0  0  0  0  0
  191.6320  176.3830  144.9680 C   0  0  0  0  0  1  0  0  0  0  0  0
  191.6030  175.3370  143.8710 C   0  0  0  0  0  2  0  0  0  0  0  0
  1  5  1  1  0  0  0
  1 19  1  0  0  0  0
  2 13  1  0  0  0  0
  2 16  1  0  0  0  0
  3 17  1  0  0  0  0
  4  1  1  0  0  0  0
  6  8  2  0  0  0  0
  7 27  1  0  0  0  0
  8 11  1  0  0  0  0
  9  7  1  0  0  0  0
  9 22  1  0  0  0  0
 10  3  1  0  0  0  0
 11  5  1  0  0  0  0
 12  4  1  0  0  0  0
 12  8  1  0  0  0  0
 14  9  1  0  0  0  0
 15  7  1  0  0  0  0
 17 26  1  0  0  0  0
 18 13  2  0  0  0  0
 19  2  2  0  0  0  0
 20  4  1  0  0  0  0
 20 17  1  0  0  0  0
 21 10  2  0  0  0  0
 22 10  1  0  0  0  0
 22 20  1  0  0  0  0
 23 14  1  0  0  0  0
 23 15  1  0  0  0  0
 24 27  1  0  0  0  0
 25 18  1  0  0  0  0
 26 25  2  0  0  0  0
 26 19  1  0  0  0  0
 27 12  1  0  0  0  0
 28 11  1  0  0  0  0
 28 30  1  0  0  0  0
 30 29  1  0  0  0  0
M  END
>  <MODEL>
2

>  <REMARK>
 VINA RESULT:      -8.6      1.804      5.598
  Name = 
  2 active torsions:
  status: ('A' for Active; 'I' for Inactive)
    1  A    between atoms: C_11  and  C_28
    2  A    between atoms: C_28  and  C_30
                            x       y       z     vdW  Elec       q    Type
                         _______ _______ _______ _____ _____    ______ ____

>  <TORSDO>
F 2

$$$$
=
 OpenBabel11122410253D

 30 35  0  0  1  0  0  0  0  0999 V2000
  187.9350  178.1980  141.5960 C   0  0  2  0  0  3  0  0  0  0  0  0
  189.4870  177.9680  143.6110 C   0  0  0  0  0  0  0  0  0  0  0  0
  184.6270  178.2600  144.3230 N   0  0  0  0  0  2  0  0  0  0  0  0
  186.4660  178.1180  141.1570 C   0  0  2  0  0  3  0  0  0  0  0  0
  188.6830  177.2180  140.7080 C   0  0  0  0  0  2  0  0  0  0  0  0
  187.3080  178.8230  137.6680 O   0  0  0  0  0  0  0  0  0  0  0  0
  184.0460  177.4650  139.8300 C   0  0  1  0  0  3  0  0  0  0  0  0
  187.3810  178.4120  138.8170 C   0  0  0  0  0  0  0  0  0  0  0  0
  183.4400  177.7620  141.2090 C   0  0  2  0  0  3  0  0  0  0  0  0
  183.6490  178.8120  143.4490 C   0  0  0  0  0  0  0  0  0  0  0  0
  188.6250  177.6380  139.2280 C   0  0  2  0  0  3  0  0  0  0  0  0
  186.2860  178.7930  139.7950 C   0  0  1  0  0  3  0  0  0  0  0  0
  189.7010  177.8180  144.9850 C   0  0  0  0  0  3  0  0  0  0  0  0
  182.0680  177.9960  141.0420 O   0  0  0  0  0  0  0  0  0  0  0  0
  182.8520  177.1360  138.9810 C   0  0  0  0  0  2  0  0  0  0  0  0
  190.5830  178.1360  142.7740 O   0  0  0  0  0  1  0  0  0  0  0  0
  185.6930  177.8130  143.4480 C   0  0  1  0  0  3  0  0  0  0  0  0
  188.6230  177.6750  145.8590 C   0  0  0  0  0  3  0  0  0  0  0  0
  188.1760  177.9580  143.0920 C   0  0  0  0  0  0  0  0  0  0  0  0
  185.5890  178.7100  142.2390 C   0  0  2  0  0  3  0  0  0  0  0  0
  182.5270  179.2100  143.8580 O   0  0  0  0  0  0  0  0  0  0  0  0
  184.0890  178.8980  142.0240 C   0  0  1  0  0  3  0  0  0  0  0  0
  181.6930  177.1990  139.9510 C   0  0  0  0  0  2  0  0  0  0  0  0
  184.1510  179.9100  139.0560 C   0  0  0  0  0  1  0  0  0  0  0  0
  187.3180  177.6960  145.3680 C   0  0  0  0  0  3  0  0  0  0  0  0
  187.0830  177.8690  144.0000 C   0  0  0  0  0  0  0  0  0  0  0  0
  184.8890  178.5840  139.1800 C   0  0  2  0  0  3  0  0  0  0  0  0
  188.8050  176.4130  138.3400 C   0  0  0  0  0  2  0  0  0  0  0  0
  191.2760  176.0680  138.3140 C   0  0  0  0  0  1  0  0  0  0  0  0
  190.0730  176.5140  137.5050 C   0  0  0  0  0  2  0  0  0  0  0  0
  1  5  1  6  0  0  0
  1 19  1  0  0  0  0
  2 13  1  0  0  0  0
  4  1  1  0  0  0  0
  4 20  1  0  0  0  0
  6  8  2  0  0  0  0
  7  9  1  0  0  0  0
  8 11  1  0  0  0  0
  8 12  1  0  0  0  0
  9 22  1  0  0  0  0
 10 21  2  0  0  0  0
 10  3  1  0  0  0  0
 11  5  1  0  0  0  0
 12  4  1  0  0  0  0
 13 18  2  0  0  0  0
 14  9  1  0  0  0  0
 15  7  1  0  0  0  0
 15 23  1  0  0  0  0
 16  2  1  0  0  0  0
 17 26  1  0  0  0  0
 17  3  1  0  0  0  0
 19  2  2  0  0  0  0
 19 26  1  0  0  0  0
 20 17  1  0  0  0  0
 22 20  1  0  0  0  0
 22 10  1  0  0  0  0
 23 14  1  0  0  0  0
 24 27  1  0  0  0  0
 25 18  1  0  0  0  0
 26 25  2  0  0  0  0
 27 12  1  0  0  0  0
 27  7  1  0  0  0  0
 28 11  1  0  0  0  0
 30 29  1  0  0  0  0
 30 28  1  0  0  0  0
M  END
>  <MODEL>
3

>  <REMARK>
 VINA RESULT:      -8.2      2.009      5.668
  Name = 
  2 active torsions:
  status: ('A' for Active; 'I' for Inactive)
    1  A    between atoms: C_11  and  C_28
    2  A    between atoms: C_28  and  C_30
                            x       y       z     vdW  Elec       q    Type
                         _______ _______ _______ _____ _____    ______ ____

>  <TORSDO>
F 2

$$$$
=
 OpenBabel11122410253D

 30 35  0  0  1  0  0  0  0  0999 V2000
  185.7080  178.7140  141.4610 C   0  0  2  0  0  3  0  0  0  0  0  0
  184.2050  179.2630  143.4520 C   0  0  0  0  0  0  0  0  0  0  0  0
  182.1650  178.1630  139.1120 N   0  0  0  0  0  2  0  0  0  0  0  0
  185.7080  178.1270  140.0420 C   0  0  2  0  0  3  0  0  0  0  0  0
  186.7150  177.8890  142.2460 C   0  0  0  0  0  2  0  0  0  0  0  0
  189.3270  178.5390  139.7050 O   0  0  0  0  0  0  0  0  0  0  0  0
  186.2570  176.5830  137.7280 C   0  0  1  0  0  3  0  0  0  0  0  0
  188.2240  178.3410  140.1940 C   0  0  0  0  0  0  0  0  0  0  0  0
  184.7820  176.8790  137.4220 C   0  0  2  0  0  3  0  0  0  0  0  0
  182.7560  178.2570  137.8200 C   0  0  0  0  0  0  0  0  0  0  0  0
  188.1390  178.0510  141.6850 C   0  0  2  0  0  3  0  0  0  0  0  0
  186.9990  178.5100  139.3150 C   0  0  1  0  0  3  0  0  0  0  0  0
  182.9420  179.3860  144.0390 C   0  0  0  0  0  3  0  0  0  0  0  0
  184.5670  176.6570  136.0530 O   0  0  0  0  0  0  0  0  0  0  0  0
  186.7140  175.7860  136.5400 C   0  0  0  0  0  2  0  0  0  0  0  0
  185.3270  179.6320  144.1840 O   0  0  0  0  0  1  0  0  0  0  0  0
  183.2790  177.9390  140.0120 C   0  0  1  0  0  3  0  0  0  0  0  0
  181.7920  179.0520  143.3230 C   0  0  0  0  0  3  0  0  0  0  0  0
  184.3310  178.7780  142.1330 C   0  0  0  0  0  0  0  0  0  0  0  0
  184.4580  178.5760  139.3180 C   0  0  2  0  0  3  0  0  0  0  0  0
  182.0690  178.3500  136.7690 O   0  0  0  0  0  0  0  0  0  0  0  0
  184.2500  178.2640  137.8370 C   0  0  1  0  0  3  0  0  0  0  0  0
  185.4600  175.6340  135.7060 C   0  0  0  0  0  2  0  0  0  0  0  0
  187.1670  178.8040  136.8170 C   0  0  0  0  0  1  0  0  0  0  0  0
  181.8940  178.6030  142.0070 C   0  0  0  0  0  3  0  0  0  0  0  0
  183.1470  178.4950  141.3950 C   0  0  0  0  0  0  0  0  0  0  0  0
  187.1810  177.7980  137.9600 C   0  0  2  0  0  3  0  0  0  0  0  0
  188.9710  176.8230  142.0350 C   0  0  0  0  0  2  0  0  0  0  0  0
  189.4280  177.0060  144.4810 C   0  0  0  0  0  1  0  0  0  0  0  0
  188.6200  176.2890  143.4160 C   0  0  0  0  0  2  0  0  0  0  0  0
  1 19  1  0  0  0  0
  1  5  1  1  0  0  0
  2 13  1  0  0  0  0
  2 16  1  0  0  0  0
  3 17  1  0  0  0  0
  4  1  1  0  0  0  0
  6  8  2  0  0  0  0
  7 27  1  0  0  0  0
  8 11  1  0  0  0  0
  9  7  1  0  0  0  0
  9 22  1  0  0  0  0
 10 22  1  0  0  0  0
 10  3  1  0  0  0  0
 11 28  1  0  0  0  0
 11  5  1  0  0  0  0
 12  4  1  0  0  0  0
 12  8  1  0  0  0  0
 14  9  1  0  0  0  0
 15  7  1  0  0  0  0
 17 26  1  0  0  0  0
 18 13  2  0  0  0  0
 19  2  2  0  0  0  0
 20 17  1  0  0  0  0
 20  4  1  0  0  0  0
 21 10  2  0  0  0  0
 22 20  1  0  0  0  0
 23 14  1  0  0  0  0
 23 15  1  0  0  0  0
 24 27  1  0  0  0  0
 25 18  1  0  0  0  0
 26 25  2  0  0  0  0
 26 19  1  0  0  0  0
 27 12  1  0  0  0  0
 28 30  1  0  0  0  0
 30 29  1  0  0  0  0
M  END
>  <MODEL>
4

>  <REMARK>
 VINA RESULT:      -7.3      2.693      6.402
  Name = 
  2 active torsions:
  status: ('A' for Active; 'I' for Inactive)
    1  A    between atoms: C_11  and  C_28
    2  A    between atoms: C_28  and  C_30
                            x       y       z     vdW  Elec       q    Type
                         _______ _______ _______ _____ _____    ______ ____

>  <TORSDO>
F 2

$$$$
=
 OpenBabel11122410253D

 30 35  0  0  1  0  0  0  0  0999 V2000
  190.3070  177.3030  139.2710 C   0  0  2  0  0  3  0  0  0  0  0  0
  191.5600  177.5030  141.4880 C   0  0  0  0  0  0  0  0  0  0  0  0
  186.7730  178.6240  141.3070 N   0  0  0  0  0  2  0  0  0  0  0  0
  188.9040  177.2820  138.6460 C   0  0  2  0  0  3  0  0  0  0  0  0
  190.9720  176.0100  138.8300 C   0  0  0  0  0  2  0  0  0  0  0  0
  190.2420  176.7700  135.2810 O   0  0  0  0  0  0  0  0  0  0  0  0
  186.5740  176.5720  137.1950 C   0  0  1  0  0  3  0  0  0  0  0  0
  190.1130  176.7250  136.4960 C   0  0  0  0  0  0  0  0  0  0  0  0
  185.8760  177.3530  138.3180 C   0  0  2  0  0  3  0  0  0  0  0  0
  186.0070  179.0030  140.1690 C   0  0  0  0  0  0  0  0  0  0  0  0
  191.1530  175.9600  137.3020 C   0  0  2  0  0  3  0  0  0  0  0  0
  188.9960  177.5250  137.1380 C   0  0  1  0  0  3  0  0  0  0  0  0
  191.5900  177.7540  142.8630 C   0  0  0  0  0  3  0  0  0  0  0  0
  184.5910  177.7000  137.8760 O   0  0  0  0  0  0  0  0  0  0  0  0
  185.4450  176.1560  136.2970 C   0  0  0  0  0  2  0  0  0  0  0  0
  192.7560  177.2640  140.8220 O   0  0  0  0  0  1  0  0  0  0  0  0
  187.8380  177.7970  140.7770 C   0  0  1  0  0  3  0  0  0  0  0  0
  190.4110  178.0270  143.5590 C   0  0  0  0  0  3  0  0  0  0  0  0
  190.3340  177.5030  140.7920 C   0  0  0  0  0  0  0  0  0  0  0  0
  188.0260  178.2850  139.3610 C   0  0  2  0  0  3  0  0  0  0  0  0
  184.9300  179.6480  140.2640 O   0  0  0  0  0  0  0  0  0  0  0  0
  186.6130  178.5900  138.8670 C   0  0  1  0  0  3  0  0  0  0  0  0
  184.2110  176.6620  137.0130 C   0  0  0  0  0  2  0  0  0  0  0  0
  187.1800  178.6280  135.7820 C   0  0  0  0  0  1  0  0  0  0  0  0
  189.1930  178.0650  142.8830 C   0  0  0  0  0  3  0  0  0  0  0  0
  189.1470  177.8380  141.5030 C   0  0  0  0  0  0  0  0  0  0  0  0
  187.6630  177.3200  136.3950 C   0  0  2  0  0  3  0  0  0  0  0  0
  191.2210  174.5090  136.8400 C   0  0  0  0  0  2  0  0  0  0  0  0
  189.1960  173.3370  135.9730 C   0  0  0  0  0  1  0  0  0  0  0  0
  189.9590  173.7470  137.2180 C   0  0  0  0  0  2  0  0  0  0  0  0
  1  5  1  1  0  0  0
  1 19  1  0  0  0  0
  2 13  1  0  0  0  0
  4  1  1  0  0  0  0
  4 20  1  0  0  0  0
  6  8  2  0  0  0  0
  7  9  1  0  0  0  0
  8 12  1  0  0  0  0
  8 11  1  0  0  0  0
  9 22  1  0  0  0  0
 10 21  2  0  0  0  0
 10  3  1  0  0  0  0
 11  5  1  0  0  0  0
 12  4  1  0  0  0  0
 13 18  2  0  0  0  0
 14  9  1  0  0  0  0
 15 23  1  0  0  0  0
 15  7  1  0  0  0  0
 16  2  1  0  0  0  0
 17  3  1  0  0  0  0
 17 26  1  0  0  0  0
 19  2  2  0  0  0  0
 19 26  1  0  0  0  0
 20 17  1  0  0  0  0
 22 20  1  0  0  0  0
 22 10  1  0  0  0  0
 23 14  1  0  0  0  0
 24 27  1  0  0  0  0
 25 18  1  0  0  0  0
 26 25  2  0  0  0  0
 27 12  1  0  0  0  0
 27  7  1  0  0  0  0
 28 30  1  0  0  0  0
 28 11  1  0  0  0  0
 29 30  1  0  0  0  0
M  END
>  <MODEL>
5

>  <REMARK>
 VINA RESULT:      -7.2      3.059      6.736
  Name = 
  2 active torsions:
  status: ('A' for Active; 'I' for Inactive)
    1  A    between atoms: C_11  and  C_28
    2  A    between atoms: C_28  and  C_30
                            x       y       z     vdW  Elec       q    Type
                         _______ _______ _______ _____ _____    ______ ____

>  <TORSDO>
F 2

$$$$
=
 OpenBabel11122410253D

 30 35  0  0  1  0  0  0  0  0999 V2000
  186.3040  178.4370  144.6320 C   0  0  2  0  0  3  0  0  0  0  0  0
  183.7800  178.8280  144.6810 C   0  0  0  0  0  0  0  0  0  0  0  0
  186.0790  178.4110  140.3510 N   0  0  0  0  0  2  0  0  0  0  0  0
  187.4700  178.0330  143.7200 C   0  0  2  0  0  3  0  0  0  0  0  0
  186.3340  177.4590  145.7950 C   0  0  0  0  0  2  0  0  0  0  0  0
  189.8890  178.2530  146.4540 O   0  0  0  0  0  0  0  0  0  0  0  0
  189.7390  176.7580  142.5940 C   0  0  1  0  0  3  0  0  0  0  0  0
  188.8490  178.0660  145.8400 C   0  0  0  0  0  0  0  0  0  0  0  0
  189.0780  177.1830  141.2750 C   0  0  2  0  0  3  0  0  0  0  0  0
  187.4570  178.6280  140.0700 C   0  0  0  0  0  0  0  0  0  0  0  0
  187.6270  177.5980  146.6180 C   0  0  2  0  0  3  0  0  0  0  0  0
  188.8030  178.4210  144.3660 C   0  0  1  0  0  3  0  0  0  0  0  0
  182.5450  178.9580  144.0380 C   0  0  0  0  0  3  0  0  0  0  0  0
  190.0520  177.1490  140.2670 O   0  0  0  0  0  0  0  0  0  0  0  0
  191.0090  176.0890  142.1550 C   0  0  0  0  0  2  0  0  0  0  0  0
  183.8480  179.0320  146.0540 O   0  0  0  0  0  1  0  0  0  0  0  0
  186.0460  178.0060  141.7430 C   0  0  1  0  0  3  0  0  0  0  0  0
  182.4450  178.7890  142.6560 C   0  0  0  0  0  3  0  0  0  0  0  0
  184.9360  178.5050  143.9410 C   0  0  0  0  0  0  0  0  0  0  0  0
  187.2680  178.6480  142.3520 C   0  0  2  0  0  3  0  0  0  0  0  0
  187.8760  178.8940  138.9140 O   0  0  0  0  0  0  0  0  0  0  0  0
  188.3420  178.5370  141.2710 C   0  0  1  0  0  3  0  0  0  0  0  0
  190.9300  176.1210  140.6440 C   0  0  0  0  0  2  0  0  0  0  0  0
  190.8750  179.0130  143.0590 C   0  0  0  0  0  1  0  0  0  0  0  0
  183.5820  178.5030  141.9030 C   0  0  0  0  0  3  0  0  0  0  0  0
  184.8300  178.3920  142.5260 C   0  0  0  0  0  0  0  0  0  0  0  0
  190.0350  177.8730  143.6200 C   0  0  2  0  0  3  0  0  0  0  0  0
  187.9250  176.2860  147.3330 C   0  0  0  0  0  2  0  0  0  0  0  0
  187.9300  177.9420  149.1990 C   0  0  0  0  0  1  0  0  0  0  0  0
  187.9410  176.4680  148.8430 C   0  0  0  0  0  2  0  0  0  0  0  0
  1  5  1  1  0  0  0
  2 16  1  0  0  0  0
  3 17  1  0  0  0  0
  4 12  1  0  0  0  0
  4  1  1  0  0  0  0
  5 11  1  0  0  0  0
  7 27  1  0  0  0  0
  8  6  2  0  0  0  0
  8 11  1  0  0  0  0
  9  7  1  0  0  0  0
 10  3  1  0  0  0  0
 10 22  1  0  0  0  0
 11 28  1  0  0  0  0
 12  8  1  0  0  0  0
 13  2  1  0  0  0  0
 14 23  1  0  0  0  0
 14  9  1  0  0  0  0
 15  7  1  0  0  0  0
 17 20  1  0  0  0  0
 17 26  1  0  0  0  0
 18 13  2  0  0  0  0
 19  1  1  0  0  0  0
 19  2  2  0  0  0  0
 20  4  1  0  0  0  0
 21 10  2  0  0  0  0
 22  9  1  0  0  0  0
 22 20  1  0  0  0  0
 23 15  1  0  0  0  0
 24 27  1  0  0  0  0
 25 26  2  0  0  0  0
 25 18  1  0  0  0  0
 26 19  1  0  0  0  0
 27 12  1  0  0  0  0
 28 30  1  0  0  0  0
 30 29  1  0  0  0  0
M  END
>  <MODEL>
6

>  <REMARK>
 VINA RESULT:      -6.9      1.857      5.441
  Name = 
  2 active torsions:
  status: ('A' for Active; 'I' for Inactive)
    1  A    between atoms: C_11  and  C_28
    2  A    between atoms: C_28  and  C_30
                            x       y       z     vdW  Elec       q    Type
                         _______ _______ _______ _____ _____    ______ ____

>  <TORSDO>
F 2

$$$$
=
 OpenBabel11122410253D

 30 35  0  0  1  0  0  0  0  0999 V2000
  190.2600  177.1780  138.9900 C   0  0  2  0  0  3  0  0  0  0  0  0
  191.4370  177.5330  141.2300 C   0  0  0  0  0  0  0  0  0  0  0  0
  186.6590  178.6280  140.8090 N   0  0  0  0  0  2  0  0  0  0  0  0
  188.8800  177.1110  138.3210 C   0  0  2  0  0  3  0  0  0  0  0  0
  190.9400  175.8590  138.6620 C   0  0  0  0  0  2  0  0  0  0  0  0
  190.3320  176.3730  135.0460 O   0  0  0  0  0  0  0  0  0  0  0  0
  186.6000  176.2980  136.8430 C   0  0  1  0  0  3  0  0  0  0  0  0
  190.1620  176.4100  136.2560 C   0  0  0  0  0  0  0  0  0  0  0  0
  185.8650  177.1530  137.8860 C   0  0  2  0  0  3  0  0  0  0  0  0
  185.9320  178.9260  139.6220 C   0  0  0  0  0  0  0  0  0  0  0  0
  191.1730  175.7050  137.1480 C   0  0  2  0  0  3  0  0  0  0  0  0
  189.0240  177.2510  136.8040 C   0  0  1  0  0  3  0  0  0  0  0  0
  191.4190  177.8780  142.5850 C   0  0  0  0  0  3  0  0  0  0  0  0
  184.5960  177.4650  137.3770 O   0  0  0  0  0  0  0  0  0  0  0  0
  185.5030  175.8190  135.9380 C   0  0  0  0  0  2  0  0  0  0  0  0
  192.6550  177.2510  140.6230 O   0  0  0  0  0  1  0  0  0  0  0  0
  187.7420  177.7680  140.3730 C   0  0  1  0  0  3  0  0  0  0  0  0
  190.2180  178.1950  143.2200 C   0  0  0  0  0  3  0  0  0  0  0  0
  190.2350  177.4820  140.4940 C   0  0  0  0  0  0  0  0  0  0  0  0
  187.9770  178.1590  138.9350 C   0  0  2  0  0  3  0  0  0  0  0  0
  184.8530  179.5730  139.6360 O   0  0  0  0  0  0  0  0  0  0  0  0
  186.5830  178.4260  138.3730 C   0  0  1  0  0  3  0  0  0  0  0  0
  184.2450  176.3700  136.5740 C   0  0  0  0  0  2  0  0  0  0  0  0
  187.2550  178.2530  135.3140 C   0  0  0  0  0  1  0  0  0  0  0  0
  189.0230  178.1840  142.5010 C   0  0  0  0  0  3  0  0  0  0  0  0
  189.0240  177.8630  141.1390 C   0  0  0  0  0  0  0  0  0  0  0  0
  187.7160  176.9910  136.0310 C   0  0  2  0  0  3  0  0  0  0  0  0
  191.2560  174.2260  136.7900 C   0  0  0  0  0  2  0  0  0  0  0  0
  193.6060  174.8110  136.1900 C   0  0  0  0  0  1  0  0  0  0  0  0
  192.6980  173.7410  136.7640 C   0  0  0  0  0  2  0  0  0  0  0  0
  1  5  1  1  0  0  0
  1 19  1  0  0  0  0
  2 13  1  0  0  0  0
  4 20  1  0  0  0  0
  4  1  1  0  0  0  0
  6  8  2  0  0  0  0
  7  9  1  0  0  0  0
  8 12  1  0  0  0  0
  8 11  1  0  0  0  0
  9 22  1  0  0  0  0
 10 21  2  0  0  0  0
 10  3  1  0  0  0  0
 11  5  1  0  0  0  0
 12  4  1  0  0  0  0
 13 18  2  0  0  0  0
 14  9  1  0  0  0  0
 15 23  1  0  0  0  0
 15  7  1  0  0  0  0
 16  2  1  0  0  0  0
 17  3  1  0  0  0  0
 17 26  1  0  0  0  0
 19 26  1  0  0  0  0
 19  2  2  0  0  0  0
 20 17  1  0  0  0  0
 22 20  1  0  0  0  0
 22 10  1  0  0  0  0
 23 14  1  0  0  0  0
 24 27  1  0  0  0  0
 25 18  1  0  0  0  0
 26 25  2  0  0  0  0
 27 12  1  0  0  0  0
 27  7  1  0  0  0  0
 28 11  1  0  0  0  0
 29 30  1  0  0  0  0
 30 28  1  0  0  0  0
M  END
>  <MODEL>
7

>  <REMARK>
 VINA RESULT:      -6.8      3.254      7.022
  Name = 
  2 active torsions:
  status: ('A' for Active; 'I' for Inactive)
    1  A    between atoms: C_11  and  C_28
    2  A    between atoms: C_28  and  C_30
                            x       y       z     vdW  Elec       q    Type
                         _______ _______ _______ _____ _____    ______ ____

>  <TORSDO>
F 2

$$$$
=
 OpenBabel11122410253D

 30 35  0  0  1  0  0  0  0  0999 V2000
  190.0760  177.4650  140.1300 C   0  0  2  0  0  3  0  0  0  0  0  0
  191.0710  177.5030  142.4820 C   0  0  0  0  0  0  0  0  0  0  0  0
  186.2970  178.5160  141.8600 N   0  0  0  0  0  2  0  0  0  0  0  0
  188.7520  177.4630  139.3520 C   0  0  2  0  0  3  0  0  0  0  0  0
  190.8290  176.2310  139.6600 C   0  0  0  0  0  2  0  0  0  0  0  0
  190.4670  177.2770  136.1270 O   0  0  0  0  0  0  0  0  0  0  0  0
  186.6200  176.8230  137.5950 C   0  0  1  0  0  3  0  0  0  0  0  0
  190.2080  177.1230  137.3120 C   0  0  0  0  0  0  0  0  0  0  0  0
  185.7770  177.4860  138.6930 C   0  0  2  0  0  3  0  0  0  0  0  0
  185.6480  178.9730  140.6780 C   0  0  0  0  0  0  0  0  0  0  0  0
  191.1790  176.3180  138.1640 C   0  0  2  0  0  3  0  0  0  0  0  0
  189.0010  177.8380  137.8890 C   0  0  1  0  0  3  0  0  0  0  0  0
  190.9410  177.6360  143.8680 C   0  0  0  0  0  3  0  0  0  0  0  0
  184.5370  177.8380  138.1400 O   0  0  0  0  0  0  0  0  0  0  0  0
  185.6120  176.4580  136.5440 C   0  0  0  0  0  2  0  0  0  0  0  0
  192.3400  177.3520  141.9370 O   0  0  0  0  0  1  0  0  0  0  0  0
  187.4420  177.7650  141.3850 C   0  0  1  0  0  3  0  0  0  0  0  0
  189.6840  177.8180  144.4480 C   0  0  0  0  0  3  0  0  0  0  0  0
  189.9290  177.5330  141.6560 C   0  0  0  0  0  0  0  0  0  0  0  0
  187.7660  178.3780  140.0450 C   0  0  2  0  0  3  0  0  0  0  0  0
  184.5460  179.5800  140.7050 O   0  0  0  0  0  0  0  0  0  0  0  0
  186.4070  178.6890  139.4220 C   0  0  1  0  0  3  0  0  0  0  0  0
  184.2900  176.8690  137.1560 C   0  0  0  0  0  2  0  0  0  0  0  0
  187.3070  179.0070  136.4350 C   0  0  0  0  0  1  0  0  0  0  0  0
  188.5470  177.8840  143.6440 C   0  0  0  0  0  3  0  0  0  0  0  0
  188.6600  177.7760  142.2540 C   0  0  0  0  0  0  0  0  0  0  0  0
  187.7640  177.6640  136.9870 C   0  0  2  0  0  3  0  0  0  0  0  0
  191.3460  174.9150  137.5930 C   0  0  0  0  0  2  0  0  0  0  0  0
  193.6990  175.6490  137.2060 C   0  0  0  0  0  1  0  0  0  0  0  0
  192.8060  174.4860  137.5940 C   0  0  0  0  0  2  0  0  0  0  0  0
  1  5  1  1  0  0  0
  1 19  1  0  0  0  0
  2 13  1  0  0  0  0
  4 20  1  0  0  0  0
  4  1  1  0  0  0  0
  6  8  2  0  0  0  0
  7  9  1  0  0  0  0
  8 12  1  0  0  0  0
  8 11  1  0  0  0  0
  9 22  1  0  0  0  0
 10 21  2  0  0  0  0
 10  3  1  0  0  0  0
 11  5  1  0  0  0  0
 12  4  1  0  0  0  0
 13 18  2  0  0  0  0
 14  9  1  0  0  0  0
 15 23  1  0  0  0  0
 15  7  1  0  0  0  0
 16  2  1  0  0  0  0
 17  3  1  0  0  0  0
 17 26  1  0  0  0  0
 19 26  1  0  0  0  0
 19  2  2  0  0  0  0
 20 17  1  0  0  0  0
 22 20  1  0  0  0  0
 22 10  1  0  0  0  0
 23 14  1  0  0  0  0
 24 27  1  0  0  0  0
 25 18  1  0  0  0  0
 26 25  2  0  0  0  0
 27  7  1  0  0  0  0
 27 12  1  0  0  0  0
 28 30  1  0  0  0  0
 28 11  1  0  0  0  0
 29 30  1  0  0  0  0
M  END
>  <MODEL>
8

>  <REMARK>
 VINA RESULT:      -6.8      2.579      6.388
  Name = 
  2 active torsions:
  status: ('A' for Active; 'I' for Inactive)
    1  A    between atoms: C_11  and  C_28
    2  A    between atoms: C_28  and  C_30
                            x       y       z     vdW  Elec       q    Type
                         _______ _______ _______ _____ _____    ______ ____

>  <TORSDO>
F 2

$$$$
=
 OpenBabel11122410253D

 30 35  0  0  1  0  0  0  0  0999 V2000
  188.6310  177.9460  140.4840 C   0  0  2  0  0  3  0  0  0  0  0  0
  186.3340  178.9440  140.9920 C   0  0  0  0  0  0  0  0  0  0  0  0
  187.3150  177.3210  136.4520 N   0  0  0  0  0  2  0  0  0  0  0  0
  189.4190  177.1350  139.4460 C   0  0  2  0  0  3  0  0  0  0  0  0
  188.7620  177.1800  141.7900 C   0  0  0  0  0  2  0  0  0  0  0  0
  192.4520  177.1750  141.4900 O   0  0  0  0  0  0  0  0  0  0  0  0
  191.0210  175.1890  138.1480 C   0  0  1  0  0  3  0  0  0  0  0  0
  191.2730  177.1550  141.1660 C   0  0  0  0  0  0  0  0  0  0  0  0
  190.1430  175.5550  136.9430 C   0  0  2  0  0  3  0  0  0  0  0  0
  188.5890  177.1490  135.8430 C   0  0  0  0  0  0  0  0  0  0  0  0
  190.2240  177.1240  142.2680 C   0  0  2  0  0  3  0  0  0  0  0  0
  190.9220  177.2800  139.6960 C   0  0  1  0  0  3  0  0  0  0  0  0
  185.0280  179.2710  140.6170 C   0  0  0  0  0  3  0  0  0  0  0  0
  190.7980  175.1300  135.7790 O   0  0  0  0  0  0  0  0  0  0  0  0
  191.9760  174.1710  137.5940 C   0  0  0  0  0  2  0  0  0  0  0  0
  186.7920  179.3320  142.2460 O   0  0  0  0  0  1  0  0  0  0  0  0
  187.5590  177.1540  137.8710 C   0  0  1  0  0  3  0  0  0  0  0  0
  184.5440  178.9220  139.3550 C   0  0  0  0  0  3  0  0  0  0  0  0
  187.1730  178.2390  140.1040 C   0  0  0  0  0  0  0  0  0  0  0  0
  188.9990  177.5640  138.0570 C   0  0  2  0  0  3  0  0  0  0  0  0
  188.7420  177.1250  134.5940 O   0  0  0  0  0  0  0  0  0  0  0  0
  189.7160  177.0310  136.8170 C   0  0  1  0  0  3  0  0  0  0  0  0
  191.5200  173.9900  136.1630 C   0  0  0  0  0  2  0  0  0  0  0  0
  192.6650  177.1420  137.8800 C   0  0  0  0  0  1  0  0  0  0  0  0
  185.3700  178.2550  138.4510 C   0  0  0  0  0  3  0  0  0  0  0  0
  186.6870  177.9400  138.8000 C   0  0  0  0  0  0  0  0  0  0  0  0
  191.7870  176.3420  138.8330 C   0  0  2  0  0  3  0  0  0  0  0  0
  190.4270  175.9040  143.1590 C   0  0  0  0  0  2  0  0  0  0  0  0
  190.7690  177.4850  145.0590 C   0  0  0  0  0  1  0  0  0  0  0  0
  191.2860  176.2370  144.3690 C   0  0  0  0  0  2  0  0  0  0  0  0
  1  5  1  1  0  0  0
  2 16  1  0  0  0  0
  3 17  1  0  0  0  0
  4 12  1  0  0  0  0
  4  1  1  0  0  0  0
  5 11  1  0  0  0  0
  7 27  1  0  0  0  0
  8  6  2  0  0  0  0
  8 11  1  0  0  0  0
  9  7  1  0  0  0  0
 10  3  1  0  0  0  0
 10 22  1  0  0  0  0
 11 28  1  0  0  0  0
 12  8  1  0  0  0  0
 13  2  1  0  0  0  0
 14 23  1  0  0  0  0
 14  9  1  0  0  0  0
 15  7  1  0  0  0  0
 17 20  1  0  0  0  0
 17 26  1  0  0  0  0
 18 13  2  0  0  0  0
 19  1  1  0  0  0  0
 19  2  2  0  0  0  0
 20  4  1  0  0  0  0
 21 10  2  0  0  0  0
 22  9  1  0  0  0  0
 22 20  1  0  0  0  0
 23 15  1  0  0  0  0
 24 27  1  0  0  0  0
 25 26  2  0  0  0  0
 25 18  1  0  0  0  0
 26 19  1  0  0  0  0
 27 12  1  0  0  0  0
 28 30  1  0  0  0  0
 30 29  1  0  0  0  0
M  END
>  <MODEL>
9

>  <REMARK>
 VINA RESULT:      -6.7      3.254      6.597
  Name = 
  2 active torsions:
  status: ('A' for Active; 'I' for Inactive)
    1  A    between atoms: C_11  and  C_28
    2  A    between atoms: C_28  and  C_30
                            x       y       z     vdW  Elec       q    Type
                         _______ _______ _______ _____ _____    ______ ____

>  <TORSDO>
F 2

$$$$
