=
 OpenBabel11122410283D

 30 35  0  0  1  0  0  0  0  0999 V2000
  187.2740  178.3610  140.8930 C   0  0  0  0  0  0  0  0  0  0  0  0
  184.9630  178.7920  140.1010 C   0  0  0  0  0  0  0  0  0  0  0  0
  185.8410  178.0380  144.8670 N   0  0  0  0  0  0  0  0  0  0  0  0
  188.3000  178.2080  142.0320 C   0  0  2  0  0  3  0  0  0  0  0  0
  187.8250  178.3290  139.4820 C   0  0  0  0  0  2  0  0  0  0  0  0
  190.7780  176.4300  140.0150 O   0  0  0  0  0  0  0  0  0  0  0  0
  190.5240  177.3760  143.8750 C   0  0  1  0  0  3  0  0  0  0  0  0
  189.8620  177.2280  140.3590 C   0  0  0  0  0  0  0  0  0  0  0  0
  189.4760  177.5000  144.8730 N   0  0  0  0  0  0  0  0  0  0  0  0
  186.9550  177.7900  145.4840 C   0  0  0  0  0  0  0  0  0  0  0  0
  189.3460  178.2510  139.3930 C   0  0  1  0  0  3  0  0  0  0  0  0
  189.3400  177.2120  141.6950 N   0  0  0  0  0  0  0  0  0  0  0  0
  183.6480  178.9530  140.4070 N   0  0  0  0  0  0  0  0  0  0  0  0
  189.9460  177.2050  146.2120 C   0  0  0  0  0  2  0  0  0  0  0  0
  191.7190  176.7910  144.6020 C   0  0  0  0  0  2  0  0  0  0  0  0
  185.3300  178.9220  138.7290 N   0  0  0  0  0  1  0  0  0  0  0  0
  186.2090  178.1670  143.4960 C   0  0  0  0  0  0  0  0  0  0  0  0
  183.1740  178.8760  141.6710 C   0  0  0  0  0  3  0  0  0  0  0  0
  185.9210  178.5320  141.1350 C   0  0  0  0  0  0  0  0  0  0  0  0
  187.6150  177.9610  143.3380 C   0  0  0  0  0  0  0  0  0  0  0  0
  187.0140  177.5880  146.9590 C   0  0  0  0  0  1  0  0  0  0  0  0
  188.0980  177.7550  144.5550 C   0  0  0  0  0  0  0  0  0  0  0  0
  191.4420  176.9840  146.0860 C   0  0  0  0  0  2  0  0  0  0  0  0
  189.3970  175.1900  143.1150 C   0  0  0  0  0  1  0  0  0  0  0  0
  184.0410  178.6200  142.7200 C   0  0  0  0  0  3  0  0  0  0  0  0
  185.4040  178.4450  142.4700 C   0  0  0  0  0  0  0  0  0  0  0  0
  190.1080  176.4750  142.7050 C   0  0  2  0  0  3  0  0  0  0  0  0
  189.7200  177.9380  138.0830 O   0  0  0  0  0  0  0  0  0  0  0  0
  188.6600  177.9470  135.9550 C   0  0  0  0  0  1  0  0  0  0  0  0
  188.8440  178.6650  137.2750 C   0  0  0  0  0  2  0  0  0  0  0  0
  1 19  2  0  0  0  0
  2 13  2  0  0  0  0
  2 19  1  0  0  0  0
  3 10  2  0  0  0  0
  4  1  1  6  0  0  0
  4 20  1  0  0  0  0
  5  1  1  0  0  0  0
  6  8  2  0  0  0  0
  7 15  1  1  0  0  0
  7  9  1  0  0  0  0
  8 12  1  0  0  0  0
  9 14  1  0  0  0  0
 10 21  1  0  0  0  0
 11 28  1  6  0  0  0
 11  5  1  0  0  0  0
 11  8  1  0  0  0  0
 12  4  1  0  0  0  0
 12 27  1  0  0  0  0
 13 18  1  0  0  0  0
 15 23  1  0  0  0  0
 16  2  1  0  0  0  0
 17  3  1  0  0  0  0
 18 25  2  0  0  0  0
 19 26  1  0  0  0  0
 20 17  1  0  0  0  0
 20 22  2  0  0  0  0
 22  9  1  0  0  0  0
 22 10  1  0  0  0  0
 23 14  1  0  0  0  0
 26 25  1  0  0  0  0
 26 17  2  0  0  0  0
 27 24  1  1  0  0  0
 27  7  1  0  0  0  0
 29 30  1  0  0  0  0
 30 28  1  0  0  0  0
M  END
>  <MODEL>
1

>  <REMARK>
 VINA RESULT:      -9.5      0.000      0.000
  Name = 
  2 active torsions:
  status: ('A' for Active; 'I' for Inactive)
    1  A    between atoms: C_11  and  O_28
    2  A    between atoms: O_28  and  C_30
                            x       y       z     vdW  Elec       q    Type
                         _______ _______ _______ _____ _____    ______ ____

>  <TORSDO>
F 2

$$$$
=
 OpenBabel11122410283D

 30 35  0  0  1  0  0  0  0  0999 V2000
  189.1940  176.9890  143.2160 C   0  0  0  0  0  0  0  0  0  0  0  0
  191.2210  176.5940  144.5900 C   0  0  0  0  0  0  0  0  0  0  0  0
  186.9830  177.8210  146.7340 N   0  0  0  0  0  0  0  0  0  0  0  0
  187.6750  177.2130  143.0920 C   0  0  0  0  0  0  0  0  0  0  0  0
  189.9610  176.8370  141.9180 C   0  0  0  0  0  2  0  0  0  0  0  0
  187.8190  178.6270  139.7230 O   0  0  0  0  0  0  0  0  0  0  0  0
  184.9000  178.1250  142.3850 C   0  0  1  0  0  3  0  0  0  0  0  0
  188.0730  177.9200  140.7380 C   0  0  0  0  0  0  0  0  0  0  0  0
  184.7590  178.1670  143.8300 N   0  0  0  0  0  0  0  0  0  0  0  0
  185.8240  178.0770  146.2110 C   0  0  2  0  0  3  0  0  0  0  0  0
  189.0940  176.8260  140.6630 C   0  0  1  0  0  3  0  0  0  0  0  0
  187.3500  178.1100  141.9620 N   0  0  0  0  0  0  0  0  0  0  0  0
  191.7860  176.5360  145.8260 N   0  0  0  0  0  0  0  0  0  0  0  0
  183.4350  178.5820  144.2480 C   0  0  0  0  0  2  0  0  0  0  0  0
  183.6220  178.7240  141.8290 C   0  0  0  0  0  2  0  0  0  0  0  0
  192.0620  176.2950  143.4790 N   0  0  0  0  0  1  0  0  0  0  0  0
  187.8230  177.5220  145.6210 C   0  0  0  0  0  0  0  0  0  0  0  0
  191.0930  176.7760  146.9620 C   0  0  0  0  0  3  0  0  0  0  0  0
  189.8320  176.9170  144.4430 C   0  0  0  0  0  0  0  0  0  0  0  0
  187.0890  177.6370  144.4000 C   0  0  0  0  0  0  0  0  0  0  0  0
  184.6430  178.4360  147.0440 C   0  0  0  0  0  1  0  0  0  0  0  0
  185.8470  177.9500  144.7430 C   0  0  0  0  0  0  0  0  0  0  0  0
  182.6200  178.7090  142.9740 C   0  0  0  0  0  2  0  0  0  0  0  0
  186.3110  180.2700  142.5660 C   0  0  0  0  0  1  0  0  0  0  0  0
  189.7480  177.1010  146.8960 C   0  0  0  0  0  3  0  0  0  0  0  0
  189.1110  177.1760  145.6560 C   0  0  0  0  0  0  0  0  0  0  0  0
  186.1230  178.9120  141.8980 C   0  0  2  0  0  3  0  0  0  0  0  0
  189.9050  176.9730  139.5350 O   0  0  0  0  0  0  0  0  0  0  0  0
  192.2120  176.8090  138.9800 C   0  0  0  0  0  1  0  0  0  0  0  0
  191.1920  177.1670  140.0410 C   0  0  0  0  0  2  0  0  0  0  0  0
  1 19  1  0  0  0  0
  2 13  1  0  0  0  0
  4  1  2  0  0  0  0
  4 20  1  0  0  0  0
  5  1  1  0  0  0  0
  6  8  2  0  0  0  0
  7 15  1  6  0  0  0
  7  9  1  0  0  0  0
  8 12  1  0  0  0  0
  9 14  1  0  0  0  0
  9 22  1  0  0  0  0
 10  3  1  0  0  0  0
 10 21  1  1  0  0  0
 11 28  1  6  0  0  0
 11  8  1  0  0  0  0
 11  5  1  0  0  0  0
 12  4  1  0  0  0  0
 13 18  2  0  0  0  0
 15 23  1  0  0  0  0
 16  2  1  0  0  0  0
 17 26  1  0  0  0  0
 17  3  2  0  0  0  0
 19  2  2  0  0  0  0
 19 26  1  0  0  0  0
 20 22  2  0  0  0  0
 20 17  1  0  0  0  0
 22 10  1  0  0  0  0
 23 14  1  0  0  0  0
 25 18  1  0  0  0  0
 26 25  2  0  0  0  0
 27 12  1  0  0  0  0
 27  7  1  0  0  0  0
 27 24  1  1  0  0  0
 28 30  1  0  0  0  0
 29 30  1  0  0  0  0
M  END
>  <MODEL>
2

>  <REMARK>
 VINA RESULT:      -9.0      1.938      5.462
  Name = 
  2 active torsions:
  status: ('A' for Active; 'I' for Inactive)
    1  A    between atoms: C_11  and  O_28
    2  A    between atoms: O_28  and  C_30
                            x       y       z     vdW  Elec       q    Type
                         _______ _______ _______ _____ _____    ______ ____

>  <TORSDO>
F 2

$$$$
=
 OpenBabel11122410283D

 30 35  0  0  1  0  0  0  0  0999 V2000
  186.6850  178.4900  140.5590 C   0  0  0  0  0  0  0  0  0  0  0  0
  184.5870  178.7740  139.2670 C   0  0  0  0  0  0  0  0  0  0  0  0
  184.4470  178.3900  144.1550 N   0  0  0  0  0  0  0  0  0  0  0  0
  187.4480  178.4570  141.8970 C   0  0  2  0  0  3  0  0  0  0  0  0
  187.5250  178.3810  139.3020 C   0  0  0  0  0  2  0  0  0  0  0  0
  190.3410  176.6420  140.5900 O   0  0  0  0  0  0  0  0  0  0  0  0
  189.2470  177.8450  144.2260 C   0  0  1  0  0  3  0  0  0  0  0  0
  189.3530  177.4250  140.6710 C   0  0  0  0  0  0  0  0  0  0  0  0
  188.0080  177.9960  144.9680 N   0  0  0  0  0  0  0  0  0  0  0  0
  185.4080  178.2290  145.0100 C   0  0  0  0  0  0  0  0  0  0  0  0
  189.0310  178.3570  139.5420 C   0  0  1  0  0  3  0  0  0  0  0  0
  188.5590  177.4820  141.8640 N   0  0  0  0  0  0  0  0  0  0  0  0
  183.2340  178.9040  139.2760 N   0  0  0  0  0  0  0  0  0  0  0  0
  188.1890  177.8150  146.3940 C   0  0  0  0  0  2  0  0  0  0  0  0
  190.2740  177.3590  145.2310 C   0  0  0  0  0  2  0  0  0  0  0  0
  185.2340  178.8220  137.9980 N   0  0  0  0  0  1  0  0  0  0  0  0
  185.0950  178.4380  142.8860 C   0  0  0  0  0  0  0  0  0  0  0  0
  182.5020  178.8970  140.4140 C   0  0  0  0  0  3  0  0  0  0  0  0
  185.3080  178.6240  140.4970 C   0  0  0  0  0  0  0  0  0  0  0  0
  186.5060  178.2760  143.0440 C   0  0  0  0  0  0  0  0  0  0  0  0
  185.1570  178.1340  146.4750 C   0  0  0  0  0  1  0  0  0  0  0  0
  186.7250  178.1750  144.3480 C   0  0  0  0  0  0  0  0  0  0  0  0
  189.6820  177.6450  146.6040 C   0  0  0  0  0  2  0  0  0  0  0  0
  188.3600  175.5690  143.4150 C   0  0  0  0  0  1  0  0  0  0  0  0
  183.1320  178.7490  141.6380 C   0  0  0  0  0  3  0  0  0  0  0  0
  184.5210  178.6110  141.6950 C   0  0  0  0  0  0  0  0  0  0  0  0
  189.1120  176.8480  143.0670 C   0  0  2  0  0  3  0  0  0  0  0  0
  189.6830  177.9670  138.3690 O   0  0  0  0  0  0  0  0  0  0  0  0
  189.1330  177.9380  136.0560 C   0  0  0  0  0  1  0  0  0  0  0  0
  189.0760  178.7130  137.3560 C   0  0  0  0  0  2  0  0  0  0  0  0
  2 13  2  0  0  0  0
  2 19  1  0  0  0  0
  3 10  2  0  0  0  0
  4  1  1  6  0  0  0
  4 20  1  0  0  0  0
  5 11  1  0  0  0  0
  5  1  1  0  0  0  0
  6  8  2  0  0  0  0
  7  9  1  0  0  0  0
  7 15  1  1  0  0  0
  8 12  1  0  0  0  0
  9 14  1  0  0  0  0
 10 21  1  0  0  0  0
 11 28  1  6  0  0  0
 11  8  1  0  0  0  0
 12  4  1  0  0  0  0
 12 27  1  0  0  0  0
 13 18  1  0  0  0  0
 14 23  1  0  0  0  0
 15 23  1  0  0  0  0
 16  2  1  0  0  0  0
 17 20  1  0  0  0  0
 17  3  1  0  0  0  0
 18 25  2  0  0  0  0
 19  1  2  0  0  0  0
 19 26  1  0  0  0  0
 20 22  2  0  0  0  0
 22  9  1  0  0  0  0
 22 10  1  0  0  0  0
 25 26  1  0  0  0  0
 26 17  2  0  0  0  0
 27 24  1  1  0  0  0
 27  7  1  0  0  0  0
 29 30  1  0  0  0  0
 30 28  1  0  0  0  0
M  END
>  <MODEL>
3

>  <REMARK>
 VINA RESULT:      -9.0      1.011      1.215
  Name = 
  2 active torsions:
  status: ('A' for Active; 'I' for Inactive)
    1  A    between atoms: C_11  and  O_28
    2  A    between atoms: O_28  and  C_30
                            x       y       z     vdW  Elec       q    Type
                         _______ _______ _______ _____ _____    ______ ____

>  <TORSDO>
F 2

$$$$
=
 OpenBabel11122410283D

 30 35  0  0  1  0  0  0  0  0999 V2000
  186.9600  177.6960  144.8860 C   0  0  0  0  0  0  0  0  0  0  0  0
  184.7260  178.5080  145.5930 C   0  0  0  0  0  0  0  0  0  0  0  0
  186.0820  178.7880  140.8880 N   0  0  0  0  0  0  0  0  0  0  0  0
  187.9680  177.3160  143.7840 C   0  0  0  0  0  0  0  0  0  0  0  0
  187.3840  177.4110  146.3130 C   0  0  0  0  0  2  0  0  0  0  0  0
  190.9140  177.5150  145.9410 O   0  0  0  0  0  0  0  0  0  0  0  0
  190.3820  176.9100  142.0400 C   0  0  1  0  0  3  0  0  0  0  0  0
  189.7340  177.3140  145.5390 C   0  0  0  0  0  0  0  0  0  0  0  0
  189.4670  177.3660  141.0080 N   0  0  0  0  0  0  0  0  0  0  0  0
  187.1900  178.4350  140.3130 C   0  0  0  0  0  0  0  0  0  0  0  0
  188.7210  176.6880  146.4490 C   0  0  1  0  0  3  0  0  0  0  0  0
  189.3570  177.6230  144.1900 N   0  0  0  0  0  0  0  0  0  0  0  0
  183.5330  179.0570  145.2430 N   0  0  0  0  0  0  0  0  0  0  0  0
  190.0820  177.3990  139.6960 C   0  0  0  0  0  2  0  0  0  0  0  0
  191.7400  176.8050  141.3710 C   0  0  0  0  0  2  0  0  0  0  0  0
  184.9110  178.1810  146.9680 N   0  0  0  0  0  1  0  0  0  0  0  0
  186.2670  178.4610  142.2630 C   0  0  2  0  0  3  0  0  0  0  0  0
  183.2240  179.3920  143.9690 C   0  0  0  0  0  3  0  0  0  0  0  0
  185.7260  178.2540  144.5980 C   0  0  0  0  0  0  0  0  0  0  0  0
  187.5690  177.9070  142.4690 C   0  0  0  0  0  0  0  0  0  0  0  0
  187.4110  178.6040  138.8500 C   0  0  0  0  0  1  0  0  0  0  0  0
  188.1440  177.8550  141.2760 C   0  0  0  0  0  0  0  0  0  0  0  0
  191.4700  176.8110  139.8740 C   0  0  0  0  0  2  0  0  0  0  0  0
  190.5140  179.3490  142.8530 C   0  0  0  0  0  1  0  0  0  0  0  0
  184.1450  179.1820  142.9570 C   0  0  0  0  0  3  0  0  0  0  0  0
  185.3890  178.6210  143.2530 C   0  0  0  0  0  0  0  0  0  0  0  0
  190.4390  177.8740  143.2320 C   0  0  2  0  0  3  0  0  0  0  0  0
  189.1440  176.7380  147.7790 O   0  0  0  0  0  0  0  0  0  0  0  0
  189.0640  178.6290  149.2190 C   0  0  0  0  0  1  0  0  0  0  0  0
  188.2690  177.6320  148.4010 C   0  0  0  0  0  2  0  0  0  0  0  0
  1  5  1  0  0  0  0
  2 16  1  0  0  0  0
  4 12  1  0  0  0  0
  4  1  2  0  0  0  0
  5 11  1  0  0  0  0
  7 15  1  6  0  0  0
  7 27  1  0  0  0  0
  8  6  2  0  0  0  0
  8 11  1  0  0  0  0
  9 22  1  0  0  0  0
  9  7  1  0  0  0  0
 10  3  2  0  0  0  0
 10 22  1  0  0  0  0
 11 28  1  1  0  0  0
 12  8  1  0  0  0  0
 13  2  1  0  0  0  0
 14 23  1  0  0  0  0
 14  9  1  0  0  0  0
 17  3  1  6  0  0  0
 17 20  1  0  0  0  0
 17 26  1  0  0  0  0
 18 13  2  0  0  0  0
 19  1  1  0  0  0  0
 19  2  2  0  0  0  0
 20  4  1  0  0  0  0
 21 10  1  0  0  0  0
 22 20  2  0  0  0  0
 23 15  1  0  0  0  0
 25 26  2  0  0  0  0
 25 18  1  0  0  0  0
 26 19  1  0  0  0  0
 27 24  1  6  0  0  0
 27 12  1  0  0  0  0
 28 30  1  0  0  0  0
 30 29  1  0  0  0  0
M  END
>  <MODEL>
4

>  <REMARK>
 VINA RESULT:      -8.9      2.342      5.726
  Name = 
  2 active torsions:
  status: ('A' for Active; 'I' for Inactive)
    1  A    between atoms: C_11  and  O_28
    2  A    between atoms: O_28  and  C_30
                            x       y       z     vdW  Elec       q    Type
                         _______ _______ _______ _____ _____    ______ ____

>  <TORSDO>
F 2

$$$$
=
 OpenBabel11122410283D

 30 35  0  0  1  0  0  0  0  0999 V2000
  187.9650  177.3330  144.0940 C   0  0  0  0  0  0  0  0  0  0  0  0
  186.9690  177.8120  146.3140 C   0  0  0  0  0  0  0  0  0  0  0  0
  184.5570  179.0060  142.2140 N   0  0  0  0  0  0  0  0  0  0  0  0
  187.8520  177.2370  142.5600 C   0  0  0  0  0  0  0  0  0  0  0  0
  189.2650  176.8480  144.7050 C   0  0  0  0  0  2  0  0  0  0  0  0
  191.4570  177.3280  141.9530 O   0  0  0  0  0  0  0  0  0  0  0  0
  188.2560  177.3490  139.5840 C   0  0  1  0  0  3  0  0  0  0  0  0
  190.3370  177.0940  142.4870 C   0  0  0  0  0  0  0  0  0  0  0  0
  186.9080  177.8910  139.6210 N   0  0  0  0  0  0  0  0  0  0  0  0
  184.8930  178.8560  140.9710 C   0  0  0  0  0  0  0  0  0  0  0  0
  190.2460  176.2350  143.7120 C   0  0  1  0  0  3  0  0  0  0  0  0
  189.1270  177.5930  141.9000 N   0  0  0  0  0  0  0  0  0  0  0  0
  185.9220  178.3040  147.0290 N   0  0  0  0  0  0  0  0  0  0  0  0
  186.3980  178.2010  138.3010 C   0  0  0  0  0  2  0  0  0  0  0  0
  188.7130  177.4800  138.1440 C   0  0  0  0  0  2  0  0  0  0  0  0
  188.0630  177.2740  147.0540 N   0  0  0  0  0  1  0  0  0  0  0  0
  185.6510  178.4680  142.9520 C   0  0  2  0  0  3  0  0  0  0  0  0
  184.8160  178.8220  146.4490 C   0  0  0  0  0  3  0  0  0  0  0  0
  186.9360  177.8210  144.8810 C   0  0  0  0  0  0  0  0  0  0  0  0
  186.6690  178.0040  142.0630 C   0  0  0  0  0  0  0  0  0  0  0  0
  184.0090  179.2900  139.8530 C   0  0  0  0  0  1  0  0  0  0  0  0
  186.2110  178.2070  140.8360 C   0  0  0  0  0  0  0  0  0  0  0  0
  187.4530  177.7170  137.3240 C   0  0  0  0  0  2  0  0  0  0  0  0
  189.0790  179.6160  140.4820 C   0  0  0  0  0  1  0  0  0  0  0  0
  184.7180  178.8690  145.0680 C   0  0  0  0  0  3  0  0  0  0  0  0
  185.7600  178.3790  144.2790 C   0  0  0  0  0  0  0  0  0  0  0  0
  189.2090  178.0980  140.5250 C   0  0  2  0  0  3  0  0  0  0  0  0
  191.4970  176.0950  144.3190 O   0  0  0  0  0  0  0  0  0  0  0  0
  192.0810  175.9400  146.6190 C   0  0  0  0  0  1  0  0  0  0  0  0
  191.3740  176.7450  145.5490 C   0  0  0  0  0  2  0  0  0  0  0  0
  1  5  1  0  0  0  0
  1 19  1  0  0  0  0
  2 13  1  0  0  0  0
  2 16  1  0  0  0  0
  3 17  1  0  0  0  0
  4  1  2  0  0  0  0
  6  8  2  0  0  0  0
  7 15  1  6  0  0  0
  7  9  1  0  0  0  0
  7 27  1  0  0  0  0
  8 11  1  0  0  0  0
  9 22  1  0  0  0  0
 10  3  2  0  0  0  0
 11 28  1  1  0  0  0
 11  5  1  0  0  0  0
 12  8  1  0  0  0  0
 12  4  1  0  0  0  0
 14  9  1  0  0  0  0
 17 20  1  6  0  0  0
 17 26  1  0  0  0  0
 18 13  2  0  0  0  0
 19  2  2  0  0  0  0
 20  4  1  0  0  0  0
 21 10  1  0  0  0  0
 22 10  1  0  0  0  0
 22 20  2  0  0  0  0
 23 15  1  0  0  0  0
 23 14  1  0  0  0  0
 25 18  1  0  0  0  0
 26 19  1  0  0  0  0
 26 25  2  0  0  0  0
 27 24  1  1  0  0  0
 27 12  1  0  0  0  0
 28 30  1  0  0  0  0
 30 29  1  0  0  0  0
M  END
>  <MODEL>
5

>  <REMARK>
 VINA RESULT:      -7.7      1.669      5.735
  Name = 
  2 active torsions:
  status: ('A' for Active; 'I' for Inactive)
    1  A    between atoms: C_11  and  O_28
    2  A    between atoms: O_28  and  C_30
                            x       y       z     vdW  Elec       q    Type
                         _______ _______ _______ _____ _____    ______ ____

>  <TORSDO>
F 2

$$$$
=
 OpenBabel11122410283D

 30 35  0  0  1  0  0  0  0  0999 V2000
  188.4470  177.2430  144.1810 C   0  0  0  0  0  0  0  0  0  0  0  0
  189.8280  177.2390  146.2410 C   0  0  0  0  0  0  0  0  0  0  0  0
  185.1100  178.5660  146.4320 N   0  0  0  0  0  0  0  0  0  0  0  0
  187.0800  177.3420  143.4770 C   0  0  0  0  0  0  0  0  0  0  0  0
  189.6330  176.9030  143.3020 C   0  0  0  0  0  2  0  0  0  0  0  0
  188.4560  178.1160  140.1790 O   0  0  0  0  0  0  0  0  0  0  0  0
  184.7620  177.9280  141.6550 C   0  0  1  0  0  3  0  0  0  0  0  0
  188.3160  177.6270  141.3350 C   0  0  0  0  0  0  0  0  0  0  0  0
  184.1040  178.2260  142.9150 N   0  0  0  0  0  0  0  0  0  0  0  0
  184.2240  178.6460  145.4880 C   0  0  0  0  0  0  0  0  0  0  0  0
  189.2850  176.6050  141.8480 C   0  0  1  0  0  3  0  0  0  0  0  0
  187.1970  177.9930  142.1540 N   0  0  0  0  0  0  0  0  0  0  0  0
  189.9020  177.4470  147.5830 N   0  0  0  0  0  0  0  0  0  0  0  0
  182.7220  178.6250  142.7380 C   0  0  0  0  0  2  0  0  0  0  0  0
  183.7810  178.3300  140.5710 C   0  0  0  0  0  2  0  0  0  0  0  0
  191.0150  176.7950  145.5880 N   0  0  0  0  0  1  0  0  0  0  0  0
  186.2960  178.1220  145.7770 C   0  0  2  0  0  3  0  0  0  0  0  0
  188.8430  177.8470  148.3230 C   0  0  0  0  0  3  0  0  0  0  0  0
  188.5910  177.4390  145.5440 C   0  0  0  0  0  0  0  0  0  0  0  0
  186.0590  177.9620  144.3770 C   0  0  0  0  0  0  0  0  0  0  0  0
  182.8230  179.0770  145.7530 C   0  0  0  0  0  1  0  0  0  0  0  0
  184.7810  178.2520  144.1810 C   0  0  0  0  0  0  0  0  0  0  0  0
  182.4300  178.4630  141.2580 C   0  0  0  0  0  2  0  0  0  0  0  0
  186.0260  180.1550  141.9090 C   0  0  0  0  0  1  0  0  0  0  0  0
  187.6180  178.0670  147.7150 C   0  0  0  0  0  3  0  0  0  0  0  0
  187.4790  177.8710  146.3400 C   0  0  0  0  0  0  0  0  0  0  0  0
  186.0850  178.6880  141.4970 C   0  0  2  0  0  3  0  0  0  0  0  0
  190.4540  176.5930  141.0820 O   0  0  0  0  0  0  0  0  0  0  0  0
  192.5940  177.6160  140.9260 C   0  0  0  0  0  1  0  0  0  0  0  0
  191.2620  177.5840  141.6440 C   0  0  0  0  0  2  0  0  0  0  0  0
  1 19  1  0  0  0  0
  2 13  1  0  0  0  0
  4  1  2  0  0  0  0
  4 20  1  0  0  0  0
  5  1  1  0  0  0  0
  6  8  2  0  0  0  0
  7 15  1  6  0  0  0
  7  9  1  0  0  0  0
  8 11  1  0  0  0  0
  8 12  1  0  0  0  0
  9 22  1  0  0  0  0
 10 21  1  0  0  0  0
 10  3  2  0  0  0  0
 11 28  1  6  0  0  0
 11  5  1  0  0  0  0
 12  4  1  0  0  0  0
 13 18  2  0  0  0  0
 14  9  1  0  0  0  0
 15 23  1  0  0  0  0
 16  2  1  0  0  0  0
 17 20  1  1  0  0  0
 17 26  1  0  0  0  0
 17  3  1  0  0  0  0
 19  2  2  0  0  0  0
 19 26  1  0  0  0  0
 22 20  2  0  0  0  0
 22 10  1  0  0  0  0
 23 14  1  0  0  0  0
 25 18  1  0  0  0  0
 26 25  2  0  0  0  0
 27  7  1  0  0  0  0
 27 24  1  1  0  0  0
 27 12  1  0  0  0  0
 28 30  1  0  0  0  0
 29 30  1  0  0  0  0
M  END
>  <MODEL>
6

>  <REMARK>
 VINA RESULT:      -7.7      2.063      5.726
  Name = 
  2 active torsions:
  status: ('A' for Active; 'I' for Inactive)
    1  A    between atoms: C_11  and  O_28
    2  A    between atoms: O_28  and  C_30
                            x       y       z     vdW  Elec       q    Type
                         _______ _______ _______ _____ _____    ______ ____

>  <TORSDO>
F 2

$$$$
=
 OpenBabel11122410283D

 30 35  0  0  1  0  0  0  0  0999 V2000
  186.1510  177.9580  143.2760 C   0  0  0  0  0  0  0  0  0  0  0  0
  183.8320  178.6470  142.7260 C   0  0  0  0  0  0  0  0  0  0  0  0
  187.2800  178.5670  139.2380 N   0  0  0  0  0  0  0  0  0  0  0  0
  187.5740  177.5560  142.8440 C   0  0  2  0  0  3  0  0  0  0  0  0
  185.8420  177.8540  144.7560 C   0  0  0  0  0  2  0  0  0  0  0  0
  189.1100  178.2160  146.0960 O   0  0  0  0  0  0  0  0  0  0  0  0
  190.5390  177.1810  142.5250 C   0  0  1  0  0  3  0  0  0  0  0  0
  188.2750  177.8780  145.2110 C   0  0  0  0  0  0  0  0  0  0  0  0
  190.2230  177.4530  141.1340 N   0  0  0  0  0  0  0  0  0  0  0  0
  188.5360  178.2530  139.3090 C   0  0  0  0  0  0  0  0  0  0  0  0
  186.9650  177.2630  145.6020 C   0  0  1  0  0  3  0  0  0  0  0  0
  188.5870  178.0170  143.8180 N   0  0  0  0  0  0  0  0  0  0  0  0
  182.9410  179.0560  141.7840 N   0  0  0  0  0  0  0  0  0  0  0  0
  191.3930  177.4070  140.2790 C   0  0  0  0  0  2  0  0  0  0  0  0
  192.0530  177.1240  142.6010 C   0  0  0  0  0  2  0  0  0  0  0  0
  183.3390  178.4760  144.0530 N   0  0  0  0  0  1  0  0  0  0  0  0
  186.7880  178.3960  140.5650 C   0  0  0  0  0  0  0  0  0  0  0  0
  183.2760  179.2360  140.4850 C   0  0  0  0  0  3  0  0  0  0  0  0
  185.1940  178.3800  142.3680 C   0  0  0  0  0  0  0  0  0  0  0  0
  187.8420  177.9760  141.4340 C   0  0  0  0  0  0  0  0  0  0  0  0
  189.4310  178.2930  138.1200 C   0  0  0  0  0  1  0  0  0  0  0  0
  188.9220  177.8540  140.6750 C   0  0  0  0  0  0  0  0  0  0  0  0
  192.5370  176.9580  141.1690 C   0  0  0  0  0  2  0  0  0  0  0  0
  190.2010  179.6910  142.9830 C   0  0  0  0  0  1  0  0  0  0  0  0
  184.5760  179.0030  140.0690 C   0  0  0  0  0  3  0  0  0  0  0  0
  185.5370  178.5810  140.9900 C   0  0  0  0  0  0  0  0  0  0  0  0
  189.9900  178.2610  143.4660 C   0  0  2  0  0  3  0  0  0  0  0  0
  186.6930  177.4810  146.9550 O   0  0  0  0  0  0  0  0  0  0  0  0
  186.2730  179.6930  147.7190 C   0  0  0  0  0  1  0  0  0  0  0  0
  185.7310  178.4930  146.9700 C   0  0  0  0  0  2  0  0  0  0  0  0
  1  5  1  0  0  0  0
  2 16  1  0  0  0  0
  3 10  2  0  0  0  0
  3 17  1  0  0  0  0
  4 20  1  6  0  0  0
  4  1  1  0  0  0  0
  4 12  1  0  0  0  0
  5 11  1  0  0  0  0
  7 15  1  6  0  0  0
  7 27  1  0  0  0  0
  8 11  1  0  0  0  0
  8  6  2  0  0  0  0
  9  7  1  0  0  0  0
 10 22  1  0  0  0  0
 11 28  1  1  0  0  0
 12  8  1  0  0  0  0
 13  2  2  0  0  0  0
 14  9  1  0  0  0  0
 14 23  1  0  0  0  0
 17 26  2  0  0  0  0
 17 20  1  0  0  0  0
 18 13  1  0  0  0  0
 19  2  1  0  0  0  0
 19  1  2  0  0  0  0
 21 10  1  0  0  0  0
 22  9  1  0  0  0  0
 22 20  2  0  0  0  0
 23 15  1  0  0  0  0
 25 18  2  0  0  0  0
 25 26  1  0  0  0  0
 26 19  1  0  0  0  0
 27 24  1  6  0  0  0
 27 12  1  0  0  0  0
 28 30  1  0  0  0  0
 30 29  1  0  0  0  0
M  END
>  <MODEL>
7

>  <REMARK>
 VINA RESULT:      -7.7      2.357      5.330
  Name = 
  2 active torsions:
  status: ('A' for Active; 'I' for Inactive)
    1  A    between atoms: C_11  and  O_28
    2  A    between atoms: O_28  and  C_30
                            x       y       z     vdW  Elec       q    Type
                         _______ _______ _______ _____ _____    ______ ____

>  <TORSDO>
F 2

$$$$
=
 OpenBabel11122410283D

 30 35  0  0  1  0  0  0  0  0999 V2000
  186.7360  178.2510  140.9440 C   0  0  0  0  0  0  0  0  0  0  0  0
  186.9630  177.9300  143.3930 C   0  0  0  0  0  0  0  0  0  0  0  0
  190.5900  176.5850  140.3770 N   0  0  0  0  0  0  0  0  0  0  0  0
  187.3390  178.2640  139.5270 C   0  0  0  0  0  0  0  0  0  0  0  0
  185.3020  178.7270  141.0700 C   0  0  0  0  0  2  0  0  0  0  0  0
  184.1280  178.0230  137.7940 O   0  0  0  0  0  0  0  0  0  0  0  0
  187.9240  177.9710  136.5930 C   0  0  1  0  0  3  0  0  0  0  0  0
  185.0110  178.3230  138.6450 C   0  0  0  0  0  0  0  0  0  0  0  0
  189.1930  177.4760  137.0980 N   0  0  0  0  0  0  0  0  0  0  0  0
  190.6730  176.6540  139.0850 C   0  0  0  0  0  0  0  0  0  0  0  0
  184.6890  179.2520  139.7760 C   0  0  1  0  0  3  0  0  0  0  0  0
  186.3520  177.8310  138.5130 N   0  0  0  0  0  0  0  0  0  0  0  0
  187.7270  177.5130  144.4370 N   0  0  0  0  0  0  0  0  0  0  0  0
  190.1080  177.1090  136.0370 C   0  0  0  0  0  2  0  0  0  0  0  0
  187.9610  177.7440  135.0940 C   0  0  0  0  0  2  0  0  0  0  0  0
  185.6820  178.4740  143.7040 N   0  0  0  0  0  1  0  0  0  0  0  0
  189.3090  177.1280  140.6870 C   0  0  2  0  0  3  0  0  0  0  0  0
  188.9680  176.9990  144.2800 C   0  0  0  0  0  3  0  0  0  0  0  0
  187.4600  177.8420  142.0510 C   0  0  0  0  0  0  0  0  0  0  0  0
  188.6280  177.5080  139.4880 C   0  0  0  0  0  0  0  0  0  0  0  0
  191.8770  176.1860  138.3430 C   0  0  0  0  0  1  0  0  0  0  0  0
  189.4630  177.2510  138.4910 C   0  0  0  0  0  0  0  0  0  0  0  0
  189.4210  177.5030  134.7420 C   0  0  0  0  0  2  0  0  0  0  0  0
  186.8820  175.7330  137.3200 C   0  0  0  0  0  1  0  0  0  0  0  0
  189.5100  176.8770  143.0110 C   0  0  0  0  0  3  0  0  0  0  0  0
  188.7740  177.2880  141.8980 C   0  0  0  0  0  0  0  0  0  0  0  0
  186.7270  177.2460  137.2210 C   0  0  2  0  0  3  0  0  0  0  0  0
  183.3070  179.3850  139.9370 O   0  0  0  0  0  0  0  0  0  0  0  0
  181.5030  178.6290  141.2890 C   0  0  0  0  0  1  0  0  0  0  0  0
  183.0010  178.6240  141.0660 C   0  0  0  0  0  2  0  0  0  0  0  0
  1  5  1  0  0  0  0
  1 19  1  0  0  0  0
  2 16  1  0  0  0  0
  2 13  1  0  0  0  0
  3 17  1  0  0  0  0
  4  1  2  0  0  0  0
  6  8  2  0  0  0  0
  7 15  1  6  0  0  0
  7  9  1  0  0  0  0
  7 27  1  0  0  0  0
  8 11  1  0  0  0  0
  9 22  1  0  0  0  0
 10  3  2  0  0  0  0
 11 28  1  1  0  0  0
 11  5  1  0  0  0  0
 12  8  1  0  0  0  0
 12  4  1  0  0  0  0
 14  9  1  0  0  0  0
 17 20  1  1  0  0  0
 17 26  1  0  0  0  0
 18 13  2  0  0  0  0
 19  2  2  0  0  0  0
 20  4  1  0  0  0  0
 21 10  1  0  0  0  0
 22 10  1  0  0  0  0
 22 20  2  0  0  0  0
 23 15  1  0  0  0  0
 23 14  1  0  0  0  0
 25 18  1  0  0  0  0
 26 19  1  0  0  0  0
 26 25  2  0  0  0  0
 27 24  1  1  0  0  0
 27 12  1  0  0  0  0
 28 30  1  0  0  0  0
 30 29  1  0  0  0  0
M  END
>  <MODEL>
8

>  <REMARK>
 VINA RESULT:      -7.6      2.338      6.588
  Name = 
  2 active torsions:
  status: ('A' for Active; 'I' for Inactive)
    1  A    between atoms: C_11  and  O_28
    2  A    between atoms: O_28  and  C_30
                            x       y       z     vdW  Elec       q    Type
                         _______ _______ _______ _____ _____    ______ ____

>  <TORSDO>
F 2

$$$$
=
 OpenBabel11122410283D

 30 35  0  0  1  0  0  0  0  0999 V2000
  188.1910  177.7920  141.0290 C   0  0  0  0  0  0  0  0  0  0  0  0
  190.5870  177.5080  140.4580 C   0  0  0  0  0  0  0  0  0  0  0  0
  189.1630  177.6320  145.1500 N   0  0  0  0  0  0  0  0  0  0  0  0
  187.0410  177.7790  142.0540 C   0  0  2  0  0  3  0  0  0  0  0  0
  187.7980  177.9930  139.5790 C   0  0  0  0  0  2  0  0  0  0  0  0
  184.7440  179.7530  140.0040 O   0  0  0  0  0  0  0  0  0  0  0  0
  184.6000  178.3280  143.7200 C   0  0  1  0  0  3  0  0  0  0  0  0
  185.6420  178.9350  140.3480 C   0  0  0  0  0  0  0  0  0  0  0  0
  185.5350  178.0980  144.8080 N   0  0  0  0  0  0  0  0  0  0  0  0
  187.9810  177.7790  145.6620 C   0  0  0  0  0  0  0  0  0  0  0  0
  186.2950  178.0530  139.3280 C   0  0  1  0  0  3  0  0  0  0  0  0
  186.0120  178.7910  141.7270 N   0  0  0  0  0  0  0  0  0  0  0  0
  191.8650  177.3330  140.8890 N   0  0  0  0  0  0  0  0  0  0  0  0
  184.9100  178.2100  146.1110 C   0  0  0  0  0  2  0  0  0  0  0  0
  183.3130  178.7930  144.3740 C   0  0  0  0  0  2  0  0  0  0  0  0
  190.3790  177.5460  139.0480 N   0  0  0  0  0  1  0  0  0  0  0  0
  188.9540  177.6710  143.7400 C   0  0  0  0  0  0  0  0  0  0  0  0
  192.1940  177.2570  142.1990 C   0  0  0  0  0  3  0  0  0  0  0  0
  189.5130  177.6160  141.4000 C   0  0  0  0  0  0  0  0  0  0  0  0
  187.5680  177.8700  143.4500 C   0  0  0  0  0  0  0  0  0  0  0  0
  187.7520  177.7900  147.1340 C   0  0  0  0  0  1  0  0  0  0  0  0
  186.9460  177.9100  144.6200 C   0  0  0  0  0  0  0  0  0  0  0  0
  183.4310  178.4180  145.8440 C   0  0  0  0  0  2  0  0  0  0  0  0
  185.7320  180.6130  143.3720 C   0  0  0  0  0  1  0  0  0  0  0  0
  191.2080  177.3610  143.1660 C   0  0  0  0  0  3  0  0  0  0  0  0
  189.8760  177.5420  142.7860 C   0  0  0  0  0  0  0  0  0  0  0  0
  185.1130  179.3780  142.7270 C   0  0  2  0  0  3  0  0  0  0  0  0
  186.0580  178.5240  138.0340 O   0  0  0  0  0  0  0  0  0  0  0  0
  186.8770  177.7720  135.9320 C   0  0  0  0  0  1  0  0  0  0  0  0
  187.2290  178.2410  137.3280 C   0  0  0  0  0  2  0  0  0  0  0  0
  1 19  2  0  0  0  0
  2 13  2  0  0  0  0
  2 19  1  0  0  0  0
  3 10  2  0  0  0  0
  4  1  1  6  0  0  0
  4 20  1  0  0  0  0
  5  1  1  0  0  0  0
  6  8  2  0  0  0  0
  7 15  1  1  0  0  0
  7  9  1  0  0  0  0
  8 12  1  0  0  0  0
  9 14  1  0  0  0  0
 10 21  1  0  0  0  0
 11 28  1  6  0  0  0
 11  5  1  0  0  0  0
 11  8  1  0  0  0  0
 12  4  1  0  0  0  0
 12 27  1  0  0  0  0
 13 18  1  0  0  0  0
 15 23  1  0  0  0  0
 16  2  1  0  0  0  0
 17  3  1  0  0  0  0
 18 25  2  0  0  0  0
 19 26  1  0  0  0  0
 20 17  1  0  0  0  0
 20 22  2  0  0  0  0
 22  9  1  0  0  0  0
 22 10  1  0  0  0  0
 23 14  1  0  0  0  0
 26 25  1  0  0  0  0
 26 17  2  0  0  0  0
 27 24  1  1  0  0  0
 27  7  1  0  0  0  0
 29 30  1  0  0  0  0
 30 28  1  0  0  0  0
M  END
>  <MODEL>
9

>  <REMARK>
 VINA RESULT:      -7.3      1.999      4.950
  Name = 
  2 active torsions:
  status: ('A' for Active; 'I' for Inactive)
    1  A    between atoms: C_11  and  O_28
    2  A    between atoms: O_28  and  C_30
                            x       y       z     vdW  Elec       q    Type
                         _______ _______ _______ _____ _____    ______ ____

>  <TORSDO>
F 2

$$$$
