=
 OpenBabel11122412013D

 28 32  0  0  1  0  0  0  0  0999 V2000
  189.4110  177.9100  137.7320 C   0  0  0  0  0  0  0  0  0  0  0  0
  193.3180  176.1730  134.7360 O   0  0  0  0  0  0  0  0  0  0  0  0
  187.2720  173.7970  137.3330 C   0  0  0  0  0  1  0  0  0  0  0  0
  189.8520  176.8560  140.2870 C   0  0  0  0  0  3  0  0  0  0  0  0
  189.4180  173.1760  136.2710 C   0  0  2  0  0  3  0  0  0  0  0  0
  189.1610  178.3950  136.4460 O   0  0  0  0  0  0  0  0  0  0  0  0
  194.2180  177.0080  136.8630 O   0  0  0  0  0  0  0  0  0  0  0  0
  193.6210  175.8200  136.1650 S   0  0  0  0  0  0  0  0  0  0  0  0
  194.0680  173.2110  136.7380 C   0  0  2  0  0  3  0  0  0  0  0  0
  192.1220  175.3040  137.0090 C   0  0  2  0  0  3  0  0  0  0  0  0
  185.7830  177.5030  135.1150 C   0  0  0  0  0  1  0  0  0  0  0  0
  190.0510  175.4420  135.7590 C   0  0  1  0  0  3  0  0  0  0  0  0
  192.7020  173.0600  136.0770 C   0  0  0  0  0  2  0  0  0  0  0  0
  194.7630  174.4550  136.2080 C   0  0  0  0  0  2  0  0  0  0  0  0
  187.0710  177.2810  135.8770 C   0  0  1  0  0  3  0  0  0  0  0  0
  190.3190  176.8520  137.9000 C   0  0  0  0  0  0  0  0  0  0  0  0
  188.2010  174.0630  136.1640 C   0  0  2  0  0  3  0  0  0  0  0  0
  194.9160  171.9960  136.4310 C   0  0  0  0  0  1  0  0  0  0  0  0
  187.8810  176.1800  135.1980 C   0  0  0  0  0  2  0  0  0  0  0  0
  190.5240  176.3220  139.1850 C   0  0  0  0  0  3  0  0  0  0  0  0
  188.7290  178.4350  138.8390 C   0  0  0  0  0  3  0  0  0  0  0  0
  188.9550  177.9130  140.1140 C   0  0  0  0  0  3  0  0  0  0  0  0
  187.8420  178.6000  135.9530 C   0  0  0  0  0  2  0  0  0  0  0  0
  190.5650  174.0170  135.7740 C   0  0  1  0  0  3  0  0  0  0  0  0
  188.6520  175.4470  136.1950 N   0  0  2  0  0  0  0  0  0  0  0  0
  191.6890  173.9240  136.7040 N   0  0  2  0  0  0  0  0  0  0  0  0
  189.2640  172.0560  135.4540 O   0  0  0  0  0  1  0  0  0  0  0  0
  190.9780  176.2440  136.6760 C   0  0  1  0  0  3  0  0  0  0  0  0
  1 16  2  0  0  0  0
  1 21  1  0  0  0  0
  2  8  2  0  0  0  0
  5 27  1  6  0  0  0
  6  1  1  0  0  0  0
  8 14  1  0  0  0  0
  8  7  2  0  0  0  0
  9 18  1  6  0  0  0
 10  8  1  6  0  0  0
 11 15  1  0  0  0  0
 12 24  1  0  0  0  0
 12 25  1  0  0  0  0
 12 28  1  0  0  0  0
 13 26  1  0  0  0  0
 13  9  1  0  0  0  0
 14  9  1  0  0  0  0
 15 23  1  0  0  0  0
 16 20  1  0  0  0  0
 17 25  1  0  0  0  0
 17  5  1  0  0  0  0
 17  3  1  0  0  0  0
 19 15  1  0  0  0  0
 19 25  1  0  0  0  0
 20  4  2  0  0  0  0
 21 22  2  0  0  0  0
 22  4  1  0  0  0  0
 23  6  1  0  0  0  0
 24  5  1  0  0  0  0
 24 26  1  0  0  0  0
 26 10  1  0  0  0  0
 28 10  1  0  0  0  0
 28 16  1  0  0  0  0
M  END
>  <MODEL>
1

>  <REMARK>
 VINA RESULT:      -6.1      0.000      0.000
  Name = 
  0 active torsions:
  status: ('A' for Active; 'I' for Inactive)
                            x       y       z     vdW  Elec       q    Type
                         _______ _______ _______ _____ _____    ______ ____

>  <TORSDO>
F 0

$$$$
=
 OpenBabel11122412013D

 28 32  0  0  1  0  0  0  0  0999 V2000
  179.3220  176.9920  138.2970 C   0  0  0  0  0  0  0  0  0  0  0  0
  180.1380  180.4980  142.0790 O   0  0  0  0  0  0  0  0  0  0  0  0
  183.8730  176.9760  137.3260 C   0  0  0  0  0  1  0  0  0  0  0  0
  180.0620  174.5080  139.3560 C   0  0  0  0  0  3  0  0  0  0  0  0
  183.9640  178.3320  139.3930 C   0  0  2  0  0  3  0  0  0  0  0  0
  179.0010  178.2360  137.7510 O   0  0  0  0  0  0  0  0  0  0  0  0
  178.9630  178.5470  143.0020 O   0  0  0  0  0  0  0  0  0  0  0  0
  180.3080  179.1230  142.6610 S   0  0  0  0  0  0  0  0  0  0  0  0
  182.6640  178.5650  143.8760 C   0  0  2  0  0  3  0  0  0  0  0  0
  181.1510  178.0530  141.4900 C   0  0  2  0  0  3  0  0  0  0  0  0
  180.8410  179.0290  134.5940 C   0  0  0  0  0  1  0  0  0  0  0  0
  181.6470  178.9830  139.3080 C   0  0  1  0  0  3  0  0  0  0  0  0
  183.2130  179.0110  142.5250 C   0  0  0  0  0  2  0  0  0  0  0  0
  181.3140  179.2210  144.1260 C   0  0  0  0  0  2  0  0  0  0  0  0
  180.6640  178.4620  135.9860 C   0  0  1  0  0  3  0  0  0  0  0  0
  180.0880  176.9380  139.4740 C   0  0  0  0  0  0  0  0  0  0  0  0
  183.4410  178.2760  137.9770 C   0  0  2  0  0  3  0  0  0  0  0  0
  183.6250  178.9690  144.9720 C   0  0  0  0  0  1  0  0  0  0  0  0
  181.5490  179.2310  136.9630 C   0  0  0  0  0  2  0  0  0  0  0  0
  180.4630  175.6860  139.9900 C   0  0  0  0  0  3  0  0  0  0  0  0
  178.9310  175.8070  137.6580 C   0  0  0  0  0  3  0  0  0  0  0  0
  179.2940  174.5690  138.1910 C   0  0  0  0  0  3  0  0  0  0  0  0
  179.1860  178.5320  136.3710 C   0  0  0  0  0  2  0  0  0  0  0  0
  182.8800  179.0130  140.1880 C   0  0  1  0  0  3  0  0  0  0  0  0
  181.9880  178.3440  138.0350 N   0  0  2  0  0  0  0  0  0  0  0  0
  182.6140  178.2600  141.4110 N   0  0  2  0  0  0  0  0  0  0  0  0
  185.1320  179.0920  139.4390 O   0  0  0  0  0  1  0  0  0  0  0  0
  180.5720  178.2320  140.0990 C   0  0  1  0  0  3  0  0  0  0  0  0
  1 16  1  0  0  0  0
  2  8  2  0  0  0  0
  3 17  1  0  0  0  0
  4 20  1  0  0  0  0
  5 27  1  6  0  0  0
  5 24  1  0  0  0  0
  6  1  1  0  0  0  0
  8  7  2  0  0  0  0
  8 14  1  0  0  0  0
  9 14  1  0  0  0  0
  9 18  1  1  0  0  0
 10  8  1  1  0  0  0
 11 15  1  0  0  0  0
 12 28  1  0  0  0  0
 12 24  1  0  0  0  0
 13  9  1  0  0  0  0
 15 23  1  0  0  0  0
 15 19  1  0  0  0  0
 16 20  2  0  0  0  0
 16 28  1  0  0  0  0
 17 25  1  0  0  0  0
 17  5  1  0  0  0  0
 19 25  1  0  0  0  0
 21 22  1  0  0  0  0
 21  1  2  0  0  0  0
 22  4  2  0  0  0  0
 23  6  1  0  0  0  0
 24 26  1  0  0  0  0
 25 12  1  0  0  0  0
 26 10  1  0  0  0  0
 26 13  1  0  0  0  0
 28 10  1  0  0  0  0
M  END
>  <MODEL>
2

>  <REMARK>
 VINA RESULT:      -5.9      7.964     11.076
  Name = 
  0 active torsions:
  status: ('A' for Active; 'I' for Inactive)
                            x       y       z     vdW  Elec       q    Type
                         _______ _______ _______ _____ _____    ______ ____

>  <TORSDO>
F 0

$$$$
=
 OpenBabel11122412013D

 28 32  0  0  1  0  0  0  0  0999 V2000
  181.0940  176.3010  136.5780 C   0  0  0  0  0  0  0  0  0  0  0  0
  185.9800  174.6590  137.4130 O   0  0  0  0  0  0  0  0  0  0  0  0
  181.9110  180.0680  139.1840 C   0  0  0  0  0  1  0  0  0  0  0  0
  181.2550  178.2690  134.5940 C   0  0  0  0  0  3  0  0  0  0  0  0
  184.2290  179.2090  139.0810 C   0  0  2  0  0  3  0  0  0  0  0  0
  181.0180  175.3560  137.6030 O   0  0  0  0  0  0  0  0  0  0  0  0
  185.5500  174.7750  134.9970 O   0  0  0  0  0  0  0  0  0  0  0  0
  185.9790  175.5560  136.2070 S   0  0  0  0  0  0  0  0  0  0  0  0
  187.6270  177.7040  136.2480 C   0  0  2  0  0  3  0  0  0  0  0  0
  184.8680  176.9430  136.4640 C   0  0  2  0  0  3  0  0  0  0  0  0
  179.3420  176.6090  140.7020 C   0  0  0  0  0  1  0  0  0  0  0  0
  183.5830  176.9580  138.5190 C   0  0  1  0  0  3  0  0  0  0  0  0
  186.8670  177.9850  137.5390 C   0  0  0  0  0  2  0  0  0  0  0  0
  187.6140  176.2110  135.9560 C   0  0  0  0  0  2  0  0  0  0  0  0
  180.2230  176.6970  139.4740 C   0  0  1  0  0  3  0  0  0  0  0  0
  182.3400  176.8710  136.2630 C   0  0  0  0  0  0  0  0  0  0  0  0
  182.8260  178.9170  139.5570 C   0  0  2  0  0  3  0  0  0  0  0  0
  189.0600  178.1720  136.3900 C   0  0  0  0  0  1  0  0  0  0  0  0
  181.6730  176.8990  139.9030 C   0  0  0  0  0  2  0  0  0  0  0  0
  182.4070  177.8660  135.2740 C   0  0  0  0  0  3  0  0  0  0  0  0
  179.9390  176.7170  135.9010 C   0  0  0  0  0  3  0  0  0  0  0  0
  180.0220  177.6940  134.9060 C   0  0  0  0  0  3  0  0  0  0  0  0
  180.0410  175.4310  138.6350 C   0  0  0  0  0  2  0  0  0  0  0  0
  184.7810  177.8780  138.6380 C   0  0  1  0  0  3  0  0  0  0  0  0
  182.3770  177.6950  138.9050 N   0  0  2  0  0  0  0  0  0  0  0  0
  185.4120  178.0140  137.3270 N   0  0  2  0  0  0  0  0  0  0  0  0
  184.9940  179.7110  140.1330 O   0  0  0  0  0  1  0  0  0  0  0  0
  183.5600  176.4670  137.0690 C   0  0  1  0  0  3  0  0  0  0  0  0
  1  6  1  0  0  0  0
  3 17  1  0  0  0  0
  4 22  2  0  0  0  0
  4 20  1  0  0  0  0
  5 17  1  0  0  0  0
  5 27  1  1  0  0  0
  6 23  1  0  0  0  0
  7  8  2  0  0  0  0
  8  2  2  0  0  0  0
  9 18  1  1  0  0  0
  9 13  1  0  0  0  0
 10  8  1  1  0  0  0
 10 28  1  0  0  0  0
 10 26  1  0  0  0  0
 12 24  1  0  0  0  0
 12 25  1  0  0  0  0
 14  8  1  0  0  0  0
 14  9  1  0  0  0  0
 15 19  1  0  0  0  0
 15 11  1  0  0  0  0
 16  1  1  0  0  0  0
 16 28  1  0  0  0  0
 20 16  2  0  0  0  0
 21  1  2  0  0  0  0
 22 21  1  0  0  0  0
 23 15  1  0  0  0  0
 24  5  1  0  0  0  0
 25 17  1  0  0  0  0
 25 19  1  0  0  0  0
 26 13  1  0  0  0  0
 26 24  1  0  0  0  0
 28 12  1  0  0  0  0
M  END
>  <MODEL>
3

>  <REMARK>
 VINA RESULT:      -5.3      5.259      8.376
  Name = 
  0 active torsions:
  status: ('A' for Active; 'I' for Inactive)
                            x       y       z     vdW  Elec       q    Type
                         _______ _______ _______ _____ _____    ______ ____

>  <TORSDO>
F 0

$$$$
=
 OpenBabel11122412013D

 28 32  0  0  1  0  0  0  0  0999 V2000
  180.1800  178.5300  140.2190 C   0  0  0  0  0  0  0  0  0  0  0  0
  183.6010  180.4870  143.6440 O   0  0  0  0  0  0  0  0  0  0  0  0
  183.6440  177.7070  137.2240 C   0  0  0  0  0  1  0  0  0  0  0  0
  180.3750  175.7450  140.4180 C   0  0  0  0  0  3  0  0  0  0  0  0
  185.0200  178.3420  139.1790 C   0  0  2  0  0  3  0  0  0  0  0  0
  180.1180  179.9190  140.0830 O   0  0  0  0  0  0  0  0  0  0  0  0
  182.3020  178.6930  144.7080 O   0  0  0  0  0  0  0  0  0  0  0  0
  183.5050  179.0030  143.8620 S   0  0  0  0  0  0  0  0  0  0  0  0
  185.7980  177.5690  143.7220 C   0  0  2  0  0  3  0  0  0  0  0  0
  183.3800  178.1490  142.2870 C   0  0  2  0  0  3  0  0  0  0  0  0
  180.6830  181.1280  136.5900 C   0  0  0  0  0  1  0  0  0  0  0  0
  183.2450  179.5250  140.2970 C   0  0  1  0  0  3  0  0  0  0  0  0
  185.8750  178.2430  142.3560 C   0  0  0  0  0  2  0  0  0  0  0  0
  184.9800  178.4280  144.6750 C   0  0  0  0  0  2  0  0  0  0  0  0
  180.8970  180.2420  137.7980 C   0  0  1  0  0  3  0  0  0  0  0  0
  181.2830  177.9560  140.8720 C   0  0  0  0  0  0  0  0  0  0  0  0
  183.9880  178.8260  138.1880 C   0  0  2  0  0  3  0  0  0  0  0  0
  187.1930  177.3950  144.2810 C   0  0  0  0  0  1  0  0  0  0  0  0
  182.3060  180.4580  138.3430 C   0  0  0  0  0  2  0  0  0  0  0  0
  181.3770  176.5560  140.9550 C   0  0  0  0  0  3  0  0  0  0  0  0
  179.1820  177.7120  139.6710 C   0  0  0  0  0  3  0  0  0  0  0  0
  179.2770  176.3230  139.7770 C   0  0  0  0  0  3  0  0  0  0  0  0
  179.8220  180.5490  138.8410 C   0  0  0  0  0  2  0  0  0  0  0  0
  184.6550  179.0030  140.4840 C   0  0  1  0  0  3  0  0  0  0  0  0
  182.8020  179.2210  138.9340 N   0  0  2  0  0  0  0  0  0  0  0  0
  184.6600  178.0140  141.5590 N   0  0  2  0  0  0  0  0  0  0  0  0
  186.2910  178.7530  138.7810 O   0  0  0  0  0  1  0  0  0  0  0  0
  182.3920  178.8580  141.3790 C   0  0  1  0  0  3  0  0  0  0  0  0
  1 16  1  0  0  0  0
  2  8  2  0  0  0  0
  3 17  1  0  0  0  0
  4 20  1  0  0  0  0
  5 27  1  6  0  0  0
  5 24  1  0  0  0  0
  6  1  1  0  0  0  0
  8 14  1  0  0  0  0
  8  7  2  0  0  0  0
  9 18  1  1  0  0  0
  9 14  1  0  0  0  0
 10  8  1  1  0  0  0
 11 15  1  0  0  0  0
 12 24  1  0  0  0  0
 12 28  1  0  0  0  0
 13  9  1  0  0  0  0
 15 19  1  0  0  0  0
 15 23  1  0  0  0  0
 16 20  2  0  0  0  0
 16 28  1  0  0  0  0
 17 25  1  0  0  0  0
 17  5  1  0  0  0  0
 19 25  1  0  0  0  0
 21 22  1  0  0  0  0
 21  1  2  0  0  0  0
 22  4  2  0  0  0  0
 23  6  1  0  0  0  0
 24 26  1  0  0  0  0
 25 12  1  0  0  0  0
 26 10  1  0  0  0  0
 26 13  1  0  0  0  0
 28 10  1  0  0  0  0
M  END
>  <MODEL>
4

>  <REMARK>
 VINA RESULT:      -5.1      7.435      9.904
  Name = 
  0 active torsions:
  status: ('A' for Active; 'I' for Inactive)
                            x       y       z     vdW  Elec       q    Type
                         _______ _______ _______ _____ _____    ______ ____

>  <TORSDO>
F 0

$$$$
=
 OpenBabel11122412013D

 28 32  0  0  1  0  0  0  0  0999 V2000
  187.8560  177.1960  137.3000 C   0  0  0  0  0  0  0  0  0  0  0  0
  185.6690  172.6280  138.5680 O   0  0  0  0  0  0  0  0  0  0  0  0
  190.9260  174.9800  134.5950 C   0  0  0  0  0  1  0  0  0  0  0  0
  186.8750  177.8600  134.7630 C   0  0  0  0  0  3  0  0  0  0  0  0
  189.4560  173.0560  135.1000 C   0  0  2  0  0  3  0  0  0  0  0  0
  188.3860  176.8420  138.5420 O   0  0  0  0  0  0  0  0  0  0  0  0
  183.9550  174.1440  137.6750 O   0  0  0  0  0  0  0  0  0  0  0  0
  185.0120  173.1390  137.3160 S   0  0  0  0  0  0  0  0  0  0  0  0
  185.0410  171.5240  135.1430 C   0  0  2  0  0  3  0  0  0  0  0  0
  186.2330  173.8950  136.2370 C   0  0  2  0  0  3  0  0  0  0  0  0
  192.1230  176.7550  138.6310 C   0  0  0  0  0  1  0  0  0  0  0  0
  188.5010  174.0460  137.0760 C   0  0  1  0  0  3  0  0  0  0  0  0
  186.5420  171.5580  135.4120 C   0  0  0  0  0  2  0  0  0  0  0  0
  184.2800  171.7770  136.4350 C   0  0  0  0  0  2  0  0  0  0  0  0
  190.7490  176.5580  138.0270 C   0  0  1  0  0  3  0  0  0  0  0  0
  187.2230  176.2140  136.5200 C   0  0  0  0  0  0  0  0  0  0  0  0
  190.3920  174.0810  135.6940 C   0  0  2  0  0  3  0  0  0  0  0  0
  184.6550  170.1670  134.5950 C   0  0  0  0  0  1  0  0  0  0  0  0
  190.4930  175.0680  137.8230 C   0  0  0  0  0  2  0  0  0  0  0  0
  186.7450  176.5550  135.2440 C   0  0  0  0  0  3  0  0  0  0  0  0
  187.9950  178.5020  136.8090 C   0  0  0  0  0  3  0  0  0  0  0  0
  187.4980  178.8340  135.5470 C   0  0  0  0  0  3  0  0  0  0  0  0
  189.7040  177.2040  138.9390 C   0  0  0  0  0  2  0  0  0  0  0  0
  188.3660  172.8740  136.1250 C   0  0  1  0  0  3  0  0  0  0  0  0
  189.6380  174.8690  136.6580 N   0  0  2  0  0  0  0  0  0  0  0  0
  187.0590  172.9330  135.4760 N   0  0  2  0  0  0  0  0  0  0  0  0
  190.1300  171.8500  134.9080 O   0  0  0  0  0  1  0  0  0  0  0  0
  187.1630  174.7890  137.0370 C   0  0  1  0  0  3  0  0  0  0  0  0
  1  6  1  0  0  0  0
  3 17  1  0  0  0  0
  4 20  2  0  0  0  0
  4 22  1  0  0  0  0
  5 27  1  1  0  0  0
  5 17  1  0  0  0  0
  5 24  1  0  0  0  0
  6 23  1  0  0  0  0
  8  7  2  0  0  0  0
  8  2  2  0  0  0  0
  9 18  1  1  0  0  0
  9 13  1  0  0  0  0
  9 14  1  0  0  0  0
 10 28  1  0  0  0  0
 10  8  1  1  0  0  0
 13 26  1  0  0  0  0
 14  8  1  0  0  0  0
 15 11  1  0  0  0  0
 15 23  1  0  0  0  0
 16 28  1  0  0  0  0
 16  1  2  0  0  0  0
 17 25  1  0  0  0  0
 19 15  1  0  0  0  0
 20 16  1  0  0  0  0
 21  1  1  0  0  0  0
 22 21  2  0  0  0  0
 24 12  1  0  0  0  0
 25 12  1  0  0  0  0
 25 19  1  0  0  0  0
 26 24  1  0  0  0  0
 26 10  1  0  0  0  0
 28 12  1  0  0  0  0
M  END
>  <MODEL>
5

>  <REMARK>
 VINA RESULT:      -4.8      3.011      5.926
  Name = 
  0 active torsions:
  status: ('A' for Active; 'I' for Inactive)
                            x       y       z     vdW  Elec       q    Type
                         _______ _______ _______ _____ _____    ______ ____

>  <TORSDO>
F 0

$$$$
=
 OpenBabel11122412013D

 28 32  0  0  1  0  0  0  0  0999 V2000
  185.6960  175.0020  136.7320 C   0  0  0  0  0  0  0  0  0  0  0  0
  183.4060  177.7260  140.5530 O   0  0  0  0  0  0  0  0  0  0  0  0
  181.5890  174.5400  134.5950 C   0  0  0  0  0  1  0  0  0  0  0  0
  186.0310  176.7770  134.5940 C   0  0  0  0  0  3  0  0  0  0  0  0
  180.8930  176.1480  136.3400 C   0  0  2  0  0  3  0  0  0  0  0  0
  185.4830  174.1030  137.7790 O   0  0  0  0  0  0  0  0  0  0  0  0
  185.2620  179.0290  139.6090 O   0  0  0  0  0  0  0  0  0  0  0  0
  183.8080  178.6800  139.4630 S   0  0  0  0  0  0  0  0  0  0  0  0
  181.8690  180.2340  138.3860 C   0  0  2  0  0  3  0  0  0  0  0  0
  183.5150  177.9440  137.8520 C   0  0  2  0  0  3  0  0  0  0  0  0
  183.5580  171.0530  136.7940 C   0  0  0  0  0  1  0  0  0  0  0  0
  182.7300  175.6520  137.8150 C   0  0  1  0  0  3  0  0  0  0  0  0
  181.2180  178.8760  138.1540 C   0  0  0  0  0  2  0  0  0  0  0  0
  182.8180  180.1550  139.5730 C   0  0  0  0  0  2  0  0  0  0  0  0
  183.9200  172.5220  136.7840 C   0  0  1  0  0  3  0  0  0  0  0  0
  184.9940  176.2190  136.7220 C   0  0  0  0  0  0  0  0  0  0  0  0
  181.4250  174.7580  136.0860 C   0  0  2  0  0  3  0  0  0  0  0  0
  180.8010  181.2680  138.6700 C   0  0  0  0  0  1  0  0  0  0  0  0
  182.7730  173.3320  137.3790 C   0  0  0  0  0  2  0  0  0  0  0  0
  185.1610  177.0970  135.6380 C   0  0  0  0  0  3  0  0  0  0  0  0
  186.5600  174.6800  135.6760 C   0  0  0  0  0  3  0  0  0  0  0  0
  186.7320  175.5690  134.6140 C   0  0  0  0  0  3  0  0  0  0  0  0
  185.2270  172.7210  137.5550 C   0  0  0  0  0  2  0  0  0  0  0  0
  181.5760  176.6090  137.6020 C   0  0  1  0  0  3  0  0  0  0  0  0
  182.7170  174.6460  136.7500 N   0  0  2  0  0  0  0  0  0  0  0  0
  182.1010  177.9590  137.4170 N   0  0  2  0  0  0  0  0  0  0  0  0
  179.5130  176.1000  136.5400 O   0  0  0  0  0  1  0  0  0  0  0  0
  184.0010  176.5060  137.8320 C   0  0  1  0  0  3  0  0  0  0  0  0
  1  6  1  0  0  0  0
  3 17  1  0  0  0  0
  4 22  2  0  0  0  0
  4 20  1  0  0  0  0
  5 27  1  1  0  0  0
  5 24  1  0  0  0  0
  8 14  1  0  0  0  0
  8  7  2  0  0  0  0
  8  2  2  0  0  0  0
  9 18  1  1  0  0  0
  9 14  1  0  0  0  0
 10  8  1  1  0  0  0
 12 28  1  0  0  0  0
 13  9  1  0  0  0  0
 15 11  1  0  0  0  0
 15 19  1  0  0  0  0
 15 23  1  0  0  0  0
 16  1  1  0  0  0  0
 16 28  1  0  0  0  0
 17  5  1  0  0  0  0
 17 25  1  0  0  0  0
 20 16  2  0  0  0  0
 21  1  2  0  0  0  0
 22 21  1  0  0  0  0
 23  6  1  0  0  0  0
 24 12  1  0  0  0  0
 25 19  1  0  0  0  0
 25 12  1  0  0  0  0
 26 24  1  0  0  0  0
 26 10  1  0  0  0  0
 26 13  1  0  0  0  0
 28 10  1  0  0  0  0
M  END
>  <MODEL>
6

>  <REMARK>
 VINA RESULT:      -4.6      5.882      9.077
  Name = 
  0 active torsions:
  status: ('A' for Active; 'I' for Inactive)
                            x       y       z     vdW  Elec       q    Type
                         _______ _______ _______ _____ _____    ______ ____

>  <TORSDO>
F 0

$$$$
=
 OpenBabel11122412013D

 28 32  0  0  1  0  0  0  0  0999 V2000
  182.2870  178.7070  138.0410 C   0  0  0  0  0  0  0  0  0  0  0  0
  186.5500  178.0220  135.1050 O   0  0  0  0  0  0  0  0  0  0  0  0
  181.3320  174.1640  137.7200 C   0  0  0  0  0  1  0  0  0  0  0  0
  182.9660  177.8600  140.6210 C   0  0  0  0  0  3  0  0  0  0  0  0
  183.5780  174.1200  136.6840 C   0  0  2  0  0  3  0  0  0  0  0  0
  181.9320  179.0820  136.7430 O   0  0  0  0  0  0  0  0  0  0  0  0
  187.1700  179.1090  137.2190 O   0  0  0  0  0  0  0  0  0  0  0  0
  186.9210  177.7910  136.5430 S   0  0  0  0  0  0  0  0  0  0  0  0
  188.0430  175.4090  137.1760 C   0  0  2  0  0  3  0  0  0  0  0  0
  185.6050  176.9090  137.3900 C   0  0  2  0  0  3  0  0  0  0  0  0
  178.9310  177.2910  135.4130 C   0  0  0  0  0  1  0  0  0  0  0  0
  183.5870  176.4630  136.1260 C   0  0  1  0  0  3  0  0  0  0  0  0
  186.7750  174.8850  136.5110 C   0  0  0  0  0  2  0  0  0  0  0  0
  188.3860  176.7840  136.6220 C   0  0  0  0  0  2  0  0  0  0  0  0
  180.2230  177.4380  136.1870 C   0  0  1  0  0  3  0  0  0  0  0  0
  183.4440  177.9340  138.2370 C   0  0  0  0  0  0  0  0  0  0  0  0
  182.1690  174.6470  136.5510 C   0  0  2  0  0  3  0  0  0  0  0  0
  189.1890  174.4600  136.9000 C   0  0  0  0  0  1  0  0  0  0  0  0
  181.3050  176.5820  135.5360 C   0  0  0  0  0  2  0  0  0  0  0  0
  183.7690  177.5040  139.5350 C   0  0  0  0  0  3  0  0  0  0  0  0
  181.4780  179.0520  139.1320 C   0  0  0  0  0  3  0  0  0  0  0  0
  181.8210  178.6350  140.4200 C   0  0  0  0  0  3  0  0  0  0  0  0
  180.6110  178.9170  136.2380 C   0  0  0  0  0  2  0  0  0  0  0  0
  184.4640  175.2280  136.1750 C   0  0  1  0  0  3  0  0  0  0  0  0
  182.2330  176.1020  136.5530 N   0  0  2  0  0  0  0  0  0  0  0  0
  185.5610  175.4570  137.1130 N   0  0  2  0  0  0  0  0  0  0  0  0
  183.7390  172.9850  135.8910 O   0  0  0  0  0  1  0  0  0  0  0  0
  184.2550  177.5020  137.0300 C   0  0  1  0  0  3  0  0  0  0  0  0
  1 16  2  0  0  0  0
  1 21  1  0  0  0  0
  2  8  2  0  0  0  0
  5 27  1  6  0  0  0
  6  1  1  0  0  0  0
  8 14  1  0  0  0  0
  8  7  2  0  0  0  0
  9 18  1  6  0  0  0
 10  8  1  6  0  0  0
 11 15  1  0  0  0  0
 12 24  1  0  0  0  0
 12 25  1  0  0  0  0
 12 28  1  0  0  0  0
 13 26  1  0  0  0  0
 13  9  1  0  0  0  0
 14  9  1  0  0  0  0
 15 23  1  0  0  0  0
 16 20  1  0  0  0  0
 17 25  1  0  0  0  0
 17  5  1  0  0  0  0
 17  3  1  0  0  0  0
 19 15  1  0  0  0  0
 19 25  1  0  0  0  0
 20  4  2  0  0  0  0
 21 22  2  0  0  0  0
 22  4  1  0  0  0  0
 23  6  1  0  0  0  0
 24  5  1  0  0  0  0
 24 26  1  0  0  0  0
 26 10  1  0  0  0  0
 28 10  1  0  0  0  0
 28 16  1  0  0  0  0
M  END
>  <MODEL>
7

>  <REMARK>
 VINA RESULT:      -4.6      4.694      6.698
  Name = 
  0 active torsions:
  status: ('A' for Active; 'I' for Inactive)
                            x       y       z     vdW  Elec       q    Type
                         _______ _______ _______ _____ _____    ______ ____

>  <TORSDO>
F 0

$$$$
=
 OpenBabel11122412013D

 28 32  0  0  1  0  0  0  0  0999 V2000
  182.9190  177.7070  137.1360 C   0  0  0  0  0  0  0  0  0  0  0  0
  187.6550  178.0950  134.9700 O   0  0  0  0  0  0  0  0  0  0  0  0
  183.6260  173.1680  137.8760 C   0  0  0  0  0  1  0  0  0  0  0  0
  183.3210  177.6980  139.9060 C   0  0  0  0  0  3  0  0  0  0  0  0
  185.9140  173.7600  137.1450 C   0  0  2  0  0  3  0  0  0  0  0  0
  182.7220  177.6600  135.7540 O   0  0  0  0  0  0  0  0  0  0  0  0
  187.4450  179.7280  136.7930 O   0  0  0  0  0  0  0  0  0  0  0  0
  187.7900  178.3060  136.4520 S   0  0  0  0  0  0  0  0  0  0  0  0
  189.4990  176.6870  137.7920 C   0  0  2  0  0  3  0  0  0  0  0  0
  186.7070  177.1830  137.3420 C   0  0  2  0  0  3  0  0  0  0  0  0
  180.8190  174.6570  134.5940 C   0  0  0  0  0  1  0  0  0  0  0  0
  185.2460  175.7780  136.0140 C   0  0  1  0  0  3  0  0  0  0  0  0
  188.6370  175.6090  137.1440 C   0  0  0  0  0  2  0  0  0  0  0  0
  189.4620  177.9530  136.9490 C   0  0  0  0  0  2  0  0  0  0  0  0
  181.8080  175.4230  135.4460 C   0  0  1  0  0  3  0  0  0  0  0  0
  184.2060  177.4750  137.6510 C   0  0  0  0  0  0  0  0  0  0  0  0
  184.4650  173.6870  136.7250 C   0  0  2  0  0  3  0  0  0  0  0  0
  190.9270  176.1990  137.8970 C   0  0  0  0  0  1  0  0  0  0  0  0
  183.2200  174.9210  135.1600 C   0  0  0  0  0  2  0  0  0  0  0  0
  184.3940  177.4610  139.0440 C   0  0  0  0  0  3  0  0  0  0  0  0
  181.8430  177.9330  138.0050 C   0  0  0  0  0  3  0  0  0  0  0  0
  182.0460  177.9360  139.3870 C   0  0  0  0  0  3  0  0  0  0  0  0
  181.6600  176.9190  135.1620 C   0  0  0  0  0  2  0  0  0  0  0  0
  186.4590  174.9950  136.4740 C   0  0  1  0  0  3  0  0  0  0  0  0
  184.0360  175.0310  136.3640 N   0  0  2  0  0  0  0  0  0  0  0  0
  187.2080  175.7950  137.4390 N   0  0  2  0  0  0  0  0  0  0  0  0
  186.5990  172.6340  136.6900 O   0  0  0  0  0  1  0  0  0  0  0  0
  185.3360  177.1480  136.6930 C   0  0  1  0  0  3  0  0  0  0  0  0
  1 16  2  0  0  0  0
  1 21  1  0  0  0  0
  2  8  2  0  0  0  0
  5 27  1  6  0  0  0
  6  1  1  0  0  0  0
  8  7  2  0  0  0  0
  8 14  1  0  0  0  0
  9 18  1  6  0  0  0
 10  8  1  6  0  0  0
 10 26  1  0  0  0  0
 11 15  1  0  0  0  0
 12 25  1  0  0  0  0
 12 24  1  0  0  0  0
 12 28  1  0  0  0  0
 13 26  1  0  0  0  0
 13  9  1  0  0  0  0
 14  9  1  0  0  0  0
 16 20  1  0  0  0  0
 17  5  1  0  0  0  0
 17  3  1  0  0  0  0
 19 15  1  0  0  0  0
 19 25  1  0  0  0  0
 20  4  2  0  0  0  0
 21 22  2  0  0  0  0
 22  4  1  0  0  0  0
 23 15  1  0  0  0  0
 23  6  1  0  0  0  0
 24  5  1  0  0  0  0
 24 26  1  0  0  0  0
 25 17  1  0  0  0  0
 28 10  1  0  0  0  0
 28 16  1  0  0  0  0
M  END
>  <MODEL>
8

>  <REMARK>
 VINA RESULT:      -4.5      3.664      5.666
  Name = 
  0 active torsions:
  status: ('A' for Active; 'I' for Inactive)
                            x       y       z     vdW  Elec       q    Type
                         _______ _______ _______ _____ _____    ______ ____

>  <TORSDO>
F 0

$$$$
=
 OpenBabel11122412013D

 28 32  0  0  1  0  0  0  0  0999 V2000
  180.3650  174.4540  137.2860 C   0  0  0  0  0  0  0  0  0  0  0  0
  185.2460  172.8450  138.2090 O   0  0  0  0  0  0  0  0  0  0  0  0
  181.7570  178.8810  137.6190 C   0  0  0  0  0  1  0  0  0  0  0  0
  180.2860  175.2180  134.5940 C   0  0  0  0  0  3  0  0  0  0  0  0
  183.9880  177.8120  137.6630 C   0  0  2  0  0  3  0  0  0  0  0  0
  180.4160  174.1220  138.6420 O   0  0  0  0  0  0  0  0  0  0  0  0
  184.4340  171.8560  136.1130 O   0  0  0  0  0  0  0  0  0  0  0  0
  185.0870  173.0600  136.7300 S   0  0  0  0  0  0  0  0  0  0  0  0
  186.8110  174.7640  135.5240 C   0  0  2  0  0  3  0  0  0  0  0  0
  184.0940  174.5220  136.4160 C   0  0  2  0  0  3  0  0  0  0  0  0
  179.3220  176.8750  140.9220 C   0  0  0  0  0  1  0  0  0  0  0  0
  183.1620  175.6550  138.3450 C   0  0  1  0  0  3  0  0  0  0  0  0
  186.2840  175.7080  136.5990 C   0  0  0  0  0  2  0  0  0  0  0  0
  186.6860  173.3240  135.9960 C   0  0  0  0  0  2  0  0  0  0  0  0
  179.9950  176.2700  139.7090 C   0  0  1  0  0  3  0  0  0  0  0  0
  181.5660  174.6580  136.5850 C   0  0  0  0  0  0  0  0  0  0  0  0
  182.6700  177.9460  138.3880 C   0  0  2  0  0  3  0  0  0  0  0  0
  188.2660  175.0740  135.2460 C   0  0  0  0  0  1  0  0  0  0  0  0
  181.5020  176.4810  139.8060 C   0  0  0  0  0  2  0  0  0  0  0  0
  181.5140  175.0530  135.2380 C   0  0  0  0  0  3  0  0  0  0  0  0
  179.1340  174.6320  136.6390 C   0  0  0  0  0  3  0  0  0  0  0  0
  179.0960  175.0060  135.2940 C   0  0  0  0  0  3  0  0  0  0  0  0
  179.6250  174.7880  139.6180 C   0  0  0  0  0  2  0  0  0  0  0  0
  184.4020  176.3760  137.8570 C   0  0  1  0  0  3  0  0  0  0  0  0
  182.0680  176.6220  138.4700 N   0  0  2  0  0  0  0  0  0  0  0  0
  184.8170  175.8020  136.5790 N   0  0  2  0  0  0  0  0  0  0  0  0
  184.9350  178.6590  138.2380 O   0  0  0  0  0  1  0  0  0  0  0  0
  182.8820  174.5440  137.3300 C   0  0  1  0  0  3  0  0  0  0  0  0
  1  6  1  0  0  0  0
  3 17  1  0  0  0  0
  4 20  2  0  0  0  0
  4 22  1  0  0  0  0
  5 24  1  0  0  0  0
  5 27  1  1  0  0  0
  5 17  1  0  0  0  0
  6 23  1  0  0  0  0
  7  8  2  0  0  0  0
  8  2  2  0  0  0  0
  9 18  1  1  0  0  0
  9 14  1  0  0  0  0
  9 13  1  0  0  0  0
 10 26  1  0  0  0  0
 10  8  1  1  0  0  0
 10 28  1  0  0  0  0
 12 25  1  0  0  0  0
 14  8  1  0  0  0  0
 15 19  1  0  0  0  0
 15 11  1  0  0  0  0
 16  1  2  0  0  0  0
 16 28  1  0  0  0  0
 17 25  1  0  0  0  0
 20 16  1  0  0  0  0
 21  1  1  0  0  0  0
 22 21  2  0  0  0  0
 23 15  1  0  0  0  0
 24 12  1  0  0  0  0
 25 19  1  0  0  0  0
 26 13  1  0  0  0  0
 26 24  1  0  0  0  0
 28 12  1  0  0  0  0
M  END
>  <MODEL>
9

>  <REMARK>
 VINA RESULT:      -4.4      5.703      8.715
  Name = 
  0 active torsions:
  status: ('A' for Active; 'I' for Inactive)
                            x       y       z     vdW  Elec       q    Type
                         _______ _______ _______ _____ _____    ______ ____

>  <TORSDO>
F 0

$$$$
