=
 OpenBabel11122410423D

 32 38  0  0  1  0  0  0  0  0999 V2000
  188.4100  177.7800  136.8210 C   0  0  1  0  0  3  0  0  0  0  0  0
  187.9220  177.9640  142.0900 C   0  0  0  0  0  0  0  0  0  0  0  0
  183.1870  179.0030  142.5860 C   0  0  0  0  0  3  0  0  0  0  0  0
  183.2960  178.8720  143.9700 C   0  0  0  0  0  3  0  0  0  0  0  0
  189.3670  177.4830  144.1380 C   0  0  0  0  0  0  0  0  0  0  0  0
  189.4230  177.3880  145.5890 C   0  0  0  0  0  0  0  0  0  0  0  0
  188.7030  177.3540  139.7770 C   0  0  1  0  0  3  0  0  0  0  0  0
  186.5340  178.4160  140.0990 N   0  0  0  0  0  2  0  0  0  0  0  0
  188.7630  177.4110  147.6640 C   0  0  0  0  0  0  0  0  0  0  0  0
  187.2390  178.0570  137.7670 C   0  0  2  0  0  3  0  0  0  0  0  0
  184.3090  178.8130  141.7790 C   0  0  0  0  0  3  0  0  0  0  0  0
  186.6710  178.3060  141.5250 C   0  0  0  0  0  0  0  0  0  0  0  0
  185.5530  178.4910  142.3450 C   0  0  0  0  0  0  0  0  0  0  0  0
  186.9090  178.0310  144.3320 C   0  0  0  0  0  0  0  0  0  0  0  0
  190.0480  177.1280  147.6620 O   0  0  0  0  0  0  0  0  0  0  0  0
  189.7980  177.8380  137.4970 C   0  0  0  0  0  2  0  0  0  0  0  0
  187.6870  178.3470  139.2120 C   0  0  2  0  0  3  0  0  0  0  0  0
  190.4930  177.1020  146.4180 C   0  0  0  0  0  3  0  0  0  0  0  0
  189.9280  177.1750  138.8780 C   0  0  0  0  0  2  0  0  0  0  0  0
  187.5270  176.6340  137.2980 C   0  0  1  0  0  3  0  0  0  0  0  0
  184.5260  178.5520  144.5450 C   0  0  0  0  0  3  0  0  0  0  0  0
  185.6680  178.3570  143.7470 C   0  0  0  0  0  0  0  0  0  0  0  0
  186.9690  177.9010  145.8530 C   0  0  0  0  0  2  0  0  0  0  0  0
  189.1140  177.8110  141.1700 C   0  0  0  0  0  2  0  0  0  0  0  0
  190.4120  177.2680  143.4660 O   0  0  0  0  0  0  0  0  0  0  0  0
  187.9310  177.5190  148.8940 C   0  0  0  0  0  1  0  0  0  0  0  0
  188.0560  177.8310  143.4990 C   0  0  0  0  0  0  0  0  0  0  0  0
  188.3310  177.5850  146.3720 C   0  0  0  0  0  0  0  0  0  0  0  0
  186.5490  176.2640  136.2020 C   0  0  0  0  0  2  0  0  0  0  0  0
  185.3170  175.6820  136.8010 C   0  0  0  0  0  0  0  0  0  0  0  0
  184.1780  176.4640  136.9440 O   0  0  0  0  0  0  0  0  0  0  0  0
  185.3170  174.4910  137.2060 O   0  0  0  0  0  1  0  0  0  0  0  0
  1 20  1  0  0  0  0
  1 16  1  1  0  0  0
  1 10  1  0  0  0  0
  2 27  1  0  0  0  0
  3  4  1  0  0  0  0
  4 21  2  0  0  0  0
  5  6  1  0  0  0  0
  6 28  1  0  0  0  0
  6 18  2  0  0  0  0
  7 19  1  6  0  0  0
  7 24  1  0  0  0  0
  8 12  1  0  0  0  0
  9 26  1  0  0  0  0
 10 17  1  0  0  0  0
 11 13  1  0  0  0  0
 11  3  2  0  0  0  0
 12  2  2  0  0  0  0
 12 13  1  0  0  0  0
 13 22  2  0  0  0  0
 14 23  1  0  0  0  0
 15  9  1  0  0  0  0
 16 19  1  0  0  0  0
 17  7  1  0  0  0  0
 17  8  1  0  0  0  0
 18 15  1  0  0  0  0
 20 10  1  0  0  0  0
 22 14  1  0  0  0  0
 22 21  1  0  0  0  0
 23 28  1  0  0  0  0
 24  2  1  0  0  0  0
 25  5  2  0  0  0  0
 27  5  1  0  0  0  0
 27 14  2  0  0  0  0
 28  9  2  0  0  0  0
 29 30  1  0  0  0  0
 29 20  1  0  0  0  0
 30 31  2  0  0  0  0
 30 32  1  0  0  0  0
M  END
>  <MODEL>
1

>  <REMARK>
 VINA RESULT:     -11.3      0.000      0.000
  Name = 
  2 active torsions:
  status: ('A' for Active; 'I' for Inactive)
    1  A    between atoms: C_20  and  C_29
    2  A    between atoms: C_29  and  C_30
                            x       y       z     vdW  Elec       q    Type
                         _______ _______ _______ _____ _____    ______ ____

>  <TORSDO>
F 2

$$$$
=
 OpenBabel11122410423D

 32 38  0  0  1  0  0  0  0  0999 V2000
  181.4380  178.9980  139.0090 C   0  0  1  0  0  3  0  0  0  0  0  0
  185.8470  178.3560  141.8670 C   0  0  0  0  0  0  0  0  0  0  0  0
  184.0980  178.5930  146.4090 C   0  0  0  0  0  3  0  0  0  0  0  0
  185.3590  178.2850  146.9190 C   0  0  0  0  0  3  0  0  0  0  0  0
  188.3060  177.8120  141.4500 C   0  0  0  0  0  0  0  0  0  0  0  0
  189.6030  177.5210  142.0430 C   0  0  0  0  0  0  0  0  0  0  0  0
  184.1510  178.2060  140.0150 C   0  0  1  0  0  3  0  0  0  0  0  0
  183.4650  178.8740  142.2560 N   0  0  0  0  0  2  0  0  0  0  0  0
  191.1160  177.1500  143.5650 C   0  0  0  0  0  0  0  0  0  0  0  0
  181.7300  178.9600  140.5110 C   0  0  2  0  0  3  0  0  0  0  0  0
  183.9100  178.6900  145.0310 C   0  0  0  0  0  3  0  0  0  0  0  0
  184.7780  178.5840  142.7640 C   0  0  0  0  0  0  0  0  0  0  0  0
  184.9780  178.4810  144.1440 C   0  0  0  0  0  0  0  0  0  0  0  0
  187.3420  177.9520  143.7800 C   0  0  0  0  0  0  0  0  0  0  0  0
  191.7060  177.0660  142.3920 O   0  0  0  0  0  0  0  0  0  0  0  0
  182.6930  179.1670  138.1230 C   0  0  0  0  0  2  0  0  0  0  0  0
  183.2280  179.1050  140.8380 C   0  0  2  0  0  3  0  0  0  0  0  0
  190.8220  177.2840  141.4340 C   0  0  0  0  0  3  0  0  0  0  0  0
  183.9320  178.3420  138.5080 C   0  0  0  0  0  2  0  0  0  0  0  0
  181.3760  177.6770  139.7640 C   0  0  1  0  0  3  0  0  0  0  0  0
  186.4300  178.0740  146.0500 C   0  0  0  0  0  3  0  0  0  0  0  0
  186.2580  178.1680  144.6560 C   0  0  0  0  0  0  0  0  0  0  0  0
  188.7000  177.6180  144.3950 C   0  0  0  0  0  2  0  0  0  0  0  0
  185.5950  178.5160  140.3840 C   0  0  0  0  0  2  0  0  0  0  0  0
  188.1980  177.8530  140.1940 O   0  0  0  0  0  0  0  0  0  0  0  0
  191.8080  176.9560  144.8680 C   0  0  0  0  0  1  0  0  0  0  0  0
  187.1420  178.0470  142.3660 C   0  0  0  0  0  0  0  0  0  0  0  0
  189.7840  177.4390  143.3860 C   0  0  0  0  0  0  0  0  0  0  0  0
  179.9290  177.3240  140.0400 C   0  0  0  0  0  2  0  0  0  0  0  0
  179.8280  175.9010  140.4630 C   0  0  0  0  0  0  0  0  0  0  0  0
  179.0110  175.5490  141.5290 O   0  0  0  0  0  1  0  0  0  0  0  0
  180.5090  175.0210  139.8760 O   0  0  0  0  0  0  0  0  0  0  0  0
  1 16  1  6  0  0  0
  1 20  1  0  0  0  0
  1 10  1  0  0  0  0
  2 27  2  0  0  0  0
  2 12  1  0  0  0  0
  3  4  1  0  0  0  0
  5  6  1  0  0  0  0
  5 27  1  0  0  0  0
  6 28  1  0  0  0  0
  7 19  1  6  0  0  0
  7 24  1  0  0  0  0
  7 17  1  0  0  0  0
  8 12  1  0  0  0  0
  9 26  1  0  0  0  0
 10 17  1  0  0  0  0
 11  3  2  0  0  0  0
 12 13  2  0  0  0  0
 13 22  1  0  0  0  0
 13 11  1  0  0  0  0
 14 23  1  0  0  0  0
 14 22  2  0  0  0  0
 15  9  1  0  0  0  0
 16 19  1  0  0  0  0
 17  8  1  0  0  0  0
 18  6  2  0  0  0  0
 18 15  1  0  0  0  0
 20 29  1  0  0  0  0
 20 10  1  0  0  0  0
 21  4  2  0  0  0  0
 22 21  1  0  0  0  0
 24  2  1  0  0  0  0
 25  5  2  0  0  0  0
 27 14  1  0  0  0  0
 28  9  2  0  0  0  0
 28 23  1  0  0  0  0
 29 30  1  0  0  0  0
 30 31  1  0  0  0  0
 32 30  2  0  0  0  0
M  END
>  <MODEL>
2

>  <REMARK>
 VINA RESULT:     -10.1      2.793      4.707
  Name = 
  2 active torsions:
  status: ('A' for Active; 'I' for Inactive)
    1  A    between atoms: C_20  and  C_29
    2  A    between atoms: C_29  and  C_30
                            x       y       z     vdW  Elec       q    Type
                         _______ _______ _______ _____ _____    ______ ____

>  <TORSDO>
F 2

$$$$
=
 OpenBabel11122410423D

 32 38  0  0  1  0  0  0  0  0999 V2000
  189.4480  177.6460  148.0570 C   0  0  1  0  0  3  0  0  0  0  0  0
  185.9820  178.4420  144.1350 C   0  0  0  0  0  0  0  0  0  0  0  0
  188.8310  177.9480  140.2130 C   0  0  0  0  0  3  0  0  0  0  0  0
  187.7190  178.0670  139.3810 C   0  0  0  0  0  3  0  0  0  0  0  0
  183.4640  178.7680  143.8780 C   0  0  0  0  0  0  0  0  0  0  0  0
  182.3460  178.9130  142.9570 C   0  0  0  0  0  0  0  0  0  0  0  0
  186.9870  177.7840  146.3460 C   0  0  1  0  0  3  0  0  0  0  0  0
  188.4150  178.1180  144.4000 N   0  0  0  0  0  2  0  0  0  0  0  0
  181.2480  179.0280  141.0800 C   0  0  0  0  0  0  0  0  0  0  0  0
  189.5620  177.6660  146.5320 C   0  0  2  0  0  3  0  0  0  0  0  0
  188.6740  178.0160  141.5980 C   0  0  0  0  0  3  0  0  0  0  0  0
  187.2610  178.2720  143.5570 C   0  0  0  0  0  0  0  0  0  0  0  0
  187.4050  178.2030  142.1670 C   0  0  0  0  0  0  0  0  0  0  0  0
  184.9920  178.5100  141.8830 C   0  0  0  0  0  0  0  0  0  0  0  0
  180.3790  179.1810  142.0560 O   0  0  0  0  0  0  0  0  0  0  0  0
  188.1350  178.2530  148.6030 C   0  0  0  0  0  2  0  0  0  0  0  0
  188.3370  178.2970  145.8430 C   0  0  2  0  0  3  0  0  0  0  0  0
  181.0030  179.1170  143.2190 C   0  0  0  0  0  3  0  0  0  0  0  0
  186.8380  177.8810  147.8650 C   0  0  0  0  0  2  0  0  0  0  0  0
  189.2630  176.3600  147.2630 C   0  0  1  0  0  3  0  0  0  0  0  0
  186.4510  178.2530  139.9340 C   0  0  0  0  0  3  0  0  0  0  0  0
  186.2740  178.3230  141.3280 C   0  0  0  0  0  0  0  0  0  0  0  0
  183.8100  178.6340  140.9230 C   0  0  0  0  0  2  0  0  0  0  0  0
  185.8770  178.5500  145.6410 C   0  0  0  0  0  2  0  0  0  0  0  0
  183.2480  178.8060  145.1200 O   0  0  0  0  0  0  0  0  0  0  0  0
  180.8960  179.0410  139.6340 C   0  0  0  0  0  1  0  0  0  0  0  0
  184.8360  178.5720  143.3050 C   0  0  0  0  0  0  0  0  0  0  0  0
  182.5050  178.8580  141.6100 C   0  0  0  0  0  0  0  0  0  0  0  0
  190.5300  175.5350  147.3440 C   0  0  0  0  0  2  0  0  0  0  0  0
  191.7160  176.4070  147.1260 C   0  0  0  0  0  0  0  0  0  0  0  0
  192.0550  176.8110  145.8420 O   0  0  0  0  0  0  0  0  0  0  0  0
  192.4310  176.7530  148.1030 O   0  0  0  0  0  1  0  0  0  0  0  0
  1 16  1  6  0  0  0
  2 24  1  0  0  0  0
  3 11  2  0  0  0  0
  4 21  2  0  0  0  0
  4  3  1  0  0  0  0
  5 25  2  0  0  0  0
  6 18  2  0  0  0  0
  6  5  1  0  0  0  0
  7 24  1  6  0  0  0
  7 19  1  0  0  0  0
  8 17  1  0  0  0  0
  9 28  2  0  0  0  0
  9 15  1  0  0  0  0
 10 20  1  0  0  0  0
 10  1  1  0  0  0  0
 11 13  1  0  0  0  0
 12  2  1  0  0  0  0
 12  8  1  0  0  0  0
 13 12  2  0  0  0  0
 14 27  1  0  0  0  0
 15 18  1  0  0  0  0
 17  7  1  0  0  0  0
 17 10  1  0  0  0  0
 19 16  1  0  0  0  0
 20 29  1  0  0  0  0
 20  1  1  0  0  0  0
 21 22  1  0  0  0  0
 22 14  2  0  0  0  0
 22 13  1  0  0  0  0
 23 28  1  0  0  0  0
 23 14  1  0  0  0  0
 26  9  1  0  0  0  0
 27  5  1  0  0  0  0
 27  2  2  0  0  0  0
 28  6  1  0  0  0  0
 30 29  1  0  0  0  0
 30 32  1  0  0  0  0
 31 30  2  0  0  0  0
M  END
>  <MODEL>
3

>  <REMARK>
 VINA RESULT:      -9.6      2.688      8.224
  Name = 
  2 active torsions:
  status: ('A' for Active; 'I' for Inactive)
    1  A    between atoms: C_20  and  C_29
    2  A    between atoms: C_29  and  C_30
                            x       y       z     vdW  Elec       q    Type
                         _______ _______ _______ _____ _____    ______ ____

>  <TORSDO>
F 2

$$$$
=
 OpenBabel11122410423D

 32 38  0  0  1  0  0  0  0  0999 V2000
  191.4020  176.7690  137.2190 C   0  0  1  0  0  3  0  0  0  0  0  0
  189.6040  177.5470  142.1370 C   0  0  0  0  0  0  0  0  0  0  0  0
  184.9200  178.5970  141.2990 C   0  0  0  0  0  3  0  0  0  0  0  0
  184.6730  178.6260  142.6700 C   0  0  0  0  0  3  0  0  0  0  0  0
  190.4750  177.3140  144.5250 C   0  0  0  0  0  0  0  0  0  0  0  0
  190.1600  177.3850  145.9440 C   0  0  0  0  0  0  0  0  0  0  0  0
  190.9310  176.6840  140.1810 C   0  0  1  0  0  3  0  0  0  0  0  0
  188.7730  177.7590  139.8220 N   0  0  0  0  0  2  0  0  0  0  0  0
  188.9990  177.6390  147.7690 C   0  0  0  0  0  0  0  0  0  0  0  0
  190.0370  177.1430  137.8000 C   0  0  2  0  0  3  0  0  0  0  0  0
  186.2050  178.3270  140.8290 C   0  0  0  0  0  3  0  0  0  0  0  0
  188.5440  177.8130  141.2400 C   0  0  0  0  0  0  0  0  0  0  0  0
  187.2590  178.0810  141.7230 C   0  0  0  0  0  0  0  0  0  0  0  0
  188.0600  177.8610  144.0270 C   0  0  0  0  0  0  0  0  0  0  0  0
  190.2370  177.3670  148.1230 O   0  0  0  0  0  0  0  0  0  0  0  0
  192.5760  176.9150  138.2130 C   0  0  0  0  0  2  0  0  0  0  0  0
  190.1110  177.5990  139.2700 C   0  0  2  0  0  3  0  0  0  0  0  0
  190.9810  177.2040  147.0430 C   0  0  0  0  0  3  0  0  0  0  0  0
  192.3390  176.4140  139.6480 C   0  0  0  0  0  2  0  0  0  0  0  0
  190.4040  175.6780  137.5820 C   0  0  1  0  0  3  0  0  0  0  0  0
  185.7110  178.3830  143.5710 C   0  0  0  0  0  3  0  0  0  0  0  0
  187.0130  178.1080  143.1150 C   0  0  0  0  0  0  0  0  0  0  0  0
  187.7310  177.9050  145.5190 C   0  0  0  0  0  2  0  0  0  0  0  0
  190.9860  177.2990  141.5720 C   0  0  0  0  0  2  0  0  0  0  0  0
  191.6510  177.0310  144.1680 O   0  0  0  0  0  0  0  0  0  0  0  0
  187.8860  177.8790  148.7270 C   0  0  0  0  0  1  0  0  0  0  0  0
  189.3750  177.5760  143.5400 C   0  0  0  0  0  0  0  0  0  0  0  0
  188.9110  177.6610  146.3980 C   0  0  0  0  0  0  0  0  0  0  0  0
  189.7270  175.1780  136.3220 C   0  0  0  0  0  2  0  0  0  0  0  0
  189.9040  173.7050  136.2050 C   0  0  0  0  0  0  0  0  0  0  0  0
  191.1800  173.1610  136.1500 O   0  0  0  0  0  1  0  0  0  0  0  0
  188.8970  172.9550  136.1210 O   0  0  0  0  0  0  0  0  0  0  0  0
  1 20  1  0  0  0  0
  1 10  1  0  0  0  0
  1 16  1  1  0  0  0
  2 27  1  0  0  0  0
  3  4  1  0  0  0  0
  4 21  2  0  0  0  0
  5  6  1  0  0  0  0
  6 28  1  0  0  0  0
  6 18  2  0  0  0  0
  7 19  1  6  0  0  0
  7 24  1  0  0  0  0
  8 12  1  0  0  0  0
  9 15  1  0  0  0  0
  9 26  1  0  0  0  0
 10 17  1  0  0  0  0
 11  3  2  0  0  0  0
 11 13  1  0  0  0  0
 12 13  1  0  0  0  0
 12  2  2  0  0  0  0
 13 22  2  0  0  0  0
 14 23  1  0  0  0  0
 16 19  1  0  0  0  0
 17  8  1  0  0  0  0
 17  7  1  0  0  0  0
 18 15  1  0  0  0  0
 20 10  1  0  0  0  0
 22 21  1  0  0  0  0
 22 14  1  0  0  0  0
 23 28  1  0  0  0  0
 24  2  1  0  0  0  0
 25  5  2  0  0  0  0
 27 14  2  0  0  0  0
 27  5  1  0  0  0  0
 28  9  2  0  0  0  0
 29 20  1  0  0  0  0
 30 29  1  0  0  0  0
 31 30  1  0  0  0  0
 32 30  2  0  0  0  0
M  END
>  <MODEL>
4

>  <REMARK>
 VINA RESULT:      -9.6      2.047      2.604
  Name = 
  2 active torsions:
  status: ('A' for Active; 'I' for Inactive)
    1  A    between atoms: C_20  and  C_29
    2  A    between atoms: C_29  and  C_30
                            x       y       z     vdW  Elec       q    Type
                         _______ _______ _______ _____ _____    ______ ____

>  <TORSDO>
F 2

$$$$
=
 OpenBabel11122410423D

 32 38  0  0  1  0  0  0  0  0999 V2000
  179.0610  179.7080  140.8380 C   0  0  1  0  0  3  0  0  0  0  0  0
  183.8190  178.6290  142.8940 C   0  0  0  0  0  0  0  0  0  0  0  0
  186.5660  178.3500  138.8790 C   0  0  0  0  0  3  0  0  0  0  0  0
  187.7090  178.1980  139.6630 C   0  0  0  0  0  3  0  0  0  0  0  0
  184.8820  178.4610  145.2080 C   0  0  0  0  0  0  0  0  0  0  0  0
  186.1070  178.2720  145.9710 C   0  0  0  0  0  0  0  0  0  0  0  0
  181.4830  179.5160  142.5990 C   0  0  1  0  0  3  0  0  0  0  0  0
  182.7790  178.8040  140.6620 N   0  0  0  0  0  2  0  0  0  0  0  0
  188.2220  177.9750  146.3980 C   0  0  0  0  0  0  0  0  0  0  0  0
  180.4460  179.4650  140.2330 C   0  0  2  0  0  3  0  0  0  0  0  0
  185.3190  178.4900  139.4880 C   0  0  0  0  0  3  0  0  0  0  0  0
  183.9420  178.6200  141.4850 C   0  0  0  0  0  0  0  0  0  0  0  0
  185.1990  178.4810  140.8860 C   0  0  0  0  0  0  0  0  0  0  0  0
  186.2530  178.3190  143.0910 C   0  0  0  0  0  0  0  0  0  0  0  0
  187.5900  178.0280  147.5510 O   0  0  0  0  0  0  0  0  0  0  0  0
  178.9340  179.2860  142.3190 C   0  0  0  0  0  2  0  0  0  0  0  0
  181.4380  178.8370  141.2300 C   0  0  2  0  0  3  0  0  0  0  0  0
  186.2980  178.2090  147.3400 C   0  0  0  0  0  3  0  0  0  0  0  0
  180.1040  179.6460  143.2480 C   0  0  0  0  0  2  0  0  0  0  0  0
  180.0050  180.8800  140.5980 C   0  0  1  0  0  3  0  0  0  0  0  0
  187.6040  178.1880  141.0540 C   0  0  0  0  0  3  0  0  0  0  0  0
  186.3550  178.3280  141.6850 C   0  0  0  0  0  0  0  0  0  0  0  0
  187.5380  178.1500  143.8990 C   0  0  0  0  0  2  0  0  0  0  0  0
  182.4370  178.7440  143.4990 C   0  0  0  0  0  2  0  0  0  0  0  0
  183.7910  178.6150  145.8230 O   0  0  0  0  0  0  0  0  0  0  0  0
  189.6910  177.7850  146.2550 C   0  0  0  0  0  1  0  0  0  0  0  0
  184.9710  178.4710  143.7110 C   0  0  0  0  0  0  0  0  0  0  0  0
  187.3170  178.1240  145.3740 C   0  0  0  0  0  0  0  0  0  0  0  0
  179.5870  181.6110  139.3390 C   0  0  0  0  0  2  0  0  0  0  0  0
  180.7070  181.6100  138.3600 C   0  0  0  0  0  0  0  0  0  0  0  0
  180.5040  181.1310  137.0720 O   0  0  0  0  0  0  0  0  0  0  0  0
  181.8480  182.0120  138.7080 O   0  0  0  0  0  1  0  0  0  0  0  0
  1 16  1  1  0  0  0
  2 24  1  0  0  0  0
  2 27  1  0  0  0  0
  3 11  2  0  0  0  0
  3  4  1  0  0  0  0
  4 21  2  0  0  0  0
  5 25  2  0  0  0  0
  5  6  1  0  0  0  0
  6 18  2  0  0  0  0
  7 19  1  1  0  0  0
  7 24  1  0  0  0  0
  8 17  1  0  0  0  0
  8 12  1  0  0  0  0
  9 15  1  0  0  0  0
 10 20  1  0  0  0  0
 10  1  1  0  0  0  0
 10 17  1  0  0  0  0
 11 13  1  0  0  0  0
 12  2  2  0  0  0  0
 13 12  1  0  0  0  0
 13 22  2  0  0  0  0
 14 27  2  0  0  0  0
 14 23  1  0  0  0  0
 16 19  1  0  0  0  0
 17  7  1  0  0  0  0
 18 15  1  0  0  0  0
 20  1  1  0  0  0  0
 21 22  1  0  0  0  0
 22 14  1  0  0  0  0
 23 28  1  0  0  0  0
 26  9  1  0  0  0  0
 27  5  1  0  0  0  0
 28  6  1  0  0  0  0
 28  9  2  0  0  0  0
 29 20  1  0  0  0  0
 30 32  1  0  0  0  0
 30 29  1  0  0  0  0
 31 30  2  0  0  0  0
M  END
>  <MODEL>
5

>  <REMARK>
 VINA RESULT:      -9.2      3.110      6.136
  Name = 
  2 active torsions:
  status: ('A' for Active; 'I' for Inactive)
    1  A    between atoms: C_20  and  C_29
    2  A    between atoms: C_29  and  C_30
                            x       y       z     vdW  Elec       q    Type
                         _______ _______ _______ _____ _____    ______ ____

>  <TORSDO>
F 2

$$$$
=
 OpenBabel11122410423D

 32 38  0  0  1  0  0  0  0  0999 V2000
  191.4410  176.6530  136.9500 C   0  0  1  0  0  3  0  0  0  0  0  0
  188.4210  177.7210  141.1660 C   0  0  0  0  0  0  0  0  0  0  0  0
  184.2310  179.0240  139.0470 C   0  0  0  0  0  3  0  0  0  0  0  0
  183.6200  179.1190  140.2970 C   0  0  0  0  0  3  0  0  0  0  0  0
  188.5850  177.5230  143.7050 C   0  0  0  0  0  0  0  0  0  0  0  0
  187.8990  177.6660  144.9810 C   0  0  0  0  0  0  0  0  0  0  0  0
  190.1710  176.7070  139.6690 C   0  0  1  0  0  3  0  0  0  0  0  0
  188.2740  177.8970  138.7080 N   0  0  0  0  0  2  0  0  0  0  0  0
  186.3020  178.0570  146.4080 C   0  0  0  0  0  0  0  0  0  0  0  0
  189.9980  177.1310  137.1250 C   0  0  2  0  0  3  0  0  0  0  0  0
  185.5740  178.6580  138.9550 C   0  0  0  0  0  3  0  0  0  0  0  0
  187.6690  178.0180  140.0050 C   0  0  0  0  0  0  0  0  0  0  0  0
  186.3220  178.3810  140.1100 C   0  0  0  0  0  0  0  0  0  0  0  0
  186.4430  178.1980  142.5500 C   0  0  0  0  0  0  0  0  0  0  0  0
  187.3740  177.7240  147.0960 O   0  0  0  0  0  0  0  0  0  0  0  0
  192.3040  176.7630  138.2270 C   0  0  0  0  0  2  0  0  0  0  0  0
  189.6970  177.6360  138.5490 C   0  0  2  0  0  3  0  0  0  0  0  0
  188.3720  177.4750  146.2670 C   0  0  0  0  0  3  0  0  0  0  0  0
  191.6490  176.3320  139.5500 C   0  0  0  0  0  2  0  0  0  0  0  0
  190.3080  175.6390  137.0440 C   0  0  1  0  0  3  0  0  0  0  0  0
  184.3510  178.8460  141.4530 C   0  0  0  0  0  3  0  0  0  0  0  0
  185.7070  178.4750  141.3790 C   0  0  0  0  0  0  0  0  0  0  0  0
  185.7210  178.3180  143.8910 C   0  0  0  0  0  2  0  0  0  0  0  0
  189.8840  177.3690  141.0090 C   0  0  0  0  0  2  0  0  0  0  0  0
  189.7920  177.1560  143.6920 O   0  0  0  0  0  0  0  0  0  0  0  0
  184.9880  178.4010  147.0170 C   0  0  0  0  0  1  0  0  0  0  0  0
  187.8190  177.8160  142.4500 C   0  0  0  0  0  0  0  0  0  0  0  0
  186.5950  178.0340  145.0660 C   0  0  0  0  0  0  0  0  0  0  0  0
  189.9700  175.1360  135.6560 C   0  0  0  0  0  2  0  0  0  0  0  0
  189.3890  173.7680  135.7430 C   0  0  0  0  0  0  0  0  0  0  0  0
  189.3730  172.9480  134.6230 O   0  0  0  0  0  0  0  0  0  0  0  0
  188.8840  173.3670  136.8230 O   0  0  0  0  0  1  0  0  0  0  0  0
  1 20  1  0  0  0  0
  1 10  1  0  0  0  0
  1 16  1  1  0  0  0
  2 27  1  0  0  0  0
  3  4  1  0  0  0  0
  4 21  2  0  0  0  0
  5  6  1  0  0  0  0
  6 28  1  0  0  0  0
  6 18  2  0  0  0  0
  7 19  1  6  0  0  0
  7 24  1  0  0  0  0
  8 12  1  0  0  0  0
  9 26  1  0  0  0  0
  9 15  1  0  0  0  0
 10 17  1  0  0  0  0
 11  3  2  0  0  0  0
 11 13  1  0  0  0  0
 12 13  1  0  0  0  0
 12  2  2  0  0  0  0
 13 22  2  0  0  0  0
 14 23  1  0  0  0  0
 16 19  1  0  0  0  0
 17  8  1  0  0  0  0
 17  7  1  0  0  0  0
 18 15  1  0  0  0  0
 20 10  1  0  0  0  0
 22 21  1  0  0  0  0
 22 14  1  0  0  0  0
 23 28  1  0  0  0  0
 24  2  1  0  0  0  0
 25  5  2  0  0  0  0
 27 14  2  0  0  0  0
 27  5  1  0  0  0  0
 28  9  2  0  0  0  0
 29 30  1  0  0  0  0
 29 20  1  0  0  0  0
 30 32  1  0  0  0  0
 31 30  2  0  0  0  0
M  END
>  <MODEL>
6

>  <REMARK>
 VINA RESULT:      -9.1      2.055      2.863
  Name = 
  2 active torsions:
  status: ('A' for Active; 'I' for Inactive)
    1  A    between atoms: C_20  and  C_29
    2  A    between atoms: C_29  and  C_30
                            x       y       z     vdW  Elec       q    Type
                         _______ _______ _______ _____ _____    ______ ____

>  <TORSDO>
F 2

$$$$
=
 OpenBabel11122410423D

 32 38  0  0  1  0  0  0  0  0999 V2000
  190.9550  177.4660  145.1480 C   0  0  1  0  0  3  0  0  0  0  0  0
  186.2830  178.3080  142.8050 C   0  0  0  0  0  0  0  0  0  0  0  0
  187.5390  178.2590  138.0980 C   0  0  0  0  0  3  0  0  0  0  0  0
  186.1990  178.3650  137.7310 C   0  0  0  0  0  3  0  0  0  0  0  0
  183.8320  178.4920  143.4930 C   0  0  0  0  0  0  0  0  0  0  0  0
  182.4530  178.6290  143.0470 C   0  0  0  0  0  0  0  0  0  0  0  0
  188.0390  177.5650  144.4460 C   0  0  1  0  0  3  0  0  0  0  0  0
  188.6570  178.1190  142.1550 N   0  0  0  0  0  2  0  0  0  0  0  0
  180.7480  178.8020  141.7040 C   0  0  0  0  0  0  0  0  0  0  0  0
  190.5100  177.5960  143.6900 C   0  0  2  0  0  3  0  0  0  0  0  0
  187.8910  178.2230  139.4470 C   0  0  0  0  0  3  0  0  0  0  0  0
  187.2720  178.2580  141.7960 C   0  0  0  0  0  0  0  0  0  0  0  0
  186.9070  178.2920  140.4460 C   0  0  0  0  0  0  0  0  0  0  0  0
  184.5450  178.4650  141.0700 C   0  0  0  0  0  0  0  0  0  0  0  0
  180.2850  178.8330  142.9350 O   0  0  0  0  0  0  0  0  0  0  0  0
  189.9080  177.9510  146.1760 C   0  0  0  0  0  2  0  0  0  0  0  0
  189.0980  178.1950  143.5410 C   0  0  2  0  0  3  0  0  0  0  0  0
  181.2890  178.7300  143.7880 C   0  0  0  0  0  3  0  0  0  0  0  0
  188.4460  177.5500  145.9210 C   0  0  0  0  0  2  0  0  0  0  0  0
  190.5400  176.2280  144.3650 C   0  0  1  0  0  3  0  0  0  0  0  0
  185.2100  178.4330  138.7140 C   0  0  0  0  0  3  0  0  0  0  0  0
  185.5460  178.3980  140.0790 C   0  0  0  0  0  0  0  0  0  0  0  0
  183.0920  178.5800  140.6100 C   0  0  0  0  0  2  0  0  0  0  0  0
  186.7240  178.3070  144.2530 C   0  0  0  0  0  2  0  0  0  0  0  0
  184.0770  178.4320  144.7290 O   0  0  0  0  0  0  0  0  0  0  0  0
  179.8980  178.8910  140.4850 C   0  0  0  0  0  1  0  0  0  0  0  0
  184.9100  178.4210  142.4530 C   0  0  0  0  0  0  0  0  0  0  0  0
  182.1160  178.6760  141.7330 C   0  0  0  0  0  0  0  0  0  0  0  0
  191.7780  175.4790  143.9170 C   0  0  0  0  0  2  0  0  0  0  0  0
  192.2180  174.5440  144.9880 C   0  0  0  0  0  0  0  0  0  0  0  0
  192.4300  175.0140  146.2770 O   0  0  0  0  0  1  0  0  0  0  0  0
  192.4290  173.3330  144.7180 O   0  0  0  0  0  0  0  0  0  0  0  0
  1 16  1  1  0  0  0
  2 24  1  0  0  0  0
  3 11  1  0  0  0  0
  4  3  2  0  0  0  0
  4 21  1  0  0  0  0
  5 25  2  0  0  0  0
  6  5  1  0  0  0  0
  6 18  2  0  0  0  0
  7 24  1  1  0  0  0
  7 19  1  0  0  0  0
  8 17  1  0  0  0  0
  9 28  2  0  0  0  0
  9 15  1  0  0  0  0
 10 20  1  0  0  0  0
 10  1  1  0  0  0  0
 11 13  2  0  0  0  0
 12  8  1  0  0  0  0
 12  2  2  0  0  0  0
 13 12  1  0  0  0  0
 14 27  2  0  0  0  0
 15 18  1  0  0  0  0
 17 10  1  0  0  0  0
 17  7  1  0  0  0  0
 19 16  1  0  0  0  0
 20  1  1  0  0  0  0
 21 22  2  0  0  0  0
 22 13  1  0  0  0  0
 22 14  1  0  0  0  0
 23 14  1  0  0  0  0
 23 28  1  0  0  0  0
 26  9  1  0  0  0  0
 27  2  1  0  0  0  0
 27  5  1  0  0  0  0
 28  6  1  0  0  0  0
 29 20  1  0  0  0  0
 29 30  1  0  0  0  0
 30 31  1  0  0  0  0
 32 30  2  0  0  0  0
M  END
>  <MODEL>
7

>  <REMARK>
 VINA RESULT:      -9.1      2.694      7.343
  Name = 
  2 active torsions:
  status: ('A' for Active; 'I' for Inactive)
    1  A    between atoms: C_20  and  C_29
    2  A    between atoms: C_29  and  C_30
                            x       y       z     vdW  Elec       q    Type
                         _______ _______ _______ _____ _____    ______ ____

>  <TORSDO>
F 2

$$$$
=
 OpenBabel11122410423D

 32 38  0  0  1  0  0  0  0  0999 V2000
  190.3420  176.5740  147.3440 C   0  0  1  0  0  3  0  0  0  0  0  0
  188.5870  177.4330  142.4230 C   0  0  0  0  0  0  0  0  0  0  0  0
  183.9370  178.6280  143.2510 C   0  0  0  0  0  3  0  0  0  0  0  0
  183.7600  178.9100  141.8970 C   0  0  0  0  0  3  0  0  0  0  0  0
  189.5590  177.5520  140.0660 C   0  0  0  0  0  0  0  0  0  0  0  0
  189.3050  177.8360  138.6610 C   0  0  0  0  0  0  0  0  0  0  0  0
  190.0850  177.2810  144.4390 C   0  0  1  0  0  3  0  0  0  0  0  0
  187.6640  177.3220  144.7100 N   0  0  0  0  0  2  0  0  0  0  0  0
  188.2360  178.4200  136.8560 C   0  0  0  0  0  0  0  0  0  0  0  0
  188.9870  176.9770  146.7580 C   0  0  2  0  0  3  0  0  0  0  0  0
  185.1760  178.1880  143.7140 C   0  0  0  0  0  3  0  0  0  0  0  0
  187.4930  177.5810  143.3070 C   0  0  0  0  0  0  0  0  0  0  0  0
  186.2550  178.0250  142.8310 C   0  0  0  0  0  0  0  0  0  0  0  0
  187.1550  178.1550  140.5560 C   0  0  0  0  0  0  0  0  0  0  0  0
  189.4670  178.1180  136.5050 O   0  0  0  0  0  0  0  0  0  0  0  0
  191.3450  176.0270  146.3020 C   0  0  0  0  0  2  0  0  0  0  0  0
  188.8950  176.7490  145.2370 C   0  0  2  0  0  3  0  0  0  0  0  0
  190.1560  177.7560  137.5730 C   0  0  0  0  0  3  0  0  0  0  0  0
  191.4310  176.7730  144.9610 C   0  0  0  0  0  2  0  0  0  0  0  0
  189.9960  178.0460  147.1690 C   0  0  1  0  0  3  0  0  0  0  0  0
  184.8240  178.7530  141.0080 C   0  0  0  0  0  3  0  0  0  0  0  0
  186.0820  178.3110  141.4570 C   0  0  0  0  0  0  0  0  0  0  0  0
  186.9040  178.4790  139.0840 C   0  0  0  0  0  2  0  0  0  0  0  0
  189.8970  176.9130  142.9740 C   0  0  0  0  0  2  0  0  0  0  0  0
  190.7130  177.1900  140.4230 O   0  0  0  0  0  0  0  0  0  0  0  0
  187.1810  178.8730  135.9090 C   0  0  0  0  0  1  0  0  0  0  0  0
  188.4280  177.7100  141.0380 C   0  0  0  0  0  0  0  0  0  0  0  0
  188.0930  178.2530  138.2130 C   0  0  0  0  0  0  0  0  0  0  0  0
  189.5870  178.6280  148.5070 C   0  0  0  0  0  2  0  0  0  0  0  0
  188.1420  178.3680  148.7490 C   0  0  0  0  0  0  0  0  0  0  0  0
  187.1800  179.1050  148.0710 O   0  0  0  0  0  0  0  0  0  0  0  0
  187.7910  177.5030  149.5930 O   0  0  0  0  0  1  0  0  0  0  0  0
  1 16  1  6  0  0  0
  2 24  1  0  0  0  0
  2 12  1  0  0  0  0
  3 11  2  0  0  0  0
  4  3  1  0  0  0  0
  5 25  2  0  0  0  0
  5 27  1  0  0  0  0
  6  5  1  0  0  0  0
  7 24  1  6  0  0  0
  7 19  1  0  0  0  0
  7 17  1  0  0  0  0
  8 17  1  0  0  0  0
  9 28  2  0  0  0  0
 10 20  1  0  0  0  0
 10  1  1  0  0  0  0
 12  8  1  0  0  0  0
 13 12  2  0  0  0  0
 13 11  1  0  0  0  0
 14 27  1  0  0  0  0
 14 22  2  0  0  0  0
 15  9  1  0  0  0  0
 15 18  1  0  0  0  0
 17 10  1  0  0  0  0
 18  6  2  0  0  0  0
 19 16  1  0  0  0  0
 20  1  1  0  0  0  0
 20 29  1  0  0  0  0
 21 22  1  0  0  0  0
 21  4  2  0  0  0  0
 22 13  1  0  0  0  0
 23 14  1  0  0  0  0
 26  9  1  0  0  0  0
 27  2  2  0  0  0  0
 28  6  1  0  0  0  0
 28 23  1  0  0  0  0
 29 30  1  0  0  0  0
 30 32  1  0  0  0  0
 31 30  2  0  0  0  0
M  END
>  <MODEL>
8

>  <REMARK>
 VINA RESULT:      -8.9      2.182      7.686
  Name = 
  2 active torsions:
  status: ('A' for Active; 'I' for Inactive)
    1  A    between atoms: C_20  and  C_29
    2  A    between atoms: C_29  and  C_30
                            x       y       z     vdW  Elec       q    Type
                         _______ _______ _______ _____ _____    ______ ____

>  <TORSDO>
F 2

$$$$
=
 OpenBabel11122410423D

 32 38  0  0  1  0  0  0  0  0999 V2000
  181.5530  179.0580  139.8930 C   0  0  1  0  0  3  0  0  0  0  0  0
  185.7060  178.1370  143.0460 C   0  0  0  0  0  0  0  0  0  0  0  0
  189.3270  177.8110  139.8030 C   0  0  0  0  0  3  0  0  0  0  0  0
  190.2550  177.7050  140.8380 C   0  0  0  0  0  3  0  0  0  0  0  0
  186.1930  178.0540  145.5500 C   0  0  0  0  0  0  0  0  0  0  0  0
  187.2070  177.9110  146.5850 C   0  0  0  0  0  0  0  0  0  0  0  0
  183.4930  178.9650  142.1810 C   0  0  1  0  0  3  0  0  0  0  0  0
  185.2200  178.2300  140.6270 N   0  0  0  0  0  2  0  0  0  0  0  0
  189.1640  177.6720  147.5080 C   0  0  0  0  0  0  0  0  0  0  0  0
  183.0450  178.8290  139.6400 C   0  0  2  0  0  3  0  0  0  0  0  0
  187.9700  177.9400  140.0950 C   0  0  0  0  0  3  0  0  0  0  0  0
  186.1580  178.0930  141.7070 C   0  0  0  0  0  0  0  0  0  0  0  0
  187.5230  177.9660  141.4260 C   0  0  0  0  0  0  0  0  0  0  0  0
  188.0280  177.8850  143.8210 C   0  0  0  0  0  0  0  0  0  0  0  0
  188.2770  177.7420  148.4770 O   0  0  0  0  0  0  0  0  0  0  0  0
  181.0850  178.6720  141.3150 C   0  0  0  0  0  2  0  0  0  0  0  0
  183.7830  178.2490  140.8620 C   0  0  2  0  0  3  0  0  0  0  0  0
  187.0690  177.8880  147.9620 C   0  0  0  0  0  3  0  0  0  0  0  0
  181.9980  179.0820  142.4830 C   0  0  0  0  0  2  0  0  0  0  0  0
  182.5090  180.2430  139.8470 C   0  0  1  0  0  3  0  0  0  0  0  0
  189.8250  177.7290  142.1650 C   0  0  0  0  0  3  0  0  0  0  0  0
  188.4590  177.8590  142.4790 C   0  0  0  0  0  0  0  0  0  0  0  0
  189.0890  177.7660  144.9140 C   0  0  0  0  0  2  0  0  0  0  0  0
  184.2180  178.2380  143.3040 C   0  0  0  0  0  2  0  0  0  0  0  0
  184.9870  178.2000  145.8850 O   0  0  0  0  0  0  0  0  0  0  0  0
  190.6280  177.5100  147.7210 C   0  0  0  0  0  1  0  0  0  0  0  0
  186.6340  178.0250  144.1170 C   0  0  0  0  0  0  0  0  0  0  0  0
  188.5260  177.7730  146.2960 C   0  0  0  0  0  0  0  0  0  0  0  0
  182.3900  180.9310  138.5030 C   0  0  0  0  0  2  0  0  0  0  0  0
  181.1940  181.8180  138.4950 C   0  0  0  0  0  0  0  0  0  0  0  0
  180.2080  181.6640  139.4600 O   0  0  0  0  0  1  0  0  0  0  0  0
  181.0610  182.6860  137.5930 O   0  0  0  0  0  0  0  0  0  0  0  0
  1 16  1  1  0  0  0
  2 24  1  0  0  0  0
  2 27  1  0  0  0  0
  3 11  2  0  0  0  0
  3  4  1  0  0  0  0
  4 21  2  0  0  0  0
  5 25  2  0  0  0  0
  5  6  1  0  0  0  0
  6 18  2  0  0  0  0
  7 19  1  1  0  0  0
  7 24  1  0  0  0  0
  8 17  1  0  0  0  0
  8 12  1  0  0  0  0
  9 26  1  0  0  0  0
  9 15  1  0  0  0  0
 10 20  1  0  0  0  0
 10  1  1  0  0  0  0
 10 17  1  0  0  0  0
 11 13  1  0  0  0  0
 12  2  2  0  0  0  0
 13 12  1  0  0  0  0
 13 22  2  0  0  0  0
 14 27  2  0  0  0  0
 14 23  1  0  0  0  0
 16 19  1  0  0  0  0
 17  7  1  0  0  0  0
 18 15  1  0  0  0  0
 20  1  1  0  0  0  0
 21 22  1  0  0  0  0
 22 14  1  0  0  0  0
 23 28  1  0  0  0  0
 27  5  1  0  0  0  0
 28  6  1  0  0  0  0
 28  9  2  0  0  0  0
 29 20  1  0  0  0  0
 30 29  1  0  0  0  0
 30 31  1  0  0  0  0
 32 30  2  0  0  0  0
M  END
>  <MODEL>
9

>  <REMARK>
 VINA RESULT:      -8.7      2.845      5.264
  Name = 
  2 active torsions:
  status: ('A' for Active; 'I' for Inactive)
    1  A    between atoms: C_20  and  C_29
    2  A    between atoms: C_29  and  C_30
                            x       y       z     vdW  Elec       q    Type
                         _______ _______ _______ _____ _____    ______ ____

>  <TORSDO>
F 2

$$$$
