=
 OpenBabel11122410433D

 32 37  0  0  1  0  0  0  0  0999 V2000
  188.0580  178.2740  136.6360 C   0  0  0  0  0  2  0  0  0  0  0  0
  188.0950  177.8430  141.7930 C   0  0  0  0  0  0  0  0  0  0  0  0
  183.5610  178.6140  143.4590 C   0  0  0  0  0  2  0  0  0  0  0  0
  184.1320  179.1740  144.7480 C   0  0  0  0  0  2  0  0  0  0  0  0
  189.8880  177.0960  143.3970 C   0  0  1  0  0  3  0  0  0  0  0  0
  190.2700  177.2450  144.8310 C   0  0  0  0  0  0  0  0  0  0  0  0
  188.4640  177.3730  139.4100 N   0  0  1  0  0  0  0  0  0  0  0  0
  186.3200  178.3340  140.1170 C   0  0  0  0  0  2  0  0  0  0  0  0
  190.0390  177.4870  147.0890 C   0  0  0  0  0  0  0  0  0  0  0  0
  186.9210  178.2360  137.6650 C   0  0  2  0  0  3  0  0  0  0  0  0
  184.5480  178.8850  142.3330 C   0  0  0  0  0  2  0  0  0  0  0  0
  186.8170  178.1950  141.5400 C   0  0  0  0  0  0  0  0  0  0  0  0
  185.8870  178.3590  142.6300 N   0  0  0  0  0  0  0  0  0  0  0  0
  187.6120  177.8980  144.2540 C   0  0  0  0  0  0  0  0  0  0  0  0
  191.2810  177.1970  146.8570 N   0  0  0  0  0  0  0  0  0  0  0  0
  189.4410  178.3250  137.2830 C   0  0  0  0  0  2  0  0  0  0  0  0
  187.4550  178.3960  139.0970 C   0  0  2  0  0  3  0  0  0  0  0  0
  191.4330  177.0280  145.4350 C   0  0  0  0  0  3  0  0  0  0  0  0
  189.5400  177.2840  138.4030 C   0  0  0  0  0  2  0  0  0  0  0  0
  185.3660  178.3770  145.1410 C   0  0  0  0  0  2  0  0  0  0  0  0
  186.3410  178.2380  143.9990 C   0  0  0  0  0  0  0  0  0  0  0  0
  188.0770  177.8360  145.6160 N   0  0  0  0  0  0  0  0  0  0  0  0
  189.0980  177.7610  140.6650 C   0  0  0  0  0  2  0  0  0  0  0  0
  189.9190  175.6210  143.0230 C   0  0  0  0  0  1  0  0  0  0  0  0
  189.4900  177.7440  148.4470 C   0  0  0  0  0  1  0  0  0  0  0  0
  188.5340  177.6450  143.1540 N   0  0  0  0  0  0  0  0  0  0  0  0
  189.3120  177.5380  145.8450 C   0  0  0  0  0  0  0  0  0  0  0  0
  186.2240  177.0300  137.5330 O   0  0  0  0  0  0  0  0  0  0  0  0
  185.0990  177.3450  136.7690 C   0  0  0  0  0  2  0  0  0  0  0  0
  183.8680  177.1170  137.5730 C   0  0  0  0  0  0  0  0  0  0  0  0
  183.1080  178.2290  138.0300 N   0  0  0  0  0  1  0  0  0  0  0  0
  183.6080  175.9350  138.0250 N   0  0  0  0  0  2  0  0  0  0  0  0
  1 16  1  0  0  0  0
  1 10  1  0  0  0  0
  2 26  1  0  0  0  0
  3  4  1  0  0  0  0
  4 20  1  0  0  0  0
  5 24  1  1  0  0  0
  5  6  1  0  0  0  0
  6 18  2  0  0  0  0
  6 27  1  0  0  0  0
  7 19  1  6  0  0  0
  7 23  1  0  0  0  0
  8 12  1  0  0  0  0
  9 25  1  0  0  0  0
 10 28  1  1  0  0  0
 10 17  1  0  0  0  0
 11 13  1  0  0  0  0
 11  3  1  0  0  0  0
 12  2  2  0  0  0  0
 12 13  1  0  0  0  0
 13 21  1  0  0  0  0
 14 22  1  0  0  0  0
 15  9  2  0  0  0  0
 16 19  1  0  0  0  0
 17  7  1  0  0  0  0
 17  8  1  1  0  0  0
 18 15  1  0  0  0  0
 21 14  2  0  0  0  0
 21 20  1  0  0  0  0
 22 27  2  0  0  0  0
 23  2  1  0  0  0  0
 26  5  1  0  0  0  0
 26 14  1  0  0  0  0
 27  9  1  0  0  0  0
 29 28  1  0  0  0  0
 29 30  1  0  0  0  0
 30 32  2  0  0  0  0
 30 31  1  0  0  0  0
M  END
>  <MODEL>
1

>  <REMARK>
 VINA RESULT:      -9.3      0.000      0.000
  Name = 
  3 active torsions:
  status: ('A' for Active; 'I' for Inactive)
    1  A    between atoms: C_10  and  O_20
    2  A    between atoms: O_20  and  C_29
    3  A    between atoms: C_29  and  C_30
                            x       y       z     vdW  Elec       q    Type
                         _______ _______ _______ _____ _____    ______ ____

>  <TORSDO>
F 3

$$$$
=
 OpenBabel11122410433D

 32 37  0  0  1  0  0  0  0  0999 V2000
  190.2900  177.0670  136.6490 C   0  0  0  0  0  2  0  0  0  0  0  0
  189.2250  177.2980  141.7080 C   0  0  0  0  0  0  0  0  0  0  0  0
  184.5690  178.6870  142.2640 C   0  0  0  0  0  2  0  0  0  0  0  0
  184.9260  179.3530  143.5790 C   0  0  0  0  0  2  0  0  0  0  0  0
  190.5550  176.6020  143.7320 C   0  0  1  0  0  3  0  0  0  0  0  0
  190.6510  176.8980  145.1910 C   0  0  0  0  0  0  0  0  0  0  0  0
  190.0150  176.4950  139.5240 N   0  0  1  0  0  0  0  0  0  0  0  0
  187.8980  177.7310  139.6460 C   0  0  0  0  0  2  0  0  0  0  0  0
  189.9950  177.4470  147.3070 C   0  0  0  0  0  0  0  0  0  0  0  0
  188.9710  177.2640  137.4060 C   0  0  2  0  0  3  0  0  0  0  0  0
  185.7890  178.7210  141.3560 C   0  0  0  0  0  2  0  0  0  0  0  0
  188.0750  177.7300  141.1490 C   0  0  0  0  0  0  0  0  0  0  0  0
  186.9680  178.1170  141.9890 N   0  0  0  0  0  0  0  0  0  0  0  0
  188.2610  177.7120  143.9870 C   0  0  0  0  0  0  0  0  0  0  0  0
  191.2160  177.0170  147.3800 N   0  0  0  0  0  0  0  0  0  0  0  0
  191.5090  177.0730  137.5700 C   0  0  0  0  0  2  0  0  0  0  0  0
  189.2170  177.5580  138.8940 C   0  0  2  0  0  3  0  0  0  0  0  0
  191.6340  176.6550  146.0500 C   0  0  0  0  0  3  0  0  0  0  0  0
  191.2550  176.1800  138.7890 C   0  0  0  0  0  2  0  0  0  0  0  0
  185.9530  178.5040  144.3110 C   0  0  0  0  0  2  0  0  0  0  0  0
  187.1170  178.1310  143.4290 C   0  0  0  0  0  0  0  0  0  0  0  0
  188.4290  177.7820  145.4160 N   0  0  0  0  0  0  0  0  0  0  0  0
  190.4210  176.9810  140.8390 C   0  0  0  0  0  2  0  0  0  0  0  0
  190.4900  175.0950  143.5320 C   0  0  0  0  0  1  0  0  0  0  0  0
  189.2140  177.9240  148.4790 C   0  0  0  0  0  1  0  0  0  0  0  0
  189.3510  177.2370  143.1450 N   0  0  0  0  0  0  0  0  0  0  0  0
  189.5480  177.4050  145.9360 C   0  0  0  0  0  0  0  0  0  0  0  0
  188.1800  176.1210  137.2550 O   0  0  0  0  0  0  0  0  0  0  0  0
  188.7040  175.4650  136.1390 C   0  0  0  0  0  2  0  0  0  0  0  0
  188.6970  173.9960  136.3720 C   0  0  0  0  0  0  0  0  0  0  0  0
  189.6780  173.4120  137.2210 N   0  0  0  0  0  1  0  0  0  0  0  0
  187.9410  173.2360  135.6520 N   0  0  0  0  0  2  0  0  0  0  0  0
  1 10  1  0  0  0  0
  1 16  1  0  0  0  0
  2 26  1  0  0  0  0
  3  4  1  0  0  0  0
  4 20  1  0  0  0  0
  5 24  1  1  0  0  0
  5  6  1  0  0  0  0
  6 27  1  0  0  0  0
  6 18  2  0  0  0  0
  7 19  1  6  0  0  0
  7 23  1  0  0  0  0
  8 12  1  0  0  0  0
  9 15  2  0  0  0  0
  9 25  1  0  0  0  0
 10 28  1  1  0  0  0
 10 17  1  0  0  0  0
 11 13  1  0  0  0  0
 11  3  1  0  0  0  0
 12  2  2  0  0  0  0
 12 13  1  0  0  0  0
 13 21  1  0  0  0  0
 14 22  1  0  0  0  0
 16 19  1  0  0  0  0
 17  7  1  0  0  0  0
 17  8  1  1  0  0  0
 18 15  1  0  0  0  0
 21 14  2  0  0  0  0
 21 20  1  0  0  0  0
 22 27  2  0  0  0  0
 23  2  1  0  0  0  0
 26  5  1  0  0  0  0
 26 14  1  0  0  0  0
 27  9  1  0  0  0  0
 29 30  1  0  0  0  0
 29 28  1  0  0  0  0
 30 31  1  0  0  0  0
 32 30  2  0  0  0  0
M  END
>  <MODEL>
2

>  <REMARK>
 VINA RESULT:      -8.4      2.044      2.550
  Name = 
  3 active torsions:
  status: ('A' for Active; 'I' for Inactive)
    1  A    between atoms: C_10  and  O_20
    2  A    between atoms: O_20  and  C_29
    3  A    between atoms: C_29  and  C_30
                            x       y       z     vdW  Elec       q    Type
                         _______ _______ _______ _____ _____    ______ ____

>  <TORSDO>
F 3

$$$$
=
 OpenBabel11122410433D

 32 37  0  0  1  0  0  0  0  0999 V2000
  180.7020  178.7390  139.6950 C   0  0  0  0  0  2  0  0  0  0  0  0
  185.2200  178.3060  142.1810 C   0  0  0  0  0  0  0  0  0  0  0  0
  188.8420  178.6270  138.9100 C   0  0  0  0  0  2  0  0  0  0  0  0
  189.7010  177.7270  139.7760 C   0  0  0  0  0  2  0  0  0  0  0  0
  185.7780  178.2310  144.6370 C   0  0  1  0  0  3  0  0  0  0  0  0
  186.8570  177.7500  145.5470 C   0  0  0  0  0  0  0  0  0  0  0  0
  182.9500  179.0250  141.5750 N   0  0  1  0  0  0  0  0  0  0  0  0
  184.5910  178.6280  139.7930 C   0  0  0  0  0  2  0  0  0  0  0  0
  188.9520  177.2250  146.2880 C   0  0  0  0  0  0  0  0  0  0  0  0
  182.1490  178.9400  139.2250 C   0  0  2  0  0  3  0  0  0  0  0  0
  187.3810  178.2660  139.1340 C   0  0  0  0  0  2  0  0  0  0  0  0
  185.6050  178.3860  140.8900 C   0  0  0  0  0  0  0  0  0  0  0  0
  187.0070  178.3260  140.5530 N   0  0  0  0  0  0  0  0  0  0  0  0
  187.6140  177.9980  142.8660 C   0  0  0  0  0  0  0  0  0  0  0  0
  188.1570  177.1750  147.3110 N   0  0  0  0  0  0  0  0  0  0  0  0
  180.6120  178.1860  141.1160 C   0  0  0  0  0  2  0  0  0  0  0  0
  183.1530  178.4030  140.2570 C   0  0  2  0  0  3  0  0  0  0  0  0
  186.8340  177.5190  146.8550 C   0  0  0  0  0  3  0  0  0  0  0  0
  181.5530  178.9590  142.0450 C   0  0  0  0  0  2  0  0  0  0  0  0
  189.4620  178.0560  141.2400 C   0  0  0  0  0  2  0  0  0  0  0  0
  187.9940  178.0880  141.5840 C   0  0  0  0  0  0  0  0  0  0  0  0
  188.5900  177.7030  143.8840 N   0  0  0  0  0  0  0  0  0  0  0  0
  183.7510  178.2730  142.5350 C   0  0  0  0  0  2  0  0  0  0  0  0
  185.4400  179.6740  144.9850 C   0  0  0  0  0  1  0  0  0  0  0  0
  190.4060  176.9240  146.3560 C   0  0  0  0  0  1  0  0  0  0  0  0
  186.2090  178.1460  143.2210 N   0  0  0  0  0  0  0  0  0  0  0  0
  188.2040  177.5880  145.1100 C   0  0  0  0  0  0  0  0  0  0  0  0
  182.3680  180.3010  138.9880 O   0  0  0  0  0  0  0  0  0  0  0  0
  181.0970  180.8430  138.7900 C   0  0  0  0  0  2  0  0  0  0  0  0
  181.0810  181.6370  137.5320 C   0  0  0  0  0  0  0  0  0  0  0  0
  181.1630  183.0560  137.5930 N   0  0  0  0  0  1  0  0  0  0  0  0
  180.7880  181.0600  136.4140 N   0  0  0  0  0  2  0  0  0  0  0  0
  1 16  1  0  0  0  0
  2 23  1  0  0  0  0
  2 26  1  0  0  0  0
  3 11  1  0  0  0  0
  3  4  1  0  0  0  0
  4 20  1  0  0  0  0
  5 24  1  1  0  0  0
  5  6  1  0  0  0  0
  6 18  2  0  0  0  0
  7 19  1  1  0  0  0
  7 23  1  0  0  0  0
  8 12  1  0  0  0  0
  9 25  1  0  0  0  0
  9 15  2  0  0  0  0
 10 28  1  1  0  0  0
 10  1  1  0  0  0  0
 10 17  1  0  0  0  0
 11 13  1  0  0  0  0
 12  2  2  0  0  0  0
 13 12  1  0  0  0  0
 13 21  1  0  0  0  0
 14 26  1  0  0  0  0
 14 22  1  0  0  0  0
 16 19  1  0  0  0  0
 17  8  1  6  0  0  0
 17  7  1  0  0  0  0
 18 15  1  0  0  0  0
 20 21  1  0  0  0  0
 21 14  2  0  0  0  0
 22 27  2  0  0  0  0
 26  5  1  0  0  0  0
 27  6  1  0  0  0  0
 27  9  1  0  0  0  0
 29 28  1  0  0  0  0
 30 31  1  0  0  0  0
 30 29  1  0  0  0  0
 32 30  2  0  0  0  0
M  END
>  <MODEL>
3

>  <REMARK>
 VINA RESULT:      -8.1      2.613      5.048
  Name = 
  3 active torsions:
  status: ('A' for Active; 'I' for Inactive)
    1  A    between atoms: C_10  and  O_20
    2  A    between atoms: O_20  and  C_29
    3  A    between atoms: C_29  and  C_30
                            x       y       z     vdW  Elec       q    Type
                         _______ _______ _______ _____ _____    ______ ____

>  <TORSDO>
F 3

$$$$
=
 OpenBabel11122410433D

 32 37  0  0  1  0  0  0  0  0999 V2000
  193.1600  174.7750  135.3630 C   0  0  0  0  0  2  0  0  0  0  0  0
  189.6220  177.0020  138.4130 C   0  0  0  0  0  0  0  0  0  0  0  0
  191.6800  177.9740  142.7430 C   0  0  0  0  0  2  0  0  0  0  0  0
  190.3350  177.7950  143.4200 C   0  0  0  0  0  2  0  0  0  0  0  0
  187.2890  177.8270  137.9430 C   0  0  1  0  0  3  0  0  0  0  0  0
  186.0150  178.1160  138.6630 C   0  0  0  0  0  0  0  0  0  0  0  0
  191.0350  176.4860  136.4700 N   0  0  1  0  0  0  0  0  0  0  0  0
  192.0140  176.3780  138.7180 C   0  0  0  0  0  2  0  0  0  0  0  0
  184.6070  178.7600  140.3410 C   0  0  0  0  0  0  0  0  0  0  0  0
  193.2750  175.4470  136.7370 C   0  0  2  0  0  3  0  0  0  0  0  0
  191.7200  177.0920  141.5030 C   0  0  0  0  0  2  0  0  0  0  0  0
  190.6890  176.8950  139.2340 C   0  0  0  0  0  0  0  0  0  0  0  0
  190.5950  177.3580  140.5970 N   0  0  0  0  0  0  0  0  0  0  0  0
  188.2720  177.9480  140.3050 C   0  0  0  0  0  0  0  0  0  0  0  0
  183.8960  178.6460  139.2630 N   0  0  0  0  0  0  0  0  0  0  0  0
  191.7140  174.6340  134.8910 C   0  0  0  0  0  2  0  0  0  0  0  0
  191.8920  175.6880  137.3610 C   0  0  2  0  0  3  0  0  0  0  0  0
  184.7790  178.2520  138.1950 C   0  0  0  0  0  3  0  0  0  0  0  0
  190.9600  175.9520  135.0960 C   0  0  0  0  0  2  0  0  0  0  0  0
  189.2420  178.3630  142.5290 C   0  0  0  0  0  2  0  0  0  0  0  0
  189.3360  177.8500  141.1150 C   0  0  0  0  0  0  0  0  0  0  0  0
  187.0060  178.3820  140.8350 N   0  0  0  0  0  0  0  0  0  0  0  0
  189.6820  176.4350  137.0130 C   0  0  0  0  0  2  0  0  0  0  0  0
  187.6470  179.0180  137.0670 C   0  0  0  0  0  1  0  0  0  0  0  0
  184.0480  179.1450  141.6640 C   0  0  0  0  0  1  0  0  0  0  0  0
  188.3860  177.5650  138.9040 N   0  0  0  0  0  0  0  0  0  0  0  0
  185.9830  178.4410  140.0500 C   0  0  0  0  0  0  0  0  0  0  0  0
  193.9700  176.6530  136.6000 O   0  0  0  0  0  0  0  0  0  0  0  0
  194.5790  176.5790  135.3460 C   0  0  0  0  0  2  0  0  0  0  0  0
  195.8450  177.3590  135.3570 C   0  0  0  0  0  0  0  0  0  0  0  0
  197.0640  176.7200  135.7180 N   0  0  0  0  0  1  0  0  0  0  0  0
  195.8070  178.6450  135.2420 N   0  0  0  0  0  2  0  0  0  0  0  0
  1 10  1  0  0  0  0
  2 26  1  0  0  0  0
  2 12  2  0  0  0  0
  3  4  1  0  0  0  0
  5 24  1  1  0  0  0
  5  6  1  0  0  0  0
  5 26  1  0  0  0  0
  6 27  1  0  0  0  0
  7 19  1  6  0  0  0
  7 23  1  0  0  0  0
  7 17  1  0  0  0  0
  8 12  1  0  0  0  0
  9 25  1  0  0  0  0
 10 28  1  6  0  0  0
 10 17  1  0  0  0  0
 11  3  1  0  0  0  0
 12 13  1  0  0  0  0
 13 21  1  0  0  0  0
 13 11  1  0  0  0  0
 14 22  1  0  0  0  0
 14 21  2  0  0  0  0
 15  9  2  0  0  0  0
 16 19  1  0  0  0  0
 16  1  1  0  0  0  0
 17  8  1  1  0  0  0
 18  6  2  0  0  0  0
 18 15  1  0  0  0  0
 20  4  1  0  0  0  0
 21 20  1  0  0  0  0
 23  2  1  0  0  0  0
 26 14  1  0  0  0  0
 27  9  1  0  0  0  0
 27 22  2  0  0  0  0
 29 30  1  0  0  0  0
 29 28  1  0  0  0  0
 30 31  1  0  0  0  0
 32 30  2  0  0  0  0
M  END
>  <MODEL>
4

>  <REMARK>
 VINA RESULT:      -7.3      3.797      7.459
  Name = 
  3 active torsions:
  status: ('A' for Active; 'I' for Inactive)
    1  A    between atoms: C_10  and  O_20
    2  A    between atoms: O_20  and  C_29
    3  A    between atoms: C_29  and  C_30
                            x       y       z     vdW  Elec       q    Type
                         _______ _______ _______ _____ _____    ______ ____

>  <TORSDO>
F 3

$$$$
=
 OpenBabel11122410433D

 32 37  0  0  1  0  0  0  0  0999 V2000
  185.7340  177.8360  136.6050 C   0  0  0  0  0  2  0  0  0  0  0  0
  187.0310  178.1000  141.6080 C   0  0  0  0  0  0  0  0  0  0  0  0
  191.8700  177.5060  142.0020 C   0  0  0  0  0  2  0  0  0  0  0  0
  191.6790  176.8780  143.3690 C   0  0  0  0  0  2  0  0  0  0  0  0
  185.6910  178.7040  143.6550 C   0  0  1  0  0  3  0  0  0  0  0  0
  185.7050  178.4900  145.1310 C   0  0  0  0  0  0  0  0  0  0  0  0
  186.0310  178.6270  139.4260 N   0  0  1  0  0  0  0  0  0  0  0  0
  188.3240  177.7530  139.5080 C   0  0  0  0  0  2  0  0  0  0  0  0
  186.5280  178.1880  147.2380 C   0  0  0  0  0  0  0  0  0  0  0  0
  187.0980  177.9000  137.3040 C   0  0  2  0  0  3  0  0  0  0  0  0
  190.6340  177.2220  141.1610 C   0  0  0  0  0  2  0  0  0  0  0  0
  188.2110  177.8210  141.0160 C   0  0  0  0  0  0  0  0  0  0  0  0
  189.4000  177.6700  141.8190 N   0  0  0  0  0  0  0  0  0  0  0  0
  188.1430  177.9910  143.8550 C   0  0  0  0  0  0  0  0  0  0  0  0
  185.2580  178.4220  147.3500 N   0  0  0  0  0  0  0  0  0  0  0  0
  184.5710  177.6960  137.5870 C   0  0  0  0  0  2  0  0  0  0  0  0
  186.9650  177.6670  138.8170 C   0  0  2  0  0  3  0  0  0  0  0  0
  184.7320  178.6280  146.0250 C   0  0  0  0  0  3  0  0  0  0  0  0
  184.7270  178.6940  138.7390 C   0  0  0  0  0  2  0  0  0  0  0  0
  190.5600  177.5980  144.1040 C   0  0  0  0  0  2  0  0  0  0  0  0
  189.3160  177.7240  143.2630 C   0  0  0  0  0  0  0  0  0  0  0  0
  188.0480  177.9860  145.2920 N   0  0  0  0  0  0  0  0  0  0  0  0
  185.7650  178.1670  140.7850 C   0  0  0  0  0  2  0  0  0  0  0  0
  185.5040  180.1860  143.3680 C   0  0  0  0  0  1  0  0  0  0  0  0
  187.4240  177.9160  148.3940 C   0  0  0  0  0  1  0  0  0  0  0  0
  186.9560  178.2320  143.0440 N   0  0  0  0  0  0  0  0  0  0  0  0
  186.9050  178.2130  145.8470 C   0  0  0  0  0  0  0  0  0  0  0  0
  187.6860  179.1420  137.0490 O   0  0  0  0  0  0  0  0  0  0  0  0
  189.0480  178.8720  136.8940 C   0  0  0  0  0  2  0  0  0  0  0  0
  189.2280  177.7290  135.9590 C   0  0  0  0  0  0  0  0  0  0  0  0
  189.9190  176.5640  136.3950 N   0  0  0  0  0  1  0  0  0  0  0  0
  188.9450  177.8740  134.7070 N   0  0  0  0  0  2  0  0  0  0  0  0
  1 10  1  0  0  0  0
  1 16  1  0  0  0  0
  2 26  1  0  0  0  0
  3  4  1  0  0  0  0
  4 20  1  0  0  0  0
  5 24  1  1  0  0  0
  5  6  1  0  0  0  0
  6 27  1  0  0  0  0
  6 18  2  0  0  0  0
  7 19  1  6  0  0  0
  7 23  1  0  0  0  0
  8 12  1  0  0  0  0
  9 15  2  0  0  0  0
  9 25  1  0  0  0  0
 10 28  1  1  0  0  0
 10 17  1  0  0  0  0
 11 13  1  0  0  0  0
 11  3  1  0  0  0  0
 12  2  2  0  0  0  0
 12 13  1  0  0  0  0
 13 21  1  0  0  0  0
 14 22  1  0  0  0  0
 16 19  1  0  0  0  0
 17  7  1  0  0  0  0
 17  8  1  1  0  0  0
 18 15  1  0  0  0  0
 21 14  2  0  0  0  0
 21 20  1  0  0  0  0
 22 27  2  0  0  0  0
 23  2  1  0  0  0  0
 26  5  1  0  0  0  0
 26 14  1  0  0  0  0
 27  9  1  0  0  0  0
 29 28  1  0  0  0  0
 30 31  1  0  0  0  0
 30 29  1  0  0  0  0
 32 30  2  0  0  0  0
M  END
>  <MODEL>
5

>  <REMARK>
 VINA RESULT:      -7.0      1.852      4.542
  Name = 
  3 active torsions:
  status: ('A' for Active; 'I' for Inactive)
    1  A    between atoms: C_10  and  O_20
    2  A    between atoms: O_20  and  C_29
    3  A    between atoms: C_29  and  C_30
                            x       y       z     vdW  Elec       q    Type
                         _______ _______ _______ _____ _____    ______ ____

>  <TORSDO>
F 3

$$$$
=
 OpenBabel11122410433D

 32 37  0  0  1  0  0  0  0  0999 V2000
  183.2150  179.6270  140.1860 C   0  0  0  0  0  2  0  0  0  0  0  0
  187.9550  177.7410  139.3150 C   0  0  0  0  0  0  0  0  0  0  0  0
  190.4300  177.7260  143.5330 C   0  0  0  0  0  2  0  0  0  0  0  0
  191.7260  177.9270  142.7720 C   0  0  0  0  0  2  0  0  0  0  0  0
  188.9840  176.6780  137.2760 C   0  0  1  0  0  3  0  0  0  0  0  0
  190.3250  176.4330  136.6720 C   0  0  0  0  0  0  0  0  0  0  0  0
  185.5100  177.9960  139.3260 N   0  0  1  0  0  0  0  0  0  0  0  0
  186.7800  178.5830  141.3440 C   0  0  0  0  0  2  0  0  0  0  0  0
  192.5640  176.0040  136.5410 C   0  0  0  0  0  0  0  0  0  0  0  0
  184.3450  179.2260  141.1420 C   0  0  2  0  0  3  0  0  0  0  0  0
  189.2990  178.3670  142.7440 C   0  0  0  0  0  2  0  0  0  0  0  0
  188.0090  178.0730  140.6230 C   0  0  0  0  0  0  0  0  0  0  0  0
  189.2260  177.8600  141.3680 N   0  0  0  0  0  0  0  0  0  0  0  0
  190.3680  177.0600  139.3970 C   0  0  0  0  0  0  0  0  0  0  0  0
  192.0740  175.8690  135.3480 N   0  0  0  0  0  0  0  0  0  0  0  0
  183.6340  179.5750  138.7180 C   0  0  0  0  0  2  0  0  0  0  0  0
  185.6650  179.0030  140.3880 C   0  0  2  0  0  3  0  0  0  0  0  0
  190.6580  176.1240  135.4230 C   0  0  0  0  0  3  0  0  0  0  0  0
  184.3730  178.2650  138.4250 C   0  0  0  0  0  2  0  0  0  0  0  0
  191.6800  177.1280  141.4790 C   0  0  0  0  0  2  0  0  0  0  0  0
  190.4160  177.3800  140.6980 C   0  0  0  0  0  0  0  0  0  0  0  0
  191.5670  176.6400  138.7180 N   0  0  0  0  0  0  0  0  0  0  0  0
  186.7160  178.0470  138.5050 C   0  0  0  0  0  2  0  0  0  0  0  0
  188.1950  175.3760  137.2840 C   0  0  0  0  0  1  0  0  0  0  0  0
  194.0030  175.8280  136.8690 C   0  0  0  0  0  1  0  0  0  0  0  0
  189.1170  177.1890  138.6610 N   0  0  0  0  0  0  0  0  0  0  0  0
  191.5120  176.3650  137.4590 C   0  0  0  0  0  0  0  0  0  0  0  0
  183.9720  178.0690  141.8330 O   0  0  0  0  0  0  0  0  0  0  0  0
  183.1660  178.5180  142.8810 C   0  0  0  0  0  2  0  0  0  0  0  0
  183.9750  178.6280  144.1240 C   0  0  0  0  0  0  0  0  0  0  0  0
  185.2650  178.0310  144.1810 N   0  0  0  0  0  2  0  0  0  0  0  0
  183.4300  179.0790  145.2050 N   0  0  0  0  0  1  0  0  0  0  0  0
  1 10  1  0  0  0  0
  2 12  2  0  0  0  0
  4  3  1  0  0  0  0
  5 24  1  1  0  0  0
  5 26  1  0  0  0  0
  6  5  1  0  0  0  0
  6 27  1  0  0  0  0
  7 19  1  6  0  0  0
  7 17  1  0  0  0  0
  9 25  1  0  0  0  0
  9 27  1  0  0  0  0
 10 28  1  6  0  0  0
 11  3  1  0  0  0  0
 12  8  1  0  0  0  0
 12 13  1  0  0  0  0
 13 11  1  0  0  0  0
 14 21  2  0  0  0  0
 15 18  1  0  0  0  0
 15  9  2  0  0  0  0
 16  1  1  0  0  0  0
 17 10  1  0  0  0  0
 17  8  1  1  0  0  0
 18  6  2  0  0  0  0
 19 16  1  0  0  0  0
 20  4  1  0  0  0  0
 21 13  1  0  0  0  0
 21 20  1  0  0  0  0
 22 14  1  0  0  0  0
 23  2  1  0  0  0  0
 23  7  1  0  0  0  0
 26  2  1  0  0  0  0
 26 14  1  0  0  0  0
 27 22  2  0  0  0  0
 28 29  1  0  0  0  0
 29 30  1  0  0  0  0
 30 31  2  0  0  0  0
 30 32  1  0  0  0  0
M  END
>  <MODEL>
6

>  <REMARK>
 VINA RESULT:      -7.0      2.523      6.733
  Name = 
  3 active torsions:
  status: ('A' for Active; 'I' for Inactive)
    1  A    between atoms: C_10  and  O_20
    2  A    between atoms: O_20  and  C_29
    3  A    between atoms: C_29  and  C_30
                            x       y       z     vdW  Elec       q    Type
                         _______ _______ _______ _____ _____    ______ ____

>  <TORSDO>
F 3

$$$$
=
 OpenBabel11122410433D

 32 37  0  0  1  0  0  0  0  0999 V2000
  190.8790  176.0670  147.5890 C   0  0  0  0  0  2  0  0  0  0  0  0
  189.6440  177.0290  142.6560 C   0  0  0  0  0  0  0  0  0  0  0  0
  185.3110  179.2950  142.5420 C   0  0  0  0  0  2  0  0  0  0  0  0
  185.0230  178.6710  141.1900 C   0  0  0  0  0  2  0  0  0  0  0  0
  190.9550  176.7660  140.5210 C   0  0  1  0  0  3  0  0  0  0  0  0
  190.7280  176.6000  139.0560 C   0  0  0  0  0  0  0  0  0  0  0  0
  190.9030  176.8910  144.7620 N   0  0  1  0  0  0  0  0  0  0  0  0
  188.5210  177.4760  144.8330 C   0  0  0  0  0  2  0  0  0  0  0  0
  189.7460  176.8220  137.0080 C   0  0  0  0  0  0  0  0  0  0  0  0
  189.7510  176.8960  146.9620 C   0  0  2  0  0  3  0  0  0  0  0  0
  186.2170  178.3570  143.3260 C   0  0  0  0  0  2  0  0  0  0  0  0
  188.5550  177.4710  143.3200 C   0  0  0  0  0  0  0  0  0  0  0  0
  187.4420  178.0240  142.5880 N   0  0  0  0  0  0  0  0  0  0  0  0
  188.5260  177.5750  140.4780 C   0  0  0  0  0  0  0  0  0  0  0  0
  190.9140  176.2930  136.8200 N   0  0  0  0  0  0  0  0  0  0  0  0
  191.6900  175.2910  146.5530 C   0  0  0  0  0  2  0  0  0  0  0  0
  189.6310  176.6310  145.4540 C   0  0  2  0  0  3  0  0  0  0  0  0
  191.5480  176.1610  138.1070 C   0  0  0  0  0  3  0  0  0  0  0  0
  192.0550  176.2020  145.3760 C   0  0  0  0  0  2  0  0  0  0  0  0
  186.3030  178.6280  140.3720 C   0  0  0  0  0  2  0  0  0  0  0  0
  187.4500  178.0230  141.1400 C   0  0  0  0  0  0  0  0  0  0  0  0
  188.5090  177.5190  139.0390 N   0  0  0  0  0  0  0  0  0  0  0  0
  190.7740  176.3630  143.4080 C   0  0  0  0  0  2  0  0  0  0  0  0
  191.9700  177.8780  140.7450 C   0  0  0  0  0  1  0  0  0  0  0  0
  188.7830  177.1100  135.9120 C   0  0  0  0  0  1  0  0  0  0  0  0
  189.6880  177.0970  141.2140 N   0  0  0  0  0  0  0  0  0  0  0  0
  189.5400  177.0560  138.4160 C   0  0  0  0  0  0  0  0  0  0  0  0
  189.9900  178.2530  147.2050 O   0  0  0  0  0  0  0  0  0  0  0  0
  189.4240  178.5010  148.4570 C   0  0  0  0  0  2  0  0  0  0  0  0
  187.9790  178.1470  148.4330 C   0  0  0  0  0  0  0  0  0  0  0  0
  187.0640  178.9690  147.7190 N   0  0  0  0  0  2  0  0  0  0  0  0
  187.5330  177.2250  149.2190 N   0  0  0  0  0  1  0  0  0  0  0  0
  2 12  2  0  0  0  0
  2 23  1  0  0  0  0
  3 11  1  0  0  0  0
  4  3  1  0  0  0  0
  5 24  1  6  0  0  0
  5 26  1  0  0  0  0
  6  5  1  0  0  0  0
  7 23  1  6  0  0  0
  7 19  1  0  0  0  0
  7 17  1  0  0  0  0
  9 27  1  0  0  0  0
 10 28  1  6  0  0  0
 10  1  1  0  0  0  0
 12  8  1  0  0  0  0
 13 12  1  0  0  0  0
 13 11  1  0  0  0  0
 14 21  2  0  0  0  0
 14 26  1  0  0  0  0
 15  9  2  0  0  0  0
 15 18  1  0  0  0  0
 16  1  1  0  0  0  0
 17  8  1  6  0  0  0
 17 10  1  0  0  0  0
 18  6  2  0  0  0  0
 19 16  1  0  0  0  0
 20 21  1  0  0  0  0
 20  4  1  0  0  0  0
 21 13  1  0  0  0  0
 22 14  1  0  0  0  0
 25  9  1  0  0  0  0
 26  2  1  0  0  0  0
 27 22  2  0  0  0  0
 27  6  1  0  0  0  0
 28 29  1  0  0  0  0
 30 29  1  0  0  0  0
 30 32  1  0  0  0  0
 31 30  2  0  0  0  0
M  END
>  <MODEL>
7

>  <REMARK>
 VINA RESULT:      -7.0      2.822      7.552
  Name = 
  3 active torsions:
  status: ('A' for Active; 'I' for Inactive)
    1  A    between atoms: C_10  and  O_20
    2  A    between atoms: O_20  and  C_29
    3  A    between atoms: C_29  and  C_30
                            x       y       z     vdW  Elec       q    Type
                         _______ _______ _______ _____ _____    ______ ____

>  <TORSDO>
F 3

$$$$
=
 OpenBabel11122410433D

 32 37  0  0  1  0  0  0  0  0999 V2000
  192.8970  177.2840  139.7520 C   0  0  0  0  0  2  0  0  0  0  0  0
  188.0400  177.8780  141.4380 C   0  0  0  0  0  0  0  0  0  0  0  0
  185.0390  177.9220  137.5760 C   0  0  0  0  0  2  0  0  0  0  0  0
  184.0890  178.8340  138.3280 C   0  0  0  0  0  2  0  0  0  0  0  0
  187.0630  177.8770  143.7600 C   0  0  1  0  0  3  0  0  0  0  0  0
  185.8680  178.3820  144.4940 C   0  0  0  0  0  0  0  0  0  0  0  0
  190.3420  177.0500  141.1960 N   0  0  1  0  0  0  0  0  0  0  0  0
  189.0630  177.6260  139.1810 C   0  0  0  0  0  2  0  0  0  0  0  0
  183.7050  178.9990  144.8890 C   0  0  0  0  0  0  0  0  0  0  0  0
  191.5470  177.1920  139.0290 C   0  0  2  0  0  3  0  0  0  0  0  0
  186.4550  178.1840  138.0690 C   0  0  0  0  0  2  0  0  0  0  0  0
  187.8850  177.8800  140.0970 C   0  0  0  0  0  0  0  0  0  0  0  0
  186.5700  178.0390  139.5260 N   0  0  0  0  0  0  0  0  0  0  0  0
  185.5830  178.2990  141.7140 C   0  0  0  0  0  0  0  0  0  0  0  0
  184.3090  178.9550  146.0350 N   0  0  0  0  0  0  0  0  0  0  0  0
  192.7650  177.7670  141.1950 C   0  0  0  0  0  2  0  0  0  0  0  0
  190.4060  177.7420  139.8980 C   0  0  2  0  0  3  0  0  0  0  0  0
  185.6720  178.5530  145.7970 C   0  0  0  0  0  3  0  0  0  0  0  0
  191.6360  177.0120  141.9040 C   0  0  0  0  0  2  0  0  0  0  0  0
  184.0490  178.4250  139.7910 C   0  0  0  0  0  2  0  0  0  0  0  0
  185.4300  178.2890  140.3810 C   0  0  0  0  0  0  0  0  0  0  0  0
  184.4590  178.6070  142.5610 N   0  0  0  0  0  0  0  0  0  0  0  0
  189.4240  177.8070  142.0420 C   0  0  0  0  0  2  0  0  0  0  0  0
  187.2610  176.4030  144.0820 C   0  0  0  0  0  1  0  0  0  0  0  0
  182.2790  179.3840  144.7200 C   0  0  0  0  0  1  0  0  0  0  0  0
  186.8940  178.0510  142.2980 N   0  0  0  0  0  0  0  0  0  0  0  0
  184.6290  178.6440  143.8400 C   0  0  0  0  0  0  0  0  0  0  0  0
  191.3030  175.8580  138.6830 O   0  0  0  0  0  0  0  0  0  0  0  0
  191.7690  175.7330  137.3730 C   0  0  0  0  0  2  0  0  0  0  0  0
  191.4250  174.3860  136.8450 C   0  0  0  0  0  0  0  0  0  0  0  0
  190.2210  173.7520  137.2620 N   0  0  0  0  0  1  0  0  0  0  0  0
  192.3050  173.7140  136.1820 N   0  0  0  0  0  2  0  0  0  0  0  0
  1 16  1  0  0  0  0
  2 23  1  0  0  0  0
  2 26  1  0  0  0  0
  3 11  1  0  0  0  0
  3  4  1  0  0  0  0
  4 20  1  0  0  0  0
  5 24  1  6  0  0  0
  5  6  1  0  0  0  0
  6 18  2  0  0  0  0
  7 19  1  1  0  0  0
  7 23  1  0  0  0  0
  8 12  1  0  0  0  0
  9 15  2  0  0  0  0
 10 28  1  1  0  0  0
 10  1  1  0  0  0  0
 10 17  1  0  0  0  0
 11 13  1  0  0  0  0
 12  2  2  0  0  0  0
 13 12  1  0  0  0  0
 13 21  1  0  0  0  0
 14 26  1  0  0  0  0
 14 22  1  0  0  0  0
 16 19  1  0  0  0  0
 17  8  1  6  0  0  0
 17  7  1  0  0  0  0
 18 15  1  0  0  0  0
 20 21  1  0  0  0  0
 21 14  2  0  0  0  0
 22 27  2  0  0  0  0
 25  9  1  0  0  0  0
 26  5  1  0  0  0  0
 27  6  1  0  0  0  0
 27  9  1  0  0  0  0
 29 28  1  0  0  0  0
 30 31  1  0  0  0  0
 30 29  1  0  0  0  0
 32 30  2  0  0  0  0
M  END
>  <MODEL>
8

>  <REMARK>
 VINA RESULT:      -6.9      2.592      5.277
  Name = 
  3 active torsions:
  status: ('A' for Active; 'I' for Inactive)
    1  A    between atoms: C_10  and  O_20
    2  A    between atoms: O_20  and  C_29
    3  A    between atoms: C_29  and  C_30
                            x       y       z     vdW  Elec       q    Type
                         _______ _______ _______ _____ _____    ______ ____

>  <TORSDO>
F 3

$$$$
=
 OpenBabel11122410433D

 32 37  0  0  1  0  0  0  0  0999 V2000
  190.2560  175.8370  136.9620 C   0  0  0  0  0  2  0  0  0  0  0  0
  188.4690  177.2320  141.6140 C   0  0  0  0  0  0  0  0  0  0  0  0
  192.0500  176.6730  144.8970 C   0  0  0  0  0  2  0  0  0  0  0  0
  191.0190  176.3810  145.9690 C   0  0  0  0  0  2  0  0  0  0  0  0
  186.3050  178.3120  142.3190 C   0  0  1  0  0  3  0  0  0  0  0  0
  185.4370  178.4460  143.5250 C   0  0  0  0  0  0  0  0  0  0  0  0
  188.9950  177.2540  139.2130 N   0  0  1  0  0  0  0  0  0  0  0  0
  190.6630  176.3890  140.7920 C   0  0  0  0  0  2  0  0  0  0  0  0
  184.8450  178.6270  145.7220 C   0  0  0  0  0  0  0  0  0  0  0  0
  190.9630  176.0400  138.3080 C   0  0  2  0  0  3  0  0  0  0  0  0
  191.4960  176.2200  143.5540 C   0  0  0  0  0  2  0  0  0  0  0  0
  189.7180  176.8060  141.8980 C   0  0  0  0  0  0  0  0  0  0  0  0
  190.1910  176.8270  143.2600 N   0  0  0  0  0  0  0  0  0  0  0  0
  188.0580  177.6290  144.0570 C   0  0  0  0  0  0  0  0  0  0  0  0
  183.7930  178.9000  145.0160 N   0  0  0  0  0  0  0  0  0  0  0  0
  188.7360  175.9440  137.0680 C   0  0  0  0  0  2  0  0  0  0  0  0
  189.9530  176.1650  139.4590 C   0  0  2  0  0  3  0  0  0  0  0  0
  184.1610  178.8010  143.6260 C   0  0  0  0  0  3  0  0  0  0  0  0
  188.3490  177.1790  137.8880 C   0  0  0  0  0  2  0  0  0  0  0  0
  189.8030  177.2680  145.7560 C   0  0  0  0  0  2  0  0  0  0  0  0
  189.3030  177.2150  144.3340 C   0  0  0  0  0  0  0  0  0  0  0  0
  187.1570  177.9580  145.1300 N   0  0  0  0  0  0  0  0  0  0  0  0
  187.9320  177.1250  140.2040 C   0  0  0  0  0  2  0  0  0  0  0  0
  186.5400  179.6910  141.7190 C   0  0  0  0  0  1  0  0  0  0  0  0
  184.8630  178.6170  147.2090 C   0  0  0  0  0  1  0  0  0  0  0  0
  187.6040  177.6930  142.6740 N   0  0  0  0  0  0  0  0  0  0  0  0
  185.9520  178.3240  144.8480 C   0  0  0  0  0  0  0  0  0  0  0  0
  191.7690  177.1810  138.2350 O   0  0  0  0  0  0  0  0  0  0  0  0
  192.9460  176.7530  137.6180 C   0  0  0  0  0  2  0  0  0  0  0  0
  193.8860  176.2260  138.6430 C   0  0  0  0  0  0  0  0  0  0  0  0
  194.0680  176.9340  139.8640 N   0  0  0  0  0  1  0  0  0  0  0  0
  194.6810  175.2530  138.3440 N   0  0  0  0  0  2  0  0  0  0  0  0
  1 16  1  0  0  0  0
  1 10  1  0  0  0  0
  2 12  2  0  0  0  0
  2 26  1  0  0  0  0
  3  4  1  0  0  0  0
  5 24  1  1  0  0  0
  5 26  1  0  0  0  0
  5  6  1  0  0  0  0
  6 18  2  0  0  0  0
  6 27  1  0  0  0  0
  7 19  1  6  0  0  0
  7 17  1  0  0  0  0
  7 23  1  0  0  0  0
  8 12  1  0  0  0  0
  9 25  1  0  0  0  0
 10 28  1  6  0  0  0
 10 17  1  0  0  0  0
 11  3  1  0  0  0  0
 12 13  1  0  0  0  0
 13 11  1  0  0  0  0
 13 21  1  0  0  0  0
 14 21  2  0  0  0  0
 14 22  1  0  0  0  0
 15  9  2  0  0  0  0
 16 19  1  0  0  0  0
 17  8  1  1  0  0  0
 18 15  1  0  0  0  0
 20  4  1  0  0  0  0
 21 20  1  0  0  0  0
 23  2  1  0  0  0  0
 26 14  1  0  0  0  0
 27 22  2  0  0  0  0
 27  9  1  0  0  0  0
 29 28  1  0  0  0  0
 29 30  1  0  0  0  0
 30 31  1  0  0  0  0
 32 30  2  0  0  0  0
M  END
>  <MODEL>
9

>  <REMARK>
 VINA RESULT:      -6.6      2.495      5.699
  Name = 
  3 active torsions:
  status: ('A' for Active; 'I' for Inactive)
    1  A    between atoms: C_10  and  O_20
    2  A    between atoms: O_20  and  C_29
    3  A    between atoms: C_29  and  C_30
                            x       y       z     vdW  Elec       q    Type
                         _______ _______ _______ _____ _____    ______ ____

>  <TORSDO>
F 3

$$$$
