=
 OpenBabel11122410473D

 32 38  0  0  1  0  0  0  0  0999 V2000
  189.0220  178.1570  137.0590 C   0  0  1  0  0  3  0  0  0  0  0  0
  188.1390  177.7440  142.1530 C   0  0  0  0  0  0  0  0  0  0  0  0
  183.4740  178.9730  142.6330 C   0  0  0  0  0  3  0  0  0  0  0  0
  183.5960  178.9470  144.0190 C   0  0  0  0  0  3  0  0  0  0  0  0
  189.5370  177.2940  144.2140 C   0  0  0  0  0  0  0  0  0  0  0  0
  189.5740  177.2840  145.6090 C   0  0  0  0  0  0  0  0  0  0  0  0
  188.9710  177.2430  139.8320 C   0  0  1  0  0  3  0  0  0  0  0  0
  186.6790  178.0180  140.1420 C   0  0  0  0  0  2  0  0  0  0  0  0
  188.9060  177.4710  147.6640 C   0  0  0  0  0  0  0  0  0  0  0  0
  187.7010  178.2410  137.8330 C   0  0  2  0  0  3  0  0  0  0  0  0
  184.5770  178.6750  141.8330 C   0  0  0  0  0  3  0  0  0  0  0  0
  186.9080  178.0650  141.6050 N   0  0  0  0  0  0  0  0  0  0  0  0
  185.8260  178.3450  142.4020 C   0  0  0  0  0  0  0  0  0  0  0  0
  187.1700  177.9780  144.3940 C   0  0  0  0  0  0  0  0  0  0  0  0
  190.2010  177.0870  147.6680 N   0  0  0  0  0  0  0  0  0  0  0  0
  190.1600  178.2130  137.9280 O   0  0  0  0  0  0  0  0  0  0  0  0
  187.9480  178.2540  139.3530 C   0  0  2  0  0  3  0  0  0  0  0  0
  190.6140  176.9710  146.4080 N   0  0  0  0  0  0  0  0  0  0  0  0
  190.1890  177.1870  138.9060 C   0  0  0  0  0  2  0  0  0  0  0  0
  188.1030  176.9340  137.1570 C   0  0  1  0  0  3  0  0  0  0  0  0
  184.8200  178.6210  144.6010 C   0  0  0  0  0  3  0  0  0  0  0  0
  185.9430  178.3180  143.8080 C   0  0  0  0  0  0  0  0  0  0  0  0
  187.2760  177.9450  145.8040 C   0  0  0  0  0  3  0  0  0  0  0  0
  189.3490  177.6190  141.2450 C   0  0  0  0  0  2  0  0  0  0  0  0
  190.7810  176.8680  143.4990 C   0  0  0  0  0  1  0  0  0  0  0  0
  188.0920  177.6990  148.8890 C   0  0  0  0  0  1  0  0  0  0  0  0
  188.3030  177.6670  143.5690 C   0  0  0  0  0  0  0  0  0  0  0  0
  188.4910  177.6010  146.3620 C   0  0  0  0  0  0  0  0  0  0  0  0
  187.3280  176.7850  135.8610 C   0  0  0  0  0  2  0  0  0  0  0  0
  186.6130  175.5200  135.8560 N   0  0  0  0  0  0  0  0  0  0  0  0
  187.2420  174.6710  136.8520 C   0  0  0  0  0  1  0  0  0  0  0  0
  185.2730  175.7990  136.3390 C   0  0  0  0  0  1  0  0  0  0  0  0
  1 20  1  0  0  0  0
  1 10  1  0  0  0  0
  1 16  1  1  0  0  0
  2 27  2  0  0  0  0
  3  4  1  0  0  0  0
  4 21  2  0  0  0  0
  5  6  2  0  0  0  0
  6 28  1  0  0  0  0
  6 18  1  0  0  0  0
  7 19  1  6  0  0  0
  7 24  1  0  0  0  0
  8 12  1  0  0  0  0
  9 15  1  0  0  0  0
  9 26  1  0  0  0  0
 10 17  1  0  0  0  0
 11 13  1  0  0  0  0
 11  3  2  0  0  0  0
 12  2  1  0  0  0  0
 12 13  1  0  0  0  0
 13 22  2  0  0  0  0
 14 23  2  0  0  0  0
 16 19  1  0  0  0  0
 17  7  1  0  0  0  0
 17  8  1  0  0  0  0
 18 15  2  0  0  0  0
 20 10  1  0  0  0  0
 22 14  1  0  0  0  0
 22 21  1  0  0  0  0
 23 28  1  0  0  0  0
 24  2  1  0  0  0  0
 25  5  1  0  0  0  0
 27  5  1  0  0  0  0
 27 14  1  0  0  0  0
 28  9  2  0  0  0  0
 29 20  1  0  0  0  0
 30 29  1  0  0  0  0
 30 32  1  0  0  0  0
 30 31  1  0  0  0  0
M  END
>  <MODEL>
1

>  <REMARK>
 VINA RESULT:     -10.7      0.000      0.000
  Name = 
  2 active torsions:
  status: ('A' for Active; 'I' for Inactive)
    1  A    between atoms: C_20  and  C_29
    2  A    between atoms: C_29  and  N_30
                            x       y       z     vdW  Elec       q    Type
                         _______ _______ _______ _____ _____    ______ ____

>  <TORSDO>
F 2

$$$$
=
 OpenBabel11122410473D

 32 38  0  0  1  0  0  0  0  0999 V2000
  181.7700  178.6560  140.0650 C   0  0  1  0  0  3  0  0  0  0  0  0
  186.0480  178.2030  142.9620 C   0  0  0  0  0  0  0  0  0  0  0  0
  189.6210  177.7920  139.7120 C   0  0  0  0  0  3  0  0  0  0  0  0
  190.5320  177.5180  140.7280 C   0  0  0  0  0  3  0  0  0  0  0  0
  186.5610  177.9650  145.4290 C   0  0  0  0  0  0  0  0  0  0  0  0
  187.5380  177.6900  146.3880 C   0  0  0  0  0  0  0  0  0  0  0  0
  183.8100  178.9920  142.1280 C   0  0  1  0  0  3  0  0  0  0  0  0
  185.6160  178.6110  140.5340 C   0  0  0  0  0  2  0  0  0  0  0  0
  189.4750  177.2250  147.2440 C   0  0  0  0  0  0  0  0  0  0  0  0
  183.2440  178.6660  139.6430 C   0  0  2  0  0  3  0  0  0  0  0  0
  188.2830  178.0320  140.0250 C   0  0  0  0  0  3  0  0  0  0  0  0
  186.5060  178.2320  141.6550 N   0  0  0  0  0  0  0  0  0  0  0  0
  187.8270  178.0050  141.3600 C   0  0  0  0  0  0  0  0  0  0  0  0
  188.3280  177.7110  143.7210 C   0  0  0  0  0  0  0  0  0  0  0  0
  188.5820  177.3530  148.2490 N   0  0  0  0  0  0  0  0  0  0  0  0
  181.6010  178.2170  141.4190 O   0  0  0  0  0  0  0  0  0  0  0  0
  184.1630  178.3050  140.8240 C   0  0  2  0  0  3  0  0  0  0  0  0
  187.3920  177.6390  147.7270 N   0  0  0  0  0  0  0  0  0  0  0  0
  182.2980  179.0040  142.3710 C   0  0  0  0  0  2  0  0  0  0  0  0
  182.4970  179.9840  139.8260 C   0  0  1  0  0  3  0  0  0  0  0  0
  190.1030  177.4880  142.0540 C   0  0  0  0  0  3  0  0  0  0  0  0
  188.7560  177.7290  142.3860 C   0  0  0  0  0  0  0  0  0  0  0  0
  189.2670  177.4420  144.7440 C   0  0  0  0  0  3  0  0  0  0  0  0
  184.5560  178.2790  143.2300 C   0  0  0  0  0  2  0  0  0  0  0  0
  185.1880  178.2860  145.9310 C   0  0  0  0  0  1  0  0  0  0  0  0
  190.9180  176.9130  147.4350 C   0  0  0  0  0  1  0  0  0  0  0  0
  186.9520  177.9640  144.0410 C   0  0  0  0  0  0  0  0  0  0  0  0
  188.8270  177.4360  146.0520 C   0  0  0  0  0  0  0  0  0  0  0  0
  182.1080  180.5300  138.4650 C   0  0  0  0  0  2  0  0  0  0  0  0
  180.9600  181.4100  138.5960 N   0  0  0  0  0  0  0  0  0  0  0  0
  181.2840  182.6400  137.8960 C   0  0  0  0  0  1  0  0  0  0  0  0
  179.8750  180.7890  137.8580 C   0  0  0  0  0  1  0  0  0  0  0  0
  1 16  1  1  0  0  0
  2 24  1  0  0  0  0
  2 27  2  0  0  0  0
  3 11  2  0  0  0  0
  3  4  1  0  0  0  0
  4 21  2  0  0  0  0
  5 25  1  0  0  0  0
  5  6  2  0  0  0  0
  6 18  1  0  0  0  0
  7 19  1  1  0  0  0
  7 24  1  0  0  0  0
  8 17  1  0  0  0  0
  8 12  1  0  0  0  0
  9 26  1  0  0  0  0
  9 15  1  0  0  0  0
 10 20  1  0  0  0  0
 10  1  1  0  0  0  0
 10 17  1  0  0  0  0
 11 13  1  0  0  0  0
 12  2  1  0  0  0  0
 13 12  1  0  0  0  0
 13 22  2  0  0  0  0
 14 27  1  0  0  0  0
 14 23  2  0  0  0  0
 16 19  1  0  0  0  0
 17  7  1  0  0  0  0
 18 15  2  0  0  0  0
 20  1  1  0  0  0  0
 21 22  1  0  0  0  0
 22 14  1  0  0  0  0
 23 28  1  0  0  0  0
 27  5  1  0  0  0  0
 28  6  1  0  0  0  0
 28  9  2  0  0  0  0
 29 30  1  0  0  0  0
 29 20  1  0  0  0  0
 31 30  1  0  0  0  0
 32 30  1  0  0  0  0
M  END
>  <MODEL>
2

>  <REMARK>
 VINA RESULT:     -10.4      3.065      5.389
  Name = 
  2 active torsions:
  status: ('A' for Active; 'I' for Inactive)
    1  A    between atoms: C_20  and  C_29
    2  A    between atoms: C_29  and  N_30
                            x       y       z     vdW  Elec       q    Type
                         _______ _______ _______ _____ _____    ______ ____

>  <TORSDO>
F 2

$$$$
=
 OpenBabel11122410473D

 32 38  0  0  1  0  0  0  0  0999 V2000
  180.5170  178.6480  141.3010 C   0  0  1  0  0  3  0  0  0  0  0  0
  185.2070  178.3140  143.4900 C   0  0  0  0  0  0  0  0  0  0  0  0
  188.2420  178.0680  139.7170 C   0  0  0  0  0  3  0  0  0  0  0  0
  189.3080  177.8160  140.5740 C   0  0  0  0  0  3  0  0  0  0  0  0
  186.1070  178.0660  145.8430 C   0  0  0  0  0  0  0  0  0  0  0  0
  187.2300  177.8150  146.6330 C   0  0  0  0  0  0  0  0  0  0  0  0
  182.8420  179.0320  143.0270 C   0  0  1  0  0  3  0  0  0  0  0  0
  184.3890  178.7340  141.1660 C   0  0  0  0  0  2  0  0  0  0  0  0
  189.2910  177.4090  147.1690 C   0  0  0  0  0  0  0  0  0  0  0  0
  181.9060  178.7160  140.6550 C   0  0  2  0  0  3  0  0  0  0  0  0
  186.9620  178.2570  140.2380 C   0  0  0  0  0  3  0  0  0  0  0  0
  185.4550  178.3750  142.1280 N   0  0  0  0  0  0  0  0  0  0  0  0
  186.7210  178.1980  141.6280 C   0  0  0  0  0  0  0  0  0  0  0  0
  187.5940  177.8950  143.8760 C   0  0  0  0  0  0  0  0  0  0  0  0
  188.5630  177.4940  148.3030 N   0  0  0  0  0  0  0  0  0  0  0  0
  180.5770  178.1880  142.6580 O   0  0  0  0  0  0  0  0  0  0  0  0
  183.0100  178.3740  141.6720 C   0  0  2  0  0  3  0  0  0  0  0  0
  187.2970  177.7430  147.9780 N   0  0  0  0  0  0  0  0  0  0  0  0
  181.3860  178.9880  143.5020 C   0  0  0  0  0  2  0  0  0  0  0  0
  181.1540  180.0030  140.9750 C   0  0  1  0  0  3  0  0  0  0  0  0
  189.0930  177.7550  141.9500 C   0  0  0  0  0  3  0  0  0  0  0  0
  187.8070  177.9430  142.4920 C   0  0  0  0  0  0  0  0  0  0  0  0
  188.6890  177.6480  144.7360 C   0  0  0  0  0  3  0  0  0  0  0  0
  183.7740  178.3330  143.9880 C   0  0  0  0  0  2  0  0  0  0  0  0
  184.8200  178.3320  146.5570 C   0  0  0  0  0  1  0  0  0  0  0  0
  190.7560  177.1470  147.1280 C   0  0  0  0  0  1  0  0  0  0  0  0
  186.2760  178.0950  144.4110 C   0  0  0  0  0  0  0  0  0  0  0  0
  188.4590  177.6110  146.0970 C   0  0  0  0  0  0  0  0  0  0  0  0
  180.5390  180.5510  139.7000 C   0  0  0  0  0  2  0  0  0  0  0  0
  181.5530  180.6470  138.6650 N   0  0  0  0  0  0  0  0  0  0  0  0
  181.0070  180.0220  137.4730 C   0  0  0  0  0  1  0  0  0  0  0  0
  181.7030  182.0580  138.3590 C   0  0  0  0  0  1  0  0  0  0  0  0
  1 16  1  1  0  0  0
  2 24  1  0  0  0  0
  2 27  2  0  0  0  0
  3 11  2  0  0  0  0
  3  4  1  0  0  0  0
  4 21  2  0  0  0  0
  5 25  1  0  0  0  0
  5  6  2  0  0  0  0
  6 18  1  0  0  0  0
  7 19  1  1  0  0  0
  7 24  1  0  0  0  0
  8 17  1  0  0  0  0
  8 12  1  0  0  0  0
  9 15  1  0  0  0  0
 10 20  1  0  0  0  0
 10  1  1  0  0  0  0
 10 17  1  0  0  0  0
 11 13  1  0  0  0  0
 12  2  1  0  0  0  0
 13 12  1  0  0  0  0
 13 22  2  0  0  0  0
 14 27  1  0  0  0  0
 14 23  2  0  0  0  0
 16 19  1  0  0  0  0
 17  7  1  0  0  0  0
 18 15  2  0  0  0  0
 20  1  1  0  0  0  0
 21 22  1  0  0  0  0
 22 14  1  0  0  0  0
 23 28  1  0  0  0  0
 26  9  1  0  0  0  0
 27  5  1  0  0  0  0
 28  6  1  0  0  0  0
 28  9  2  0  0  0  0
 29 20  1  0  0  0  0
 30 29  1  0  0  0  0
 31 30  1  0  0  0  0
 32 30  1  0  0  0  0
M  END
>  <MODEL>
3

>  <REMARK>
 VINA RESULT:     -10.4      3.100      5.712
  Name = 
  2 active torsions:
  status: ('A' for Active; 'I' for Inactive)
    1  A    between atoms: C_20  and  C_29
    2  A    between atoms: C_29  and  N_30
                            x       y       z     vdW  Elec       q    Type
                         _______ _______ _______ _____ _____    ______ ____

>  <TORSDO>
F 2

$$$$
=
 OpenBabel11122410473D

 32 38  0  0  1  0  0  0  0  0999 V2000
  191.0830  177.0870  137.0350 C   0  0  1  0  0  3  0  0  0  0  0  0
  189.3760  177.2410  141.9300 C   0  0  0  0  0  0  0  0  0  0  0  0
  184.8770  179.0050  141.5420 C   0  0  0  0  0  3  0  0  0  0  0  0
  184.7780  179.0930  142.9270 C   0  0  0  0  0  3  0  0  0  0  0  0
  190.3720  176.8350  144.2210 C   0  0  0  0  0  0  0  0  0  0  0  0
  190.1900  176.9500  145.6000 C   0  0  0  0  0  0  0  0  0  0  0  0
  190.4920  176.4430  139.8210 C   0  0  1  0  0  3  0  0  0  0  0  0
  188.2910  177.4860  139.6910 C   0  0  0  0  0  2  0  0  0  0  0  0
  189.2390  177.3960  147.4960 C   0  0  0  0  0  0  0  0  0  0  0  0
  189.6780  177.3830  137.5720 C   0  0  2  0  0  3  0  0  0  0  0  0
  186.0470  178.5180  140.9590 C   0  0  0  0  0  3  0  0  0  0  0  0
  188.2930  177.6420  141.1640 N   0  0  0  0  0  0  0  0  0  0  0  0
  187.1430  178.1090  141.7490 C   0  0  0  0  0  0  0  0  0  0  0  0
  188.1060  177.7840  143.9570 C   0  0  0  0  0  0  0  0  0  0  0  0
  190.4620  176.8770  147.7420 N   0  0  0  0  0  0  0  0  0  0  0  0
  192.0710  177.1000  138.0730 O   0  0  0  0  0  0  0  0  0  0  0  0
  189.6860  177.5100  139.1060 C   0  0  2  0  0  3  0  0  0  0  0  0
  191.0480  176.6010  146.5800 N   0  0  0  0  0  0  0  0  0  0  0  0
  191.8230  176.1710  139.1150 C   0  0  0  0  0  2  0  0  0  0  0  0
  190.0190  175.9840  137.0690 C   0  0  1  0  0  3  0  0  0  0  0  0
  185.8480  178.6930  143.7260 C   0  0  0  0  0  3  0  0  0  0  0  0
  187.0350  178.1990  143.1530 C   0  0  0  0  0  0  0  0  0  0  0  0
  187.9870  177.8690  145.3640 C   0  0  0  0  0  3  0  0  0  0  0  0
  190.6890  176.9050  141.2450 C   0  0  0  0  0  2  0  0  0  0  0  0
  191.6510  176.2140  143.7540 C   0  0  0  0  0  1  0  0  0  0  0  0
  188.2780  177.8210  148.5510 C   0  0  0  0  0  1  0  0  0  0  0  0
  189.3070  177.2780  143.3550 C   0  0  0  0  0  0  0  0  0  0  0  0
  189.0500  177.4490  146.1380 C   0  0  0  0  0  0  0  0  0  0  0  0
  189.4420  175.8010  135.6780 C   0  0  0  0  0  2  0  0  0  0  0  0
  189.1350  174.3990  135.4520 N   0  0  0  0  0  0  0  0  0  0  0  0
  190.2270  173.8440  134.6730 C   0  0  0  0  0  1  0  0  0  0  0  0
  189.1820  173.7500  136.7490 C   0  0  0  0  0  1  0  0  0  0  0  0
  1 20  1  0  0  0  0
  1 10  1  0  0  0  0
  1 16  1  1  0  0  0
  2 27  2  0  0  0  0
  3  4  1  0  0  0  0
  4 21  2  0  0  0  0
  5  6  2  0  0  0  0
  6 28  1  0  0  0  0
  6 18  1  0  0  0  0
  7 19  1  6  0  0  0
  7 24  1  0  0  0  0
  8 12  1  0  0  0  0
  9 15  1  0  0  0  0
  9 26  1  0  0  0  0
 10 17  1  0  0  0  0
 11  3  2  0  0  0  0
 11 13  1  0  0  0  0
 12 13  1  0  0  0  0
 12  2  1  0  0  0  0
 13 22  2  0  0  0  0
 14 23  2  0  0  0  0
 16 19  1  0  0  0  0
 17  8  1  0  0  0  0
 17  7  1  0  0  0  0
 18 15  2  0  0  0  0
 20 10  1  0  0  0  0
 22 21  1  0  0  0  0
 22 14  1  0  0  0  0
 23 28  1  0  0  0  0
 24  2  1  0  0  0  0
 25  5  1  0  0  0  0
 27 14  1  0  0  0  0
 27  5  1  0  0  0  0
 28  9  2  0  0  0  0
 29 20  1  0  0  0  0
 30 29  1  0  0  0  0
 30 32  1  0  0  0  0
 31 30  1  0  0  0  0
M  END
>  <MODEL>
4

>  <REMARK>
 VINA RESULT:      -9.6      1.480      1.836
  Name = 
  2 active torsions:
  status: ('A' for Active; 'I' for Inactive)
    1  A    between atoms: C_20  and  C_29
    2  A    between atoms: C_29  and  N_30
                            x       y       z     vdW  Elec       q    Type
                         _______ _______ _______ _____ _____    ______ ____

>  <TORSDO>
F 2

$$$$
=
 OpenBabel11122410473D

 32 38  0  0  1  0  0  0  0  0999 V2000
  180.8770  178.6870  138.9830 C   0  0  1  0  0  3  0  0  0  0  0  0
  185.0000  178.4570  142.1210 C   0  0  0  0  0  0  0  0  0  0  0  0
  188.7560  178.0350  139.0840 C   0  0  0  0  0  3  0  0  0  0  0  0
  189.6160  177.8230  140.1570 C   0  0  0  0  0  3  0  0  0  0  0  0
  185.3830  178.3200  144.6190 C   0  0  0  0  0  0  0  0  0  0  0  0
  186.3130  178.1060  145.6380 C   0  0  0  0  0  0  0  0  0  0  0  0
  182.7910  179.1530  141.1390 C   0  0  1  0  0  3  0  0  0  0  0  0
  184.6910  178.7680  139.6600 C   0  0  0  0  0  2  0  0  0  0  0  0
  188.2120  177.7270  146.6130 C   0  0  0  0  0  0  0  0  0  0  0  0
  182.3710  178.7250  138.6410 C   0  0  2  0  0  3  0  0  0  0  0  0
  187.3970  178.2480  139.3160 C   0  0  0  0  0  3  0  0  0  0  0  0
  185.5290  178.4540  140.8400 N   0  0  0  0  0  0  0  0  0  0  0  0
  186.8690  178.2540  140.6250 C   0  0  0  0  0  0  0  0  0  0  0  0
  187.2480  178.0570  143.0190 C   0  0  0  0  0  0  0  0  0  0  0  0
  187.2620  177.8640  147.5640 N   0  0  0  0  0  0  0  0  0  0  0  0
  180.6460  178.2910  140.3410 O   0  0  0  0  0  0  0  0  0  0  0  0
  183.2330  178.4310  139.8820 C   0  0  2  0  0  3  0  0  0  0  0  0
  186.0960  178.0980  146.9690 N   0  0  0  0  0  0  0  0  0  0  0  0
  181.2680  179.1300  141.3000 C   0  0  0  0  0  2  0  0  0  0  0  0
  181.5810  180.0260  138.7350 C   0  0  1  0  0  3  0  0  0  0  0  0
  189.1170  177.8270  141.4590 C   0  0  0  0  0  3  0  0  0  0  0  0
  187.7470  178.0400  141.7090 C   0  0  0  0  0  0  0  0  0  0  0  0
  188.1360  177.8510  144.1000 C   0  0  0  0  0  3  0  0  0  0  0  0
  183.4940  178.4990  142.3050 C   0  0  0  0  0  2  0  0  0  0  0  0
  183.9770  178.6190  145.0340 C   0  0  0  0  0  1  0  0  0  0  0  0
  189.6500  177.4630  146.8930 C   0  0  0  0  0  1  0  0  0  0  0  0
  185.8500  178.2820  143.2550 C   0  0  0  0  0  0  0  0  0  0  0  0
  187.6250  177.8780  145.3820 C   0  0  0  0  0  0  0  0  0  0  0  0
  181.2520  180.5130  137.3360 C   0  0  0  0  0  2  0  0  0  0  0  0
  180.3660  181.6610  137.4090 N   0  0  0  0  0  0  0  0  0  0  0  0
  181.1570  182.7810  137.8860 C   0  0  0  0  0  1  0  0  0  0  0  0
  179.9840  181.9770  136.0440 C   0  0  0  0  0  1  0  0  0  0  0  0
  1 16  1  1  0  0  0
  2 24  1  0  0  0  0
  2 27  2  0  0  0  0
  3 11  2  0  0  0  0
  3  4  1  0  0  0  0
  4 21  2  0  0  0  0
  5 25  1  0  0  0  0
  5  6  2  0  0  0  0
  6 18  1  0  0  0  0
  7 19  1  1  0  0  0
  7 24  1  0  0  0  0
  8 17  1  0  0  0  0
  8 12  1  0  0  0  0
  9 26  1  0  0  0  0
  9 15  1  0  0  0  0
 10 20  1  0  0  0  0
 10  1  1  0  0  0  0
 10 17  1  0  0  0  0
 11 13  1  0  0  0  0
 12  2  1  0  0  0  0
 13 12  1  0  0  0  0
 13 22  2  0  0  0  0
 14 27  1  0  0  0  0
 14 23  2  0  0  0  0
 16 19  1  0  0  0  0
 17  7  1  0  0  0  0
 18 15  2  0  0  0  0
 20  1  1  0  0  0  0
 21 22  1  0  0  0  0
 22 14  1  0  0  0  0
 23 28  1  0  0  0  0
 27  5  1  0  0  0  0
 28  6  1  0  0  0  0
 28  9  2  0  0  0  0
 29 30  1  0  0  0  0
 29 20  1  0  0  0  0
 30 31  1  0  0  0  0
 32 30  1  0  0  0  0
M  END
>  <MODEL>
5

>  <REMARK>
 VINA RESULT:      -9.4      3.649      5.717
  Name = 
  2 active torsions:
  status: ('A' for Active; 'I' for Inactive)
    1  A    between atoms: C_20  and  C_29
    2  A    between atoms: C_29  and  N_30
                            x       y       z     vdW  Elec       q    Type
                         _______ _______ _______ _____ _____    ______ ____

>  <TORSDO>
F 2

$$$$
=
 OpenBabel11122410473D

 32 38  0  0  1  0  0  0  0  0999 V2000
  189.1530  177.8770  147.8040 C   0  0  1  0  0  3  0  0  0  0  0  0
  186.3220  178.1690  143.4680 C   0  0  0  0  0  0  0  0  0  0  0  0
  189.5850  177.7100  139.9110 C   0  0  0  0  0  3  0  0  0  0  0  0
  188.6090  177.9980  138.9610 C   0  0  0  0  0  3  0  0  0  0  0  0
  183.9050  178.6600  142.8990 C   0  0  0  0  0  0  0  0  0  0  0  0
  182.9870  178.9350  141.8840 C   0  0  0  0  0  0  0  0  0  0  0  0
  187.0560  177.5620  145.7960 C   0  0  1  0  0  3  0  0  0  0  0  0
  188.6790  177.5070  143.9760 C   0  0  0  0  0  2  0  0  0  0  0  0
  182.1920  179.2630  139.8940 C   0  0  0  0  0  0  0  0  0  0  0  0
  189.5640  177.6300  146.3480 C   0  0  2  0  0  3  0  0  0  0  0  0
  189.2480  177.6800  141.2640 C   0  0  0  0  0  3  0  0  0  0  0  0
  187.6130  177.9150  143.0320 N   0  0  0  0  0  0  0  0  0  0  0  0
  187.9300  177.9360  141.6970 C   0  0  0  0  0  0  0  0  0  0  0  0
  185.6250  178.4690  141.1350 C   0  0  0  0  0  0  0  0  0  0  0  0
  181.1810  179.3780  140.7830 N   0  0  0  0  0  0  0  0  0  0  0  0
  187.8680  178.5050  147.9000 O   0  0  0  0  0  0  0  0  0  0  0  0
  188.4370  178.0240  145.3770 C   0  0  2  0  0  3  0  0  0  0  0  0
  181.6660  179.1760  142.0060 N   0  0  0  0  0  0  0  0  0  0  0  0
  186.8200  177.7690  147.2950 C   0  0  0  0  0  2  0  0  0  0  0  0
  189.2140  176.4500  147.2490 C   0  0  1  0  0  3  0  0  0  0  0  0
  187.3000  178.2530  139.3660 C   0  0  0  0  0  3  0  0  0  0  0  0
  186.9450  178.2260  140.7290 C   0  0  0  0  0  0  0  0  0  0  0  0
  184.6420  178.7500  140.1570 C   0  0  0  0  0  3  0  0  0  0  0  0
  186.0530  178.3140  144.9540 C   0  0  0  0  0  2  0  0  0  0  0  0
  183.3710  178.5790  144.2940 C   0  0  0  0  0  1  0  0  0  0  0  0
  182.0370  179.4160  138.4210 C   0  0  0  0  0  1  0  0  0  0  0  0
  185.2800  178.4320  142.5280 C   0  0  0  0  0  0  0  0  0  0  0  0
  183.3480  178.9800  140.5770 C   0  0  0  0  0  0  0  0  0  0  0  0
  190.4940  175.7840  147.7190 C   0  0  0  0  0  2  0  0  0  0  0  0
  191.6420  176.5580  147.2790 N   0  0  0  0  0  0  0  0  0  0  0  0
  192.7200  176.2910  148.2150 C   0  0  0  0  0  1  0  0  0  0  0  0
  192.0550  176.0000  146.0040 C   0  0  0  0  0  1  0  0  0  0  0  0
  1 16  1  6  0  0  0
  2 24  1  0  0  0  0
  3 11  1  0  0  0  0
  4 21  1  0  0  0  0
  4  3  2  0  0  0  0
  5 25  1  0  0  0  0
  6 18  1  0  0  0  0
  6  5  2  0  0  0  0
  7 24  1  6  0  0  0
  7 19  1  0  0  0  0
  8 17  1  0  0  0  0
  9 28  2  0  0  0  0
  9 15  1  0  0  0  0
 10 20  1  0  0  0  0
 10  1  1  0  0  0  0
 11 13  2  0  0  0  0
 12  2  1  0  0  0  0
 12  8  1  0  0  0  0
 13 12  1  0  0  0  0
 14 27  1  0  0  0  0
 15 18  2  0  0  0  0
 17  7  1  0  0  0  0
 17 10  1  0  0  0  0
 19 16  1  0  0  0  0
 20 29  1  0  0  0  0
 20  1  1  0  0  0  0
 21 22  2  0  0  0  0
 22 14  1  0  0  0  0
 22 13  1  0  0  0  0
 23 28  1  0  0  0  0
 23 14  2  0  0  0  0
 26  9  1  0  0  0  0
 27  5  1  0  0  0  0
 27  2  2  0  0  0  0
 28  6  1  0  0  0  0
 30 29  1  0  0  0  0
 30 31  1  0  0  0  0
 32 30  1  0  0  0  0
M  END
>  <MODEL>
6

>  <REMARK>
 VINA RESULT:      -9.2      2.799      8.226
  Name = 
  2 active torsions:
  status: ('A' for Active; 'I' for Inactive)
    1  A    between atoms: C_20  and  C_29
    2  A    between atoms: C_29  and  N_30
                            x       y       z     vdW  Elec       q    Type
                         _______ _______ _______ _____ _____    ______ ____

>  <TORSDO>
F 2

$$$$
=
 OpenBabel11122410473D

 32 38  0  0  1  0  0  0  0  0999 V2000
  191.2500  175.8500  137.3410 C   0  0  1  0  0  3  0  0  0  0  0  0
  188.7440  177.3600  141.6230 C   0  0  0  0  0  0  0  0  0  0  0  0
  191.7390  176.1160  145.2270 C   0  0  0  0  0  3  0  0  0  0  0  0
  190.7700  176.4540  146.1670 C   0  0  0  0  0  3  0  0  0  0  0  0
  186.4580  178.3030  142.1600 C   0  0  0  0  0  0  0  0  0  0  0  0
  185.5440  178.6240  143.1650 C   0  0  0  0  0  0  0  0  0  0  0  0
  189.6800  177.3570  139.2890 C   0  0  1  0  0  3  0  0  0  0  0  0
  191.0750  176.5960  141.1390 C   0  0  0  0  0  2  0  0  0  0  0  0
  184.7080  178.8780  145.1500 C   0  0  0  0  0  0  0  0  0  0  0  0
  191.7360  175.8980  138.7940 C   0  0  2  0  0  3  0  0  0  0  0  0
  191.4680  176.2640  143.8670 C   0  0  0  0  0  3  0  0  0  0  0  0
  189.9650  176.8840  142.0760 N   0  0  0  0  0  0  0  0  0  0  0  0
  190.2230  176.7530  143.4170 C   0  0  0  0  0  0  0  0  0  0  0  0
  188.0080  177.5990  143.9510 C   0  0  0  0  0  0  0  0  0  0  0  0
  183.7960  179.2960  144.2440 N   0  0  0  0  0  0  0  0  0  0  0  0
  189.8310  176.0270  137.2420 O   0  0  0  0  0  0  0  0  0  0  0  0
  190.5820  176.2320  139.7560 C   0  0  2  0  0  3  0  0  0  0  0  0
  184.3070  179.1420  143.0250 N   0  0  0  0  0  0  0  0  0  0  0  0
  189.3620  177.2450  137.7940 C   0  0  0  0  0  2  0  0  0  0  0  0
  192.0880  177.0330  137.8380 C   0  0  1  0  0  3  0  0  0  0  0  0
  189.5340  176.9410  145.7450 C   0  0  0  0  0  3  0  0  0  0  0  0
  189.2460  177.0960  144.3750 C   0  0  0  0  0  0  0  0  0  0  0  0
  187.0360  177.9490  144.9180 C   0  0  0  0  0  3  0  0  0  0  0  0
  188.4320  177.3180  140.1380 C   0  0  0  0  0  2  0  0  0  0  0  0
  186.0490  178.5990  140.7510 C   0  0  0  0  0  1  0  0  0  0  0  0
  184.5020  178.9030  146.6240 C   0  0  0  0  0  1  0  0  0  0  0  0
  187.7330  177.7550  142.5510 C   0  0  0  0  0  0  0  0  0  0  0  0
  185.8260  178.4480  144.4800 C   0  0  0  0  0  0  0  0  0  0  0  0
  193.5210  176.8650  137.3690 C   0  0  0  0  0  2  0  0  0  0  0  0
  193.6090  175.7480  136.4440 N   0  0  0  0  0  0  0  0  0  0  0  0
  194.0620  176.2820  135.1720 C   0  0  0  0  0  1  0  0  0  0  0  0
  194.6710  174.8870  136.9320 C   0  0  0  0  0  1  0  0  0  0  0  0
  1 16  1  1  0  0  0
  1 20  1  0  0  0  0
  1 10  1  0  0  0  0
  2 12  1  0  0  0  0
  2 27  2  0  0  0  0
  3  4  1  0  0  0  0
  5 27  1  0  0  0  0
  5  6  2  0  0  0  0
  6 28  1  0  0  0  0
  7 19  1  6  0  0  0
  7 17  1  0  0  0  0
  7 24  1  0  0  0  0
  8 12  1  0  0  0  0
  9 26  1  0  0  0  0
 10 17  1  0  0  0  0
 11  3  2  0  0  0  0
 12 13  1  0  0  0  0
 13 11  1  0  0  0  0
 13 22  2  0  0  0  0
 14 22  1  0  0  0  0
 14 23  2  0  0  0  0
 15  9  1  0  0  0  0
 16 19  1  0  0  0  0
 17  8  1  0  0  0  0
 18  6  1  0  0  0  0
 18 15  2  0  0  0  0
 20 10  1  0  0  0  0
 21  4  2  0  0  0  0
 22 21  1  0  0  0  0
 24  2  1  0  0  0  0
 25  5  1  0  0  0  0
 27 14  1  0  0  0  0
 28 23  1  0  0  0  0
 28  9  2  0  0  0  0
 29 20  1  0  0  0  0
 30 32  1  0  0  0  0
 30 29  1  0  0  0  0
 31 30  1  0  0  0  0
M  END
>  <MODEL>
7

>  <REMARK>
 VINA RESULT:      -8.5      2.537      5.143
  Name = 
  2 active torsions:
  status: ('A' for Active; 'I' for Inactive)
    1  A    between atoms: C_20  and  C_29
    2  A    between atoms: C_29  and  N_30
                            x       y       z     vdW  Elec       q    Type
                         _______ _______ _______ _____ _____    ______ ____

>  <TORSDO>
F 2

$$$$
=
 OpenBabel11122410473D

 32 38  0  0  1  0  0  0  0  0999 V2000
  186.8130  178.7280  147.3620 C   0  0  1  0  0  3  0  0  0  0  0  0
  184.6920  178.5110  142.6340 C   0  0  0  0  0  0  0  0  0  0  0  0
  188.5010  178.1070  139.6630 C   0  0  0  0  0  3  0  0  0  0  0  0
  187.6700  178.2530  138.5560 C   0  0  0  0  0  3  0  0  0  0  0  0
  182.3660  178.7620  141.6670 C   0  0  0  0  0  0  0  0  0  0  0  0
  181.6030  178.8950  140.5060 C   0  0  0  0  0  0  0  0  0  0  0  0
  185.0900  178.1140  145.0850 C   0  0  1  0  0  3  0  0  0  0  0  0
  186.9800  178.0810  143.5450 C   0  0  0  0  0  2  0  0  0  0  0  0
  181.1110  179.0320  138.3980 C   0  0  0  0  0  0  0  0  0  0  0  0
  187.4670  178.4250  146.0080 C   0  0  2  0  0  3  0  0  0  0  0  0
  187.9580  178.1320  140.9470 C   0  0  0  0  0  3  0  0  0  0  0  0
  186.0500  178.3390  142.4210 N   0  0  0  0  0  0  0  0  0  0  0  0
  186.5720  178.3040  141.1520 C   0  0  0  0  0  0  0  0  0  0  0  0
  184.3530  178.6070  140.2060 C   0  0  0  0  0  0  0  0  0  0  0  0
  179.9670  179.1170  139.1110 N   0  0  0  0  0  0  0  0  0  0  0  0
  185.4870  179.2510  147.2140 O   0  0  0  0  0  0  0  0  0  0  0  0
  186.4820  178.6630  144.8500 C   0  0  2  0  0  3  0  0  0  0  0  0
  180.2650  179.0320  140.4050 N   0  0  0  0  0  0  0  0  0  0  0  0
  184.6040  178.3920  146.5110 C   0  0  0  0  0  2  0  0  0  0  0  0
  187.0650  177.2780  146.9300 C   0  0  1  0  0  3  0  0  0  0  0  0
  186.2990  178.4220  138.7360 C   0  0  0  0  0  3  0  0  0  0  0  0
  185.7350  178.4500  140.0260 C   0  0  0  0  0  0  0  0  0  0  0  0
  183.5200  178.7430  139.0710 C   0  0  0  0  0  3  0  0  0  0  0  0
  184.1800  178.7260  144.0470 C   0  0  0  0  0  2  0  0  0  0  0  0
  181.6250  178.7240  142.9660 C   0  0  0  0  0  1  0  0  0  0  0  0
  181.1810  179.0790  136.9120 C   0  0  0  0  0  1  0  0  0  0  0  0
  183.7950  178.6280  141.5280 C   0  0  0  0  0  0  0  0  0  0  0  0
  182.1620  178.8900  139.2700 C   0  0  0  0  0  0  0  0  0  0  0  0
  188.3000  176.7530  147.6390 C   0  0  0  0  0  2  0  0  0  0  0  0
  189.4330  177.6190  147.3640 N   0  0  0  0  0  0  0  0  0  0  0  0
  189.8040  178.2480  148.6190 C   0  0  0  0  0  1  0  0  0  0  0  0
  190.5380  176.7530  146.9940 C   0  0  0  0  0  1  0  0  0  0  0  0
  1 16  1  6  0  0  0
  2 24  1  0  0  0  0
  3 11  1  0  0  0  0
  4 21  1  0  0  0  0
  4  3  2  0  0  0  0
  5 25  1  0  0  0  0
  6  5  2  0  0  0  0
  7 24  1  6  0  0  0
  7 19  1  0  0  0  0
  8 17  1  0  0  0  0
  9 15  1  0  0  0  0
  9 28  2  0  0  0  0
 10 20  1  0  0  0  0
 10  1  1  0  0  0  0
 11 13  2  0  0  0  0
 12  2  1  0  0  0  0
 12  8  1  0  0  0  0
 13 12  1  0  0  0  0
 14 27  1  0  0  0  0
 15 18  2  0  0  0  0
 17  7  1  0  0  0  0
 17 10  1  0  0  0  0
 18  6  1  0  0  0  0
 19 16  1  0  0  0  0
 20  1  1  0  0  0  0
 20 29  1  0  0  0  0
 21 22  2  0  0  0  0
 22 14  1  0  0  0  0
 22 13  1  0  0  0  0
 23 28  1  0  0  0  0
 23 14  2  0  0  0  0
 26  9  1  0  0  0  0
 27  5  1  0  0  0  0
 27  2  2  0  0  0  0
 28  6  1  0  0  0  0
 30 29  1  0  0  0  0
 30 31  1  0  0  0  0
 32 30  1  0  0  0  0
M  END
>  <MODEL>
8

>  <REMARK>
 VINA RESULT:      -8.2      3.208      8.766
  Name = 
  2 active torsions:
  status: ('A' for Active; 'I' for Inactive)
    1  A    between atoms: C_20  and  C_29
    2  A    between atoms: C_29  and  N_30
                            x       y       z     vdW  Elec       q    Type
                         _______ _______ _______ _____ _____    ______ ____

>  <TORSDO>
F 2

$$$$
=
 OpenBabel11122410473D

 32 38  0  0  1  0  0  0  0  0999 V2000
  191.7510  175.7150  147.0790 C   0  0  1  0  0  3  0  0  0  0  0  0
  188.2510  177.6350  143.7680 C   0  0  0  0  0  0  0  0  0  0  0  0
  184.4190  178.6280  146.5670 C   0  0  0  0  0  3  0  0  0  0  0  0
  183.6560  178.9220  145.4400 C   0  0  0  0  0  3  0  0  0  0  0  0
  188.0810  177.9210  141.2590 C   0  0  0  0  0  0  0  0  0  0  0  0
  187.2510  178.2390  140.1830 C   0  0  0  0  0  0  0  0  0  0  0  0
  190.4400  177.1830  144.9220 C   0  0  1  0  0  3  0  0  0  0  0  0
  188.4320  177.5390  146.2600 C   0  0  0  0  0  2  0  0  0  0  0  0
  185.4760  178.8340  139.0890 C   0  0  0  0  0  0  0  0  0  0  0  0
  190.3970  176.3770  147.3610 C   0  0  2  0  0  3  0  0  0  0  0  0
  185.7500  178.2390  146.4210 C   0  0  0  0  0  3  0  0  0  0  0  0
  187.6560  177.7420  145.0150 N   0  0  0  0  0  0  0  0  0  0  0  0
  186.3480  178.1370  145.1460 C   0  0  0  0  0  0  0  0  0  0  0  0
  186.1470  178.3580  142.7340 C   0  0  0  0  0  0  0  0  0  0  0  0
  186.4750  178.6280  138.2040 N   0  0  0  0  0  0  0  0  0  0  0  0
  191.9130  175.3900  145.6930 O   0  0  0  0  0  0  0  0  0  0  0  0
  189.6130  176.6150  146.0580 C   0  0  2  0  0  3  0  0  0  0  0  0
  187.5670  178.2630  138.8730 N   0  0  0  0  0  0  0  0  0  0  0  0
  191.8100  176.5050  144.8240 C   0  0  0  0  0  2  0  0  0  0  0  0
  191.6790  177.1970  147.4660 C   0  0  1  0  0  3  0  0  0  0  0  0
  184.2260  178.8290  144.1720 C   0  0  0  0  0  3  0  0  0  0  0  0
  185.5700  178.4380  144.0090 C   0  0  0  0  0  0  0  0  0  0  0  0
  185.3630  178.6700  141.5990 C   0  0  0  0  0  3  0  0  0  0  0  0
  189.6360  177.0240  143.6540 C   0  0  0  0  0  2  0  0  0  0  0  0
  189.5100  177.6060  140.9440 C   0  0  0  0  0  1  0  0  0  0  0  0
  184.0990  179.2620  138.7180 C   0  0  0  0  0  1  0  0  0  0  0  0
  187.5190  177.9630  142.5860 C   0  0  0  0  0  0  0  0  0  0  0  0
  185.9520  178.5920  140.3530 C   0  0  0  0  0  0  0  0  0  0  0  0
  192.0530  177.3520  148.9280 C   0  0  0  0  0  2  0  0  0  0  0  0
  193.3750  176.7960  149.1600 N   0  0  0  0  0  0  0  0  0  0  0  0
  193.9300  177.4840  150.3120 C   0  0  0  0  0  1  0  0  0  0  0  0
  193.1810  175.4140  149.5590 C   0  0  0  0  0  1  0  0  0  0  0  0
  1 16  1  6  0  0  0
  1 10  1  0  0  0  0
  1 20  1  0  0  0  0
  2 12  1  0  0  0  0
  4  3  2  0  0  0  0
  5 27  1  0  0  0  0
  6 28  1  0  0  0  0
  6  5  2  0  0  0  0
  7 24  1  6  0  0  0
  7 17  1  0  0  0  0
  9 28  2  0  0  0  0
 10 20  1  0  0  0  0
 11  3  1  0  0  0  0
 12 13  1  0  0  0  0
 12  8  1  0  0  0  0
 13 11  2  0  0  0  0
 14 22  1  0  0  0  0
 15 18  2  0  0  0  0
 15  9  1  0  0  0  0
 17  8  1  0  0  0  0
 17 10  1  0  0  0  0
 18  6  1  0  0  0  0
 19  7  1  0  0  0  0
 19 16  1  0  0  0  0
 20 29  1  0  0  0  0
 21  4  1  0  0  0  0
 22 21  2  0  0  0  0
 22 13  1  0  0  0  0
 23 14  2  0  0  0  0
 24  2  1  0  0  0  0
 25  5  1  0  0  0  0
 26  9  1  0  0  0  0
 27 14  1  0  0  0  0
 27  2  2  0  0  0  0
 28 23  1  0  0  0  0
 29 30  1  0  0  0  0
 30 32  1  0  0  0  0
 30 31  1  0  0  0  0
M  END
>  <MODEL>
9

>  <REMARK>
 VINA RESULT:      -8.2      2.732      7.969
  Name = 
  2 active torsions:
  status: ('A' for Active; 'I' for Inactive)
    1  A    between atoms: C_20  and  C_29
    2  A    between atoms: C_29  and  N_30
                            x       y       z     vdW  Elec       q    Type
                         _______ _______ _______ _____ _____    ______ ____

>  <TORSDO>
F 2

$$$$
