=
 OpenBabel11122412243D

 34 40  0  0  1  0  0  0  0  0999 V2000
  183.1390  178.6430  141.4700 C   0  0  0  0  0  0  0  0  0  0  0  0
  183.0310  178.7910  144.0240 C   0  0  0  0  0  2  0  0  0  0  0  0
  186.1340  177.4590  135.7330 C   0  0  1  0  0  3  0  0  0  0  0  0
  183.4050  178.0240  139.1580 C   0  0  0  0  0  0  0  0  0  0  0  0
  185.6120  178.4860  138.0420 C   0  0  2  0  0  3  0  0  0  0  0  0
  187.6470  179.1840  136.8070 C   0  0  0  0  0  1  0  0  0  0  0  0
  187.1010  177.4990  134.7240 O   0  0  0  0  0  1  0  0  0  0  0  0
  184.3850  175.9020  136.6760 C   0  0  0  0  0  2  0  0  0  0  0  0
  185.0830  178.4110  142.9260 C   0  0  1  0  0  3  0  0  0  0  0  0
  187.6110  177.2770  144.2660 C   0  0  0  0  0  2  0  0  0  0  0  0
  186.1790  178.5760  139.3960 N   0  0  0  0  0  0  0  0  0  0  0  0
  184.5620  176.3010  138.0050 O   0  0  0  0  0  0  0  0  0  0  0  0
  186.0740  178.8410  141.8350 C   0  0  2  0  0  3  0  0  0  0  0  0
  184.1270  178.8010  145.0900 C   0  0  0  0  0  2  0  0  0  0  0  0
  184.2940  177.6740  138.0020 C   0  0  1  0  0  3  0  0  0  0  0  0
  185.7000  176.0060  135.9120 C   0  0  0  0  0  2  0  0  0  0  0  0
  186.2270  177.4160  144.9010 C   0  0  2  0  0  3  0  0  0  0  0  0
  183.9760  178.4300  140.3640 C   0  0  0  0  0  0  0  0  0  0  0  0
  186.6960  178.0200  137.0540 C   0  0  2  0  0  3  0  0  0  0  0  0
  185.4490  178.5840  140.4740 C   0  0  0  0  0  0  0  0  0  0  0  0
  181.2550  178.1160  140.1440 C   0  0  0  0  0  3  0  0  0  0  0  0
  187.5330  176.9340  142.7840 C   0  0  0  0  0  2  0  0  0  0  0  0
  182.0580  177.8680  139.0730 N   0  0  0  0  0  0  0  0  0  0  0  0
  187.4740  178.2150  141.9590 C   0  0  0  0  0  2  0  0  0  0  0  0
  185.4730  178.6410  144.3700 C   0  0  1  0  0  3  0  0  0  0  0  0
  181.7940  178.5060  141.3310 N   0  0  0  0  0  0  0  0  0  0  0  0
  183.7660  179.1170  142.7490 C   0  0  1  0  0  3  0  0  0  0  0  0
  186.3790  177.5110  146.2870 O   0  0  0  0  0  0  0  0  0  0  0  0
  187.5770  178.2060  146.4710 C   0  0  0  0  0  2  0  0  0  0  0  0
  190.7970  177.0580  147.6150 C   0  0  0  0  0  2  0  0  0  0  0  0
  189.1050  178.5690  148.4060 C   0  0  0  0  0  2  0  0  0  0  0  0
  188.4050  177.5340  147.5490 C   0  0  0  0  0  3  0  0  0  0  0  0
  190.4230  177.9400  148.7860 C   0  0  0  0  0  2  0  0  0  0  0  0
  189.4980  176.6940  146.9180 C   0  0  0  0  0  2  0  0  0  0  0  0
  1 27  1  0  0  0  0
  2 14  1  0  0  0  0
  3  7  1  6  0  0  0
  3 16  1  0  0  0  0
  3 19  1  0  0  0  0
  4 18  1  0  0  0  0
  5 11  1  1  0  0  0
  6 19  1  0  0  0  0
  8 12  1  0  0  0  0
  9 25  1  0  0  0  0
 10 17  1  0  0  0  0
 11 20  2  0  0  0  0
 13 24  1  0  0  0  0
 13  9  1  0  0  0  0
 15 12  1  0  0  0  0
 15  5  1  0  0  0  0
 15  4  1  0  0  0  0
 16  8  1  0  0  0  0
 17 28  1  0  0  0  0
 18 20  1  0  0  0  0
 18  1  2  0  0  0  0
 19  5  1  0  0  0  0
 20 13  1  0  0  0  0
 21 26  2  0  0  0  0
 22 10  1  0  0  0  0
 23  4  2  0  0  0  0
 23 21  1  0  0  0  0
 24 22  1  0  0  0  0
 25 17  1  0  0  0  0
 25 14  1  0  0  0  0
 26  1  1  0  0  0  0
 27  9  1  0  0  0  0
 27  2  1  0  0  0  0
 28 29  1  0  0  0  0
 29 32  1  0  0  0  0
 30 33  1  0  0  0  0
 31 33  1  0  0  0  0
 32 31  1  0  0  0  0
 34 32  1  0  0  0  0
 34 30  1  0  0  0  0
M  END
>  <MODEL>
1

>  <REMARK>
 VINA RESULT:      -9.6      0.000      0.000
  Name = 
  3 active torsions:
  status: ('A' for Active; 'I' for Inactive)
    1  A    between atoms: C_17  and  O_28
    2  A    between atoms: O_28  and  C_29
    3  A    between atoms: C_29  and  C_32
                            x       y       z     vdW  Elec       q    Type
                         _______ _______ _______ _____ _____    ______ ____

>  <TORSDO>
F 3

$$$$
=
 OpenBabel11122412243D

 34 40  0  0  1  0  0  0  0  0999 V2000
  187.7200  177.2870  138.0960 C   0  0  0  0  0  0  0  0  0  0  0  0
  186.4400  178.3810  140.0250 C   0  0  0  0  0  2  0  0  0  0  0  0
  192.8560  174.1640  135.4190 C   0  0  1  0  0  3  0  0  0  0  0  0
  188.9510  175.8570  136.6010 C   0  0  0  0  0  0  0  0  0  0  0  0
  191.4650  175.9610  136.6430 C   0  0  2  0  0  3  0  0  0  0  0  0
  193.9210  176.2320  136.4240 C   0  0  0  0  0  1  0  0  0  0  0  0
  194.1770  173.8650  135.0800 O   0  0  0  0  0  1  0  0  0  0  0  0
  190.6560  173.0020  135.8460 C   0  0  0  0  0  2  0  0  0  0  0  0
  188.6830  177.7070  140.2980 C   0  0  1  0  0  3  0  0  0  0  0  0
  190.0720  177.2730  143.0100 C   0  0  0  0  0  2  0  0  0  0  0  0
  191.3300  176.5780  137.9710 N   0  0  0  0  0  0  0  0  0  0  0  0
  190.2410  173.8790  136.8530 O   0  0  0  0  0  0  0  0  0  0  0  0
  190.1240  177.7380  139.7690 C   0  0  2  0  0  3  0  0  0  0  0  0
  186.8890  178.8390  141.4130 C   0  0  0  0  0  2  0  0  0  0  0  0
  190.2170  175.1360  136.2420 C   0  0  1  0  0  3  0  0  0  0  0  0
  192.1740  172.8680  135.8520 C   0  0  0  0  0  2  0  0  0  0  0  0
  188.5910  177.5800  142.7830 C   0  0  2  0  0  3  0  0  0  0  0  0
  188.9370  176.7100  137.7030 C   0  0  0  0  0  0  0  0  0  0  0  0
  192.8030  175.2060  136.5540 C   0  0  2  0  0  3  0  0  0  0  0  0
  190.1870  176.9590  138.4660 C   0  0  0  0  0  0  0  0  0  0  0  0
  186.6330  176.2170  136.2900 C   0  0  0  0  0  3  0  0  0  0  0  0
  190.6530  176.3950  141.9100 C   0  0  0  0  0  2  0  0  0  0  0  0
  187.7990  175.6200  135.9210 N   0  0  0  0  0  0  0  0  0  0  0  0
  191.1870  177.2670  140.7790 C   0  0  0  0  0  2  0  0  0  0  0  0
  188.3730  178.4800  141.5610 C   0  0  1  0  0  3  0  0  0  0  0  0
  186.5970  177.0490  137.3670 N   0  0  0  0  0  0  0  0  0  0  0  0
  187.7310  178.2350  139.2600 C   0  0  1  0  0  3  0  0  0  0  0  0
  188.0810  178.1960  143.9290 O   0  0  0  0  0  0  0  0  0  0  0  0
  188.0040  177.1770  144.8810 C   0  0  0  0  0  2  0  0  0  0  0  0
  185.8180  179.0610  147.0410 C   0  0  0  0  0  2  0  0  0  0  0  0
  185.6840  178.0850  144.8490 C   0  0  0  0  0  2  0  0  0  0  0  0
  186.6900  177.2690  145.6330 C   0  0  0  0  0  3  0  0  0  0  0  0
  184.8660  178.8090  145.8910 C   0  0  0  0  0  2  0  0  0  0  0  0
  186.8950  177.9950  146.9490 C   0  0  0  0  0  2  0  0  0  0  0  0
  1 27  1  0  0  0  0
  2 14  1  0  0  0  0
  3  7  1  1  0  0  0
  3 16  1  0  0  0  0
  3 19  1  0  0  0  0
  4 18  2  0  0  0  0
  5 11  1  1  0  0  0
  6 19  1  0  0  0  0
  8 16  1  0  0  0  0
  8 12  1  0  0  0  0
  9 25  1  0  0  0  0
 11 20  2  0  0  0  0
 13  9  1  0  0  0  0
 13 24  1  0  0  0  0
 14 25  1  0  0  0  0
 15  4  1  0  0  0  0
 15  5  1  0  0  0  0
 15 12  1  0  0  0  0
 17 10  1  0  0  0  0
 17 28  1  0  0  0  0
 18  1  1  0  0  0  0
 18 20  1  0  0  0  0
 19  5  1  0  0  0  0
 20 13  1  0  0  0  0
 21 26  1  0  0  0  0
 22 10  1  0  0  0  0
 23 21  2  0  0  0  0
 23  4  1  0  0  0  0
 24 22  1  0  0  0  0
 25 17  1  0  0  0  0
 26  1  2  0  0  0  0
 27  2  1  0  0  0  0
 27  9  1  0  0  0  0
 28 29  1  0  0  0  0
 29 32  1  0  0  0  0
 31 32  1  0  0  0  0
 31 33  1  0  0  0  0
 32 34  1  0  0  0  0
 33 30  1  0  0  0  0
 34 30  1  0  0  0  0
M  END
>  <MODEL>
2

>  <REMARK>
 VINA RESULT:      -9.5      3.995      5.560
  Name = 
  3 active torsions:
  status: ('A' for Active; 'I' for Inactive)
    1  A    between atoms: C_17  and  O_28
    2  A    between atoms: O_28  and  C_29
    3  A    between atoms: C_29  and  C_32
                            x       y       z     vdW  Elec       q    Type
                         _______ _______ _______ _____ _____    ______ ____

>  <TORSDO>
F 3

$$$$
=
 OpenBabel11122412243D

 34 40  0  0  1  0  0  0  0  0999 V2000
  187.7000  177.4950  138.4120 C   0  0  0  0  0  0  0  0  0  0  0  0
  186.3590  178.4760  140.3610 C   0  0  0  0  0  2  0  0  0  0  0  0
  192.7820  174.2650  135.7600 C   0  0  1  0  0  3  0  0  0  0  0  0
  188.9340  176.1370  136.8540 C   0  0  0  0  0  0  0  0  0  0  0  0
  191.4380  176.0280  137.0810 C   0  0  2  0  0  3  0  0  0  0  0  0
  193.9170  176.1180  137.0640 C   0  0  0  0  0  1  0  0  0  0  0  0
  194.1000  173.8950  135.4810 O   0  0  0  0  0  1  0  0  0  0  0  0
  190.4760  173.2490  135.8990 C   0  0  0  0  0  2  0  0  0  0  0  0
  188.5180  177.5930  140.7090 C   0  0  1  0  0  3  0  0  0  0  0  0
  189.6540  176.7570  143.4440 C   0  0  0  0  0  2  0  0  0  0  0  0
  191.2460  176.5080  138.4580 N   0  0  0  0  0  0  0  0  0  0  0  0
  190.0500  174.0430  136.9680 O   0  0  0  0  0  0  0  0  0  0  0  0
  189.9940  177.5620  140.2890 C   0  0  2  0  0  3  0  0  0  0  0  0
  186.7310  178.7430  141.8190 C   0  0  0  0  0  2  0  0  0  0  0  0
  190.1670  175.3570  136.5030 C   0  0  1  0  0  3  0  0  0  0  0  0
  191.9750  172.9910  135.9950 C   0  0  0  0  0  2  0  0  0  0  0  0
  188.2230  177.2080  143.1510 C   0  0  2  0  0  3  0  0  0  0  0  0
  188.8980  176.8650  138.0410 C   0  0  0  0  0  0  0  0  0  0  0  0
  192.7190  175.1790  137.0000 C   0  0  2  0  0  3  0  0  0  0  0  0
  190.1000  176.9260  138.9120 C   0  0  0  0  0  0  0  0  0  0  0  0
  186.6800  176.7190  136.4260 C   0  0  0  0  0  3  0  0  0  0  0  0
  190.2530  175.9570  142.2940 C   0  0  0  0  0  2  0  0  0  0  0  0
  187.8240  176.0700  136.0730 N   0  0  0  0  0  0  0  0  0  0  0  0
  190.9360  176.8990  141.3090 C   0  0  0  0  0  2  0  0  0  0  0  0
  188.1690  178.2490  142.0270 C   0  0  1  0  0  3  0  0  0  0  0  0
  186.6230  177.4300  137.5860 N   0  0  0  0  0  0  0  0  0  0  0  0
  187.6910  178.3070  139.6740 C   0  0  1  0  0  3  0  0  0  0  0  0
  187.6730  177.7370  144.3220 O   0  0  0  0  0  0  0  0  0  0  0  0
  188.7630  177.9410  145.1710 C   0  0  0  0  0  2  0  0  0  0  0  0
  189.2380  178.1270  148.7400 C   0  0  0  0  0  2  0  0  0  0  0  0
  187.3750  178.2050  147.2240 C   0  0  0  0  0  2  0  0  0  0  0  0
  188.4580  177.3880  146.5500 C   0  0  0  0  0  3  0  0  0  0  0  0
  187.7270  178.1890  148.6920 C   0  0  0  0  0  2  0  0  0  0  0  0
  189.6850  177.4910  147.4350 C   0  0  0  0  0  2  0  0  0  0  0  0
  1 27  1  0  0  0  0
  2 14  1  0  0  0  0
  3  7  1  1  0  0  0
  3 16  1  0  0  0  0
  3 19  1  0  0  0  0
  4 18  2  0  0  0  0
  5 11  1  1  0  0  0
  8 16  1  0  0  0  0
  8 12  1  0  0  0  0
  9 25  1  0  0  0  0
 11 20  2  0  0  0  0
 13  9  1  0  0  0  0
 13 24  1  0  0  0  0
 14 25  1  0  0  0  0
 15  4  1  0  0  0  0
 15 12  1  0  0  0  0
 15  5  1  0  0  0  0
 17 10  1  0  0  0  0
 17 28  1  0  0  0  0
 18  1  1  0  0  0  0
 18 20  1  0  0  0  0
 19  6  1  0  0  0  0
 19  5  1  0  0  0  0
 20 13  1  0  0  0  0
 21 26  1  0  0  0  0
 22 10  1  0  0  0  0
 23 21  2  0  0  0  0
 23  4  1  0  0  0  0
 24 22  1  0  0  0  0
 25 17  1  0  0  0  0
 26  1  2  0  0  0  0
 27  2  1  0  0  0  0
 27  9  1  0  0  0  0
 28 29  1  0  0  0  0
 29 32  1  0  0  0  0
 31 33  1  0  0  0  0
 32 31  1  0  0  0  0
 32 34  1  0  0  0  0
 33 30  1  0  0  0  0
 34 30  1  0  0  0  0
M  END
>  <MODEL>
3

>  <REMARK>
 VINA RESULT:      -9.3      3.856      5.122
  Name = 
  3 active torsions:
  status: ('A' for Active; 'I' for Inactive)
    1  A    between atoms: C_17  and  O_28
    2  A    between atoms: O_28  and  C_29
    3  A    between atoms: C_29  and  C_32
                            x       y       z     vdW  Elec       q    Type
                         _______ _______ _______ _____ _____    ______ ____

>  <TORSDO>
F 3

$$$$
=
 OpenBabel11122412243D

 34 40  0  0  1  0  0  0  0  0999 V2000
  183.3940  178.8830  143.2900 C   0  0  0  0  0  0  0  0  0  0  0  0
  184.2490  179.0320  145.7000 C   0  0  0  0  0  2  0  0  0  0  0  0
  183.8660  177.2440  136.9350 C   0  0  1  0  0  3  0  0  0  0  0  0
  182.6990  178.2410  141.0770 C   0  0  0  0  0  0  0  0  0  0  0  0
  184.3910  178.3310  139.2160 C   0  0  2  0  0  3  0  0  0  0  0  0
  185.9190  178.6850  137.2950 C   0  0  0  0  0  1  0  0  0  0  0  0
  184.3920  177.1270  135.6460 O   0  0  0  0  0  1  0  0  0  0  0  0
  182.3580  175.9980  138.5310 C   0  0  0  0  0  2  0  0  0  0  0  0
  185.6720  178.3190  143.9600 C   0  0  1  0  0  3  0  0  0  0  0  0
  188.3000  176.7690  144.3620 C   0  0  0  0  0  2  0  0  0  0  0  0
  185.4180  178.3170  140.2680 N   0  0  0  0  0  0  0  0  0  0  0  0
  183.0670  176.3550  139.6820 O   0  0  0  0  0  0  0  0  0  0  0  0
  186.2520  178.5830  142.5630 C   0  0  2  0  0  3  0  0  0  0  0  0
  185.6450  178.8520  146.2970 C   0  0  0  0  0  2  0  0  0  0  0  0
  183.0380  177.7520  139.6990 C   0  0  1  0  0  3  0  0  0  0  0  0
  183.3020  175.8840  137.3400 C   0  0  0  0  0  2  0  0  0  0  0  0
  187.2840  177.1350  145.4430 C   0  0  2  0  0  3  0  0  0  0  0  0
  183.7250  178.5380  141.9710 C   0  0  0  0  0  0  0  0  0  0  0  0
  184.9520  177.6960  137.9320 C   0  0  2  0  0  3  0  0  0  0  0  0
  185.1420  178.4420  141.5350 C   0  0  0  0  0  0  0  0  0  0  0  0
  181.0990  178.6870  142.7630 C   0  0  0  0  0  3  0  0  0  0  0  0
  187.6350  176.4530  143.0290 C   0  0  0  0  0  2  0  0  0  0  0  0
  181.4060  178.3130  141.4900 N   0  0  0  0  0  0  0  0  0  0  0  0
  187.4840  177.7300  142.2100 C   0  0  0  0  0  2  0  0  0  0  0  0
  186.5920  178.4730  145.1510 C   0  0  1  0  0  3  0  0  0  0  0  0
  182.0870  178.9740  143.6530 N   0  0  0  0  0  0  0  0  0  0  0  0
  184.5110  179.2370  144.2290 C   0  0  1  0  0  3  0  0  0  0  0  0
  187.9430  177.1960  146.6740 O   0  0  0  0  0  0  0  0  0  0  0  0
  189.0140  178.0680  146.4660 C   0  0  0  0  0  2  0  0  0  0  0  0
  191.0200  175.2040  147.3440 C   0  0  0  0  0  2  0  0  0  0  0  0
  191.3230  177.2190  146.0700 C   0  0  0  0  0  2  0  0  0  0  0  0
  190.2670  177.5140  147.1150 C   0  0  0  0  0  3  0  0  0  0  0  0
  192.0560  176.0030  146.5830 C   0  0  0  0  0  2  0  0  0  0  0  0
  189.9600  176.1940  147.7960 C   0  0  0  0  0  2  0  0  0  0  0  0
  1 26  1  0  0  0  0
  1 27  1  0  0  0  0
  2 14  1  0  0  0  0
  3  7  1  6  0  0  0
  3 16  1  0  0  0  0
  3 19  1  0  0  0  0
  4 23  2  0  0  0  0
  4 18  1  0  0  0  0
  5 15  1  0  0  0  0
  5 11  1  1  0  0  0
  6 19  1  0  0  0  0
  8 12  1  0  0  0  0
  9 27  1  0  0  0  0
  9 25  1  0  0  0  0
 10 17  1  0  0  0  0
 11 20  2  0  0  0  0
 12 15  1  0  0  0  0
 13  9  1  0  0  0  0
 15  4  1  0  0  0  0
 16  8  1  0  0  0  0
 17 28  1  0  0  0  0
 18  1  2  0  0  0  0
 19  5  1  0  0  0  0
 20 18  1  0  0  0  0
 20 13  1  0  0  0  0
 21 26  2  0  0  0  0
 22 10  1  0  0  0  0
 23 21  1  0  0  0  0
 24 13  1  0  0  0  0
 24 22  1  0  0  0  0
 25 17  1  0  0  0  0
 25 14  1  0  0  0  0
 27  2  1  0  0  0  0
 29 28  1  0  0  0  0
 29 32  1  0  0  0  0
 30 34  1  0  0  0  0
 31 33  1  0  0  0  0
 31 32  1  0  0  0  0
 32 34  1  0  0  0  0
 33 30  1  0  0  0  0
M  END
>  <MODEL>
4

>  <REMARK>
 VINA RESULT:      -9.0      1.411      2.006
  Name = 
  3 active torsions:
  status: ('A' for Active; 'I' for Inactive)
    1  A    between atoms: C_17  and  O_28
    2  A    between atoms: O_28  and  C_29
    3  A    between atoms: C_29  and  C_32
                            x       y       z     vdW  Elec       q    Type
                         _______ _______ _______ _____ _____    ______ ____

>  <TORSDO>
F 3

$$$$
=
 OpenBabel11122412243D

 34 40  0  0  1  0  0  0  0  0999 V2000
  186.6820  178.3500  138.7900 C   0  0  0  0  0  0  0  0  0  0  0  0
  186.1130  177.6230  136.4010 C   0  0  0  0  0  2  0  0  0  0  0  0
  185.5950  178.7630  145.2660 C   0  0  1  0  0  3  0  0  0  0  0  0
  187.1600  178.5330  141.1420 C   0  0  0  0  0  0  0  0  0  0  0  0
  185.2550  178.9990  142.7190 C   0  0  2  0  0  3  0  0  0  0  0  0
  183.4810  179.7530  144.2800 C   0  0  0  0  0  1  0  0  0  0  0  0
  184.9300  178.9960  146.4720 O   0  0  0  0  0  1  0  0  0  0  0  0
  187.3890  177.2710  144.3010 C   0  0  0  0  0  2  0  0  0  0  0  0
  184.5600  177.3290  138.1500 C   0  0  1  0  0  3  0  0  0  0  0  0
  182.1460  175.4220  138.0560 C   0  0  0  0  0  2  0  0  0  0  0  0
  184.3670  178.5270  141.6460 N   0  0  0  0  0  0  0  0  0  0  0  0
  186.7950  177.1540  143.0410 O   0  0  0  0  0  0  0  0  0  0  0  0
  183.7950  177.9490  139.3280 C   0  0  2  0  0  3  0  0  0  0  0  0
  184.8210  177.0940  135.7790 C   0  0  0  0  0  2  0  0  0  0  0  0
  186.7020  178.4680  142.5690 C   0  0  1  0  0  3  0  0  0  0  0  0
  186.3210  177.4250  145.3790 C   0  0  0  0  0  2  0  0  0  0  0  0
  183.2490  175.5490  137.0050 C   0  0  2  0  0  3  0  0  0  0  0  0
  186.2260  178.4030  140.1160 C   0  0  0  0  0  0  0  0  0  0  0  0
  184.6020  178.7390  144.0870 C   0  0  2  0  0  3  0  0  0  0  0  0
  184.7810  178.2770  140.4370 C   0  0  0  0  0  0  0  0  0  0  0  0
  188.9060  178.6140  139.5460 C   0  0  0  0  0  3  0  0  0  0  0  0
  182.6720  175.6280  139.4710 C   0  0  0  0  0  2  0  0  0  0  0  0
  188.4810  178.6280  140.8390 N   0  0  0  0  0  0  0  0  0  0  0  0
  182.6100  177.1070  139.8350 C   0  0  0  0  0  2  0  0  0  0  0  0
  183.7800  176.9840  136.9010 C   0  0  1  0  0  3  0  0  0  0  0  0
  188.0100  178.4820  138.5300 N   0  0  0  0  0  0  0  0  0  0  0  0
  185.6600  178.2500  137.6950 C   0  0  1  0  0  3  0  0  0  0  0  0
  182.7400  175.1350  135.7710 O   0  0  0  0  0  0  0  0  0  0  0  0
  182.3460  173.8100  135.9710 C   0  0  0  0  0  2  0  0  0  0  0  0
  183.8060  170.5160  136.0940 C   0  0  0  0  0  2  0  0  0  0  0  0
  184.2330  172.5680  134.9190 C   0  0  0  0  0  2  0  0  0  0  0  0
  183.5620  172.9400  136.2250 C   0  0  0  0  0  3  0  0  0  0  0  0
  184.7750  171.1760  135.1370 C   0  0  0  0  0  2  0  0  0  0  0  0
  183.1420  171.6360  136.8750 C   0  0  0  0  0  2  0  0  0  0  0  0
  1 18  1  0  0  0  0
  2 27  1  0  0  0  0
  3 16  1  0  0  0  0
  3  7  1  1  0  0  0
  4 15  1  0  0  0  0
  5 11  1  6  0  0  0
  5 19  1  0  0  0  0
  8 16  1  0  0  0  0
  9 13  1  0  0  0  0
 10 22  1  0  0  0  0
 12  8  1  0  0  0  0
 13 24  1  0  0  0  0
 13 20  1  0  0  0  0
 14  2  1  0  0  0  0
 14 25  1  0  0  0  0
 15  5  1  0  0  0  0
 15 12  1  0  0  0  0
 17 10  1  0  0  0  0
 18 20  1  0  0  0  0
 18  4  2  0  0  0  0
 19  6  1  0  0  0  0
 19  3  1  0  0  0  0
 20 11  2  0  0  0  0
 21 23  2  0  0  0  0
 22 24  1  0  0  0  0
 23  4  1  0  0  0  0
 25 17  1  0  0  0  0
 25  9  1  0  0  0  0
 26  1  2  0  0  0  0
 26 21  1  0  0  0  0
 27  9  1  0  0  0  0
 27  1  1  0  0  0  0
 28 29  1  0  0  0  0
 28 17  1  0  0  0  0
 29 32  1  0  0  0  0
 30 34  1  0  0  0  0
 31 33  1  0  0  0  0
 31 32  1  0  0  0  0
 32 34  1  0  0  0  0
 33 30  1  0  0  0  0
M  END
>  <MODEL>
5

>  <REMARK>
 VINA RESULT:      -8.4      2.353      8.854
  Name = 
  3 active torsions:
  status: ('A' for Active; 'I' for Inactive)
    1  A    between atoms: C_17  and  O_28
    2  A    between atoms: O_28  and  C_29
    3  A    between atoms: C_29  and  C_32
                            x       y       z     vdW  Elec       q    Type
                         _______ _______ _______ _____ _____    ______ ____

>  <TORSDO>
F 3

$$$$
=
 OpenBabel11122412243D

 34 40  0  0  1  0  0  0  0  0999 V2000
  182.0060  178.6450  143.9100 C   0  0  0  0  0  0  0  0  0  0  0  0
  183.6640  178.6280  145.8620 C   0  0  0  0  0  2  0  0  0  0  0  0
  180.3470  178.2990  137.5530 C   0  0  1  0  0  3  0  0  0  0  0  0
  180.6670  178.2120  141.9570 C   0  0  0  0  0  0  0  0  0  0  0  0
  181.4650  179.0930  139.7390 C   0  0  2  0  0  3  0  0  0  0  0  0
  182.0370  180.1870  137.5870 C   0  0  0  0  0  1  0  0  0  0  0  0
  180.3530  178.5560  136.1790 O   0  0  0  0  0  1  0  0  0  0  0  0
  179.8520  176.4250  139.1690 C   0  0  0  0  0  2  0  0  0  0  0  0
  184.4300  178.6540  143.6320 C   0  0  1  0  0  3  0  0  0  0  0  0
  187.2710  177.8770  142.7400 C   0  0  0  0  0  2  0  0  0  0  0  0
  182.7940  179.1980  140.3580 N   0  0  0  0  0  0  0  0  0  0  0  0
  180.8560  176.7710  140.0780 O   0  0  0  0  0  0  0  0  0  0  0  0
  184.3660  179.3030  142.2420 C   0  0  2  0  0  3  0  0  0  0  0  0
  185.1860  178.7570  145.9050 C   0  0  0  0  0  2  0  0  0  0  0  0
  180.5490  178.0790  140.4670 C   0  0  1  0  0  3  0  0  0  0  0  0
  180.2730  176.7880  137.7500 C   0  0  0  0  0  2  0  0  0  0  0  0
  186.6920  177.7510  144.1490 C   0  0  2  0  0  3  0  0  0  0  0  0
  181.8720  178.6360  142.5130 C   0  0  0  0  0  0  0  0  0  0  0  0
  181.6120  178.8700  138.2240 C   0  0  2  0  0  3  0  0  0  0  0  0
  183.0030  179.0240  141.6310 C   0  0  0  0  0  0  0  0  0  0  0  0
  179.7760  177.8920  144.1260 C   0  0  0  0  0  3  0  0  0  0  0  0
  186.2280  177.6110  141.6620 C   0  0  0  0  0  2  0  0  0  0  0  0
  179.6450  177.8400  142.7720 N   0  0  0  0  0  0  0  0  0  0  0  0
  185.5170  178.9110  141.2990 C   0  0  0  0  0  2  0  0  0  0  0  0
  185.6820  178.8630  144.4560 C   0  0  1  0  0  3  0  0  0  0  0  0
  180.9470  178.2970  144.6890 N   0  0  0  0  0  0  0  0  0  0  0  0
  183.2970  179.1420  144.4930 C   0  0  1  0  0  3  0  0  0  0  0  0
  187.7420  177.7900  145.0700 O   0  0  0  0  0  0  0  0  0  0  0  0
  188.9020  177.8190  144.2910 C   0  0  0  0  0  2  0  0  0  0  0  0
  190.6190  176.6800  147.2490 C   0  0  0  0  0  2  0  0  0  0  0  0
  191.0640  176.7320  144.8880 C   0  0  0  0  0  2  0  0  0  0  0  0
  190.1250  177.8840  145.1850 C   0  0  0  0  0  3  0  0  0  0  0  0
  191.6840  176.3780  146.2170 C   0  0  0  0  0  2  0  0  0  0  0  0
  189.7160  177.7360  146.6380 C   0  0  0  0  0  2  0  0  0  0  0  0
  1 27  1  0  0  0  0
  1 26  1  0  0  0  0
  2 14  1  0  0  0  0
  3  7  1  6  0  0  0
  3 16  1  0  0  0  0
  3 19  1  0  0  0  0
  4 18  1  0  0  0  0
  4 23  2  0  0  0  0
  5 11  1  1  0  0  0
  5 15  1  0  0  0  0
  6 19  1  0  0  0  0
  8 12  1  0  0  0  0
  9 25  1  0  0  0  0
  9 27  1  0  0  0  0
 10 17  1  0  0  0  0
 11 20  2  0  0  0  0
 12 15  1  0  0  0  0
 13  9  1  0  0  0  0
 15  4  1  0  0  0  0
 16  8  1  0  0  0  0
 17 25  1  0  0  0  0
 17 28  1  0  0  0  0
 18  1  2  0  0  0  0
 19  5  1  0  0  0  0
 20 13  1  0  0  0  0
 20 18  1  0  0  0  0
 21 26  2  0  0  0  0
 22 10  1  0  0  0  0
 23 21  1  0  0  0  0
 24 22  1  0  0  0  0
 24 13  1  0  0  0  0
 25 14  1  0  0  0  0
 27  2  1  0  0  0  0
 29 28  1  0  0  0  0
 29 32  1  0  0  0  0
 31 32  1  0  0  0  0
 31 33  1  0  0  0  0
 32 34  1  0  0  0  0
 33 30  1  0  0  0  0
 34 30  1  0  0  0  0
M  END
>  <MODEL>
6

>  <REMARK>
 VINA RESULT:      -8.3      2.789      3.613
  Name = 
  3 active torsions:
  status: ('A' for Active; 'I' for Inactive)
    1  A    between atoms: C_17  and  O_28
    2  A    between atoms: O_28  and  C_29
    3  A    between atoms: C_29  and  C_32
                            x       y       z     vdW  Elec       q    Type
                         _______ _______ _______ _____ _____    ______ ____

>  <TORSDO>
F 3

$$$$
=
 OpenBabel11122412243D

 34 40  0  0  1  0  0  0  0  0999 V2000
  188.8290  176.7040  137.8780 C   0  0  0  0  0  0  0  0  0  0  0  0
  187.4650  177.8230  139.7340 C   0  0  0  0  0  2  0  0  0  0  0  0
  194.2690  174.0160  135.3330 C   0  0  1  0  0  3  0  0  0  0  0  0
  190.2030  175.2940  136.4920 C   0  0  0  0  0  0  0  0  0  0  0  0
  192.6790  175.7350  136.4180 C   0  0  2  0  0  3  0  0  0  0  0  0
  195.0690  176.3040  136.0700 C   0  0  0  0  0  1  0  0  0  0  0  0
  195.6090  173.8590  134.9720 O   0  0  0  0  0  1  0  0  0  0  0  0
  192.2610  172.6260  135.9700 C   0  0  0  0  0  2  0  0  0  0  0  0
  189.7860  177.4860  139.9830 C   0  0  1  0  0  3  0  0  0  0  0  0
  191.2930  177.5400  142.6650 C   0  0  0  0  0  2  0  0  0  0  0  0
  192.4970  176.4710  137.6780 N   0  0  0  0  0  0  0  0  0  0  0  0
  191.7570  173.5450  136.8960 O   0  0  0  0  0  0  0  0  0  0  0  0
  191.1940  177.6500  139.3940 C   0  0  2  0  0  3  0  0  0  0  0  0
  187.8840  178.4850  141.0460 C   0  0  0  0  0  2  0  0  0  0  0  0
  191.5450  174.7130  136.1580 C   0  0  1  0  0  3  0  0  0  0  0  0
  193.7820  172.6960  135.9270 C   0  0  0  0  0  2  0  0  0  0  0  0
  189.7790  177.6210  142.4690 C   0  0  2  0  0  3  0  0  0  0  0  0
  190.1030  176.2540  137.4980 C   0  0  0  0  0  0  0  0  0  0  0  0
  194.1050  175.1590  136.3540 C   0  0  2  0  0  3  0  0  0  0  0  0
  191.3270  176.7490  138.1780 C   0  0  0  0  0  0  0  0  0  0  0  0
  187.8500  175.3080  136.2420 C   0  0  0  0  0  3  0  0  0  0  0  0
  191.9590  176.6310  141.6400 C   0  0  0  0  0  2  0  0  0  0  0  0
  189.0760  174.8330  135.8890 N   0  0  0  0  0  0  0  0  0  0  0  0
  192.3370  177.4380  140.4020 C   0  0  0  0  0  2  0  0  0  0  0  0
  189.4070  178.3450  141.1690 C   0  0  1  0  0  3  0  0  0  0  0  0
  187.7300  176.2400  137.2260 N   0  0  0  0  0  0  0  0  0  0  0  0
  188.7420  177.7660  138.9350 C   0  0  1  0  0  3  0  0  0  0  0  0
  189.2210  178.2860  143.5640 O   0  0  0  0  0  0  0  0  0  0  0  0
  189.9560  177.8420  144.6660 C   0  0  0  0  0  2  0  0  0  0  0  0
  188.6310  177.5960  148.0100 C   0  0  0  0  0  2  0  0  0  0  0  0
  187.7370  177.8910  145.7990 C   0  0  0  0  0  2  0  0  0  0  0  0
  189.0420  177.1360  145.6490 C   0  0  0  0  0  3  0  0  0  0  0  0
  187.3320  177.6940  147.2390 C   0  0  0  0  0  2  0  0  0  0  0  0
  189.6790  177.1090  147.0250 C   0  0  0  0  0  2  0  0  0  0  0  0
  1 27  1  0  0  0  0
  2 14  1  0  0  0  0
  3  7  1  1  0  0  0
  3 16  1  0  0  0  0
  3 19  1  0  0  0  0
  4 18  2  0  0  0  0
  5 11  1  1  0  0  0
  6 19  1  0  0  0  0
  8 12  1  0  0  0  0
  9 25  1  0  0  0  0
 11 20  2  0  0  0  0
 13  9  1  0  0  0  0
 13 24  1  0  0  0  0
 14 25  1  0  0  0  0
 15  5  1  0  0  0  0
 15  4  1  0  0  0  0
 15 12  1  0  0  0  0
 16  8  1  0  0  0  0
 17 10  1  0  0  0  0
 17 28  1  0  0  0  0
 18  1  1  0  0  0  0
 18 20  1  0  0  0  0
 19  5  1  0  0  0  0
 20 13  1  0  0  0  0
 21 26  1  0  0  0  0
 22 10  1  0  0  0  0
 23 21  2  0  0  0  0
 23  4  1  0  0  0  0
 24 22  1  0  0  0  0
 25 17  1  0  0  0  0
 26  1  2  0  0  0  0
 27  2  1  0  0  0  0
 27  9  1  0  0  0  0
 28 29  1  0  0  0  0
 29 32  1  0  0  0  0
 31 33  1  0  0  0  0
 32 31  1  0  0  0  0
 32 34  1  0  0  0  0
 33 30  1  0  0  0  0
 34 30  1  0  0  0  0
M  END
>  <MODEL>
7

>  <REMARK>
 VINA RESULT:      -8.0      4.946      6.439
  Name = 
  3 active torsions:
  status: ('A' for Active; 'I' for Inactive)
    1  A    between atoms: C_17  and  O_28
    2  A    between atoms: O_28  and  C_29
    3  A    between atoms: C_29  and  C_32
                            x       y       z     vdW  Elec       q    Type
                         _______ _______ _______ _____ _____    ______ ____

>  <TORSDO>
F 3

$$$$
=
 OpenBabel11122412243D

 34 40  0  0  1  0  0  0  0  0999 V2000
  188.3150  177.3740  138.7340 C   0  0  0  0  0  0  0  0  0  0  0  0
  186.2240  177.6280  137.2780 C   0  0  0  0  0  2  0  0  0  0  0  0
  191.5900  177.3990  144.4400 C   0  0  1  0  0  3  0  0  0  0  0  0
  189.9890  176.8030  140.3680 C   0  0  0  0  0  0  0  0  0  0  0  0
  190.1510  178.2010  142.4540 C   0  0  2  0  0  3  0  0  0  0  0  0
  190.5580  179.7120  144.3780 C   0  0  0  0  0  1  0  0  0  0  0  0
  192.0560  177.8340  145.6840 O   0  0  0  0  0  1  0  0  0  0  0  0
  191.0500  175.2590  143.2160 C   0  0  0  0  0  2  0  0  0  0  0  0
  186.1800  178.2180  139.5600 C   0  0  1  0  0  3  0  0  0  0  0  0
  183.6230  178.5510  141.2410 C   0  0  0  0  0  2  0  0  0  0  0  0
  188.7820  178.6480  142.1550 N   0  0  0  0  0  0  0  0  0  0  0  0
  189.9620  175.7840  142.5120 O   0  0  0  0  0  0  0  0  0  0  0  0
  186.8240  178.9980  140.7150 C   0  0  2  0  0  3  0  0  0  0  0  0
  184.8540  178.2430  137.5630 C   0  0  0  0  0  2  0  0  0  0  0  0
  190.4950  176.8500  141.7790 C   0  0  1  0  0  3  0  0  0  0  0  0
  191.1800  175.9350  144.5760 C   0  0  0  0  0  2  0  0  0  0  0  0
  183.7080  178.0440  139.8010 C   0  0  2  0  0  3  0  0  0  0  0  0
  188.8420  177.5170  140.0270 C   0  0  0  0  0  0  0  0  0  0  0  0
  190.3950  178.2530  143.9720 C   0  0  2  0  0  3  0  0  0  0  0  0
  188.1720  178.3750  141.0380 C   0  0  0  0  0  0  0  0  0  0  0  0
  190.0830  175.9060  138.1790 C   0  0  0  0  0  3  0  0  0  0  0  0
  184.8180  178.1120  142.0770 C   0  0  0  0  0  2  0  0  0  0  0  0
  190.5830  176.0060  139.4420 N   0  0  0  0  0  0  0  0  0  0  0  0
  185.9360  179.1420  141.9640 C   0  0  0  0  0  2  0  0  0  0  0  0
  184.8520  178.7080  139.0250 C   0  0  1  0  0  3  0  0  0  0  0  0
  188.9600  176.5910  137.8290 N   0  0  0  0  0  0  0  0  0  0  0  0
  187.1020  178.1800  138.3720 C   0  0  1  0  0  3  0  0  0  0  0  0
  182.4890  178.2970  139.1660 O   0  0  0  0  0  0  0  0  0  0  0  0
  182.1360  179.5880  139.5670 C   0  0  0  0  0  2  0  0  0  0  0  0
  180.1440  180.4040  136.6750 C   0  0  0  0  0  2  0  0  0  0  0  0
  180.8980  181.5470  138.6500 C   0  0  0  0  0  2  0  0  0  0  0  0
  181.9170  180.4670  138.3500 C   0  0  0  0  0  3  0  0  0  0  0  0
  180.1540  181.7570  137.3530 C   0  0  0  0  0  2  0  0  0  0  0  0
  181.3450  179.6440  137.2110 C   0  0  0  0  0  2  0  0  0  0  0  0
  1 18  1  0  0  0  0
  2 14  1  0  0  0  0
  2 27  1  0  0  0  0
  3 16  1  0  0  0  0
  3  7  1  1  0  0  0
  4 15  1  0  0  0  0
  5 11  1  1  0  0  0
  5 19  1  0  0  0  0
  8 16  1  0  0  0  0
  9 13  1  0  0  0  0
 10 22  1  0  0  0  0
 12  8  1  0  0  0  0
 13 20  1  0  0  0  0
 13 24  1  0  0  0  0
 14 25  1  0  0  0  0
 15  5  1  0  0  0  0
 15 12  1  0  0  0  0
 17 10  1  0  0  0  0
 18  4  2  0  0  0  0
 18 20  1  0  0  0  0
 19  6  1  0  0  0  0
 19  3  1  0  0  0  0
 20 11  2  0  0  0  0
 21 23  2  0  0  0  0
 23  4  1  0  0  0  0
 24 22  1  0  0  0  0
 25  9  1  0  0  0  0
 25 17  1  0  0  0  0
 26 21  1  0  0  0  0
 26  1  2  0  0  0  0
 27  1  1  0  0  0  0
 27  9  1  0  0  0  0
 28 29  1  0  0  0  0
 28 17  1  0  0  0  0
 30 34  1  0  0  0  0
 30 33  1  0  0  0  0
 32 31  1  0  0  0  0
 32 29  1  0  0  0  0
 33 31  1  0  0  0  0
 34 32  1  0  0  0  0
M  END
>  <MODEL>
8

>  <REMARK>
 VINA RESULT:      -7.6      3.280      8.491
  Name = 
  3 active torsions:
  status: ('A' for Active; 'I' for Inactive)
    1  A    between atoms: C_17  and  O_28
    2  A    between atoms: O_28  and  C_29
    3  A    between atoms: C_29  and  C_32
                            x       y       z     vdW  Elec       q    Type
                         _______ _______ _______ _____ _____    ______ ____

>  <TORSDO>
F 3

$$$$
=
 OpenBabel11122412243D

 34 40  0  0  1  0  0  0  0  0999 V2000
  189.7500  177.4630  137.9830 C   0  0  0  0  0  0  0  0  0  0  0  0
  187.7490  178.4700  139.2250 C   0  0  0  0  0  2  0  0  0  0  0  0
  195.3280  173.9970  137.5770 C   0  0  1  0  0  3  0  0  0  0  0  0
  191.4700  176.0760  137.0280 C   0  0  0  0  0  0  0  0  0  0  0  0
  193.6280  175.8020  138.2920 C   0  0  2  0  0  3  0  0  0  0  0  0
  195.8770  175.7360  139.3360 C   0  0  0  0  0  1  0  0  0  0  0  0
  196.6210  173.5540  137.8660 O   0  0  0  0  0  1  0  0  0  0  0  0
  193.1410  173.1250  136.6680 C   0  0  0  0  0  2  0  0  0  0  0  0
  189.5100  177.4430  140.4110 C   0  0  1  0  0  3  0  0  0  0  0  0
  189.3290  176.4580  143.3210 C   0  0  0  0  0  2  0  0  0  0  0  0
  192.8870  176.2540  139.4800 N   0  0  0  0  0  0  0  0  0  0  0  0
  192.3340  173.9140  137.4940 O   0  0  0  0  0  0  0  0  0  0  0  0
  191.0210  177.3320  140.6570 C   0  0  2  0  0  3  0  0  0  0  0  0
  187.4730  178.6710  140.7150 C   0  0  0  0  0  2  0  0  0  0  0  0
  192.6980  175.2300  137.1940 C   0  0  1  0  0  3  0  0  0  0  0  0
  194.4420  172.7700  137.3780 C   0  0  0  0  0  2  0  0  0  0  0  0
  188.1820  177.0070  142.4720 C   0  0  2  0  0  3  0  0  0  0  0  0
  190.9620  176.7700  138.1240 C   0  0  0  0  0  0  0  0  0  0  0  0
  194.7810  174.8780  138.7190 C   0  0  2  0  0  3  0  0  0  0  0  0
  191.6770  176.7300  139.4250 C   0  0  0  0  0  0  0  0  0  0  0  0
  189.6440  176.8110  135.7140 C   0  0  0  0  0  3  0  0  0  0  0  0
  190.3260  175.6560  142.4950 C   0  0  0  0  0  2  0  0  0  0  0  0
  190.7980  176.1020  135.8470 N   0  0  0  0  0  0  0  0  0  0  0  0
  191.4060  176.5820  141.9450 C   0  0  0  0  0  2  0  0  0  0  0  0
  188.6600  178.0820  141.4880 C   0  0  1  0  0  3  0  0  0  0  0  0
  189.1280  177.4900  136.7740 N   0  0  0  0  0  0  0  0  0  0  0  0
  189.2380  178.2370  139.1620 C   0  0  1  0  0  3  0  0  0  0  0  0
  187.2080  177.5350  143.3230 O   0  0  0  0  0  0  0  0  0  0  0  0
  187.8050  177.5500  144.5860 C   0  0  0  0  0  2  0  0  0  0  0  0
  186.0550  178.9880  147.3910 C   0  0  0  0  0  2  0  0  0  0  0  0
  185.4640  178.0980  145.2390 C   0  0  0  0  0  2  0  0  0  0  0  0
  186.7450  177.4110  145.6620 C   0  0  0  0  0  3  0  0  0  0  0  0
  184.8710  178.6450  146.5150 C   0  0  0  0  0  2  0  0  0  0  0  0
  187.2010  178.1020  146.9330 C   0  0  0  0  0  2  0  0  0  0  0  0
  1 18  1  0  0  0  0
  1 27  1  0  0  0  0
  2 14  1  0  0  0  0
  3  7  1  1  0  0  0
  3 19  1  0  0  0  0
  4 15  1  0  0  0  0
  4 18  2  0  0  0  0
  5 19  1  0  0  0  0
  5 11  1  1  0  0  0
  8 16  1  0  0  0  0
  8 12  1  0  0  0  0
  9 13  1  0  0  0  0
  9 25  1  0  0  0  0
 13 24  1  0  0  0  0
 14 25  1  0  0  0  0
 15 12  1  0  0  0  0
 15  5  1  0  0  0  0
 16  3  1  0  0  0  0
 17 10  1  0  0  0  0
 17 28  1  0  0  0  0
 18 20  1  0  0  0  0
 19  6  1  0  0  0  0
 20 11  2  0  0  0  0
 20 13  1  0  0  0  0
 21 23  2  0  0  0  0
 21 26  1  0  0  0  0
 22 10  1  0  0  0  0
 23  4  1  0  0  0  0
 24 22  1  0  0  0  0
 25 17  1  0  0  0  0
 26  1  2  0  0  0  0
 27  2  1  0  0  0  0
 27  9  1  0  0  0  0
 28 29  1  0  0  0  0
 29 32  1  0  0  0  0
 31 32  1  0  0  0  0
 31 33  1  0  0  0  0
 32 34  1  0  0  0  0
 33 30  1  0  0  0  0
 34 30  1  0  0  0  0
M  END
>  <MODEL>
9

>  <REMARK>
 VINA RESULT:      -7.4      5.240      6.977
  Name = 
  3 active torsions:
  status: ('A' for Active; 'I' for Inactive)
    1  A    between atoms: C_17  and  O_28
    2  A    between atoms: O_28  and  C_29
    3  A    between atoms: C_29  and  C_32
                            x       y       z     vdW  Elec       q    Type
                         _______ _______ _______ _____ _____    ______ ____

>  <TORSDO>
F 3

$$$$
