=
 OpenBabel11122411463D

 37 43  0  0  1  0  0  0  0  0999 V2000
  182.0030  178.2550  137.6550 C   0  0  2  0  0  3  0  0  0  0  0  0
  185.5920  175.7950  136.0830 C   0  0  0  0  0  0  0  0  0  0  0  0
  186.6000  178.2750  139.2170 C   0  0  0  0  0  0  0  0  0  0  0  0
  183.8020  178.9000  141.7040 O   0  0  0  0  0  0  0  0  0  0  0  0
  187.3920  177.0880  137.2890 C   0  0  0  0  0  0  0  0  0  0  0  0
  185.2850  178.7380  139.7960 C   0  0  2  0  0  3  0  0  0  0  0  0
  180.7010  178.3740  139.7190 N   0  0  0  0  0  0  0  0  0  0  0  0
  186.3890  177.7270  137.9920 C   0  0  0  0  0  0  0  0  0  0  0  0
  184.9950  178.2970  141.2620 C   0  0  1  0  0  3  0  0  0  0  0  0
  188.6590  177.1040  137.7920 N   0  0  0  0  0  0  0  0  0  0  0  0
  181.1790  177.4730  138.6760 C   0  0  0  0  0  2  0  0  0  0  0  0
  185.0330  177.6500  137.6500 N   0  0  0  0  0  0  0  0  0  0  0  0
  185.5260  174.6240  137.0500 C   0  0  0  0  0  1  0  0  0  0  0  0
  188.1520  178.7760  141.1230 C   0  0  0  0  0  2  0  0  0  0  0  0
  188.9290  177.6910  139.0000 C   0  0  0  0  0  3  0  0  0  0  0  0
  184.5650  176.8700  136.5020 C   0  0  0  0  0  2  0  0  0  0  0  0
  181.8420  179.0400  140.3740 C   0  0  1  0  0  3  0  0  0  0  0  0
  182.7310  178.1320  141.2380 C   0  0  0  0  0  2  0  0  0  0  0  0
  187.8950  178.2880  139.7490 C   0  0  0  0  0  0  0  0  0  0  0  0
  184.2570  178.0900  138.8070 C   0  0  2  0  0  3  0  0  0  0  0  0
  187.0340  176.3540  136.0290 C   0  0  0  0  0  2  0  0  0  0  0  0
  186.1050  178.7270  142.2510 C   0  0  2  0  0  3  0  0  0  0  0  0
  185.2220  175.2910  134.7040 C   0  0  0  0  0  1  0  0  0  0  0  0
  182.5990  179.8170  139.4550 O   0  0  0  0  0  0  0  0  0  0  0  0
  179.9450  177.5920  140.6850 C   0  0  0  0  0  1  0  0  0  0  0  0
  183.1090  179.0270  138.3880 C   0  0  2  0  0  3  0  0  0  0  0  0
  187.3450  177.9940  142.0430 N   0  0  0  0  0  2  0  0  0  0  0  0
  184.4610  179.0960  144.1340 C   0  0  0  0  0  3  0  0  0  0  0  0
  185.6810  178.5700  143.6810 C   0  0  0  0  0  0  0  0  0  0  0  0
  186.5180  177.8940  144.5740 C   0  0  0  0  0  3  0  0  0  0  0  0
  186.9560  177.0880  146.7740 F   0  0  0  0  0  0  0  0  0  0  0  0
  184.9270  178.2670  146.3610 C   0  0  0  0  0  3  0  0  0  0  0  0
  186.1430  177.7430  145.9120 C   0  0  0  0  0  0  0  0  0  0  0  0
  184.0860  178.9440  145.4720 C   0  0  0  0  0  3  0  0  0  0  0  0
  181.1250  179.1980  136.8390 C   0  0  0  0  0  3  0  0  0  0  0  0
  181.5270  180.5060  137.0370 F   0  0  0  0  0  0  0  0  0  0  0  0
  181.2270  178.8950  135.4940 F   0  0  0  0  0  0  0  0  0  0  0  0
  1 35  1  1  0  0  0
  1 26  1  0  0  0  0
  1 11  1  0  0  0  0
  2 16  1  0  0  0  0
  2 13  1  0  0  0  0
  3 19  1  0  0  0  0
  5 10  2  0  0  0  0
  5  8  1  0  0  0  0
  6  3  1  6  0  0  0
  6  9  1  0  0  0  0
  7 17  1  0  0  0  0
  7 25  1  0  0  0  0
  8  3  2  0  0  0  0
  9  4  1  1  0  0  0
  9 22  1  0  0  0  0
 10 15  1  0  0  0  0
 11  7  1  0  0  0  0
 12  8  1  0  0  0  0
 14 27  1  0  0  0  0
 15 19  2  0  0  0  0
 16 12  1  0  0  0  0
 17 18  1  6  0  0  0
 18  4  1  0  0  0  0
 19 14  1  0  0  0  0
 20 12  1  6  0  0  0
 20  6  1  0  0  0  0
 21  2  1  0  0  0  0
 21  5  1  0  0  0  0
 22 29  1  1  0  0  0
 23  2  1  0  0  0  0
 24 17  1  0  0  0  0
 26 20  1  0  0  0  0
 26 24  1  1  0  0  0
 27 22  1  0  0  0  0
 28 34  1  0  0  0  0
 29 28  2  0  0  0  0
 29 30  1  0  0  0  0
 30 33  2  0  0  0  0
 33 32  1  0  0  0  0
 33 31  1  0  0  0  0
 34 32  2  0  0  0  0
 35 36  1  0  0  0  0
 37 35  1  0  0  0  0
M  END
>  <MODEL>
1

>  <REMARK>
 VINA RESULT:      -9.3      0.000      0.000
  Name = 
  2 active torsions:
  status: ('A' for Active; 'I' for Inactive)
    1  A    between atoms: C_1  and  C_4
    2  A    between atoms: C_23  and  C_30
                            x       y       z     vdW  Elec       q    Type
                         _______ _______ _______ _____ _____    ______ ____

>  <TORSDO>
F 2

$$$$
=
 OpenBabel11122411463D

 37 43  0  0  1  0  0  0  0  0999 V2000
  183.8200  178.5490  139.6370 C   0  0  2  0  0  3  0  0  0  0  0  0
  184.8130  175.2930  136.5050 C   0  0  0  0  0  0  0  0  0  0  0  0
  188.1720  177.1620  137.9930 C   0  0  0  0  0  0  0  0  0  0  0  0
  187.8530  178.3760  141.5750 O   0  0  0  0  0  0  0  0  0  0  0  0
  187.2280  175.9370  136.1590 C   0  0  0  0  0  0  0  0  0  0  0  0
  187.6950  177.9350  139.1980 C   0  0  2  0  0  3  0  0  0  0  0  0
  184.1970  178.8870  142.0270 N   0  0  0  0  0  0  0  0  0  0  0  0
  187.1040  176.7830  137.2450 C   0  0  0  0  0  0  0  0  0  0  0  0
  188.2900  177.4930  140.5690 C   0  0  1  0  0  3  0  0  0  0  0  0
  188.4760  175.5600  135.7610 N   0  0  0  0  0  0  0  0  0  0  0  0
  183.6540  177.9630  141.0370 C   0  0  0  0  0  2  0  0  0  0  0  0
  185.8760  177.1160  137.8310 N   0  0  0  0  0  0  0  0  0  0  0  0
  185.0670  174.1240  137.4430 C   0  0  0  0  0  1  0  0  0  0  0  0
  190.6380  177.0700  138.4430 C   0  0  0  0  0  2  0  0  0  0  0  0
  189.5870  175.9610  136.4550 C   0  0  0  0  0  3  0  0  0  0  0  0
  184.6070  176.5820  137.3310 C   0  0  0  0  0  2  0  0  0  0  0  0
  185.6180  179.1560  141.7430 C   0  0  1  0  0  3  0  0  0  0  0  0
  186.5750  177.9760  141.9750 C   0  0  0  0  0  2  0  0  0  0  0  0
  189.4580  176.7710  137.6000 C   0  0  0  0  0  0  0  0  0  0  0  0
  186.1510  177.6750  139.1520 C   0  0  2  0  0  3  0  0  0  0  0  0
  185.9810  175.4240  135.4990 C   0  0  0  0  0  2  0  0  0  0  0  0
  189.8370  177.5210  140.5910 C   0  0  2  0  0  3  0  0  0  0  0  0
  183.5430  175.0120  135.7310 C   0  0  0  0  0  1  0  0  0  0  0  0
  185.7970  179.7500  140.4640 O   0  0  0  0  0  0  0  0  0  0  0  0
  184.0460  178.2840  143.3430 C   0  0  0  0  0  1  0  0  0  0  0  0
  185.2920  178.9250  139.4210 C   0  0  2  0  0  3  0  0  0  0  0  0
  190.4220  176.4850  139.7540 N   0  0  0  0  0  2  0  0  0  0  0  0
  190.2140  176.2090  142.7180 C   0  0  0  0  0  3  0  0  0  0  0  0
  190.3840  177.3910  141.9820 C   0  0  0  0  0  0  0  0  0  0  0  0
  191.0710  178.4690  142.5510 C   0  0  0  0  0  3  0  0  0  0  0  0
  192.2470  179.4150  144.3960 F   0  0  0  0  0  0  0  0  0  0  0  0
  191.4120  177.1900  144.5790 C   0  0  0  0  0  3  0  0  0  0  0  0
  191.5840  178.3690  143.8480 C   0  0  0  0  0  0  0  0  0  0  0  0
  190.7270  176.1100  144.0150 C   0  0  0  0  0  3  0  0  0  0  0  0
  182.9110  179.7570  139.4310 C   0  0  0  0  0  3  0  0  0  0  0  0
  183.5730  180.7260  138.7000 F   0  0  0  0  0  0  0  0  0  0  0  0
  181.7700  179.3790  138.7470 F   0  0  0  0  0  0  0  0  0  0  0  0
  1 35  1  1  0  0  0
  1 11  1  0  0  0  0
  2 16  1  0  0  0  0
  2 13  1  0  0  0  0
  4 18  1  0  0  0  0
  5  8  1  0  0  0  0
  6  3  1  6  0  0  0
  6  9  1  0  0  0  0
  7 25  1  0  0  0  0
  8 12  1  0  0  0  0
  8  3  2  0  0  0  0
  9 22  1  0  0  0  0
  9  4  1  1  0  0  0
 10  5  2  0  0  0  0
 10 15  1  0  0  0  0
 11  7  1  0  0  0  0
 14 27  1  0  0  0  0
 15 19  2  0  0  0  0
 16 12  1  0  0  0  0
 17 18  1  6  0  0  0
 17  7  1  0  0  0  0
 19  3  1  0  0  0  0
 19 14  1  0  0  0  0
 20 12  1  6  0  0  0
 20  6  1  0  0  0  0
 20 26  1  0  0  0  0
 21  5  1  0  0  0  0
 21  2  1  0  0  0  0
 22 29  1  1  0  0  0
 23  2  1  0  0  0  0
 24 17  1  0  0  0  0
 26  1  1  0  0  0  0
 26 24  1  1  0  0  0
 27 22  1  0  0  0  0
 28 34  1  0  0  0  0
 29 30  1  0  0  0  0
 29 28  2  0  0  0  0
 30 33  2  0  0  0  0
 33 31  1  0  0  0  0
 33 32  1  0  0  0  0
 34 32  2  0  0  0  0
 36 35  1  0  0  0  0
 37 35  1  0  0  0  0
M  END
>  <MODEL>
2

>  <REMARK>
 VINA RESULT:      -9.1      2.495      3.832
  Name = 
  2 active torsions:
  status: ('A' for Active; 'I' for Inactive)
    1  A    between atoms: C_1  and  C_4
    2  A    between atoms: C_23  and  C_30
                            x       y       z     vdW  Elec       q    Type
                         _______ _______ _______ _____ _____    ______ ____

>  <TORSDO>
F 2

$$$$
=
 OpenBabel11122411463D

 37 43  0  0  1  0  0  0  0  0999 V2000
  183.7230  178.5380  139.5430 C   0  0  2  0  0  3  0  0  0  0  0  0
  184.9860  175.3310  136.4570 C   0  0  0  0  0  0  0  0  0  0  0  0
  188.1990  177.3020  138.1260 C   0  0  0  0  0  0  0  0  0  0  0  0
  187.6520  178.4860  141.6900 O   0  0  0  0  0  0  0  0  0  0  0  0
  187.3930  176.0560  136.2410 C   0  0  0  0  0  0  0  0  0  0  0  0
  187.6340  178.0530  139.3070 C   0  0  2  0  0  3  0  0  0  0  0  0
  183.9620  178.8750  141.9510 N   0  0  0  0  0  0  0  0  0  0  0  0
  187.1840  176.8920  137.3220 C   0  0  0  0  0  0  0  0  0  0  0  0
  188.1700  177.6230  140.7050 C   0  0  1  0  0  3  0  0  0  0  0  0
  188.6720  175.7210  135.9070 N   0  0  0  0  0  0  0  0  0  0  0  0
  183.5040  177.9390  140.9300 C   0  0  0  0  0  2  0  0  0  0  0  0
  185.9170  177.1810  137.8430 N   0  0  0  0  0  0  0  0  0  0  0  0
  185.2280  174.1660  137.4020 C   0  0  0  0  0  1  0  0  0  0  0  0
  190.6400  177.2870  138.7050 C   0  0  0  0  0  2  0  0  0  0  0  0
  189.7320  176.1550  136.6600 C   0  0  0  0  0  3  0  0  0  0  0  0
  184.6950  176.6090  137.2750 C   0  0  0  0  0  2  0  0  0  0  0  0
  185.3870  179.1920  141.7430 C   0  0  1  0  0  3  0  0  0  0  0  0
  186.3690  178.0420  142.0210 C   0  0  0  0  0  2  0  0  0  0  0  0
  189.5160  176.9550  137.7990 C   0  0  0  0  0  0  0  0  0  0  0  0
  186.1040  177.7430  139.1790 C   0  0  2  0  0  3  0  0  0  0  0  0
  186.2000  175.5060  135.5140 C   0  0  0  0  0  2  0  0  0  0  0  0
  189.7120  177.7020  140.8090 C   0  0  2  0  0  3  0  0  0  0  0  0
  183.7680  175.0130  135.6160 C   0  0  0  0  0  1  0  0  0  0  0  0
  185.6140  179.7990  140.4770 O   0  0  0  0  0  0  0  0  0  0  0  0
  183.7630  178.2610  143.2550 C   0  0  0  0  0  1  0  0  0  0  0  0
  185.1920  178.9620  139.4060 C   0  0  2  0  0  3  0  0  0  0  0  0
  190.3740  176.6890  140.0000 N   0  0  0  0  0  2  0  0  0  0  0  0
  189.9580  178.6080  143.1560 C   0  0  0  0  0  3  0  0  0  0  0  0
  190.1900  177.5820  142.2260 C   0  0  0  0  0  0  0  0  0  0  0  0
  190.8810  176.4330  142.6220 C   0  0  0  0  0  3  0  0  0  0  0  0
  192.0100  175.1910  144.3150 F   0  0  0  0  0  0  0  0  0  0  0  0
  191.1080  177.3280  144.8600 C   0  0  0  0  0  3  0  0  0  0  0  0
  191.3400  176.3050  143.9360 C   0  0  0  0  0  0  0  0  0  0  0  0
  190.4170  178.4790  144.4700 C   0  0  0  0  0  3  0  0  0  0  0  0
  182.7870  179.7160  139.2940 C   0  0  0  0  0  3  0  0  0  0  0  0
  183.4960  180.7760  138.7580 F   0  0  0  0  0  0  0  0  0  0  0  0
  181.7900  179.3490  138.4090 F   0  0  0  0  0  0  0  0  0  0  0  0
  1 35  1  1  0  0  0
  1 11  1  0  0  0  0
  2 16  1  0  0  0  0
  2 13  1  0  0  0  0
  4 18  1  0  0  0  0
  5  8  1  0  0  0  0
  6  3  1  6  0  0  0
  6  9  1  0  0  0  0
  7 25  1  0  0  0  0
  8 12  1  0  0  0  0
  8  3  2  0  0  0  0
  9 22  1  0  0  0  0
  9  4  1  1  0  0  0
 10  5  2  0  0  0  0
 10 15  1  0  0  0  0
 11  7  1  0  0  0  0
 14 27  1  0  0  0  0
 15 19  2  0  0  0  0
 16 12  1  0  0  0  0
 17  7  1  0  0  0  0
 17 18  1  6  0  0  0
 19  3  1  0  0  0  0
 19 14  1  0  0  0  0
 20 12  1  6  0  0  0
 20  6  1  0  0  0  0
 20 26  1  0  0  0  0
 21  5  1  0  0  0  0
 21  2  1  0  0  0  0
 22 29  1  1  0  0  0
 23  2  1  0  0  0  0
 24 17  1  0  0  0  0
 26  1  1  0  0  0  0
 26 24  1  1  0  0  0
 27 22  1  0  0  0  0
 28 34  1  0  0  0  0
 29 30  1  0  0  0  0
 29 28  2  0  0  0  0
 30 33  2  0  0  0  0
 33 31  1  0  0  0  0
 33 32  1  0  0  0  0
 34 32  2  0  0  0  0
 36 35  1  0  0  0  0
 37 35  1  0  0  0  0
M  END
>  <MODEL>
3

>  <REMARK>
 VINA RESULT:      -9.0      2.415      3.578
  Name = 
  2 active torsions:
  status: ('A' for Active; 'I' for Inactive)
    1  A    between atoms: C_1  and  C_4
    2  A    between atoms: C_23  and  C_30
                            x       y       z     vdW  Elec       q    Type
                         _______ _______ _______ _____ _____    ______ ____

>  <TORSDO>
F 2

$$$$
=
 OpenBabel11122411463D

 37 43  0  0  1  0  0  0  0  0999 V2000
  183.5890  178.5130  139.1760 C   0  0  2  0  0  3  0  0  0  0  0  0
  185.3330  175.3510  136.2840 C   0  0  0  0  0  0  0  0  0  0  0  0
  188.2470  177.4610  138.2960 C   0  0  0  0  0  0  0  0  0  0  0  0
  187.2420  178.6340  141.7630 O   0  0  0  0  0  0  0  0  0  0  0  0
  187.7170  176.1750  136.3410 C   0  0  0  0  0  0  0  0  0  0  0  0
  187.5180  178.1920  139.3970 C   0  0  2  0  0  3  0  0  0  0  0  0
  183.5340  178.8690  141.5920 N   0  0  0  0  0  0  0  0  0  0  0  0
  187.3500  177.0050  137.3830 C   0  0  0  0  0  0  0  0  0  0  0  0
  187.9060  177.7910  140.8520 C   0  0  1  0  0  3  0  0  0  0  0  0
  189.0390  175.8940  136.1610 N   0  0  0  0  0  0  0  0  0  0  0  0
  183.2360  177.9110  140.5330 C   0  0  0  0  0  2  0  0  0  0  0  0
  186.0200  177.2430  137.7520 N   0  0  0  0  0  0  0  0  0  0  0  0
  185.5120  174.2010  137.2610 C   0  0  0  0  0  1  0  0  0  0  0  0
  190.6020  177.5520  139.1540 C   0  0  0  0  0  2  0  0  0  0  0  0
  189.9850  176.3750  137.0270 C   0  0  0  0  0  3  0  0  0  0  0  0
  184.8960  176.6180  137.0520 C   0  0  0  0  0  2  0  0  0  0  0  0
  184.9590  179.2450  141.5470 C   0  0  1  0  0  3  0  0  0  0  0  0
  185.9480  178.1390  141.9470 C   0  0  0  0  0  2  0  0  0  0  0  0
  189.6050  177.1690  138.1270 C   0  0  0  0  0  0  0  0  0  0  0  0
  186.0270  177.8170  139.0960 C   0  0  2  0  0  3  0  0  0  0  0  0
  186.6400  175.5730  135.4860 C   0  0  0  0  0  2  0  0  0  0  0  0
  189.4210  177.9340  141.1330 C   0  0  2  0  0  3  0  0  0  0  0  0
  184.2350  174.9790  135.3110 C   0  0  0  0  0  1  0  0  0  0  0  0
  185.3060  179.8560  140.3110 O   0  0  0  0  0  0  0  0  0  0  0  0
  183.2100  178.2530  142.8700 C   0  0  0  0  0  1  0  0  0  0  0  0
  185.0450  178.9990  139.2060 C   0  0  2  0  0  3  0  0  0  0  0  0
  190.2130  176.9480  140.4150 N   0  0  0  0  0  2  0  0  0  0  0  0
  190.9850  178.2440  143.0940 C   0  0  0  0  0  3  0  0  0  0  0  0
  189.7360  177.8410  142.5970 C   0  0  0  0  0  0  0  0  0  0  0  0
  188.7700  177.3400  143.4750 C   0  0  0  0  0  3  0  0  0  0  0  0
  188.1080  176.7520  145.6880 F   0  0  0  0  0  0  0  0  0  0  0  0
  190.2920  177.6410  145.3340 C   0  0  0  0  0  3  0  0  0  0  0  0
  189.0460  177.2390  144.8410 C   0  0  0  0  0  0  0  0  0  0  0  0
  191.2600  178.1430  144.4610 C   0  0  0  0  0  3  0  0  0  0  0  0
  182.6410  179.6500  138.8090 C   0  0  0  0  0  3  0  0  0  0  0  0
  183.3420  180.8380  138.7190 F   0  0  0  0  0  0  0  0  0  0  0  0
  182.0380  179.3900  137.5930 F   0  0  0  0  0  0  0  0  0  0  0  0
  1 35  1  1  0  0  0
  1 26  1  0  0  0  0
  1 11  1  0  0  0  0
  2 16  1  0  0  0  0
  2 13  1  0  0  0  0
  4 18  1  0  0  0  0
  5  8  1  0  0  0  0
  6  3  1  6  0  0  0
  6  9  1  0  0  0  0
  7 25  1  0  0  0  0
  8 12  1  0  0  0  0
  8  3  2  0  0  0  0
  9 22  1  0  0  0  0
  9  4  1  1  0  0  0
 10  5  2  0  0  0  0
 10 15  1  0  0  0  0
 11  7  1  0  0  0  0
 14 27  1  0  0  0  0
 15 19  2  0  0  0  0
 16 12  1  0  0  0  0
 17  7  1  0  0  0  0
 17 18  1  6  0  0  0
 19  3  1  0  0  0  0
 19 14  1  0  0  0  0
 20 12  1  6  0  0  0
 20 26  1  0  0  0  0
 20  6  1  0  0  0  0
 21  2  1  0  0  0  0
 21  5  1  0  0  0  0
 22 29  1  1  0  0  0
 23  2  1  0  0  0  0
 24 17  1  0  0  0  0
 26 24  1  1  0  0  0
 27 22  1  0  0  0  0
 28 34  1  0  0  0  0
 29 28  2  0  0  0  0
 29 30  1  0  0  0  0
 30 33  2  0  0  0  0
 33 32  1  0  0  0  0
 33 31  1  0  0  0  0
 34 32  2  0  0  0  0
 36 35  1  0  0  0  0
 37 35  1  0  0  0  0
M  END
>  <MODEL>
4

>  <REMARK>
 VINA RESULT:      -8.7      2.008      3.092
  Name = 
  2 active torsions:
  status: ('A' for Active; 'I' for Inactive)
    1  A    between atoms: C_1  and  C_4
    2  A    between atoms: C_23  and  C_30
                            x       y       z     vdW  Elec       q    Type
                         _______ _______ _______ _____ _____    ______ ____

>  <TORSDO>
F 2

$$$$
=
 OpenBabel11122411463D

 37 43  0  0  1  0  0  0  0  0999 V2000
  191.5180  176.2300  138.3550 C   0  0  2  0  0  3  0  0  0  0  0  0
  190.0160  176.8690  142.6840 C   0  0  0  0  0  0  0  0  0  0  0  0
  187.3540  178.2320  139.8470 C   0  0  0  0  0  0  0  0  0  0  0  0
  187.4110  176.3150  136.5720 O   0  0  0  0  0  0  0  0  0  0  0  0
  188.1140  178.4270  142.1140 C   0  0  0  0  0  0  0  0  0  0  0  0
  187.8440  177.6630  138.5380 C   0  0  2  0  0  3  0  0  0  0  0  0
  190.8460  174.8950  136.4230 N   0  0  0  0  0  0  0  0  0  0  0  0
  188.3310  178.1200  140.7840 C   0  0  0  0  0  0  0  0  0  0  0  0
  186.8810  176.6630  137.8290 C   0  0  1  0  0  3  0  0  0  0  0  0
  186.9140  178.9620  142.4770 N   0  0  0  0  0  0  0  0  0  0  0  0
  191.1900  174.8310  137.8390 C   0  0  0  0  0  2  0  0  0  0  0  0
  189.4620  177.4350  140.3210 N   0  0  0  0  0  0  0  0  0  0  0  0
  189.1810  175.6080  142.8400 C   0  0  0  0  0  1  0  0  0  0  0  0
  184.9870  178.8090  139.2500 C   0  0  0  0  0  2  0  0  0  0  0  0
  185.9170  179.1410  141.5550 C   0  0  0  0  0  3  0  0  0  0  0  0
  190.5180  176.9790  141.2280 C   0  0  0  0  0  2  0  0  0  0  0  0
  189.7020  175.8030  136.2210 C   0  0  1  0  0  3  0  0  0  0  0  0
  188.3550  175.3030  136.7670 C   0  0  0  0  0  2  0  0  0  0  0  0
  186.1140  178.7700  140.2110 C   0  0  0  0  0  0  0  0  0  0  0  0
  189.1650  176.9460  138.9770 C   0  0  2  0  0  3  0  0  0  0  0  0
  189.1890  178.1050  143.1120 C   0  0  0  0  0  2  0  0  0  0  0  0
  185.4770  177.2600  137.5710 C   0  0  2  0  0  3  0  0  0  0  0  0
  191.2180  176.7570  143.5970 C   0  0  0  0  0  1  0  0  0  0  0  0
  189.9970  177.1270  136.6470 O   0  0  0  0  0  0  0  0  0  0  0  0
  190.5150  173.5520  135.9720 C   0  0  0  0  0  1  0  0  0  0  0  0
  190.3530  177.1730  138.0240 C   0  0  2  0  0  3  0  0  0  0  0  0
  184.7240  177.4550  138.8010 N   0  0  0  0  0  2  0  0  0  0  0  0
  184.1340  176.9550  135.4520 C   0  0  0  0  0  3  0  0  0  0  0  0
  184.6670  176.4150  136.6320 C   0  0  0  0  0  0  0  0  0  0  0  0
  184.4390  175.0710  136.9440 C   0  0  0  0  0  3  0  0  0  0  0  0
  183.4630  172.9680  136.3910 F   0  0  0  0  0  0  0  0  0  0  0  0
  183.1510  174.8090  134.9100 C   0  0  0  0  0  3  0  0  0  0  0  0
  183.6820  174.2690  136.0850 C   0  0  0  0  0  0  0  0  0  0  0  0
  183.3770  176.1520  134.5930 C   0  0  0  0  0  3  0  0  0  0  0  0
  192.8260  176.7470  137.7650 C   0  0  0  0  0  3  0  0  0  0  0  0
  193.4890  177.5240  138.6960 F   0  0  0  0  0  0  0  0  0  0  0  0
  193.6360  175.6850  137.4070 F   0  0  0  0  0  0  0  0  0  0  0  0
  1 35  1  6  0  0  0
  2 13  1  0  0  0  0
  2 21  1  0  0  0  0
  2 23  1  0  0  0  0
  3 19  2  0  0  0  0
  3  8  1  0  0  0  0
  4 18  1  0  0  0  0
  5 10  1  0  0  0  0
  5 21  1  0  0  0  0
  6 20  1  0  0  0  0
  6  3  1  1  0  0  0
  7 11  1  0  0  0  0
  8  5  2  0  0  0  0
  9  4  1  6  0  0  0
  9  6  1  0  0  0  0
 11  1  1  0  0  0  0
 12  8  1  0  0  0  0
 12 16  1  0  0  0  0
 14 19  1  0  0  0  0
 15 10  2  0  0  0  0
 16  2  1  0  0  0  0
 17  7  1  0  0  0  0
 17 24  1  0  0  0  0
 17 18  1  1  0  0  0
 19 15  1  0  0  0  0
 20 12  1  1  0  0  0
 22 29  1  6  0  0  0
 22  9  1  0  0  0  0
 22 27  1  0  0  0  0
 25  7  1  0  0  0  0
 26 24  1  6  0  0  0
 26  1  1  0  0  0  0
 26 20  1  0  0  0  0
 27 14  1  0  0  0  0
 28 29  1  0  0  0  0
 29 30  2  0  0  0  0
 32 33  2  0  0  0  0
 33 31  1  0  0  0  0
 33 30  1  0  0  0  0
 34 32  1  0  0  0  0
 34 28  2  0  0  0  0
 35 36  1  0  0  0  0
 37 35  1  0  0  0  0
M  END
>  <MODEL>
5

>  <REMARK>
 VINA RESULT:      -7.6      3.931      8.327
  Name = 
  2 active torsions:
  status: ('A' for Active; 'I' for Inactive)
    1  A    between atoms: C_1  and  C_4
    2  A    between atoms: C_23  and  C_30
                            x       y       z     vdW  Elec       q    Type
                         _______ _______ _______ _____ _____    ______ ____

>  <TORSDO>
F 2

$$$$
=
 OpenBabel11122411463D

 37 43  0  0  1  0  0  0  0  0999 V2000
  188.0970  178.0250  138.9790 C   0  0  2  0  0  3  0  0  0  0  0  0
  188.1590  177.3300  143.5520 C   0  0  0  0  0  0  0  0  0  0  0  0
  184.5540  178.8070  142.2050 C   0  0  0  0  0  0  0  0  0  0  0  0
  183.6370  177.7660  138.6730 O   0  0  0  0  0  0  0  0  0  0  0  0
  186.0410  178.5970  144.0760 C   0  0  0  0  0  0  0  0  0  0  0  0
  184.6030  178.6660  140.7030 C   0  0  2  0  0  3  0  0  0  0  0  0
  186.9170  177.0850  137.0570 N   0  0  0  0  0  0  0  0  0  0  0  0
  185.8040  178.6600  142.7160 C   0  0  0  0  0  0  0  0  0  0  0  0
  183.5520  177.7010  140.0760 C   0  0  1  0  0  3  0  0  0  0  0  0
  185.0000  178.7980  144.9340 N   0  0  0  0  0  0  0  0  0  0  0  0
  187.7420  176.7530  138.2130 C   0  0  0  0  0  2  0  0  0  0  0  0
  186.7590  178.3260  141.7470 N   0  0  0  0  0  0  0  0  0  0  0  0
  187.5550  175.9350  143.5930 C   0  0  0  0  0  1  0  0  0  0  0  0
  182.0850  179.0590  142.5700 C   0  0  0  0  0  2  0  0  0  0  0  0
  183.7300  179.0020  144.4620 C   0  0  0  0  0  3  0  0  0  0  0  0
  188.1040  177.8730  142.1070 C   0  0  0  0  0  2  0  0  0  0  0  0
  185.6960  177.7870  137.4910 C   0  0  1  0  0  3  0  0  0  0  0  0
  184.6800  176.9290  138.2640 C   0  0  0  0  0  2  0  0  0  0  0  0
  183.4760  179.0030  143.0770 C   0  0  0  0  0  0  0  0  0  0  0  0
  186.0570  178.1230  140.4820 C   0  0  2  0  0  3  0  0  0  0  0  0
  187.4230  178.2530  144.5520 C   0  0  0  0  0  2  0  0  0  0  0  0
  182.0970  178.0700  140.4530 C   0  0  2  0  0  3  0  0  0  0  0  0
  189.6100  177.2300  143.9710 C   0  0  0  0  0  1  0  0  0  0  0  0
  185.9950  179.0030  138.1640 O   0  0  0  0  0  0  0  0  0  0  0  0
  186.5770  175.8500  136.3680 C   0  0  0  0  0  1  0  0  0  0  0  0
  186.8070  178.7870  139.3130 C   0  0  2  0  0  3  0  0  0  0  0  0
  181.8100  177.8240  141.8580 N   0  0  0  0  0  2  0  0  0  0  0  0
  180.2460  178.0260  138.7330 C   0  0  0  0  0  3  0  0  0  0  0  0
  181.0930  177.3360  139.6140 C   0  0  0  0  0  0  0  0  0  0  0  0
  180.9990  175.9450  139.7180 C   0  0  0  0  0  3  0  0  0  0  0  0
  179.9780  173.8960  139.0540 F   0  0  0  0  0  0  0  0  0  0  0  0
  179.2220  175.9330  138.0730 C   0  0  0  0  0  3  0  0  0  0  0  0
  180.0660  175.2430  138.9500 C   0  0  0  0  0  0  0  0  0  0  0  0
  179.3120  177.3240  137.9650 C   0  0  0  0  0  3  0  0  0  0  0  0
  189.0590  178.9010  138.1830 C   0  0  0  0  0  3  0  0  0  0  0  0
  190.0270  178.1160  137.5850 F   0  0  0  0  0  0  0  0  0  0  0  0
  188.3690  179.5890  137.2010 F   0  0  0  0  0  0  0  0  0  0  0  0
  1 35  1  6  0  0  0
  1 26  1  0  0  0  0
  2 13  1  0  0  0  0
  2 23  1  0  0  0  0
  2 21  1  0  0  0  0
  3  8  2  0  0  0  0
  3 19  1  0  0  0  0
  5 21  1  0  0  0  0
  5 10  2  0  0  0  0
  6  3  1  1  0  0  0
  7 17  1  0  0  0  0
  7 11  1  0  0  0  0
  8  5  1  0  0  0  0
  9  4  1  6  0  0  0
  9 22  1  0  0  0  0
  9  6  1  0  0  0  0
 11  1  1  0  0  0  0
 12 16  1  0  0  0  0
 12  8  1  0  0  0  0
 14 19  1  0  0  0  0
 15 10  1  0  0  0  0
 16  2  1  0  0  0  0
 17 24  1  0  0  0  0
 17 18  1  1  0  0  0
 18  4  1  0  0  0  0
 19 15  2  0  0  0  0
 20  6  1  0  0  0  0
 20 12  1  1  0  0  0
 22 29  1  6  0  0  0
 22 27  1  0  0  0  0
 25  7  1  0  0  0  0
 26 24  1  6  0  0  0
 26 20  1  0  0  0  0
 27 14  1  0  0  0  0
 28 29  1  0  0  0  0
 29 30  2  0  0  0  0
 32 33  2  0  0  0  0
 33 31  1  0  0  0  0
 33 30  1  0  0  0  0
 34 32  1  0  0  0  0
 34 28  2  0  0  0  0
 36 35  1  0  0  0  0
 37 35  1  0  0  0  0
M  END
>  <MODEL>
6

>  <REMARK>
 VINA RESULT:      -7.6      2.729      6.824
  Name = 
  2 active torsions:
  status: ('A' for Active; 'I' for Inactive)
    1  A    between atoms: C_1  and  C_4
    2  A    between atoms: C_23  and  C_30
                            x       y       z     vdW  Elec       q    Type
                         _______ _______ _______ _____ _____    ______ ____

>  <TORSDO>
F 2

$$$$
=
 OpenBabel11122411463D

 37 43  0  0  1  0  0  0  0  0999 V2000
  185.4030  178.5840  142.4890 C   0  0  2  0  0  3  0  0  0  0  0  0
  182.2600  176.9750  139.5000 C   0  0  0  0  0  0  0  0  0  0  0  0
  185.8190  177.9960  137.6870 C   0  0  0  0  0  0  0  0  0  0  0  0
  188.8910  177.5600  139.8740 O   0  0  0  0  0  0  0  0  0  0  0  0
  183.4590  177.6830  137.3950 C   0  0  0  0  0  0  0  0  0  0  0  0
  186.8010  178.1820  138.8180 C   0  0  2  0  0  3  0  0  0  0  0  0
  187.5760  177.8610  143.3400 N   0  0  0  0  0  0  0  0  0  0  0  0
  184.5540  177.9830  138.1820 C   0  0  0  0  0  0  0  0  0  0  0  0
  188.0020  177.1890  138.8470 C   0  0  1  0  0  3  0  0  0  0  0  0
  183.6420  177.5020  136.0560 N   0  0  0  0  0  0  0  0  0  0  0  0
  186.1870  177.4560  143.1550 C   0  0  0  0  0  2  0  0  0  0  0  0
  184.5100  178.0440  139.5810 N   0  0  0  0  0  0  0  0  0  0  0  0
  182.6800  175.5150  139.4690 C   0  0  0  0  0  1  0  0  0  0  0  0
  187.3860  177.6960  135.7520 C   0  0  0  0  0  2  0  0  0  0  0  0
  184.8950  177.5570  135.5050 C   0  0  0  0  0  3  0  0  0  0  0  0
  183.2780  177.7880  140.3300 C   0  0  0  0  0  2  0  0  0  0  0  0
  188.1780  178.2130  142.0410 C   0  0  1  0  0  3  0  0  0  0  0  0
  188.4030  177.0380  141.0750 C   0  0  0  0  0  2  0  0  0  0  0  0
  186.0210  177.7990  136.3160 C   0  0  0  0  0  0  0  0  0  0  0  0
  185.8840  177.9810  140.0730 C   0  0  2  0  0  3  0  0  0  0  0  0
  182.1210  177.5150  138.0560 C   0  0  0  0  0  2  0  0  0  0  0  0
  188.8160  177.1910  137.5300 C   0  0  2  0  0  3  0  0  0  0  0  0
  180.9090  177.0650  140.1770 C   0  0  0  0  0  1  0  0  0  0  0  0
  187.4980  179.2970  141.4200 O   0  0  0  0  0  0  0  0  0  0  0  0
  188.2960  176.7540  143.9510 C   0  0  0  0  0  1  0  0  0  0  0  0
  186.1230  179.0030  141.1990 C   0  0  2  0  0  3  0  0  0  0  0  0
  188.0750  176.6080  136.4210 N   0  0  0  0  0  2  0  0  0  0  0  0
  190.2730  175.1470  137.2380 C   0  0  0  0  0  3  0  0  0  0  0  0
  190.1250  176.4730  137.6740 C   0  0  0  0  0  0  0  0  0  0  0  0
  191.2100  177.1360  138.2550 C   0  0  0  0  0  3  0  0  0  0  0  0
  193.4850  177.1270  138.9670 F   0  0  0  0  0  0  0  0  0  0  0  0
  192.5810  175.1600  137.9690 C   0  0  0  0  0  3  0  0  0  0  0  0
  192.4370  176.4820  138.4030 C   0  0  0  0  0  0  0  0  0  0  0  0
  191.5000  174.4930  137.3860 C   0  0  0  0  0  3  0  0  0  0  0  0
  185.2330  179.7720  143.4300 C   0  0  0  0  0  3  0  0  0  0  0  0
  183.8990  180.1280  143.5040 F   0  0  0  0  0  0  0  0  0  0  0  0
  185.6800  179.4400  144.6960 F   0  0  0  0  0  0  0  0  0  0  0  0
  1 11  1  0  0  0  0
  1 35  1  1  0  0  0
  2 23  1  0  0  0  0
  2 16  1  0  0  0  0
  3  8  1  0  0  0  0
  4 18  1  0  0  0  0
  5 21  1  0  0  0  0
  5  8  2  0  0  0  0
  6  3  1  6  0  0  0
  6  9  1  0  0  0  0
  6 20  1  0  0  0  0
  7 25  1  0  0  0  0
  8 12  1  0  0  0  0
  9  4  1  1  0  0  0
 10  5  1  0  0  0  0
 11  7  1  0  0  0  0
 12 16  1  0  0  0  0
 13  2  1  0  0  0  0
 14 19  1  0  0  0  0
 14 27  1  0  0  0  0
 15 10  2  0  0  0  0
 15 19  1  0  0  0  0
 17 18  1  6  0  0  0
 17  7  1  0  0  0  0
 19  3  2  0  0  0  0
 20 12  1  6  0  0  0
 20 26  1  0  0  0  0
 21  2  1  0  0  0  0
 22 29  1  1  0  0  0
 22  9  1  0  0  0  0
 24 17  1  0  0  0  0
 26 24  1  1  0  0  0
 26  1  1  0  0  0  0
 27 22  1  0  0  0  0
 28 34  2  0  0  0  0
 28 29  1  0  0  0  0
 29 30  2  0  0  0  0
 30 33  1  0  0  0  0
 32 33  2  0  0  0  0
 33 31  1  0  0  0  0
 34 32  1  0  0  0  0
 35 36  1  0  0  0  0
 35 37  1  0  0  0  0
M  END
>  <MODEL>
7

>  <REMARK>
 VINA RESULT:      -6.8      2.939      6.667
  Name = 
  2 active torsions:
  status: ('A' for Active; 'I' for Inactive)
    1  A    between atoms: C_1  and  C_4
    2  A    between atoms: C_23  and  C_30
                            x       y       z     vdW  Elec       q    Type
                         _______ _______ _______ _____ _____    ______ ____

>  <TORSDO>
F 2

$$$$
=
 OpenBabel11122411463D

 37 43  0  0  1  0  0  0  0  0999 V2000
  191.1540  176.8510  139.1880 C   0  0  2  0  0  3  0  0  0  0  0  0
  189.2480  176.9290  143.4030 C   0  0  0  0  0  0  0  0  0  0  0  0
  186.7990  178.5440  140.5070 C   0  0  0  0  0  0  0  0  0  0  0  0
  187.2220  177.0310  137.0520 O   0  0  0  0  0  0  0  0  0  0  0  0
  187.3460  178.4890  142.8420 C   0  0  0  0  0  0  0  0  0  0  0  0
  187.4250  178.1480  139.1920 C   0  0  2  0  0  3  0  0  0  0  0  0
  190.7100  175.7370  137.0600 N   0  0  0  0  0  0  0  0  0  0  0  0
  187.6930  178.3490  141.5120 C   0  0  0  0  0  0  0  0  0  0  0  0
  186.5690  177.2130  138.2860 C   0  0  1  0  0  3  0  0  0  0  0  0
  186.0980  178.9430  143.1520 N   0  0  0  0  0  0  0  0  0  0  0  0
  190.9290  175.5150  138.4850 C   0  0  0  0  0  2  0  0  0  0  0  0
  188.8850  177.7560  141.0800 N   0  0  0  0  0  0  0  0  0  0  0  0
  188.4530  175.6360  143.3330 C   0  0  0  0  0  1  0  0  0  0  0  0
  184.4740  179.1200  139.7630 C   0  0  0  0  0  2  0  0  0  0  0  0
  185.1800  179.2020  142.1680 C   0  0  0  0  0  3  0  0  0  0  0  0
  189.8740  177.2260  142.0220 C   0  0  0  0  0  2  0  0  0  0  0  0
  189.5540  176.6300  136.8590 C   0  0  1  0  0  3  0  0  0  0  0  0
  188.1840  176.0300  137.2160 C   0  0  0  0  0  2  0  0  0  0  0  0
  185.5110  178.9990  140.8140 C   0  0  0  0  0  0  0  0  0  0  0  0
  188.7290  177.4210  139.6660 C   0  0  2  0  0  3  0  0  0  0  0  0
  188.3390  178.0820  143.8920 C   0  0  0  0  0  2  0  0  0  0  0  0
  185.1710  177.7960  137.9690 C   0  0  2  0  0  3  0  0  0  0  0  0
  190.3680  176.7440  144.4050 C   0  0  0  0  0  1  0  0  0  0  0  0
  189.7570  177.9020  137.4610 O   0  0  0  0  0  0  0  0  0  0  0  0
  190.4720  174.4480  136.4280 C   0  0  0  0  0  1  0  0  0  0  0  0
  189.9880  177.7940  138.8610 C   0  0  2  0  0  3  0  0  0  0  0  0
  184.3050  177.8220  139.1380 N   0  0  0  0  0  2  0  0  0  0  0  0
  184.9470  175.7900  136.4480 C   0  0  0  0  0  3  0  0  0  0  0  0
  184.4820  177.0460  136.8680 C   0  0  0  0  0  0  0  0  0  0  0  0
  183.3630  177.6120  136.2490 C   0  0  0  0  0  3  0  0  0  0  0  0
  181.6280  177.4830  134.6200 F   0  0  0  0  0  0  0  0  0  0  0  0
  183.1760  175.6800  134.8010 C   0  0  0  0  0  3  0  0  0  0  0  0
  182.7110  176.9310  135.2170 C   0  0  0  0  0  0  0  0  0  0  0  0
  184.2940  175.1100  135.4160 C   0  0  0  0  0  3  0  0  0  0  0  0
  192.4880  177.4720  138.7850 C   0  0  0  0  0  3  0  0  0  0  0  0
  193.2340  177.7600  139.9130 F   0  0  0  0  0  0  0  0  0  0  0  0
  193.1980  176.5910  137.9900 F   0  0  0  0  0  0  0  0  0  0  0  0
  1 35  1  6  0  0  0
  2 21  1  0  0  0  0
  2 23  1  0  0  0  0
  3 19  2  0  0  0  0
  3  8  1  0  0  0  0
  4 18  1  0  0  0  0
  5 10  1  0  0  0  0
  5 21  1  0  0  0  0
  6 20  1  0  0  0  0
  6  3  1  1  0  0  0
  7 11  1  0  0  0  0
  8  5  2  0  0  0  0
  9  4  1  6  0  0  0
  9  6  1  0  0  0  0
 11  1  1  0  0  0  0
 12  8  1  0  0  0  0
 12 16  1  0  0  0  0
 13  2  1  0  0  0  0
 14 19  1  0  0  0  0
 15 10  2  0  0  0  0
 16  2  1  0  0  0  0
 17  7  1  0  0  0  0
 17 18  1  1  0  0  0
 17 24  1  0  0  0  0
 19 15  1  0  0  0  0
 20 12  1  1  0  0  0
 22 29  1  6  0  0  0
 22  9  1  0  0  0  0
 22 27  1  0  0  0  0
 25  7  1  0  0  0  0
 26 24  1  6  0  0  0
 26  1  1  0  0  0  0
 26 20  1  0  0  0  0
 27 14  1  0  0  0  0
 28 29  1  0  0  0  0
 30 29  2  0  0  0  0
 31 33  1  0  0  0  0
 32 33  2  0  0  0  0
 32 34  1  0  0  0  0
 33 30  1  0  0  0  0
 34 28  2  0  0  0  0
 35 36  1  0  0  0  0
 37 35  1  0  0  0  0
M  END
>  <MODEL>
8

>  <REMARK>
 VINA RESULT:      -6.7      3.421      8.259
  Name = 
  2 active torsions:
  status: ('A' for Active; 'I' for Inactive)
    1  A    between atoms: C_1  and  C_4
    2  A    between atoms: C_23  and  C_30
                            x       y       z     vdW  Elec       q    Type
                         _______ _______ _______ _____ _____    ______ ____

>  <TORSDO>
F 2

$$$$
=
 OpenBabel11122411463D

 37 43  0  0  1  0  0  0  0  0999 V2000
  183.0080  177.9710  136.8210 C   0  0  2  0  0  3  0  0  0  0  0  0
  180.4050  181.7420  137.4590 C   0  0  0  0  0  0  0  0  0  0  0  0
  180.8420  179.4980  140.8890 C   0  0  0  0  0  0  0  0  0  0  0  0
  184.1280  177.6160  141.1420 O   0  0  0  0  0  0  0  0  0  0  0  0
  179.4860  181.0920  139.7170 C   0  0  0  0  0  0  0  0  0  0  0  0
  181.9510  178.5200  140.5850 C   0  0  2  0  0  3  0  0  0  0  0  0
  185.1750  177.1580  137.6020 N   0  0  0  0  0  0  0  0  0  0  0  0
  180.3980  180.0550  139.7320 C   0  0  0  0  0  0  0  0  0  0  0  0
  183.2390  178.6630  141.4500 C   0  0  1  0  0  3  0  0  0  0  0  0
  178.9310  181.4960  140.8960 N   0  0  0  0  0  0  0  0  0  0  0  0
  184.4980  178.2770  136.9560 C   0  0  0  0  0  2  0  0  0  0  0  0
  181.1380  179.6570  138.6110 N   0  0  0  0  0  0  0  0  0  0  0  0
  181.4770  182.6940  137.9640 C   0  0  0  0  0  1  0  0  0  0  0  0
  180.8170  179.4110  143.3960 C   0  0  0  0  0  2  0  0  0  0  0  0
  179.3100  180.9260  142.0830 C   0  0  0  0  0  3  0  0  0  0  0  0
  181.0000  180.3240  137.3150 C   0  0  0  0  0  2  0  0  0  0  0  0
  184.5760  176.8980  138.9240 C   0  0  1  0  0  3  0  0  0  0  0  0
  184.8350  177.9750  139.9900 C   0  0  0  0  0  2  0  0  0  0  0  0
  180.2880  179.9120  142.1060 C   0  0  0  0  0  0  0  0  0  0  0  0
  182.2530  178.8390  139.0810 C   0  0  2  0  0  3  0  0  0  0  0  0
  179.1860  181.7690  138.4110 C   0  0  0  0  0  2  0  0  0  0  0  0
  182.9570  178.5750  142.9690 C   0  0  2  0  0  3  0  0  0  0  0  0
  179.9570  182.2150  136.0930 C   0  0  0  0  0  1  0  0  0  0  0  0
  183.1990  176.5610  138.8240 O   0  0  0  0  0  0  0  0  0  0  0  0
  186.5840  177.4940  137.7380 C   0  0  0  0  0  1  0  0  0  0  0  0
  182.4450  177.5930  138.1980 C   0  0  2  0  0  3  0  0  0  0  0  0
  182.2300  179.7350  143.4650 N   0  0  0  0  0  2  0  0  0  0  0  0
  185.4180  178.0330  143.1540 C   0  0  0  0  0  3  0  0  0  0  0  0
  184.2150  178.4100  143.7690 C   0  0  0  0  0  0  0  0  0  0  0  0
  184.1830  178.6310  145.1500 C   0  0  0  0  0  3  0  0  0  0  0  0
  185.3070  178.6910  147.2510 F   0  0  0  0  0  0  0  0  0  0  0  0
  186.5410  178.1000  145.2990 C   0  0  0  0  0  3  0  0  0  0  0  0
  185.3430  178.4760  145.9140 C   0  0  0  0  0  0  0  0  0  0  0  0
  186.5780  177.8780  143.9190 C   0  0  0  0  0  3  0  0  0  0  0  0
  182.7600  176.8610  135.8050 C   0  0  0  0  0  3  0  0  0  0  0  0
  181.4300  176.8560  135.4270 F   0  0  0  0  0  0  0  0  0  0  0  0
  183.5450  177.0610  134.6840 F   0  0  0  0  0  0  0  0  0  0  0  0
  1 35  1  6  0  0  0
  1 11  1  0  0  0  0
  1 26  1  0  0  0  0
  2 13  1  0  0  0  0
  2 21  1  0  0  0  0
  3 19  1  0  0  0  0
  5  8  1  0  0  0  0
  5 10  2  0  0  0  0
  6  3  1  1  0  0  0
  6  9  1  0  0  0  0
  7 25  1  0  0  0  0
  7 17  1  0  0  0  0
  8  3  2  0  0  0  0
  9  4  1  6  0  0  0
  9 22  1  0  0  0  0
 10 15  1  0  0  0  0
 11  7  1  0  0  0  0
 12  8  1  0  0  0  0
 14 27  1  0  0  0  0
 15 19  2  0  0  0  0
 16  2  1  0  0  0  0
 16 12  1  0  0  0  0
 17 18  1  1  0  0  0
 18  4  1  0  0  0  0
 19 14  1  0  0  0  0
 20 12  1  6  0  0  0
 20  6  1  0  0  0  0
 21  5  1  0  0  0  0
 22 27  1  0  0  0  0
 22 29  1  1  0  0  0
 23  2  1  0  0  0  0
 24 17  1  0  0  0  0
 26 24  1  1  0  0  0
 26 20  1  0  0  0  0
 28 29  2  0  0  0  0
 28 34  1  0  0  0  0
 29 30  1  0  0  0  0
 30 33  2  0  0  0  0
 32 33  1  0  0  0  0
 33 31  1  0  0  0  0
 34 32  2  0  0  0  0
 36 35  1  0  0  0  0
 37 35  1  0  0  0  0
M  END
>  <MODEL>
9

>  <REMARK>
 VINA RESULT:      -6.6      2.196      5.582
  Name = 
  2 active torsions:
  status: ('A' for Active; 'I' for Inactive)
    1  A    between atoms: C_1  and  C_4
    2  A    between atoms: C_23  and  C_30
                            x       y       z     vdW  Elec       q    Type
                         _______ _______ _______ _____ _____    ______ ____

>  <TORSDO>
F 2

$$$$
