=
 OpenBabel11122411293D

 37 43  0  0  1  0  0  0  0  0999 V2000
  184.3380  174.9760  137.3400 C   0  0  0  0  0  2  0  0  0  0  0  0
  188.7010  177.5350  136.9600 C   0  0  1  0  0  0  0  0  0  0  0  0
  185.1900  178.0080  139.2910 C   0  0  1  0  0  3  0  0  0  0  0  0
  184.3560  173.6030  136.6540 C   0  0  2  0  0  3  0  0  0  0  0  0
  181.7360  177.3800  137.6310 C   0  0  0  0  0  2  0  0  0  0  0  0
  187.7280  178.2530  139.2120 C   0  0  1  0  0  3  0  0  0  0  0  0
  184.1160  178.0550  138.2210 C   0  0  2  0  0  3  0  0  0  0  0  0
  182.0650  174.1090  135.6910 C   0  0  0  0  0  0  0  0  0  0  0  0
  186.3910  178.2740  138.4650 C   0  0  1  0  0  3  0  0  0  0  0  0
  182.8350  177.3320  138.6860 C   0  0  1  0  0  3  0  0  0  0  0  0
  187.5420  177.9300  140.7020 C   0  0  0  0  0  2  0  0  0  0  0  0
  183.4070  173.4730  135.4540 C   0  0  0  0  0  2  0  0  0  0  0  0
  186.2920  177.3040  137.4080 N   0  0  2  0  0  0  0  0  0  0  0  0
  189.3570  176.3350  136.3100 C   0  0  0  0  0  1  0  0  0  0  0  0
  183.8860  178.9660  141.2530 C   0  0  0  0  0  2  0  0  0  0  0  0
  186.4120  178.7830  141.3430 C   0  0  0  0  0  2  0  0  0  0  0  0
  187.2650  177.6810  136.3920 C   0  0  0  0  0  2  0  0  0  0  0  0
  181.9220  175.6050  135.8240 C   0  0  1  0  0  3  0  0  0  0  0  0
  181.3880  175.9630  137.2150 C   0  0  0  0  0  2  0  0  0  0  0  0
  185.1750  179.0030  140.4370 C   0  0  1  0  0  3  0  0  0  0  0  0
  184.8980  177.4680  136.9810 C   0  0  1  0  0  3  0  0  0  0  0  0
  188.7310  177.3360  138.4980 C   0  0  0  0  0  2  0  0  0  0  0  0
  182.2780  177.8360  140.0400 C   0  0  1  0  0  3  0  0  0  0  0  0
  189.4310  178.6770  136.6330 O   0  0  0  0  0  1  0  0  0  0  0  0
  183.2070  176.3570  135.4260 C   0  0  0  0  0  2  0  0  0  0  0  0
  181.0760  173.3980  135.7670 O   0  0  0  0  0  0  0  0  0  0  0  0
  184.4160  176.1510  136.3550 C   0  0  2  0  0  3  0  0  0  0  0  0
  183.1920  177.7460  141.1210 O   0  0  0  0  0  0  0  0  0  0  0  0
  180.3470  179.1580  140.9620 C   0  0  0  0  0  3  0  0  0  0  0  0
  181.3810  179.0570  140.0240 C   0  0  0  0  0  0  0  0  0  0  0  0
  181.5870  180.0960  139.1040 C   0  0  0  0  0  3  0  0  0  0  0  0
  181.0170  182.5100  137.9630 Cl  0  0  0  0  0  0  0  0  0  0  0  0
  179.7220  181.3140  140.0510 C   0  0  0  0  0  3  0  0  0  0  0  0
  180.7570  181.2190  139.1160 C   0  0  0  0  0  0  0  0  0  0  0  0
  179.5180  180.2830  140.9730 C   0  0  0  0  0  3  0  0  0  0  0  0
  183.8750  171.4510  136.8410 C   0  0  0  0  0  1  0  0  0  0  0  0
  184.0690  172.6120  137.5930 O   0  0  0  0  0  0  0  0  0  0  0  0
  2 14  1  6  0  0  0
  2 22  1  0  0  0  0
  3 20  1  0  0  0  0
  4  1  1  0  0  0  0
  4 37  1  0  0  0  0
  5 10  1  0  0  0  0
  6 11  1  0  0  0  0
  7 10  1  0  0  0  0
  7  3  1  0  0  0  0
  8 26  2  0  0  0  0
  8 18  1  0  0  0  0
  9  6  1  0  0  0  0
  9  3  1  0  0  0  0
 10 23  1  0  0  0  0
 11 16  1  0  0  0  0
 12  8  1  0  0  0  0
 12  4  1  0  0  0  0
 13  9  1  0  0  0  0
 17  2  1  0  0  0  0
 17 13  1  0  0  0  0
 18 19  1  0  0  0  0
 19  5  1  0  0  0  0
 20 15  1  0  0  0  0
 20 16  1  0  0  0  0
 21 13  1  0  0  0  0
 21  7  1  0  0  0  0
 22  6  1  0  0  0  0
 23 28  1  0  0  0  0
 24  2  1  0  0  0  0
 25 18  1  0  0  0  0
 25 27  1  0  0  0  0
 27 21  1  0  0  0  0
 27  1  1  0  0  0  0
 28 15  1  0  0  0  0
 29 35  1  0  0  0  0
 30 23  1  0  0  0  0
 30 29  2  0  0  0  0
 31 34  2  0  0  0  0
 31 30  1  0  0  0  0
 32 34  1  0  0  0  0
 33 35  2  0  0  0  0
 34 33  1  0  0  0  0
 36 37  1  0  0  0  0
M  END
>  <MODEL>
1

>  <REMARK>
 VINA RESULT:      -6.6      0.000      0.000
  Name = 
  2 active torsions:
  status: ('A' for Active; 'I' for Inactive)
    1  A    between atoms: C_4  and  O_37
    2  A    between atoms: C_23  and  C_30
                            x       y       z     vdW  Elec       q    Type
                         _______ _______ _______ _____ _____    ______ ____

>  <TORSDO>
F 2

$$$$
=
 OpenBabel11122411293D

 37 43  0  0  1  0  0  0  0  0999 V2000
  180.8420  180.7290  139.0130 C   0  0  0  0  0  2  0  0  0  0  0  0
  180.0430  178.7660  143.6210 C   0  0  1  0  0  0  0  0  0  0  0  0
  183.2650  178.6280  140.8670 C   0  0  1  0  0  3  0  0  0  0  0  0
  179.8180  181.7960  138.6020 C   0  0  2  0  0  3  0  0  0  0  0  0
  182.4840  178.2370  137.0830 C   0  0  0  0  0  2  0  0  0  0  0  0
  182.5820  178.6980  143.3240 C   0  0  1  0  0  3  0  0  0  0  0  0
  182.5810  178.1010  139.6220 C   0  0  2  0  0  3  0  0  0  0  0  0
  179.6880  180.7170  136.3110 C   0  0  0  0  0  0  0  0  0  0  0  0
  182.2580  178.2650  141.8910 C   0  0  1  0  0  3  0  0  0  0  0  0
  183.1490  178.7650  138.3500 C   0  0  1  0  0  3  0  0  0  0  0  0
  183.9130  179.4590  143.4010 C   0  0  0  0  0  2  0  0  0  0  0  0
  178.9310  181.4080  137.4110 C   0  0  0  0  0  2  0  0  0  0  0  0
  181.0370  178.8200  141.3700 N   0  0  2  0  0  0  0  0  0  0  0  0
  178.9310  179.7640  143.8620 C   0  0  0  0  0  1  0  0  0  0  0  0
  185.6920  178.1980  140.2400 C   0  0  0  0  0  2  0  0  0  0  0  0
  185.0460  178.7230  142.6340 C   0  0  0  0  0  2  0  0  0  0  0  0
  179.9470  178.2610  142.1580 C   0  0  0  0  0  2  0  0  0  0  0  0
  180.2700  179.3400  136.5090 C   0  0  1  0  0  3  0  0  0  0  0  0
  181.7960  179.3860  136.3710 C   0  0  0  0  0  2  0  0  0  0  0  0
  184.6060  178.0650  141.3030 C   0  0  1  0  0  3  0  0  0  0  0  0
  181.0630  178.3490  139.9810 C   0  0  1  0  0  3  0  0  0  0  0  0
  181.3970  179.4540  143.9400 C   0  0  0  0  0  2  0  0  0  0  0  0
  184.6870  178.6590  138.2130 C   0  0  1  0  0  3  0  0  0  0  0  0
  179.8680  177.6820  144.4820 O   0  0  0  0  0  1  0  0  0  0  0  0
  179.7710  178.6700  137.8050 C   0  0  0  0  0  2  0  0  0  0  0  0
  179.8230  181.2820  135.2370 O   0  0  0  0  0  0  0  0  0  0  0  0
  180.2440  179.3190  139.1160 C   0  0  2  0  0  3  0  0  0  0  0  0
  185.4130  179.2110  139.2990 O   0  0  0  0  0  0  0  0  0  0  0  0
  186.5080  177.4400  136.9790 C   0  0  0  0  0  3  0  0  0  0  0  0
  185.2570  177.3940  137.6030 C   0  0  0  0  0  0  0  0  0  0  0  0
  184.5630  176.1780  137.6770 C   0  0  0  0  0  3  0  0  0  0  0  0
  184.2400  173.5060  137.2130 Cl  0  0  0  0  0  0  0  0  0  0  0  0
  186.3620  175.0720  136.4930 C   0  0  0  0  0  3  0  0  0  0  0  0
  185.1130  175.0210  137.1200 C   0  0  0  0  0  0  0  0  0  0  0  0
  187.0580  176.2820  136.4220 C   0  0  0  0  0  3  0  0  0  0  0  0
  179.4640  183.9310  138.1390 C   0  0  0  0  0  1  0  0  0  0  0  0
  180.4820  182.9930  138.3280 O   0  0  0  0  0  0  0  0  0  0  0  0
  1 27  1  0  0  0  0
  2 14  1  1  0  0  0
  2 22  1  0  0  0  0
  2 24  1  0  0  0  0
  3 20  1  0  0  0  0
  3  9  1  0  0  0  0
  4  1  1  0  0  0  0
  5 10  1  0  0  0  0
  6 11  1  0  0  0  0
  6 22  1  0  0  0  0
  7 21  1  0  0  0  0
  7  3  1  0  0  0  0
  8 18  1  0  0  0  0
  8 12  1  0  0  0  0
  9  6  1  0  0  0  0
 10  7  1  0  0  0  0
 12  4  1  0  0  0  0
 13  9  1  0  0  0  0
 13 17  1  0  0  0  0
 15 20  1  0  0  0  0
 16 11  1  0  0  0  0
 17  2  1  0  0  0  0
 18 25  1  0  0  0  0
 19 18  1  0  0  0  0
 19  5  1  0  0  0  0
 20 16  1  0  0  0  0
 21 13  1  0  0  0  0
 23 10  1  0  0  0  0
 23 28  1  0  0  0  0
 25 27  1  0  0  0  0
 26  8  2  0  0  0  0
 27 21  1  0  0  0  0
 28 15  1  0  0  0  0
 29 30  1  0  0  0  0
 30 31  2  0  0  0  0
 30 23  1  0  0  0  0
 33 34  2  0  0  0  0
 34 32  1  0  0  0  0
 34 31  1  0  0  0  0
 35 33  1  0  0  0  0
 35 29  2  0  0  0  0
 36 37  1  0  0  0  0
 37  4  1  0  0  0  0
M  END
>  <MODEL>
2

>  <REMARK>
 VINA RESULT:      -6.5      3.272      7.376
  Name = 
  2 active torsions:
  status: ('A' for Active; 'I' for Inactive)
    1  A    between atoms: C_4  and  O_37
    2  A    between atoms: C_23  and  C_30
                            x       y       z     vdW  Elec       q    Type
                         _______ _______ _______ _____ _____    ______ ____

>  <TORSDO>
F 2

$$$$
=
 OpenBabel11122411293D

 37 43  0  0  1  0  0  0  0  0999 V2000
  184.4920  175.6290  137.7020 C   0  0  0  0  0  2  0  0  0  0  0  0
  188.7590  177.8640  139.2920 C   0  0  1  0  0  0  0  0  0  0  0  0
  184.6460  178.3630  140.1960 C   0  0  1  0  0  3  0  0  0  0  0  0
  184.7220  174.3380  136.9040 C   0  0  2  0  0  3  0  0  0  0  0  0
  182.0540  178.1860  137.3100 C   0  0  0  0  0  2  0  0  0  0  0  0
  187.0330  178.4160  141.0950 C   0  0  1  0  0  3  0  0  0  0  0  0
  184.0570  178.6060  138.8200 C   0  0  2  0  0  3  0  0  0  0  0  0
  182.9820  175.1200  135.2330 C   0  0  0  0  0  0  0  0  0  0  0  0
  186.0780  178.6200  139.9150 C   0  0  1  0  0  3  0  0  0  0  0  0
  182.6720  177.9410  138.6820 C   0  0  1  0  0  3  0  0  0  0  0  0
  186.2880  177.9550  142.3570 C   0  0  0  0  0  2  0  0  0  0  0  0
  184.2910  174.4100  135.4320 C   0  0  0  0  0  2  0  0  0  0  0  0
  186.3520  177.7760  138.7830 N   0  0  2  0  0  0  0  0  0  0  0  0
  189.5710  176.6910  138.7850 C   0  0  0  0  0  1  0  0  0  0  0  0
  182.7310  179.2100  141.6400 C   0  0  0  0  0  2  0  0  0  0  0  0
  185.0290  178.8210  142.6350 C   0  0  0  0  0  2  0  0  0  0  0  0
  187.6490  178.1810  138.2560 C   0  0  0  0  0  2  0  0  0  0  0  0
  182.8490  176.6000  135.4920 C   0  0  1  0  0  3  0  0  0  0  0  0
  181.8420  176.8520  136.6190 C   0  0  0  0  0  2  0  0  0  0  0  0
  184.2330  179.2310  141.3720 C   0  0  1  0  0  3  0  0  0  0  0  0
  185.2290  178.0930  137.8940 C   0  0  1  0  0  3  0  0  0  0  0  0
  188.2000  177.5030  140.6940 C   0  0  0  0  0  2  0  0  0  0  0  0
  181.6630  178.3430  139.7850 C   0  0  1  0  0  3  0  0  0  0  0  0
  189.5960  178.9730  139.4060 O   0  0  0  0  0  1  0  0  0  0  0  0
  184.2140  177.2870  135.6970 C   0  0  0  0  0  2  0  0  0  0  0  0
  182.0140  174.4850  134.8470 O   0  0  0  0  0  0  0  0  0  0  0  0
  184.9750  176.8910  136.9730 C   0  0  2  0  0  3  0  0  0  0  0  0
  182.0970  178.0680  141.1070 O   0  0  0  0  0  0  0  0  0  0  0  0
  179.6630  179.7910  140.2640 C   0  0  0  0  0  3  0  0  0  0  0  0
  180.8790  179.6260  139.5920 C   0  0  0  0  0  0  0  0  0  0  0  0
  181.3660  180.6560  138.7750 C   0  0  0  0  0  3  0  0  0  0  0  0
  181.2450  183.1170  137.5990 Cl  0  0  0  0  0  0  0  0  0  0  0  0
  179.4160  181.9950  139.2920 C   0  0  0  0  0  3  0  0  0  0  0  0
  180.6340  181.8360  138.6230 C   0  0  0  0  0  0  0  0  0  0  0  0
  178.9320  180.9720  140.1120 C   0  0  0  0  0  3  0  0  0  0  0  0
  184.4810  172.1390  136.8430 C   0  0  0  0  0  1  0  0  0  0  0  0
  184.0690  173.2790  137.5370 O   0  0  0  0  0  0  0  0  0  0  0  0
  2 14  1  6  0  0  0
  2 24  1  0  0  0  0
  2 22  1  0  0  0  0
  3 20  1  0  0  0  0
  4 37  1  0  0  0  0
  4  1  1  0  0  0  0
  5 10  1  0  0  0  0
  6 11  1  0  0  0  0
  7  3  1  0  0  0  0
  8 12  1  0  0  0  0
  8 18  1  0  0  0  0
  9  3  1  0  0  0  0
  9  6  1  0  0  0  0
 10  7  1  0  0  0  0
 10 23  1  0  0  0  0
 11 16  1  0  0  0  0
 12  4  1  0  0  0  0
 13  9  1  0  0  0  0
 17 13  1  0  0  0  0
 17  2  1  0  0  0  0
 18 25  1  0  0  0  0
 18 19  1  0  0  0  0
 19  5  1  0  0  0  0
 20 15  1  0  0  0  0
 20 16  1  0  0  0  0
 21 13  1  0  0  0  0
 21  7  1  0  0  0  0
 22  6  1  0  0  0  0
 23 28  1  0  0  0  0
 25 27  1  0  0  0  0
 26  8  2  0  0  0  0
 27  1  1  0  0  0  0
 27 21  1  0  0  0  0
 28 15  1  0  0  0  0
 30 23  1  0  0  0  0
 30 29  2  0  0  0  0
 31 30  1  0  0  0  0
 32 34  1  0  0  0  0
 33 35  2  0  0  0  0
 34 31  2  0  0  0  0
 34 33  1  0  0  0  0
 35 29  1  0  0  0  0
 36 37  1  0  0  0  0
M  END
>  <MODEL>
3

>  <REMARK>
 VINA RESULT:      -5.9      1.201      1.444
  Name = 
  2 active torsions:
  status: ('A' for Active; 'I' for Inactive)
    1  A    between atoms: C_4  and  O_37
    2  A    between atoms: C_23  and  C_30
                            x       y       z     vdW  Elec       q    Type
                         _______ _______ _______ _____ _____    ______ ____

>  <TORSDO>
F 2

$$$$
=
 OpenBabel11122411293D

 37 43  0  0  1  0  0  0  0  0999 V2000
  182.3810  180.1540  138.8710 C   0  0  0  0  0  2  0  0  0  0  0  0
  183.5070  178.9780  143.6740 C   0  0  1  0  0  0  0  0  0  0  0  0
  185.4330  178.3520  139.9480 C   0  0  1  0  0  3  0  0  0  0  0  0
  181.2250  181.1530  138.7260 C   0  0  2  0  0  3  0  0  0  0  0  0
  183.2850  177.3590  136.8690 C   0  0  0  0  0  2  0  0  0  0  0  0
  185.7390  178.8300  142.4360 C   0  0  1  0  0  3  0  0  0  0  0  0
  184.3520  177.6370  139.1610 C   0  0  2  0  0  3  0  0  0  0  0  0
  180.2830  179.7170  136.8600 C   0  0  0  0  0  0  0  0  0  0  0  0
  184.9140  178.1730  141.3240 C   0  0  1  0  0  3  0  0  0  0  0  0
  184.3560  178.0780  137.6830 C   0  0  1  0  0  3  0  0  0  0  0  0
  186.9580  179.5760  141.8740 C   0  0  0  0  0  2  0  0  0  0  0  0
  179.9700  180.5870  138.0450 C   0  0  0  0  0  2  0  0  0  0  0  0
  183.5600  178.6510  141.2350 N   0  0  2  0  0  0  0  0  0  0  0  0
  182.5220  180.0160  144.1680 C   0  0  0  0  0  1  0  0  0  0  0  0
  187.4540  177.7940  138.5080 C   0  0  0  0  0  2  0  0  0  0  0  0
  187.7470  178.7100  140.8530 C   0  0  0  0  0  2  0  0  0  0  0  0
  182.8840  178.2430  142.4590 C   0  0  0  0  0  2  0  0  0  0  0  0
  180.9660  178.3830  137.0300 C   0  0  1  0  0  3  0  0  0  0  0  0
  182.3180  178.3860  136.3090 C   0  0  0  0  0  2  0  0  0  0  0  0
  186.8650  177.8500  139.9150 C   0  0  1  0  0  3  0  0  0  0  0  0
  183.0770  177.9600  140.0350 C   0  0  1  0  0  3  0  0  0  0  0  0
  184.8430  179.6910  143.3360 C   0  0  0  0  0  2  0  0  0  0  0  0
  185.7270  177.9320  136.9810 C   0  0  1  0  0  3  0  0  0  0  0  0
  183.7300  178.0510  144.6920 O   0  0  0  0  0  1  0  0  0  0  0  0
  181.0350  177.9400  138.5040 C   0  0  0  0  0  2  0  0  0  0  0  0
  179.9680  180.0970  135.7440 O   0  0  0  0  0  0  0  0  0  0  0  0
  181.9410  178.7870  139.4140 C   0  0  2  0  0  3  0  0  0  0  0  0
  186.7850  178.6440  137.6030 O   0  0  0  0  0  0  0  0  0  0  0  0
  186.6820  176.5090  135.1390 C   0  0  0  0  0  3  0  0  0  0  0  0
  186.0840  176.5770  136.4020 C   0  0  0  0  0  0  0  0  0  0  0  0
  185.8500  175.3970  137.1230 C   0  0  0  0  0  3  0  0  0  0  0  0
  185.9000  172.6900  137.4790 Cl  0  0  0  0  0  0  0  0  0  0  0  0
  186.7910  174.0960  135.3110 C   0  0  0  0  0  3  0  0  0  0  0  0
  186.1990  174.1600  136.5770 C   0  0  0  0  0  0  0  0  0  0  0  0
  187.0320  175.2710  134.5940 C   0  0  0  0  0  3  0  0  0  0  0  0
  180.5200  183.0400  137.8100 C   0  0  0  0  0  1  0  0  0  0  0  0
  181.6700  182.2810  138.0350 O   0  0  0  0  0  0  0  0  0  0  0  0
  1 27  1  0  0  0  0
  2 14  1  1  0  0  0
  2 24  1  0  0  0  0
  3  9  1  0  0  0  0
  4  1  1  0  0  0  0
  5 10  1  0  0  0  0
  6 22  1  0  0  0  0
  7  3  1  0  0  0  0
  7 21  1  0  0  0  0
  8 18  1  0  0  0  0
  8 12  1  0  0  0  0
  9  6  1  0  0  0  0
 10  7  1  0  0  0  0
 11  6  1  0  0  0  0
 12  4  1  0  0  0  0
 13  9  1  0  0  0  0
 13 17  1  0  0  0  0
 15 20  1  0  0  0  0
 16 11  1  0  0  0  0
 17  2  1  0  0  0  0
 18 25  1  0  0  0  0
 19  5  1  0  0  0  0
 19 18  1  0  0  0  0
 20  3  1  0  0  0  0
 20 16  1  0  0  0  0
 21 13  1  0  0  0  0
 22  2  1  0  0  0  0
 23 28  1  0  0  0  0
 23 10  1  0  0  0  0
 25 27  1  0  0  0  0
 26  8  2  0  0  0  0
 27 21  1  0  0  0  0
 28 15  1  0  0  0  0
 29 30  1  0  0  0  0
 30 23  1  0  0  0  0
 30 31  2  0  0  0  0
 33 34  2  0  0  0  0
 34 31  1  0  0  0  0
 34 32  1  0  0  0  0
 35 29  2  0  0  0  0
 35 33  1  0  0  0  0
 36 37  1  0  0  0  0
 37  4  1  0  0  0  0
M  END
>  <MODEL>
4

>  <REMARK>
 VINA RESULT:      -4.3      3.139      6.823
  Name = 
  2 active torsions:
  status: ('A' for Active; 'I' for Inactive)
    1  A    between atoms: C_4  and  O_37
    2  A    between atoms: C_23  and  C_30
                            x       y       z     vdW  Elec       q    Type
                         _______ _______ _______ _____ _____    ______ ____

>  <TORSDO>
F 2

$$$$
=
 OpenBabel11122411293D

 37 43  0  0  1  0  0  0  0  0999 V2000
  188.5510  176.6200  140.5410 C   0  0  0  0  0  2  0  0  0  0  0  0
  184.5970  177.3720  137.4540 C   0  0  1  0  0  0  0  0  0  0  0  0
  188.2260  175.2000  137.1350 C   0  0  1  0  0  3  0  0  0  0  0  0
  188.3060  177.0640  141.9900 C   0  0  2  0  0  3  0  0  0  0  0  0
  191.4850  176.7750  138.5400 C   0  0  0  0  0  2  0  0  0  0  0  0
  185.7490  175.2860  136.5270 C   0  0  1  0  0  3  0  0  0  0  0  0
  189.2530  176.2760  137.4280 C   0  0  2  0  0  3  0  0  0  0  0  0
  190.6080  178.1280  142.0000 C   0  0  0  0  0  0  0  0  0  0  0  0
  187.0460  176.0430  136.8320 C   0  0  1  0  0  3  0  0  0  0  0  0
  190.4320  175.7120  138.2480 C   0  0  1  0  0  3  0  0  0  0  0  0
  185.9430  173.7650  136.6230 C   0  0  0  0  0  2  0  0  0  0  0  0
  189.1800  178.2360  142.4580 C   0  0  0  0  0  2  0  0  0  0  0  0
  186.9620  176.9220  137.9670 N   0  0  2  0  0  0  0  0  0  0  0  0
  183.7490  177.8000  138.6320 C   0  0  0  0  0  1  0  0  0  0  0  0
  189.7300  173.4460  136.0720 C   0  0  0  0  0  2  0  0  0  0  0  0
  187.2090  173.2930  135.8570 C   0  0  0  0  0  2  0  0  0  0  0  0
  186.0160  177.9740  137.6210 C   0  0  0  0  0  2  0  0  0  0  0  0
  190.9730  178.2520  140.5420 C   0  0  1  0  0  3  0  0  0  0  0  0
  191.6070  176.9490  140.0430 C   0  0  0  0  0  2  0  0  0  0  0  0
  188.4300  174.2390  135.9780 C   0  0  1  0  0  3  0  0  0  0  0  0
  188.3480  177.3890  138.0870 C   0  0  1  0  0  3  0  0  0  0  0  0
  184.5970  175.8210  137.3880 C   0  0  0  0  0  2  0  0  0  0  0  0
  191.1080  174.4710  137.6160 C   0  0  1  0  0  3  0  0  0  0  0  0
  184.0300  177.8780  136.2850 O   0  0  0  0  0  1  0  0  0  0  0  0
  189.7970  178.7550  139.6820 C   0  0  0  0  0  2  0  0  0  0  0  0
  191.4850  177.9460  142.8290 O   0  0  0  0  0  0  0  0  0  0  0  0
  188.6080  177.7890  139.5470 C   0  0  2  0  0  3  0  0  0  0  0  0
  190.2330  173.3780  137.3880 O   0  0  0  0  0  0  0  0  0  0  0  0
  191.9480  175.6610  135.5660 C   0  0  0  0  0  3  0  0  0  0  0  0
  192.1720  174.7060  136.5630 C   0  0  0  0  0  0  0  0  0  0  0  0
  193.3840  174.0010  136.5890 C   0  0  0  0  0  3  0  0  0  0  0  0
  195.8670  173.3570  135.6510 Cl  0  0  0  0  0  0  0  0  0  0  0  0
  194.1270  175.1950  134.6180 C   0  0  0  0  0  3  0  0  0  0  0  0
  194.3580  174.2430  135.6160 C   0  0  0  0  0  0  0  0  0  0  0  0
  192.9220  175.9030  134.5940 C   0  0  0  0  0  3  0  0  0  0  0  0
  187.9910  176.4040  144.0780 C   0  0  0  0  0  1  0  0  0  0  0  0
  188.4810  175.9740  142.8440 O   0  0  0  0  0  0  0  0  0  0  0  0
  1  4  1  0  0  0  0
  2 17  1  0  0  0  0
  2 14  1  1  0  0  0
  3  7  1  0  0  0  0
  4 12  1  0  0  0  0
  4 37  1  0  0  0  0
  5 19  1  0  0  0  0
  6 11  1  0  0  0  0
  6  9  1  0  0  0  0
  6 22  1  0  0  0  0
  7 21  1  0  0  0  0
  7 10  1  0  0  0  0
  8 12  1  0  0  0  0
  8 26  2  0  0  0  0
  9  3  1  0  0  0  0
  9 13  1  0  0  0  0
 10  5  1  0  0  0  0
 13 21  1  0  0  0  0
 15 28  1  0  0  0  0
 16 20  1  0  0  0  0
 16 11  1  0  0  0  0
 17 13  1  0  0  0  0
 18  8  1  0  0  0  0
 19 18  1  0  0  0  0
 20 15  1  0  0  0  0
 20  3  1  0  0  0  0
 21 27  1  0  0  0  0
 22  2  1  0  0  0  0
 23 10  1  0  0  0  0
 24  2  1  0  0  0  0
 25 18  1  0  0  0  0
 27 25  1  0  0  0  0
 27  1  1  0  0  0  0
 28 23  1  0  0  0  0
 29 30  1  0  0  0  0
 30 31  2  0  0  0  0
 30 23  1  0  0  0  0
 33 34  2  0  0  0  0
 34 32  1  0  0  0  0
 34 31  1  0  0  0  0
 35 33  1  0  0  0  0
 35 29  2  0  0  0  0
 37 36  1  0  0  0  0
M  END
>  <MODEL>
5

>  <REMARK>
 VINA RESULT:      -4.2      4.276      9.487
  Name = 
  2 active torsions:
  status: ('A' for Active; 'I' for Inactive)
    1  A    between atoms: C_4  and  O_37
    2  A    between atoms: C_23  and  C_30
                            x       y       z     vdW  Elec       q    Type
                         _______ _______ _______ _____ _____    ______ ____

>  <TORSDO>
F 2

$$$$
=
 OpenBabel11122411293D

 37 43  0  0  1  0  0  0  0  0999 V2000
  184.2510  177.0870  139.8250 C   0  0  0  0  0  2  0  0  0  0  0  0
  188.3090  178.8680  137.3570 C   0  0  1  0  0  0  0  0  0  0  0  0
  187.5890  177.6130  141.3440 C   0  0  1  0  0  3  0  0  0  0  0  0
  183.0890  176.6830  138.9080 C   0  0  2  0  0  3  0  0  0  0  0  0
  184.2380  178.5950  143.0440 C   0  0  0  0  0  2  0  0  0  0  0  0
  189.2700  177.7150  139.4270 C   0  0  1  0  0  3  0  0  0  0  0  0
  186.4160  178.4920  141.7340 C   0  0  2  0  0  3  0  0  0  0  0  0
  181.4930  177.8450  140.5000 C   0  0  0  0  0  0  0  0  0  0  0  0
  188.0800  178.3490  140.1550 C   0  0  1  0  0  3  0  0  0  0  0  0
  185.4190  177.7240  142.6270 C   0  0  1  0  0  3  0  0  0  0  0  0
  189.7060  176.4000  140.0890 C   0  0  0  0  0  2  0  0  0  0  0  0
  181.8210  177.5340  139.0660 C   0  0  0  0  0  2  0  0  0  0  0  0
  186.9020  178.4940  139.3420 N   0  0  2  0  0  0  0  0  0  0  0  0
  187.6640  178.5220  136.0320 C   0  0  0  0  0  1  0  0  0  0  0  0
  188.3440  176.8520  143.6500 C   0  0  0  0  0  2  0  0  0  0  0  0
  189.8420  176.5440  141.6300 C   0  0  0  0  0  2  0  0  0  0  0  0
  187.2230  179.4560  138.2970 C   0  0  0  0  0  2  0  0  0  0  0  0
  182.3750  178.7480  141.3250 C   0  0  1  0  0  3  0  0  0  0  0  0
  182.9580  177.9770  142.5140 C   0  0  0  0  0  2  0  0  0  0  0  0
  188.7550  177.4230  142.2960 C   0  0  1  0  0  3  0  0  0  0  0  0
  185.9230  178.9870  140.3180 C   0  0  1  0  0  3  0  0  0  0  0  0
  188.9790  177.5890  137.9250 C   0  0  0  0  0  2  0  0  0  0  0  0
  186.0570  177.0790  143.8810 C   0  0  1  0  0  3  0  0  0  0  0  0
  189.2870  179.8380  137.1410 O   0  0  0  0  0  1  0  0  0  0  0  0
  183.4260  179.4850  140.4710 C   0  0  0  0  0  2  0  0  0  0  0  0
  180.4890  177.3610  140.9980 O   0  0  0  0  0  0  0  0  0  0  0  0
  184.5160  178.5990  139.8430 C   0  0  2  0  0  3  0  0  0  0  0  0
  187.1100  176.1700  143.6020 O   0  0  0  0  0  0  0  0  0  0  0  0
  185.4220  179.0770  145.2700 C   0  0  0  0  0  3  0  0  0  0  0  0
  186.2310  177.9470  145.1110 C   0  0  0  0  0  0  0  0  0  0  0  0
  187.1700  177.6210  146.1010 C   0  0  0  0  0  3  0  0  0  0  0  0
  188.4800  178.0170  148.4630 Cl  0  0  0  0  0  0  0  0  0  0  0  0
  186.4970  179.5590  147.3860 C   0  0  0  0  0  3  0  0  0  0  0  0
  187.3040  178.4270  147.2330 C   0  0  0  0  0  0  0  0  0  0  0  0
  185.5560  179.8830  146.4050 C   0  0  0  0  0  3  0  0  0  0  0  0
  183.2950  174.6780  137.9930 C   0  0  0  0  0  1  0  0  0  0  0  0
  182.7830  175.3370  139.1130 O   0  0  0  0  0  0  0  0  0  0  0  0
  1 27  1  0  0  0  0
  2 14  1  6  0  0  0
  2 22  1  0  0  0  0
  2 17  1  0  0  0  0
  3  7  1  0  0  0  0
  3 20  1  0  0  0  0
  4 12  1  0  0  0  0
  4 37  1  0  0  0  0
  4  1  1  0  0  0  0
  6 11  1  0  0  0  0
  6  9  1  0  0  0  0
  7 10  1  0  0  0  0
  8 26  2  0  0  0  0
  8 18  1  0  0  0  0
  9  3  1  0  0  0  0
 10  5  1  0  0  0  0
 10 23  1  0  0  0  0
 11 16  1  0  0  0  0
 12  8  1  0  0  0  0
 13  9  1  0  0  0  0
 13 21  1  0  0  0  0
 16 20  1  0  0  0  0
 17 13  1  0  0  0  0
 18 19  1  0  0  0  0
 19  5  1  0  0  0  0
 20 15  1  0  0  0  0
 21  7  1  0  0  0  0
 22  6  1  0  0  0  0
 23 30  1  0  0  0  0
 24  2  1  0  0  0  0
 25 18  1  0  0  0  0
 27 21  1  0  0  0  0
 27 25  1  0  0  0  0
 28 15  1  0  0  0  0
 28 23  1  0  0  0  0
 29 35  1  0  0  0  0
 30 29  2  0  0  0  0
 30 31  1  0  0  0  0
 31 34  2  0  0  0  0
 34 33  1  0  0  0  0
 34 32  1  0  0  0  0
 35 33  2  0  0  0  0
 36 37  1  0  0  0  0
M  END
>  <MODEL>
6

>  <REMARK>
 VINA RESULT:      -4.0      3.518      5.708
  Name = 
  2 active torsions:
  status: ('A' for Active; 'I' for Inactive)
    1  A    between atoms: C_4  and  O_37
    2  A    between atoms: C_23  and  C_30
                            x       y       z     vdW  Elec       q    Type
                         _______ _______ _______ _____ _____    ______ ____

>  <TORSDO>
F 2

$$$$
=
 OpenBabel11122411293D

 37 43  0  0  1  0  0  0  0  0999 V2000
  186.6040  176.7040  136.1570 C   0  0  0  0  0  2  0  0  0  0  0  0
  184.9720  171.9090  135.8860 C   0  0  1  0  0  0  0  0  0  0  0  0
  183.0870  175.6360  136.6200 C   0  0  1  0  0  3  0  0  0  0  0  0
  188.0320  176.9090  135.6350 C   0  0  2  0  0  3  0  0  0  0  0  0
  184.8900  178.2410  138.8660 C   0  0  0  0  0  2  0  0  0  0  0  0
  182.8670  173.3240  135.5640 C   0  0  1  0  0  3  0  0  0  0  0  0
  183.8940  176.1620  137.7910 C   0  0  2  0  0  3  0  0  0  0  0  0
  188.5070  178.3720  137.6520 C   0  0  0  0  0  0  0  0  0  0  0  0
  183.4650  174.2040  136.6660 C   0  0  1  0  0  3  0  0  0  0  0  0
  184.0930  177.6890  137.6890 C   0  0  1  0  0  3  0  0  0  0  0  0
  181.9900  174.1370  134.6000 C   0  0  0  0  0  2  0  0  0  0  0  0
  189.0490  177.3410  136.7010 C   0  0  0  0  0  2  0  0  0  0  0  0
  184.9030  174.2390  136.6770 N   0  0  2  0  0  0  0  0  0  0  0  0
  186.2290  171.5150  135.1390 C   0  0  0  0  0  1  0  0  0  0  0  0
  181.0500  177.1510  136.7870 C   0  0  0  0  0  2  0  0  0  0  0  0
  180.9940  175.0570  135.3590 C   0  0  0  0  0  2  0  0  0  0  0  0
  185.3580  172.8980  137.0170 C   0  0  0  0  0  2  0  0  0  0  0  0
  187.4100  178.0320  138.6300 C   0  0  1  0  0  3  0  0  0  0  0  0
  186.1650  178.8770  138.3430 C   0  0  0  0  0  2  0  0  0  0  0  0
  181.5710  175.7250  136.6320 C   0  0  1  0  0  3  0  0  0  0  0  0
  185.1710  175.2360  137.7200 C   0  0  1  0  0  3  0  0  0  0  0  0
  183.9660  172.5100  134.8680 C   0  0  0  0  0  2  0  0  0  0  0  0
  182.7780  178.4900  137.5300 C   0  0  1  0  0  3  0  0  0  0  0  0
  184.4140  170.7670  136.4590 O   0  0  0  0  0  1  0  0  0  0  0  0
  187.1420  176.5160  138.7110 C   0  0  0  0  0  2  0  0  0  0  0  0
  188.9720  179.5000  137.6330 O   0  0  0  0  0  0  0  0  0  0  0  0
  186.5400  175.8770  137.4490 C   0  0  2  0  0  3  0  0  0  0  0  0
  181.9980  178.1220  136.4040 O   0  0  0  0  0  0  0  0  0  0  0  0
  182.1810  178.0610  139.9360 C   0  0  0  0  0  3  0  0  0  0  0  0
  182.0100  178.8440  138.7880 C   0  0  0  0  0  0  0  0  0  0  0  0
  181.1540  179.9540  138.8270 C   0  0  0  0  0  3  0  0  0  0  0  0
  179.3960  181.6540  140.0420 Cl  0  0  0  0  0  0  0  0  0  0  0  0
  180.6350  179.4820  141.1440 C   0  0  0  0  0  3  0  0  0  0  0  0
  180.4660  180.2690  140.0010 C   0  0  0  0  0  0  0  0  0  0  0  0
  181.4930  178.3780  141.1100 C   0  0  0  0  0  3  0  0  0  0  0  0
  186.7190  178.3560  134.5960 C   0  0  0  0  0  1  0  0  0  0  0  0
  188.0160  177.8380  134.5940 O   0  0  0  0  0  0  0  0  0  0  0  0
  1 27  1  0  0  0  0
  2 14  1  6  0  0  0
  2 24  1  0  0  0  0
  2 17  1  0  0  0  0
  3 20  1  0  0  0  0
  3  9  1  0  0  0  0
  3  7  1  0  0  0  0
  4  1  1  0  0  0  0
  4 12  1  0  0  0  0
  6  9  1  0  0  0  0
  8 18  1  0  0  0  0
  9 13  1  0  0  0  0
 10  7  1  0  0  0  0
 10  5  1  0  0  0  0
 11 16  1  0  0  0  0
 11  6  1  0  0  0  0
 12  8  1  0  0  0  0
 13 17  1  0  0  0  0
 13 21  1  0  0  0  0
 16 20  1  0  0  0  0
 18 25  1  0  0  0  0
 19 18  1  0  0  0  0
 19  5  1  0  0  0  0
 20 15  1  0  0  0  0
 21  7  1  0  0  0  0
 22  6  1  0  0  0  0
 22  2  1  0  0  0  0
 23 10  1  0  0  0  0
 23 30  1  0  0  0  0
 26  8  2  0  0  0  0
 27 21  1  0  0  0  0
 27 25  1  0  0  0  0
 28 15  1  0  0  0  0
 28 23  1  0  0  0  0
 29 35  1  0  0  0  0
 30 31  1  0  0  0  0
 30 29  2  0  0  0  0
 31 34  2  0  0  0  0
 34 32  1  0  0  0  0
 34 33  1  0  0  0  0
 35 33  2  0  0  0  0
 37 36  1  0  0  0  0
 37  4  1  0  0  0  0
M  END
>  <MODEL>
7

>  <REMARK>
 VINA RESULT:      -4.0      1.803      5.602
  Name = 
  2 active torsions:
  status: ('A' for Active; 'I' for Inactive)
    1  A    between atoms: C_4  and  O_37
    2  A    between atoms: C_23  and  C_30
                            x       y       z     vdW  Elec       q    Type
                         _______ _______ _______ _____ _____    ______ ____

>  <TORSDO>
F 2

$$$$
=
 OpenBabel11122411293D

 37 43  0  0  1  0  0  0  0  0999 V2000
  184.3530  177.6770  137.8540 C   0  0  0  0  0  2  0  0  0  0  0  0
  180.7340  181.2270  138.0180 C   0  0  1  0  0  0  0  0  0  0  0  0
  180.7420  176.9980  138.3290 C   0  0  1  0  0  3  0  0  0  0  0  0
  185.7800  178.2330  137.9500 C   0  0  2  0  0  3  0  0  0  0  0  0
  183.0580  174.9470  135.9810 C   0  0  0  0  0  2  0  0  0  0  0  0
  179.6740  179.1770  139.1160 C   0  0  1  0  0  3  0  0  0  0  0  0
  181.4400  176.5980  137.0440 C   0  0  2  0  0  3  0  0  0  0  0  0
  186.4640  176.6690  136.0750 C   0  0  0  0  0  0  0  0  0  0  0  0
  180.3750  178.3960  138.0010 C   0  0  1  0  0  3  0  0  0  0  0  0
  182.3570  175.3770  137.2660 C   0  0  1  0  0  3  0  0  0  0  0  0
  179.5100  178.3310  140.3870 C   0  0  0  0  0  2  0  0  0  0  0  0
  186.6340  178.0300  136.6900 C   0  0  0  0  0  2  0  0  0  0  0  0
  181.6190  178.9750  137.5690 N   0  0  2  0  0  0  0  0  0  0  0  0
  181.7760  182.2870  138.3050 C   0  0  0  0  0  1  0  0  0  0  0  0
  179.6870  174.7710  138.9580 C   0  0  0  0  0  2  0  0  0  0  0  0
  178.9390  176.9200  140.0750 C   0  0  0  0  0  2  0  0  0  0  0  0
  181.2990  180.2540  136.9500 C   0  0  0  0  0  2  0  0  0  0  0  0
  185.1620  176.2600  135.4320 C   0  0  1  0  0  3  0  0  0  0  0  0
  184.5580  175.0630  136.1750 C   0  0  0  0  0  2  0  0  0  0  0  0
  179.4860  176.2730  138.7780 C   0  0  1  0  0  3  0  0  0  0  0  0
  182.1060  177.9660  136.6210 C   0  0  1  0  0  3  0  0  0  0  0  0
  180.3710  180.5240  139.3520 C   0  0  0  0  0  2  0  0  0  0  0  0
  181.6470  174.1580  137.9020 C   0  0  1  0  0  3  0  0  0  0  0  0
  179.5960  181.8450  137.5020 O   0  0  0  0  0  1  0  0  0  0  0  0
  184.1950  177.4470  135.2520 C   0  0  0  0  0  2  0  0  0  0  0  0
  187.4020  175.8880  136.0910 O   0  0  0  0  0  0  0  0  0  0  0  0
  183.6370  178.0560  136.5500 C   0  0  2  0  0  3  0  0  0  0  0  0
  181.0380  174.4210  139.1560 O   0  0  0  0  0  0  0  0  0  0  0  0
  179.6340  173.5860  136.5070 C   0  0  0  0  0  3  0  0  0  0  0  0
  180.8980  173.2160  136.9810 C   0  0  0  0  0  0  0  0  0  0  0  0
  181.4600  171.9970  136.5770 C   0  0  0  0  0  3  0  0  0  0  0  0
  181.4640  169.6280  135.2180 Cl  0  0  0  0  0  0  0  0  0  0  0  0
  179.4930  171.5210  135.2490 C   0  0  0  0  0  3  0  0  0  0  0  0
  180.7580  171.1500  135.7160 C   0  0  0  0  0  0  0  0  0  0  0  0
  178.9320  172.7380  135.6450 C   0  0  0  0  0  3  0  0  0  0  0  0
  187.7150  178.2010  139.0230 C   0  0  0  0  0  1  0  0  0  0  0  0
  186.4230  177.6710  139.0540 O   0  0  0  0  0  0  0  0  0  0  0  0
  1  4  1  0  0  0  0
  2 14  1  1  0  0  0
  2 22  1  0  0  0  0
  3 20  1  0  0  0  0
  4 37  1  0  0  0  0
  5 19  1  0  0  0  0
  5 10  1  0  0  0  0
  6 22  1  0  0  0  0
  6 11  1  0  0  0  0
  7 10  1  0  0  0  0
  7  3  1  0  0  0  0
  8 26  2  0  0  0  0
  8 12  1  0  0  0  0
  9  3  1  0  0  0  0
  9  6  1  0  0  0  0
 10 23  1  0  0  0  0
 12  4  1  0  0  0  0
 13  9  1  0  0  0  0
 15 28  1  0  0  0  0
 16 11  1  0  0  0  0
 17 13  1  0  0  0  0
 17  2  1  0  0  0  0
 18  8  1  0  0  0  0
 18 19  1  0  0  0  0
 20 15  1  0  0  0  0
 20 16  1  0  0  0  0
 21  7  1  0  0  0  0
 21 13  1  0  0  0  0
 23 28  1  0  0  0  0
 24  2  1  0  0  0  0
 25 18  1  0  0  0  0
 25 27  1  0  0  0  0
 27 21  1  0  0  0  0
 27  1  1  0  0  0  0
 29 30  1  0  0  0  0
 30 23  1  0  0  0  0
 31 30  2  0  0  0  0
 32 34  1  0  0  0  0
 33 35  1  0  0  0  0
 33 34  2  0  0  0  0
 34 31  1  0  0  0  0
 35 29  2  0  0  0  0
 36 37  1  0  0  0  0
M  END
>  <MODEL>
8

>  <REMARK>
 VINA RESULT:      -3.8      3.257      6.898
  Name = 
  2 active torsions:
  status: ('A' for Active; 'I' for Inactive)
    1  A    between atoms: C_4  and  O_37
    2  A    between atoms: C_23  and  C_30
                            x       y       z     vdW  Elec       q    Type
                         _______ _______ _______ _____ _____    ______ ____

>  <TORSDO>
F 2

$$$$
