=
 OpenBabel11122411203D

 37 44  0  0  1  0  0  0  0  0999 V2000
  187.1620  177.4570  139.8080 C   0  0  0  0  0  2  0  0  0  0  0  0
  190.2410  177.4110  143.2100 C   0  0  0  0  0  0  0  0  0  0  0  0
  186.2540  178.1180  144.3100 C   0  0  0  0  0  0  0  0  0  0  0  0
  187.5710  177.8660  138.3890 C   0  0  2  0  0  3  0  0  0  0  0  0
  183.6460  178.4530  141.5000 O   0  0  0  0  0  0  0  0  0  0  0  0
  188.5360  177.7490  145.0350 C   0  0  0  0  0  0  0  0  0  0  0  0
  185.6300  178.3400  143.0820 C   0  0  0  0  0  0  0  0  0  0  0  0
  185.1040  178.2010  138.0700 C   0  0  0  0  0  0  0  0  0  0  0  0
  187.5880  177.9570  144.0580 C   0  0  0  0  0  0  0  0  0  0  0  0
  184.1410  178.5150  142.8210 C   0  0  0  0  0  0  0  0  0  0  0  0
  188.1140  177.7130  146.3690 C   0  0  0  0  0  3  0  0  0  0  0  0
  186.4730  178.6250  137.6390 C   0  0  0  0  0  2  0  0  0  0  0  0
  187.8840  178.0830  142.7730 N   0  0  0  0  0  0  0  0  0  0  0  0
  190.1970  175.9290  142.8850 C   0  0  0  0  0  1  0  0  0  0  0  0
  184.4270  178.3810  146.0250 C   0  0  0  0  0  3  0  0  0  0  0  0
  186.7440  177.8930  146.6600 C   0  0  0  0  0  3  0  0  0  0  0  0
  189.2600  178.1600  142.2710 C   0  0  0  0  0  2  0  0  0  0  0  0
  184.4370  178.8920  139.2210 C   0  0  1  0  0  3  0  0  0  0  0  0
  184.4920  178.1070  140.4380 C   0  0  1  0  0  3  0  0  0  0  0  0
  185.7970  178.1020  145.6300 C   0  0  0  0  0  0  0  0  0  0  0  0
  186.7190  178.3420  142.1400 C   0  0  0  0  0  0  0  0  0  0  0  0
  189.9000  177.6030  144.6310 N   0  0  0  0  0  2  0  0  0  0  0  0
  183.2020  178.7100  143.7850 C   0  0  0  0  0  0  0  0  0  0  0  0
  191.6440  177.9180  142.9620 C   0  0  0  0  0  1  0  0  0  0  0  0
  185.3940  179.2640  140.3010 N   0  0  1  0  0  0  0  0  0  0  0  0
  184.5350  177.2920  137.4870 O   0  0  0  0  0  0  0  0  0  0  0  0
  186.6860  178.6540  140.6520 C   0  0  2  0  0  3  0  0  0  0  0  0
  183.3790  178.6380  145.2520 C   0  0  0  0  0  3  0  0  0  0  0  0
  180.7370  178.6140  144.2260 C   0  0  0  0  0  3  0  0  0  0  0  0
  181.7980  178.9910  143.3880 C   0  0  0  0  0  0  0  0  0  0  0  0
  181.5140  179.6730  142.1930 C   0  0  0  0  0  3  0  0  0  0  0  0
  179.8550  180.7960  140.3380 Cl  0  0  0  0  0  0  0  0  0  0  0  0
  179.1440  179.5660  142.6710 C   0  0  0  0  0  3  0  0  0  0  0  0
  180.1940  179.9550  141.8340 C   0  0  0  0  0  0  0  0  0  0  0  0
  179.4150  178.8980  143.8670 C   0  0  0  0  0  3  0  0  0  0  0  0
  189.4320  176.2950  137.8500 C   0  0  0  0  0  1  0  0  0  0  0  0
  187.9780  176.6380  137.5910 C   0  0  0  0  0  2  0  0  0  0  0  0
  1 27  1  0  0  0  0
  2 22  1  0  0  0  0
  3 20  1  0  0  0  0
  4 37  1  6  0  0  0
  4  1  1  0  0  0  0
  5 10  1  0  0  0  0
  6 11  2  0  0  0  0
  7  3  1  0  0  0  0
  9  3  2  0  0  0  0
  9  6  1  0  0  0  0
 10  7  1  0  0  0  0
 10 23  2  0  0  0  0
 11 16  1  0  0  0  0
 12  8  1  0  0  0  0
 12  4  1  0  0  0  0
 13  9  1  0  0  0  0
 14  2  1  0  0  0  0
 17 13  1  0  0  0  0
 17  2  1  0  0  0  0
 18  8  1  6  0  0  0
 18 25  1  0  0  0  0
 18 19  1  0  0  0  0
 19  5  1  1  0  0  0
 20 15  1  0  0  0  0
 20 16  2  0  0  0  0
 21 13  1  0  0  0  0
 21  7  2  0  0  0  0
 22  6  1  0  0  0  0
 23 28  1  0  0  0  0
 24  2  1  0  0  0  0
 25 19  1  0  0  0  0
 25 27  1  0  0  0  0
 26  8  2  0  0  0  0
 27 21  1  0  0  0  0
 28 15  2  0  0  0  0
 30 23  1  0  0  0  0
 30 29  2  0  0  0  0
 31 30  1  0  0  0  0
 32 34  1  0  0  0  0
 33 35  2  0  0  0  0
 34 31  2  0  0  0  0
 34 33  1  0  0  0  0
 35 29  1  0  0  0  0
 37 36  1  0  0  0  0
M  END
>  <MODEL>
1

>  <REMARK>
 VINA RESULT:     -11.2      0.000      0.000
  Name = 
  2 active torsions:
  status: ('A' for Active; 'I' for Inactive)
    1  A    between atoms: C_4  and  C_37
    2  A    between atoms: C_23  and  C_30
                            x       y       z     vdW  Elec       q    Type
                         _______ _______ _______ _____ _____    ______ ____

>  <TORSDO>
F 2

$$$$
=
 OpenBabel11122411203D

 37 44  0  0  1  0  0  0  0  0999 V2000
  189.2080  176.9150  138.8480 C   0  0  0  0  0  2  0  0  0  0  0  0
  190.3060  177.1230  143.2980 C   0  0  0  0  0  0  0  0  0  0  0  0
  186.3640  178.1530  142.2980 C   0  0  0  0  0  0  0  0  0  0  0  0
  190.2750  177.1310  137.7690 C   0  0  2  0  0  3  0  0  0  0  0  0
  185.4300  178.2780  138.5670 O   0  0  0  0  0  0  0  0  0  0  0  0
  187.9870  177.7610  144.0520 C   0  0  0  0  0  0  0  0  0  0  0  0
  186.4160  178.2560  140.9080 C   0  0  0  0  0  0  0  0  0  0  0  0
  188.2950  177.5470  136.2830 C   0  0  0  0  0  0  0  0  0  0  0  0
  187.6360  177.8970  142.7280 C   0  0  0  0  0  0  0  0  0  0  0  0
  185.2490  178.4730  139.9540 C   0  0  0  0  0  0  0  0  0  0  0  0
  186.9870  177.9050  145.0210 C   0  0  0  0  0  3  0  0  0  0  0  0
  189.7410  177.8490  136.5260 C   0  0  0  0  0  2  0  0  0  0  0  0
  188.5120  177.8540  141.7350 N   0  0  0  0  0  0  0  0  0  0  0  0
  190.2720  175.6170  143.1130 C   0  0  0  0  0  1  0  0  0  0  0  0
  183.9820  178.7070  142.9030 C   0  0  0  0  0  3  0  0  0  0  0  0
  185.6670  178.1850  144.6060 C   0  0  0  0  0  3  0  0  0  0  0  0
  189.9620  177.8020  141.9470 C   0  0  0  0  0  2  0  0  0  0  0  0
  187.2380  178.4030  136.9160 C   0  0  1  0  0  3  0  0  0  0  0  0
  186.6360  177.7670  138.0700 C   0  0  1  0  0  3  0  0  0  0  0  0
  185.3410  178.3170  143.2350 C   0  0  0  0  0  0  0  0  0  0  0  0
  187.8140  178.0920  140.6030 C   0  0  0  0  0  0  0  0  0  0  0  0
  189.3590  177.5010  144.3620 N   0  0  0  0  0  2  0  0  0  0  0  0
  183.9920  178.8270  140.3320 C   0  0  0  0  0  0  0  0  0  0  0  0
  191.7040  177.5280  143.7100 C   0  0  0  0  0  1  0  0  0  0  0  0
  187.6070  178.8520  138.2860 N   0  0  1  0  0  0  0  0  0  0  0  0
  187.9780  176.6050  135.5760 O   0  0  0  0  0  0  0  0  0  0  0  0
  188.5140  178.2260  139.2610 C   0  0  2  0  0  3  0  0  0  0  0  0
  183.4510  178.9220  141.7060 C   0  0  0  0  0  3  0  0  0  0  0  0
  182.3520  178.0840  138.5890 C   0  0  0  0  0  3  0  0  0  0  0  0
  182.9760  179.1280  139.2910 C   0  0  0  0  0  0  0  0  0  0  0  0
  182.5950  180.4530  139.0240 C   0  0  0  0  0  3  0  0  0  0  0  0
  181.1660  182.3860  137.7290 Cl  0  0  0  0  0  0  0  0  0  0  0  0
  181.0150  179.6840  137.3580 C   0  0  0  0  0  3  0  0  0  0  0  0
  181.6230  180.7300  138.0590 C   0  0  0  0  0  0  0  0  0  0  0  0
  181.3780  178.3620  137.6250 C   0  0  0  0  0  3  0  0  0  0  0  0
  192.3670  175.7750  137.6810 C   0  0  0  0  0  1  0  0  0  0  0  0
  190.8840  175.7980  137.3650 C   0  0  0  0  0  2  0  0  0  0  0  0
  1 27  1  0  0  0  0
  2 24  1  0  0  0  0
  2 22  1  0  0  0  0
  3  9  2  0  0  0  0
  3 20  1  0  0  0  0
  4 37  1  6  0  0  0
  4  1  1  0  0  0  0
  5 10  1  0  0  0  0
  6 22  1  0  0  0  0
  6 11  2  0  0  0  0
  7  3  1  0  0  0  0
  8 12  1  0  0  0  0
  9  6  1  0  0  0  0
 10 23  2  0  0  0  0
 10  7  1  0  0  0  0
 12  4  1  0  0  0  0
 13 17  1  0  0  0  0
 13  9  1  0  0  0  0
 14  2  1  0  0  0  0
 15 20  1  0  0  0  0
 16 11  1  0  0  0  0
 17  2  1  0  0  0  0
 18  8  1  1  0  0  0
 18 19  1  0  0  0  0
 18 25  1  0  0  0  0
 19 25  1  0  0  0  0
 19  5  1  6  0  0  0
 20 16  2  0  0  0  0
 21  7  2  0  0  0  0
 21 13  1  0  0  0  0
 23 28  1  0  0  0  0
 25 27  1  0  0  0  0
 26  8  2  0  0  0  0
 27 21  1  0  0  0  0
 28 15  2  0  0  0  0
 29 30  1  0  0  0  0
 30 23  1  0  0  0  0
 31 30  2  0  0  0  0
 32 34  1  0  0  0  0
 33 35  1  0  0  0  0
 33 34  2  0  0  0  0
 34 31  1  0  0  0  0
 35 29  2  0  0  0  0
 37 36  1  0  0  0  0
M  END
>  <MODEL>
2

>  <REMARK>
 VINA RESULT:     -11.0      1.983      3.165
  Name = 
  2 active torsions:
  status: ('A' for Active; 'I' for Inactive)
    1  A    between atoms: C_4  and  C_37
    2  A    between atoms: C_23  and  C_30
                            x       y       z     vdW  Elec       q    Type
                         _______ _______ _______ _____ _____    ______ ____

>  <TORSDO>
F 2

$$$$
=
 OpenBabel11122411203D

 37 44  0  0  1  0  0  0  0  0999 V2000
  188.1610  178.2380  140.1500 C   0  0  0  0  0  2  0  0  0  0  0  0
  183.5960  178.5710  139.8300 C   0  0  0  0  0  0  0  0  0  0  0  0
  185.1900  178.4310  143.7080 C   0  0  0  0  0  0  0  0  0  0  0  0
  188.9750  177.5600  139.0420 C   0  0  2  0  0  3  0  0  0  0  0  0
  188.9790  177.8720  144.0750 O   0  0  0  0  0  0  0  0  0  0  0  0
  183.2240  178.7040  142.3190 C   0  0  0  0  0  0  0  0  0  0  0  0
  186.5170  178.0650  143.4830 C   0  0  0  0  0  0  0  0  0  0  0  0
  190.7450  177.4060  140.8160 C   0  0  0  0  0  0  0  0  0  0  0  0
  184.5610  178.4230  142.4950 C   0  0  0  0  0  0  0  0  0  0  0  0
  187.6400  177.9870  144.5070 C   0  0  0  0  0  0  0  0  0  0  0  0
  182.4570  179.0030  143.4500 C   0  0  0  0  0  3  0  0  0  0  0  0
  190.1890  176.7910  139.5700 C   0  0  0  0  0  2  0  0  0  0  0  0
  185.3630  178.0560  141.5060 N   0  0  0  0  0  0  0  0  0  0  0  0
  183.9850  179.9740  139.4030 C   0  0  0  0  0  1  0  0  0  0  0  0
  184.9870  178.6320  146.2110 C   0  0  0  0  0  3  0  0  0  0  0  0
  183.0770  179.0030  144.7190 C   0  0  0  0  0  3  0  0  0  0  0  0
  184.8840  177.7690  140.1500 C   0  0  0  0  0  2  0  0  0  0  0  0
  190.2190  176.9840  142.1550 C   0  0  1  0  0  3  0  0  0  0  0  0
  189.2980  177.9540  142.7130 C   0  0  1  0  0  3  0  0  0  0  0  0
  184.4540  178.7120  144.8620 C   0  0  0  0  0  0  0  0  0  0  0  0
  186.5650  177.8040  142.0680 C   0  0  0  0  0  0  0  0  0  0  0  0
  182.6940  178.6530  140.9920 N   0  0  0  0  0  2  0  0  0  0  0  0
  187.4680  178.0460  145.8550 C   0  0  0  0  0  0  0  0  0  0  0  0
  182.8710  177.9010  138.6830 C   0  0  0  0  0  1  0  0  0  0  0  0
  188.7550  176.7120  142.1370 N   0  0  1  0  0  0  0  0  0  0  0  0
  191.6200  178.2530  140.7400 O   0  0  0  0  0  0  0  0  0  0  0  0
  187.7170  177.2500  141.2440 C   0  0  2  0  0  3  0  0  0  0  0  0
  186.2240  178.3470  146.5980 C   0  0  0  0  0  3  0  0  0  0  0  0
  188.6910  178.4660  148.0010 C   0  0  0  0  0  3  0  0  0  0  0  0
  188.6350  177.8330  146.7490 C   0  0  0  0  0  0  0  0  0  0  0  0
  189.6750  176.9660  146.3750 C   0  0  0  0  0  3  0  0  0  0  0  0
  192.0540  175.6790  146.7450 Cl  0  0  0  0  0  0  0  0  0  0  0  0
  190.8120  177.3950  148.4680 C   0  0  0  0  0  3  0  0  0  0  0  0
  190.7600  176.7530  147.2280 C   0  0  0  0  0  0  0  0  0  0  0  0
  189.7770  178.2500  148.8550 C   0  0  0  0  0  3  0  0  0  0  0  0
  188.4780  178.6280  136.8430 C   0  0  0  0  0  1  0  0  0  0  0  0
  189.4290  178.5930  138.0240 C   0  0  0  0  0  2  0  0  0  0  0  0
  1 27  1  0  0  0  0
  2 17  1  0  0  0  0
  2 22  1  0  0  0  0
  3 20  1  0  0  0  0
  4 37  1  6  0  0  0
  4 12  1  0  0  0  0
  4  1  1  0  0  0  0
  5 10  1  0  0  0  0
  6  9  1  0  0  0  0
  6 11  2  0  0  0  0
  7  3  1  0  0  0  0
  7 10  1  0  0  0  0
  9  3  2  0  0  0  0
 10 23  2  0  0  0  0
 11 16  1  0  0  0  0
 12  8  1  0  0  0  0
 13 21  1  0  0  0  0
 13  9  1  0  0  0  0
 14  2  1  0  0  0  0
 15 28  2  0  0  0  0
 16 20  2  0  0  0  0
 17 13  1  0  0  0  0
 18  8  1  6  0  0  0
 18 19  1  0  0  0  0
 19  5  1  1  0  0  0
 20 15  1  0  0  0  0
 21  7  2  0  0  0  0
 22  6  1  0  0  0  0
 23 28  1  0  0  0  0
 23 30  1  0  0  0  0
 24  2  1  0  0  0  0
 25 18  1  0  0  0  0
 25 19  1  0  0  0  0
 26  8  2  0  0  0  0
 27 21  1  0  0  0  0
 27 25  1  0  0  0  0
 29 35  1  0  0  0  0
 30 29  2  0  0  0  0
 31 30  1  0  0  0  0
 31 34  2  0  0  0  0
 32 34  1  0  0  0  0
 33 35  2  0  0  0  0
 34 33  1  0  0  0  0
 36 37  1  0  0  0  0
M  END
>  <MODEL>
3

>  <REMARK>
 VINA RESULT:     -10.5      3.300      6.693
  Name = 
  2 active torsions:
  status: ('A' for Active; 'I' for Inactive)
    1  A    between atoms: C_4  and  C_37
    2  A    between atoms: C_23  and  C_30
                            x       y       z     vdW  Elec       q    Type
                         _______ _______ _______ _____ _____    ______ ____

>  <TORSDO>
F 2

$$$$
=
 OpenBabel11122411203D

 37 44  0  0  1  0  0  0  0  0999 V2000
  184.5430  177.8670  138.7870 C   0  0  0  0  0  2  0  0  0  0  0  0
  188.4840  177.4350  136.4770 C   0  0  0  0  0  0  0  0  0  0  0  0
  188.7710  177.5030  140.6620 C   0  0  0  0  0  0  0  0  0  0  0  0
  183.3470  178.5950  138.1630 C   0  0  2  0  0  3  0  0  0  0  0  0
  185.5540  178.1420  142.6740 O   0  0  0  0  0  0  0  0  0  0  0  0
  189.9110  177.2220  138.5430 C   0  0  0  0  0  0  0  0  0  0  0  0
  187.4940  177.9070  141.0520 C   0  0  0  0  0  0  0  0  0  0  0  0
  182.5490  178.7410  140.5390 C   0  0  0  0  0  0  0  0  0  0  0  0
  188.8000  177.5300  139.2960 C   0  0  0  0  0  0  0  0  0  0  0  0
  186.9420  177.9830  142.4680 C   0  0  0  0  0  0  0  0  0  0  0  0
  191.0890  176.8730  139.2140 C   0  0  0  0  0  3  0  0  0  0  0  0
  182.5170  179.3780  139.1840 C   0  0  0  0  0  2  0  0  0  0  0  0
  187.6570  177.9440  138.7690 N   0  0  0  0  0  0  0  0  0  0  0  0
  187.8990  176.0530  136.2450 C   0  0  0  0  0  1  0  0  0  0  0  0
  190.0520  177.2270  142.8140 C   0  0  0  0  0  3  0  0  0  0  0  0
  191.0930  176.8530  140.6260 C   0  0  0  0  0  3  0  0  0  0  0  0
  187.4970  178.2580  137.3450 C   0  0  0  0  0  2  0  0  0  0  0  0
  183.6260  179.1130  141.5130 C   0  0  1  0  0  3  0  0  0  0  0  0
  184.6650  178.1060  141.5930 C   0  0  1  0  0  3  0  0  0  0  0  0
  189.9310  177.1720  141.3670 C   0  0  0  0  0  0  0  0  0  0  0  0
  186.8350  178.2090  139.8080 C   0  0  0  0  0  0  0  0  0  0  0  0
  189.8030  177.2990  137.1190 N   0  0  0  0  0  2  0  0  0  0  0  0
  187.6900  177.8820  143.6000 C   0  0  0  0  0  0  0  0  0  0  0  0
  188.6510  178.1190  135.1380 C   0  0  0  0  0  1  0  0  0  0  0  0
  184.9400  179.3500  140.8540 N   0  0  1  0  0  0  0  0  0  0  0  0
  181.7010  177.9180  140.8460 O   0  0  0  0  0  0  0  0  0  0  0  0
  185.4580  178.8130  139.5860 C   0  0  2  0  0  3  0  0  0  0  0  0
  189.1220  177.5310  143.7120 C   0  0  0  0  0  3  0  0  0  0  0  0
  185.6870  178.4460  144.9960 C   0  0  0  0  0  3  0  0  0  0  0  0
  187.0450  178.0970  144.9210 C   0  0  0  0  0  0  0  0  0  0  0  0
  187.7700  177.9150  146.1100 C   0  0  0  0  0  3  0  0  0  0  0  0
  188.0710  177.8780  148.8230 Cl  0  0  0  0  0  0  0  0  0  0  0  0
  185.8040  178.4550  147.4150 C   0  0  0  0  0  3  0  0  0  0  0  0
  187.1530  178.0980  147.3500 C   0  0  0  0  0  0  0  0  0  0  0  0
  185.0700  178.6280  146.2380 C   0  0  0  0  0  3  0  0  0  0  0  0
  182.8480  176.1800  137.7880 C   0  0  0  0  0  1  0  0  0  0  0  0
  182.4560  177.6020  137.4360 C   0  0  0  0  0  2  0  0  0  0  0  0
  1 27  1  0  0  0  0
  2 22  1  0  0  0  0
  2 17  1  0  0  0  0
  3  7  1  0  0  0  0
  3 20  1  0  0  0  0
  4 37  1  1  0  0  0
  4  1  1  0  0  0  0
  4 12  1  0  0  0  0
  6 11  2  0  0  0  0
  6  9  1  0  0  0  0
  7 10  1  0  0  0  0
  8 26  2  0  0  0  0
  9  3  2  0  0  0  0
 10  5  1  0  0  0  0
 10 23  2  0  0  0  0
 11 16  1  0  0  0  0
 12  8  1  0  0  0  0
 13  9  1  0  0  0  0
 13 21  1  0  0  0  0
 14  2  1  0  0  0  0
 15 28  2  0  0  0  0
 16 20  2  0  0  0  0
 17 13  1  0  0  0  0
 18  8  1  6  0  0  0
 18 19  1  0  0  0  0
 19  5  1  1  0  0  0
 20 15  1  0  0  0  0
 21  7  2  0  0  0  0
 22  6  1  0  0  0  0
 23 28  1  0  0  0  0
 23 30  1  0  0  0  0
 24  2  1  0  0  0  0
 25 18  1  0  0  0  0
 25 19  1  0  0  0  0
 27 21  1  0  0  0  0
 27 25  1  0  0  0  0
 29 35  1  0  0  0  0
 30 29  2  0  0  0  0
 30 31  1  0  0  0  0
 31 34  2  0  0  0  0
 34 33  1  0  0  0  0
 34 32  1  0  0  0  0
 35 33  2  0  0  0  0
 37 36  1  0  0  0  0
M  END
>  <MODEL>
4

>  <REMARK>
 VINA RESULT:     -10.3      3.017      5.812
  Name = 
  2 active torsions:
  status: ('A' for Active; 'I' for Inactive)
    1  A    between atoms: C_4  and  C_37
    2  A    between atoms: C_23  and  C_30
                            x       y       z     vdW  Elec       q    Type
                         _______ _______ _______ _____ _____    ______ ____

>  <TORSDO>
F 2

$$$$
=
 OpenBabel11122411203D

 37 44  0  0  1  0  0  0  0  0999 V2000
  186.8690  178.5290  144.8090 C   0  0  0  0  0  2  0  0  0  0  0  0
  191.0700  177.0950  143.6460 C   0  0  0  0  0  0  0  0  0  0  0  0
  188.4230  177.8740  140.4860 C   0  0  0  0  0  0  0  0  0  0  0  0
  186.2470  178.1210  146.1480 C   0  0  2  0  0  3  0  0  0  0  0  0
  184.7960  178.8110  141.3690 O   0  0  0  0  0  0  0  0  0  0  0  0
  190.6700  177.2770  141.1640 C   0  0  0  0  0  0  0  0  0  0  0  0
  187.1980  178.0170  141.1380 C   0  0  0  0  0  0  0  0  0  0  0  0
  184.0960  178.7850  145.0380 C   0  0  0  0  0  0  0  0  0  0  0  0
  189.3440  177.5340  141.4360 C   0  0  0  0  0  0  0  0  0  0  0  0
  185.8720  178.4480  140.5290 C   0  0  0  0  0  0  0  0  0  0  0  0
  191.1000  177.3540  139.8350 C   0  0  0  0  0  3  0  0  0  0  0  0
  184.7330  177.9080  146.0710 C   0  0  0  0  0  2  0  0  0  0  0  0
  188.8150  177.4170  142.6450 N   0  0  0  0  0  0  0  0  0  0  0  0
  191.3990  178.5030  144.1070 C   0  0  0  0  0  1  0  0  0  0  0  0
  187.8970  178.1820  138.0410 C   0  0  0  0  0  3  0  0  0  0  0  0
  190.1650  177.6880  138.8300 C   0  0  0  0  0  3  0  0  0  0  0  0
  189.5430  176.8640  143.7900 C   0  0  0  0  0  2  0  0  0  0  0  0
  183.9760  178.3040  143.6230 C   0  0  1  0  0  3  0  0  0  0  0  0
  184.9740  178.8980  142.7560 C   0  0  1  0  0  3  0  0  0  0  0  0
  188.8110  177.9480  139.1470 C   0  0  0  0  0  0  0  0  0  0  0  0
  187.4960  177.6810  142.5070 C   0  0  0  0  0  0  0  0  0  0  0  0
  191.5250  176.9240  142.2550 N   0  0  0  0  0  2  0  0  0  0  0  0
  185.6250  178.5450  139.1950 C   0  0  0  0  0  0  0  0  0  0  0  0
  191.8030  176.1130  144.5340 C   0  0  0  0  0  1  0  0  0  0  0  0
  185.1530  177.5010  143.1880 N   0  0  1  0  0  0  0  0  0  0  0  0
  183.6790  179.8890  145.3470 O   0  0  0  0  0  0  0  0  0  0  0  0
  186.5390  177.5370  143.6780 C   0  0  2  0  0  3  0  0  0  0  0  0
  186.5910  178.4140  138.0820 C   0  0  0  0  0  3  0  0  0  0  0  0
  183.4370  177.8460  138.1930 C   0  0  0  0  0  3  0  0  0  0  0  0
  184.2500  178.8580  138.7290 C   0  0  0  0  0  0  0  0  0  0  0  0
  183.7280  180.1560  138.8560 C   0  0  0  0  0  3  0  0  0  0  0  0
  181.7930  182.0640  138.5900 Cl  0  0  0  0  0  0  0  0  0  0  0  0
  181.6290  179.4290  137.8940 C   0  0  0  0  0  3  0  0  0  0  0  0
  182.4260  180.4410  138.4360 C   0  0  0  0  0  0  0  0  0  0  0  0
  182.1340  178.1310  137.7740 C   0  0  0  0  0  3  0  0  0  0  0  0
  187.6030  178.6390  148.1770 C   0  0  0  0  0  1  0  0  0  0  0  0
  186.5620  179.1650  147.2080 C   0  0  0  0  0  2  0  0  0  0  0  0
  1  4  1  0  0  0  0
  2 17  1  0  0  0  0
  2 14  1  0  0  0  0
  2 24  1  0  0  0  0
  3  7  1  0  0  0  0
  3  9  1  0  0  0  0
  4 37  1  1  0  0  0
  6  9  2  0  0  0  0
  6 22  1  0  0  0  0
  7 21  2  0  0  0  0
  8 26  2  0  0  0  0
  8 12  1  0  0  0  0
  9 13  1  0  0  0  0
 10  7  1  0  0  0  0
 10  5  1  0  0  0  0
 11  6  1  0  0  0  0
 12  4  1  0  0  0  0
 13 17  1  0  0  0  0
 15 28  2  0  0  0  0
 15 20  1  0  0  0  0
 16 20  1  0  0  0  0
 16 11  2  0  0  0  0
 18  8  1  1  0  0  0
 19  5  1  6  0  0  0
 19 25  1  0  0  0  0
 19 18  1  0  0  0  0
 20  3  2  0  0  0  0
 21 13  1  0  0  0  0
 21 27  1  0  0  0  0
 22  2  1  0  0  0  0
 23 10  2  0  0  0  0
 25 18  1  0  0  0  0
 25 27  1  0  0  0  0
 27  1  1  0  0  0  0
 28 23  1  0  0  0  0
 29 30  1  0  0  0  0
 30 31  2  0  0  0  0
 30 23  1  0  0  0  0
 33 34  2  0  0  0  0
 34 32  1  0  0  0  0
 34 31  1  0  0  0  0
 35 33  1  0  0  0  0
 35 29  2  0  0  0  0
 37 36  1  0  0  0  0
M  END
>  <MODEL>
5

>  <REMARK>
 VINA RESULT:     -10.2      2.138      5.627
  Name = 
  2 active torsions:
  status: ('A' for Active; 'I' for Inactive)
    1  A    between atoms: C_4  and  C_37
    2  A    between atoms: C_23  and  C_30
                            x       y       z     vdW  Elec       q    Type
                         _______ _______ _______ _____ _____    ______ ____

>  <TORSDO>
F 2

$$$$
=
 OpenBabel11122411203D

 37 44  0  0  1  0  0  0  0  0999 V2000
  184.5210  177.9440  139.2580 C   0  0  0  0  0  2  0  0  0  0  0  0
  187.8810  177.6380  136.1480 C   0  0  0  0  0  0  0  0  0  0  0  0
  189.0390  177.4190  140.1750 C   0  0  0  0  0  0  0  0  0  0  0  0
  183.2380  178.7230  138.9480 C   0  0  2  0  0  3  0  0  0  0  0  0
  186.3290  177.9460  142.8560 O   0  0  0  0  0  0  0  0  0  0  0  0
  189.7040  177.2730  137.8510 C   0  0  0  0  0  0  0  0  0  0  0  0
  187.8810  177.8050  140.8500 C   0  0  0  0  0  0  0  0  0  0  0  0
  182.9570  178.7140  141.4430 C   0  0  0  0  0  0  0  0  0  0  0  0
  188.7820  177.5380  138.8380 C   0  0  0  0  0  0  0  0  0  0  0  0
  187.6390  177.7890  142.3530 C   0  0  0  0  0  0  0  0  0  0  0  0
  190.9880  176.8700  138.2350 C   0  0  0  0  0  3  0  0  0  0  0  0
  182.6580  179.4420  140.1690 C   0  0  0  0  0  2  0  0  0  0  0  0
  187.5630  177.9970  138.5910 N   0  0  0  0  0  0  0  0  0  0  0  0
  187.2300  176.2800  135.9560 C   0  0  0  0  0  1  0  0  0  0  0  0
  190.7350  176.9860  141.9880 C   0  0  0  0  0  3  0  0  0  0  0  0
  191.2870  176.7540  139.6100 C   0  0  0  0  0  3  0  0  0  0  0  0
  187.1170  178.4080  137.2560 C   0  0  0  0  0  2  0  0  0  0  0  0
  184.2220  179.0100  142.1910 C   0  0  1  0  0  3  0  0  0  0  0  0
  185.2320  177.9910  141.9850 C   0  0  1  0  0  3  0  0  0  0  0  0
  190.3130  177.0320  140.5980 C   0  0  0  0  0  0  0  0  0  0  0  0
  186.9830  178.1970  139.7940 C   0  0  0  0  0  0  0  0  0  0  0  0
  189.3020  177.4470  136.4890 N   0  0  0  0  0  2  0  0  0  0  0  0
  188.6040  177.6060  143.2930 C   0  0  0  0  0  0  0  0  0  0  0  0
  187.7790  178.4100  134.8520 C   0  0  0  0  0  1  0  0  0  0  0  0
  185.3750  179.2800  141.2880 N   0  0  1  0  0  0  0  0  0  0  0  0
  182.1750  177.8790  141.8670 O   0  0  0  0  0  0  0  0  0  0  0  0
  185.6040  178.8260  139.9070 C   0  0  2  0  0  3  0  0  0  0  0  0
  190.0210  177.2360  143.0780 C   0  0  0  0  0  3  0  0  0  0  0  0
  189.2650  177.7320  145.7070 C   0  0  0  0  0  3  0  0  0  0  0  0
  188.2550  177.7360  144.7310 C   0  0  0  0  0  0  0  0  0  0  0  0
  186.9200  177.9070  145.1310 C   0  0  0  0  0  3  0  0  0  0  0  0
  184.9300  178.2530  146.9680 Cl  0  0  0  0  0  0  0  0  0  0  0  0
  187.6100  178.0350  147.4480 C   0  0  0  0  0  3  0  0  0  0  0  0
  186.5990  178.0510  146.4830 C   0  0  0  0  0  0  0  0  0  0  0  0
  188.9430  177.8780  147.0590 C   0  0  0  0  0  3  0  0  0  0  0  0
  182.5620  176.3430  138.6310 C   0  0  0  0  0  1  0  0  0  0  0  0
  182.1920  177.7890  138.3620 C   0  0  0  0  0  2  0  0  0  0  0  0
  1 27  1  0  0  0  0
  2 22  1  0  0  0  0
  2 17  1  0  0  0  0
  3 20  1  0  0  0  0
  3  7  1  0  0  0  0
  4 37  1  1  0  0  0
  4  1  1  0  0  0  0
  4 12  1  0  0  0  0
  6 11  2  0  0  0  0
  6  9  1  0  0  0  0
  7 10  1  0  0  0  0
  8 26  2  0  0  0  0
  9  3  2  0  0  0  0
 10  5  1  0  0  0  0
 10 23  2  0  0  0  0
 11 16  1  0  0  0  0
 12  8  1  0  0  0  0
 13  9  1  0  0  0  0
 13 21  1  0  0  0  0
 14  2  1  0  0  0  0
 15 28  2  0  0  0  0
 16 20  2  0  0  0  0
 17 13  1  0  0  0  0
 18  8  1  6  0  0  0
 19 18  1  0  0  0  0
 19  5  1  1  0  0  0
 20 15  1  0  0  0  0
 21 27  1  0  0  0  0
 21  7  2  0  0  0  0
 22  6  1  0  0  0  0
 23 30  1  0  0  0  0
 24  2  1  0  0  0  0
 25 19  1  0  0  0  0
 25 18  1  0  0  0  0
 27 25  1  0  0  0  0
 28 23  1  0  0  0  0
 29 35  1  0  0  0  0
 30 31  1  0  0  0  0
 30 29  2  0  0  0  0
 31 34  2  0  0  0  0
 34 32  1  0  0  0  0
 34 33  1  0  0  0  0
 35 33  2  0  0  0  0
 37 36  1  0  0  0  0
M  END
>  <MODEL>
6

>  <REMARK>
 VINA RESULT:      -9.9      2.655      6.319
  Name = 
  2 active torsions:
  status: ('A' for Active; 'I' for Inactive)
    1  A    between atoms: C_4  and  C_37
    2  A    between atoms: C_23  and  C_30
                            x       y       z     vdW  Elec       q    Type
                         _______ _______ _______ _____ _____    ______ ____

>  <TORSDO>
F 2

$$$$
=
 OpenBabel11122411203D

 37 44  0  0  1  0  0  0  0  0999 V2000
  188.1710  177.1600  139.5710 C   0  0  0  0  0  2  0  0  0  0  0  0
  189.7720  177.7010  143.8370 C   0  0  0  0  0  0  0  0  0  0  0  0
  185.6530  178.2900  143.3010 C   0  0  0  0  0  0  0  0  0  0  0  0
  189.0720  177.4230  138.3600 C   0  0  2  0  0  3  0  0  0  0  0  0
  184.2670  178.1330  139.7150 O   0  0  0  0  0  0  0  0  0  0  0  0
  187.5080  178.1470  144.8510 C   0  0  0  0  0  0  0  0  0  0  0  0
  185.5250  178.3270  141.9120 C   0  0  0  0  0  0  0  0  0  0  0  0
  186.8940  177.5690  137.1190 C   0  0  0  0  0  0  0  0  0  0  0  0
  186.9870  178.1820  143.5770 C   0  0  0  0  0  0  0  0  0  0  0  0
  184.2370  178.3800  141.1040 C   0  0  0  0  0  0  0  0  0  0  0  0
  186.6240  178.2430  145.9310 C   0  0  0  0  0  3  0  0  0  0  0  0
  188.3200  178.0210  137.1670 C   0  0  0  0  0  2  0  0  0  0  0  0
  187.7370  178.1730  142.4850 N   0  0  0  0  0  0  0  0  0  0  0  0
  189.8710  176.1910  143.7170 C   0  0  0  0  0  1  0  0  0  0  0  0
  183.3180  178.6410  144.1780 C   0  0  0  0  0  3  0  0  0  0  0  0
  185.2410  178.3730  145.6750 C   0  0  0  0  0  3  0  0  0  0  0  0
  189.1990  178.2730  142.5150 C   0  0  0  0  0  2  0  0  0  0  0  0
  185.8390  178.3480  137.8460 C   0  0  1  0  0  3  0  0  0  0  0  0
  185.4500  177.7170  139.0910 C   0  0  1  0  0  3  0  0  0  0  0  0
  184.7400  178.4020  144.3520 C   0  0  0  0  0  0  0  0  0  0  0  0
  186.8860  178.2840  141.4410 C   0  0  0  0  0  0  0  0  0  0  0  0
  188.9280  178.0380  144.9960 N   0  0  0  0  0  2  0  0  0  0  0  0
  183.0050  178.6290  141.6230 C   0  0  0  0  0  0  0  0  0  0  0  0
  191.1610  178.2600  144.0550 C   0  0  0  0  0  1  0  0  0  0  0  0
  186.3240  178.9010  139.1410 N   0  0  1  0  0  0  0  0  0  0  0  0
  186.5930  176.5650  136.4940 O   0  0  0  0  0  0  0  0  0  0  0  0
  187.4010  178.4170  140.0170 C   0  0  2  0  0  3  0  0  0  0  0  0
  182.6270  178.7420  143.0490 C   0  0  0  0  0  3  0  0  0  0  0  0
  181.5640  180.0180  140.1150 C   0  0  0  0  0  3  0  0  0  0  0  0
  181.8440  178.7760  140.7070 C   0  0  0  0  0  0  0  0  0  0  0  0
  181.0390  177.6710  140.3880 C   0  0  0  0  0  3  0  0  0  0  0  0
  178.9600  176.4270  139.1280 Cl  0  0  0  0  0  0  0  0  0  0  0  0
  179.6840  179.0530  138.9330 C   0  0  0  0  0  3  0  0  0  0  0  0
  179.9610  177.8100  139.5090 C   0  0  0  0  0  0  0  0  0  0  0  0
  180.4870  180.1560  139.2350 C   0  0  0  0  0  3  0  0  0  0  0  0
  191.1330  176.4350  137.3600 C   0  0  0  0  0  1  0  0  0  0  0  0
  189.7610  176.1370  137.9350 C   0  0  0  0  0  2  0  0  0  0  0  0
  1 27  1  0  0  0  0
  2 24  1  0  0  0  0
  2 22  1  0  0  0  0
  3  9  2  0  0  0  0
  3 20  1  0  0  0  0
  4 37  1  6  0  0  0
  4  1  1  0  0  0  0
  5 10  1  0  0  0  0
  6 22  1  0  0  0  0
  6 11  2  0  0  0  0
  7  3  1  0  0  0  0
  8 12  1  0  0  0  0
  9  6  1  0  0  0  0
 10 23  2  0  0  0  0
 10  7  1  0  0  0  0
 12  4  1  0  0  0  0
 13 17  1  0  0  0  0
 13  9  1  0  0  0  0
 14  2  1  0  0  0  0
 15 20  1  0  0  0  0
 16 11  1  0  0  0  0
 17  2  1  0  0  0  0
 18  8  1  6  0  0  0
 18 19  1  0  0  0  0
 18 25  1  0  0  0  0
 19 25  1  0  0  0  0
 19  5  1  1  0  0  0
 20 16  2  0  0  0  0
 21  7  2  0  0  0  0
 21 13  1  0  0  0  0
 23 28  1  0  0  0  0
 25 27  1  0  0  0  0
 26  8  2  0  0  0  0
 27 21  1  0  0  0  0
 28 15  2  0  0  0  0
 29 30  1  0  0  0  0
 30 23  1  0  0  0  0
 31 30  2  0  0  0  0
 32 34  1  0  0  0  0
 33 35  1  0  0  0  0
 33 34  2  0  0  0  0
 34 31  1  0  0  0  0
 35 29  2  0  0  0  0
 36 37  1  0  0  0  0
M  END
>  <MODEL>
7

>  <REMARK>
 VINA RESULT:      -9.8      1.667      2.203
  Name = 
  2 active torsions:
  status: ('A' for Active; 'I' for Inactive)
    1  A    between atoms: C_4  and  C_37
    2  A    between atoms: C_23  and  C_30
                            x       y       z     vdW  Elec       q    Type
                         _______ _______ _______ _____ _____    ______ ____

>  <TORSDO>
F 2

$$$$
=
 OpenBabel11122411203D

 37 44  0  0  1  0  0  0  0  0999 V2000
  188.6750  178.0620  141.1590 C   0  0  0  0  0  2  0  0  0  0  0  0
  184.2130  178.7050  142.0150 C   0  0  0  0  0  0  0  0  0  0  0  0
  186.6600  177.9460  145.3370 C   0  0  0  0  0  0  0  0  0  0  0  0
  189.1380  177.4940  139.8140 C   0  0  2  0  0  3  0  0  0  0  0  0
  190.3620  177.1180  144.6910 O   0  0  0  0  0  0  0  0  0  0  0  0
  184.4550  178.5210  144.5170 C   0  0  0  0  0  0  0  0  0  0  0  0
  187.8580  177.5360  144.7510 C   0  0  0  0  0  0  0  0  0  0  0  0
  191.2560  176.9960  141.0660 C   0  0  0  0  0  0  0  0  0  0  0  0
  185.7640  178.1400  144.3240 C   0  0  0  0  0  0  0  0  0  0  0  0
  189.1790  177.2530  145.4500 C   0  0  0  0  0  0  0  0  0  0  0  0
  184.0070  178.7080  145.8300 C   0  0  0  0  0  3  0  0  0  0  0  0
  190.3680  176.5890  139.9310 C   0  0  0  0  0  2  0  0  0  0  0  0
  186.2720  177.8640  143.1320 N   0  0  0  0  0  0  0  0  0  0  0  0
  184.6150  180.1280  141.6730 C   0  0  0  0  0  1  0  0  0  0  0  0
  187.0740  177.8160  147.8190 C   0  0  0  0  0  3  0  0  0  0  0  0
  184.9070  178.4990  146.8980 C   0  0  0  0  0  3  0  0  0  0  0  0
  185.4620  177.7920  141.9120 C   0  0  0  0  0  2  0  0  0  0  0  0
  191.0260  176.4270  142.4340 C   0  0  1  0  0  3  0  0  0  0  0  0
  190.3560  177.3660  143.3120 C   0  0  1  0  0  3  0  0  0  0  0  0
  186.2470  178.1100  146.6610 C   0  0  0  0  0  0  0  0  0  0  0  0
  187.5450  177.4660  143.3470 C   0  0  0  0  0  0  0  0  0  0  0  0
  183.6220  178.6810  143.3650 N   0  0  0  0  0  2  0  0  0  0  0  0
  189.3370  177.1380  146.7960 C   0  0  0  0  0  0  0  0  0  0  0  0
  183.1790  178.2410  141.0130 C   0  0  0  0  0  1  0  0  0  0  0  0
  189.5810  176.2480  142.7460 N   0  0  1  0  0  0  0  0  0  0  0  0
  192.1620  177.7920  140.8770 O   0  0  0  0  0  0  0  0  0  0  0  0
  188.4140  176.9620  142.2060 C   0  0  2  0  0  3  0  0  0  0  0  0
  188.3370  177.4080  147.8530 C   0  0  0  0  0  3  0  0  0  0  0  0
  191.3450  175.6390  146.8000 C   0  0  0  0  0  3  0  0  0  0  0  0
  190.6580  176.7370  147.3430 C   0  0  0  0  0  0  0  0  0  0  0  0
  191.2580  177.4720  148.3800 C   0  0  0  0  0  3  0  0  0  0  0  0
  193.2400  178.0220  150.1750 Cl  0  0  0  0  0  0  0  0  0  0  0  0
  193.1810  176.0030  148.3370 C   0  0  0  0  0  3  0  0  0  0  0  0
  192.5100  177.1030  148.8770 C   0  0  0  0  0  0  0  0  0  0  0  0
  192.5990  175.2720  147.2970 C   0  0  0  0  0  3  0  0  0  0  0  0
  189.3040  178.1450  137.4110 C   0  0  0  0  0  1  0  0  0  0  0  0
  189.4300  178.6270  138.8440 C   0  0  0  0  0  2  0  0  0  0  0  0
  1 27  1  0  0  0  0
  2 22  1  0  0  0  0
  3 20  1  0  0  0  0
  4 37  1  6  0  0  0
  4 12  1  0  0  0  0
  4  1  1  0  0  0  0
  5 10  1  0  0  0  0
  6 11  2  0  0  0  0
  7  3  1  0  0  0  0
  7 10  1  0  0  0  0
  9  6  1  0  0  0  0
  9  3  2  0  0  0  0
 10 23  2  0  0  0  0
 11 16  1  0  0  0  0
 12  8  1  0  0  0  0
 13 21  1  0  0  0  0
 13  9  1  0  0  0  0
 14  2  1  0  0  0  0
 15 28  2  0  0  0  0
 17  2  1  0  0  0  0
 17 13  1  0  0  0  0
 18  8  1  6  0  0  0
 18 25  1  0  0  0  0
 18 19  1  0  0  0  0
 19  5  1  1  0  0  0
 20 16  2  0  0  0  0
 20 15  1  0  0  0  0
 21  7  2  0  0  0  0
 22  6  1  0  0  0  0
 23 30  1  0  0  0  0
 23 28  1  0  0  0  0
 24  2  1  0  0  0  0
 25 19  1  0  0  0  0
 26  8  2  0  0  0  0
 27 25  1  0  0  0  0
 27 21  1  0  0  0  0
 29 35  2  0  0  0  0
 29 30  1  0  0  0  0
 30 31  2  0  0  0  0
 31 34  1  0  0  0  0
 33 34  2  0  0  0  0
 34 32  1  0  0  0  0
 35 33  1  0  0  0  0
 36 37  1  0  0  0  0
M  END
>  <MODEL>
8

>  <REMARK>
 VINA RESULT:      -9.7      4.029      7.482
  Name = 
  2 active torsions:
  status: ('A' for Active; 'I' for Inactive)
    1  A    between atoms: C_4  and  C_37
    2  A    between atoms: C_23  and  C_30
                            x       y       z     vdW  Elec       q    Type
                         _______ _______ _______ _____ _____    ______ ____

>  <TORSDO>
F 2

$$$$
=
 OpenBabel11122411203D

 37 44  0  0  1  0  0  0  0  0999 V2000
  188.8720  177.2760  144.2230 C   0  0  0  0  0  2  0  0  0  0  0  0
  184.9310  179.3530  143.1250 C   0  0  0  0  0  0  0  0  0  0  0  0
  187.2390  177.9210  139.9290 C   0  0  0  0  0  0  0  0  0  0  0  0
  189.6230  177.6520  145.5050 C   0  0  2  0  0  3  0  0  0  0  0  0
  190.6880  176.4160  140.7340 O   0  0  0  0  0  0  0  0  0  0  0  0
  185.1670  178.9470  140.6490 C   0  0  0  0  0  0  0  0  0  0  0  0
  188.4520  177.6050  140.5410 C   0  0  0  0  0  0  0  0  0  0  0  0
  191.5670  176.5500  144.3630 C   0  0  0  0  0  0  0  0  0  0  0  0
  186.4400  178.4780  140.8870 C   0  0  0  0  0  0  0  0  0  0  0  0
  189.6510  176.9090  139.9130 C   0  0  0  0  0  0  0  0  0  0  0  0
  184.6630  178.8620  139.3470 C   0  0  0  0  0  3  0  0  0  0  0  0
  191.1450  177.5880  145.3550 C   0  0  0  0  0  2  0  0  0  0  0  0
  187.0420  178.5750  142.0630 N   0  0  0  0  0  0  0  0  0  0  0  0
  184.3860  178.0570  143.6980 C   0  0  0  0  0  1  0  0  0  0  0  0
  187.5790  177.3710  137.4930 C   0  0  0  0  0  3  0  0  0  0  0  0
  185.4740  178.3060  138.3330 C   0  0  0  0  0  3  0  0  0  0  0  0
  186.4790  179.3190  143.1930 C   0  0  0  0  0  2  0  0  0  0  0  0
  191.6970  176.9120  142.9130 C   0  0  1  0  0  3  0  0  0  0  0  0
  190.5690  176.4490  142.1300 C   0  0  1  0  0  3  0  0  0  0  0  0
  186.7760  177.8320  138.6140 C   0  0  0  0  0  0  0  0  0  0  0  0
  188.2860  178.0750  141.8930 C   0  0  0  0  0  0  0  0  0  0  0  0
  184.4420  179.5130  141.7450 N   0  0  0  0  0  2  0  0  0  0  0  0
  189.8090  176.6860  138.5810 C   0  0  0  0  0  0  0  0  0  0  0  0
  184.4250  180.5030  143.9680 C   0  0  0  0  0  1  0  0  0  0  0  0
  190.6570  177.8800  142.4680 N   0  0  1  0  0  0  0  0  0  0  0  0
  191.8010  175.4110  144.7330 O   0  0  0  0  0  0  0  0  0  0  0  0
  189.3120  178.1210  143.0130 C   0  0  2  0  0  3  0  0  0  0  0  0
  188.8250  176.9150  137.5000 C   0  0  0  0  0  3  0  0  0  0  0  0
  192.3020  176.7600  138.3340 C   0  0  0  0  0  3  0  0  0  0  0  0
  191.0840  176.1060  138.0850 C   0  0  0  0  0  0  0  0  0  0  0  0
  191.0950  174.8800  137.4000 C   0  0  0  0  0  3  0  0  0  0  0  0
  192.2960  172.8060  136.0940 Cl  0  0  0  0  0  0  0  0  0  0  0  0
  193.5050  174.9910  137.1980 C   0  0  0  0  0  3  0  0  0  0  0  0
  192.2990  174.3280  136.9550 C   0  0  0  0  0  0  0  0  0  0  0  0
  193.5060  176.2060  137.8900 C   0  0  0  0  0  3  0  0  0  0  0  0
  188.6240  177.5740  147.7900 C   0  0  0  0  0  1  0  0  0  0  0  0
  189.1860  176.7490  146.6470 C   0  0  0  0  0  2  0  0  0  0  0  0
  1  4  1  0  0  0  0
  2 17  1  0  0  0  0
  2 14  1  0  0  0  0
  2 24  1  0  0  0  0
  3  7  1  0  0  0  0
  3  9  1  0  0  0  0
  4 37  1  1  0  0  0
  6  9  2  0  0  0  0
  6 22  1  0  0  0  0
  7 21  2  0  0  0  0
  8 26  2  0  0  0  0
  8 12  1  0  0  0  0
  9 13  1  0  0  0  0
 10  7  1  0  0  0  0
 10  5  1  0  0  0  0
 11  6  1  0  0  0  0
 12  4  1  0  0  0  0
 13 17  1  0  0  0  0
 15 28  2  0  0  0  0
 15 20  1  0  0  0  0
 16 20  1  0  0  0  0
 16 11  2  0  0  0  0
 18  8  1  1  0  0  0
 19  5  1  6  0  0  0
 19 25  1  0  0  0  0
 19 18  1  0  0  0  0
 20  3  2  0  0  0  0
 21 13  1  0  0  0  0
 21 27  1  0  0  0  0
 22  2  1  0  0  0  0
 23 10  2  0  0  0  0
 25 18  1  0  0  0  0
 25 27  1  0  0  0  0
 27  1  1  0  0  0  0
 28 23  1  0  0  0  0
 30 29  1  0  0  0  0
 30 23  1  0  0  0  0
 31 30  2  0  0  0  0
 32 34  1  0  0  0  0
 33 35  1  0  0  0  0
 34 33  2  0  0  0  0
 34 31  1  0  0  0  0
 35 29  2  0  0  0  0
 37 36  1  0  0  0  0
M  END
>  <MODEL>
9

>  <REMARK>
 VINA RESULT:      -9.4      3.699      8.796
  Name = 
  2 active torsions:
  status: ('A' for Active; 'I' for Inactive)
    1  A    between atoms: C_4  and  C_37
    2  A    between atoms: C_23  and  C_30
                            x       y       z     vdW  Elec       q    Type
                         _______ _______ _______ _____ _____    ______ ____

>  <TORSDO>
F 2

$$$$
