=
 OpenBabel11122411163D

 31 35  0  0  1  0  0  0  0  0999 V2000
  184.2380  175.4130  136.1630 C   0  0  0  0  0  0  0  0  0  0  0  0
  182.3750  178.0360  138.1910 C   0  0  2  0  0  3  0  0  0  0  0  0
  181.7750  177.2570  139.3710 C   0  0  2  0  0  3  0  0  0  0  0  0
  180.1400  175.4400  139.7480 C   0  0  0  0  0  0  0  0  0  0  0  0
  183.5140  177.2730  137.5500 C   0  0  0  0  0  0  0  0  0  0  0  0
  185.5730  175.7330  136.4190 C   0  0  0  0  0  3  0  0  0  0  0  0
  181.0920  175.9750  138.9770 C   0  0  0  0  0  3  0  0  0  0  0  0
  184.1570  179.4010  139.4390 C   0  0  1  0  0  3  0  0  0  0  0  0
  183.9350  174.3560  135.3720 F   0  0  0  0  0  0  0  0  0  0  0  0
  180.9530  179.3860  140.2900 N   0  0  0  0  0  0  0  0  0  0  0  0
  179.5900  174.2500  139.4110 F   0  0  0  0  0  0  0  0  0  0  0  0
  185.2700  178.8360  138.5590 C   0  0  0  0  0  2  0  0  0  0  0  0
  182.8420  179.4290  138.6500 C   0  0  2  0  0  3  0  0  0  0  0  0
  183.2160  176.1790  136.7260 C   0  0  0  0  0  3  0  0  0  0  0  0
  179.6360  176.1740  140.9270 C   0  0  0  0  0  3  0  0  0  0  0  0
  184.8690  177.5970  137.8040 C   0  0  0  0  0  0  0  0  0  0  0  0
  185.8850  176.8270  137.2290 C   0  0  0  0  0  3  0  0  0  0  0  0
  181.7360  180.2070  139.3640 C   0  0  0  0  0  2  0  0  0  0  0  0
  180.8770  178.0890  140.2560 C   0  0  0  0  0  0  0  0  0  0  0  0
  179.9800  177.4100  141.1420 N   0  0  0  0  0  0  0  0  0  0  0  0
  185.7160  179.7460  141.8210 O   0  0  0  0  0  0  0  0  0  0  0  0
  184.8790  178.8050  141.7990 C   0  0  0  0  0  0  0  0  0  0  0  0
  184.0340  178.6160  140.6610 N   0  0  0  0  0  2  0  0  0  0  0  0
  185.3860  179.2890  145.4440 C   0  0  0  0  0  0  0  0  0  0  0  0
  183.7030  178.2580  143.9350 C   0  0  0  0  0  2  0  0  0  0  0  0
  187.0370  177.0050  143.1580 O   0  0  0  0  0  0  0  0  0  0  0  0
  185.6200  179.8860  146.5260 O   0  0  0  0  0  0  0  0  0  0  0  0
  184.0790  179.4970  144.7480 C   0  0  0  0  0  2  0  0  0  0  0  0
  186.1350  177.7300  143.6520 C   0  0  0  0  0  0  0  0  0  0  0  0
  184.8100  177.8560  142.9530 C   0  0  2  0  0  3  0  0  0  0  0  0
  186.3890  178.4530  144.8600 N   0  0  0  0  0  2  0  0  0  0  0  0
  1  6  2  0  0  0  0
  1 14  1  0  0  0  0
  2  5  1  1  0  0  0
  2 13  1  0  0  0  0
  2  3  1  0  0  0  0
  3  7  1  6  0  0  0
  3 19  1  0  0  0  0
  4 15  1  0  0  0  0
  5 16  1  0  0  0  0
  6 17  1  0  0  0  0
  7  4  2  0  0  0  0
  8 23  1  1  0  0  0
  9  1  1  0  0  0  0
 11  4  1  0  0  0  0
 12  8  1  0  0  0  0
 13 18  1  1  0  0  0
 13  8  1  0  0  0  0
 14  5  2  0  0  0  0
 15 20  2  0  0  0  0
 16 12  1  0  0  0  0
 17 16  2  0  0  0  0
 18 10  1  0  0  0  0
 19 10  2  0  0  0  0
 19 20  1  0  0  0  0
 22 21  2  0  0  0  0
 23 22  1  0  0  0  0
 24 27  2  0  0  0  0
 25 28  1  0  0  0  0
 26 29  2  0  0  0  0
 28 24  1  0  0  0  0
 29 31  1  0  0  0  0
 30 22  1  6  0  0  0
 30 29  1  0  0  0  0
 30 25  1  0  0  0  0
 31 24  1  0  0  0  0
M  END
>  <MODEL>
1

>  <REMARK>
 VINA RESULT:      -7.0      0.000      0.000
  Name = 
  2 active torsions:
  status: ('A' for Active; 'I' for Inactive)
    1  A    between atoms: C_5  and  C_30
    2  A    between atoms: C_10  and  N_16
                            x       y       z     vdW  Elec       q    Type
                         _______ _______ _______ _____ _____    ______ ____

>  <TORSDO>
F 2

$$$$
=
 OpenBabel11122411163D

 31 35  0  0  1  0  0  0  0  0999 V2000
  187.2730  172.8630  135.5540 C   0  0  0  0  0  0  0  0  0  0  0  0
  187.9680  176.5080  136.3850 C   0  0  2  0  0  3  0  0  0  0  0  0
  186.9350  176.8620  137.4660 C   0  0  2  0  0  3  0  0  0  0  0  0
  184.4780  177.0160  137.6950 C   0  0  0  0  0  0  0  0  0  0  0  0
  188.1550  175.0110  136.2710 C   0  0  0  0  0  0  0  0  0  0  0  0
  188.3700  172.2140  136.1220 C   0  0  0  0  0  3  0  0  0  0  0  0
  185.5350  176.4080  137.1490 C   0  0  0  0  0  3  0  0  0  0  0  0
  190.1060  176.5410  137.8070 C   0  0  1  0  0  3  0  0  0  0  0  0
  186.3080  172.1430  134.9330 F   0  0  0  0  0  0  0  0  0  0  0  0
  187.9780  179.0810  137.6640 N   0  0  0  0  0  0  0  0  0  0  0  0
  183.2310  176.5460  137.4520 F   0  0  0  0  0  0  0  0  0  0  0  0
  190.4370  175.1010  137.4230 C   0  0  0  0  0  2  0  0  0  0  0  0
  189.3090  177.2050  136.6770 C   0  0  2  0  0  3  0  0  0  0  0  0
  187.1670  174.2530  135.6280 C   0  0  0  0  0  3  0  0  0  0  0  0
  184.6560  178.2390  138.5050 C   0  0  0  0  0  3  0  0  0  0  0  0
  189.2690  174.3500  136.8430 C   0  0  0  0  0  0  0  0  0  0  0  0
  189.3690  172.9570  136.7560 C   0  0  0  0  0  3  0  0  0  0  0  0
  189.1510  178.7140  136.8660 C   0  0  0  0  0  2  0  0  0  0  0  0
  186.9450  178.3180  137.8650 C   0  0  0  0  0  0  0  0  0  0  0  0
  185.8090  178.8390  138.5640 N   0  0  0  0  0  0  0  0  0  0  0  0
  191.2470  177.0030  140.3970 O   0  0  0  0  0  0  0  0  0  0  0  0
  190.0130  176.7560  140.3350 C   0  0  0  0  0  0  0  0  0  0  0  0
  189.3760  176.5710  139.0690 N   0  0  0  0  0  2  0  0  0  0  0  0
  190.2220  178.5020  143.6050 C   0  0  0  0  0  0  0  0  0  0  0  0
  188.4780  177.8990  141.9410 C   0  0  0  0  0  2  0  0  0  0  0  0
  190.4270  174.9570  142.8530 O   0  0  0  0  0  0  0  0  0  0  0  0
  190.6250  179.3140  144.4750 O   0  0  0  0  0  0  0  0  0  0  0  0
  189.4180  178.9960  142.4430 C   0  0  0  0  0  2  0  0  0  0  0  0
  190.0970  176.1670  142.7470 C   0  0  0  0  0  0  0  0  0  0  0  0
  189.2290  176.6070  141.6010 C   0  0  2  0  0  3  0  0  0  0  0  0
  190.5750  177.1200  143.7010 N   0  0  0  0  0  2  0  0  0  0  0  0
  1 14  2  0  0  0  0
  1  6  1  0  0  0  0
  2  5  1  1  0  0  0
  2 13  1  0  0  0  0
  2  3  1  0  0  0  0
  3  7  1  6  0  0  0
  3 19  1  0  0  0  0
  4 15  1  0  0  0  0
  5 16  2  0  0  0  0
  6 17  2  0  0  0  0
  7  4  2  0  0  0  0
  8 23  1  1  0  0  0
  9  1  1  0  0  0  0
 10 19  2  0  0  0  0
 11  4  1  0  0  0  0
 12  8  1  0  0  0  0
 13 18  1  1  0  0  0
 13  8  1  0  0  0  0
 14  5  1  0  0  0  0
 15 20  2  0  0  0  0
 16 12  1  0  0  0  0
 17 16  1  0  0  0  0
 18 10  1  0  0  0  0
 19 20  1  0  0  0  0
 22 21  2  0  0  0  0
 23 22  1  0  0  0  0
 24 31  1  0  0  0  0
 24 27  2  0  0  0  0
 25 28  1  0  0  0  0
 28 24  1  0  0  0  0
 29 26  2  0  0  0  0
 29 31  1  0  0  0  0
 30 22  1  6  0  0  0
 30 25  1  0  0  0  0
 30 29  1  0  0  0  0
M  END
>  <MODEL>
2

>  <REMARK>
 VINA RESULT:      -6.9      3.847      5.611
  Name = 
  2 active torsions:
  status: ('A' for Active; 'I' for Inactive)
    1  A    between atoms: C_5  and  C_30
    2  A    between atoms: C_10  and  N_16
                            x       y       z     vdW  Elec       q    Type
                         _______ _______ _______ _____ _____    ______ ____

>  <TORSDO>
F 2

$$$$
=
 OpenBabel11122411163D

 31 35  0  0  1  0  0  0  0  0999 V2000
  186.9870  178.6500  141.8750 C   0  0  0  0  0  0  0  0  0  0  0  0
  184.1960  179.1150  139.3340 C   0  0  2  0  0  3  0  0  0  0  0  0
  184.3490  177.9270  138.3720 C   0  0  2  0  0  3  0  0  0  0  0  0
  186.0110  177.0550  136.7620 C   0  0  0  0  0  0  0  0  0  0  0  0
  184.8990  178.8510  140.6490 C   0  0  0  0  0  0  0  0  0  0  0  0
  186.2870  178.2630  143.0190 C   0  0  0  0  0  3  0  0  0  0  0  0
  185.7620  177.6880  137.9120 C   0  0  0  0  0  3  0  0  0  0  0  0
  182.0150  178.4360  140.5090 C   0  0  1  0  0  3  0  0  0  0  0  0
  188.3390  178.7380  141.9070 F   0  0  0  0  0  0  0  0  0  0  0  0
  182.3090  178.6700  137.2140 N   0  0  0  0  0  0  0  0  0  0  0  0
  187.2890  176.7860  136.4040 F   0  0  0  0  0  0  0  0  0  0  0  0
  182.6870  178.4780  141.8790 C   0  0  0  0  0  2  0  0  0  0  0  0
  182.7070  179.4280  139.5650 C   0  0  2  0  0  3  0  0  0  0  0  0
  186.2970  178.9430  140.6980 C   0  0  0  0  0  3  0  0  0  0  0  0
  184.9050  176.7080  135.8460 C   0  0  0  0  0  3  0  0  0  0  0  0
  184.1910  178.4610  141.8120 C   0  0  0  0  0  0  0  0  0  0  0  0
  184.8930  178.1790  142.9880 C   0  0  0  0  0  3  0  0  0  0  0  0
  181.9460  179.6340  138.2550 C   0  0  0  0  0  2  0  0  0  0  0  0
  183.4070  177.9740  137.1920 C   0  0  0  0  0  0  0  0  0  0  0  0
  183.7010  177.1540  136.0550 N   0  0  0  0  0  0  0  0  0  0  0  0
  179.7300  176.9000  139.7070 O   0  0  0  0  0  0  0  0  0  0  0  0
  180.8600  176.3480  139.6420 C   0  0  0  0  0  0  0  0  0  0  0  0
  182.0420  177.0790  139.9750 N   0  0  0  0  0  2  0  0  0  0  0  0
  179.5420  174.4620  136.7280 C   0  0  0  0  0  0  0  0  0  0  0  0
  181.6990  174.7290  137.9330 C   0  0  0  0  0  2  0  0  0  0  0  0
  179.0330  173.8970  140.2770 O   0  0  0  0  0  0  0  0  0  0  0  0
  178.9530  174.2520  135.6380 O   0  0  0  0  0  0  0  0  0  0  0  0
  180.8580  175.1750  136.7370 C   0  0  0  0  0  2  0  0  0  0  0  0
  179.5970  174.2530  139.2090 C   0  0  0  0  0  0  0  0  0  0  0  0
  180.9520  174.9040  139.2600 C   0  0  2  0  0  3  0  0  0  0  0  0
  178.9310  174.0640  137.9580 N   0  0  0  0  0  2  0  0  0  0  0  0
  1  9  1  0  0  0  0
  1  6  1  0  0  0  0
  2 13  1  0  0  0  0
  2  5  1  1  0  0  0
  3  7  1  6  0  0  0
  3  2  1  0  0  0  0
  4  7  2  0  0  0  0
  5 14  1  0  0  0  0
  5 16  2  0  0  0  0
  8 23  1  6  0  0  0
  8 12  1  0  0  0  0
 10 18  1  0  0  0  0
 11  4  1  0  0  0  0
 13 18  1  6  0  0  0
 13  8  1  0  0  0  0
 14  1  2  0  0  0  0
 15 20  2  0  0  0  0
 15  4  1  0  0  0  0
 16 12  1  0  0  0  0
 16 17  1  0  0  0  0
 17  6  2  0  0  0  0
 19 10  2  0  0  0  0
 19  3  1  0  0  0  0
 20 19  1  0  0  0  0
 22 21  2  0  0  0  0
 22 23  1  0  0  0  0
 24 28  1  0  0  0  0
 24 31  1  0  0  0  0
 25 30  1  0  0  0  0
 27 24  2  0  0  0  0
 28 25  1  0  0  0  0
 29 30  1  0  0  0  0
 29 26  2  0  0  0  0
 30 22  1  6  0  0  0
 31 29  1  0  0  0  0
M  END
>  <MODEL>
3

>  <REMARK>
 VINA RESULT:      -6.7      3.819      6.871
  Name = 
  2 active torsions:
  status: ('A' for Active; 'I' for Inactive)
    1  A    between atoms: C_5  and  C_30
    2  A    between atoms: C_10  and  N_16
                            x       y       z     vdW  Elec       q    Type
                         _______ _______ _______ _____ _____    ______ ____

>  <TORSDO>
F 2

$$$$
=
 OpenBabel11122411163D

 31 35  0  0  1  0  0  0  0  0999 V2000
  184.1270  178.5500  140.4140 C   0  0  0  0  0  0  0  0  0  0  0  0
  187.0040  178.4000  137.9320 C   0  0  2  0  0  3  0  0  0  0  0  0
  188.0600  177.5190  138.6180 C   0  0  2  0  0  3  0  0  0  0  0  0
  189.4780  177.5720  140.6430 C   0  0  0  0  0  0  0  0  0  0  0  0
  185.6340  178.1920  138.5430 C   0  0  0  0  0  0  0  0  0  0  0  0
  183.1590  177.7570  139.7960 C   0  0  0  0  0  3  0  0  0  0  0  0
  188.3160  177.8780  140.0580 C   0  0  0  0  0  3  0  0  0  0  0  0
  186.2710  176.8060  136.0560 C   0  0  1  0  0  3  0  0  0  0  0  0
  183.8740  179.1070  141.6230 F   0  0  0  0  0  0  0  0  0  0  0  0
  189.4300  177.6660  136.5800 N   0  0  0  0  0  0  0  0  0  0  0  0
  189.6600  177.8400  141.9580 F   0  0  0  0  0  0  0  0  0  0  0  0
  184.8170  176.8600  136.5180 C   0  0  0  0  0  2  0  0  0  0  0  0
  186.9750  178.1190  136.4190 C   0  0  2  0  0  3  0  0  0  0  0  0
  185.3560  178.7660  139.7910 C   0  0  0  0  0  3  0  0  0  0  0  0
  190.5890  177.0100  139.8480 C   0  0  0  0  0  3  0  0  0  0  0  0
  184.6480  177.3910  137.9160 C   0  0  0  0  0  0  0  0  0  0  0  0
  183.4170  177.1880  138.5470 C   0  0  0  0  0  3  0  0  0  0  0  0
  188.3560  178.2530  135.7760 C   0  0  0  0  0  2  0  0  0  0  0  0
  189.3590  177.4210  137.8540 C   0  0  0  0  0  0  0  0  0  0  0  0
  190.5220  176.9570  138.5500 N   0  0  0  0  0  0  0  0  0  0  0  0
  187.7490  174.8100  134.6230 O   0  0  0  0  0  0  0  0  0  0  0  0
  187.6230  174.6660  135.8680 C   0  0  0  0  0  0  0  0  0  0  0  0
  186.9450  175.6550  136.6450 N   0  0  0  0  0  2  0  0  0  0  0  0
  190.7070  172.6760  135.3060 C   0  0  0  0  0  0  0  0  0  0  0  0
  189.4850  173.6890  137.2180 C   0  0  0  0  0  2  0  0  0  0  0  0
  187.2310  171.6370  135.2190 O   0  0  0  0  0  0  0  0  0  0  0  0
  191.8120  172.3440  134.8070 O   0  0  0  0  0  0  0  0  0  0  0  0
  190.6300  173.8600  136.2190 C   0  0  0  0  0  2  0  0  0  0  0  0
  188.2590  172.2860  135.5450 C   0  0  0  0  0  0  0  0  0  0  0  0
  188.1470  173.4250  136.5210 C   0  0  2  0  0  3  0  0  0  0  0  0
  189.5220  171.9550  134.9610 N   0  0  0  0  0  2  0  0  0  0  0  0
  1  9  1  0  0  0  0
  2  5  1  1  0  0  0
  2  3  1  0  0  0  0
  3  7  1  1  0  0  0
  4 11  1  0  0  0  0
  5 14  1  0  0  0  0
  6  1  1  0  0  0  0
  7  4  2  0  0  0  0
  8 13  1  0  0  0  0
  8 12  1  0  0  0  0
  8 23  1  1  0  0  0
 10 19  2  0  0  0  0
 12 16  1  0  0  0  0
 13 18  1  1  0  0  0
 13  2  1  0  0  0  0
 14  1  2  0  0  0  0
 15  4  1  0  0  0  0
 16  5  2  0  0  0  0
 16 17  1  0  0  0  0
 17  6  2  0  0  0  0
 18 10  1  0  0  0  0
 19 20  1  0  0  0  0
 19  3  1  0  0  0  0
 20 15  2  0  0  0  0
 21 22  2  0  0  0  0
 22 23  1  0  0  0  0
 24 28  1  0  0  0  0
 26 29  2  0  0  0  0
 27 24  2  0  0  0  0
 28 25  1  0  0  0  0
 29 30  1  0  0  0  0
 30 22  1  6  0  0  0
 30 25  1  0  0  0  0
 31 24  1  0  0  0  0
 31 29  1  0  0  0  0
M  END
>  <MODEL>
4

>  <REMARK>
 VINA RESULT:      -6.5      5.355      8.504
  Name = 
  2 active torsions:
  status: ('A' for Active; 'I' for Inactive)
    1  A    between atoms: C_5  and  C_30
    2  A    between atoms: C_10  and  N_16
                            x       y       z     vdW  Elec       q    Type
                         _______ _______ _______ _____ _____    ______ ____

>  <TORSDO>
F 2

$$$$
=
 OpenBabel11122411163D

 31 35  0  0  1  0  0  0  0  0999 V2000
  190.3320  176.1550  142.4210 C   0  0  0  0  0  0  0  0  0  0  0  0
  189.8270  177.8050  139.0330 C   0  0  2  0  0  3  0  0  0  0  0  0
  189.7270  176.6340  138.0440 C   0  0  2  0  0  3  0  0  0  0  0  0
  191.1480  174.7880  137.2150 C   0  0  0  0  0  0  0  0  0  0  0  0
  189.5610  177.3510  140.4520 C   0  0  0  0  0  0  0  0  0  0  0  0
  189.1020  176.3730  143.0440 C   0  0  0  0  0  3  0  0  0  0  0  0
  190.7900  175.5840  138.2270 C   0  0  0  0  0  3  0  0  0  0  0  0
  187.3950  178.6270  138.9720 C   0  0  1  0  0  3  0  0  0  0  0  0
  191.3040  175.4660  143.0660 F   0  0  0  0  0  0  0  0  0  0  0  0
  189.2560  178.2540  136.2530 N   0  0  0  0  0  0  0  0  0  0  0  0
  192.0550  173.8030  137.4210 F   0  0  0  0  0  0  0  0  0  0  0  0
  187.2500  178.4460  140.4810 C   0  0  0  0  0  2  0  0  0  0  0  0
  188.8580  178.9310  138.6290 C   0  0  2  0  0  3  0  0  0  0  0  0
  190.5590  176.6420  141.1330 C   0  0  0  0  0  3  0  0  0  0  0  0
  190.6140  175.0210  135.8570 C   0  0  0  0  0  3  0  0  0  0  0  0
  188.3150  177.5740  141.0880 C   0  0  0  0  0  0  0  0  0  0  0  0
  188.1020  177.0880  142.3820 C   0  0  0  0  0  3  0  0  0  0  0  0
  189.0510  179.3720  137.1770 C   0  0  0  0  0  2  0  0  0  0  0  0
  189.6460  177.0630  136.5980 C   0  0  0  0  0  0  0  0  0  0  0  0
  189.9260  176.0910  135.5840 N   0  0  0  0  0  0  0  0  0  0  0  0
  184.7800  178.2830  137.8460 O   0  0  0  0  0  0  0  0  0  0  0  0
  185.5800  177.3120  137.7800 C   0  0  0  0  0  0  0  0  0  0  0  0
  186.9150  177.4400  138.2740 N   0  0  0  0  0  2  0  0  0  0  0  0
  182.8480  176.4660  135.4120 C   0  0  0  0  0  0  0  0  0  0  0  0
  185.2650  175.9620  135.7000 C   0  0  0  0  0  2  0  0  0  0  0  0
  183.4480  175.2640  138.7830 O   0  0  0  0  0  0  0  0  0  0  0  0
  181.8860  176.6420  134.6220 O   0  0  0  0  0  0  0  0  0  0  0  0
  184.2350  176.8410  134.9900 C   0  0  0  0  0  2  0  0  0  0  0  0
  183.6880  175.7090  137.6300 C   0  0  0  0  0  0  0  0  0  0  0  0
  185.1050  176.0060  137.2240 C   0  0  2  0  0  3  0  0  0  0  0  0
  182.6080  175.9570  136.7260 N   0  0  0  0  0  2  0  0  0  0  0  0
  1  6  1  0  0  0  0
  1  9  1  0  0  0  0
  2  5  1  1  0  0  0
  3  7  1  6  0  0  0
  3  2  1  0  0  0  0
  4 11  1  0  0  0  0
  4  7  2  0  0  0  0
  5 16  2  0  0  0  0
  5 14  1  0  0  0  0
  8 23  1  6  0  0  0
  8 12  1  0  0  0  0
 10 19  2  0  0  0  0
 10 18  1  0  0  0  0
 12 16  1  0  0  0  0
 13 18  1  6  0  0  0
 13  8  1  0  0  0  0
 13  2  1  0  0  0  0
 14  1  2  0  0  0  0
 15  4  1  0  0  0  0
 16 17  1  0  0  0  0
 17  6  2  0  0  0  0
 19  3  1  0  0  0  0
 20 15  2  0  0  0  0
 20 19  1  0  0  0  0
 22 21  2  0  0  0  0
 22 23  1  0  0  0  0
 24 31  1  0  0  0  0
 25 30  1  0  0  0  0
 27 24  2  0  0  0  0
 28 24  1  0  0  0  0
 28 25  1  0  0  0  0
 29 26  2  0  0  0  0
 30 29  1  0  0  0  0
 30 22  1  6  0  0  0
 31 29  1  0  0  0  0
M  END
>  <MODEL>
5

>  <REMARK>
 VINA RESULT:      -6.4      4.926      8.449
  Name = 
  2 active torsions:
  status: ('A' for Active; 'I' for Inactive)
    1  A    between atoms: C_5  and  C_30
    2  A    between atoms: C_10  and  N_16
                            x       y       z     vdW  Elec       q    Type
                         _______ _______ _______ _____ _____    ______ ____

>  <TORSDO>
F 2

$$$$
=
 OpenBabel11122411163D

 31 35  0  0  1  0  0  0  0  0999 V2000
  190.8160  173.3970  135.7930 C   0  0  0  0  0  0  0  0  0  0  0  0
  189.1810  176.7360  136.5920 C   0  0  2  0  0  3  0  0  0  0  0  0
  187.8760  176.3650  137.3130 C   0  0  2  0  0  3  0  0  0  0  0  0
  185.7700  175.1640  136.8220 C   0  0  0  0  0  0  0  0  0  0  0  0
  190.1680  175.5890  136.6170 C   0  0  0  0  0  0  0  0  0  0  0  0
  191.8890  173.3710  136.6850 C   0  0  0  0  0  3  0  0  0  0  0  0
  187.0880  175.2760  136.6330 C   0  0  0  0  0  3  0  0  0  0  0  0
  190.4870  177.7400  138.5620 C   0  0  1  0  0  3  0  0  0  0  0  0
  190.6010  172.3490  134.9630 F   0  0  0  0  0  0  0  0  0  0  0  0
  187.4570  178.7600  137.6810 N   0  0  0  0  0  0  0  0  0  0  0  0
  185.0940  174.1350  136.2590 F   0  0  0  0  0  0  0  0  0  0  0  0
  191.6310  176.7490  138.3660 C   0  0  0  0  0  2  0  0  0  0  0  0
  189.7960  178.0000  137.2180 C   0  0  2  0  0  3  0  0  0  0  0  0
  189.9620  174.5000  135.7600 C   0  0  0  0  0  3  0  0  0  0  0  0
  185.0350  176.1960  137.5820 C   0  0  0  0  0  3  0  0  0  0  0  0
  191.2610  175.5620  137.5180 C   0  0  0  0  0  0  0  0  0  0  0  0
  192.1150  174.4540  137.5370 C   0  0  0  0  0  3  0  0  0  0  0  0
  188.8050  179.1640  137.2730 C   0  0  0  0  0  2  0  0  0  0  0  0
  186.9900  177.5490  137.6200 C   0  0  0  0  0  0  0  0  0  0  0  0
  185.6150  177.3060  137.9360 N   0  0  0  0  0  0  0  0  0  0  0  0
  190.8010  177.9250  141.4070 O   0  0  0  0  0  0  0  0  0  0  0  0
  189.7900  177.3160  140.9660 C   0  0  0  0  0  0  0  0  0  0  0  0
  189.5500  177.2370  139.5590 N   0  0  0  0  0  2  0  0  0  0  0  0
  189.1170  177.8580  144.5770 C   0  0  0  0  0  0  0  0  0  0  0  0
  187.8180  177.6030  142.4730 C   0  0  0  0  0  2  0  0  0  0  0  0
  190.1810  174.8520  142.8440 O   0  0  0  0  0  0  0  0  0  0  0  0
  189.2000  178.3770  145.7190 O   0  0  0  0  0  0  0  0  0  0  0  0
  188.4160  178.5910  143.4760 C   0  0  0  0  0  2  0  0  0  0  0  0
  189.6230  175.9630  143.0430 C   0  0  0  0  0  0  0  0  0  0  0  0
  188.8690  176.6310  141.9260 C   0  0  2  0  0  3  0  0  0  0  0  0
  189.7350  176.5940  144.3210 N   0  0  0  0  0  2  0  0  0  0  0  0
  1  6  1  0  0  0  0
  2  5  1  1  0  0  0
  2 13  1  0  0  0  0
  2  3  1  0  0  0  0
  3  7  1  6  0  0  0
  3 19  1  0  0  0  0
  4 15  1  0  0  0  0
  5 16  2  0  0  0  0
  6 17  2  0  0  0  0
  7  4  2  0  0  0  0
  8 23  1  1  0  0  0
  9  1  1  0  0  0  0
 11  4  1  0  0  0  0
 12  8  1  0  0  0  0
 13 18  1  1  0  0  0
 13  8  1  0  0  0  0
 14  1  2  0  0  0  0
 14  5  1  0  0  0  0
 15 20  2  0  0  0  0
 16 17  1  0  0  0  0
 16 12  1  0  0  0  0
 18 10  1  0  0  0  0
 19 10  2  0  0  0  0
 19 20  1  0  0  0  0
 22 21  2  0  0  0  0
 23 22  1  0  0  0  0
 24 27  2  0  0  0  0
 25 28  1  0  0  0  0
 26 29  2  0  0  0  0
 28 24  1  0  0  0  0
 29 31  1  0  0  0  0
 30 22  1  6  0  0  0
 30 25  1  0  0  0  0
 30 29  1  0  0  0  0
 31 24  1  0  0  0  0
M  END
>  <MODEL>
6

>  <REMARK>
 VINA RESULT:      -6.2      4.217      6.075
  Name = 
  2 active torsions:
  status: ('A' for Active; 'I' for Inactive)
    1  A    between atoms: C_5  and  C_30
    2  A    between atoms: C_10  and  N_16
                            x       y       z     vdW  Elec       q    Type
                         _______ _______ _______ _____ _____    ______ ____

>  <TORSDO>
F 2

$$$$
=
 OpenBabel11122411163D

 31 35  0  0  1  0  0  0  0  0999 V2000
  183.0050  176.5820  138.6590 C   0  0  0  0  0  0  0  0  0  0  0  0
  186.2940  178.2660  137.7640 C   0  0  2  0  0  3  0  0  0  0  0  0
  187.2330  177.9260  138.9320 C   0  0  2  0  0  3  0  0  0  0  0  0
  187.3870  178.3500  141.3630 C   0  0  0  0  0  0  0  0  0  0  0  0
  185.1170  177.3160  137.7100 C   0  0  0  0  0  0  0  0  0  0  0  0
  182.9550  175.5240  137.7500 C   0  0  0  0  0  3  0  0  0  0  0  0
  186.6200  178.1310  140.2910 C   0  0  0  0  0  3  0  0  0  0  0  0
  187.3710  176.8390  135.9200 C   0  0  1  0  0  3  0  0  0  0  0  0
  182.0110  176.7410  139.5660 F   0  0  0  0  0  0  0  0  0  0  0  0
  189.0580  179.0500  137.7250 N   0  0  0  0  0  0  0  0  0  0  0  0
  186.8190  178.4600  142.5870 F   0  0  0  0  0  0  0  0  0  0  0  0
  186.0620  176.0940  135.6710 C   0  0  0  0  0  2  0  0  0  0  0  0
  187.0690  178.2520  136.4340 C   0  0  2  0  0  3  0  0  0  0  0  0
  184.0790  177.4720  138.6380 C   0  0  0  0  0  3  0  0  0  0  0  0
  188.8440  178.5430  141.2110 C   0  0  0  0  0  3  0  0  0  0  0  0
  185.0620  176.2440  136.7860 C   0  0  0  0  0  0  0  0  0  0  0  0
  183.9770  175.3620  136.8110 C   0  0  0  0  0  3  0  0  0  0  0  0
  188.3060  179.1500  136.4710 C   0  0  0  0  0  2  0  0  0  0  0  0
  188.5800  178.6030  138.8480 C   0  0  0  0  0  0  0  0  0  0  0  0
  189.3820  178.6710  140.0330 N   0  0  0  0  0  0  0  0  0  0  0  0
  190.1240  176.1390  135.5260 O   0  0  0  0  0  0  0  0  0  0  0  0
  189.5590  175.7320  136.5770 C   0  0  0  0  0  0  0  0  0  0  0  0
  188.2050  176.0940  136.8550 N   0  0  0  0  0  2  0  0  0  0  0  0
  193.1070  175.6570  137.6660 C   0  0  0  0  0  0  0  0  0  0  0  0
  190.8530  175.5950  138.7100 C   0  0  0  0  0  2  0  0  0  0  0  0
  191.1090  173.0640  136.0990 O   0  0  0  0  0  0  0  0  0  0  0  0
  194.3120  176.0040  137.7570 O   0  0  0  0  0  0  0  0  0  0  0  0
  192.0460  176.4750  138.3310 C   0  0  0  0  0  2  0  0  0  0  0  0
  191.3940  174.0720  136.7970 C   0  0  0  0  0  0  0  0  0  0  0  0
  190.3020  174.8240  137.5060 C   0  0  2  0  0  3  0  0  0  0  0  0
  192.7520  174.5120  136.8850 N   0  0  0  0  0  2  0  0  0  0  0  0
  1  9  1  0  0  0  0
  2  5  1  6  0  0  0
  2  3  1  0  0  0  0
  3  7  1  1  0  0  0
  4 11  1  0  0  0  0
  5 14  2  0  0  0  0
  6  1  2  0  0  0  0
  7  4  2  0  0  0  0
  8 13  1  0  0  0  0
  8 23  1  1  0  0  0
 10 19  2  0  0  0  0
 12  8  1  0  0  0  0
 12 16  1  0  0  0  0
 13 18  1  1  0  0  0
 13  2  1  0  0  0  0
 14  1  1  0  0  0  0
 15  4  1  0  0  0  0
 16 17  2  0  0  0  0
 16  5  1  0  0  0  0
 17  6  1  0  0  0  0
 18 10  1  0  0  0  0
 19  3  1  0  0  0  0
 19 20  1  0  0  0  0
 20 15  2  0  0  0  0
 21 22  2  0  0  0  0
 22 23  1  0  0  0  0
 24 27  2  0  0  0  0
 24 28  1  0  0  0  0
 26 29  2  0  0  0  0
 28 25  1  0  0  0  0
 29 31  1  0  0  0  0
 29 30  1  0  0  0  0
 30 22  1  6  0  0  0
 30 25  1  0  0  0  0
 31 24  1  0  0  0  0
M  END
>  <MODEL>
7

>  <REMARK>
 VINA RESULT:      -6.0      5.077      7.524
  Name = 
  2 active torsions:
  status: ('A' for Active; 'I' for Inactive)
    1  A    between atoms: C_5  and  C_30
    2  A    between atoms: C_10  and  N_16
                            x       y       z     vdW  Elec       q    Type
                         _______ _______ _______ _____ _____    ______ ____

>  <TORSDO>
F 2

$$$$
=
 OpenBabel11122411163D

 31 35  0  0  1  0  0  0  0  0999 V2000
  179.8930  175.4200  140.8210 C   0  0  0  0  0  0  0  0  0  0  0  0
  181.9560  178.3830  139.6290 C   0  0  2  0  0  3  0  0  0  0  0  0
  183.3060  178.2270  140.3450 C   0  0  2  0  0  3  0  0  0  0  0  0
  184.1830  178.2250  142.6580 C   0  0  0  0  0  0  0  0  0  0  0  0
  181.1910  177.0780  139.6080 C   0  0  0  0  0  0  0  0  0  0  0  0
  179.8490  174.6120  139.6840 C   0  0  0  0  0  3  0  0  0  0  0  0
  183.1900  177.9250  141.8160 C   0  0  0  0  0  3  0  0  0  0  0  0
  182.6830  177.8510  137.2240 C   0  0  1  0  0  3  0  0  0  0  0  0
  179.2920  175.0120  141.9650 F   0  0  0  0  0  0  0  0  0  0  0  0
  184.1390  180.1730  139.0910 N   0  0  0  0  0  0  0  0  0  0  0  0
  184.0870  177.8790  143.9630 F   0  0  0  0  0  0  0  0  0  0  0  0
  181.6680  176.7150  137.1220 C   0  0  0  0  0  2  0  0  0  0  0  0
  182.1670  178.9150  138.2010 C   0  0  2  0  0  3  0  0  0  0  0  0
  180.5600  176.6460  140.7830 C   0  0  0  0  0  3  0  0  0  0  0  0
  185.3540  178.9930  142.1870 C   0  0  0  0  0  3  0  0  0  0  0  0
  181.1400  176.2580  138.4550 C   0  0  0  0  0  0  0  0  0  0  0  0
  180.4630  175.0350  138.5030 C   0  0  0  0  0  3  0  0  0  0  0  0
  182.9970  180.2000  138.1740 C   0  0  0  0  0  2  0  0  0  0  0  0
  184.2570  179.3780  140.1120 C   0  0  0  0  0  0  0  0  0  0  0  0
  185.3670  179.5330  141.0040 N   0  0  0  0  0  0  0  0  0  0  0  0
  184.8360  177.1360  135.4690 O   0  0  0  0  0  0  0  0  0  0  0  0
  184.9970  176.9440  136.7040 C   0  0  0  0  0  0  0  0  0  0  0  0
  183.9820  177.3310  137.6340 N   0  0  0  0  0  2  0  0  0  0  0  0
  188.5450  177.2080  135.6450 C   0  0  0  0  0  0  0  0  0  0  0  0
  187.2390  177.2730  137.7580 C   0  0  0  0  0  2  0  0  0  0  0  0
  186.3950  174.2910  135.8380 O   0  0  0  0  0  0  0  0  0  0  0  0
  189.5500  177.6080  135.0040 O   0  0  0  0  0  0  0  0  0  0  0  0
  187.9070  178.1030  136.6610 C   0  0  0  0  0  2  0  0  0  0  0  0
  186.8690  175.4250  136.1080 C   0  0  0  0  0  0  0  0  0  0  0  0
  186.2380  176.2620  137.1860 C   0  0  2  0  0  3  0  0  0  0  0  0
  187.9870  175.9220  135.3660 N   0  0  0  0  0  2  0  0  0  0  0  0
  1  9  1  0  0  0  0
  2  5  1  6  0  0  0
  2  3  1  0  0  0  0
  3  7  1  1  0  0  0
  4 11  1  0  0  0  0
  5 14  2  0  0  0  0
  6  1  2  0  0  0  0
  7  4  2  0  0  0  0
  8 23  1  1  0  0  0
  8 13  1  0  0  0  0
 10 19  2  0  0  0  0
 12  8  1  0  0  0  0
 12 16  1  0  0  0  0
 13 18  1  1  0  0  0
 13  2  1  0  0  0  0
 14  1  1  0  0  0  0
 15  4  1  0  0  0  0
 16 17  2  0  0  0  0
 16  5  1  0  0  0  0
 17  6  1  0  0  0  0
 18 10  1  0  0  0  0
 19  3  1  0  0  0  0
 19 20  1  0  0  0  0
 20 15  2  0  0  0  0
 21 22  2  0  0  0  0
 22 23  1  0  0  0  0
 24 28  1  0  0  0  0
 26 29  2  0  0  0  0
 27 24  2  0  0  0  0
 28 25  1  0  0  0  0
 29 30  1  0  0  0  0
 30 22  1  6  0  0  0
 30 25  1  0  0  0  0
 31 24  1  0  0  0  0
 31 29  1  0  0  0  0
M  END
>  <MODEL>
8

>  <REMARK>
 VINA RESULT:      -6.0      3.679      6.285
  Name = 
  2 active torsions:
  status: ('A' for Active; 'I' for Inactive)
    1  A    between atoms: C_5  and  C_30
    2  A    between atoms: C_10  and  N_16
                            x       y       z     vdW  Elec       q    Type
                         _______ _______ _______ _____ _____    ______ ____

>  <TORSDO>
F 2

$$$$
=
 OpenBabel11122411163D

 31 35  0  0  1  0  0  0  0  0999 V2000
  189.9920  177.4180  140.7360 C   0  0  0  0  0  0  0  0  0  0  0  0
  188.3700  177.3410  137.2970 C   0  0  2  0  0  3  0  0  0  0  0  0
  188.1430  175.8490  137.0110 C   0  0  2  0  0  3  0  0  0  0  0  0
  189.4930  173.8000  136.6980 C   0  0  0  0  0  0  0  0  0  0  0  0
  188.5650  177.5930  138.7770 C   0  0  0  0  0  0  0  0  0  0  0  0
  188.9660  177.9220  141.5370 C   0  0  0  0  0  3  0  0  0  0  0  0
  189.3350  174.9780  137.3080 C   0  0  0  0  0  3  0  0  0  0  0  0
  185.9350  178.0900  137.6180 C   0  0  1  0  0  3  0  0  0  0  0  0
  191.1810  177.0830  141.2910 F   0  0  0  0  0  0  0  0  0  0  0  0
  187.0000  176.4760  134.9250 N   0  0  0  0  0  0  0  0  0  0  0  0
  190.5340  173.0020  137.0340 F   0  0  0  0  0  0  0  0  0  0  0  0
  186.2370  178.6250  139.0160 C   0  0  0  0  0  2  0  0  0  0  0  0
  187.1980  178.1740  136.7510 C   0  0  2  0  0  3  0  0  0  0  0  0
  189.7920  177.2560  139.3640 C   0  0  0  0  0  3  0  0  0  0  0  0
  188.5790  173.3950  135.6100 C   0  0  0  0  0  3  0  0  0  0  0  0
  187.5270  178.1080  139.5920 C   0  0  0  0  0  0  0  0  0  0  0  0
  187.7420  178.2740  140.9640 C   0  0  0  0  0  3  0  0  0  0  0  0
  186.9250  177.8970  135.2720 C   0  0  0  0  0  2  0  0  0  0  0  0
  187.6120  175.5680  135.6250 C   0  0  0  0  0  0  0  0  0  0  0  0
  187.7170  174.2340  135.1140 N   0  0  0  0  0  0  0  0  0  0  0  0
  183.1750  177.3150  137.5420 O   0  0  0  0  0  0  0  0  0  0  0  0
  184.0350  176.4090  137.7070 C   0  0  0  0  0  0  0  0  0  0  0  0
  185.4280  176.7260  137.6980 N   0  0  0  0  0  2  0  0  0  0  0  0
  182.1510  173.9890  135.6140 C   0  0  0  0  0  0  0  0  0  0  0  0
  184.2310  174.0290  136.9730 C   0  0  0  0  0  2  0  0  0  0  0  0
  181.4110  175.2470  138.9370 O   0  0  0  0  0  0  0  0  0  0  0  0
  181.5430  173.5300  134.6140 O   0  0  0  0  0  0  0  0  0  0  0  0
  183.6380  174.1530  135.5690 C   0  0  0  0  0  2  0  0  0  0  0  0
  182.0840  174.8880  137.9360 C   0  0  0  0  0  0  0  0  0  0  0  0
  183.5830  175.0050  137.9610 C   0  0  2  0  0  3  0  0  0  0  0  0
  181.4150  174.4000  136.7700 N   0  0  0  0  0  2  0  0  0  0  0  0
  1  9  1  0  0  0  0
  1  6  1  0  0  0  0
  2  5  1  1  0  0  0
  3  2  1  0  0  0  0
  3  7  1  6  0  0  0
  4 11  1  0  0  0  0
  4  7  2  0  0  0  0
  5 14  1  0  0  0  0
  5 16  2  0  0  0  0
  8 23  1  1  0  0  0
  8 12  1  0  0  0  0
 10 18  1  0  0  0  0
 10 19  2  0  0  0  0
 12 16  1  0  0  0  0
 13 18  1  6  0  0  0
 13  2  1  0  0  0  0
 13  8  1  0  0  0  0
 14  1  2  0  0  0  0
 15  4  1  0  0  0  0
 16 17  1  0  0  0  0
 17  6  2  0  0  0  0
 19  3  1  0  0  0  0
 20 15  2  0  0  0  0
 20 19  1  0  0  0  0
 21 22  2  0  0  0  0
 23 22  1  0  0  0  0
 24 31  1  0  0  0  0
 25 30  1  0  0  0  0
 27 24  2  0  0  0  0
 28 24  1  0  0  0  0
 28 25  1  0  0  0  0
 29 30  1  0  0  0  0
 29 26  2  0  0  0  0
 30 22  1  6  0  0  0
 31 29  1  0  0  0  0
M  END
>  <MODEL>
9

>  <REMARK>
 VINA RESULT:      -5.8      4.761      7.976
  Name = 
  2 active torsions:
  status: ('A' for Active; 'I' for Inactive)
    1  A    between atoms: C_5  and  C_30
    2  A    between atoms: C_10  and  N_16
                            x       y       z     vdW  Elec       q    Type
                         _______ _______ _______ _____ _____    ______ ____

>  <TORSDO>
F 2

$$$$
