=
 OpenBabel11122410333D

 30 35  0  0  1  0  0  0  0  0999 V2000
  185.6420  178.4640  139.8560 C   0  0  0  0  0  0  0  0  0  0  0  0
  186.4610  178.2250  137.4160 C   0  0  0  0  0  0  0  0  0  0  0  0
  188.9590  177.1570  141.1440 N   0  0  0  0  0  2  0  0  0  0  0  0
  185.8810  178.7230  141.1570 C   0  0  0  0  0  0  0  0  0  0  0  0
  184.3150  178.3640  139.4110 O   0  0  0  0  0  0  0  0  0  0  0  0
  182.4590  178.8030  142.4000 O   0  0  0  0  0  0  0  0  0  0  0  0
  185.3580  178.3240  144.2830 C   0  0  1  0  0  3  0  0  0  0  0  0
  183.4400  178.6700  141.6200 C   0  0  0  0  0  0  0  0  0  0  0  0
  186.3230  177.2940  143.6910 C   0  0  2  0  0  3  0  0  0  0  0  0
  188.5000  176.8900  142.4500 C   0  0  0  0  0  0  0  0  0  0  0  0
  183.2260  178.0500  140.2780 C   0  0  2  0  0  3  0  0  0  0  0  0
  184.7730  179.0500  142.0200 N   0  0  0  0  0  0  0  0  0  0  0  0
  187.5060  178.3870  136.5030 O   0  0  0  0  0  0  0  0  0  0  0  0
  186.7720  176.5300  144.9290 C   0  0  0  0  0  2  0  0  0  0  0  0
  185.9480  178.7230  145.6190 C   0  0  0  0  0  2  0  0  0  0  0  0
  185.3050  177.9650  136.9890 O   0  0  0  0  0  0  0  0  0  0  0  0
  188.4160  178.4290  140.7120 C   0  0  0  0  0  0  0  0  0  0  0  0
  188.7770  178.8630  136.9350 C   0  0  0  0  0  2  0  0  0  0  0  0
  186.7430  178.3330  138.8710 C   0  0  0  0  0  0  0  0  0  0  0  0
  187.2970  178.7990  141.7140 C   0  0  0  0  0  0  0  0  0  0  0  0
  188.9170  175.9050  143.1120 O   0  0  0  0  0  0  0  0  0  0  0  0
  187.5560  177.9160  142.9730 C   0  0  1  0  0  3  0  0  0  0  0  0
  186.7170  177.5050  146.0960 C   0  0  0  0  0  2  0  0  0  0  0  0
  184.0640  180.4870  143.9380 C   0  0  0  0  0  1  0  0  0  0  0  0
  189.1460  178.2090  138.2620 C   0  0  0  0  0  2  0  0  0  0  0  0
  188.0300  178.3710  139.2640 C   0  0  0  0  0  0  0  0  0  0  0  0
  185.0940  179.5170  143.3730 C   0  0  1  0  0  3  0  0  0  0  0  0
  183.1030  176.5410  140.4320 C   0  0  0  0  0  2  0  0  0  0  0  0
  183.5710  175.2710  138.4910 F   0  0  0  0  0  0  0  0  0  0  0  0
  182.5550  175.9290  139.1580 C   0  0  0  0  0  2  0  0  0  0  0  0
  1  4  1  0  0  0  0
  2 19  1  0  0  0  0
  3 10  1  0  0  0  0
  4 20  2  0  0  0  0
  4 12  1  0  0  0  0
  5  1  1  0  0  0  0
  5 11  1  0  0  0  0
  7 15  1  1  0  0  0
  8 12  1  0  0  0  0
  8  6  2  0  0  0  0
  9  7  1  0  0  0  0
  9 14  1  1  0  0  0
 10 22  1  0  0  0  0
 10 21  2  0  0  0  0
 11 28  1  1  0  0  0
 11  8  1  0  0  0  0
 12 27  1  0  0  0  0
 13 18  1  0  0  0  0
 13  2  1  0  0  0  0
 14 23  1  0  0  0  0
 15 23  1  0  0  0  0
 16  2  2  0  0  0  0
 17  3  1  0  0  0  0
 17 20  1  0  0  0  0
 18 25  1  0  0  0  0
 19 26  1  0  0  0  0
 19  1  2  0  0  0  0
 22 20  1  6  0  0  0
 22  9  1  0  0  0  0
 25 26  1  0  0  0  0
 26 17  2  0  0  0  0
 27 24  1  1  0  0  0
 27  7  1  0  0  0  0
 29 30  1  0  0  0  0
 30 28  1  0  0  0  0
M  END
>  <MODEL>
1

>  <REMARK>
 VINA RESULT:      -7.1      0.000      0.000
  Name = 
  2 active torsions:
  status: ('A' for Active; 'I' for Inactive)
    1  A    between atoms: C_11  and  C_28
    2  A    between atoms: C_28  and  C_30
                            x       y       z     vdW  Elec       q    Type
                         _______ _______ _______ _____ _____    ______ ____

>  <TORSDO>
F 2

$$$$
=
 OpenBabel11122410333D

 30 35  0  0  1  0  0  0  0  0999 V2000
  186.1200  177.8330  138.0120 C   0  0  0  0  0  0  0  0  0  0  0  0
  184.2080  179.1450  139.1540 C   0  0  0  0  0  0  0  0  0  0  0  0
  183.9060  174.7700  137.7240 N   0  0  0  0  0  2  0  0  0  0  0  0
  186.5490  176.9110  137.1280 C   0  0  0  0  0  0  0  0  0  0  0  0
  187.0540  178.6820  138.6240 O   0  0  0  0  0  0  0  0  0  0  0  0
  190.1350  177.5200  137.3070 O   0  0  0  0  0  0  0  0  0  0  0  0
  188.5590  174.6350  136.1370 C   0  0  1  0  0  3  0  0  0  0  0  0
  188.9000  177.5990  137.5460 C   0  0  0  0  0  0  0  0  0  0  0  0
  187.4530  174.1120  137.0570 C   0  0  2  0  0  3  0  0  0  0  0  0
  184.9570  173.8700  137.4540 C   0  0  0  0  0  0  0  0  0  0  0  0
  188.4380  178.3510  138.7510 C   0  0  2  0  0  3  0  0  0  0  0  0
  187.9310  176.9280  136.7150 N   0  0  0  0  0  0  0  0  0  0  0  0
  182.8440  179.4470  139.1890 O   0  0  0  0  0  0  0  0  0  0  0  0
  187.6930  172.6090  137.0220 C   0  0  0  0  0  2  0  0  0  0  0  0
  188.6980  173.6080  135.0330 C   0  0  0  0  0  2  0  0  0  0  0  0
  185.0070  179.8220  139.8540 O   0  0  0  0  0  0  0  0  0  0  0  0
  184.1330  175.9880  136.9740 C   0  0  0  0  0  0  0  0  0  0  0  0
  181.9420  178.8310  138.2760 C   0  0  0  0  0  2  0  0  0  0  0  0
  184.6790  178.0120  138.3170 C   0  0  0  0  0  0  0  0  0  0  0  0
  185.5920  175.9300  136.4620 C   0  0  0  0  0  0  0  0  0  0  0  0
  184.9460  172.6870  137.8830 O   0  0  0  0  0  0  0  0  0  0  0  0
  186.0110  174.4320  136.5650 C   0  0  1  0  0  3  0  0  0  0  0  0
  188.2950  172.2870  135.6620 C   0  0  0  0  0  2  0  0  0  0  0  0
  189.4610  176.5810  134.7690 C   0  0  0  0  0  1  0  0  0  0  0  0
  182.2930  177.3550  138.1260 C   0  0  0  0  0  2  0  0  0  0  0  0
  183.7540  177.1870  137.7910 C   0  0  0  0  0  0  0  0  0  0  0  0
  188.3100  176.0410  135.6090 C   0  0  1  0  0  3  0  0  0  0  0  0
  188.6570  177.5010  139.9930 C   0  0  0  0  0  2  0  0  0  0  0  0
  187.0780  178.1150  141.6450 F   0  0  0  0  0  0  0  0  0  0  0  0
  188.3830  178.3180  141.2410 C   0  0  0  0  0  2  0  0  0  0  0  0
  1 19  1  0  0  0  0
  1  5  1  0  0  0  0
  2 13  1  0  0  0  0
  2 16  2  0  0  0  0
  4  1  2  0  0  0  0
  5 11  1  0  0  0  0
  6  8  2  0  0  0  0
  7 15  1  6  0  0  0
  7  9  1  0  0  0  0
  8 11  1  0  0  0  0
  9 14  1  6  0  0  0
 10  3  1  0  0  0  0
 10 21  2  0  0  0  0
 11 28  1  1  0  0  0
 12  4  1  0  0  0  0
 12  8  1  0  0  0  0
 15 23  1  0  0  0  0
 17  3  1  0  0  0  0
 17 26  1  0  0  0  0
 18 13  1  0  0  0  0
 19  2  1  0  0  0  0
 20 17  2  0  0  0  0
 20  4  1  0  0  0  0
 22 20  1  1  0  0  0
 22  9  1  0  0  0  0
 22 10  1  0  0  0  0
 23 14  1  0  0  0  0
 25 18  1  0  0  0  0
 26 25  1  0  0  0  0
 26 19  2  0  0  0  0
 27 24  1  1  0  0  0
 27  7  1  0  0  0  0
 27 12  1  0  0  0  0
 28 30  1  0  0  0  0
 30 29  1  0  0  0  0
M  END
>  <MODEL>
2

>  <REMARK>
 VINA RESULT:      -7.0      3.501      7.104
  Name = 
  2 active torsions:
  status: ('A' for Active; 'I' for Inactive)
    1  A    between atoms: C_11  and  C_28
    2  A    between atoms: C_28  and  C_30
                            x       y       z     vdW  Elec       q    Type
                         _______ _______ _______ _____ _____    ______ ____

>  <TORSDO>
F 2

$$$$
=
 OpenBabel11122410333D

 30 35  0  0  1  0  0  0  0  0999 V2000
  185.7050  178.3640  140.3020 C   0  0  0  0  0  0  0  0  0  0  0  0
  183.8800  178.7860  142.0840 C   0  0  0  0  0  0  0  0  0  0  0  0
  183.4130  175.9760  138.4550 N   0  0  0  0  0  2  0  0  0  0  0  0
  186.0700  178.1060  139.0310 C   0  0  0  0  0  0  0  0  0  0  0  0
  186.6870  178.7280  141.2360 O   0  0  0  0  0  0  0  0  0  0  0  0
  189.6730  178.5410  139.3320 O   0  0  0  0  0  0  0  0  0  0  0  0
  187.9780  176.8030  136.8250 C   0  0  1  0  0  3  0  0  0  0  0  0
  188.4540  178.4600  139.6390 C   0  0  0  0  0  0  0  0  0  0  0  0
  186.9080  175.8420  137.3470 C   0  0  2  0  0  3  0  0  0  0  0  0
  184.4290  175.3960  137.6700 C   0  0  0  0  0  0  0  0  0  0  0  0
  188.0670  178.3970  141.0810 C   0  0  2  0  0  3  0  0  0  0  0  0
  187.4300  178.3650  138.6270 N   0  0  0  0  0  0  0  0  0  0  0  0
  182.5270  179.0030  142.3550 O   0  0  0  0  0  0  0  0  0  0  0  0
  187.1120  174.6230  136.4590 C   0  0  0  0  0  2  0  0  0  0  0  0
  188.0400  176.5790  135.3290 C   0  0  0  0  0  2  0  0  0  0  0  0
  184.7280  178.9580  143.0000 O   0  0  0  0  0  0  0  0  0  0  0  0
  183.6300  177.4080  138.5110 C   0  0  0  0  0  0  0  0  0  0  0  0
  181.5680  179.0000  141.3020 C   0  0  0  0  0  2  0  0  0  0  0  0
  184.2860  178.3260  140.7300 C   0  0  0  0  0  0  0  0  0  0  0  0
  185.0600  177.6620  137.9800 C   0  0  0  0  0  0  0  0  0  0  0  0
  184.4130  174.1760  137.3570 O   0  0  0  0  0  0  0  0  0  0  0  0
  185.4510  176.3700  137.1980 C   0  0  1  0  0  3  0  0  0  0  0  0
  187.6400  175.1300  135.1240 C   0  0  0  0  0  2  0  0  0  0  0  0
  188.8550  179.1900  136.7460 C   0  0  0  0  0  1  0  0  0  0  0  0
  181.8790  177.8700  140.3290 C   0  0  0  0  0  2  0  0  0  0  0  0
  183.3180  177.9330  139.8800 C   0  0  0  0  0  0  0  0  0  0  0  0
  187.7350  178.2600  137.1960 C   0  0  1  0  0  3  0  0  0  0  0  0
  188.3280  176.9960  141.6140 C   0  0  0  0  0  2  0  0  0  0  0  0
  187.5570  176.0100  143.6220 F   0  0  0  0  0  0  0  0  0  0  0  0
  188.3690  177.0130  143.1290 C   0  0  0  0  0  2  0  0  0  0  0  0
  1 19  1  0  0  0  0
  1  5  1  0  0  0  0
  2 13  1  0  0  0  0
  2 16  2  0  0  0  0
  3 17  1  0  0  0  0
  4  1  2  0  0  0  0
  6  8  2  0  0  0  0
  7 15  1  6  0  0  0
  7 27  1  0  0  0  0
  7  9  1  0  0  0  0
  8 11  1  0  0  0  0
  9 14  1  6  0  0  0
 10  3  1  0  0  0  0
 11  5  1  0  0  0  0
 11 28  1  6  0  0  0
 12  4  1  0  0  0  0
 12  8  1  0  0  0  0
 17 26  1  0  0  0  0
 18 13  1  0  0  0  0
 19  2  1  0  0  0  0
 20 17  2  0  0  0  0
 20  4  1  0  0  0  0
 21 10  2  0  0  0  0
 22  9  1  0  0  0  0
 22 10  1  1  0  0  0
 22 20  1  0  0  0  0
 23 15  1  0  0  0  0
 23 14  1  0  0  0  0
 25 18  1  0  0  0  0
 26 25  1  0  0  0  0
 26 19  2  0  0  0  0
 27 24  1  1  0  0  0
 27 12  1  0  0  0  0
 28 30  1  0  0  0  0
 30 29  1  0  0  0  0
M  END
>  <MODEL>
3

>  <REMARK>
 VINA RESULT:      -6.3      2.567      6.661
  Name = 
  2 active torsions:
  status: ('A' for Active; 'I' for Inactive)
    1  A    between atoms: C_11  and  C_28
    2  A    between atoms: C_28  and  C_30
                            x       y       z     vdW  Elec       q    Type
                         _______ _______ _______ _____ _____    ______ ____

>  <TORSDO>
F 2

$$$$
=
 OpenBabel11122410333D

 30 35  0  0  1  0  0  0  0  0999 V2000
  188.2740  177.9880  140.4420 C   0  0  0  0  0  0  0  0  0  0  0  0
  185.9230  178.8910  141.0250 C   0  0  0  0  0  0  0  0  0  0  0  0
  186.9100  176.3220  137.3230 N   0  0  0  0  0  2  0  0  0  0  0  0
  189.2090  177.6410  139.5360 C   0  0  0  0  0  0  0  0  0  0  0  0
  188.6290  178.0670  141.7970 O   0  0  0  0  0  0  0  0  0  0  0  0
  192.0320  177.0710  141.7650 O   0  0  0  0  0  0  0  0  0  0  0  0
  191.6600  175.8680  138.5110 C   0  0  1  0  0  3  0  0  0  0  0  0
  190.8660  177.3270  141.3620 C   0  0  0  0  0  0  0  0  0  0  0  0
  190.2940  175.2360  138.2320 C   0  0  2  0  0  3  0  0  0  0  0  0
  188.0270  175.4860  137.1180 C   0  0  0  0  0  0  0  0  0  0  0  0
  189.7460  177.3700  142.3500 C   0  0  2  0  0  3  0  0  0  0  0  0
  190.5820  177.5180  139.9600 N   0  0  0  0  0  0  0  0  0  0  0  0
  184.7370  179.4700  140.5660 O   0  0  0  0  0  0  0  0  0  0  0  0
  190.6710  174.0090  137.4140 C   0  0  0  0  0  2  0  0  0  0  0  0
  192.4850  175.6370  137.2620 C   0  0  0  0  0  2  0  0  0  0  0  0
  186.1360  178.8230  142.2640 O   0  0  0  0  0  0  0  0  0  0  0  0
  187.3800  177.6390  137.7020 C   0  0  0  0  0  0  0  0  0  0  0  0
  184.5480  179.7320  139.1790 C   0  0  0  0  0  2  0  0  0  0  0  0
  186.8900  178.3400  140.0400 C   0  0  0  0  0  0  0  0  0  0  0  0
  188.8780  177.4920  138.0570 C   0  0  0  0  0  0  0  0  0  0  0  0
  187.9080  174.3180  136.6630 O   0  0  0  0  0  0  0  0  0  0  0  0
  189.3290  176.1440  137.4150 C   0  0  1  0  0  3  0  0  0  0  0  0
  191.9460  174.3530  136.6580 C   0  0  0  0  0  2  0  0  0  0  0  0
  192.9510  177.9230  139.2740 C   0  0  0  0  0  1  0  0  0  0  0  0
  185.0780  178.5610  138.3600 C   0  0  0  0  0  2  0  0  0  0  0  0
  186.4930  178.2280  138.7580 C   0  0  0  0  0  0  0  0  0  0  0  0
  191.5930  177.3350  138.9130 C   0  0  1  0  0  3  0  0  0  0  0  0
  189.3420  175.9510  142.7190 C   0  0  0  0  0  2  0  0  0  0  0  0
  188.2240  176.7110  144.6620 F   0  0  0  0  0  0  0  0  0  0  0  0
  188.0490  175.9650  143.5120 C   0  0  0  0  0  2  0  0  0  0  0  0
  1  5  1  0  0  0  0
  2 16  2  0  0  0  0
  3 17  1  0  0  0  0
  4 12  1  0  0  0  0
  4  1  2  0  0  0  0
  5 11  1  0  0  0  0
  7 15  1  6  0  0  0
  7 27  1  0  0  0  0
  8  6  2  0  0  0  0
  8 11  1  0  0  0  0
  9 14  1  6  0  0  0
  9  7  1  0  0  0  0
 10  3  1  0  0  0  0
 11 28  1  6  0  0  0
 12  8  1  0  0  0  0
 13  2  1  0  0  0  0
 17 20  2  0  0  0  0
 17 26  1  0  0  0  0
 18 13  1  0  0  0  0
 19  1  1  0  0  0  0
 19  2  1  0  0  0  0
 20  4  1  0  0  0  0
 21 10  2  0  0  0  0
 22 10  1  1  0  0  0
 22 20  1  0  0  0  0
 22  9  1  0  0  0  0
 23 15  1  0  0  0  0
 23 14  1  0  0  0  0
 25 26  1  0  0  0  0
 25 18  1  0  0  0  0
 26 19  2  0  0  0  0
 27 24  1  1  0  0  0
 27 12  1  0  0  0  0
 28 30  1  0  0  0  0
 30 29  1  0  0  0  0
M  END
>  <MODEL>
4

>  <REMARK>
 VINA RESULT:      -6.2      3.080      6.696
  Name = 
  2 active torsions:
  status: ('A' for Active; 'I' for Inactive)
    1  A    between atoms: C_11  and  C_28
    2  A    between atoms: C_28  and  C_30
                            x       y       z     vdW  Elec       q    Type
                         _______ _______ _______ _____ _____    ______ ____

>  <TORSDO>
F 2

$$$$
=
 OpenBabel11122410333D

 30 35  0  0  1  0  0  0  0  0999 V2000
  180.6940  179.6580  140.0940 C   0  0  0  0  0  0  0  0  0  0  0  0
  179.4930  180.4930  142.2250 C   0  0  0  0  0  0  0  0  0  0  0  0
  183.6420  178.4770  142.1640 N   0  0  0  0  0  2  0  0  0  0  0  0
  181.5060  178.7840  139.4680 C   0  0  0  0  0  0  0  0  0  0  0  0
  179.9540  180.5730  139.3300 O   0  0  0  0  0  0  0  0  0  0  0  0
  181.0110  179.8560  136.0220 O   0  0  0  0  0  0  0  0  0  0  0  0
  183.6850  177.9930  137.2700 C   0  0  1  0  0  3  0  0  0  0  0  0
  180.9340  179.8150  137.2790 C   0  0  0  0  0  0  0  0  0  0  0  0
  184.2950  178.5590  138.5540 C   0  0  2  0  0  3  0  0  0  0  0  0
  184.5250  178.3390  141.0730 C   0  0  0  0  0  0  0  0  0  0  0  0
  180.3310  180.9690  138.0110 C   0  0  2  0  0  3  0  0  0  0  0  0
  181.4700  178.7040  138.0280 N   0  0  0  0  0  0  0  0  0  0  0  0
  179.1650  180.2540  143.5620 O   0  0  0  0  0  0  0  0  0  0  0  0
  185.7860  178.3860  138.3040 C   0  0  0  0  0  2  0  0  0  0  0  0
  184.5650  176.8260  136.8750 C   0  0  0  0  0  2  0  0  0  0  0  0
  178.9310  181.4390  141.6120 O   0  0  0  0  0  0  0  0  0  0  0  0
  182.3430  177.9630  141.7770 C   0  0  0  0  0  0  0  0  0  0  0  0
  179.6380  179.0860  144.2260 C   0  0  0  0  0  2  0  0  0  0  0  0
  180.5210  179.6460  141.5670 C   0  0  0  0  0  0  0  0  0  0  0  0
  182.3710  177.7960  140.2390 C   0  0  0  0  0  0  0  0  0  0  0  0
  185.7520  178.5980  141.1760 O   0  0  0  0  0  0  0  0  0  0  0  0
  183.8800  177.7960  139.8460 C   0  0  1  0  0  3  0  0  0  0  0  0
  185.9460  177.1690  137.4030 C   0  0  0  0  0  2  0  0  0  0  0  0
  181.6020  177.1310  136.0890 C   0  0  0  0  0  1  0  0  0  0  0  0
  181.0900  178.8310  143.8410 C   0  0  0  0  0  2  0  0  0  0  0  0
  181.2500  178.8200  142.3410 C   0  0  0  0  0  0  0  0  0  0  0  0
  182.2170  177.6090  137.3990 C   0  0  1  0  0  3  0  0  0  0  0  0
  181.3380  182.1070  138.0790 C   0  0  0  0  0  2  0  0  0  0  0  0
  181.7490  184.3230  137.3560 F   0  0  0  0  0  0  0  0  0  0  0  0
  180.9010  183.2460  137.1780 C   0  0  0  0  0  2  0  0  0  0  0  0
  1 19  1  0  0  0  0
  2 13  1  0  0  0  0
  4  1  2  0  0  0  0
  4 20  1  0  0  0  0
  5  1  1  0  0  0  0
  6  8  2  0  0  0  0
  7 15  1  1  0  0  0
  7 27  1  0  0  0  0
  7  9  1  0  0  0  0
  8 11  1  0  0  0  0
  8 12  1  0  0  0  0
  9 14  1  6  0  0  0
  9 22  1  0  0  0  0
 10 21  2  0  0  0  0
 10  3  1  0  0  0  0
 11 28  1  1  0  0  0
 11  5  1  0  0  0  0
 12  4  1  0  0  0  0
 13 18  1  0  0  0  0
 15 23  1  0  0  0  0
 16  2  2  0  0  0  0
 17  3  1  0  0  0  0
 17 26  1  0  0  0  0
 19  2  1  0  0  0  0
 19 26  2  0  0  0  0
 20 17  2  0  0  0  0
 22 20  1  1  0  0  0
 22 10  1  0  0  0  0
 23 14  1  0  0  0  0
 25 18  1  0  0  0  0
 26 25  1  0  0  0  0
 27 24  1  6  0  0  0
 27 12  1  0  0  0  0
 30 29  1  0  0  0  0
 30 28  1  0  0  0  0
M  END
>  <MODEL>
5

>  <REMARK>
 VINA RESULT:      -6.1      3.761      7.225
  Name = 
  2 active torsions:
  status: ('A' for Active; 'I' for Inactive)
    1  A    between atoms: C_11  and  C_28
    2  A    between atoms: C_28  and  C_30
                            x       y       z     vdW  Elec       q    Type
                         _______ _______ _______ _____ _____    ______ ____

>  <TORSDO>
F 2

$$$$
=
 OpenBabel11122410333D

 30 35  0  0  1  0  0  0  0  0999 V2000
  186.8420  175.6790  136.8320 C   0  0  0  0  0  0  0  0  0  0  0  0
  189.3140  175.0280  137.2170 C   0  0  0  0  0  0  0  0  0  0  0  0
  187.0630  178.3090  139.5530 N   0  0  0  0  0  2  0  0  0  0  0  0
  185.8590  176.6010  136.8040 C   0  0  0  0  0  0  0  0  0  0  0  0
  186.5980  174.4010  136.3060 O   0  0  0  0  0  0  0  0  0  0  0  0
  183.1950  174.6020  135.3300 O   0  0  0  0  0  0  0  0  0  0  0  0
  182.8300  177.5440  137.1710 C   0  0  1  0  0  3  0  0  0  0  0  0
  184.3110  174.9240  135.8180 C   0  0  0  0  0  0  0  0  0  0  0  0
  183.6360  177.5700  138.4710 C   0  0  2  0  0  3  0  0  0  0  0  0
  185.6700  178.4760  139.6910 C   0  0  0  0  0  0  0  0  0  0  0  0
  185.2860  173.8520  136.1770 C   0  0  2  0  0  3  0  0  0  0  0  0
  184.6400  176.3020  136.0920 N   0  0  0  0  0  0  0  0  0  0  0  0
  190.6210  175.4590  137.4600 O   0  0  0  0  0  0  0  0  0  0  0  0
  182.6500  178.1960  139.4460 C   0  0  0  0  0  2  0  0  0  0  0  0
  182.0000  178.8100  137.1740 C   0  0  0  0  0  2  0  0  0  0  0  0
  189.1090  173.8240  136.9120 O   0  0  0  0  0  0  0  0  0  0  0  0
  187.3820  178.2120  138.1430 C   0  0  0  0  0  0  0  0  0  0  0  0
  190.9080  176.8440  137.6230 C   0  0  0  0  0  2  0  0  0  0  0  0
  188.1930  175.9940  137.3560 C   0  0  0  0  0  0  0  0  0  0  0  0
  186.0440  177.9910  137.3980 C   0  0  0  0  0  0  0  0  0  0  0  0
  185.1360  178.7070  140.8070 O   0  0  0  0  0  0  0  0  0  0  0  0
  184.9320  178.4310  138.3990 C   0  0  1  0  0  3  0  0  0  0  0  0
  181.7550  179.1250  138.6380 C   0  0  0  0  0  2  0  0  0  0  0  0
  182.8580  177.2840  134.6400 C   0  0  0  0  0  1  0  0  0  0  0  0
  189.8240  177.4970  138.4710 C   0  0  0  0  0  2  0  0  0  0  0  0
  188.4560  177.1910  137.9150 C   0  0  0  0  0  0  0  0  0  0  0  0
  183.6820  177.3980  135.9170 C   0  0  1  0  0  3  0  0  0  0  0  0
  184.8650  173.2020  137.4870 C   0  0  0  0  0  2  0  0  0  0  0  0
  184.5620  171.1990  136.2650 F   0  0  0  0  0  0  0  0  0  0  0  0
  183.9700  172.0090  137.2150 C   0  0  0  0  0  2  0  0  0  0  0  0
  1 19  1  0  0  0  0
  2 19  1  0  0  0  0
  2 13  1  0  0  0  0
  3 10  1  0  0  0  0
  4  1  2  0  0  0  0
  4 20  1  0  0  0  0
  5  1  1  0  0  0  0
  6  8  2  0  0  0  0
  7 15  1  6  0  0  0
  7  9  1  0  0  0  0
  8 12  1  0  0  0  0
  8 11  1  0  0  0  0
  9 14  1  1  0  0  0
 10 21  2  0  0  0  0
 11  5  1  0  0  0  0
 11 28  1  1  0  0  0
 12  4  1  0  0  0  0
 13 18  1  0  0  0  0
 15 23  1  0  0  0  0
 16  2  2  0  0  0  0
 17  3  1  0  0  0  0
 18 25  1  0  0  0  0
 19 26  2  0  0  0  0
 20 17  2  0  0  0  0
 22 20  1  6  0  0  0
 22  9  1  0  0  0  0
 22 10  1  0  0  0  0
 23 14  1  0  0  0  0
 26 17  1  0  0  0  0
 26 25  1  0  0  0  0
 27 24  1  6  0  0  0
 27 12  1  0  0  0  0
 27  7  1  0  0  0  0
 29 30  1  0  0  0  0
 30 28  1  0  0  0  0
M  END
>  <MODEL>
6

>  <REMARK>
 VINA RESULT:      -5.8      3.535      5.806
  Name = 
  2 active torsions:
  status: ('A' for Active; 'I' for Inactive)
    1  A    between atoms: C_11  and  C_28
    2  A    between atoms: C_28  and  C_30
                            x       y       z     vdW  Elec       q    Type
                         _______ _______ _______ _____ _____    ______ ____

>  <TORSDO>
F 2

$$$$
=
 OpenBabel11122410333D

 30 35  0  0  1  0  0  0  0  0999 V2000
  183.4760  177.4430  137.4750 C   0  0  0  0  0  0  0  0  0  0  0  0
  185.7200  176.5600  136.5430 C   0  0  0  0  0  0  0  0  0  0  0  0
  185.1710  178.4740  140.7040 N   0  0  0  0  0  2  0  0  0  0  0  0
  182.7760  178.3200  138.2210 C   0  0  0  0  0  0  0  0  0  0  0  0
  182.7880  176.5760  136.6120 O   0  0  0  0  0  0  0  0  0  0  0  0
  179.3940  177.3890  137.2420 O   0  0  0  0  0  0  0  0  0  0  0  0
  180.3350  179.1380  140.1110 C   0  0  1  0  0  3  0  0  0  0  0  0
  180.6510  177.3850  137.3340 C   0  0  0  0  0  0  0  0  0  0  0  0
  181.5060  178.5090  140.8690 C   0  0  2  0  0  3  0  0  0  0  0  0
  183.9780  178.6300  141.4380 C   0  0  0  0  0  0  0  0  0  0  0  0
  181.4180  176.2200  136.7990 C   0  0  2  0  0  3  0  0  0  0  0  0
  181.3580  178.4540  137.9970 N   0  0  0  0  0  0  0  0  0  0  0  0
  187.0960  176.7570  136.4030 O   0  0  0  0  0  0  0  0  0  0  0  0
  181.0650  178.6550  142.3180 C   0  0  0  0  0  2  0  0  0  0  0  0
  179.8650  180.2960  140.9660 C   0  0  0  0  0  2  0  0  0  0  0  0
  185.1560  175.6520  135.8760 O   0  0  0  0  0  0  0  0  0  0  0  0
  184.9790  179.0340  139.3820 C   0  0  0  0  0  0  0  0  0  0  0  0
  187.7290  177.8880  136.9940 C   0  0  0  0  0  2  0  0  0  0  0  0
  184.9580  177.4050  137.4990 C   0  0  0  0  0  0  0  0  0  0  0  0
  183.4580  179.2570  139.2090 C   0  0  0  0  0  0  0  0  0  0  0  0
  183.9060  178.3380  142.6600 O   0  0  0  0  0  0  0  0  0  0  0  0
  182.8670  179.2340  140.6520 C   0  0  1  0  0  3  0  0  0  0  0  0
  180.1920  179.9000  142.3930 C   0  0  0  0  0  2  0  0  0  0  0  0
  179.4730  180.0940  137.9170 C   0  0  0  0  0  1  0  0  0  0  0  0
  187.1620  178.1220  138.3890 C   0  0  0  0  0  2  0  0  0  0  0  0
  185.6560  178.1840  138.3480 C   0  0  0  0  0  0  0  0  0  0  0  0
  180.6720  179.5530  138.6860 C   0  0  1  0  0  3  0  0  0  0  0  0
  181.3120  175.0550  137.7720 C   0  0  0  0  0  2  0  0  0  0  0  0
  183.2470  173.7080  137.5630 F   0  0  0  0  0  0  0  0  0  0  0  0
  181.9270  173.8100  137.1660 C   0  0  0  0  0  2  0  0  0  0  0  0
  1 19  2  0  0  0  0
  1  4  1  0  0  0  0
  2 19  1  0  0  0  0
  3 10  1  0  0  0  0
  4 20  2  0  0  0  0
  5 11  1  0  0  0  0
  5  1  1  0  0  0  0
  6  8  2  0  0  0  0
  7  9  1  0  0  0  0
  7 15  1  1  0  0  0
  8 12  1  0  0  0  0
  9 14  1  1  0  0  0
 10 21  2  0  0  0  0
 11  8  1  0  0  0  0
 11 28  1  1  0  0  0
 12  4  1  0  0  0  0
 12 27  1  0  0  0  0
 13  2  1  0  0  0  0
 13 18  1  0  0  0  0
 14 23  1  0  0  0  0
 15 23  1  0  0  0  0
 16  2  2  0  0  0  0
 17  3  1  0  0  0  0
 18 25  1  0  0  0  0
 19 26  1  0  0  0  0
 20 17  1  0  0  0  0
 22 20  1  6  0  0  0
 22  9  1  0  0  0  0
 22 10  1  0  0  0  0
 26 25  1  0  0  0  0
 26 17  2  0  0  0  0
 27 24  1  6  0  0  0
 27  7  1  0  0  0  0
 30 29  1  0  0  0  0
 30 28  1  0  0  0  0
M  END
>  <MODEL>
7

>  <REMARK>
 VINA RESULT:      -5.3      2.989      4.799
  Name = 
  2 active torsions:
  status: ('A' for Active; 'I' for Inactive)
    1  A    between atoms: C_11  and  C_28
    2  A    between atoms: C_28  and  C_30
                            x       y       z     vdW  Elec       q    Type
                         _______ _______ _______ _____ _____    ______ ____

>  <TORSDO>
F 2

$$$$
=
 OpenBabel11122410333D

 30 35  0  0  1  0  0  0  0  0999 V2000
  182.8630  177.5380  138.9920 C   0  0  0  0  0  0  0  0  0  0  0  0
  184.9940  178.9670  138.6790 C   0  0  0  0  0  0  0  0  0  0  0  0
  183.6750  175.5590  135.8630 N   0  0  0  0  0  2  0  0  0  0  0  0
  182.2050  176.3670  138.8810 C   0  0  0  0  0  0  0  0  0  0  0  0
  182.2840  178.5810  139.7300 O   0  0  0  0  0  0  0  0  0  0  0  0
  179.1720  177.1970  140.7180 O   0  0  0  0  0  0  0  0  0  0  0  0
  179.5800  174.6090  138.4140 C   0  0  1  0  0  3  0  0  0  0  0  0
  180.2970  177.3130  140.1630 C   0  0  0  0  0  0  0  0  0  0  0  0
  180.2660  175.0340  137.1140 C   0  0  2  0  0  3  0  0  0  0  0  0
  182.3900  174.9960  135.7230 C   0  0  0  0  0  0  0  0  0  0  0  0
  180.8800  178.6750  139.9730 C   0  0  2  0  0  3  0  0  0  0  0  0
  181.0050  176.1630  139.6550 N   0  0  0  0  0  0  0  0  0  0  0  0
  186.3500  179.0010  138.3430 O   0  0  0  0  0  0  0  0  0  0  0  0
  179.4490  174.2950  136.0640 C   0  0  0  0  0  2  0  0  0  0  0  0
  179.1690  173.1660  138.2110 C   0  0  0  0  0  2  0  0  0  0  0  0
  184.4590  179.9870  139.1870 O   0  0  0  0  0  0  0  0  0  0  0  0
  184.0460  175.5280  137.2630 C   0  0  0  0  0  0  0  0  0  0  0  0
  187.0270  177.8140  137.9450 C   0  0  0  0  0  2  0  0  0  0  0  0
  184.2070  177.7370  138.3990 C   0  0  0  0  0  0  0  0  0  0  0  0
  182.7570  175.2110  138.0580 C   0  0  0  0  0  0  0  0  0  0  0  0
  181.8750  174.7890  134.5940 O   0  0  0  0  0  0  0  0  0  0  0  0
  181.7620  174.6120  137.0170 C   0  0  1  0  0  3  0  0  0  0  0  0
  178.9310  173.0230  136.7190 C   0  0  0  0  0  2  0  0  0  0  0  0
  179.7020  174.4690  140.9510 C   0  0  0  0  0  1  0  0  0  0  0  0
  186.1330  177.0000  137.0170 C   0  0  0  0  0  2  0  0  0  0  0  0
  184.7770  176.7810  137.6410 C   0  0  0  0  0  0  0  0  0  0  0  0
  180.4330  174.8120  139.6580 C   0  0  1  0  0  3  0  0  0  0  0  0
  180.1950  179.3590  138.7990 C   0  0  0  0  0  2  0  0  0  0  0  0
  181.5610  180.8390  137.5570 F   0  0  0  0  0  0  0  0  0  0  0  0
  180.7120  180.7760  138.6450 C   0  0  0  0  0  2  0  0  0  0  0  0
  1  5  1  0  0  0  0
  2 16  2  0  0  0  0
  3 17  1  0  0  0  0
  4  1  1  0  0  0  0
  4 12  1  0  0  0  0
  5 11  1  0  0  0  0
  7 15  1  6  0  0  0
  7 27  1  0  0  0  0
  8  6  2  0  0  0  0
  9 14  1  6  0  0  0
  9  7  1  0  0  0  0
 10  3  1  0  0  0  0
 11 28  1  6  0  0  0
 11  8  1  0  0  0  0
 12 27  1  0  0  0  0
 12  8  1  0  0  0  0
 13  2  1  0  0  0  0
 14 23  1  0  0  0  0
 17 26  2  0  0  0  0
 17 20  1  0  0  0  0
 18 13  1  0  0  0  0
 19  2  1  0  0  0  0
 19  1  2  0  0  0  0
 20  4  2  0  0  0  0
 21 10  2  0  0  0  0
 22 10  1  6  0  0  0
 22  9  1  0  0  0  0
 22 20  1  0  0  0  0
 23 15  1  0  0  0  0
 25 26  1  0  0  0  0
 25 18  1  0  0  0  0
 26 19  1  0  0  0  0
 27 24  1  1  0  0  0
 29 30  1  0  0  0  0
 30 28  1  0  0  0  0
M  END
>  <MODEL>
8

>  <REMARK>
 VINA RESULT:      -5.2      4.330      6.840
  Name = 
  2 active torsions:
  status: ('A' for Active; 'I' for Inactive)
    1  A    between atoms: C_11  and  C_28
    2  A    between atoms: C_28  and  C_30
                            x       y       z     vdW  Elec       q    Type
                         _______ _______ _______ _____ _____    ______ ____

>  <TORSDO>
F 2

$$$$
=
 OpenBabel11122410333D

 30 35  0  0  1  0  0  0  0  0999 V2000
  182.9010  178.6990  138.4090 C   0  0  0  0  0  0  0  0  0  0  0  0
  180.5170  179.6400  138.7430 C   0  0  0  0  0  0  0  0  0  0  0  0
  181.5220  175.7950  136.4020 N   0  0  0  0  0  2  0  0  0  0  0  0
  183.8150  178.0480  137.6630 C   0  0  0  0  0  0  0  0  0  0  0  0
  183.3160  179.3660  139.5720 O   0  0  0  0  0  0  0  0  0  0  0  0
  186.7830  178.6290  139.6920 O   0  0  0  0  0  0  0  0  0  0  0  0
  186.3470  176.1370  137.2880 C   0  0  1  0  0  3  0  0  0  0  0  0
  185.5810  178.6280  139.3130 C   0  0  0  0  0  0  0  0  0  0  0  0
  185.0250  175.3770  137.4110 C   0  0  2  0  0  3  0  0  0  0  0  0
  182.6910  175.0100  136.4800 C   0  0  0  0  0  0  0  0  0  0  0  0
  184.5130  179.0300  140.2760 C   0  0  2  0  0  3  0  0  0  0  0  0
  185.2130  178.1890  137.9880 N   0  0  0  0  0  0  0  0  0  0  0  0
  179.2670  179.9070  138.1780 O   0  0  0  0  0  0  0  0  0  0  0  0
  185.4580  173.9400  137.1590 C   0  0  0  0  0  2  0  0  0  0  0  0
  187.1240  175.4400  136.1920 C   0  0  0  0  0  2  0  0  0  0  0  0
  180.7970  180.1180  139.8740 O   0  0  0  0  0  0  0  0  0  0  0  0
  181.9020  177.1700  136.1530 C   0  0  0  0  0  0  0  0  0  0  0  0
  178.9890  179.5430  136.8300 C   0  0  0  0  0  2  0  0  0  0  0  0
  181.4760  178.7740  138.0090 C   0  0  0  0  0  0  0  0  0  0  0  0
  183.4240  177.2660  136.4150 C   0  0  0  0  0  0  0  0  0  0  0  0
  182.6450  173.7560  136.5710 O   0  0  0  0  0  0  0  0  0  0  0  0
  183.9490  175.7990  136.3680 C   0  0  1  0  0  3  0  0  0  0  0  0
  186.6620  173.9950  136.2290 C   0  0  0  0  0  2  0  0  0  0  0  0
  187.5040  178.3860  137.0090 C   0  0  0  0  0  1  0  0  0  0  0  0
  179.5690  178.1640  136.5410 C   0  0  0  0  0  2  0  0  0  0  0  0
  181.0250  178.1060  136.9290 C   0  0  0  0  0  0  0  0  0  0  0  0
  186.1810  177.6300  137.0390 C   0  0  1  0  0  3  0  0  0  0  0  0
  184.2430  177.8840  141.2400 C   0  0  0  0  0  2  0  0  0  0  0  0
  185.2530  179.4340  142.7150 F   0  0  0  0  0  0  0  0  0  0  0  0
  184.3830  178.3620  142.6720 C   0  0  0  0  0  2  0  0  0  0  0  0
  1  5  1  0  0  0  0
  2 16  2  0  0  0  0
  3 10  1  0  0  0  0
  4 12  1  0  0  0  0
  4  1  2  0  0  0  0
  5 11  1  0  0  0  0
  7 15  1  6  0  0  0
  7  9  1  0  0  0  0
  8  6  2  0  0  0  0
  8 11  1  0  0  0  0
  9 14  1  6  0  0  0
 10 21  2  0  0  0  0
 11 28  1  1  0  0  0
 12  8  1  0  0  0  0
 13  2  1  0  0  0  0
 15 23  1  0  0  0  0
 17  3  1  0  0  0  0
 17 20  2  0  0  0  0
 17 26  1  0  0  0  0
 18 13  1  0  0  0  0
 19  1  1  0  0  0  0
 19  2  1  0  0  0  0
 20  4  1  0  0  0  0
 22 20  1  1  0  0  0
 22 10  1  0  0  0  0
 22  9  1  0  0  0  0
 23 14  1  0  0  0  0
 25 18  1  0  0  0  0
 25 26  1  0  0  0  0
 26 19  2  0  0  0  0
 27 24  1  1  0  0  0
 27  7  1  0  0  0  0
 27 12  1  0  0  0  0
 28 30  1  0  0  0  0
 30 29  1  0  0  0  0
M  END
>  <MODEL>
9

>  <REMARK>
 VINA RESULT:      -5.1      3.573      6.991
  Name = 
  2 active torsions:
  status: ('A' for Active; 'I' for Inactive)
    1  A    between atoms: C_11  and  C_28
    2  A    between atoms: C_28  and  C_30
                            x       y       z     vdW  Elec       q    Type
                         _______ _______ _______ _____ _____    ______ ____

>  <TORSDO>
F 2

$$$$
