=
 OpenBabel11122411093D

 31 35  0  0  1  0  0  0  0  0999 V2000
  191.5640  175.6920  146.3500 C   0  0  1  0  0  3  0  0  0  0  0  0
  189.1440  177.4550  144.5710 C   0  0  0  0  0  0  0  0  0  0  0  0
  188.2550  177.7560  145.6420 C   0  0  0  0  0  0  0  0  0  0  0  0
  190.9120  176.6940  139.6140 O   0  0  0  0  0  0  0  0  0  0  0  0
  189.6900  177.0060  139.5790 C   0  0  0  0  0  0  0  0  0  0  0  0
  187.7790  178.1570  148.0030 C   0  0  0  0  0  0  0  0  0  0  0  0
  190.5680  177.2220  144.7360 N   0  0  0  0  0  0  0  0  0  0  0  0
  192.4300  175.1080  145.2320 C   0  0  0  0  0  2  0  0  0  0  0  0
  188.6810  177.8640  146.9760 C   0  0  0  0  0  3  0  0  0  0  0  0
  189.4980  177.1390  142.1290 C   0  0  0  0  0  0  0  0  0  0  0  0
  192.3110  175.6150  147.6640 C   0  0  0  0  0  1  0  0  0  0  0  0
  186.4200  177.8750  144.0580 C   0  0  0  0  0  3  0  0  0  0  0  0
  188.2600  178.2610  149.4050 C   0  0  0  0  0  1  0  0  0  0  0  0
  190.7530  176.8670  142.3200 N   0  0  0  0  0  0  0  0  0  0  0  0
  188.6100  177.3950  143.2700 C   0  0  0  0  0  0  0  0  0  0  0  0
  188.9660  177.2270  140.7990 N   0  0  0  0  0  2  0  0  0  0  0  0
  191.2220  177.1470  146.0410 C   0  0  0  0  0  2  0  0  0  0  0  0
  186.4290  178.3490  147.7120 C   0  0  0  0  0  3  0  0  0  0  0  0
  191.3910  176.7150  143.6280 C   0  0  2  0  0  3  0  0  0  0  0  0
  191.7330  175.2480  143.8780 C   0  0  0  0  0  2  0  0  0  0  0  0
  187.2840  177.6030  143.0510 N   0  0  0  0  0  0  0  0  0  0  0  0
  186.8800  177.9600  145.3660 C   0  0  0  0  0  0  0  0  0  0  0  0
  185.9800  178.2520  146.3950 C   0  0  0  0  0  3  0  0  0  0  0  0
  187.6600  177.3330  135.8120 C   0  0  0  0  0  0  0  0  0  0  0  0
  188.5730  175.9910  137.6050 C   0  0  0  0  0  3  0  0  0  0  0  0
  189.1180  179.5570  138.3110 F   0  0  0  0  0  0  0  0  0  0  0  0
  187.0030  177.4250  134.5940 O   0  0  0  0  0  1  0  0  0  0  0  0
  187.9100  176.0820  136.3780 C   0  0  0  0  0  3  0  0  0  0  0  0
  188.7350  178.4080  137.7010 C   0  0  0  0  0  0  0  0  0  0  0  0
  188.9920  177.1470  138.2820 C   0  0  0  0  0  0  0  0  0  0  0  0
  188.0720  178.4920  136.4730 C   0  0  0  0  0  3  0  0  0  0  0  0
  1 11  1  1  0  0  0
  2  7  1  0  0  0  0
  2  3  1  0  0  0  0
  3  9  1  0  0  0  0
  5  4  2  0  0  0  0
  5 16  1  0  0  0  0
  6 13  1  0  0  0  0
  7 17  1  0  0  0  0
  8  1  1  0  0  0  0
  9  6  2  0  0  0  0
 10 14  2  0  0  0  0
 10 15  1  0  0  0  0
 12 22  1  0  0  0  0
 14 19  1  0  0  0  0
 15  2  2  0  0  0  0
 16 10  1  0  0  0  0
 17  1  1  0  0  0  0
 18  6  1  0  0  0  0
 19 20  1  1  0  0  0
 19  7  1  0  0  0  0
 20  8  1  0  0  0  0
 21 15  1  0  0  0  0
 21 12  2  0  0  0  0
 22  3  2  0  0  0  0
 22 23  1  0  0  0  0
 23 18  2  0  0  0  0
 24 28  2  0  0  0  0
 24 31  1  0  0  0  0
 25 30  2  0  0  0  0
 27 24  1  0  0  0  0
 28 25  1  0  0  0  0
 29 30  1  0  0  0  0
 29 26  1  0  0  0  0
 30  5  1  0  0  0  0
 31 29  2  0  0  0  0
M  END
>  <MODEL>
1

>  <REMARK>
 VINA RESULT:     -10.7      0.000      0.000
  Name = 
  1 active torsions:
  status: ('A' for Active; 'I' for Inactive)
    1  A    between atoms: C_5  and  C_30
                            x       y       z     vdW  Elec       q    Type
                         _______ _______ _______ _____ _____    ______ ____

>  <TORSDO>
F 1

$$$$
=
 OpenBabel11122411093D

 31 35  0  0  1  0  0  0  0  0999 V2000
  187.1350  178.5170  146.8610 C   0  0  1  0  0  3  0  0  0  0  0  0
  187.3920  177.7190  143.4800 C   0  0  0  0  0  0  0  0  0  0  0  0
  188.8000  177.5120  143.4060 C   0  0  0  0  0  0  0  0  0  0  0  0
  182.4000  178.6870  141.9260 O   0  0  0  0  0  0  0  0  0  0  0  0
  183.1630  178.7130  140.9220 C   0  0  0  0  0  0  0  0  0  0  0  0
  190.9480  176.9190  144.4030 C   0  0  0  0  0  0  0  0  0  0  0  0
  186.6060  177.5460  144.6890 N   0  0  0  0  0  0  0  0  0  0  0  0
  185.6900  179.0060  146.9710 C   0  0  0  0  0  2  0  0  0  0  0  0
  189.5680  177.1090  144.5110 C   0  0  0  0  0  3  0  0  0  0  0  0
  185.2640  178.2750  142.3200 C   0  0  0  0  0  0  0  0  0  0  0  0
  187.6740  178.2080  148.2410 C   0  0  0  0  0  1  0  0  0  0  0  0
  188.7420  178.1040  141.0530 C   0  0  0  0  0  3  0  0  0  0  0  0
  191.7340  176.4940  145.5900 C   0  0  0  0  0  1  0  0  0  0  0  0
  184.6020  178.1790  143.4330 N   0  0  0  0  0  0  0  0  0  0  0  0
  186.7210  178.1010  142.3040 C   0  0  0  0  0  0  0  0  0  0  0  0
  184.5770  178.5190  141.0840 N   0  0  0  0  0  2  0  0  0  0  0  0
  187.1970  177.2610  145.9950 C   0  0  0  0  0  2  0  0  0  0  0  0
  191.5880  177.1300  143.1810 C   0  0  0  0  0  3  0  0  0  0  0  0
  185.2000  177.9710  144.7520 C   0  0  2  0  0  3  0  0  0  0  0  0
  185.0920  179.2470  145.5850 C   0  0  0  0  0  2  0  0  0  0  0  0
  187.4020  178.2800  141.1400 N   0  0  0  0  0  0  0  0  0  0  0  0
  189.4670  177.7170  142.1730 C   0  0  0  0  0  0  0  0  0  0  0  0
  190.8480  177.5280  142.0670 C   0  0  0  0  0  3  0  0  0  0  0  0
  181.5380  179.4630  137.0210 C   0  0  0  0  0  0  0  0  0  0  0  0
  182.0480  180.1950  139.2690 C   0  0  0  0  0  3  0  0  0  0  0  0
  183.1590  176.7230  138.8050 F   0  0  0  0  0  0  0  0  0  0  0  0
  181.0090  179.7180  135.7640 O   0  0  0  0  0  1  0  0  0  0  0  0
  181.5160  180.4540  138.0030 C   0  0  0  0  0  3  0  0  0  0  0  0
  182.6290  177.9480  138.5690 C   0  0  0  0  0  0  0  0  0  0  0  0
  182.6100  178.9450  139.5690 C   0  0  0  0  0  0  0  0  0  0  0  0
  182.0930  178.2130  137.3050 C   0  0  0  0  0  3  0  0  0  0  0  0
  1  8  1  0  0  0  0
  1 11  1  1  0  0  0
  2  7  1  0  0  0  0
  3  2  1  0  0  0  0
  3  9  1  0  0  0  0
  5 16  1  0  0  0  0
  5  4  2  0  0  0  0
  6  9  2  0  0  0  0
  6 13  1  0  0  0  0
  7 19  1  0  0  0  0
  7 17  1  0  0  0  0
 10 14  2  0  0  0  0
 12 21  2  0  0  0  0
 12 22  1  0  0  0  0
 14 19  1  0  0  0  0
 15 10  1  0  0  0  0
 15  2  2  0  0  0  0
 16 10  1  0  0  0  0
 17  1  1  0  0  0  0
 18  6  1  0  0  0  0
 19 20  1  1  0  0  0
 20  8  1  0  0  0  0
 21 15  1  0  0  0  0
 22  3  2  0  0  0  0
 23 22  1  0  0  0  0
 23 18  2  0  0  0  0
 24 31  2  0  0  0  0
 24 28  1  0  0  0  0
 25 30  1  0  0  0  0
 27 24  1  0  0  0  0
 28 25  2  0  0  0  0
 29 26  1  0  0  0  0
 29 30  2  0  0  0  0
 30  5  1  0  0  0  0
 31 29  1  0  0  0  0
M  END
>  <MODEL>
2

>  <REMARK>
 VINA RESULT:     -10.3      3.925      5.808
  Name = 
  1 active torsions:
  status: ('A' for Active; 'I' for Inactive)
    1  A    between atoms: C_5  and  C_30
                            x       y       z     vdW  Elec       q    Type
                         _______ _______ _______ _____ _____    ______ ____

>  <TORSDO>
F 1

$$$$
=
 OpenBabel11122411093D

 31 35  0  0  1  0  0  0  0  0999 V2000
  187.3770  178.5190  147.1870 C   0  0  1  0  0  3  0  0  0  0  0  0
  187.5070  177.6340  143.8220 C   0  0  0  0  0  0  0  0  0  0  0  0
  188.9080  177.3990  143.7070 C   0  0  0  0  0  0  0  0  0  0  0  0
  182.4840  178.6560  142.4080 O   0  0  0  0  0  0  0  0  0  0  0  0
  183.2140  178.6430  141.3790 C   0  0  0  0  0  0  0  0  0  0  0  0
  191.0770  176.7910  144.6470 C   0  0  0  0  0  0  0  0  0  0  0  0
  186.7590  177.5050  145.0590 N   0  0  0  0  0  0  0  0  0  0  0  0
  185.9450  179.0380  147.3320 C   0  0  0  0  0  2  0  0  0  0  0  0
  189.7040  177.0080  144.7960 C   0  0  0  0  0  3  0  0  0  0  0  0
  185.3510  178.2010  142.7180 C   0  0  0  0  0  0  0  0  0  0  0  0
  187.9560  178.2340  148.5570 C   0  0  0  0  0  1  0  0  0  0  0  0
  188.7820  177.9330  141.3430 C   0  0  0  0  0  3  0  0  0  0  0  0
  191.8940  176.3810  145.8180 C   0  0  0  0  0  1  0  0  0  0  0  0
  184.7260  178.1440  143.8540 N   0  0  0  0  0  0  0  0  0  0  0  0
  186.8040  177.9990  142.6590 C   0  0  0  0  0  0  0  0  0  0  0  0
  184.6290  178.4260  141.4990 N   0  0  0  0  0  2  0  0  0  0  0  0
  187.3880  177.2410  146.3520 C   0  0  0  0  0  2  0  0  0  0  0  0
  191.6790  176.9600  143.4010 C   0  0  0  0  0  3  0  0  0  0  0  0
  185.3640  177.9580  145.1580 C   0  0  2  0  0  3  0  0  0  0  0  0
  185.3060  179.2550  145.9610 C   0  0  0  0  0  2  0  0  0  0  0  0
  187.4490  178.1370  141.4690 N   0  0  0  0  0  0  0  0  0  0  0  0
  189.5370  177.5610  142.4470 C   0  0  0  0  0  0  0  0  0  0  0  0
  190.9100  177.3440  142.3020 C   0  0  0  0  0  3  0  0  0  0  0  0
  181.5550  179.2080  137.4620 C   0  0  0  0  0  0  0  0  0  0  0  0
  183.2660  178.3120  138.9160 C   0  0  0  0  0  3  0  0  0  0  0  0
  180.7610  180.1250  140.9030 F   0  0  0  0  0  0  0  0  0  0  0  0
  181.0290  179.3840  136.1900 O   0  0  0  0  0  1  0  0  0  0  0  0
  182.7370  178.4870  137.6350 C   0  0  0  0  0  3  0  0  0  0  0  0
  181.4250  179.5810  139.8540 C   0  0  0  0  0  0  0  0  0  0  0  0
  182.6210  178.8520  140.0400 C   0  0  0  0  0  0  0  0  0  0  0  0
  180.9020  179.7530  138.5690 C   0  0  0  0  0  3  0  0  0  0  0  0
  1  8  1  0  0  0  0
  1 11  1  1  0  0  0
  2  7  1  0  0  0  0
  3  2  1  0  0  0  0
  3  9  1  0  0  0  0
  5 16  1  0  0  0  0
  5  4  2  0  0  0  0
  6  9  2  0  0  0  0
  6 13  1  0  0  0  0
  7 19  1  0  0  0  0
  7 17  1  0  0  0  0
 10 14  2  0  0  0  0
 12 21  2  0  0  0  0
 12 22  1  0  0  0  0
 14 19  1  0  0  0  0
 15 10  1  0  0  0  0
 15  2  2  0  0  0  0
 16 10  1  0  0  0  0
 17  1  1  0  0  0  0
 18  6  1  0  0  0  0
 19 20  1  6  0  0  0
 20  8  1  0  0  0  0
 21 15  1  0  0  0  0
 22  3  2  0  0  0  0
 23 22  1  0  0  0  0
 23 18  2  0  0  0  0
 24 28  2  0  0  0  0
 24 31  1  0  0  0  0
 25 30  2  0  0  0  0
 27 24  1  0  0  0  0
 28 25  1  0  0  0  0
 29 30  1  0  0  0  0
 29 26  1  0  0  0  0
 30  5  1  0  0  0  0
 31 29  2  0  0  0  0
M  END
>  <MODEL>
3

>  <REMARK>
 VINA RESULT:     -10.2      4.022      5.806
  Name = 
  1 active torsions:
  status: ('A' for Active; 'I' for Inactive)
    1  A    between atoms: C_5  and  C_30
                            x       y       z     vdW  Elec       q    Type
                         _______ _______ _______ _____ _____    ______ ____

>  <TORSDO>
F 1

$$$$
=
 OpenBabel11122411093D

 31 35  0  0  1  0  0  0  0  0999 V2000
  190.5820  176.7600  142.2440 C   0  0  1  0  0  3  0  0  0  0  0  0
  187.6000  178.1650  143.3670 C   0  0  0  0  0  0  0  0  0  0  0  0
  187.7390  177.9000  144.7600 C   0  0  0  0  0  0  0  0  0  0  0  0
  185.3050  179.2970  138.7060 O   0  0  0  0  0  0  0  0  0  0  0  0
  184.4220  179.2440  139.6050 C   0  0  0  0  0  0  0  0  0  0  0  0
  189.0880  177.5010  146.7550 C   0  0  0  0  0  0  0  0  0  0  0  0
  188.7160  178.3140  142.4510 N   0  0  0  0  0  0  0  0  0  0  0  0
  190.3960  176.7700  140.7250 C   0  0  0  0  0  2  0  0  0  0  0  0
  188.9890  177.7650  145.3860 C   0  0  0  0  0  3  0  0  0  0  0  0
  186.1070  178.6280  141.4320 C   0  0  0  0  0  0  0  0  0  0  0  0
  192.0450  176.5520  142.5750 C   0  0  0  0  0  1  0  0  0  0  0  0
  185.3230  177.9080  144.9820 C   0  0  0  0  0  3  0  0  0  0  0  0
  190.4240  177.3600  147.3890 C   0  0  0  0  0  1  0  0  0  0  0  0
  187.1250  178.6870  140.6280 N   0  0  0  0  0  0  0  0  0  0  0  0
  186.2980  178.3040  142.8510 C   0  0  0  0  0  0  0  0  0  0  0  0
  184.7840  178.9130  140.9550 N   0  0  0  0  0  2  0  0  0  0  0  0
  190.1070  178.0840  142.8380 C   0  0  0  0  0  2  0  0  0  0  0  0
  187.9330  177.3690  147.5260 C   0  0  0  0  0  3  0  0  0  0  0  0
  188.5070  178.3800  140.9970 C   0  0  2  0  0  3  0  0  0  0  0  0
  188.9400  177.0620  140.3600 C   0  0  0  0  0  2  0  0  0  0  0  0
  185.2110  178.1740  143.6580 N   0  0  0  0  0  0  0  0  0  0  0  0
  186.5770  177.7680  145.5600 C   0  0  0  0  0  0  0  0  0  0  0  0
  186.6790  177.5030  146.9290 C   0  0  0  0  0  3  0  0  0  0  0  0
  180.3350  180.1200  138.6290 C   0  0  0  0  0  0  0  0  0  0  0  0
  182.6650  180.7620  138.7190 C   0  0  0  0  0  3  0  0  0  0  0  0
  182.2550  177.3600  140.0490 F   0  0  0  0  0  0  0  0  0  0  0  0
  179.0180  180.4160  138.3090 O   0  0  0  0  0  1  0  0  0  0  0  0
  181.3390  181.0610  138.3950 C   0  0  0  0  0  3  0  0  0  0  0  0
  181.9830  178.5750  139.5110 C   0  0  0  0  0  0  0  0  0  0  0  0
  183.0060  179.5200  139.2770 C   0  0  0  0  0  0  0  0  0  0  0  0
  180.6580  178.8800  139.1860 C   0  0  0  0  0  3  0  0  0  0  0  0
  1 11  1  6  0  0  0
  1 17  1  0  0  0  0
  2  3  1  0  0  0  0
  3  9  2  0  0  0  0
  3 22  1  0  0  0  0
  4  5  2  0  0  0  0
  5 16  1  0  0  0  0
  6 13  1  0  0  0  0
  6 18  2  0  0  0  0
  7 17  1  0  0  0  0
  7  2  1  0  0  0  0
  8  1  1  0  0  0  0
  9  6  1  0  0  0  0
 10 15  1  0  0  0  0
 12 22  1  0  0  0  0
 14 19  1  0  0  0  0
 14 10  2  0  0  0  0
 15  2  2  0  0  0  0
 15 21  1  0  0  0  0
 16 10  1  0  0  0  0
 19 20  1  6  0  0  0
 19  7  1  0  0  0  0
 20  8  1  0  0  0  0
 21 12  2  0  0  0  0
 22 23  2  0  0  0  0
 23 18  1  0  0  0  0
 24 31  1  0  0  0  0
 25 30  2  0  0  0  0
 27 24  1  0  0  0  0
 28 24  2  0  0  0  0
 28 25  1  0  0  0  0
 29 26  1  0  0  0  0
 30 29  1  0  0  0  0
 30  5  1  0  0  0  0
 31 29  2  0  0  0  0
M  END
>  <MODEL>
4

>  <REMARK>
 VINA RESULT:      -9.9      4.175      5.072
  Name = 
  1 active torsions:
  status: ('A' for Active; 'I' for Inactive)
    1  A    between atoms: C_5  and  C_30
                            x       y       z     vdW  Elec       q    Type
                         _______ _______ _______ _____ _____    ______ ____

>  <TORSDO>
F 1

$$$$
=
 OpenBabel11122411093D

 31 35  0  0  1  0  0  0  0  0999 V2000
  185.8220  179.0100  144.1810 C   0  0  1  0  0  3  0  0  0  0  0  0
  188.7940  177.2620  143.6950 C   0  0  0  0  0  0  0  0  0  0  0  0
  189.2680  177.2480  145.0390 C   0  0  0  0  0  0  0  0  0  0  0  0
  188.8320  176.9730  138.3860 O   0  0  0  0  0  0  0  0  0  0  0  0
  190.0030  176.8000  138.8230 C   0  0  0  0  0  0  0  0  0  0  0  0
  188.9090  177.3070  147.4530 C   0  0  0  0  0  0  0  0  0  0  0  0
  187.3930  177.3550  143.3260 N   0  0  0  0  0  0  0  0  0  0  0  0
  185.3730  179.2950  142.7470 C   0  0  0  0  0  2  0  0  0  0  0  0
  188.4080  177.3180  146.1480 C   0  0  0  0  0  3  0  0  0  0  0  0
  189.3000  177.1210  141.2640 C   0  0  0  0  0  0  0  0  0  0  0  0
  184.6600  179.2210  145.1290 C   0  0  0  0  0  1  0  0  0  0  0  0
  191.5430  177.0750  144.2130 C   0  0  0  0  0  3  0  0  0  0  0  0
  187.9750  177.3850  148.6060 C   0  0  0  0  0  1  0  0  0  0  0  0
  188.0450  177.2760  140.9680 N   0  0  0  0  0  0  0  0  0  0  0  0
  189.7440  177.1630  142.6620 C   0  0  0  0  0  0  0  0  0  0  0  0
  190.2660  176.8720  140.2330 N   0  0  0  0  0  2  0  0  0  0  0  0
  186.3220  177.5720  144.2970 C   0  0  0  0  0  2  0  0  0  0  0  0
  190.2830  177.2240  147.6730 C   0  0  0  0  0  3  0  0  0  0  0  0
  186.9840  177.5710  141.9310 C   0  0  2  0  0  3  0  0  0  0  0  0
  186.5040  179.0100  141.7580 C   0  0  0  0  0  2  0  0  0  0  0  0
  191.0720  177.0740  142.9430 N   0  0  0  0  0  0  0  0  0  0  0  0
  190.6610  177.1600  145.2820 C   0  0  0  0  0  0  0  0  0  0  0  0
  191.1590  177.1500  146.5880 C   0  0  0  0  0  3  0  0  0  0  0  0
  193.1760  175.9790  136.0520 C   0  0  0  0  0  0  0  0  0  0  0  0
  190.8200  176.0790  136.5890 C   0  0  0  0  0  3  0  0  0  0  0  0
  192.8100  177.1200  139.4990 F   0  0  0  0  0  0  0  0  0  0  0  0
  194.1920  175.7090  135.1470 O   0  0  0  0  0  1  0  0  0  0  0  0
  191.8430  175.8090  135.6760 C   0  0  0  0  0  3  0  0  0  0  0  0
  192.4670  176.6930  138.2590 C   0  0  0  0  0  0  0  0  0  0  0  0
  191.1160  176.5240  137.8870 C   0  0  0  0  0  0  0  0  0  0  0  0
  193.4860  176.4200  137.3400 C   0  0  0  0  0  3  0  0  0  0  0  0
  1 17  1  0  0  0  0
  1 11  1  1  0  0  0
  2  3  1  0  0  0  0
  3 22  2  0  0  0  0
  3  9  1  0  0  0  0
  4  5  2  0  0  0  0
  5 16  1  0  0  0  0
  6 18  1  0  0  0  0
  6 13  1  0  0  0  0
  7  2  1  0  0  0  0
  7 17  1  0  0  0  0
  8  1  1  0  0  0  0
  9  6  2  0  0  0  0
 10 15  1  0  0  0  0
 12 22  1  0  0  0  0
 14 10  2  0  0  0  0
 14 19  1  0  0  0  0
 15 21  1  0  0  0  0
 15  2  2  0  0  0  0
 16 10  1  0  0  0  0
 19 20  1  1  0  0  0
 19  7  1  0  0  0  0
 20  8  1  0  0  0  0
 21 12  2  0  0  0  0
 22 23  1  0  0  0  0
 23 18  2  0  0  0  0
 24 31  1  0  0  0  0
 25 30  2  0  0  0  0
 27 24  1  0  0  0  0
 28 24  2  0  0  0  0
 28 25  1  0  0  0  0
 29 26  1  0  0  0  0
 30 29  1  0  0  0  0
 30  5  1  0  0  0  0
 31 29  2  0  0  0  0
M  END
>  <MODEL>
5

>  <REMARK>
 VINA RESULT:      -9.9      2.358      4.487
  Name = 
  1 active torsions:
  status: ('A' for Active; 'I' for Inactive)
    1  A    between atoms: C_5  and  C_30
                            x       y       z     vdW  Elec       q    Type
                         _______ _______ _______ _____ _____    ______ ____

>  <TORSDO>
F 1

$$$$
=
 OpenBabel11122411093D

 31 35  0  0  1  0  0  0  0  0999 V2000
  187.7830  178.3230  147.3030 C   0  0  1  0  0  3  0  0  0  0  0  0
  187.0450  177.7400  143.9490 C   0  0  0  0  0  0  0  0  0  0  0  0
  188.3650  177.5030  143.4680 C   0  0  0  0  0  0  0  0  0  0  0  0
  181.8630  178.9310  143.9290 O   0  0  0  0  0  0  0  0  0  0  0  0
  182.3130  179.0030  142.7530 C   0  0  0  0  0  0  0  0  0  0  0  0
  190.6790  176.7930  143.7810 C   0  0  0  0  0  0  0  0  0  0  0  0
  186.6240  177.5090  145.3200 N   0  0  0  0  0  0  0  0  0  0  0  0
  186.4490  178.8410  147.8450 C   0  0  0  0  0  2  0  0  0  0  0  0
  189.3950  177.0100  144.2860 C   0  0  0  0  0  3  0  0  0  0  0  0
  184.7010  178.4230  143.4720 C   0  0  0  0  0  0  0  0  0  0  0  0
  188.6750  177.9120  148.4550 C   0  0  0  0  0  1  0  0  0  0  0  0
  187.6730  178.2470  141.2640 C   0  0  0  0  0  3  0  0  0  0  0  0
  191.7490  176.2730  144.6720 C   0  0  0  0  0  1  0  0  0  0  0  0
  184.3760  178.2720  144.7200 N   0  0  0  0  0  0  0  0  0  0  0  0
  186.0870  178.2140  143.0340 C   0  0  0  0  0  0  0  0  0  0  0  0
  183.7060  178.7630  142.4960 N   0  0  0  0  0  2  0  0  0  0  0  0
  187.5460  177.1250  146.3870 C   0  0  0  0  0  2  0  0  0  0  0  0
  190.9580  177.0670  142.4420 C   0  0  0  0  0  3  0  0  0  0  0  0
  185.3120  177.9640  145.8020 C   0  0  2  0  0  3  0  0  0  0  0  0
  185.4960  179.1850  146.7000 C   0  0  0  0  0  2  0  0  0  0  0  0
  186.4200  178.4510  141.7370 N   0  0  0  0  0  0  0  0  0  0  0  0
  188.6660  177.7710  142.1100 C   0  0  0  0  0  0  0  0  0  0  0  0
  189.9520  177.5540  141.6070 C   0  0  0  0  0  3  0  0  0  0  0  0
  179.7500  179.9300  139.4380 C   0  0  0  0  0  0  0  0  0  0  0  0
  181.7370  178.8860  140.3380 C   0  0  0  0  0  3  0  0  0  0  0  0
  179.8730  180.5560  143.0310 F   0  0  0  0  0  0  0  0  0  0  0  0
  178.9310  180.2230  138.3570 O   0  0  0  0  0  1  0  0  0  0  0  0
  180.9120  179.1790  139.2500 C   0  0  0  0  0  3  0  0  0  0  0  0
  180.2350  180.0950  141.8080 C   0  0  0  0  0  0  0  0  0  0  0  0
  181.4120  179.3360  141.6270 C   0  0  0  0  0  0  0  0  0  0  0  0
  179.4140  180.3860  140.7140 C   0  0  0  0  0  3  0  0  0  0  0  0
  1  8  1  0  0  0  0
  1 11  1  1  0  0  0
  2  7  1  0  0  0  0
  3  2  1  0  0  0  0
  3  9  1  0  0  0  0
  5  4  2  0  0  0  0
  6  9  2  0  0  0  0
  6 13  1  0  0  0  0
  7 19  1  0  0  0  0
  7 17  1  0  0  0  0
 10 14  2  0  0  0  0
 12 21  2  0  0  0  0
 12 22  1  0  0  0  0
 14 19  1  0  0  0  0
 15 10  1  0  0  0  0
 15  2  2  0  0  0  0
 16  5  1  0  0  0  0
 16 10  1  0  0  0  0
 17  1  1  0  0  0  0
 18  6  1  0  0  0  0
 19 20  1  6  0  0  0
 20  8  1  0  0  0  0
 21 15  1  0  0  0  0
 22  3  2  0  0  0  0
 23 22  1  0  0  0  0
 23 18  2  0  0  0  0
 24 31  1  0  0  0  0
 25 30  2  0  0  0  0
 27 24  1  0  0  0  0
 28 24  2  0  0  0  0
 28 25  1  0  0  0  0
 29 26  1  0  0  0  0
 30 29  1  0  0  0  0
 30  5  1  0  0  0  0
 31 29  2  0  0  0  0
M  END
>  <MODEL>
6

>  <REMARK>
 VINA RESULT:      -9.7      4.711      6.701
  Name = 
  1 active torsions:
  status: ('A' for Active; 'I' for Inactive)
    1  A    between atoms: C_5  and  C_30
                            x       y       z     vdW  Elec       q    Type
                         _______ _______ _______ _____ _____    ______ ____

>  <TORSDO>
F 1

$$$$
=
 OpenBabel11122411093D

 31 35  0  0  1  0  0  0  0  0999 V2000
  183.6680  178.2850  139.0630 C   0  0  1  0  0  3  0  0  0  0  0  0
  187.1030  178.1870  139.6300 C   0  0  0  0  0  0  0  0  0  0  0  0
  187.5440  177.9740  138.2910 C   0  0  0  0  0  0  0  0  0  0  0  0
  187.1620  178.3110  144.9450 O   0  0  0  0  0  0  0  0  0  0  0  0
  188.2570  177.8470  144.5250 C   0  0  0  0  0  0  0  0  0  0  0  0
  187.2660  178.1610  135.8740 C   0  0  0  0  0  0  0  0  0  0  0  0
  185.8560  178.8420  139.9820 N   0  0  0  0  0  0  0  0  0  0  0  0
  183.1030  178.2530  140.4850 C   0  0  0  0  0  2  0  0  0  0  0  0
  186.8040  178.3910  137.1730 C   0  0  0  0  0  3  0  0  0  0  0  0
  187.5490  177.9930  142.0690 C   0  0  0  0  0  0  0  0  0  0  0  0
  182.5940  178.7390  138.0990 C   0  0  0  0  0  1  0  0  0  0  0  0
  189.5470  176.9020  139.1440 C   0  0  0  0  0  3  0  0  0  0  0  0
  186.4600  178.6110  134.7100 C   0  0  0  0  0  1  0  0  0  0  0  0
  186.3950  178.5190  142.3480 N   0  0  0  0  0  0  0  0  0  0  0  0
  187.9370  177.7490  140.6750 C   0  0  0  0  0  0  0  0  0  0  0  0
  188.4760  177.6740  143.1170 N   0  0  0  0  0  2  0  0  0  0  0  0
  184.8550  179.2430  138.9940 C   0  0  0  0  0  2  0  0  0  0  0  0
  188.4820  177.5090  135.6700 C   0  0  0  0  0  3  0  0  0  0  0  0
  185.3620  178.8480  141.3660 C   0  0  2  0  0  3  0  0  0  0  0  0
  184.1900  177.8780  141.4920 C   0  0  0  0  0  2  0  0  0  0  0  0
  189.1180  177.1280  140.4090 N   0  0  0  0  0  0  0  0  0  0  0  0
  188.7790  177.3180  138.0650 C   0  0  0  0  0  0  0  0  0  0  0  0
  189.2380  177.0880  136.7640 C   0  0  0  0  0  3  0  0  0  0  0  0
  191.4050  176.7530  147.2300 C   0  0  0  0  0  0  0  0  0  0  0  0
  190.5850  177.1070  144.9830 C   0  0  0  0  0  3  0  0  0  0  0  0
  187.9200  177.8200  147.4110 F   0  0  0  0  0  0  0  0  0  0  0  0
  192.4310  176.3970  148.0930 O   0  0  0  0  0  1  0  0  0  0  0  0
  191.6190  176.7490  145.8510 C   0  0  0  0  0  3  0  0  0  0  0  0
  189.1170  177.4750  146.8760 C   0  0  0  0  0  0  0  0  0  0  0  0
  189.3250  177.4740  145.4800 C   0  0  0  0  0  0  0  0  0  0  0  0
  190.1560  177.1150  147.7400 C   0  0  0  0  0  3  0  0  0  0  0  0
  1 11  1  6  0  0  0
  1  8  1  0  0  0  0
  2  7  1  0  0  0  0
  2 15  1  0  0  0  0
  3  2  2  0  0  0  0
  5  4  2  0  0  0  0
  5 30  1  0  0  0  0
  6  9  2  0  0  0  0
  7 19  1  0  0  0  0
  8 20  1  0  0  0  0
  9  3  1  0  0  0  0
 10 14  2  0  0  0  0
 10 16  1  0  0  0  0
 12 21  1  0  0  0  0
 13  6  1  0  0  0  0
 15 10  1  0  0  0  0
 16  5  1  0  0  0  0
 17  1  1  0  0  0  0
 17  7  1  0  0  0  0
 18  6  1  0  0  0  0
 18 23  2  0  0  0  0
 19 20  1  6  0  0  0
 19 14  1  0  0  0  0
 21 15  2  0  0  0  0
 22  3  1  0  0  0  0
 22 12  2  0  0  0  0
 23 22  1  0  0  0  0
 24 31  1  0  0  0  0
 24 27  1  0  0  0  0
 25 30  2  0  0  0  0
 25 28  1  0  0  0  0
 28 24  2  0  0  0  0
 29 26  1  0  0  0  0
 29 31  2  0  0  0  0
 30 29  1  0  0  0  0
M  END
>  <MODEL>
7

>  <REMARK>
 VINA RESULT:      -9.4      3.501      9.146
  Name = 
  1 active torsions:
  status: ('A' for Active; 'I' for Inactive)
    1  A    between atoms: C_5  and  C_30
                            x       y       z     vdW  Elec       q    Type
                         _______ _______ _______ _____ _____    ______ ____

>  <TORSDO>
F 1

$$$$
=
 OpenBabel11122411093D

 31 35  0  0  1  0  0  0  0  0999 V2000
  183.2950  177.4000  137.8580 C   0  0  1  0  0  3  0  0  0  0  0  0
  186.2390  178.3070  139.4830 C   0  0  0  0  0  0  0  0  0  0  0  0
  187.1370  178.2280  138.3790 C   0  0  0  0  0  0  0  0  0  0  0  0
  184.5070  178.4540  144.5080 O   0  0  0  0  0  0  0  0  0  0  0  0
  185.7620  178.3270  144.5020 C   0  0  0  0  0  0  0  0  0  0  0  0
  187.6310  178.3200  135.9910 C   0  0  0  0  0  0  0  0  0  0  0  0
  184.8170  178.5720  139.3590 N   0  0  0  0  0  0  0  0  0  0  0  0
  182.3250  177.2090  139.0250 C   0  0  0  0  0  2  0  0  0  0  0  0
  186.7230  178.4090  137.0490 C   0  0  0  0  0  3  0  0  0  0  0  0
  185.8920  178.2560  141.9450 C   0  0  0  0  0  0  0  0  0  0  0  0
  182.5180  177.5200  136.5650 C   0  0  0  0  0  1  0  0  0  0  0  0
  188.9590  177.7860  139.9190 C   0  0  0  0  0  3  0  0  0  0  0  0
  187.1630  178.5140  134.5940 C   0  0  0  0  0  1  0  0  0  0  0  0
  184.6130  178.4250  141.7940 N   0  0  0  0  0  0  0  0  0  0  0  0
  186.7690  178.1320  140.7750 C   0  0  0  0  0  0  0  0  0  0  0  0
  186.4720  178.2220  143.2570 N   0  0  0  0  0  2  0  0  0  0  0  0
  184.1280  178.6620  138.0720 C   0  0  0  0  0  2  0  0  0  0  0  0
  188.9750  178.0490  136.2450 C   0  0  0  0  0  3  0  0  0  0  0  0
  183.9130  178.4370  140.5100 C   0  0  2  0  0  3  0  0  0  0  0  0
  183.0780  177.1680  140.3550 C   0  0  0  0  0  2  0  0  0  0  0  0
  188.0930  177.8800  140.9570 N   0  0  0  0  0  0  0  0  0  0  0  0
  188.5070  177.9580  138.6180 C   0  0  0  0  0  0  0  0  0  0  0  0
  189.4130  177.8690  137.5570 C   0  0  0  0  0  3  0  0  0  0  0  0
  187.8910  178.2520  148.2270 C   0  0  0  0  0  0  0  0  0  0  0  0
  186.0560  179.0400  146.8640 C   0  0  0  0  0  3  0  0  0  0  0  0
  188.1710  176.7550  144.9110 F   0  0  0  0  0  0  0  0  0  0  0  0
  188.5710  178.2370  149.4370 O   0  0  0  0  0  1  0  0  0  0  0  0
  186.7380  179.0250  148.0830 C   0  0  0  0  0  3  0  0  0  0  0  0
  187.6830  177.5050  145.9300 C   0  0  0  0  0  0  0  0  0  0  0  0
  186.5150  178.2830  145.7750 C   0  0  0  0  0  0  0  0  0  0  0  0
  188.3620  177.4950  147.1530 C   0  0  0  0  0  3  0  0  0  0  0  0
  1 11  1  6  0  0  0
  1 17  1  0  0  0  0
  1  8  1  0  0  0  0
  2 15  1  0  0  0  0
  3 22  1  0  0  0  0
  3  2  2  0  0  0  0
  5  4  2  0  0  0  0
  5 30  1  0  0  0  0
  6 18  1  0  0  0  0
  6  9  2  0  0  0  0
  7  2  1  0  0  0  0
  7 19  1  0  0  0  0
  8 20  1  0  0  0  0
  9  3  1  0  0  0  0
 10 16  1  0  0  0  0
 12 21  1  0  0  0  0
 13  6  1  0  0  0  0
 14 10  2  0  0  0  0
 15 21  2  0  0  0  0
 15 10  1  0  0  0  0
 16  5  1  0  0  0  0
 17  7  1  0  0  0  0
 18 23  2  0  0  0  0
 19 20  1  6  0  0  0
 19 14  1  0  0  0  0
 22 12  2  0  0  0  0
 23 22  1  0  0  0  0
 24 27  1  0  0  0  0
 25 28  2  0  0  0  0
 26 29  1  0  0  0  0
 28 24  1  0  0  0  0
 29 31  1  0  0  0  0
 30 29  2  0  0  0  0
 30 25  1  0  0  0  0
 31 24  2  0  0  0  0
M  END
>  <MODEL>
8

>  <REMARK>
 VINA RESULT:      -8.3      3.809      9.551
  Name = 
  1 active torsions:
  status: ('A' for Active; 'I' for Inactive)
    1  A    between atoms: C_5  and  C_30
                            x       y       z     vdW  Elec       q    Type
                         _______ _______ _______ _____ _____    ______ ____

>  <TORSDO>
F 1

$$$$
=
 OpenBabel11122411093D

 31 35  0  0  1  0  0  0  0  0999 V2000
  184.8470  178.3020  143.3950 C   0  0  1  0  0  3  0  0  0  0  0  0
  185.6660  178.4670  140.0140 C   0  0  0  0  0  0  0  0  0  0  0  0
  184.3550  178.5960  139.4730 C   0  0  0  0  0  0  0  0  0  0  0  0
  190.8790  177.4530  140.2820 O   0  0  0  0  0  0  0  0  0  0  0  0
  190.4660  177.2150  139.1150 C   0  0  0  0  0  0  0  0  0  0  0  0
  182.0130  179.2650  139.6300 C   0  0  0  0  0  0  0  0  0  0  0  0
  186.0400  178.8890  141.3530 N   0  0  0  0  0  0  0  0  0  0  0  0
  186.1780  177.9030  144.0340 C   0  0  0  0  0  2  0  0  0  0  0  0
  183.2880  179.1580  140.1930 C   0  0  0  0  0  3  0  0  0  0  0  0
  188.0420  177.8050  139.6910 C   0  0  0  0  0  0  0  0  0  0  0  0
  183.9090  178.8290  144.4600 C   0  0  0  0  0  1  0  0  0  0  0  0
  185.1330  177.5950  137.4040 C   0  0  0  0  0  3  0  0  0  0  0  0
  180.9030  179.8620  140.4180 C   0  0  0  0  0  1  0  0  0  0  0  0
  188.3260  178.1280  140.9160 N   0  0  0  0  0  0  0  0  0  0  0  0
  186.6650  177.9100  139.1940 C   0  0  0  0  0  0  0  0  0  0  0  0
  189.0750  177.3730  138.7940 N   0  0  0  0  0  2  0  0  0  0  0  0
  185.0760  179.3780  142.3370 C   0  0  0  0  0  2  0  0  0  0  0  0
  181.7820  178.8110  138.3320 C   0  0  0  0  0  3  0  0  0  0  0  0
  187.3500  178.5430  141.9240 C   0  0  2  0  0  3  0  0  0  0  0  0
  187.1740  177.4440  142.9690 C   0  0  0  0  0  2  0  0  0  0  0  0
  186.3770  177.4950  137.9310 N   0  0  0  0  0  0  0  0  0  0  0  0
  184.1020  178.1450  138.1540 C   0  0  0  0  0  0  0  0  0  0  0  0
  182.8260  178.2520  137.5940 C   0  0  0  0  0  3  0  0  0  0  0  0
  193.1380  175.9030  136.0230 C   0  0  0  0  0  0  0  0  0  0  0  0
  190.9020  176.3540  136.8240 C   0  0  0  0  0  3  0  0  0  0  0  0
  193.3510  177.1270  139.4550 F   0  0  0  0  0  0  0  0  0  0  0  0
  193.9910  175.4760  135.0160 O   0  0  0  0  0  1  0  0  0  0  0  0
  191.7600  175.9260  135.8080 C   0  0  0  0  0  3  0  0  0  0  0  0
  192.8060  176.7400  138.2750 C   0  0  0  0  0  0  0  0  0  0  0  0
  191.4090  176.7670  138.0660 C   0  0  0  0  0  0  0  0  0  0  0  0
  193.6590  176.3090  137.2540 C   0  0  0  0  0  3  0  0  0  0  0  0
  1  8  1  0  0  0  0
  1 11  1  1  0  0  0
  2  7  1  0  0  0  0
  3  2  1  0  0  0  0
  3  9  1  0  0  0  0
  5  4  2  0  0  0  0
  6  9  2  0  0  0  0
  6 13  1  0  0  0  0
  7 19  1  0  0  0  0
  7 17  1  0  0  0  0
 10 14  2  0  0  0  0
 12 21  2  0  0  0  0
 12 22  1  0  0  0  0
 14 19  1  0  0  0  0
 15 10  1  0  0  0  0
 15  2  2  0  0  0  0
 16  5  1  0  0  0  0
 16 10  1  0  0  0  0
 17  1  1  0  0  0  0
 18  6  1  0  0  0  0
 19 20  1  1  0  0  0
 20  8  1  0  0  0  0
 21 15  1  0  0  0  0
 22  3  2  0  0  0  0
 23 22  1  0  0  0  0
 23 18  2  0  0  0  0
 24 31  1  0  0  0  0
 25 30  2  0  0  0  0
 27 24  1  0  0  0  0
 28 24  2  0  0  0  0
 28 25  1  0  0  0  0
 29 26  1  0  0  0  0
 30 29  1  0  0  0  0
 30  5  1  0  0  0  0
 31 29  2  0  0  0  0
M  END
>  <MODEL>
9

>  <REMARK>
 VINA RESULT:      -8.2      3.845      6.514
  Name = 
  1 active torsions:
  status: ('A' for Active; 'I' for Inactive)
    1  A    between atoms: C_5  and  C_30
                            x       y       z     vdW  Elec       q    Type
                         _______ _______ _______ _____ _____    ______ ____

>  <TORSDO>
F 1

$$$$
