=
 OpenBabel11122411583D

 28 32  0  0  1  0  0  0  0  0999 V2000
  180.3730  178.3120  139.4600 C   0  0  0  0  0  0  0  0  0  0  0  0
  183.1610  176.7260  138.5390 O   0  0  0  0  0  0  0  0  0  0  0  0
  183.2510  179.8920  144.3070 O   0  0  0  0  0  0  0  0  0  0  0  0
  179.9180  180.5460  137.8220 C   0  0  0  0  0  3  0  0  0  0  0  0
  184.8040  178.9570  142.6970 C   0  0  2  0  0  3  0  0  0  0  0  0
  180.5460  177.0890  140.3030 C   0  0  0  0  0  2  0  0  0  0  0  0
  183.5120  178.2950  136.6790 O   0  0  0  0  0  0  0  0  0  0  0  0
  184.0070  177.8570  138.0300 S   0  0  0  0  0  0  0  0  0  0  0  0
  186.6500  177.8340  138.7750 C   0  0  0  0  0  0  0  0  0  0  0  0
  183.9840  179.2570  139.1470 C   0  0  2  0  0  3  0  0  0  0  0  0
  179.7050  177.6930  143.8200 O   0  0  0  0  0  0  0  0  0  0  0  0
  182.9770  178.2980  141.1580 C   0  0  1  0  0  3  0  0  0  0  0  0
  186.3820  178.6520  139.7530 N   0  0  0  0  0  0  0  0  0  0  0  0
  185.6400  177.3270  137.9080 N   0  0  0  0  0  2  0  0  0  0  0  0
  180.1370  178.0020  142.6730 C   0  0  0  0  0  0  0  0  0  0  0  0
  181.3890  179.2970  139.3090 C   0  0  0  0  0  0  0  0  0  0  0  0
  183.4560  179.2570  143.2360 C   0  0  0  0  0  0  0  0  0  0  0  0
  188.0660  177.4580  138.5160 C   0  0  0  0  0  1  0  0  0  0  0  0
  181.0140  179.2100  142.5350 C   0  0  0  0  0  2  0  0  0  0  0  0
  181.1350  180.4090  138.4940 C   0  0  0  0  0  3  0  0  0  0  0  0
  179.1590  178.4600  138.7750 C   0  0  0  0  0  3  0  0  0  0  0  0
  178.9320  179.5710  137.9610 C   0  0  0  0  0  3  0  0  0  0  0  0
  179.7910  177.1740  141.5510 N   0  0  0  0  0  2  0  0  0  0  0  0
  184.5040  178.2730  141.3500 C   0  0  1  0  0  3  0  0  0  0  0  0
  182.4120  178.8160  142.3910 N   0  0  0  0  0  0  0  0  0  0  0  0
  185.0690  179.1180  140.2110 C   0  0  2  0  0  3  0  0  0  0  0  0
  185.5300  177.9850  143.6170 C   0  0  0  0  0  1  0  0  0  0  0  0
  182.7340  179.2760  140.0120 C   0  0  2  0  0  3  0  0  0  0  0  0
  1  6  1  0  0  0  0
  4 22  2  0  0  0  0
  4 20  1  0  0  0  0
  5 17  1  0  0  0  0
  5 27  1  1  0  0  0
  6 23  1  0  0  0  0
  7  8  2  0  0  0  0
  8  2  2  0  0  0  0
  9 13  2  0  0  0  0
 10  8  1  6  0  0  0
 10 28  1  0  0  0  0
 10 26  1  0  0  0  0
 12 24  1  0  0  0  0
 12 25  1  1  0  0  0
 13 26  1  0  0  0  0
 14  8  1  0  0  0  0
 14  9  1  0  0  0  0
 15 11  2  0  0  0  0
 16  1  1  0  0  0  0
 16 28  1  0  0  0  0
 17  3  2  0  0  0  0
 18  9  1  0  0  0  0
 19 15  1  0  0  0  0
 20 16  2  0  0  0  0
 21  1  2  0  0  0  0
 22 21  1  0  0  0  0
 23 15  1  0  0  0  0
 24  5  1  0  0  0  0
 25 19  1  0  0  0  0
 25 17  1  0  0  0  0
 26 24  1  0  0  0  0
 28 12  1  0  0  0  0
M  END
>  <MODEL>
1

>  <REMARK>
 VINA RESULT:      -6.5      0.000      0.000
  Name = 
  0 active torsions:
  status: ('A' for Active; 'I' for Inactive)
                            x       y       z     vdW  Elec       q    Type
                         _______ _______ _______ _____ _____    ______ ____

>  <TORSDO>
F 0

$$$$
=
 OpenBabel11122411583D

 28 32  0  0  1  0  0  0  0  0999 V2000
  180.9240  176.2490  137.4810 C   0  0  0  0  0  0  0  0  0  0  0  0
  184.2110  175.6990  137.6610 O   0  0  0  0  0  0  0  0  0  0  0  0
  181.4750  179.2620  142.4710 O   0  0  0  0  0  0  0  0  0  0  0  0
  180.3250  177.9800  135.3550 C   0  0  0  0  0  3  0  0  0  0  0  0
  183.6680  178.7940  141.5460 C   0  0  2  0  0  3  0  0  0  0  0  0
  181.2010  175.2670  138.5750 C   0  0  0  0  0  2  0  0  0  0  0  0
  184.6130  177.0860  135.6710 O   0  0  0  0  0  0  0  0  0  0  0  0
  184.7700  177.0010  137.1650 S   0  0  0  0  0  0  0  0  0  0  0  0
  186.9080  178.0190  138.5550 C   0  0  0  0  0  0  0  0  0  0  0  0
  183.9550  178.4050  137.9220 C   0  0  2  0  0  3  0  0  0  0  0  0
  179.1520  175.8850  141.5520 O   0  0  0  0  0  0  0  0  0  0  0  0
  182.7250  177.3590  139.7590 C   0  0  1  0  0  3  0  0  0  0  0  0
  186.1020  178.7800  139.2390 N   0  0  0  0  0  0  0  0  0  0  0  0
  186.4370  177.0920  137.5810 N   0  0  0  0  0  2  0  0  0  0  0  0
  179.8010  176.2090  140.5170 C   0  0  0  0  0  0  0  0  0  0  0  0
  181.5700  177.5140  137.3970 C   0  0  0  0  0  0  0  0  0  0  0  0
  182.1960  178.6380  141.6440 C   0  0  0  0  0  0  0  0  0  0  0  0
  188.3760  178.1590  138.7540 C   0  0  0  0  0  1  0  0  0  0  0  0
  180.2460  177.6320  140.3620 C   0  0  0  0  0  2  0  0  0  0  0  0
  181.2450  178.3660  136.3320 C   0  0  0  0  0  3  0  0  0  0  0  0
  180.0060  175.8720  136.4910 C   0  0  0  0  0  3  0  0  0  0  0  0
  179.7070  176.7330  135.4340 C   0  0  0  0  0  3  0  0  0  0  0  0
  180.1060  175.2000  139.5410 N   0  0  0  0  0  2  0  0  0  0  0  0
  184.0390  177.9120  140.3400 C   0  0  1  0  0  3  0  0  0  0  0  0
  181.6670  177.7610  140.6690 N   0  0  0  0  0  0  0  0  0  0  0  0
  184.6360  178.7810  139.2350 C   0  0  2  0  0  3  0  0  0  0  0  0
  184.3360  178.2540  142.8030 C   0  0  0  0  0  1  0  0  0  0  0  0
  182.5580  178.0570  138.4120 C   0  0  2  0  0  3  0  0  0  0  0  0
  1  6  1  0  0  0  0
  4 22  2  0  0  0  0
  4 20  1  0  0  0  0
  5 17  1  0  0  0  0
  5 27  1  1  0  0  0
  6 23  1  0  0  0  0
  7  8  2  0  0  0  0
  8 14  1  0  0  0  0
  8  2  2  0  0  0  0
  9 18  1  0  0  0  0
  9 13  2  0  0  0  0
 10  8  1  1  0  0  0
 10 28  1  0  0  0  0
 10 26  1  0  0  0  0
 12 24  1  0  0  0  0
 12 25  1  1  0  0  0
 14  9  1  0  0  0  0
 15 11  2  0  0  0  0
 16  1  1  0  0  0  0
 16 28  1  0  0  0  0
 17  3  2  0  0  0  0
 19 15  1  0  0  0  0
 19 25  1  0  0  0  0
 20 16  2  0  0  0  0
 21  1  2  0  0  0  0
 22 21  1  0  0  0  0
 23 15  1  0  0  0  0
 24  5  1  0  0  0  0
 25 17  1  0  0  0  0
 26 13  1  0  0  0  0
 26 24  1  0  0  0  0
 28 12  1  0  0  0  0
M  END
>  <MODEL>
2

>  <REMARK>
 VINA RESULT:      -6.1      2.094      2.294
  Name = 
  0 active torsions:
  status: ('A' for Active; 'I' for Inactive)
                            x       y       z     vdW  Elec       q    Type
                         _______ _______ _______ _____ _____    ______ ____

>  <TORSDO>
F 0

$$$$
=
 OpenBabel11122411583D

 28 32  0  0  1  0  0  0  0  0999 V2000
  186.6640  175.6500  135.8290 C   0  0  0  0  0  0  0  0  0  0  0  0
  183.5630  176.1190  134.6900 O   0  0  0  0  0  0  0  0  0  0  0  0
  185.3050  179.3730  140.1380 O   0  0  0  0  0  0  0  0  0  0  0  0
  186.9640  173.0500  136.8420 C   0  0  0  0  0  3  0  0  0  0  0  0
  183.2960  178.7340  138.9390 C   0  0  2  0  0  3  0  0  0  0  0  0
  186.5600  177.0170  135.2310 C   0  0  0  0  0  2  0  0  0  0  0  0
  182.9520  173.7970  135.2210 O   0  0  0  0  0  0  0  0  0  0  0  0
  182.7610  175.2390  135.6050 S   0  0  0  0  0  0  0  0  0  0  0  0
  180.4060  176.2870  136.5510 C   0  0  0  0  0  0  0  0  0  0  0  0
  183.2330  175.4570  137.3190 C   0  0  2  0  0  3  0  0  0  0  0  0
  188.3200  179.5450  137.2190 O   0  0  0  0  0  0  0  0  0  0  0  0
  184.5860  177.4930  137.2260 C   0  0  1  0  0  3  0  0  0  0  0  0
  181.0070  176.6510  137.6480 N   0  0  0  0  0  0  0  0  0  0  0  0
  181.0980  175.6600  135.4750 N   0  0  0  0  0  2  0  0  0  0  0  0
  187.6570  178.4850  137.0370 C   0  0  0  0  0  0  0  0  0  0  0  0
  185.7710  175.1730  136.8280 C   0  0  0  0  0  0  0  0  0  0  0  0
  184.7630  178.8270  139.1380 C   0  0  0  0  0  0  0  0  0  0  0  0
  178.9350  176.4800  136.4370 C   0  0  0  0  0  1  0  0  0  0  0  0
  186.9270  177.8820  138.1990 C   0  0  0  0  0  2  0  0  0  0  0  0
  185.9480  173.8750  137.3270 C   0  0  0  0  0  3  0  0  0  0  0  0
  187.6770  174.8100  135.3480 C   0  0  0  0  0  3  0  0  0  0  0  0
  187.8280  173.5160  135.8530 C   0  0  0  0  0  3  0  0  0  0  0  0
  187.6080  177.9100  135.7210 N   0  0  0  0  0  2  0  0  0  0  0  0
  183.1650  177.9030  137.6500 C   0  0  1  0  0  3  0  0  0  0  0  0
  185.5010  178.1790  138.1200 N   0  0  0  0  0  0  0  0  0  0  0  0
  182.4400  176.5940  137.9570 C   0  0  2  0  0  3  0  0  0  0  0  0
  182.7100  180.1220  138.7190 C   0  0  0  0  0  1  0  0  0  0  0  0
  184.6530  175.9860  137.4560 C   0  0  2  0  0  3  0  0  0  0  0  0
  1 16  1  0  0  0  0
  2  8  2  0  0  0  0
  4 20  1  0  0  0  0
  5 27  1  6  0  0  0
  5 17  1  0  0  0  0
  6 23  1  0  0  0  0
  6  1  1  0  0  0  0
  7  8  2  0  0  0  0
  9 13  2  0  0  0  0
 10  8  1  6  0  0  0
 10 28  1  0  0  0  0
 10 26  1  0  0  0  0
 12 28  1  0  0  0  0
 12 24  1  0  0  0  0
 12 25  1  1  0  0  0
 13 26  1  0  0  0  0
 14  8  1  0  0  0  0
 14  9  1  0  0  0  0
 15 11  2  0  0  0  0
 15 19  1  0  0  0  0
 16 20  2  0  0  0  0
 16 28  1  0  0  0  0
 17  3  2  0  0  0  0
 18  9  1  0  0  0  0
 21  1  2  0  0  0  0
 21 22  1  0  0  0  0
 22  4  2  0  0  0  0
 23 15  1  0  0  0  0
 24 26  1  0  0  0  0
 24  5  1  0  0  0  0
 25 19  1  0  0  0  0
 25 17  1  0  0  0  0
M  END
>  <MODEL>
3

>  <REMARK>
 VINA RESULT:      -5.7      3.452      7.032
  Name = 
  0 active torsions:
  status: ('A' for Active; 'I' for Inactive)
                            x       y       z     vdW  Elec       q    Type
                         _______ _______ _______ _____ _____    ______ ____

>  <TORSDO>
F 0

$$$$
=
 OpenBabel11122411583D

 28 32  0  0  1  0  0  0  0  0999 V2000
  182.5980  178.9170  138.7340 C   0  0  0  0  0  0  0  0  0  0  0  0
  181.1860  176.0080  139.5600 O   0  0  0  0  0  0  0  0  0  0  0  0
  186.8640  175.7760  136.2410 O   0  0  0  0  0  0  0  0  0  0  0  0
  181.0800  180.2320  136.7740 C   0  0  0  0  0  3  0  0  0  0  0  0
  184.9970  174.3320  136.7980 C   0  0  2  0  0  3  0  0  0  0  0  0
  183.3910  178.2780  139.8300 C   0  0  0  0  0  2  0  0  0  0  0  0
  179.3020  176.4200  138.0340 O   0  0  0  0  0  0  0  0  0  0  0  0
  180.5410  175.6000  138.2680 S   0  0  0  0  0  0  0  0  0  0  0  0
  180.8030  172.9610  137.5550 C   0  0  0  0  0  0  0  0  0  0  0  0
  181.6520  175.8040  136.8770 C   0  0  2  0  0  3  0  0  0  0  0  0
  187.0040  178.6270  139.3220 O   0  0  0  0  0  0  0  0  0  0  0  0
  183.8050  176.1520  137.9830 C   0  0  1  0  0  3  0  0  0  0  0  0
  181.8180  173.2640  136.7970 N   0  0  0  0  0  0  0  0  0  0  0  0
  180.1270  173.9310  138.3490 N   0  0  0  0  0  2  0  0  0  0  0  0
  185.8000  178.5010  138.9590 C   0  0  0  0  0  0  0  0  0  0  0  0
  182.2740  178.2450  137.5230 C   0  0  0  0  0  0  0  0  0  0  0  0
  185.7700  175.5970  136.8430 C   0  0  0  0  0  0  0  0  0  0  0  0
  180.2930  171.5620  137.5520 C   0  0  0  0  0  1  0  0  0  0  0  0
  185.5150  178.0190  137.5690 C   0  0  0  0  0  2  0  0  0  0  0  0
  181.5240  178.9270  136.5540 C   0  0  0  0  0  3  0  0  0  0  0  0
  182.1420  180.2250  138.9440 C   0  0  0  0  0  3  0  0  0  0  0  0
  181.3880  180.8810  137.9690 C   0  0  0  0  0  3  0  0  0  0  0  0
  184.7540  178.8000  139.8960 N   0  0  0  0  0  2  0  0  0  0  0  0
  183.7220  174.6650  137.5940 C   0  0  1  0  0  3  0  0  0  0  0  0
  185.1220  176.6140  137.5820 N   0  0  0  0  0  0  0  0  0  0  0  0
  182.5050  174.5550  136.6780 C   0  0  2  0  0  3  0  0  0  0  0  0
  185.7680  173.2230  137.5010 C   0  0  0  0  0  1  0  0  0  0  0  0
  182.7270  176.8440  137.1550 C   0  0  2  0  0  3  0  0  0  0  0  0
  1 21  1  0  0  0  0
  1  6  1  0  0  0  0
  3 17  2  0  0  0  0
  4 22  1  0  0  0  0
  5 17  1  0  0  0  0
  5 27  1  1  0  0  0
  5 24  1  0  0  0  0
  6 23  1  0  0  0  0
  7  8  2  0  0  0  0
  8 14  1  0  0  0  0
  8  2  2  0  0  0  0
  9 14  1  0  0  0  0
 10 28  1  0  0  0  0
 10  8  1  1  0  0  0
 12 25  1  6  0  0  0
 13  9  2  0  0  0  0
 15 11  2  0  0  0  0
 15 23  1  0  0  0  0
 16  1  2  0  0  0  0
 17 25  1  0  0  0  0
 18  9  1  0  0  0  0
 19 25  1  0  0  0  0
 19 15  1  0  0  0  0
 20  4  2  0  0  0  0
 20 16  1  0  0  0  0
 22 21  2  0  0  0  0
 24 12  1  0  0  0  0
 26 13  1  0  0  0  0
 26 10  1  0  0  0  0
 26 24  1  0  0  0  0
 28 16  1  0  0  0  0
 28 12  1  0  0  0  0
M  END
>  <MODEL>
4

>  <REMARK>
 VINA RESULT:      -5.7      3.533      5.897
  Name = 
  0 active torsions:
  status: ('A' for Active; 'I' for Inactive)
                            x       y       z     vdW  Elec       q    Type
                         _______ _______ _______ _____ _____    ______ ____

>  <TORSDO>
F 0

$$$$
=
 OpenBabel11122411583D

 28 32  0  0  1  0  0  0  0  0999 V2000
  181.6350  178.5890  139.7200 C   0  0  0  0  0  0  0  0  0  0  0  0
  181.4770  175.4210  138.6830 O   0  0  0  0  0  0  0  0  0  0  0  0
  187.0490  178.7140  137.4960 O   0  0  0  0  0  0  0  0  0  0  0  0
  179.9190  180.2130  138.2060 C   0  0  0  0  0  3  0  0  0  0  0  0
  185.9010  176.7110  136.7530 C   0  0  2  0  0  3  0  0  0  0  0  0
  182.5040  177.7400  140.5940 C   0  0  0  0  0  2  0  0  0  0  0  0
  179.7590  175.9880  137.0180 O   0  0  0  0  0  0  0  0  0  0  0  0
  181.1950  175.5890  137.2180 S   0  0  0  0  0  0  0  0  0  0  0  0
  182.5970  173.9570  135.5120 C   0  0  0  0  0  0  0  0  0  0  0  0
  182.2570  176.8250  136.4750 C   0  0  2  0  0  3  0  0  0  0  0  0
  185.6800  179.3780  141.4110 O   0  0  0  0  0  0  0  0  0  0  0  0
  183.9480  177.1630  138.2100 C   0  0  1  0  0  3  0  0  0  0  0  0
  183.4670  174.9060  135.3160 N   0  0  0  0  0  0  0  0  0  0  0  0
  181.5030  174.1000  136.4120 N   0  0  0  0  0  2  0  0  0  0  0  0
  184.6810  179.1070  140.6860 C   0  0  0  0  0  0  0  0  0  0  0  0
  181.7440  178.6020  138.3020 C   0  0  0  0  0  0  0  0  0  0  0  0
  186.0720  177.9220  137.5920 C   0  0  0  0  0  0  0  0  0  0  0  0
  182.7150  172.6980  134.7270 C   0  0  0  0  0  1  0  0  0  0  0  0
  184.7640  179.3780  139.2140 C   0  0  0  0  0  2  0  0  0  0  0  0
  180.8830  179.4310  137.5670 C   0  0  0  0  0  3  0  0  0  0  0  0
  180.6590  179.3750  140.3480 C   0  0  0  0  0  3  0  0  0  0  0  0
  179.8060  180.1850  139.5950 C   0  0  0  0  0  3  0  0  0  0  0  0
  183.5140  178.5300  141.2940 N   0  0  0  0  0  2  0  0  0  0  0  0
  184.5280  176.1680  137.1890 C   0  0  1  0  0  3  0  0  0  0  0  0
  184.9890  178.1390  138.4760 N   0  0  0  0  0  0  0  0  0  0  0  0
  183.5660  176.1990  136.0020 C   0  0  2  0  0  3  0  0  0  0  0  0
  186.9850  175.6930  137.0790 C   0  0  0  0  0  1  0  0  0  0  0  0
  182.7710  177.8250  137.4990 C   0  0  2  0  0  3  0  0  0  0  0  0
  1 21  1  0  0  0  0
  1  6  1  0  0  0  0
  3 17  2  0  0  0  0
  4 22  1  0  0  0  0
  5 27  1  1  0  0  0
  5 24  1  0  0  0  0
  5 17  1  0  0  0  0
  6 23  1  0  0  0  0
  7  8  2  0  0  0  0
  8  2  2  0  0  0  0
  9 14  1  0  0  0  0
 10  8  1  1  0  0  0
 10 28  1  0  0  0  0
 12 25  1  6  0  0  0
 13  9  2  0  0  0  0
 13 26  1  0  0  0  0
 14  8  1  0  0  0  0
 15 23  1  0  0  0  0
 15 11  2  0  0  0  0
 16  1  2  0  0  0  0
 17 25  1  0  0  0  0
 18  9  1  0  0  0  0
 19 15  1  0  0  0  0
 20  4  2  0  0  0  0
 20 16  1  0  0  0  0
 22 21  2  0  0  0  0
 24 12  1  0  0  0  0
 25 19  1  0  0  0  0
 26 10  1  0  0  0  0
 26 24  1  0  0  0  0
 28 12  1  0  0  0  0
 28 16  1  0  0  0  0
M  END
>  <MODEL>
5

>  <REMARK>
 VINA RESULT:      -5.6      3.185      4.819
  Name = 
  0 active torsions:
  status: ('A' for Active; 'I' for Inactive)
                            x       y       z     vdW  Elec       q    Type
                         _______ _______ _______ _____ _____    ______ ____

>  <TORSDO>
F 0

$$$$
=
 OpenBabel11122411583D

 28 32  0  0  1  0  0  0  0  0999 V2000
  181.6480  178.5430  140.4410 C   0  0  0  0  0  0  0  0  0  0  0  0
  181.2210  175.2890  139.8400 O   0  0  0  0  0  0  0  0  0  0  0  0
  186.3350  178.2510  136.9450 O   0  0  0  0  0  0  0  0  0  0  0  0
  179.6160  180.0500  139.2260 C   0  0  0  0  0  3  0  0  0  0  0  0
  185.0290  176.2180  136.7400 C   0  0  2  0  0  3  0  0  0  0  0  0
  182.7040  177.7660  141.1620 C   0  0  0  0  0  2  0  0  0  0  0  0
  179.1440  175.7290  138.5990 O   0  0  0  0  0  0  0  0  0  0  0  0
  180.5830  175.3070  138.4810 S   0  0  0  0  0  0  0  0  0  0  0  0
  181.5060  173.4550  136.6750 C   0  0  0  0  0  0  0  0  0  0  0  0
  181.4310  176.4200  137.3630 C   0  0  2  0  0  3  0  0  0  0  0  0
  185.9910  179.3780  140.9760 O   0  0  0  0  0  0  0  0  0  0  0  0
  183.5040  176.8880  138.5750 C   0  0  1  0  0  3  0  0  0  0  0  0
  182.3040  174.3490  136.1640 N   0  0  0  0  0  0  0  0  0  0  0  0
  180.6720  173.7300  137.7970 N   0  0  0  0  0  2  0  0  0  0  0  0
  184.8410  179.0630  140.5570 C   0  0  0  0  0  0  0  0  0  0  0  0
  181.3990  178.4000  139.0470 C   0  0  0  0  0  0  0  0  0  0  0  0
  185.4100  177.5060  137.3690 C   0  0  0  0  0  0  0  0  0  0  0  0
  181.4180  172.1150  136.0340 C   0  0  0  0  0  1  0  0  0  0  0  0
  184.5550  179.1700  139.0890 C   0  0  0  0  0  2  0  0  0  0  0  0
  180.3860  179.1720  138.4610 C   0  0  0  0  0  3  0  0  0  0  0  0
  180.8640  179.4250  141.1980 C   0  0  0  0  0  3  0  0  0  0  0  0
  179.8540  180.1750  140.5930 C   0  0  0  0  0  3  0  0  0  0  0  0
  183.8610  178.5940  141.4960 N   0  0  0  0  0  2  0  0  0  0  0  0
  183.8050  175.7700  137.5610 C   0  0  1  0  0  3  0  0  0  0  0  0
  184.5830  177.8530  138.4630 N   0  0  0  0  0  0  0  0  0  0  0  0
  182.5780  175.7040  136.6540 C   0  0  2  0  0  3  0  0  0  0  0  0
  186.1540  175.2050  136.9000 C   0  0  0  0  0  1  0  0  0  0  0  0
  182.1900  177.5080  138.1080 C   0  0  2  0  0  3  0  0  0  0  0  0
  1  6  1  0  0  0  0
  1 21  1  0  0  0  0
  3 17  2  0  0  0  0
  4 22  1  0  0  0  0
  5 27  1  1  0  0  0
  5 17  1  0  0  0  0
  5 24  1  0  0  0  0
  6 23  1  0  0  0  0
  8  7  2  0  0  0  0
  8  2  2  0  0  0  0
  9 14  1  0  0  0  0
 10 28  1  0  0  0  0
 10  8  1  1  0  0  0
 12 25  1  6  0  0  0
 13 26  1  0  0  0  0
 13  9  2  0  0  0  0
 14  8  1  0  0  0  0
 15 11  2  0  0  0  0
 15 23  1  0  0  0  0
 16  1  2  0  0  0  0
 17 25  1  0  0  0  0
 18  9  1  0  0  0  0
 19 15  1  0  0  0  0
 20 16  1  0  0  0  0
 20  4  2  0  0  0  0
 22 21  2  0  0  0  0
 24 12  1  0  0  0  0
 25 19  1  0  0  0  0
 26 10  1  0  0  0  0
 26 24  1  0  0  0  0
 28 12  1  0  0  0  0
 28 16  1  0  0  0  0
M  END
>  <MODEL>
6

>  <REMARK>
 VINA RESULT:      -5.5      3.202      5.117
  Name = 
  0 active torsions:
  status: ('A' for Active; 'I' for Inactive)
                            x       y       z     vdW  Elec       q    Type
                         _______ _______ _______ _____ _____    ______ ____

>  <TORSDO>
F 0

$$$$
=
 OpenBabel11122411583D

 28 32  0  0  1  0  0  0  0  0999 V2000
  181.9120  177.8290  138.7900 C   0  0  0  0  0  0  0  0  0  0  0  0
  182.5940  174.6520  138.0320 O   0  0  0  0  0  0  0  0  0  0  0  0
  187.5240  178.9880  137.5890 O   0  0  0  0  0  0  0  0  0  0  0  0
  180.2410  178.9730  136.8470 C   0  0  0  0  0  3  0  0  0  0  0  0
  186.9660  176.7520  136.8340 C   0  0  2  0  0  3  0  0  0  0  0  0
  182.7420  177.2290  139.8800 C   0  0  0  0  0  2  0  0  0  0  0  0
  181.1600  174.7570  136.0370 O   0  0  0  0  0  0  0  0  0  0  0  0
  182.5790  174.6820  136.5310 S   0  0  0  0  0  0  0  0  0  0  0  0
  184.5860  173.3000  135.2640 C   0  0  0  0  0  0  0  0  0  0  0  0
  183.5000  176.0750  135.8860 C   0  0  2  0  0  3  0  0  0  0  0  0
  185.3050  179.5430  141.1120 O   0  0  0  0  0  0  0  0  0  0  0  0
  184.7140  176.8520  137.8620 C   0  0  1  0  0  3  0  0  0  0  0  0
  185.2710  174.4010  135.1450 N   0  0  0  0  0  0  0  0  0  0  0  0
  183.3290  173.2530  135.9330 N   0  0  0  0  0  2  0  0  0  0  0  0
  184.5430  179.0300  140.2440 C   0  0  0  0  0  0  0  0  0  0  0  0
  182.2940  177.7940  137.4200 C   0  0  0  0  0  0  0  0  0  0  0  0
  186.7240  178.0120  137.5770 C   0  0  0  0  0  0  0  0  0  0  0  0
  185.1040  172.0570  134.6320 C   0  0  0  0  0  1  0  0  0  0  0  0
  184.8600  179.2370  138.7940 C   0  0  0  0  0  2  0  0  0  0  0  0
  181.4480  178.3820  136.4690 C   0  0  0  0  0  3  0  0  0  0  0  0
  180.6960  178.4210  139.1550 C   0  0  0  0  0  3  0  0  0  0  0  0
  179.8640  178.9920  138.1890 C   0  0  0  0  0  3  0  0  0  0  0  0
  183.4170  178.2500  140.6790 N   0  0  0  0  0  2  0  0  0  0  0  0
  185.6700  175.9520  137.0580 C   0  0  1  0  0  3  0  0  0  0  0  0
  185.4670  178.0390  138.2250 N   0  0  0  0  0  0  0  0  0  0  0  0
  184.9750  175.7190  135.7190 C   0  0  2  0  0  3  0  0  0  0  0  0
  188.1440  176.0040  137.4420 C   0  0  0  0  0  1  0  0  0  0  0  0
  183.5930  177.2130  136.8920 C   0  0  2  0  0  3  0  0  0  0  0  0
  1 21  1  0  0  0  0
  1  6  1  0  0  0  0
  4 22  1  0  0  0  0
  5 24  1  0  0  0  0
  5 27  1  1  0  0  0
  5 17  1  0  0  0  0
  6 23  1  0  0  0  0
  7  8  2  0  0  0  0
  8  2  2  0  0  0  0
  9 14  1  0  0  0  0
 10  8  1  1  0  0  0
 10 28  1  0  0  0  0
 12 25  1  6  0  0  0
 13  9  2  0  0  0  0
 13 26  1  0  0  0  0
 14  8  1  0  0  0  0
 15 23  1  0  0  0  0
 15 11  2  0  0  0  0
 16  1  2  0  0  0  0
 17  3  2  0  0  0  0
 17 25  1  0  0  0  0
 18  9  1  0  0  0  0
 19 15  1  0  0  0  0
 20  4  2  0  0  0  0
 20 16  1  0  0  0  0
 22 21  2  0  0  0  0
 24 12  1  0  0  0  0
 25 19  1  0  0  0  0
 26 10  1  0  0  0  0
 26 24  1  0  0  0  0
 28 16  1  0  0  0  0
 28 12  1  0  0  0  0
M  END
>  <MODEL>
7

>  <REMARK>
 VINA RESULT:      -5.4      3.263      4.907
  Name = 
  0 active torsions:
  status: ('A' for Active; 'I' for Inactive)
                            x       y       z     vdW  Elec       q    Type
                         _______ _______ _______ _____ _____    ______ ____

>  <TORSDO>
F 0

$$$$
=
 OpenBabel11122411583D

 28 32  0  0  1  0  0  0  0  0999 V2000
  184.8580  174.4530  135.5690 C   0  0  0  0  0  0  0  0  0  0  0  0
  181.7750  175.6260  136.0690 O   0  0  0  0  0  0  0  0  0  0  0  0
  186.7040  178.6420  139.2180 O   0  0  0  0  0  0  0  0  0  0  0  0
  185.1590  171.9250  136.7510 C   0  0  0  0  0  3  0  0  0  0  0  0
  184.2870  178.4660  139.3230 C   0  0  2  0  0  3  0  0  0  0  0  0
  184.7100  175.7640  134.8650 C   0  0  0  0  0  2  0  0  0  0  0  0
  181.1180  173.5700  137.2470 O   0  0  0  0  0  0  0  0  0  0  0  0
  181.4310  175.0330  137.4050 S   0  0  0  0  0  0  0  0  0  0  0  0
  180.1760  176.6980  139.1920 C   0  0  0  0  0  0  0  0  0  0  0  0
  182.7690  175.2240  138.5800 C   0  0  2  0  0  3  0  0  0  0  0  0
  187.6880  177.8730  135.2080 O   0  0  0  0  0  0  0  0  0  0  0  0
  184.2190  176.8400  137.4550 C   0  0  1  0  0  3  0  0  0  0  0  0
  181.3210  176.9600  139.7540 N   0  0  0  0  0  0  0  0  0  0  0  0
  180.0630  175.8550  138.0500 N   0  0  0  0  0  2  0  0  0  0  0  0
  186.8460  177.0080  135.5790 C   0  0  0  0  0  0  0  0  0  0  0  0
  184.5580  174.2770  136.9480 C   0  0  0  0  0  0  0  0  0  0  0  0
  185.6240  178.1950  138.7420 C   0  0  0  0  0  0  0  0  0  0  0  0
  178.9330  177.2510  139.7950 C   0  0  0  0  0  1  0  0  0  0  0  0
  186.7450  176.6790  137.0370 C   0  0  0  0  0  2  0  0  0  0  0  0
  184.7270  173.0080  137.5190 C   0  0  0  0  0  3  0  0  0  0  0  0
  185.2860  173.3560  134.8090 C   0  0  0  0  0  3  0  0  0  0  0  0
  185.4380  172.0990  135.3960 C   0  0  0  0  0  3  0  0  0  0  0  0
  186.0020  176.3890  134.5940 N   0  0  0  0  0  2  0  0  0  0  0  0
  183.3420  177.6220  138.4490 C   0  0  1  0  0  3  0  0  0  0  0  0
  185.5770  177.3230  137.6290 N   0  0  0  0  0  0  0  0  0  0  0  0
  182.6610  176.5600  139.3100 C   0  0  2  0  0  3  0  0  0  0  0  0
  183.9440  179.9420  139.1770 C   0  0  0  0  0  1  0  0  0  0  0  0
  184.1150  175.3820  137.8910 C   0  0  2  0  0  3  0  0  0  0  0  0
  1 16  1  0  0  0  0
  2  8  2  0  0  0  0
  4 20  1  0  0  0  0
  5 27  1  6  0  0  0
  6  1  1  0  0  0  0
  7  8  2  0  0  0  0
  8 14  1  0  0  0  0
  9 13  2  0  0  0  0
  9 18  1  0  0  0  0
 10  8  1  6  0  0  0
 10 26  1  0  0  0  0
 11 15  2  0  0  0  0
 12 25  1  1  0  0  0
 12 28  1  0  0  0  0
 12 24  1  0  0  0  0
 14  9  1  0  0  0  0
 15 19  1  0  0  0  0
 16 20  2  0  0  0  0
 16 28  1  0  0  0  0
 17  3  2  0  0  0  0
 17  5  1  0  0  0  0
 19 25  1  0  0  0  0
 21 22  1  0  0  0  0
 21  1  2  0  0  0  0
 22  4  2  0  0  0  0
 23  6  1  0  0  0  0
 23 15  1  0  0  0  0
 24 26  1  0  0  0  0
 24  5  1  0  0  0  0
 25 17  1  0  0  0  0
 26 13  1  0  0  0  0
 28 10  1  0  0  0  0
M  END
>  <MODEL>
8

>  <REMARK>
 VINA RESULT:      -5.2      3.748      6.939
  Name = 
  0 active torsions:
  status: ('A' for Active; 'I' for Inactive)
                            x       y       z     vdW  Elec       q    Type
                         _______ _______ _______ _____ _____    ______ ____

>  <TORSDO>
F 0

$$$$
=
 OpenBabel11122411583D

 28 32  0  0  1  0  0  0  0  0999 V2000
  189.9100  177.0120  137.9150 C   0  0  0  0  0  0  0  0  0  0  0  0
  188.8670  173.8550  137.6340 O   0  0  0  0  0  0  0  0  0  0  0  0
  195.2100  175.0660  136.3680 O   0  0  0  0  0  0  0  0  0  0  0  0
  188.8180  178.6010  135.8750 C   0  0  0  0  0  3  0  0  0  0  0  0
  193.5540  173.3360  135.9840 C   0  0  2  0  0  3  0  0  0  0  0  0
  190.4500  176.2120  139.0570 C   0  0  0  0  0  2  0  0  0  0  0  0
  187.4680  174.4270  135.6940 O   0  0  0  0  0  0  0  0  0  0  0  0
  188.7110  173.7120  136.1480 S   0  0  0  0  0  0  0  0  0  0  0  0
  189.6410  171.3760  135.0430 C   0  0  0  0  0  0  0  0  0  0  0  0
  190.1230  174.3730  135.2650 C   0  0  2  0  0  3  0  0  0  0  0  0
  193.9290  177.0640  139.8340 O   0  0  0  0  0  0  0  0  0  0  0  0
  191.7610  174.6670  137.0580 C   0  0  1  0  0  3  0  0  0  0  0  0
  190.7600  171.9660  134.7340 N   0  0  0  0  0  0  0  0  0  0  0  0
  188.6000  172.0410  135.7520 N   0  0  0  0  0  2  0  0  0  0  0  0
  192.9280  176.9020  139.0810 C   0  0  0  0  0  0  0  0  0  0  0  0
  190.0790  176.6310  136.5550 C   0  0  0  0  0  0  0  0  0  0  0  0
  194.0390  174.6260  136.5320 C   0  0  0  0  0  0  0  0  0  0  0  0
  189.4150  169.9750  134.5940 C   0  0  0  0  0  1  0  0  0  0  0  0
  193.1510  176.7510  137.6060 C   0  0  0  0  0  2  0  0  0  0  0  0
  189.5350  177.4470  135.5530 C   0  0  0  0  0  3  0  0  0  0  0  0
  189.1840  178.1710  138.2240 C   0  0  0  0  0  3  0  0  0  0  0  0
  188.6420  178.9620  137.2090 C   0  0  0  0  0  3  0  0  0  0  0  0
  191.6170  176.8450  139.6660 N   0  0  0  0  0  2  0  0  0  0  0  0
  192.0640  173.3230  136.3720 C   0  0  1  0  0  3  0  0  0  0  0  0
  193.0320  175.3520  137.2090 N   0  0  0  0  0  0  0  0  0  0  0  0
  191.2080  173.3120  135.1070 C   0  0  2  0  0  3  0  0  0  0  0  0
  194.2730  172.1770  136.6620 C   0  0  0  0  0  1  0  0  0  0  0  0
  190.8650  175.4220  136.0810 C   0  0  2  0  0  3  0  0  0  0  0  0
  1 21  1  0  0  0  0
  1  6  1  0  0  0  0
  3 17  2  0  0  0  0
  4 22  1  0  0  0  0
  5 24  1  0  0  0  0
  5 17  1  0  0  0  0
  5 27  1  1  0  0  0
  6 23  1  0  0  0  0
  7  8  2  0  0  0  0
  8  2  2  0  0  0  0
  9 14  1  0  0  0  0
 10 28  1  0  0  0  0
 10  8  1  1  0  0  0
 12 25  1  6  0  0  0
 13  9  2  0  0  0  0
 13 26  1  0  0  0  0
 14  8  1  0  0  0  0
 15 23  1  0  0  0  0
 15 11  2  0  0  0  0
 16  1  2  0  0  0  0
 17 25  1  0  0  0  0
 18  9  1  0  0  0  0
 19 15  1  0  0  0  0
 20  4  2  0  0  0  0
 20 16  1  0  0  0  0
 22 21  2  0  0  0  0
 24 12  1  0  0  0  0
 25 19  1  0  0  0  0
 26 10  1  0  0  0  0
 26 24  1  0  0  0  0
 28 16  1  0  0  0  0
 28 12  1  0  0  0  0
M  END
>  <MODEL>
9

>  <REMARK>
 VINA RESULT:      -5.1      7.799     10.545
  Name = 
  0 active torsions:
  status: ('A' for Active; 'I' for Inactive)
                            x       y       z     vdW  Elec       q    Type
                         _______ _______ _______ _____ _____    ______ ____

>  <TORSDO>
F 0

$$$$
