=
 OpenBabel11122410273D

 30 34  0  0  1  0  0  0  0  0999 V2000
  186.7250  177.6970  142.6430 C   0  0  2  0  0  3  0  0  0  0  0  0
  184.3470  178.6380  142.6440 C   0  0  0  0  0  0  0  0  0  0  0  0
  186.8430  178.1210  146.7660 N   0  0  0  0  0  2  0  0  0  0  0  0
  187.9640  177.4860  143.5340 C   0  0  2  0  0  3  0  0  0  0  0  0
  187.1610  178.6230  141.5050 C   0  0  0  0  0  2  0  0  0  0  0  0
  190.3280  176.8790  140.8110 O   0  0  0  0  0  0  0  0  0  0  0  0
  190.8310  177.0500  144.6420 C   0  0  2  0  0  3  0  0  0  0  0  0
  189.2780  177.2180  141.4240 C   0  0  0  0  0  0  0  0  0  0  0  0
  189.8600  177.8040  145.4450 N   0  0  0  0  0  2  0  0  0  0  0  0
  188.1140  177.5860  147.0800 C   0  0  0  0  0  0  0  0  0  0  0  0
  188.3220  178.0920  140.7850 N   0  0  0  0  0  0  0  0  0  0  0  0
  188.9660  176.6140  142.7700 C   0  0  1  0  0  3  0  0  0  0  0  0
  183.2310  179.1490  143.3140 C   0  0  0  0  0  3  0  0  0  0  0  0
  184.3000  178.5240  141.2590 O   0  0  0  0  0  1  0  0  0  0  0  0
  186.5870  177.7790  145.5490 C   0  0  2  0  0  3  0  0  0  0  0  0
  183.2250  179.2470  144.7040 C   0  0  0  0  0  3  0  0  0  0  0  0
  185.4940  178.2420  143.3680 C   0  0  0  0  0  0  0  0  0  0  0  0
  187.6160  176.9100  144.9080 C   0  0  2  0  0  3  0  0  0  0  0  0
  188.6350  177.6950  148.2220 O   0  0  0  0  0  0  0  0  0  0  0  0
  188.7790  176.9370  145.9220 C   0  0  1  0  0  3  0  0  0  0  0  0
  190.7560  175.1620  143.2100 O   0  0  0  0  0  0  0  0  0  0  0  0
  184.3280  178.8120  145.4380 C   0  0  0  0  0  3  0  0  0  0  0  0
  185.4480  178.2890  144.7820 C   0  0  0  0  0  0  0  0  0  0  0  0
  190.2060  176.2020  143.5420 C   0  0  0  0  0  0  0  0  0  0  0  0
  191.7570  176.2390  145.5460 C   0  0  0  0  0  2  0  0  0  0  0  0
  192.4160  175.7880  147.8870 C   0  0  0  0  0  1  0  0  0  0  0  0
  191.6720  176.7400  146.9760 C   0  0  0  0  0  2  0  0  0  0  0  0
  188.5070  178.5200  139.4040 C   0  0  0  0  0  2  0  0  0  0  0  0
  188.2120  176.5690  137.8760 C   0  0  0  0  0  1  0  0  0  0  0  0
  187.5450  177.7920  138.4740 C   0  0  0  0  0  2  0  0  0  0  0  0
  1  5  1  6  0  0  0
  1 17  1  0  0  0  0
  1  4  1  0  0  0  0
  2 13  2  0  0  0  0
  2 17  1  0  0  0  0
  3 10  1  0  0  0  0
  4 18  1  0  0  0  0
  6  8  2  0  0  0  0
  7  9  1  0  0  0  0
  7 25  1  0  0  0  0
  8 12  1  0  0  0  0
  9 20  1  0  0  0  0
 10 19  2  0  0  0  0
 11  8  1  0  0  0  0
 11  5  1  0  0  0  0
 12  4  1  0  0  0  0
 12 24  1  0  0  0  0
 13 16  1  0  0  0  0
 14  2  1  0  0  0  0
 15  3  1  0  0  0  0
 16 22  2  0  0  0  0
 17 23  2  0  0  0  0
 18 15  1  0  0  0  0
 18 20  1  0  0  0  0
 20 10  1  0  0  0  0
 21 24  2  0  0  0  0
 23 22  1  0  0  0  0
 23 15  1  0  0  0  0
 24  7  1  0  0  0  0
 25 27  1  0  0  0  0
 27 26  1  0  0  0  0
 28 11  1  0  0  0  0
 29 30  1  0  0  0  0
 30 28  1  0  0  0  0
M  END
>  <MODEL>
1

>  <REMARK>
 VINA RESULT:     -11.1      0.000      0.000
  Name = 
  4 active torsions:
  status: ('A' for Active; 'I' for Inactive)
    1  A    between atoms: C_7  and  C_15
    2  A    between atoms: N_11  and  C_28
    3  A    between atoms: C_15  and  C_23
    4  A    between atoms: C_28  and  C_30
                            x       y       z     vdW  Elec       q    Type
                         _______ _______ _______ _____ _____    ______ ____

>  <TORSDO>
F 4

$$$$
=
 OpenBabel11122410273D

 30 34  0  0  1  0  0  0  0  0999 V2000
  187.0460  178.3360  144.6030 C   0  0  2  0  0  3  0  0  0  0  0  0
  184.5840  178.7240  145.1750 C   0  0  0  0  0  0  0  0  0  0  0  0
  186.0630  178.3370  140.5760 N   0  0  0  0  0  2  0  0  0  0  0  0
  188.0000  177.9850  143.4440 C   0  0  2  0  0  3  0  0  0  0  0  0
  187.1730  177.2050  145.6270 C   0  0  0  0  0  2  0  0  0  0  0  0
  190.8500  177.0370  145.5300 O   0  0  0  0  0  0  0  0  0  0  0  0
  190.3780  177.0320  141.6910 C   0  0  2  0  0  3  0  0  0  0  0  0
  189.6730  177.3370  145.1850 C   0  0  0  0  0  0  0  0  0  0  0  0
  189.0130  176.9560  141.1510 N   0  0  0  0  0  2  0  0  0  0  0  0
  187.3290  178.1890  139.9630 C   0  0  0  0  0  0  0  0  0  0  0  0
  188.5630  177.0030  146.0460 N   0  0  0  0  0  0  0  0  0  0  0  0
  189.4420  178.1510  143.9360 C   0  0  1  0  0  3  0  0  0  0  0  0
  183.2530  178.9160  144.7930 C   0  0  0  0  0  3  0  0  0  0  0  0
  184.8940  178.7030  146.5300 O   0  0  0  0  0  1  0  0  0  0  0  0
  186.2800  178.6340  141.8120 C   0  0  2  0  0  3  0  0  0  0  0  0
  182.9060  178.9780  143.4450 C   0  0  0  0  0  3  0  0  0  0  0  0
  185.5900  178.5620  144.1960 C   0  0  0  0  0  0  0  0  0  0  0  0
  187.7170  178.7970  142.1780 C   0  0  2  0  0  3  0  0  0  0  0  0
  187.4680  177.9520  138.7340 O   0  0  0  0  0  0  0  0  0  0  0  0
  188.4590  178.2930  140.9220 C   0  0  1  0  0  3  0  0  0  0  0  0
  191.5830  178.5420  143.0640 O   0  0  0  0  0  0  0  0  0  0  0  0
  183.8930  178.8720  142.4660 C   0  0  0  0  0  3  0  0  0  0  0  0
  185.2310  178.6900  142.8320 C   0  0  0  0  0  0  0  0  0  0  0  0
  190.5220  177.9610  142.8900 C   0  0  0  0  0  0  0  0  0  0  0  0
  191.3750  177.3560  140.5800 C   0  0  0  0  0  2  0  0  0  0  0  0
  192.2150  176.4680  138.4300 C   0  0  0  0  0  1  0  0  0  0  0  0
  190.9880  176.6420  139.2980 C   0  0  0  0  0  2  0  0  0  0  0  0
  188.7870  176.4000  147.3540 C   0  0  0  0  0  2  0  0  0  0  0  0
  188.9590  178.5400  148.6260 C   0  0  0  0  0  1  0  0  0  0  0  0
  188.1770  177.2520  148.4590 C   0  0  0  0  0  2  0  0  0  0  0  0
  1  5  1  1  0  0  0
  2 14  1  0  0  0  0
  3 15  1  0  0  0  0
  4 12  1  0  0  0  0
  4  1  1  0  0  0  0
  5 11  1  0  0  0  0
  7 24  1  0  0  0  0
  8  6  2  0  0  0  0
  8 11  1  0  0  0  0
  9  7  1  0  0  0  0
 10  3  1  0  0  0  0
 10 20  1  0  0  0  0
 11 28  1  0  0  0  0
 12  8  1  0  0  0  0
 13  2  1  0  0  0  0
 15 18  1  0  0  0  0
 15 23  1  0  0  0  0
 16 13  2  0  0  0  0
 17  1  1  0  0  0  0
 17  2  2  0  0  0  0
 18  4  1  0  0  0  0
 19 10  2  0  0  0  0
 20  9  1  0  0  0  0
 20 18  1  0  0  0  0
 22 23  2  0  0  0  0
 22 16  1  0  0  0  0
 23 17  1  0  0  0  0
 24 21  2  0  0  0  0
 24 12  1  0  0  0  0
 25  7  1  0  0  0  0
 26 27  1  0  0  0  0
 27 25  1  0  0  0  0
 28 30  1  0  0  0  0
 30 29  1  0  0  0  0
M  END
>  <MODEL>
2

>  <REMARK>
 VINA RESULT:      -9.7      1.964      5.443
  Name = 
  4 active torsions:
  status: ('A' for Active; 'I' for Inactive)
    1  A    between atoms: C_7  and  C_15
    2  A    between atoms: N_11  and  C_28
    3  A    between atoms: C_15  and  C_23
    4  A    between atoms: C_28  and  C_30
                            x       y       z     vdW  Elec       q    Type
                         _______ _______ _______ _____ _____    ______ ____

>  <TORSDO>
F 4

$$$$
=
 OpenBabel11122410273D

 30 34  0  0  1  0  0  0  0  0999 V2000
  187.4740  178.0590  143.1450 C   0  0  2  0  0  3  0  0  0  0  0  0
  186.4970  178.0690  145.5080 C   0  0  0  0  0  0  0  0  0  0  0  0
  183.7070  178.9010  141.6340 N   0  0  0  0  0  2  0  0  0  0  0  0
  187.0870  178.0790  141.6530 C   0  0  2  0  0  3  0  0  0  0  0  0
  188.2110  176.7390  143.3840 C   0  0  0  0  0  2  0  0  0  0  0  0
  190.3200  176.9480  140.3740 O   0  0  0  0  0  0  0  0  0  0  0  0
  187.0070  177.7890  138.5630 C   0  0  2  0  0  3  0  0  0  0  0  0
  189.3810  177.2070  141.1770 C   0  0  0  0  0  0  0  0  0  0  0  0
  185.7530  177.7100  139.3230 N   0  0  0  0  0  2  0  0  0  0  0  0
  183.9650  179.0200  140.2480 C   0  0  0  0  0  0  0  0  0  0  0  0
  189.3490  176.5780  142.4760 N   0  0  0  0  0  0  0  0  0  0  0  0
  188.3620  178.2620  140.8240 C   0  0  1  0  0  3  0  0  0  0  0  0
  185.4210  178.2170  146.3890 C   0  0  0  0  0  3  0  0  0  0  0  0
  187.7490  177.7630  146.0290 O   0  0  0  0  0  1  0  0  0  0  0  0
  184.8510  178.9230  142.2290 C   0  0  2  0  0  3  0  0  0  0  0  0
  184.1570  178.5560  145.9100 C   0  0  0  0  0  3  0  0  0  0  0  0
  186.3070  178.2340  144.1170 C   0  0  0  0  0  0  0  0  0  0  0  0
  186.0240  179.1310  141.3310 C   0  0  2  0  0  3  0  0  0  0  0  0
  183.0470  179.0880  139.3880 O   0  0  0  0  0  0  0  0  0  0  0  0
  185.4120  179.0060  139.9190 C   0  0  1  0  0  3  0  0  0  0  0  0
  189.0110  179.0460  138.7110 O   0  0  0  0  0  0  0  0  0  0  0  0
  183.9640  178.7750  144.5470 C   0  0  0  0  0  3  0  0  0  0  0  0
  185.0330  178.6400  143.6540 C   0  0  0  0  0  0  0  0  0  0  0  0
  188.1610  178.4230  139.3300 C   0  0  0  0  0  0  0  0  0  0  0  0
  186.7720  178.4540  137.2090 C   0  0  0  0  0  2  0  0  0  0  0  0
  187.5260  176.2550  136.3650 C   0  0  0  0  0  1  0  0  0  0  0  0
  186.5690  177.4040  136.1330 C   0  0  0  0  0  2  0  0  0  0  0  0
  190.4380  175.7110  142.9140 C   0  0  0  0  0  2  0  0  0  0  0  0
  191.6850  177.7170  143.7220 C   0  0  0  0  0  1  0  0  0  0  0  0
  191.1900  176.3300  144.0840 C   0  0  0  0  0  2  0  0  0  0  0  0
  1  5  1  1  0  0  0
  1 17  1  0  0  0  0
  2 14  1  0  0  0  0
  2 13  1  0  0  0  0
  3 15  1  0  0  0  0
  4  1  1  0  0  0  0
  6  8  2  0  0  0  0
  7  9  1  0  0  0  0
  7 24  1  0  0  0  0
  8 11  1  0  0  0  0
  9 20  1  0  0  0  0
 10  3  1  0  0  0  0
 11 28  1  0  0  0  0
 11  5  1  0  0  0  0
 12  8  1  0  0  0  0
 12  4  1  0  0  0  0
 15 23  1  0  0  0  0
 16 13  2  0  0  0  0
 17  2  2  0  0  0  0
 18  4  1  0  0  0  0
 18 15  1  0  0  0  0
 19 10  2  0  0  0  0
 20 10  1  0  0  0  0
 20 18  1  0  0  0  0
 21 24  2  0  0  0  0
 22 16  1  0  0  0  0
 23 17  1  0  0  0  0
 23 22  2  0  0  0  0
 24 12  1  0  0  0  0
 25  7  1  0  0  0  0
 27 26  1  0  0  0  0
 27 25  1  0  0  0  0
 28 30  1  0  0  0  0
 29 30  1  0  0  0  0
M  END
>  <MODEL>
3

>  <REMARK>
 VINA RESULT:      -9.2      2.017      6.024
  Name = 
  4 active torsions:
  status: ('A' for Active; 'I' for Inactive)
    1  A    between atoms: C_7  and  C_15
    2  A    between atoms: N_11  and  C_28
    3  A    between atoms: C_15  and  C_23
    4  A    between atoms: C_28  and  C_30
                            x       y       z     vdW  Elec       q    Type
                         _______ _______ _______ _____ _____    ______ ____

>  <TORSDO>
F 4

$$$$
=
 OpenBabel11122410273D

 30 34  0  0  1  0  0  0  0  0999 V2000
  187.4810  178.4090  143.1830 C   0  0  2  0  0  3  0  0  0  0  0  0
  188.6920  178.0100  145.3990 C   0  0  0  0  0  0  0  0  0  0  0  0
  183.8630  178.3640  145.2060 N   0  0  0  0  0  2  0  0  0  0  0  0
  186.0850  178.4300  142.5300 C   0  0  2  0  0  3  0  0  0  0  0  0
  188.2730  177.3070  142.4760 C   0  0  0  0  0  2  0  0  0  0  0  0
  187.2470  178.2490  139.0680 O   0  0  0  0  0  0  0  0  0  0  0  0
  183.6820  178.3390  140.5660 C   0  0  2  0  0  3  0  0  0  0  0  0
  187.2500  178.2050  140.3300 C   0  0  0  0  0  0  0  0  0  0  0  0
  183.4920  177.8930  141.9530 N   0  0  0  0  0  2  0  0  0  0  0  0
  182.9410  178.6380  144.1680 C   0  0  0  0  0  0  0  0  0  0  0  0
  188.3030  177.5020  141.0240 N   0  0  0  0  0  0  0  0  0  0  0  0
  186.2230  178.9880  141.1100 C   0  0  1  0  0  3  0  0  0  0  0  0
  188.6820  177.8190  146.7850 C   0  0  0  0  0  3  0  0  0  0  0  0
  189.9120  177.9990  144.7320 O   0  0  0  0  0  1  0  0  0  0  0  0
  185.0360  178.6360  144.7440 C   0  0  2  0  0  3  0  0  0  0  0  0
  187.4840  177.8570  147.4950 C   0  0  0  0  0  3  0  0  0  0  0  0
  187.4820  178.2150  144.7000 C   0  0  0  0  0  0  0  0  0  0  0  0
  185.0540  179.1970  143.3610 C   0  0  2  0  0  3  0  0  0  0  0  0
  181.6960  178.5290  144.3170 O   0  0  0  0  0  0  0  0  0  0  0  0
  183.5950  179.0150  142.8900 C   0  0  1  0  0  3  0  0  0  0  0  0
  184.9110  180.0530  139.4830 O   0  0  0  0  0  0  0  0  0  0  0  0
  186.2860  178.1110  146.8280 C   0  0  0  0  0  3  0  0  0  0  0  0
  186.2810  178.3140  145.4430 C   0  0  0  0  0  0  0  0  0  0  0  0
  184.9250  179.1930  140.3520 C   0  0  0  0  0  0  0  0  0  0  0  0
  182.4160  179.0130  140.0430 C   0  0  0  0  0  2  0  0  0  0  0  0
  180.1930  179.1930  141.1120 C   0  0  0  0  0  1  0  0  0  0  0  0
  181.1860  178.2400  140.4820 C   0  0  0  0  0  2  0  0  0  0  0  0
  189.4180  176.9140  140.2910 C   0  0  0  0  0  2  0  0  0  0  0  0
  191.8250  177.5010  140.5960 C   0  0  0  0  0  1  0  0  0  0  0  0
  190.6400  176.7630  141.1880 C   0  0  0  0  0  2  0  0  0  0  0  0
  1  5  1  6  0  0  0
  1 17  1  0  0  0  0
  2 13  1  0  0  0  0
  4  1  1  0  0  0  0
  4 18  1  0  0  0  0
  6  8  2  0  0  0  0
  7  9  1  0  0  0  0
  8 11  1  0  0  0  0
  8 12  1  0  0  0  0
  9 20  1  0  0  0  0
 10 19  2  0  0  0  0
 10  3  1  0  0  0  0
 11  5  1  0  0  0  0
 12  4  1  0  0  0  0
 13 16  2  0  0  0  0
 14  2  1  0  0  0  0
 15  3  1  0  0  0  0
 15 23  1  0  0  0  0
 17  2  2  0  0  0  0
 17 23  1  0  0  0  0
 18 15  1  0  0  0  0
 20 18  1  0  0  0  0
 20 10  1  0  0  0  0
 21 24  2  0  0  0  0
 22 16  1  0  0  0  0
 23 22  2  0  0  0  0
 24  7  1  0  0  0  0
 24 12  1  0  0  0  0
 25 27  1  0  0  0  0
 25  7  1  0  0  0  0
 27 26  1  0  0  0  0
 28 11  1  0  0  0  0
 28 30  1  0  0  0  0
 29 30  1  0  0  0  0
M  END
>  <MODEL>
4

>  <REMARK>
 VINA RESULT:      -9.1      2.316      6.176
  Name = 
  4 active torsions:
  status: ('A' for Active; 'I' for Inactive)
    1  A    between atoms: C_7  and  C_15
    2  A    between atoms: N_11  and  C_28
    3  A    between atoms: C_15  and  C_23
    4  A    between atoms: C_28  and  C_30
                            x       y       z     vdW  Elec       q    Type
                         _______ _______ _______ _____ _____    ______ ____

>  <TORSDO>
F 4

$$$$
=
 OpenBabel11122410273D

 30 34  0  0  1  0  0  0  0  0999 V2000
  189.2750  177.7150  143.3880 C   0  0  2  0  0  3  0  0  0  0  0  0
  191.1710  177.0320  144.9620 C   0  0  0  0  0  0  0  0  0  0  0  0
  186.6600  177.6960  146.6040 N   0  0  0  0  0  2  0  0  0  0  0  0
  187.7450  177.8840  143.3040 C   0  0  2  0  0  3  0  0  0  0  0  0
  189.6490  176.6410  142.3640 C   0  0  0  0  0  2  0  0  0  0  0  0
  187.5390  177.9670  139.6550 O   0  0  0  0  0  0  0  0  0  0  0  0
  184.7940  178.1290  142.3750 C   0  0  2  0  0  3  0  0  0  0  0  0
  187.9990  177.8020  140.8190 C   0  0  0  0  0  0  0  0  0  0  0  0
  185.0830  177.5630  143.6990 N   0  0  0  0  0  2  0  0  0  0  0  0
  185.4520  178.1240  146.0050 C   0  0  0  0  0  0  0  0  0  0  0  0
  189.1630  176.9730  141.0220 N   0  0  0  0  0  0  0  0  0  0  0  0
  187.4050  178.5670  141.9760 C   0  0  1  0  0  3  0  0  0  0  0  0
  191.6510  176.7100  146.2350 C   0  0  0  0  0  3  0  0  0  0  0  0
  192.0560  177.0110  143.8900 O   0  0  0  0  0  1  0  0  0  0  0  0
  187.6020  177.9390  145.7580 C   0  0  2  0  0  3  0  0  0  0  0  0
  190.8040  176.7520  147.3410 C   0  0  0  0  0  3  0  0  0  0  0  0
  189.8130  177.3770  144.7780 C   0  0  0  0  0  0  0  0  0  0  0  0
  187.1650  178.6280  144.5090 C   0  0  2  0  0  3  0  0  0  0  0  0
  184.3430  178.0760  146.5990 O   0  0  0  0  0  0  0  0  0  0  0  0
  185.6250  178.5820  144.6030 C   0  0  1  0  0  3  0  0  0  0  0  0
  185.6930  179.8610  141.0290 O   0  0  0  0  0  0  0  0  0  0  0  0
  189.4750  177.1410  147.1860 C   0  0  0  0  0  3  0  0  0  0  0  0
  188.9820  177.4760  145.9200 C   0  0  0  0  0  0  0  0  0  0  0  0
  185.9450  178.9220  141.7710 C   0  0  0  0  0  0  0  0  0  0  0  0
  183.4910  178.9250  142.4070 C   0  0  0  0  0  2  0  0  0  0  0  0
  181.1640  178.9990  141.5710 C   0  0  0  0  0  1  0  0  0  0  0  0
  182.5490  178.4410  141.3210 C   0  0  0  0  0  2  0  0  0  0  0  0
  189.8740  176.3920  139.8890 C   0  0  0  0  0  2  0  0  0  0  0  0
  191.8220  176.6480  138.3490 C   0  0  0  0  0  1  0  0  0  0  0  0
  191.2010  177.1020  139.6560 C   0  0  0  0  0  2  0  0  0  0  0  0
  1  5  1  6  0  0  0
  1 17  1  0  0  0  0
  2 13  1  0  0  0  0
  4  1  1  0  0  0  0
  4 18  1  0  0  0  0
  6  8  2  0  0  0  0
  7 25  1  0  0  0  0
  7  9  1  0  0  0  0
  8 11  1  0  0  0  0
  8 12  1  0  0  0  0
  9 20  1  0  0  0  0
 10 19  2  0  0  0  0
 10  3  1  0  0  0  0
 11  5  1  0  0  0  0
 12  4  1  0  0  0  0
 13 16  2  0  0  0  0
 14  2  1  0  0  0  0
 15 23  1  0  0  0  0
 15  3  1  0  0  0  0
 17  2  2  0  0  0  0
 17 23  1  0  0  0  0
 18 20  1  0  0  0  0
 18 15  1  0  0  0  0
 20 10  1  0  0  0  0
 21 24  2  0  0  0  0
 22 16  1  0  0  0  0
 23 22  2  0  0  0  0
 24 12  1  0  0  0  0
 24  7  1  0  0  0  0
 27 26  1  0  0  0  0
 27 25  1  0  0  0  0
 28 11  1  0  0  0  0
 29 30  1  0  0  0  0
 30 28  1  0  0  0  0
M  END
>  <MODEL>
5

>  <REMARK>
 VINA RESULT:      -8.8      1.911      5.779
  Name = 
  4 active torsions:
  status: ('A' for Active; 'I' for Inactive)
    1  A    between atoms: C_7  and  C_15
    2  A    between atoms: N_11  and  C_28
    3  A    between atoms: C_15  and  C_23
    4  A    between atoms: C_28  and  C_30
                            x       y       z     vdW  Elec       q    Type
                         _______ _______ _______ _____ _____    ______ ____

>  <TORSDO>
F 4

$$$$
=
 OpenBabel11122410273D

 30 34  0  0  1  0  0  0  0  0999 V2000
  186.6110  177.8330  142.9210 C   0  0  2  0  0  3  0  0  0  0  0  0
  184.8650  178.3130  144.7270 C   0  0  0  0  0  0  0  0  0  0  0  0
  189.5660  177.8880  145.8280 N   0  0  0  0  0  2  0  0  0  0  0  0
  188.1290  177.7740  142.6620 C   0  0  2  0  0  3  0  0  0  0  0  0
  186.0570  178.9250  142.0020 C   0  0  0  0  0  2  0  0  0  0  0  0
  187.9280  177.8710  139.0120 O   0  0  0  0  0  0  0  0  0  0  0  0
  190.9670  177.7760  141.4030 C   0  0  2  0  0  3  0  0  0  0  0  0
  187.5930  177.9510  140.2270 C   0  0  0  0  0  0  0  0  0  0  0  0
  190.7930  178.2600  142.7790 N   0  0  0  0  0  2  0  0  0  0  0  0
  190.7230  177.5710  145.0790 C   0  0  0  0  0  0  0  0  0  0  0  0
  186.4080  178.6870  140.6000 N   0  0  0  0  0  0  0  0  0  0  0  0
  188.3600  177.1770  141.2700 C   0  0  1  0  0  3  0  0  0  0  0  0
  184.5120  178.5440  146.0600 C   0  0  0  0  0  3  0  0  0  0  0  0
  183.8660  178.3210  143.7600 O   0  0  0  0  0  1  0  0  0  0  0  0
  188.5510  177.6180  145.0790 C   0  0  2  0  0  3  0  0  0  0  0  0
  185.4800  178.5100  147.0630 C   0  0  0  0  0  3  0  0  0  0  0  0
  186.2130  178.0710  144.3780 C   0  0  0  0  0  0  0  0  0  0  0  0
  188.8880  177.0180  143.7550 C   0  0  2  0  0  3  0  0  0  0  0  0
  191.8870  177.6680  145.5500 O   0  0  0  0  0  0  0  0  0  0  0  0
  190.4220  177.1660  143.6820 C   0  0  1  0  0  3  0  0  0  0  0  0
  190.0330  176.0480  140.0750 O   0  0  0  0  0  0  0  0  0  0  0  0
  186.8050  178.2210  146.7430 C   0  0  0  0  0  3  0  0  0  0  0  0
  187.1720  177.9780  145.4150 C   0  0  0  0  0  0  0  0  0  0  0  0
  189.8070  176.9320  140.8880 C   0  0  0  0  0  0  0  0  0  0  0  0
  192.3130  177.0700  141.2500 C   0  0  0  0  0  2  0  0  0  0  0  0
  193.0590  176.7110  138.9190 C   0  0  0  0  0  1  0  0  0  0  0  0
  193.0930  177.6660  140.0940 C   0  0  0  0  0  2  0  0  0  0  0  0
  185.5390  179.2690  139.5830 C   0  0  0  0  0  2  0  0  0  0  0  0
  183.1830  179.8200  138.9690 C   0  0  0  0  0  1  0  0  0  0  0  0
  184.0720  179.0720  139.9440 C   0  0  0  0  0  2  0  0  0  0  0  0
  1  5  1  6  0  0  0
  1 17  1  0  0  0  0
  2 13  1  0  0  0  0
  4  1  1  0  0  0  0
  4 18  1  0  0  0  0
  6  8  2  0  0  0  0
  7  9  1  0  0  0  0
  8 11  1  0  0  0  0
  8 12  1  0  0  0  0
  9 20  1  0  0  0  0
 10 19  2  0  0  0  0
 10  3  1  0  0  0  0
 11  5  1  0  0  0  0
 12  4  1  0  0  0  0
 13 16  2  0  0  0  0
 14  2  1  0  0  0  0
 15 23  1  0  0  0  0
 15  3  1  0  0  0  0
 17  2  2  0  0  0  0
 17 23  1  0  0  0  0
 18 15  1  0  0  0  0
 20 18  1  0  0  0  0
 20 10  1  0  0  0  0
 21 24  2  0  0  0  0
 22 16  1  0  0  0  0
 23 22  2  0  0  0  0
 24 12  1  0  0  0  0
 24  7  1  0  0  0  0
 25  7  1  0  0  0  0
 26 27  1  0  0  0  0
 27 25  1  0  0  0  0
 28 30  1  0  0  0  0
 28 11  1  0  0  0  0
 29 30  1  0  0  0  0
M  END
>  <MODEL>
6

>  <REMARK>
 VINA RESULT:      -8.6      2.169      3.526
  Name = 
  4 active torsions:
  status: ('A' for Active; 'I' for Inactive)
    1  A    between atoms: C_7  and  C_15
    2  A    between atoms: N_11  and  C_28
    3  A    between atoms: C_15  and  C_23
    4  A    between atoms: C_28  and  C_30
                            x       y       z     vdW  Elec       q    Type
                         _______ _______ _______ _____ _____    ______ ____

>  <TORSDO>
F 4

$$$$
=
 OpenBabel11122410273D

 30 34  0  0  1  0  0  0  0  0999 V2000
  186.3000  178.5890  142.3720 C   0  0  2  0  0  3  0  0  0  0  0  0
  184.6170  178.8510  144.2780 C   0  0  0  0  0  0  0  0  0  0  0  0
  183.1520  178.3920  139.6810 N   0  0  0  0  0  2  0  0  0  0  0  0
  186.4180  178.2550  140.8720 C   0  0  2  0  0  3  0  0  0  0  0  0
  187.0780  177.5040  143.1200 C   0  0  0  0  0  2  0  0  0  0  0  0
  190.0060  177.5490  140.8890 O   0  0  0  0  0  0  0  0  0  0  0  0
  187.3820  177.3830  138.0520 C   0  0  2  0  0  3  0  0  0  0  0  0
  188.8330  177.7680  141.3000 C   0  0  0  0  0  0  0  0  0  0  0  0
  185.9690  177.2080  138.4130 N   0  0  0  0  0  2  0  0  0  0  0  0
  183.8290  178.2970  138.4430 C   0  0  0  0  0  0  0  0  0  0  0  0
  188.4610  177.3980  142.6450 N   0  0  0  0  0  0  0  0  0  0  0  0
  187.8600  178.5230  140.4280 C   0  0  1  0  0  3  0  0  0  0  0  0
  183.3040  178.9510  144.7490 C   0  0  0  0  0  3  0  0  0  0  0  0
  185.6600  178.8950  145.1960 O   0  0  0  0  0  1  0  0  0  0  0  0
  184.0300  178.7440  140.5580 C   0  0  2  0  0  3  0  0  0  0  0  0
  182.2310  178.9450  143.8590 C   0  0  0  0  0  3  0  0  0  0  0  0
  184.8690  178.7140  142.8950 C   0  0  0  0  0  0  0  0  0  0  0  0
  185.3950  179.0040  140.0150 C   0  0  2  0  0  3  0  0  0  0  0  0
  183.2390  178.0260  137.3630 O   0  0  0  0  0  0  0  0  0  0  0  0
  185.2950  178.5010  138.5600 C   0  0  1  0  0  3  0  0  0  0  0  0
  189.0570  179.0080  138.4700 O   0  0  0  0  0  0  0  0  0  0  0  0
  182.4650  178.8640  142.4870 C   0  0  0  0  0  3  0  0  0  0  0  0
  183.7740  178.7730  142.0000 C   0  0  0  0  0  0  0  0  0  0  0  0
  188.1360  178.3600  138.9450 C   0  0  0  0  0  0  0  0  0  0  0  0
  187.5170  177.7260  136.5700 C   0  0  0  0  0  2  0  0  0  0  0  0
  189.6740  176.7510  135.8530 C   0  0  0  0  0  1  0  0  0  0  0  0
  188.1710  176.5800  135.8200 C   0  0  0  0  0  2  0  0  0  0  0  0
  189.4470  176.8550  143.5710 C   0  0  0  0  0  2  0  0  0  0  0  0
  189.3850  177.1330  146.0510 C   0  0  0  0  0  1  0  0  0  0  0  0
  189.6920  177.8120  144.7310 C   0  0  0  0  0  2  0  0  0  0  0  0
  1 17  1  0  0  0  0
  1  5  1  1  0  0  0
  2 13  1  0  0  0  0
  2 14  1  0  0  0  0
  3 15  1  0  0  0  0
  4  1  1  0  0  0  0
  6  8  2  0  0  0  0
  7  9  1  0  0  0  0
  7 24  1  0  0  0  0
  8 11  1  0  0  0  0
  9 20  1  0  0  0  0
 10 20  1  0  0  0  0
 10  3  1  0  0  0  0
 11  5  1  0  0  0  0
 11 28  1  0  0  0  0
 12  4  1  0  0  0  0
 12  8  1  0  0  0  0
 15 23  1  0  0  0  0
 16 13  2  0  0  0  0
 17  2  2  0  0  0  0
 18 15  1  0  0  0  0
 18  4  1  0  0  0  0
 19 10  2  0  0  0  0
 20 18  1  0  0  0  0
 21 24  2  0  0  0  0
 22 16  1  0  0  0  0
 23 22  2  0  0  0  0
 23 17  1  0  0  0  0
 24 12  1  0  0  0  0
 25  7  1  0  0  0  0
 27 26  1  0  0  0  0
 27 25  1  0  0  0  0
 28 30  1  0  0  0  0
 30 29  1  0  0  0  0
M  END
>  <MODEL>
7

>  <REMARK>
 VINA RESULT:      -8.4      2.217      6.408
  Name = 
  4 active torsions:
  status: ('A' for Active; 'I' for Inactive)
    1  A    between atoms: C_7  and  C_15
    2  A    between atoms: N_11  and  C_28
    3  A    between atoms: C_15  and  C_23
    4  A    between atoms: C_28  and  C_30
                            x       y       z     vdW  Elec       q    Type
                         _______ _______ _______ _____ _____    ______ ____

>  <TORSDO>
F 4

$$$$
=
 OpenBabel11122410273D

 30 34  0  0  1  0  0  0  0  0999 V2000
  185.2450  178.9440  141.9800 C   0  0  2  0  0  3  0  0  0  0  0  0
  185.4450  178.8620  139.4320 C   0  0  0  0  0  0  0  0  0  0  0  0
  189.0230  177.2640  142.2840 N   0  0  0  0  0  2  0  0  0  0  0  0
  185.9140  178.4640  143.2830 C   0  0  2  0  0  3  0  0  0  0  0  0
  183.8470  178.3240  141.9560 C   0  0  0  0  0  2  0  0  0  0  0  0
  183.0500  179.0860  145.4690 O   0  0  0  0  0  0  0  0  0  0  0  0
  186.5460  177.5990  146.1970 C   0  0  2  0  0  3  0  0  0  0  0  0
  183.7390  178.9300  144.4230 C   0  0  0  0  0  0  0  0  0  0  0  0
  187.2930  176.9870  145.0900 N   0  0  0  0  0  2  0  0  0  0  0  0
  189.2230  177.2400  143.6840 C   0  0  0  0  0  0  0  0  0  0  0  0
  183.0850  178.6480  143.1660 N   0  0  0  0  0  0  0  0  0  0  0  0
  185.2290  179.1600  144.4640 C   0  0  1  0  0  3  0  0  0  0  0  0
  186.1560  178.5560  138.2680 C   0  0  0  0  0  3  0  0  0  0  0  0
  184.1700  179.4030  139.3130 O   0  0  0  0  0  1  0  0  0  0  0  0
  188.0050  178.0260  142.0670 C   0  0  2  0  0  3  0  0  0  0  0  0
  187.4500  178.0440  138.3440 C   0  0  0  0  0  3  0  0  0  0  0  0
  186.0210  178.6280  140.7010 C   0  0  0  0  0  0  0  0  0  0  0  0
  187.4300  178.6720  143.2820 C   0  0  2  0  0  3  0  0  0  0  0  0
  190.1810  176.6270  144.2250 O   0  0  0  0  0  0  0  0  0  0  0  0
  188.1690  177.9650  144.4380 C   0  0  1  0  0  3  0  0  0  0  0  0
  185.6870  179.7540  146.6870 O   0  0  0  0  0  0  0  0  0  0  0  0
  188.0540  177.8560  139.5860 C   0  0  0  0  0  3  0  0  0  0  0  0
  187.3580  178.1670  140.7610 C   0  0  0  0  0  0  0  0  0  0  0  0
  185.8370  178.8960  145.8280 C   0  0  0  0  0  0  0  0  0  0  0  0
  187.4400  177.7530  147.4250 C   0  0  0  0  0  2  0  0  0  0  0  0
  189.8770  177.4400  147.7100 C   0  0  0  0  0  1  0  0  0  0  0  0
  188.5730  176.7450  147.3830 C   0  0  0  0  0  2  0  0  0  0  0  0
  181.6310  178.6280  143.0680 C   0  0  0  0  0  2  0  0  0  0  0  0
  179.8220  177.9730  141.4770 C   0  0  0  0  0  1  0  0  0  0  0  0
  181.1820  178.6280  141.6120 C   0  0  0  0  0  2  0  0  0  0  0  0
  1  5  1  6  0  0  0
  1  4  1  0  0  0  0
  2 17  1  0  0  0  0
  3 10  1  0  0  0  0
  4 12  1  0  0  0  0
  5 11  1  0  0  0  0
  7 25  1  0  0  0  0
  8 12  1  0  0  0  0
  8  6  2  0  0  0  0
  9  7  1  0  0  0  0
 10 19  2  0  0  0  0
 10 20  1  0  0  0  0
 11  8  1  0  0  0  0
 12 24  1  0  0  0  0
 13 16  1  0  0  0  0
 13  2  2  0  0  0  0
 14  2  1  0  0  0  0
 15  3  1  0  0  0  0
 15 18  1  0  0  0  0
 16 22  2  0  0  0  0
 17 23  2  0  0  0  0
 17  1  1  0  0  0  0
 18  4  1  0  0  0  0
 18 20  1  0  0  0  0
 20  9  1  0  0  0  0
 22 23  1  0  0  0  0
 23 15  1  0  0  0  0
 24  7  1  0  0  0  0
 24 21  2  0  0  0  0
 27 25  1  0  0  0  0
 27 26  1  0  0  0  0
 28 11  1  0  0  0  0
 29 30  1  0  0  0  0
 30 28  1  0  0  0  0
M  END
>  <MODEL>
8

>  <REMARK>
 VINA RESULT:      -8.4      2.111      5.251
  Name = 
  4 active torsions:
  status: ('A' for Active; 'I' for Inactive)
    1  A    between atoms: C_7  and  C_15
    2  A    between atoms: N_11  and  C_28
    3  A    between atoms: C_15  and  C_23
    4  A    between atoms: C_28  and  C_30
                            x       y       z     vdW  Elec       q    Type
                         _______ _______ _______ _____ _____    ______ ____

>  <TORSDO>
F 4

$$$$
=
 OpenBabel11122410273D

 30 34  0  0  1  0  0  0  0  0999 V2000
  189.2550  177.2600  143.6510 C   0  0  2  0  0  3  0  0  0  0  0  0
  191.1330  177.0190  141.9320 C   0  0  0  0  0  0  0  0  0  0  0  0
  186.7610  178.6770  140.6570 N   0  0  0  0  0  2  0  0  0  0  0  0
  187.8440  177.8430  143.8570 C   0  0  2  0  0  3  0  0  0  0  0  0
  190.1700  177.9760  144.6470 C   0  0  0  0  0  2  0  0  0  0  0  0
  187.8720  177.7070  147.5100 O   0  0  0  0  0  0  0  0  0  0  0  0
  185.2110  179.0040  145.0210 C   0  0  2  0  0  3  0  0  0  0  0  0
  188.2740  177.6830  146.3140 C   0  0  0  0  0  0  0  0  0  0  0  0
  185.6460  179.4200  143.6820 N   0  0  0  0  0  2  0  0  0  0  0  0
  185.5410  178.8550  141.3500 C   0  0  0  0  0  0  0  0  0  0  0  0
  189.6770  177.8590  146.0220 N   0  0  0  0  0  0  0  0  0  0  0  0
  187.3080  177.3490  145.2050 C   0  0  1  0  0  3  0  0  0  0  0  0
  191.6210  177.1280  140.6260 C   0  0  0  0  0  3  0  0  0  0  0  0
  191.9890  176.5650  142.9290 O   0  0  0  0  0  1  0  0  0  0  0  0
  187.5240  177.9730  141.4230 C   0  0  2  0  0  3  0  0  0  0  0  0
  190.7860  177.5470  139.5920 C   0  0  0  0  0  3  0  0  0  0  0  0
  189.7930  177.3610  142.2230 C   0  0  0  0  0  0  0  0  0  0  0  0
  186.8960  177.5230  142.6980 C   0  0  2  0  0  3  0  0  0  0  0  0
  184.5540  179.4550  140.8480 O   0  0  0  0  0  0  0  0  0  0  0  0
  185.5670  178.3070  142.7300 C   0  0  1  0  0  3  0  0  0  0  0  0
  185.2530  176.9950  146.2790 O   0  0  0  0  0  0  0  0  0  0  0  0
  189.4470  177.8370  139.8520 C   0  0  0  0  0  3  0  0  0  0  0  0
  188.9420  177.7240  141.1520 C   0  0  0  0  0  0  0  0  0  0  0  0
  185.8750  177.7290  145.5250 C   0  0  0  0  0  0  0  0  0  0  0  0
  183.6870  178.9330  145.0910 C   0  0  0  0  0  2  0  0  0  0  0  0
  181.9260  178.9770  143.3550 C   0  0  0  0  0  1  0  0  0  0  0  0
  183.0690  179.7530  143.9740 C   0  0  0  0  0  2  0  0  0  0  0  0
  190.6550  177.9760  147.0970 C   0  0  0  0  0  2  0  0  0  0  0  0
  192.0560  175.9420  146.7290 C   0  0  0  0  0  1  0  0  0  0  0  0
  191.0380  176.6050  147.6380 C   0  0  0  0  0  2  0  0  0  0  0  0
  1  4  1  0  0  0  0
  1  5  1  1  0  0  0
  2 17  1  0  0  0  0
  2 14  1  0  0  0  0
  3 10  1  0  0  0  0
  3 15  1  0  0  0  0
  4 12  1  0  0  0  0
  5 11  1  0  0  0  0
  7 25  1  0  0  0  0
  7 24  1  0  0  0  0
  8  6  2  0  0  0  0
  9  7  1  0  0  0  0
 10 20  1  0  0  0  0
 11  8  1  0  0  0  0
 11 28  1  0  0  0  0
 12 24  1  0  0  0  0
 12  8  1  0  0  0  0
 13  2  2  0  0  0  0
 15 18  1  0  0  0  0
 16 22  2  0  0  0  0
 16 13  1  0  0  0  0
 17  1  1  0  0  0  0
 18 20  1  0  0  0  0
 18  4  1  0  0  0  0
 19 10  2  0  0  0  0
 20  9  1  0  0  0  0
 22 23  1  0  0  0  0
 23 15  1  0  0  0  0
 23 17  2  0  0  0  0
 24 21  2  0  0  0  0
 26 27  1  0  0  0  0
 27 25  1  0  0  0  0
 28 30  1  0  0  0  0
 29 30  1  0  0  0  0
M  END
>  <MODEL>
9

>  <REMARK>
 VINA RESULT:      -8.3      1.547      6.872
  Name = 
  4 active torsions:
  status: ('A' for Active; 'I' for Inactive)
    1  A    between atoms: C_7  and  C_15
    2  A    between atoms: N_11  and  C_28
    3  A    between atoms: C_15  and  C_23
    4  A    between atoms: C_28  and  C_30
                            x       y       z     vdW  Elec       q    Type
                         _______ _______ _______ _____ _____    ______ ____

>  <TORSDO>
F 4

$$$$
