=
 OpenBabel11122412013D

 28 32  0  0  1  0  0  0  0  0999 V2000
  181.8760  178.5900  138.0310 C   0  0  0  0  0  0  0  0  0  0  0  0
  182.3590  175.2910  138.2950 O   0  0  0  0  0  1  0  0  0  0  0  0
  187.7100  178.5350  136.4700 C   0  0  0  0  0  2  0  0  0  0  0  0
  180.3930  179.1870  135.7260 C   0  0  0  0  0  3  0  0  0  0  0  0
  186.7500  176.2730  136.7190 C   0  0  2  0  0  3  0  0  0  0  0  0
  182.6700  178.4220  139.2820 C   0  0  0  0  0  2  0  0  0  0  0  0
  180.7810  175.3780  136.5300 C   0  0  0  0  0  1  0  0  0  0  0  0
  182.1920  175.0010  136.9370 C   0  0  1  0  0  0  0  0  0  0  0  0
  183.7370  173.0320  137.0520 C   0  0  1  0  0  3  0  0  0  0  0  0
  183.2170  175.7830  136.0540 C   0  0  2  0  0  3  0  0  0  0  0  0
  185.2580  179.3780  141.1110 O   0  0  0  0  0  0  0  0  0  0  0  0
  184.5920  177.0660  137.6100 C   0  0  1  0  0  3  0  0  0  0  0  0
  184.6910  173.6490  136.0460 C   0  0  0  0  0  2  0  0  0  0  0  0
  182.3240  173.4930  136.7380 C   0  0  0  0  0  2  0  0  0  0  0  0
  184.9300  179.2030  139.9090 C   0  0  0  0  0  0  0  0  0  0  0  0
  182.3070  178.0990  136.7700 C   0  0  0  0  0  0  0  0  0  0  0  0
  186.7740  177.7330  136.9740 C   0  0  0  0  0  0  0  0  0  0  0  0
  183.8060  171.5850  136.9570 N   0  0  0  0  0  1  0  0  0  0  0  0
  185.8600  178.5970  139.0070 N   0  0  0  0  0  2  0  0  0  0  0  0
  181.5550  178.4190  135.6310 C   0  0  0  0  0  3  0  0  0  0  0  0
  180.7090  179.3610  138.1120 C   0  0  0  0  0  3  0  0  0  0  0  0
  179.9670  179.6530  136.9680 C   0  0  0  0  0  3  0  0  0  0  0  0
  183.5760  179.6290  139.4550 C   0  0  0  0  0  2  0  0  0  0  0  0
  185.3880  175.8140  137.2180 C   0  0  1  0  0  3  0  0  0  0  0  0
  185.5470  178.2530  137.6250 C   0  0  2  0  0  3  0  0  0  0  0  0
  184.6240  175.1760  136.0660 C   0  0  2  0  0  3  0  0  0  0  0  0
  187.7530  175.6450  137.4590 O   0  0  0  0  0  1  0  0  0  0  0  0
  183.5130  177.2060  136.5380 C   0  0  2  0  0  3  0  0  0  0  0  0
  1 21  1  0  0  0  0
  1  6  1  0  0  0  0
  3 17  2  0  0  0  0
  4 22  1  0  0  0  0
  5 17  1  0  0  0  0
  5 24  1  0  0  0  0
  5 27  1  1  0  0  0
  6 23  1  0  0  0  0
  8  7  1  6  0  0  0
  8  2  1  0  0  0  0
  9 18  1  6  0  0  0
 10 26  1  0  0  0  0
 10 28  1  0  0  0  0
 10  8  1  0  0  0  0
 12 25  1  0  0  0  0
 13 26  1  0  0  0  0
 13  9  1  0  0  0  0
 14  8  1  0  0  0  0
 14  9  1  0  0  0  0
 15 11  2  0  0  0  0
 16  1  2  0  0  0  0
 17 25  1  0  0  0  0
 19 15  1  0  0  0  0
 20  4  2  0  0  0  0
 20 16  1  0  0  0  0
 22 21  2  0  0  0  0
 23 15  1  0  0  0  0
 24 12  1  0  0  0  0
 25 19  1  0  0  0  0
 26 24  1  0  0  0  0
 28 16  1  0  0  0  0
 28 12  1  0  0  0  0
M  END
>  <MODEL>
1

>  <REMARK>
 VINA RESULT:      -6.0      0.000      0.000
  Name = 
  0 active torsions:
  status: ('A' for Active; 'I' for Inactive)
                            x       y       z     vdW  Elec       q    Type
                         _______ _______ _______ _____ _____    ______ ____

>  <TORSDO>
F 0

$$$$
=
 OpenBabel11122412013D

 28 32  0  0  1  0  0  0  0  0999 V2000
  191.1000  174.2400  135.7170 C   0  0  0  0  0  0  0  0  0  0  0  0
  190.4980  175.2480  138.8480 O   0  0  0  0  0  1  0  0  0  0  0  0
  185.9780  177.2340  134.5940 C   0  0  0  0  0  2  0  0  0  0  0  0
  193.2040  175.7180  134.5940 C   0  0  0  0  0  3  0  0  0  0  0  0
  186.7790  177.5170  136.9130 C   0  0  2  0  0  3  0  0  0  0  0  0
  189.9730  173.3820  136.1810 C   0  0  0  0  0  2  0  0  0  0  0  0
  192.5250  176.3860  138.3880 C   0  0  0  0  0  1  0  0  0  0  0  0
  191.0490  176.5260  138.7090 C   0  0  1  0  0  0  0  0  0  0  0  0
  189.5000  177.5030  140.4180 C   0  0  1  0  0  3  0  0  0  0  0  0
  190.3420  177.3320  137.5730 C   0  0  2  0  0  3  0  0  0  0  0  0
  186.9820  172.1040  135.5630 O   0  0  0  0  0  0  0  0  0  0  0  0
  188.5980  175.8650  136.7010 C   0  0  1  0  0  3  0  0  0  0  0  0
  188.8940  178.4590  139.4070 C   0  0  0  0  0  2  0  0  0  0  0  0
  190.9520  177.2510  140.0480 C   0  0  0  0  0  2  0  0  0  0  0  0
  187.6430  173.1600  135.3830 C   0  0  0  0  0  0  0  0  0  0  0  0
  191.0470  175.6590  135.7270 C   0  0  0  0  0  0  0  0  0  0  0  0
  186.7100  176.7990  135.6170 C   0  0  0  0  0  0  0  0  0  0  0  0
  189.4340  178.0970  141.7410 N   0  0  0  0  0  1  0  0  0  0  0  0
  187.0060  174.4280  135.5580 N   0  0  0  0  0  2  0  0  0  0  0  0
  192.1060  176.3760  135.1510 C   0  0  0  0  0  3  0  0  0  0  0  0
  192.2080  173.5920  135.1530 C   0  0  0  0  0  3  0  0  0  0  0  0
  193.2570  174.3250  134.6010 C   0  0  0  0  0  3  0  0  0  0  0  0
  189.0790  173.0610  134.9950 C   0  0  0  0  0  2  0  0  0  0  0  0
  187.9270  176.8560  137.6620 C   0  0  1  0  0  3  0  0  0  0  0  0
  187.7030  175.7070  135.4780 C   0  0  2  0  0  3  0  0  0  0  0  0
  188.9820  177.9060  137.9830 C   0  0  2  0  0  3  0  0  0  0  0  0
  185.5920  177.3320  137.6220 O   0  0  0  0  0  1  0  0  0  0  0  0
  189.9450  176.4950  136.3530 C   0  0  2  0  0  3  0  0  0  0  0  0
  1 16  1  0  0  0  0
  1  6  1  0  0  0  0
  3 17  2  0  0  0  0
  4 22  2  0  0  0  0
  4 20  1  0  0  0  0
  5 27  1  1  0  0  0
  5 24  1  0  0  0  0
  8  7  1  6  0  0  0
  8  2  1  0  0  0  0
  8 14  1  0  0  0  0
  9 18  1  1  0  0  0
 10 26  1  0  0  0  0
 10  8  1  0  0  0  0
 12 24  1  0  0  0  0
 13  9  1  0  0  0  0
 14  9  1  0  0  0  0
 15 19  1  0  0  0  0
 15 11  2  0  0  0  0
 16 28  1  0  0  0  0
 17  5  1  0  0  0  0
 20 16  2  0  0  0  0
 21  1  2  0  0  0  0
 22 21  1  0  0  0  0
 23 15  1  0  0  0  0
 23  6  1  0  0  0  0
 24 26  1  0  0  0  0
 25 19  1  0  0  0  0
 25 17  1  0  0  0  0
 25 12  1  0  0  0  0
 26 13  1  0  0  0  0
 28 12  1  0  0  0  0
 28 10  1  0  0  0  0
M  END
>  <MODEL>
2

>  <REMARK>
 VINA RESULT:      -5.9      4.204      8.513
  Name = 
  0 active torsions:
  status: ('A' for Active; 'I' for Inactive)
                            x       y       z     vdW  Elec       q    Type
                         _______ _______ _______ _____ _____    ______ ____

>  <TORSDO>
F 0

$$$$
=
 OpenBabel11122412013D

 28 32  0  0  1  0  0  0  0  0999 V2000
  186.1240  175.0540  136.3940 C   0  0  0  0  0  0  0  0  0  0  0  0
  183.7930  176.9960  134.9850 O   0  0  0  0  0  1  0  0  0  0  0  0
  185.5260  178.9740  140.9480 C   0  0  0  0  0  2  0  0  0  0  0  0
  185.0050  172.6190  137.2250 C   0  0  0  0  0  3  0  0  0  0  0  0
  183.8740  179.3220  139.1450 C   0  0  2  0  0  3  0  0  0  0  0  0
  186.8490  176.2980  136.0080 C   0  0  0  0  0  2  0  0  0  0  0  0
  182.6200  174.9460  135.1770 C   0  0  0  0  0  1  0  0  0  0  0  0
  182.6940  176.3980  135.6100 C   0  0  1  0  0  0  0  0  0  0  0  0
  181.3710  178.5250  135.5690 C   0  0  1  0  0  3  0  0  0  0  0  0
  182.8110  176.4730  137.1660 C   0  0  2  0  0  3  0  0  0  0  0  0
  188.9410  178.7110  136.8830 O   0  0  0  0  0  0  0  0  0  0  0  0
  184.8880  177.6700  137.6210 C   0  0  1  0  0  3  0  0  0  0  0  0
  181.2760  178.5620  137.0830 C   0  0  0  0  0  2  0  0  0  0  0  0
  181.4200  177.0750  135.1140 C   0  0  0  0  0  2  0  0  0  0  0  0
  188.0170  178.0040  137.3640 C   0  0  0  0  0  0  0  0  0  0  0  0
  184.9770  175.0560  137.2320 C   0  0  0  0  0  0  0  0  0  0  0  0
  185.1600  178.8110  139.6780 C   0  0  0  0  0  0  0  0  0  0  0  0
  180.2050  179.1720  134.9970 N   0  0  0  0  0  1  0  0  0  0  0  0
  187.0480  178.6050  138.2270 N   0  0  0  0  0  2  0  0  0  0  0  0
  184.4420  173.8270  137.6420 C   0  0  0  0  0  3  0  0  0  0  0  0
  186.6800  173.8350  135.9840 C   0  0  0  0  0  3  0  0  0  0  0  0
  186.1210  172.6240  136.3900 C   0  0  0  0  0  3  0  0  0  0  0  0
  187.9540  176.5550  137.0190 C   0  0  0  0  0  2  0  0  0  0  0  0
  183.7370  178.6730  137.7760 C   0  0  1  0  0  3  0  0  0  0  0  0
  185.8810  177.9050  138.7530 C   0  0  2  0  0  3  0  0  0  0  0  0
  182.4570  177.8480  137.7420 C   0  0  2  0  0  3  0  0  0  0  0  0
  183.9370  180.7080  138.9980 O   0  0  0  0  0  1  0  0  0  0  0  0
  184.2340  176.2920  137.7050 C   0  0  2  0  0  3  0  0  0  0  0  0
  1 16  1  0  0  0  0
  2  8  1  0  0  0  0
  4 20  1  0  0  0  0
  5 27  1  6  0  0  0
  5 17  1  0  0  0  0
  6  1  1  0  0  0  0
  6 23  1  0  0  0  0
  8  7  1  6  0  0  0
  8 10  1  0  0  0  0
  9 18  1  6  0  0  0
  9 13  1  0  0  0  0
 10 28  1  0  0  0  0
 10 26  1  0  0  0  0
 11 15  2  0  0  0  0
 12 28  1  0  0  0  0
 12 24  1  0  0  0  0
 12 25  1  0  0  0  0
 13 26  1  0  0  0  0
 14  9  1  0  0  0  0
 14  8  1  0  0  0  0
 15 19  1  0  0  0  0
 16 20  2  0  0  0  0
 16 28  1  0  0  0  0
 17  3  2  0  0  0  0
 19 25  1  0  0  0  0
 21 22  1  0  0  0  0
 21  1  2  0  0  0  0
 22  4  2  0  0  0  0
 23 15  1  0  0  0  0
 24  5  1  0  0  0  0
 25 17  1  0  0  0  0
 26 24  1  0  0  0  0
M  END
>  <MODEL>
3

>  <REMARK>
 VINA RESULT:      -5.8      2.199      5.183
  Name = 
  0 active torsions:
  status: ('A' for Active; 'I' for Inactive)
                            x       y       z     vdW  Elec       q    Type
                         _______ _______ _______ _____ _____    ______ ____

>  <TORSDO>
F 0

$$$$
=
 OpenBabel11122412013D

 28 32  0  0  1  0  0  0  0  0999 V2000
  180.0450  175.4020  137.4570 C   0  0  0  0  0  0  0  0  0  0  0  0
  183.2260  176.0650  138.2490 O   0  0  0  0  0  1  0  0  0  0  0  0
  178.9310  179.1840  142.0310 C   0  0  0  0  0  2  0  0  0  0  0  0
  179.3270  176.7140  135.0840 C   0  0  0  0  0  3  0  0  0  0  0  0
  181.3260  179.0510  141.4420 C   0  0  2  0  0  3  0  0  0  0  0  0
  180.2850  174.6510  138.7230 C   0  0  0  0  0  2  0  0  0  0  0  0
  183.1060  176.9680  136.0610 C   0  0  0  0  0  1  0  0  0  0  0  0
  183.3170  177.2640  137.5340 C   0  0  1  0  0  0  0  0  0  0  0  0
  185.0110  178.2110  139.1180 C   0  0  1  0  0  3  0  0  0  0  0  0
  182.2520  178.3000  138.0160 C   0  0  2  0  0  3  0  0  0  0  0  0
  179.2400  173.8840  141.7690 O   0  0  0  0  0  0  0  0  0  0  0  0
  181.0350  177.2090  139.8280 C   0  0  1  0  0  3  0  0  0  0  0  0
  184.0990  179.3640  139.4950 C   0  0  0  0  0  2  0  0  0  0  0  0
  184.7330  177.8140  137.6770 C   0  0  0  0  0  2  0  0  0  0  0  0
  179.2690  174.8540  140.9680 C   0  0  0  0  0  0  0  0  0  0  0  0
  180.2530  176.8010  137.3360 C   0  0  0  0  0  0  0  0  0  0  0  0
  179.9400  178.5240  141.4660 C   0  0  0  0  0  0  0  0  0  0  0  0
  186.3940  178.6310  139.2460 N   0  0  0  0  0  1  0  0  0  0  0  0
  179.5680  176.1630  141.4590 N   0  0  0  0  0  2  0  0  0  0  0  0
  179.8770  177.4360  136.1440 C   0  0  0  0  0  3  0  0  0  0  0  0
  179.4910  174.6890  136.3850 C   0  0  0  0  0  3  0  0  0  0  0  0
  179.1400  175.3380  135.2020 C   0  0  0  0  0  3  0  0  0  0  0  0
  178.9940  174.6130  139.5230 C   0  0  0  0  0  2  0  0  0  0  0  0
  182.0670  178.1480  140.4680 C   0  0  1  0  0  3  0  0  0  0  0  0
  179.7310  177.3350  140.6060 C   0  0  2  0  0  3  0  0  0  0  0  0
  182.6240  178.9940  139.3300 C   0  0  2  0  0  3  0  0  0  0  0  0
  181.8990  178.9380  142.7090 O   0  0  0  0  0  1  0  0  0  0  0  0
  180.8960  177.6900  138.3850 C   0  0  2  0  0  3  0  0  0  0  0  0
  1  6  1  0  0  0  0
  4 22  2  0  0  0  0
  4 20  1  0  0  0  0
  5 17  1  0  0  0  0
  5 27  1  1  0  0  0
  6 23  1  0  0  0  0
  8  7  1  6  0  0  0
  8 14  1  0  0  0  0
  8 10  1  0  0  0  0
  8  2  1  0  0  0  0
  9 18  1  6  0  0  0
  9 13  1  0  0  0  0
 10 28  1  0  0  0  0
 10 26  1  0  0  0  0
 12 24  1  0  0  0  0
 12 25  1  0  0  0  0
 14  9  1  0  0  0  0
 15 19  1  0  0  0  0
 15 11  2  0  0  0  0
 16  1  1  0  0  0  0
 16 28  1  0  0  0  0
 17  3  2  0  0  0  0
 20 16  2  0  0  0  0
 21  1  2  0  0  0  0
 22 21  1  0  0  0  0
 23 15  1  0  0  0  0
 24  5  1  0  0  0  0
 25 19  1  0  0  0  0
 25 17  1  0  0  0  0
 26 13  1  0  0  0  0
 26 24  1  0  0  0  0
 28 12  1  0  0  0  0
M  END
>  <MODEL>
4

>  <REMARK>
 VINA RESULT:      -5.6      2.763      5.810
  Name = 
  0 active torsions:
  status: ('A' for Active; 'I' for Inactive)
                            x       y       z     vdW  Elec       q    Type
                         _______ _______ _______ _____ _____    ______ ____

>  <TORSDO>
F 0

$$$$
=
 OpenBabel11122412013D

 28 32  0  0  1  0  0  0  0  0999 V2000
  180.3200  180.0960  140.3860 C   0  0  0  0  0  0  0  0  0  0  0  0
  183.5290  180.0970  139.4430 O   0  0  0  0  0  1  0  0  0  0  0  0
  179.6230  176.9610  135.2720 C   0  0  0  0  0  2  0  0  0  0  0  0
  179.9220  178.3230  142.5230 C   0  0  0  0  0  3  0  0  0  0  0  0
  181.9900  177.3880  135.8340 C   0  0  2  0  0  3  0  0  0  0  0  0
  180.3830  181.0680  139.2570 C   0  0  0  0  0  2  0  0  0  0  0  0
  183.6480  178.8500  141.4540 C   0  0  0  0  0  1  0  0  0  0  0  0
  183.8400  178.8300  139.9500 C   0  0  1  0  0  0  0  0  0  0  0  0
  185.5930  178.4380  138.2030 C   0  0  1  0  0  3  0  0  0  0  0  0
  182.9330  177.7240  139.3220 C   0  0  2  0  0  3  0  0  0  0  0  0
  179.1000  182.1310  136.3960 O   0  0  0  0  0  0  0  0  0  0  0  0
  181.4810  178.8770  137.7340 C   0  0  1  0  0  3  0  0  0  0  0  0
  184.8590  177.2270  137.6580 C   0  0  0  0  0  2  0  0  0  0  0  0
  185.3180  178.5490  139.6940 C   0  0  0  0  0  2  0  0  0  0  0  0
  179.3160  181.0630  137.0270 C   0  0  0  0  0  0  0  0  0  0  0  0
  180.7520  178.7480  140.2720 C   0  0  0  0  0  0  0  0  0  0  0  0
  180.5390  177.6790  135.9210 C   0  0  0  0  0  0  0  0  0  0  0  0
  187.0180  178.2760  137.9860 N   0  0  0  0  0  1  0  0  0  0  0  0
  179.7980  179.9160  136.3220 N   0  0  0  0  0  2  0  0  0  0  0  0
  180.5340  177.8790  141.3500 C   0  0  0  0  0  3  0  0  0  0  0  0
  179.7070  180.5290  141.5700 C   0  0  0  0  0  3  0  0  0  0  0  0
  179.5140  179.6510  142.6350 C   0  0  0  0  0  3  0  0  0  0  0  0
  179.0690  181.0220  138.4960 C   0  0  0  0  0  2  0  0  0  0  0  0
  182.6210  178.2330  136.9320 C   0  0  1  0  0  3  0  0  0  0  0  0
  180.1810  178.6650  136.9680 C   0  0  2  0  0  3  0  0  0  0  0  0
  183.3530  177.3190  137.9050 C   0  0  2  0  0  3  0  0  0  0  0  0
  182.4830  177.7950  134.5940 O   0  0  0  0  0  1  0  0  0  0  0  0
  181.4830  178.1560  139.0800 C   0  0  2  0  0  3  0  0  0  0  0  0
  1 21  1  0  0  0  0
  2  8  1  0  0  0  0
  3 17  2  0  0  0  0
  4 22  1  0  0  0  0
  5 27  1  6  0  0  0
  5 17  1  0  0  0  0
  5 24  1  0  0  0  0
  6  1  1  0  0  0  0
  8  7  1  1  0  0  0
  9 18  1  1  0  0  0
  9 14  1  0  0  0  0
 10  8  1  0  0  0  0
 11 15  2  0  0  0  0
 12 28  1  0  0  0  0
 13 26  1  0  0  0  0
 13  9  1  0  0  0  0
 14  8  1  0  0  0  0
 15 23  1  0  0  0  0
 16  1  2  0  0  0  0
 16 20  1  0  0  0  0
 17 25  1  0  0  0  0
 19 25  1  0  0  0  0
 19 15  1  0  0  0  0
 20  4  2  0  0  0  0
 21 22  2  0  0  0  0
 23  6  1  0  0  0  0
 24 12  1  0  0  0  0
 24 26  1  0  0  0  0
 25 12  1  0  0  0  0
 26 10  1  0  0  0  0
 28 10  1  0  0  0  0
 28 16  1  0  0  0  0
M  END
>  <MODEL>
5

>  <REMARK>
 VINA RESULT:      -5.4      2.934      5.533
  Name = 
  0 active torsions:
  status: ('A' for Active; 'I' for Inactive)
                            x       y       z     vdW  Elec       q    Type
                         _______ _______ _______ _____ _____    ______ ____

>  <TORSDO>
F 0

$$$$
=
 OpenBabel11122412013D

 28 32  0  0  1  0  0  0  0  0999 V2000
  184.8080  174.6310  135.6730 C   0  0  0  0  0  0  0  0  0  0  0  0
  182.0660  176.5370  135.8560 O   0  0  0  0  0  1  0  0  0  0  0  0
  186.8140  178.4710  139.8800 C   0  0  0  0  0  2  0  0  0  0  0  0
  184.3740  172.1590  136.9270 C   0  0  0  0  0  3  0  0  0  0  0  0
  184.4330  178.8050  139.3170 C   0  0  2  0  0  3  0  0  0  0  0  0
  185.1800  175.8970  134.9790 C   0  0  0  0  0  2  0  0  0  0  0  0
  181.2240  174.4590  136.6200 C   0  0  0  0  0  1  0  0  0  0  0  0
  181.5110  175.9050  136.9730 C   0  0  1  0  0  0  0  0  0  0  0  0
  180.3670  178.0010  137.7320 C   0  0  1  0  0  3  0  0  0  0  0  0
  182.4770  175.9610  138.2000 C   0  0  2  0  0  3  0  0  0  0  0  0
  187.3740  178.3460  134.5950 O   0  0  0  0  0  0  0  0  0  0  0  0
  184.4400  177.1990  137.4460 C   0  0  1  0  0  3  0  0  0  0  0  0
  181.1340  178.0140  139.0410 C   0  0  0  0  0  2  0  0  0  0  0  0
  180.1700  176.5590  137.2920 C   0  0  0  0  0  2  0  0  0  0  0  0
  186.8860  177.6110  135.4920 C   0  0  0  0  0  0  0  0  0  0  0  0
  184.3260  174.5940  137.0090 C   0  0  0  0  0  0  0  0  0  0  0  0
  185.8030  178.3180  139.0280 C   0  0  0  0  0  0  0  0  0  0  0  0
  179.0730  178.6280  137.9260 N   0  0  0  0  0  1  0  0  0  0  0  0
  186.5580  178.1770  136.7640 N   0  0  0  0  0  2  0  0  0  0  0  0
  184.1260  173.3470  137.6170 C   0  0  0  0  0  3  0  0  0  0  0  0
  185.0540  173.4320  134.9920 C   0  0  0  0  0  3  0  0  0  0  0  0
  184.8320  172.2020  135.6110 C   0  0  0  0  0  3  0  0  0  0  0  0
  186.6580  176.1660  135.2050 C   0  0  0  0  0  2  0  0  0  0  0  0
  183.5610  178.1730  138.2420 C   0  0  1  0  0  3  0  0  0  0  0  0
  185.8930  177.4420  137.8350 C   0  0  2  0  0  3  0  0  0  0  0  0
  182.4900  177.3190  138.9090 C   0  0  2  0  0  3  0  0  0  0  0  0
  184.3870  180.1950  139.1950 O   0  0  0  0  0  1  0  0  0  0  0  0
  183.9600  175.8060  137.8470 C   0  0  2  0  0  3  0  0  0  0  0  0
  1 16  1  0  0  0  0
  2  8  1  0  0  0  0
  4 20  1  0  0  0  0
  5 27  1  6  0  0  0
  6 23  1  0  0  0  0
  6  1  1  0  0  0  0
  8  7  1  6  0  0  0
  8 14  1  0  0  0  0
  8 10  1  0  0  0  0
  9 18  1  1  0  0  0
  9 13  1  0  0  0  0
 10 26  1  0  0  0  0
 11 15  2  0  0  0  0
 12 25  1  0  0  0  0
 12 28  1  0  0  0  0
 12 24  1  0  0  0  0
 14  9  1  0  0  0  0
 15 19  1  0  0  0  0
 16 20  2  0  0  0  0
 16 28  1  0  0  0  0
 17  5  1  0  0  0  0
 17  3  2  0  0  0  0
 19 25  1  0  0  0  0
 21 22  1  0  0  0  0
 21  1  2  0  0  0  0
 22  4  2  0  0  0  0
 23 15  1  0  0  0  0
 24 26  1  0  0  0  0
 24  5  1  0  0  0  0
 25 17  1  0  0  0  0
 26 13  1  0  0  0  0
 28 10  1  0  0  0  0
M  END
>  <MODEL>
6

>  <REMARK>
 VINA RESULT:      -5.1      2.179      5.097
  Name = 
  0 active torsions:
  status: ('A' for Active; 'I' for Inactive)
                            x       y       z     vdW  Elec       q    Type
                         _______ _______ _______ _____ _____    ______ ____

>  <TORSDO>
F 0

$$$$
=
 OpenBabel11122412013D

 28 32  0  0  1  0  0  0  0  0999 V2000
  187.9670  177.0480  137.0240 C   0  0  0  0  0  0  0  0  0  0  0  0
  187.9230  173.7160  136.7340 O   0  0  0  0  0  1  0  0  0  0  0  0
  193.9220  176.2450  136.4230 C   0  0  0  0  0  2  0  0  0  0  0  0
  187.0370  178.2530  134.6670 C   0  0  0  0  0  3  0  0  0  0  0  0
  192.6240  174.1710  136.0860 C   0  0  2  0  0  3  0  0  0  0  0  0
  188.4820  176.5470  138.3300 C   0  0  0  0  0  2  0  0  0  0  0  0
  186.7290  174.3550  134.7900 C   0  0  0  0  0  1  0  0  0  0  0  0
  187.9720  173.6810  135.3370 C   0  0  1  0  0  0  0  0  0  0  0  0
  189.1760  171.4840  135.3220 C   0  0  1  0  0  3  0  0  0  0  0  0
  189.2430  174.4070  134.7910 C   0  0  2  0  0  3  0  0  0  0  0  0
  190.7930  176.7370  140.6930 O   0  0  0  0  0  0  0  0  0  0  0  0
  190.4710  175.1680  136.7580 C   0  0  1  0  0  3  0  0  0  0  0  0
  190.3770  172.0820  134.6130 C   0  0  0  0  0  2  0  0  0  0  0  0
  187.9250  172.2250  134.8810 C   0  0  0  0  0  2  0  0  0  0  0  0
  190.6730  176.8170  139.4430 C   0  0  0  0  0  0  0  0  0  0  0  0
  188.5510  176.7000  135.7770 C   0  0  0  0  0  0  0  0  0  0  0  0
  192.8050  175.5450  136.6120 C   0  0  0  0  0  0  0  0  0  0  0  0
  189.0570  170.0810  134.9690 N   0  0  0  0  0  1  0  0  0  0  0  0
  191.6600  176.2140  138.6020 N   0  0  0  0  0  2  0  0  0  0  0  0
  188.0760  177.3220  134.6140 C   0  0  0  0  0  3  0  0  0  0  0  0
  186.9250  177.9840  137.0630 C   0  0  0  0  0  3  0  0  0  0  0  0
  186.4570  178.5790  135.8920 C   0  0  0  0  0  3  0  0  0  0  0  0
  189.5010  177.5370  138.8680 C   0  0  0  0  0  2  0  0  0  0  0  0
  191.1420  173.8780  136.2690 C   0  0  1  0  0  3  0  0  0  0  0  0
  191.5640  176.1560  137.1470 C   0  0  2  0  0  3  0  0  0  0  0  0
  190.5240  173.5750  134.9100 C   0  0  2  0  0  3  0  0  0  0  0  0
  193.3730  173.2690  136.8440 O   0  0  0  0  0  1  0  0  0  0  0  0
  189.6410  175.6620  135.5740 C   0  0  2  0  0  3  0  0  0  0  0  0
  1 21  1  0  0  0  0
  1  6  1  0  0  0  0
  3 17  2  0  0  0  0
  4 22  1  0  0  0  0
  5 24  1  0  0  0  0
  5 17  1  0  0  0  0
  5 27  1  1  0  0  0
  6 23  1  0  0  0  0
  8  7  1  6  0  0  0
  8  2  1  0  0  0  0
  9 18  1  6  0  0  0
 10 26  1  0  0  0  0
 10  8  1  0  0  0  0
 10 28  1  0  0  0  0
 12 25  1  0  0  0  0
 13 26  1  0  0  0  0
 13  9  1  0  0  0  0
 14  9  1  0  0  0  0
 14  8  1  0  0  0  0
 15 11  2  0  0  0  0
 16  1  2  0  0  0  0
 17 25  1  0  0  0  0
 19 15  1  0  0  0  0
 20  4  2  0  0  0  0
 20 16  1  0  0  0  0
 22 21  2  0  0  0  0
 23 15  1  0  0  0  0
 24 12  1  0  0  0  0
 25 19  1  0  0  0  0
 26 24  1  0  0  0  0
 28 16  1  0  0  0  0
 28 12  1  0  0  0  0
M  END
>  <MODEL>
7

>  <REMARK>
 VINA RESULT:      -4.8      4.472      6.289
  Name = 
  0 active torsions:
  status: ('A' for Active; 'I' for Inactive)
                            x       y       z     vdW  Elec       q    Type
                         _______ _______ _______ _____ _____    ______ ____

>  <TORSDO>
F 0

$$$$
=
 OpenBabel11122412013D

 28 32  0  0  1  0  0  0  0  0999 V2000
  189.1440  177.6290  138.1420 C   0  0  0  0  0  0  0  0  0  0  0  0
  191.6220  176.5840  136.1530 O   0  0  0  0  0  1  0  0  0  0  0  0
  186.7950  172.2440  136.7450 C   0  0  0  0  0  2  0  0  0  0  0  0
  189.9330  177.5320  140.8320 C   0  0  0  0  0  3  0  0  0  0  0  0
  189.0940  172.5500  135.8960 C   0  0  2  0  0  3  0  0  0  0  0  0
  188.5900  177.7300  136.7610 C   0  0  0  0  0  2  0  0  0  0  0  0
  192.7480  176.7530  138.2300 C   0  0  0  0  0  1  0  0  0  0  0  0
  192.2880  175.8260  137.1220 C   0  0  1  0  0  0  0  0  0  0  0  0
  193.1770  174.2210  135.4150 C   0  0  1  0  0  3  0  0  0  0  0  0
  191.3630  174.7170  137.7180 C   0  0  2  0  0  3  0  0  0  0  0  0
  186.0860  177.0950  134.6900 O   0  0  0  0  0  0  0  0  0  0  0  0
  189.2340  174.9250  136.5440 C   0  0  1  0  0  3  0  0  0  0  0  0
  192.4560  173.0500  136.0580 C   0  0  0  0  0  2  0  0  0  0  0  0
  193.5440  175.2250  136.4950 C   0  0  0  0  0  2  0  0  0  0  0  0
  186.6940  176.5820  135.6660 C   0  0  0  0  0  0  0  0  0  0  0  0
  189.6690  176.4240  138.6780 C   0  0  0  0  0  0  0  0  0  0  0  0
  187.7900  173.0540  136.3900 C   0  0  0  0  0  0  0  0  0  0  0  0
  194.3840  173.7450  134.7670 N   0  0  0  0  0  1  0  0  0  0  0  0
  186.9870  175.1830  135.6550 N   0  0  0  0  0  2  0  0  0  0  0  0
  190.0480  176.3970  140.0280 C   0  0  0  0  0  3  0  0  0  0  0  0
  189.0330  178.7610  138.9600 C   0  0  0  0  0  3  0  0  0  0  0  0
  189.4310  178.7170  140.2960 C   0  0  0  0  0  3  0  0  0  0  0  0
  187.0970  177.4490  136.8090 C   0  0  0  0  0  2  0  0  0  0  0  0
  190.0050  173.7690  135.8940 C   0  0  1  0  0  3  0  0  0  0  0  0
  187.7750  174.5080  136.6800 C   0  0  2  0  0  3  0  0  0  0  0  0
  191.1980  173.5000  136.8020 C   0  0  2  0  0  3  0  0  0  0  0  0
  188.9560  172.0700  134.5940 O   0  0  0  0  0  1  0  0  0  0  0  0
  189.9020  175.1410  137.9000 C   0  0  2  0  0  3  0  0  0  0  0  0
  1 16  2  0  0  0  0
  1 21  1  0  0  0  0
  2  8  1  0  0  0  0
  5 27  1  6  0  0  0
  5 17  1  0  0  0  0
  6 23  1  0  0  0  0
  6  1  1  0  0  0  0
  8 10  1  0  0  0  0
  8  7  1  1  0  0  0
  9 18  1  1  0  0  0
  9 13  1  0  0  0  0
  9 14  1  0  0  0  0
 10 28  1  0  0  0  0
 11 15  2  0  0  0  0
 12 25  1  0  0  0  0
 12 28  1  0  0  0  0
 13 26  1  0  0  0  0
 14  8  1  0  0  0  0
 15 23  1  0  0  0  0
 16 20  1  0  0  0  0
 17 25  1  0  0  0  0
 17  3  2  0  0  0  0
 19 15  1  0  0  0  0
 19 25  1  0  0  0  0
 20  4  2  0  0  0  0
 21 22  2  0  0  0  0
 22  4  1  0  0  0  0
 24  5  1  0  0  0  0
 24 12  1  0  0  0  0
 24 26  1  0  0  0  0
 26 10  1  0  0  0  0
 28 16  1  0  0  0  0
M  END
>  <MODEL>
8

>  <REMARK>
 VINA RESULT:      -4.7      4.674      7.924
  Name = 
  0 active torsions:
  status: ('A' for Active; 'I' for Inactive)
                            x       y       z     vdW  Elec       q    Type
                         _______ _______ _______ _____ _____    ______ ____

>  <TORSDO>
F 0

$$$$
=
 OpenBabel11122412013D

 28 32  0  0  1  0  0  0  0  0999 V2000
  181.2840  179.0060  140.5740 C   0  0  0  0  0  0  0  0  0  0  0  0
  180.9110  175.8370  139.5720 O   0  0  0  0  0  1  0  0  0  0  0  0
  186.3460  178.6280  137.3020 C   0  0  0  0  0  2  0  0  0  0  0  0
  179.5130  180.6890  139.1950 C   0  0  0  0  0  3  0  0  0  0  0  0
  184.9010  176.6370  137.0890 C   0  0  2  0  0  3  0  0  0  0  0  0
  182.2760  178.2350  141.3770 C   0  0  0  0  0  2  0  0  0  0  0  0
  179.0430  176.8620  138.5360 C   0  0  0  0  0  1  0  0  0  0  0  0
  180.3550  176.1330  138.3230 C   0  0  1  0  0  0  0  0  0  0  0  0
  181.2960  174.0560  137.2850 C   0  0  1  0  0  3  0  0  0  0  0  0
  181.3130  177.0230  137.4670 C   0  0  2  0  0  3  0  0  0  0  0  0
  185.3830  177.9660  142.4880 O   0  0  0  0  0  0  0  0  0  0  0  0
  183.3100  177.3530  138.8310 C   0  0  1  0  0  3  0  0  0  0  0  0
  182.1140  174.8560  136.2880 C   0  0  0  0  0  2  0  0  0  0  0  0
  180.0260  174.8250  137.6090 C   0  0  0  0  0  2  0  0  0  0  0  0
  184.7450  178.3320  141.4670 C   0  0  0  0  0  0  0  0  0  0  0  0
  181.2560  178.9870  139.1540 C   0  0  0  0  0  0  0  0  0  0  0  0
  185.3760  177.8550  137.7870 C   0  0  0  0  0  0  0  0  0  0  0  0
  180.9490  172.7720  136.7050 N   0  0  0  0  0  1  0  0  0  0  0  0
  185.2360  177.9870  140.1700 N   0  0  0  0  0  2  0  0  0  0  0  0
  180.3690  179.8440  138.4870 C   0  0  0  0  0  3  0  0  0  0  0  0
  180.4200  179.8600  141.2720 C   0  0  0  0  0  3  0  0  0  0  0  0
  179.5340  180.6930  140.5880 C   0  0  0  0  0  3  0  0  0  0  0  0
  183.4870  179.1150  141.6360 C   0  0  0  0  0  2  0  0  0  0  0  0
  183.6240  176.2440  137.8180 C   0  0  1  0  0  3  0  0  0  0  0  0
  184.5240  178.2680  138.9280 C   0  0  2  0  0  3  0  0  0  0  0  0
  182.4670  176.2420  136.8280 C   0  0  2  0  0  3  0  0  0  0  0  0
  185.8440  175.6160  137.2200 O   0  0  0  0  0  1  0  0  0  0  0  0
  182.0870  178.0740  138.2690 C   0  0  2  0  0  3  0  0  0  0  0  0
  1 21  1  0  0  0  0
  1  6  1  0  0  0  0
  3 17  2  0  0  0  0
  4 22  1  0  0  0  0
  5 27  1  1  0  0  0
  5 17  1  0  0  0  0
  5 24  1  0  0  0  0
  6 23  1  0  0  0  0
  8  7  1  1  0  0  0
  8  2  1  0  0  0  0
  9 18  1  6  0  0  0
  9 14  1  0  0  0  0
 10 28  1  0  0  0  0
 10  8  1  0  0  0  0
 12 25  1  0  0  0  0
 13 26  1  0  0  0  0
 13  9  1  0  0  0  0
 14  8  1  0  0  0  0
 15 23  1  0  0  0  0
 15 11  2  0  0  0  0
 16  1  2  0  0  0  0
 17 25  1  0  0  0  0
 19 15  1  0  0  0  0
 20 16  1  0  0  0  0
 20  4  2  0  0  0  0
 22 21  2  0  0  0  0
 24 12  1  0  0  0  0
 25 19  1  0  0  0  0
 26 10  1  0  0  0  0
 26 24  1  0  0  0  0
 28 12  1  0  0  0  0
 28 16  1  0  0  0  0
M  END
>  <MODEL>
9

>  <REMARK>
 VINA RESULT:      -4.5      1.841      2.527
  Name = 
  0 active torsions:
  status: ('A' for Active; 'I' for Inactive)
                            x       y       z     vdW  Elec       q    Type
                         _______ _______ _______ _____ _____    ______ ____

>  <TORSDO>
F 0

$$$$
