=
 OpenBabel11122410243D

 30 35  0  0  1  0  0  0  0  0999 V2000
  189.2530  177.0900  143.7950 C   0  0  0  0  0  0  0  0  0  0  0  0
  191.2340  176.1290  144.9770 C   0  0  0  0  0  0  0  0  0  0  0  0
  187.3660  178.1210  147.4760 C   0  0  0  0  0  2  0  0  0  0  0  0
  187.9690  177.6980  143.8650 C   0  0  0  0  0  0  0  0  0  0  0  0
  189.8240  176.7800  142.4370 C   0  0  0  0  0  2  0  0  0  0  0  0
  187.7180  178.9750  140.4710 O   0  0  0  0  0  0  0  0  0  0  0  0
  184.9480  177.7720  143.3590 C   0  0  1  0  0  3  0  0  0  0  0  0
  188.1600  178.3650  141.4840 C   0  0  0  0  0  0  0  0  0  0  0  0
  184.9010  178.0390  144.8500 C   0  0  2  0  0  3  0  0  0  0  0  0
  186.1570  178.8460  146.8650 C   0  0  1  0  0  3  0  0  0  0  0  0
  189.4790  177.8100  141.4670 N   0  0  0  0  0  0  0  0  0  0  0  0
  187.3480  178.2100  142.6620 N   0  0  0  0  0  0  0  0  0  0  0  0
  191.8920  175.8460  146.1770 C   0  0  0  0  0  3  0  0  0  0  0  0
  183.7990  179.0400  144.9690 C   0  0  0  0  0  2  0  0  0  0  0  0
  183.6660  178.0000  142.8210 O   0  0  0  0  0  0  0  0  0  0  0  0
  191.8660  175.7980  143.8240 F   0  0  0  0  0  0  0  0  0  0  0  0
  188.1150  177.6540  146.2810 C   0  0  0  0  0  0  0  0  0  0  0  0
  191.3070  176.1650  147.4010 C   0  0  0  0  0  3  0  0  0  0  0  0
  189.9570  176.7460  144.9870 C   0  0  0  0  0  0  0  0  0  0  0  0
  187.4100  177.9200  145.1410 C   0  0  0  0  0  0  0  0  0  0  0  0
  186.3170  180.3430  147.0590 C   0  0  0  0  0  1  0  0  0  0  0  0
  186.1540  178.5300  145.4340 N   0  0  0  0  0  0  0  0  0  0  0  0
  182.9140  178.6850  143.7980 C   0  0  0  0  0  2  0  0  0  0  0  0
  185.6160  179.6620  142.0510 O   0  0  0  0  0  0  0  0  0  0  0  0
  190.0530  176.7680  147.4360 C   0  0  0  0  0  3  0  0  0  0  0  0
  189.3740  177.0580  146.2460 C   0  0  0  0  0  0  0  0  0  0  0  0
  185.9680  178.6060  142.6440 C   0  0  0  0  0  0  0  0  0  0  0  0
  190.3780  178.0290  140.3430 C   0  0  0  0  0  2  0  0  0  0  0  0
  189.6990  176.5910  138.4490 C   0  0  0  0  0  1  0  0  0  0  0  0
  190.6410  176.7190  139.6260 C   0  0  0  0  0  2  0  0  0  0  0  0
  1  4  2  0  0  0  0
  1 19  1  0  0  0  0
  2 19  2  0  0  0  0
  2 13  1  0  0  0  0
  4 20  1  0  0  0  0
  5  1  1  0  0  0  0
  6  8  2  0  0  0  0
  7 27  1  6  0  0  0
  7  9  1  0  0  0  0
  8 12  1  0  0  0  0
  9 14  1  6  0  0  0
  9 22  1  0  0  0  0
 10 21  1  6  0  0  0
 10  3  1  0  0  0  0
 11  8  1  0  0  0  0
 11  5  1  0  0  0  0
 12  4  1  0  0  0  0
 13 18  2  0  0  0  0
 15  7  1  0  0  0  0
 15 23  1  0  0  0  0
 16  2  1  0  0  0  0
 17  3  1  0  0  0  0
 18 25  1  0  0  0  0
 19 26  1  0  0  0  0
 20 22  1  0  0  0  0
 20 17  2  0  0  0  0
 22 10  1  0  0  0  0
 23 14  1  0  0  0  0
 24 27  2  0  0  0  0
 26 17  1  0  0  0  0
 26 25  2  0  0  0  0
 27 12  1  0  0  0  0
 28 11  1  0  0  0  0
 29 30  1  0  0  0  0
 30 28  1  0  0  0  0
M  END
>  <MODEL>
1

>  <REMARK>
 VINA RESULT:      -9.4      0.000      0.000
  Name = 
  2 active torsions:
  status: ('A' for Active; 'I' for Inactive)
    1  A    between atoms: N_11  and  C_28
    2  A    between atoms: C_28  and  C_30
                            x       y       z     vdW  Elec       q    Type
                         _______ _______ _______ _____ _____    ______ ____

>  <TORSDO>
F 2

$$$$
=
 OpenBabel11122410243D

 30 35  0  0  1  0  0  0  0  0999 V2000
  188.2610  177.3740  142.7570 C   0  0  0  0  0  0  0  0  0  0  0  0
  189.8520  176.7170  144.5690 C   0  0  0  0  0  0  0  0  0  0  0  0
  185.3470  178.6820  145.5800 C   0  0  0  0  0  2  0  0  0  0  0  0
  186.9880  177.8840  142.3790 C   0  0  0  0  0  0  0  0  0  0  0  0
  189.2130  176.9520  141.6700 C   0  0  0  0  0  2  0  0  0  0  0  0
  187.6800  178.7280  138.9110 O   0  0  0  0  0  0  0  0  0  0  0  0
  184.2430  177.6610  141.0360 C   0  0  1  0  0  3  0  0  0  0  0  0
  187.8340  178.2780  140.0810 C   0  0  0  0  0  0  0  0  0  0  0  0
  183.7540  178.0980  142.4020 C   0  0  2  0  0  3  0  0  0  0  0  0
  184.3380  179.2320  144.5610 C   0  0  1  0  0  3  0  0  0  0  0  0
  189.1230  177.8300  140.5120 N   0  0  0  0  0  0  0  0  0  0  0  0
  186.7220  178.2000  140.9920 N   0  0  0  0  0  0  0  0  0  0  0  0
  190.1450  176.6300  145.9330 C   0  0  0  0  0  3  0  0  0  0  0  0
  182.6260  179.0170  142.0680 C   0  0  0  0  0  2  0  0  0  0  0  0
  183.1630  177.7230  140.1320 O   0  0  0  0  0  0  0  0  0  0  0  0
  190.8040  176.3020  143.6970 F   0  0  0  0  0  0  0  0  0  0  0  0
  186.4280  178.1360  144.7200 C   0  0  0  0  0  0  0  0  0  0  0  0
  189.2170  177.0440  146.8870 C   0  0  0  0  0  3  0  0  0  0  0  0
  188.6030  177.2300  144.1340 C   0  0  0  0  0  0  0  0  0  0  0  0
  186.0740  178.2100  143.4030 C   0  0  0  0  0  0  0  0  0  0  0  0
  184.3740  180.7500  144.5870 C   0  0  0  0  0  1  0  0  0  0  0  0
  184.7640  178.7510  143.2440 N   0  0  0  0  0  0  0  0  0  0  0  0
  182.1330  178.4580  140.7550 C   0  0  0  0  0  2  0  0  0  0  0  0
  185.1840  179.4300  139.7260 O   0  0  0  0  0  0  0  0  0  0  0  0
  187.9830  177.5480  146.4840 C   0  0  0  0  0  3  0  0  0  0  0  0
  187.6670  177.6410  145.1230 C   0  0  0  0  0  0  0  0  0  0  0  0
  185.3920  178.4820  140.5310 C   0  0  0  0  0  0  0  0  0  0  0  0
  190.2990  177.9850  139.6690 C   0  0  0  0  0  2  0  0  0  0  0  0
  190.1550  176.1230  138.0470 C   0  0  0  0  0  1  0  0  0  0  0  0
  190.8510  176.6220  139.2940 C   0  0  0  0  0  2  0  0  0  0  0  0
  1 19  1  0  0  0  0
  2 13  1  0  0  0  0
  4  1  2  0  0  0  0
  4 20  1  0  0  0  0
  5  1  1  0  0  0  0
  6  8  2  0  0  0  0
  7 15  1  6  0  0  0
  7  9  1  0  0  0  0
  8 11  1  0  0  0  0
  8 12  1  0  0  0  0
  9 14  1  6  0  0  0
  9 22  1  0  0  0  0
 10 21  1  6  0  0  0
 10  3  1  0  0  0  0
 11  5  1  0  0  0  0
 12  4  1  0  0  0  0
 13 18  2  0  0  0  0
 15 23  1  0  0  0  0
 16  2  1  0  0  0  0
 17 26  1  0  0  0  0
 17  3  1  0  0  0  0
 19  2  2  0  0  0  0
 19 26  1  0  0  0  0
 20 17  2  0  0  0  0
 22 20  1  0  0  0  0
 22 10  1  0  0  0  0
 23 14  1  0  0  0  0
 24 27  2  0  0  0  0
 25 18  1  0  0  0  0
 26 25  2  0  0  0  0
 27 12  1  0  0  0  0
 27  7  1  0  0  0  0
 28 11  1  0  0  0  0
 29 30  1  0  0  0  0
 30 28  1  0  0  0  0
M  END
>  <MODEL>
2

>  <REMARK>
 VINA RESULT:      -8.7      1.538      2.140
  Name = 
  2 active torsions:
  status: ('A' for Active; 'I' for Inactive)
    1  A    between atoms: N_11  and  C_28
    2  A    between atoms: C_28  and  C_30
                            x       y       z     vdW  Elec       q    Type
                         _______ _______ _______ _____ _____    ______ ____

>  <TORSDO>
F 2

$$$$
=
 OpenBabel11122410243D

 30 35  0  0  1  0  0  0  0  0999 V2000
  189.3260  177.2710  139.6510 C   0  0  0  0  0  0  0  0  0  0  0  0
  191.1770  176.7520  138.0540 C   0  0  0  0  0  0  0  0  0  0  0  0
  192.0560  177.7690  142.8880 C   0  0  0  0  0  2  0  0  0  0  0  0
  188.9110  177.5740  140.9770 C   0  0  0  0  0  0  0  0  0  0  0  0
  188.2710  177.1280  138.5870 C   0  0  0  0  0  2  0  0  0  0  0  0
  185.5720  178.8390  140.2910 O   0  0  0  0  0  0  0  0  0  0  0  0
  187.3830  176.9800  143.5660 C   0  0  1  0  0  3  0  0  0  0  0  0
  186.7090  178.3200  140.1110 C   0  0  0  0  0  0  0  0  0  0  0  0
  188.7470  177.1970  144.1920 C   0  0  2  0  0  3  0  0  0  0  0  0
  191.0220  178.2180  143.9320 C   0  0  1  0  0  3  0  0  0  0  0  0
  187.1840  178.0760  138.7830 N   0  0  0  0  0  0  0  0  0  0  0  0
  187.5390  177.9610  141.2320 N   0  0  0  0  0  0  0  0  0  0  0  0
  192.5450  176.5960  137.8150 C   0  0  0  0  0  3  0  0  0  0  0  0
  188.4170  177.9220  145.4540 C   0  0  0  0  0  2  0  0  0  0  0  0
  186.4210  176.9270  144.5940 O   0  0  0  0  0  0  0  0  0  0  0  0
  190.3360  176.5970  137.0010 F   0  0  0  0  0  0  0  0  0  0  0  0
  191.2250  177.5090  141.6840 C   0  0  0  0  0  0  0  0  0  0  0  0
  193.4680  176.7480  138.8470 C   0  0  0  0  0  3  0  0  0  0  0  0
  190.7070  177.0670  139.3540 C   0  0  0  0  0  0  0  0  0  0  0  0
  189.8980  177.6360  141.9840 C   0  0  0  0  0  0  0  0  0  0  0  0
  191.1720  179.7090  144.1790 C   0  0  0  0  0  1  0  0  0  0  0  0
  189.7000  177.9430  143.3620 N   0  0  0  0  0  0  0  0  0  0  0  0
  187.0340  177.4050  145.7720 C   0  0  0  0  0  2  0  0  0  0  0  0
  186.2810  179.0020  142.9090 O   0  0  0  0  0  0  0  0  0  0  0  0
  193.0300  177.0540  140.1330 C   0  0  0  0  0  3  0  0  0  0  0  0
  191.6640  177.2110  140.3960 C   0  0  0  0  0  0  0  0  0  0  0  0
  187.0190  178.0380  142.5670 C   0  0  0  0  0  0  0  0  0  0  0  0
  186.4320  178.5160  137.6180 C   0  0  0  0  0  2  0  0  0  0  0  0
  186.7770  177.8400  135.2630 C   0  0  0  0  0  1  0  0  0  0  0  0
  187.3540  178.6290  136.4180 C   0  0  0  0  0  2  0  0  0  0  0  0
  1  4  1  0  0  0  0
  2 19  1  0  0  0  0
  3 10  1  0  0  0  0
  4 12  1  0  0  0  0
  4 20  2  0  0  0  0
  5 11  1  0  0  0  0
  5  1  1  0  0  0  0
  7 27  1  6  0  0  0
  7  9  1  0  0  0  0
  7 15  1  0  0  0  0
  8  6  2  0  0  0  0
  8 12  1  0  0  0  0
  9 14  1  1  0  0  0
 10 21  1  6  0  0  0
 11  8  1  0  0  0  0
 12 27  1  0  0  0  0
 13  2  2  0  0  0  0
 13 18  1  0  0  0  0
 14 23  1  0  0  0  0
 15 23  1  0  0  0  0
 16  2  1  0  0  0  0
 17 20  1  0  0  0  0
 17  3  1  0  0  0  0
 18 25  2  0  0  0  0
 19  1  2  0  0  0  0
 19 26  1  0  0  0  0
 20 22  1  0  0  0  0
 22 10  1  0  0  0  0
 22  9  1  0  0  0  0
 25 26  1  0  0  0  0
 26 17  2  0  0  0  0
 27 24  2  0  0  0  0
 28 11  1  0  0  0  0
 29 30  1  0  0  0  0
 30 28  1  0  0  0  0
M  END
>  <MODEL>
3

>  <REMARK>
 VINA RESULT:      -8.3      2.609      5.071
  Name = 
  2 active torsions:
  status: ('A' for Active; 'I' for Inactive)
    1  A    between atoms: N_11  and  C_28
    2  A    between atoms: C_28  and  C_30
                            x       y       z     vdW  Elec       q    Type
                         _______ _______ _______ _____ _____    ______ ____

>  <TORSDO>
F 2

$$$$
=
 OpenBabel11122410243D

 30 35  0  0  1  0  0  0  0  0999 V2000
  186.1800  178.1840  142.6600 C   0  0  0  0  0  0  0  0  0  0  0  0
  185.8130  178.2770  140.1900 C   0  0  0  0  0  0  0  0  0  0  0  0
  190.4160  178.1590  142.1840 C   0  0  0  0  0  2  0  0  0  0  0  0
  187.0840  178.1040  143.7550 C   0  0  0  0  0  0  0  0  0  0  0  0
  184.7030  178.1960  142.9510 C   0  0  0  0  0  2  0  0  0  0  0  0
  184.8650  179.1340  146.4460 O   0  0  0  0  0  0  0  0  0  0  0  0
  188.2760  176.7300  146.2210 C   0  0  1  0  0  3  0  0  0  0  0  0
  185.2690  178.8010  145.2970 C   0  0  0  0  0  0  0  0  0  0  0  0
  189.5740  176.9300  145.4640 C   0  0  2  0  0  3  0  0  0  0  0  0
  190.7690  178.2220  143.6780 C   0  0  1  0  0  3  0  0  0  0  0  0
  184.4050  178.9440  144.1640 N   0  0  0  0  0  0  0  0  0  0  0  0
  186.5920  178.2670  145.1080 N   0  0  0  0  0  0  0  0  0  0  0  0
  186.3500  178.3330  138.9000 C   0  0  0  0  0  3  0  0  0  0  0  0
  190.5360  177.2820  146.5510 C   0  0  0  0  0  2  0  0  0  0  0  0
  188.5800  176.3210  147.5350 O   0  0  0  0  0  0  0  0  0  0  0  0
  184.4630  178.2980  140.3060 F   0  0  0  0  0  0  0  0  0  0  0  0
  188.9310  178.1150  142.1920 C   0  0  0  0  0  0  0  0  0  0  0  0
  187.7290  178.3240  138.7030 C   0  0  0  0  0  3  0  0  0  0  0  0
  186.6680  178.2090  141.3200 C   0  0  0  0  0  0  0  0  0  0  0  0
  188.4630  178.0220  143.4720 C   0  0  0  0  0  0  0  0  0  0  0  0
  191.2760  179.6130  144.0160 C   0  0  0  0  0  1  0  0  0  0  0  0
  189.5310  177.9550  144.4160 N   0  0  0  0  0  0  0  0  0  0  0  0
  189.9560  176.5570  147.7420 C   0  0  0  0  0  2  0  0  0  0  0  0
  187.4290  178.7200  147.2470 O   0  0  0  0  0  0  0  0  0  0  0  0
  188.5880  178.2540  139.7970 C   0  0  0  0  0  3  0  0  0  0  0  0
  188.0730  178.1940  141.0970 C   0  0  0  0  0  0  0  0  0  0  0  0
  187.4130  177.9560  146.2440 C   0  0  0  0  0  0  0  0  0  0  0  0
  183.0990  179.5750  144.2830 C   0  0  0  0  0  2  0  0  0  0  0  0
  180.8410  178.6490  143.8820 C   0  0  0  0  0  1  0  0  0  0  0  0
  182.1570  179.0190  143.2330 C   0  0  0  0  0  2  0  0  0  0  0  0
  1  5  1  0  0  0  0
  1  4  1  0  0  0  0
  2 16  1  0  0  0  0
  2 19  1  0  0  0  0
  3 17  1  0  0  0  0
  3 10  1  0  0  0  0
  4 12  1  0  0  0  0
  5 11  1  0  0  0  0
  7 27  1  1  0  0  0
  7 15  1  0  0  0  0
  8  6  2  0  0  0  0
  9  7  1  0  0  0  0
  9 14  1  1  0  0  0
 10 21  1  1  0  0  0
 10 22  1  0  0  0  0
 11 28  1  0  0  0  0
 11  8  1  0  0  0  0
 12  8  1  0  0  0  0
 12 27  1  0  0  0  0
 13  2  2  0  0  0  0
 14 23  1  0  0  0  0
 15 23  1  0  0  0  0
 17 20  1  0  0  0  0
 18 13  1  0  0  0  0
 18 25  2  0  0  0  0
 19  1  2  0  0  0  0
 20  4  2  0  0  0  0
 20 22  1  0  0  0  0
 22  9  1  0  0  0  0
 25 26  1  0  0  0  0
 26 19  1  0  0  0  0
 26 17  2  0  0  0  0
 27 24  2  0  0  0  0
 30 29  1  0  0  0  0
 30 28  1  0  0  0  0
M  END
>  <MODEL>
4

>  <REMARK>
 VINA RESULT:      -8.3      2.838      6.462
  Name = 
  2 active torsions:
  status: ('A' for Active; 'I' for Inactive)
    1  A    between atoms: N_11  and  C_28
    2  A    between atoms: C_28  and  C_30
                            x       y       z     vdW  Elec       q    Type
                         _______ _______ _______ _____ _____    ______ ____

>  <TORSDO>
F 2

$$$$
=
 OpenBabel11122410243D

 30 35  0  0  1  0  0  0  0  0999 V2000
  187.9140  177.7610  142.2560 C   0  0  0  0  0  0  0  0  0  0  0  0
  185.6470  178.2960  143.1610 C   0  0  0  0  0  0  0  0  0  0  0  0
  186.6550  178.4920  138.2490 C   0  0  0  0  0  2  0  0  0  0  0  0
  188.7710  177.6020  141.1310 C   0  0  0  0  0  0  0  0  0  0  0  0
  188.4740  177.4840  143.6250 C   0  0  0  0  0  2  0  0  0  0  0  0
  191.9950  177.7050  142.8090 O   0  0  0  0  0  0  0  0  0  0  0  0
  190.5810  175.9570  139.2860 C   0  0  1  0  0  3  0  0  0  0  0  0
  190.7450  177.6790  142.6310 C   0  0  0  0  0  0  0  0  0  0  0  0
  189.6610  176.5070  138.2140 C   0  0  2  0  0  3  0  0  0  0  0  0
  188.0290  178.3050  137.5880 C   0  0  1  0  0  3  0  0  0  0  0  0
  189.8600  177.9140  143.7320 N   0  0  0  0  0  0  0  0  0  0  0  0
  190.1920  177.4080  141.3300 N   0  0  0  0  0  0  0  0  0  0  0  0
  184.3280  178.6960  142.9280 C   0  0  0  0  0  3  0  0  0  0  0  0
  190.5980  176.7750  137.0830 C   0  0  0  0  0  2  0  0  0  0  0  0
  191.6840  175.3430  138.6590 O   0  0  0  0  0  0  0  0  0  0  0  0
  186.0180  178.0820  144.4470 F   0  0  0  0  0  0  0  0  0  0  0  0
  186.9330  178.2180  139.6820 C   0  0  0  0  0  0  0  0  0  0  0  0
  183.8780  178.9410  141.6330 C   0  0  0  0  0  3  0  0  0  0  0  0
  186.5490  178.1340  142.0780 C   0  0  0  0  0  0  0  0  0  0  0  0
  188.2210  177.7940  139.8460 C   0  0  0  0  0  0  0  0  0  0  0  0
  188.5770  179.6590  137.1750 C   0  0  0  0  0  1  0  0  0  0  0  0
  188.9050  177.7040  138.5980 N   0  0  0  0  0  0  0  0  0  0  0  0
  191.6770  175.7420  137.3050 C   0  0  0  0  0  2  0  0  0  0  0  0
  192.1800  177.5410  140.1020 O   0  0  0  0  0  0  0  0  0  0  0  0
  184.7440  178.7850  140.5530 C   0  0  0  0  0  3  0  0  0  0  0  0
  186.0680  178.3830  140.7630 C   0  0  0  0  0  0  0  0  0  0  0  0
  191.0500  177.0040  140.2530 C   0  0  0  0  0  0  0  0  0  0  0  0
  190.3670  178.2970  145.0420 C   0  0  0  0  0  2  0  0  0  0  0  0
  190.2760  176.8320  147.0340 C   0  0  0  0  0  1  0  0  0  0  0  0
  189.4690  177.7370  146.1290 C   0  0  0  0  0  2  0  0  0  0  0  0
  1  5  1  0  0  0  0
  2 16  1  0  0  0  0
  3 17  1  0  0  0  0
  4 12  1  0  0  0  0
  4  1  2  0  0  0  0
  5 11  1  0  0  0  0
  7 15  1  6  0  0  0
  7 27  1  0  0  0  0
  8  6  2  0  0  0  0
  8 11  1  0  0  0  0
  9 14  1  6  0  0  0
  9 22  1  0  0  0  0
  9  7  1  0  0  0  0
 10 21  1  1  0  0  0
 10  3  1  0  0  0  0
 10 22  1  0  0  0  0
 11 28  1  0  0  0  0
 12  8  1  0  0  0  0
 13  2  1  0  0  0  0
 14 23  1  0  0  0  0
 17 20  2  0  0  0  0
 17 26  1  0  0  0  0
 18 13  2  0  0  0  0
 19  1  1  0  0  0  0
 19  2  2  0  0  0  0
 20  4  1  0  0  0  0
 22 20  1  0  0  0  0
 23 15  1  0  0  0  0
 24 27  2  0  0  0  0
 25 26  2  0  0  0  0
 25 18  1  0  0  0  0
 26 19  1  0  0  0  0
 27 12  1  0  0  0  0
 28 30  1  0  0  0  0
 30 29  1  0  0  0  0
M  END
>  <MODEL>
5

>  <REMARK>
 VINA RESULT:      -8.2      3.037      7.179
  Name = 
  2 active torsions:
  status: ('A' for Active; 'I' for Inactive)
    1  A    between atoms: N_11  and  C_28
    2  A    between atoms: C_28  and  C_30
                            x       y       z     vdW  Elec       q    Type
                         _______ _______ _______ _____ _____    ______ ____

>  <TORSDO>
F 2

$$$$
=
 OpenBabel11122410243D

 30 35  0  0  1  0  0  0  0  0999 V2000
  185.7220  178.6460  143.5210 C   0  0  0  0  0  0  0  0  0  0  0  0
  185.1960  178.8760  145.9540 C   0  0  0  0  0  0  0  0  0  0  0  0
  189.5330  176.9270  144.3510 C   0  0  0  0  0  2  0  0  0  0  0  0
  186.6410  178.2690  142.5040 C   0  0  0  0  0  0  0  0  0  0  0  0
  184.4000  179.2360  143.1070 C   0  0  0  0  0  2  0  0  0  0  0  0
  184.3690  178.0910  139.6710 O   0  0  0  0  0  0  0  0  0  0  0  0
  188.4550  178.8550  140.1040 C   0  0  1  0  0  3  0  0  0  0  0  0
  184.8020  178.2990  140.8390 C   0  0  0  0  0  0  0  0  0  0  0  0
  189.4960  178.1790  140.9730 C   0  0  2  0  0  3  0  0  0  0  0  0
  189.9180  176.6240  142.8950 C   0  0  1  0  0  3  0  0  0  0  0  0
  183.8900  178.6040  141.8990 N   0  0  0  0  0  0  0  0  0  0  0  0
  186.2130  178.2400  141.1210 N   0  0  0  0  0  0  0  0  0  0  0  0
  185.5770  178.6850  147.2850 C   0  0  0  0  0  3  0  0  0  0  0  0
  190.2850  177.3870  139.9830 C   0  0  0  0  0  2  0  0  0  0  0  0
  188.9840  179.0120  138.8080 O   0  0  0  0  0  0  0  0  0  0  0  0
  183.9740  179.4160  145.7240 F   0  0  0  0  0  0  0  0  0  0  0  0
  188.2090  177.5870  144.2170 C   0  0  0  0  0  0  0  0  0  0  0  0
  186.8160  178.1290  147.5970 C   0  0  0  0  0  3  0  0  0  0  0  0
  186.0680  178.5070  144.8980 C   0  0  0  0  0  0  0  0  0  0  0  0
  187.9060  177.7850  142.8990 C   0  0  0  0  0  0  0  0  0  0  0  0
  189.8110  175.1310  142.6460 C   0  0  0  0  0  1  0  0  0  0  0  0
  188.9580  177.3370  142.0470 N   0  0  0  0  0  0  0  0  0  0  0  0
  190.1420  178.2090  138.7250 C   0  0  0  0  0  2  0  0  0  0  0  0
  186.9120  177.3400  139.0760 O   0  0  0  0  0  0  0  0  0  0  0  0
  187.6900  177.7610  146.5770 C   0  0  0  0  0  3  0  0  0  0  0  0
  187.3310  177.9470  145.2370 C   0  0  0  0  0  0  0  0  0  0  0  0
  187.1570  178.1040  140.0490 C   0  0  0  0  0  0  0  0  0  0  0  0
  182.4500  178.5720  141.6900 C   0  0  0  0  0  2  0  0  0  0  0  0
  180.4390  179.6860  142.6030 C   0  0  0  0  0  1  0  0  0  0  0  0
  181.7330  178.9870  142.9610 C   0  0  0  0  0  2  0  0  0  0  0  0
  1 19  1  0  0  0  0
  2 13  1  0  0  0  0
  4 20  1  0  0  0  0
  4  1  2  0  0  0  0
  5  1  1  0  0  0  0
  6  8  2  0  0  0  0
  7 15  1  6  0  0  0
  7  9  1  0  0  0  0
  8 12  1  0  0  0  0
  8 11  1  0  0  0  0
  9 14  1  6  0  0  0
  9 22  1  0  0  0  0
 10 21  1  1  0  0  0
 10  3  1  0  0  0  0
 11  5  1  0  0  0  0
 12  4  1  0  0  0  0
 13 18  2  0  0  0  0
 16  2  1  0  0  0  0
 17  3  1  0  0  0  0
 17 26  1  0  0  0  0
 19 26  1  0  0  0  0
 19  2  2  0  0  0  0
 20 17  2  0  0  0  0
 22 10  1  0  0  0  0
 22 20  1  0  0  0  0
 23 15  1  0  0  0  0
 23 14  1  0  0  0  0
 24 27  2  0  0  0  0
 25 18  1  0  0  0  0
 26 25  2  0  0  0  0
 27  7  1  0  0  0  0
 27 12  1  0  0  0  0
 28 11  1  0  0  0  0
 28 30  1  0  0  0  0
 29 30  1  0  0  0  0
M  END
>  <MODEL>
6

>  <REMARK>
 VINA RESULT:      -7.8      2.478      5.872
  Name = 
  2 active torsions:
  status: ('A' for Active; 'I' for Inactive)
    1  A    between atoms: N_11  and  C_28
    2  A    between atoms: C_28  and  C_30
                            x       y       z     vdW  Elec       q    Type
                         _______ _______ _______ _____ _____    ______ ____

>  <TORSDO>
F 2

$$$$
=
 OpenBabel11122410243D

 30 35  0  0  1  0  0  0  0  0999 V2000
  185.9820  178.2160  142.0520 C   0  0  0  0  0  0  0  0  0  0  0  0
  185.3000  178.4110  144.4490 C   0  0  0  0  0  0  0  0  0  0  0  0
  182.0410  179.1170  140.6990 C   0  0  0  0  0  2  0  0  0  0  0  0
  185.6220  178.2470  140.6760 C   0  0  0  0  0  0  0  0  0  0  0  0
  187.4090  177.8950  142.4100 C   0  0  0  0  0  2  0  0  0  0  0  0
  188.9250  178.5860  139.1950 O   0  0  0  0  0  0  0  0  0  0  0  0
  185.2890  176.9770  137.9080 C   0  0  1  0  0  3  0  0  0  0  0  0
  188.0180  178.4310  140.0590 C   0  0  0  0  0  0  0  0  0  0  0  0
  183.8740  177.5010  138.0520 C   0  0  2  0  0  3  0  0  0  0  0  0
  182.3650  179.1440  139.1980 C   0  0  1  0  0  3  0  0  0  0  0  0
  188.3410  178.4720  141.4530 N   0  0  0  0  0  0  0  0  0  0  0  0
  186.6530  178.2030  139.6610 N   0  0  0  0  0  0  0  0  0  0  0  0
  184.3040  178.6730  145.3930 C   0  0  0  0  0  3  0  0  0  0  0  0
  183.5550  177.9660  136.6690 C   0  0  0  0  0  2  0  0  0  0  0  0
  185.4760  176.5460  136.5790 O   0  0  0  0  0  0  0  0  0  0  0  0
  186.5450  178.1380  144.9120 F   0  0  0  0  0  0  0  0  0  0  0  0
  183.3450  178.7620  141.3160 C   0  0  0  0  0  0  0  0  0  0  0  0
  183.0030  178.9690  144.9910 C   0  0  0  0  0  3  0  0  0  0  0  0
  185.0010  178.4420  143.0620 C   0  0  0  0  0  0  0  0  0  0  0  0
  184.2690  178.4780  140.3500 C   0  0  0  0  0  0  0  0  0  0  0  0
  182.3660  180.5810  138.7080 C   0  0  0  0  0  1  0  0  0  0  0  0
  183.7040  178.5690  139.0440 N   0  0  0  0  0  0  0  0  0  0  0  0
  184.4000  177.0500  135.8170 C   0  0  0  0  0  2  0  0  0  0  0  0
  186.9040  178.6630  137.3790 O   0  0  0  0  0  0  0  0  0  0  0  0
  182.6840  179.0020  143.6350 C   0  0  0  0  0  3  0  0  0  0  0  0
  183.6660  178.7390  142.6720 C   0  0  0  0  0  0  0  0  0  0  0  0
  186.3320  177.9890  138.2780 C   0  0  0  0  0  0  0  0  0  0  0  0
  189.6830  178.8030  141.9090 C   0  0  0  0  0  2  0  0  0  0  0  0
  191.0090  179.0420  143.9840 C   0  0  0  0  0  1  0  0  0  0  0  0
  189.9050  178.2590  143.3070 C   0  0  0  0  0  2  0  0  0  0  0  0
  1  5  1  0  0  0  0
  1 19  1  0  0  0  0
  2 16  1  0  0  0  0
  2 13  1  0  0  0  0
  3 17  1  0  0  0  0
  4  1  2  0  0  0  0
  6  8  2  0  0  0  0
  7 15  1  6  0  0  0
  7  9  1  0  0  0  0
  7 27  1  0  0  0  0
  8 11  1  0  0  0  0
  9 14  1  6  0  0  0
  9 22  1  0  0  0  0
 10 21  1  1  0  0  0
 10  3  1  0  0  0  0
 11 28  1  0  0  0  0
 11  5  1  0  0  0  0
 12  8  1  0  0  0  0
 12  4  1  0  0  0  0
 17 26  1  0  0  0  0
 18 13  2  0  0  0  0
 19  2  2  0  0  0  0
 20  4  1  0  0  0  0
 20 17  2  0  0  0  0
 22 10  1  0  0  0  0
 22 20  1  0  0  0  0
 23 15  1  0  0  0  0
 23 14  1  0  0  0  0
 24 27  2  0  0  0  0
 25 18  1  0  0  0  0
 26 19  1  0  0  0  0
 26 25  2  0  0  0  0
 27 12  1  0  0  0  0
 28 30  1  0  0  0  0
 30 29  1  0  0  0  0
M  END
>  <MODEL>
7

>  <REMARK>
 VINA RESULT:      -7.7      3.416      6.213
  Name = 
  2 active torsions:
  status: ('A' for Active; 'I' for Inactive)
    1  A    between atoms: N_11  and  C_28
    2  A    between atoms: C_28  and  C_30
                            x       y       z     vdW  Elec       q    Type
                         _______ _______ _______ _____ _____    ______ ____

>  <TORSDO>
F 2

$$$$
=
 OpenBabel11122410243D

 30 35  0  0  1  0  0  0  0  0999 V2000
  185.4150  178.1430  142.4660 C   0  0  0  0  0  0  0  0  0  0  0  0
  186.3080  178.2630  144.7970 C   0  0  0  0  0  0  0  0  0  0  0  0
  181.4360  178.9160  143.7880 C   0  0  0  0  0  2  0  0  0  0  0  0
  184.2990  178.1890  141.5850 C   0  0  0  0  0  0  0  0  0  0  0  0
  186.7760  177.8720  141.8820 C   0  0  0  0  0  2  0  0  0  0  0  0
  186.0390  178.6880  138.4320 O   0  0  0  0  0  0  0  0  0  0  0  0
  182.3920  176.9630  139.5240 C   0  0  1  0  0  3  0  0  0  0  0  0
  185.8370  178.4790  139.6600 C   0  0  0  0  0  0  0  0  0  0  0  0
  181.3390  177.4280  140.5090 C   0  0  2  0  0  3  0  0  0  0  0  0
  180.7910  178.9860  142.3960 C   0  0  1  0  0  3  0  0  0  0  0  0
  186.9330  178.5050  140.5810 N   0  0  0  0  0  0  0  0  0  0  0  0
  184.5120  178.2060  140.1530 N   0  0  0  0  0  0  0  0  0  0  0  0
  186.0760  178.4660  146.1600 C   0  0  0  0  0  3  0  0  0  0  0  0
  180.2430  177.9090  139.6150 C   0  0  0  0  0  2  0  0  0  0  0  0
  181.7500  176.5670  138.3330 O   0  0  0  0  0  0  0  0  0  0  0  0
  187.5860  178.0290  144.4080 F   0  0  0  0  0  0  0  0  0  0  0  0
  182.8560  178.6000  143.4840 C   0  0  0  0  0  0  0  0  0  0  0  0
  184.7890  178.7180  146.6320 C   0  0  0  0  0  3  0  0  0  0  0  0
  185.2340  178.3090  143.8710 C   0  0  0  0  0  0  0  0  0  0  0  0
  183.0180  178.3720  142.1460 C   0  0  0  0  0  0  0  0  0  0  0  0
  180.4700  180.4320  142.0620 C   0  0  0  0  0  1  0  0  0  0  0  0
  181.7790  178.4680  141.4460 N   0  0  0  0  0  0  0  0  0  0  0  0
  180.4230  177.0440  138.3910 C   0  0  0  0  0  2  0  0  0  0  0  0
  183.3310  178.7230  138.1990 O   0  0  0  0  0  0  0  0  0  0  0  0
  183.7190  178.7660  145.7420 C   0  0  0  0  0  3  0  0  0  0  0  0
  183.9280  178.5610  144.3730 C   0  0  0  0  0  0  0  0  0  0  0  0
  183.4280  178.0080  139.2330 C   0  0  0  0  0  0  0  0  0  0  0  0
  188.2730  178.8800  140.1520 C   0  0  0  0  0  2  0  0  0  0  0  0
  189.5260  177.0200  139.1090 C   0  0  0  0  0  1  0  0  0  0  0  0
  189.2380  177.7380  140.4090 C   0  0  0  0  0  2  0  0  0  0  0  0
  1 19  1  0  0  0  0
  2 13  1  0  0  0  0
  4 20  1  0  0  0  0
  4  1  2  0  0  0  0
  5  1  1  0  0  0  0
  6  8  2  0  0  0  0
  7 15  1  6  0  0  0
  7  9  1  0  0  0  0
  8 12  1  0  0  0  0
  8 11  1  0  0  0  0
  9 14  1  6  0  0  0
  9 22  1  0  0  0  0
 10 21  1  6  0  0  0
 10  3  1  0  0  0  0
 11  5  1  0  0  0  0
 12  4  1  0  0  0  0
 13 18  2  0  0  0  0
 15 23  1  0  0  0  0
 16  2  1  0  0  0  0
 17  3  1  0  0  0  0
 17 26  1  0  0  0  0
 19 26  1  0  0  0  0
 19  2  2  0  0  0  0
 20 17  2  0  0  0  0
 22 20  1  0  0  0  0
 22 10  1  0  0  0  0
 23 14  1  0  0  0  0
 24 27  2  0  0  0  0
 25 18  1  0  0  0  0
 26 25  2  0  0  0  0
 27  7  1  0  0  0  0
 27 12  1  0  0  0  0
 28 30  1  0  0  0  0
 28 11  1  0  0  0  0
 29 30  1  0  0  0  0
M  END
>  <MODEL>
8

>  <REMARK>
 VINA RESULT:      -7.6      3.142      5.173
  Name = 
  2 active torsions:
  status: ('A' for Active; 'I' for Inactive)
    1  A    between atoms: N_11  and  C_28
    2  A    between atoms: C_28  and  C_30
                            x       y       z     vdW  Elec       q    Type
                         _______ _______ _______ _____ _____    ______ ____

>  <TORSDO>
F 2

$$$$
=
 OpenBabel11122410243D

 30 35  0  0  1  0  0  0  0  0999 V2000
  188.2760  177.5470  139.8970 C   0  0  0  0  0  0  0  0  0  0  0  0
  189.6710  177.0070  137.8940 C   0  0  0  0  0  0  0  0  0  0  0  0
  191.6800  177.5230  142.4640 C   0  0  0  0  0  2  0  0  0  0  0  0
  188.1920  177.7700  141.2990 C   0  0  0  0  0  0  0  0  0  0  0  0
  187.0060  177.5890  139.0890 C   0  0  0  0  0  2  0  0  0  0  0  0
  184.9350  179.3780  141.4620 O   0  0  0  0  0  0  0  0  0  0  0  0
  187.2100  177.0920  144.1210 C   0  0  1  0  0  3  0  0  0  0  0  0
  185.9460  178.7790  140.9990 C   0  0  0  0  0  0  0  0  0  0  0  0
  188.6910  177.1330  144.4370 C   0  0  2  0  0  3  0  0  0  0  0  0
  190.9500  177.9700  143.7390 C   0  0  1  0  0  3  0  0  0  0  0  0
  186.0930  178.6090  139.5850 N   0  0  0  0  0  0  0  0  0  0  0  0
  186.9570  178.2530  141.8790 N   0  0  0  0  0  0  0  0  0  0  0  0
  190.9300  176.7530  137.3450 C   0  0  0  0  0  3  0  0  0  0  0  0
  188.7210  177.7740  145.7860 C   0  0  0  0  0  2  0  0  0  0  0  0
  186.4930  177.0360  145.3330 O   0  0  0  0  0  0  0  0  0  0  0  0
  188.6100  177.0170  137.0490 F   0  0  0  0  0  0  0  0  0  0  0  0
  190.5850  177.4410  141.4630 C   0  0  0  0  0  0  0  0  0  0  0  0
  192.0670  176.7330  138.1520 C   0  0  0  0  0  3  0  0  0  0  0  0
  189.5300  177.2490  139.2850 C   0  0  0  0  0  0  0  0  0  0  0  0
  189.3750  177.6580  142.0600 C   0  0  0  0  0  0  0  0  0  0  0  0
  191.3050  179.4140  144.0430 C   0  0  0  0  0  1  0  0  0  0  0  0
  189.5140  177.8610  143.4650 N   0  0  0  0  0  0  0  0  0  0  0  0
  187.3940  177.3540  146.3710 C   0  0  0  0  0  2  0  0  0  0  0  0
  186.2090  179.2520  143.8600 O   0  0  0  0  0  0  0  0  0  0  0  0
  191.9530  176.9650  139.5200 C   0  0  0  0  0  3  0  0  0  0  0  0
  190.7000  177.2180  140.0920 C   0  0  0  0  0  0  0  0  0  0  0  0
  186.7500  178.2600  143.2990 C   0  0  0  0  0  0  0  0  0  0  0  0
  185.1560  179.2120  138.6490 C   0  0  0  0  0  2  0  0  0  0  0  0
  182.7030  178.9590  138.4560 C   0  0  0  0  0  1  0  0  0  0  0  0
  184.0310  178.2420  138.3440 C   0  0  0  0  0  2  0  0  0  0  0  0
  1  4  1  0  0  0  0
  2 19  1  0  0  0  0
  3 10  1  0  0  0  0
  4 12  1  0  0  0  0
  4 20  2  0  0  0  0
  5 11  1  0  0  0  0
  5  1  1  0  0  0  0
  7 27  1  1  0  0  0
  7  9  1  0  0  0  0
  7 15  1  0  0  0  0
  8  6  2  0  0  0  0
  8 12  1  0  0  0  0
  9 14  1  1  0  0  0
 10 21  1  6  0  0  0
 11  8  1  0  0  0  0
 12 27  1  0  0  0  0
 13  2  2  0  0  0  0
 13 18  1  0  0  0  0
 14 23  1  0  0  0  0
 15 23  1  0  0  0  0
 16  2  1  0  0  0  0
 17 20  1  0  0  0  0
 17  3  1  0  0  0  0
 18 25  2  0  0  0  0
 19  1  2  0  0  0  0
 19 26  1  0  0  0  0
 20 22  1  0  0  0  0
 22 10  1  0  0  0  0
 22  9  1  0  0  0  0
 25 26  1  0  0  0  0
 26 17  2  0  0  0  0
 27 24  2  0  0  0  0
 28 11  1  0  0  0  0
 30 29  1  0  0  0  0
 30 28  1  0  0  0  0
M  END
>  <MODEL>
9

>  <REMARK>
 VINA RESULT:      -7.6      2.650      5.450
  Name = 
  2 active torsions:
  status: ('A' for Active; 'I' for Inactive)
    1  A    between atoms: N_11  and  C_28
    2  A    between atoms: C_28  and  C_30
                            x       y       z     vdW  Elec       q    Type
                         _______ _______ _______ _____ _____    ______ ____

>  <TORSDO>
F 2

$$$$
