=
 OpenBabel11122410433D

 32 38  0  0  1  0  0  0  0  0999 V2000
  188.0110  177.9650  136.6880 C   0  0  1  0  0  3  0  0  0  0  0  0
  187.8180  178.0390  141.9760 C   0  0  0  0  0  0  0  0  0  0  0  0
  183.0940  178.9540  142.7660 C   0  0  0  0  0  3  0  0  0  0  0  0
  183.2860  178.8030  144.1390 C   0  0  0  0  0  3  0  0  0  0  0  0
  189.3850  177.5590  143.9410 C   0  0  0  0  0  0  0  0  0  0  0  0
  189.4790  177.4290  145.3930 C   0  0  0  0  0  0  0  0  0  0  0  0
  188.4810  177.4890  139.6130 C   0  0  1  0  0  3  0  0  0  0  0  0
  186.3080  178.4920  140.0760 N   0  0  0  0  0  2  0  0  0  0  0  0
  188.8190  177.3970  147.5650 C   0  0  0  0  0  0  0  0  0  0  0  0
  186.8900  178.1980  137.7030 C   0  0  2  0  0  3  0  0  0  0  0  0
  184.1720  178.8060  141.8910 C   0  0  0  0  0  3  0  0  0  0  0  0
  186.5290  178.3610  141.4910 C   0  0  0  0  0  0  0  0  0  0  0  0
  185.4530  178.5050  142.3780 C   0  0  0  0  0  0  0  0  0  0  0  0
  186.9310  178.0450  144.2700 C   0  0  0  0  0  0  0  0  0  0  0  0
  190.0890  177.1340  147.5440 N   0  0  0  0  0  0  0  0  0  0  0  0
  189.4360  178.0430  137.2860 C   0  0  0  0  0  2  0  0  0  0  0  0
  187.4110  178.4680  139.1270 C   0  0  2  0  0  3  0  0  0  0  0  0
  190.5160  177.1520  146.1710 C   0  0  0  0  0  3  0  0  0  0  0  0
  189.6560  177.3540  138.6430 C   0  0  0  0  0  2  0  0  0  0  0  0
  187.1840  176.7910  137.1890 C   0  0  1  0  0  3  0  0  0  0  0  0
  184.5560  178.5030  144.6360 C   0  0  0  0  0  3  0  0  0  0  0  0
  185.6520  178.3490  143.7690 C   0  0  0  0  0  0  0  0  0  0  0  0
  187.1230  177.8900  145.7450 C   0  0  0  0  0  3  0  0  0  0  0  0
  188.9600  177.9250  140.9900 C   0  0  0  0  0  2  0  0  0  0  0  0
  190.4090  177.3930  143.2260 O   0  0  0  0  0  0  0  0  0  0  0  0
  188.0150  177.4670  148.8150 C   0  0  0  0  0  1  0  0  0  0  0  0
  188.0340  177.8870  143.3690 C   0  0  0  0  0  0  0  0  0  0  0  0
  188.3290  177.6040  146.2200 C   0  0  0  0  0  0  0  0  0  0  0  0
  186.1540  176.4200  136.1400 C   0  0  0  0  0  2  0  0  0  0  0  0
  184.8150  176.2800  136.7740 C   0  0  0  0  0  0  0  0  0  0  0  0
  183.8120  177.1970  136.4890 O   0  0  0  0  0  0  0  0  0  0  0  0
  184.6020  175.3500  137.5940 O   0  0  0  0  0  1  0  0  0  0  0  0
  1 20  1  0  0  0  0
  1 16  1  1  0  0  0
  1 10  1  0  0  0  0
  2 27  1  0  0  0  0
  3  4  1  0  0  0  0
  4 21  2  0  0  0  0
  5  6  1  0  0  0  0
  6 18  2  0  0  0  0
  6 28  1  0  0  0  0
  7 19  1  6  0  0  0
  7 24  1  0  0  0  0
  8 12  1  0  0  0  0
  9 26  1  0  0  0  0
 10 17  1  0  0  0  0
 11 13  1  0  0  0  0
 11  3  2  0  0  0  0
 12  2  2  0  0  0  0
 12 13  1  0  0  0  0
 13 22  2  0  0  0  0
 14 23  1  0  0  0  0
 15  9  2  0  0  0  0
 16 19  1  0  0  0  0
 17  7  1  0  0  0  0
 17  8  1  0  0  0  0
 18 15  1  0  0  0  0
 20 10  1  0  0  0  0
 22 14  1  0  0  0  0
 22 21  1  0  0  0  0
 23 28  2  0  0  0  0
 24  2  1  0  0  0  0
 25  5  2  0  0  0  0
 27  5  1  0  0  0  0
 27 14  2  0  0  0  0
 28  9  1  0  0  0  0
 29 30  1  0  0  0  0
 29 20  1  0  0  0  0
 30 32  1  0  0  0  0
 31 30  2  0  0  0  0
M  END
>  <MODEL>
1

>  <REMARK>
 VINA RESULT:     -11.3      0.000      0.000
  Name = 
  2 active torsions:
  status: ('A' for Active; 'I' for Inactive)
    1  A    between atoms: C_20  and  C_29
    2  A    between atoms: C_29  and  C_30
                            x       y       z     vdW  Elec       q    Type
                         _______ _______ _______ _____ _____    ______ ____

>  <TORSDO>
F 2

$$$$
=
 OpenBabel11122410433D

 32 38  0  0  1  0  0  0  0  0999 V2000
  190.1920  176.7630  136.6050 C   0  0  1  0  0  3  0  0  0  0  0  0
  189.2520  177.4690  141.7650 C   0  0  0  0  0  0  0  0  0  0  0  0
  184.6000  178.9290  141.7180 C   0  0  0  0  0  3  0  0  0  0  0  0
  184.5750  178.9200  143.1130 C   0  0  0  0  0  3  0  0  0  0  0  0
  190.4570  177.0690  143.9880 C   0  0  0  0  0  0  0  0  0  0  0  0
  190.3260  177.1000  145.4420 C   0  0  0  0  0  0  0  0  0  0  0  0
  190.1800  176.5850  139.6010 C   0  0  1  0  0  3  0  0  0  0  0  0
  188.0920  177.8450  139.6190 N   0  0  0  0  0  2  0  0  0  0  0  0
  189.3630  177.3860  147.4780 C   0  0  0  0  0  0  0  0  0  0  0  0
  188.9710  177.2210  137.4060 C   0  0  2  0  0  3  0  0  0  0  0  0
  185.7680  178.5750  141.0400 C   0  0  0  0  0  3  0  0  0  0  0  0
  188.0920  177.8570  141.0570 C   0  0  0  0  0  0  0  0  0  0  0  0
  186.9240  178.2080  141.7470 C   0  0  0  0  0  0  0  0  0  0  0  0
  188.0530  177.8290  143.8820 C   0  0  0  0  0  0  0  0  0  0  0  0
  190.5840  176.9990  147.6800 N   0  0  0  0  0  0  0  0  0  0  0  0
  191.5150  176.7690  137.4060 C   0  0  0  0  0  2  0  0  0  0  0  0
  189.3100  177.6020  138.8600 C   0  0  2  0  0  3  0  0  0  0  0  0
  191.2030  176.8150  146.3960 C   0  0  0  0  0  2  0  0  0  0  0  0
  191.4580  176.2240  138.8430 C   0  0  0  0  0  2  0  0  0  0  0  0
  189.1720  175.7410  137.0870 C   0  0  1  0  0  3  0  0  0  0  0  0
  185.7180  178.5570  143.8280 C   0  0  0  0  0  3  0  0  0  0  0  0
  186.9020  178.1970  143.1610 C   0  0  0  0  0  0  0  0  0  0  0  0
  188.0120  177.8280  145.3770 C   0  0  0  0  0  2  0  0  0  0  0  0
  190.5030  177.1290  140.9850 C   0  0  0  0  0  2  0  0  0  0  0  0
  191.5470  176.7220  143.4600 O   0  0  0  0  0  0  0  0  0  0  0  0
  188.4010  177.6800  148.5750 C   0  0  0  0  0  1  0  0  0  0  0  0
  189.2480  177.4590  143.1830 C   0  0  0  0  0  0  0  0  0  0  0  0
  189.0970  177.4820  146.0590 C   0  0  0  0  0  0  0  0  0  0  0  0
  188.2680  175.3540  135.9330 C   0  0  0  0  0  2  0  0  0  0  0  0
  186.8550  175.2960  136.3980 C   0  0  0  0  0  0  0  0  0  0  0  0
  186.4580  174.3150  137.2980 O   0  0  0  0  0  1  0  0  0  0  0  0
  186.0120  176.1160  135.9500 O   0  0  0  0  0  0  0  0  0  0  0  0
  1 20  1  0  0  0  0
  1 16  1  1  0  0  0
  1 10  1  0  0  0  0
  2 27  1  0  0  0  0
  3  4  1  0  0  0  0
  4 21  2  0  0  0  0
  5  6  1  0  0  0  0
  6 28  2  0  0  0  0
  6 18  1  0  0  0  0
  7 19  1  6  0  0  0
  7 24  1  0  0  0  0
  8 12  1  0  0  0  0
  9 15  2  0  0  0  0
  9 26  1  0  0  0  0
 10 17  1  0  0  0  0
 11  3  2  0  0  0  0
 11 13  1  0  0  0  0
 12 13  1  0  0  0  0
 12  2  2  0  0  0  0
 13 22  2  0  0  0  0
 14 23  1  0  0  0  0
 16 19  1  0  0  0  0
 17  7  1  0  0  0  0
 17  8  1  0  0  0  0
 18 15  1  0  0  0  0
 20 10  1  0  0  0  0
 22 21  1  0  0  0  0
 22 14  1  0  0  0  0
 23 28  1  0  0  0  0
 24  2  1  0  0  0  0
 25  5  2  0  0  0  0
 27 14  2  0  0  0  0
 27  5  1  0  0  0  0
 28  9  1  0  0  0  0
 29 30  1  0  0  0  0
 29 20  1  0  0  0  0
 30 31  1  0  0  0  0
 32 30  2  0  0  0  0
M  END
>  <MODEL>
2

>  <REMARK>
 VINA RESULT:     -10.8      1.337      1.819
  Name = 
  2 active torsions:
  status: ('A' for Active; 'I' for Inactive)
    1  A    between atoms: C_20  and  C_29
    2  A    between atoms: C_29  and  C_30
                            x       y       z     vdW  Elec       q    Type
                         _______ _______ _______ _____ _____    ______ ____

>  <TORSDO>
F 2

$$$$
=
 OpenBabel11122410433D

 32 38  0  0  1  0  0  0  0  0999 V2000
  191.1650  177.1640  147.4670 C   0  0  1  0  0  3  0  0  0  0  0  0
  187.1030  178.1610  144.2230 C   0  0  0  0  0  0  0  0  0  0  0  0
  189.2800  178.0180  139.8630 C   0  0  0  0  0  3  0  0  0  0  0  0
  188.0460  178.1750  139.2330 C   0  0  0  0  0  3  0  0  0  0  0  0
  184.5660  178.4520  144.3900 C   0  0  0  0  0  0  0  0  0  0  0  0
  183.3290  178.6190  143.6320 C   0  0  0  0  0  0  0  0  0  0  0  0
  188.4580  177.3650  146.1870 C   0  0  1  0  0  3  0  0  0  0  0  0
  189.5500  177.8720  144.0680 N   0  0  0  0  0  2  0  0  0  0  0  0
  181.9540  178.8270  141.8380 C   0  0  0  0  0  0  0  0  0  0  0  0
  191.0300  177.2980  145.9480 C   0  0  2  0  0  3  0  0  0  0  0  0
  189.3520  177.9810  141.2560 C   0  0  0  0  0  3  0  0  0  0  0  0
  188.2730  178.0620  143.4350 C   0  0  0  0  0  0  0  0  0  0  0  0
  188.1910  178.0990  142.0360 C   0  0  0  0  0  0  0  0  0  0  0  0
  185.7650  178.3730  142.1710 C   0  0  0  0  0  0  0  0  0  0  0  0
  181.2120  178.8840  142.9000 N   0  0  0  0  0  0  0  0  0  0  0  0
  189.9500  177.6980  148.2610 C   0  0  0  0  0  2  0  0  0  0  0  0
  189.7020  177.9450  145.5130 C   0  0  2  0  0  3  0  0  0  0  0  0
  182.0750  178.7530  144.0430 C   0  0  0  0  0  2  0  0  0  0  0  0
  188.5560  177.3460  147.7130 C   0  0  0  0  0  2  0  0  0  0  0  0
  190.8700  175.9360  146.6190 C   0  0  1  0  0  3  0  0  0  0  0  0
  186.8830  178.2920  139.9970 C   0  0  0  0  0  3  0  0  0  0  0  0
  186.9370  178.2550  141.4010 C   0  0  0  0  0  0  0  0  0  0  0  0
  184.4490  178.5440  141.4820 C   0  0  0  0  0  2  0  0  0  0  0  0
  187.2380  178.1520  145.7310 C   0  0  0  0  0  2  0  0  0  0  0  0
  184.5350  178.4140  145.6490 O   0  0  0  0  0  0  0  0  0  0  0  0
  181.4160  178.9270  140.4540 C   0  0  0  0  0  1  0  0  0  0  0  0
  185.8400  178.3270  143.6020 C   0  0  0  0  0  0  0  0  0  0  0  0
  183.3420  178.6550  142.2060 C   0  0  0  0  0  0  0  0  0  0  0  0
  192.1450  175.1370  146.4340 C   0  0  0  0  0  2  0  0  0  0  0  0
  192.2110  174.6060  145.0450 C   0  0  0  0  0  0  0  0  0  0  0  0
  191.8690  175.4210  143.9730 O   0  0  0  0  0  0  0  0  0  0  0  0
  192.5450  173.4100  144.8440 O   0  0  0  0  0  1  0  0  0  0  0  0
  1 16  1  1  0  0  0
  2 24  1  0  0  0  0
  3 11  1  0  0  0  0
  4  3  2  0  0  0  0
  4 21  1  0  0  0  0
  5 25  2  0  0  0  0
  6 18  1  0  0  0  0
  6  5  1  0  0  0  0
  7 24  1  1  0  0  0
  7 19  1  0  0  0  0
  8 17  1  0  0  0  0
  9 28  1  0  0  0  0
  9 15  2  0  0  0  0
 10 20  1  0  0  0  0
 10  1  1  0  0  0  0
 11 13  2  0  0  0  0
 12  8  1  0  0  0  0
 12  2  2  0  0  0  0
 13 12  1  0  0  0  0
 14 27  2  0  0  0  0
 15 18  1  0  0  0  0
 17 10  1  0  0  0  0
 17  7  1  0  0  0  0
 19 16  1  0  0  0  0
 20  1  1  0  0  0  0
 21 22  2  0  0  0  0
 22 13  1  0  0  0  0
 22 14  1  0  0  0  0
 23 14  1  0  0  0  0
 23 28  1  0  0  0  0
 26  9  1  0  0  0  0
 27  2  1  0  0  0  0
 27  5  1  0  0  0  0
 28  6  2  0  0  0  0
 29 20  1  0  0  0  0
 30 29  1  0  0  0  0
 31 30  2  0  0  0  0
 32 30  1  0  0  0  0
M  END
>  <MODEL>
3

>  <REMARK>
 VINA RESULT:      -9.9      2.925      7.742
  Name = 
  2 active torsions:
  status: ('A' for Active; 'I' for Inactive)
    1  A    between atoms: C_20  and  C_29
    2  A    between atoms: C_29  and  C_30
                            x       y       z     vdW  Elec       q    Type
                         _______ _______ _______ _____ _____    ______ ____

>  <TORSDO>
F 2

$$$$
=
 OpenBabel11122410433D

 32 38  0  0  1  0  0  0  0  0999 V2000
  178.9420  179.5790  141.6810 C   0  0  1  0  0  3  0  0  0  0  0  0
  183.8780  178.5240  143.2710 C   0  0  0  0  0  0  0  0  0  0  0  0
  186.2680  178.4100  139.0220 C   0  0  0  0  0  3  0  0  0  0  0  0
  187.4780  178.2530  139.6980 C   0  0  0  0  0  3  0  0  0  0  0  0
  185.1570  178.3010  145.4770 C   0  0  0  0  0  0  0  0  0  0  0  0
  186.4740  178.1270  146.0840 C   0  0  0  0  0  0  0  0  0  0  0  0
  181.5140  179.3810  143.2130 C   0  0  1  0  0  3  0  0  0  0  0  0
  182.6420  178.7490  141.1460 N   0  0  0  0  0  2  0  0  0  0  0  0
  188.7240  177.8660  146.2270 C   0  0  0  0  0  0  0  0  0  0  0  0
  180.2700  179.3770  140.9480 C   0  0  2  0  0  3  0  0  0  0  0  0
  185.0760  178.5120  139.7420 C   0  0  0  0  0  3  0  0  0  0  0  0
  183.8770  178.5590  141.8580 C   0  0  0  0  0  0  0  0  0  0  0  0
  185.0790  178.4580  141.1440 C   0  0  0  0  0  0  0  0  0  0  0  0
  186.3210  178.2470  143.2390 C   0  0  0  0  0  0  0  0  0  0  0  0
  188.2600  177.8760  147.4380 N   0  0  0  0  0  0  0  0  0  0  0  0
  178.9530  179.1120  143.1550 C   0  0  0  0  0  2  0  0  0  0  0  0
  181.3580  178.7410  141.8330 C   0  0  2  0  0  3  0  0  0  0  0  0
  186.8340  178.0410  147.3580 C   0  0  0  0  0  2  0  0  0  0  0  0
  180.1970  179.4700  143.9860 C   0  0  0  0  0  2  0  0  0  0  0  0
  179.8410  180.7730  141.3940 C   0  0  1  0  0  3  0  0  0  0  0  0
  187.4950  178.1980  141.0930 C   0  0  0  0  0  3  0  0  0  0  0  0
  186.3040  178.3000  141.8330 C   0  0  0  0  0  0  0  0  0  0  0  0
  187.6260  178.0740  143.9500 C   0  0  0  0  0  2  0  0  0  0  0  0
  182.5560  178.6020  144.0030 C   0  0  0  0  0  2  0  0  0  0  0  0
  184.1330  178.3990  146.2060 O   0  0  0  0  0  0  0  0  0  0  0  0
  190.1680  177.7130  145.9020 C   0  0  0  0  0  1  0  0  0  0  0  0
  185.0970  178.3590  143.9760 C   0  0  0  0  0  0  0  0  0  0  0  0
  187.6450  178.0220  145.2760 C   0  0  0  0  0  0  0  0  0  0  0  0
  179.2990  181.5330  140.1990 C   0  0  0  0  0  2  0  0  0  0  0  0
  180.1530  181.2740  139.0080 C   0  0  0  0  0  0  0  0  0  0  0  0
  179.6740  180.4860  137.9690 O   0  0  0  0  0  0  0  0  0  0  0  0
  181.3190  181.7420  138.9560 O   0  0  0  0  0  1  0  0  0  0  0  0
  1 16  1  1  0  0  0
  2 27  1  0  0  0  0
  2 24  1  0  0  0  0
  3  4  2  0  0  0  0
  3 11  1  0  0  0  0
  4 21  1  0  0  0  0
  5  6  1  0  0  0  0
  5 25  2  0  0  0  0
  6 18  1  0  0  0  0
  7 19  1  1  0  0  0
  7 24  1  0  0  0  0
  8 17  1  0  0  0  0
  8 12  1  0  0  0  0
  9 15  2  0  0  0  0
 10 20  1  0  0  0  0
 10  1  1  0  0  0  0
 10 17  1  0  0  0  0
 11 13  2  0  0  0  0
 12  2  2  0  0  0  0
 13 22  1  0  0  0  0
 13 12  1  0  0  0  0
 14 23  1  0  0  0  0
 14 27  2  0  0  0  0
 16 19  1  0  0  0  0
 17  7  1  0  0  0  0
 18 15  1  0  0  0  0
 20  1  1  0  0  0  0
 21 22  2  0  0  0  0
 22 14  1  0  0  0  0
 23 28  1  0  0  0  0
 26  9  1  0  0  0  0
 27  5  1  0  0  0  0
 28  6  2  0  0  0  0
 28  9  1  0  0  0  0
 29 20  1  0  0  0  0
 30 29  1  0  0  0  0
 31 30  2  0  0  0  0
 32 30  1  0  0  0  0
M  END
>  <MODEL>
4

>  <REMARK>
 VINA RESULT:      -9.3      2.987      6.047
  Name = 
  2 active torsions:
  status: ('A' for Active; 'I' for Inactive)
    1  A    between atoms: C_20  and  C_29
    2  A    between atoms: C_29  and  C_30
                            x       y       z     vdW  Elec       q    Type
                         _______ _______ _______ _____ _____    ______ ____

>  <TORSDO>
F 2

$$$$
=
 OpenBabel11122410433D

 32 38  0  0  1  0  0  0  0  0999 V2000
  191.2840  176.6470  136.6640 C   0  0  1  0  0  3  0  0  0  0  0  0
  188.4610  177.6640  141.0230 C   0  0  0  0  0  0  0  0  0  0  0  0
  184.2090  179.1030  139.1190 C   0  0  0  0  0  3  0  0  0  0  0  0
  183.6540  179.1790  140.3960 C   0  0  0  0  0  3  0  0  0  0  0  0
  188.7180  177.4050  143.5560 C   0  0  0  0  0  0  0  0  0  0  0  0
  188.0430  177.5250  144.8460 C   0  0  0  0  0  0  0  0  0  0  0  0
  190.1260  176.6530  139.4320 C   0  0  1  0  0  3  0  0  0  0  0  0
  188.2150  177.9040  138.5790 N   0  0  0  0  0  2  0  0  0  0  0  0
  186.3830  177.9320  146.3390 C   0  0  0  0  0  0  0  0  0  0  0  0
  189.8590  177.1490  136.9100 C   0  0  2  0  0  3  0  0  0  0  0  0
  185.5400  178.7120  138.9590 C   0  0  0  0  0  3  0  0  0  0  0  0
  187.6670  178.0050  139.9040 C   0  0  0  0  0  0  0  0  0  0  0  0
  186.3310  178.3930  140.0740 C   0  0  0  0  0  0  0  0  0  0  0  0
  186.5530  178.1490  142.4970 C   0  0  0  0  0  0  0  0  0  0  0  0
  187.4260  177.5620  147.0150 N   0  0  0  0  0  0  0  0  0  0  0  0
  192.2010  176.7060  137.9070 C   0  0  0  0  0  2  0  0  0  0  0  0
  189.6250  177.6190  138.3580 C   0  0  2  0  0  3  0  0  0  0  0  0
  188.4840  177.3020  146.0770 C   0  0  0  0  0  2  0  0  0  0  0  0
  191.5890  176.2500  139.2430 C   0  0  0  0  0  2  0  0  0  0  0  0
  190.1370  175.6530  136.7780 C   0  0  1  0  0  3  0  0  0  0  0  0
  184.4300  178.8640  141.5130 C   0  0  0  0  0  3  0  0  0  0  0  0
  185.7710  178.4680  141.3700 C   0  0  0  0  0  0  0  0  0  0  0  0
  185.9450  178.2400  143.8600 C   0  0  0  0  0  2  0  0  0  0  0  0
  189.9080  177.2820  140.8010 C   0  0  0  0  0  2  0  0  0  0  0  0
  189.9200  177.0300  143.5060 O   0  0  0  0  0  0  0  0  0  0  0  0
  185.0820  178.2890  146.9670 C   0  0  0  0  0  1  0  0  0  0  0  0
  187.9170  177.7410  142.3300 C   0  0  0  0  0  0  0  0  0  0  0  0
  186.6800  177.9400  144.9240 C   0  0  0  0  0  0  0  0  0  0  0  0
  189.7330  175.1930  135.3910 C   0  0  0  0  0  2  0  0  0  0  0  0
  188.4490  174.4430  135.4620 C   0  0  0  0  0  0  0  0  0  0  0  0
  187.4000  174.7810  134.6160 O   0  0  0  0  0  0  0  0  0  0  0  0
  188.3030  173.5250  136.3100 O   0  0  0  0  0  1  0  0  0  0  0  0
  1 20  1  0  0  0  0
  1 10  1  0  0  0  0
  1 16  1  1  0  0  0
  2 27  1  0  0  0  0
  3  4  1  0  0  0  0
  4 21  2  0  0  0  0
  5  6  1  0  0  0  0
  6 28  2  0  0  0  0
  6 18  1  0  0  0  0
  7 19  1  6  0  0  0
  7 24  1  0  0  0  0
  8 12  1  0  0  0  0
  9 26  1  0  0  0  0
  9 15  2  0  0  0  0
 10 17  1  0  0  0  0
 11  3  2  0  0  0  0
 11 13  1  0  0  0  0
 12 13  1  0  0  0  0
 12  2  2  0  0  0  0
 13 22  2  0  0  0  0
 14 23  1  0  0  0  0
 16 19  1  0  0  0  0
 17  8  1  0  0  0  0
 17  7  1  0  0  0  0
 18 15  1  0  0  0  0
 20 10  1  0  0  0  0
 22 21  1  0  0  0  0
 22 14  1  0  0  0  0
 23 28  1  0  0  0  0
 24  2  1  0  0  0  0
 25  5  2  0  0  0  0
 27 14  2  0  0  0  0
 27  5  1  0  0  0  0
 28  9  1  0  0  0  0
 29 30  1  0  0  0  0
 29 20  1  0  0  0  0
 30 32  1  0  0  0  0
 31 30  2  0  0  0  0
M  END
>  <MODEL>
5

>  <REMARK>
 VINA RESULT:      -9.1      2.011      2.827
  Name = 
  2 active torsions:
  status: ('A' for Active; 'I' for Inactive)
    1  A    between atoms: C_20  and  C_29
    2  A    between atoms: C_29  and  C_30
                            x       y       z     vdW  Elec       q    Type
                         _______ _______ _______ _____ _____    ______ ____

>  <TORSDO>
F 2

$$$$
=
 OpenBabel11122410433D

 32 38  0  0  1  0  0  0  0  0999 V2000
  190.9000  177.5350  145.1240 C   0  0  1  0  0  3  0  0  0  0  0  0
  186.1500  178.3650  142.9440 C   0  0  0  0  0  0  0  0  0  0  0  0
  187.2280  178.2680  138.1900 C   0  0  0  0  0  3  0  0  0  0  0  0
  185.8740  178.3760  137.8730 C   0  0  0  0  0  3  0  0  0  0  0  0
  183.7160  178.5670  143.7110 C   0  0  0  0  0  0  0  0  0  0  0  0
  182.3290  178.6860  143.2710 C   0  0  0  0  0  0  0  0  0  0  0  0
  187.9610  177.6310  144.5270 C   0  0  1  0  0  3  0  0  0  0  0  0
  188.4970  178.1610  142.2090 N   0  0  0  0  0  2  0  0  0  0  0  0
  180.5590  178.8320  141.8560 C   0  0  0  0  0  0  0  0  0  0  0  0
  190.4030  177.6530  143.6820 C   0  0  2  0  0  3  0  0  0  0  0  0
  187.6310  178.2430  139.5260 C   0  0  0  0  0  3  0  0  0  0  0  0
  187.1000  178.3020  141.9000 C   0  0  0  0  0  0  0  0  0  0  0  0
  186.6860  178.3250  140.5610 C   0  0  0  0  0  0  0  0  0  0  0  0
  184.3540  178.5150  141.2710 C   0  0  0  0  0  0  0  0  0  0  0  0
  180.0910  178.8710  143.0650 N   0  0  0  0  0  0  0  0  0  0  0  0
  189.8910  178.0310  146.1860 C   0  0  0  0  0  2  0  0  0  0  0  0
  188.9870  178.2490  143.5770 C   0  0  2  0  0  3  0  0  0  0  0  0
  181.2050  178.7790  143.9690 C   0  0  0  0  0  2  0  0  0  0  0  0
  188.4200  177.6270  145.9860 C   0  0  0  0  0  2  0  0  0  0  0  0
  190.4560  176.2900  144.3700 C   0  0  1  0  0  3  0  0  0  0  0  0
  184.9240  178.4590  138.8920 C   0  0  0  0  0  3  0  0  0  0  0  0
  185.3120  178.4330  140.2430 C   0  0  0  0  0  0  0  0  0  0  0  0
  182.9060  178.6350  140.9150 C   0  0  0  0  0  2  0  0  0  0  0  0
  186.6390  178.3710  144.3760 C   0  0  0  0  0  2  0  0  0  0  0  0
  183.9870  178.5370  144.9420 O   0  0  0  0  0  0  0  0  0  0  0  0
  179.7040  178.9030  140.6410 C   0  0  0  0  0  1  0  0  0  0  0  0
  184.7690  178.4820  142.6420 C   0  0  0  0  0  0  0  0  0  0  0  0
  182.0010  178.7120  141.8830 C   0  0  0  0  0  0  0  0  0  0  0  0
  191.6770  175.5360  143.8850 C   0  0  0  0  0  2  0  0  0  0  0  0
  192.1870  174.6520  144.9690 C   0  0  0  0  0  0  0  0  0  0  0  0
  192.3740  175.1590  146.2480 O   0  0  0  0  0  1  0  0  0  0  0  0
  192.4790  173.4540  144.7180 O   0  0  0  0  0  0  0  0  0  0  0  0
  1 16  1  1  0  0  0
  2 24  1  0  0  0  0
  3 11  1  0  0  0  0
  4  3  2  0  0  0  0
  4 21  1  0  0  0  0
  5 25  2  0  0  0  0
  6  5  1  0  0  0  0
  6 18  1  0  0  0  0
  7 24  1  1  0  0  0
  7 19  1  0  0  0  0
  8 17  1  0  0  0  0
  9 28  1  0  0  0  0
  9 15  2  0  0  0  0
 10 20  1  0  0  0  0
 10  1  1  0  0  0  0
 11 13  2  0  0  0  0
 12  8  1  0  0  0  0
 12  2  2  0  0  0  0
 13 12  1  0  0  0  0
 14 27  2  0  0  0  0
 15 18  1  0  0  0  0
 17 10  1  0  0  0  0
 17  7  1  0  0  0  0
 19 16  1  0  0  0  0
 20  1  1  0  0  0  0
 21 22  2  0  0  0  0
 22 13  1  0  0  0  0
 22 14  1  0  0  0  0
 23 14  1  0  0  0  0
 23 28  1  0  0  0  0
 26  9  1  0  0  0  0
 27  2  1  0  0  0  0
 27  5  1  0  0  0  0
 28  6  2  0  0  0  0
 29 20  1  0  0  0  0
 29 30  1  0  0  0  0
 30 31  1  0  0  0  0
 32 30  2  0  0  0  0
M  END
>  <MODEL>
6

>  <REMARK>
 VINA RESULT:      -9.0      2.837      7.466
  Name = 
  2 active torsions:
  status: ('A' for Active; 'I' for Inactive)
    1  A    between atoms: C_20  and  C_29
    2  A    between atoms: C_29  and  C_30
                            x       y       z     vdW  Elec       q    Type
                         _______ _______ _______ _____ _____    ______ ____

>  <TORSDO>
F 2

$$$$
=
 OpenBabel11122410433D

 32 38  0  0  1  0  0  0  0  0999 V2000
  179.9020  179.8750  138.6440 C   0  0  1  0  0  3  0  0  0  0  0  0
  183.9980  178.6490  141.7630 C   0  0  0  0  0  0  0  0  0  0  0  0
  187.6120  178.2530  138.5140 C   0  0  0  0  0  3  0  0  0  0  0  0
  188.5310  178.0650  139.5460 C   0  0  0  0  0  3  0  0  0  0  0  0
  184.4880  178.4520  144.2670 C   0  0  0  0  0  0  0  0  0  0  0  0
  185.5280  178.2400  145.2700 C   0  0  0  0  0  0  0  0  0  0  0  0
  181.8310  179.6150  140.9280 C   0  0  1  0  0  3  0  0  0  0  0  0
  183.5230  178.8480  139.3480 N   0  0  0  0  0  2  0  0  0  0  0  0
  187.5950  177.8780  146.1350 C   0  0  0  0  0  0  0  0  0  0  0  0
  181.3800  179.5810  138.3830 C   0  0  2  0  0  3  0  0  0  0  0  0
  186.2610  178.4400  138.8080 C   0  0  0  0  0  3  0  0  0  0  0  0
  184.4520  178.6280  140.4240 C   0  0  0  0  0  0  0  0  0  0  0  0
  185.8110  178.4410  140.1380 C   0  0  0  0  0  0  0  0  0  0  0  0
  186.3020  178.2540  142.5260 C   0  0  0  0  0  0  0  0  0  0  0  0
  186.7690  177.9580  147.1320 N   0  0  0  0  0  0  0  0  0  0  0  0
  179.4130  179.4660  140.0540 C   0  0  0  0  0  2  0  0  0  0  0  0
  182.0890  178.9290  139.5850 C   0  0  2  0  0  3  0  0  0  0  0  0
  185.4560  178.1880  146.5930 C   0  0  0  0  0  2  0  0  0  0  0  0
  180.3440  179.7970  141.2330 C   0  0  0  0  0  2  0  0  0  0  0  0
  180.9130  181.0120  138.6360 C   0  0  1  0  0  3  0  0  0  0  0  0
  188.0970  178.0650  140.8730 C   0  0  0  0  0  3  0  0  0  0  0  0
  186.7400  178.2530  141.1880 C   0  0  0  0  0  0  0  0  0  0  0  0
  187.2980  178.0470  143.6220 C   0  0  0  0  0  2  0  0  0  0  0  0
  182.5180  178.8190  142.0280 C   0  0  0  0  0  2  0  0  0  0  0  0
  183.2920  178.6280  144.6260 O   0  0  0  0  0  0  0  0  0  0  0  0
  189.0560  177.6430  146.2960 C   0  0  0  0  0  1  0  0  0  0  0  0
  184.9150  178.4540  142.8260 C   0  0  0  0  0  0  0  0  0  0  0  0
  186.8880  178.0480  144.8850 C   0  0  0  0  0  0  0  0  0  0  0  0
  180.8270  181.7490  137.3140 C   0  0  0  0  0  2  0  0  0  0  0  0
  180.6510  183.2060  137.5590 C   0  0  0  0  0  0  0  0  0  0  0  0
  181.6420  184.1000  137.1740 O   0  0  0  0  0  0  0  0  0  0  0  0
  179.6190  183.6250  138.1440 O   0  0  0  0  0  1  0  0  0  0  0  0
  1 16  1  1  0  0  0
  2 24  1  0  0  0  0
  2 27  1  0  0  0  0
  3 11  2  0  0  0  0
  3  4  1  0  0  0  0
  4 21  2  0  0  0  0
  5 25  2  0  0  0  0
  5  6  1  0  0  0  0
  6 18  1  0  0  0  0
  7 19  1  1  0  0  0
  7 24  1  0  0  0  0
  8 17  1  0  0  0  0
  8 12  1  0  0  0  0
  9 26  1  0  0  0  0
  9 15  2  0  0  0  0
 10 20  1  0  0  0  0
 10  1  1  0  0  0  0
 10 17  1  0  0  0  0
 11 13  1  0  0  0  0
 12  2  2  0  0  0  0
 13 12  1  0  0  0  0
 13 22  2  0  0  0  0
 14 27  2  0  0  0  0
 14 23  1  0  0  0  0
 16 19  1  0  0  0  0
 17  7  1  0  0  0  0
 18 15  1  0  0  0  0
 20  1  1  0  0  0  0
 21 22  1  0  0  0  0
 22 14  1  0  0  0  0
 23 28  1  0  0  0  0
 27  5  1  0  0  0  0
 28  6  2  0  0  0  0
 28  9  1  0  0  0  0
 29 30  1  0  0  0  0
 29 20  1  0  0  0  0
 30 32  1  0  0  0  0
 31 30  2  0  0  0  0
M  END
>  <MODEL>
7

>  <REMARK>
 VINA RESULT:      -9.0      3.618      5.880
  Name = 
  2 active torsions:
  status: ('A' for Active; 'I' for Inactive)
    1  A    between atoms: C_20  and  C_29
    2  A    between atoms: C_29  and  C_30
                            x       y       z     vdW  Elec       q    Type
                         _______ _______ _______ _____ _____    ______ ____

>  <TORSDO>
F 2

$$$$
=
 OpenBabel11122410433D

 32 38  0  0  1  0  0  0  0  0999 V2000
  190.4060  176.5650  147.3800 C   0  0  1  0  0  3  0  0  0  0  0  0
  188.6940  177.4020  142.4430 C   0  0  0  0  0  0  0  0  0  0  0  0
  184.0390  178.6280  143.2200 C   0  0  0  0  0  3  0  0  0  0  0  0
  183.8750  178.8990  141.8620 C   0  0  0  0  0  3  0  0  0  0  0  0
  189.6770  177.5000  140.0820 C   0  0  0  0  0  0  0  0  0  0  0  0
  189.3970  177.8050  138.6810 C   0  0  0  0  0  0  0  0  0  0  0  0
  190.1760  177.2580  144.4690 C   0  0  1  0  0  3  0  0  0  0  0  0
  187.7520  177.3140  144.7230 N   0  0  0  0  0  2  0  0  0  0  0  0
  188.2260  178.4410  136.8430 C   0  0  0  0  0  0  0  0  0  0  0  0
  189.0580  176.9710  146.7820 C   0  0  2  0  0  3  0  0  0  0  0  0
  185.2730  178.1850  143.6990 C   0  0  0  0  0  3  0  0  0  0  0  0
  187.5930  177.5620  143.3160 C   0  0  0  0  0  0  0  0  0  0  0  0
  186.3580  178.0090  142.8260 C   0  0  0  0  0  0  0  0  0  0  0  0
  187.2780  178.1150  140.5630 C   0  0  0  0  0  0  0  0  0  0  0  0
  189.4300  178.1560  136.4540 N   0  0  0  0  0  0  0  0  0  0  0  0
  191.4160  176.0080  146.3500 C   0  0  0  0  0  2  0  0  0  0  0  0
  188.9760  176.7380  145.2610 C   0  0  2  0  0  3  0  0  0  0  0  0
  190.1800  177.7520  137.6120 C   0  0  0  0  0  3  0  0  0  0  0  0
  191.5150  176.7500  145.0060 C   0  0  0  0  0  2  0  0  0  0  0  0
  190.0690  178.0380  147.1950 C   0  0  1  0  0  3  0  0  0  0  0  0
  184.9470  178.7290  140.9830 C   0  0  0  0  0  3  0  0  0  0  0  0
  186.1970  178.2850  141.4490 C   0  0  0  0  0  0  0  0  0  0  0  0
  187.0860  178.4060  139.1080 C   0  0  0  0  0  3  0  0  0  0  0  0
  190.0000  176.8850  143.0040 C   0  0  0  0  0  2  0  0  0  0  0  0
  190.8270  177.1200  140.4280 O   0  0  0  0  0  0  0  0  0  0  0  0
  187.1520  178.9000  135.9220 C   0  0  0  0  0  1  0  0  0  0  0  0
  188.5460  177.6670  141.0580 C   0  0  0  0  0  0  0  0  0  0  0  0
  188.1030  178.2450  138.2710 C   0  0  0  0  0  0  0  0  0  0  0  0
  189.6530  178.6280  148.5280 C   0  0  0  0  0  2  0  0  0  0  0  0
  188.2050  178.3750  148.7610 C   0  0  0  0  0  0  0  0  0  0  0  0
  187.2510  179.1270  148.0880 O   0  0  0  0  0  0  0  0  0  0  0  0
  187.8460  177.5020  149.5930 O   0  0  0  0  0  1  0  0  0  0  0  0
  1 16  1  6  0  0  0
  2 24  1  0  0  0  0
  2 12  1  0  0  0  0
  3 11  2  0  0  0  0
  4  3  1  0  0  0  0
  5 25  2  0  0  0  0
  5 27  1  0  0  0  0
  6  5  1  0  0  0  0
  7 24  1  6  0  0  0
  7 19  1  0  0  0  0
  7 17  1  0  0  0  0
  8 17  1  0  0  0  0
  9 28  1  0  0  0  0
 10 20  1  0  0  0  0
 10  1  1  0  0  0  0
 12  8  1  0  0  0  0
 13 12  2  0  0  0  0
 13 11  1  0  0  0  0
 14 27  1  0  0  0  0
 14 22  2  0  0  0  0
 15  9  2  0  0  0  0
 15 18  1  0  0  0  0
 17 10  1  0  0  0  0
 18  6  2  0  0  0  0
 19 16  1  0  0  0  0
 20  1  1  0  0  0  0
 20 29  1  0  0  0  0
 21 22  1  0  0  0  0
 21  4  2  0  0  0  0
 22 13  1  0  0  0  0
 23 14  1  0  0  0  0
 26  9  1  0  0  0  0
 27  2  2  0  0  0  0
 28  6  1  0  0  0  0
 28 23  2  0  0  0  0
 29 30  1  0  0  0  0
 30 32  1  0  0  0  0
 31 30  2  0  0  0  0
M  END
>  <MODEL>
8

>  <REMARK>
 VINA RESULT:      -8.8      2.556      7.733
  Name = 
  2 active torsions:
  status: ('A' for Active; 'I' for Inactive)
    1  A    between atoms: C_20  and  C_29
    2  A    between atoms: C_29  and  C_30
                            x       y       z     vdW  Elec       q    Type
                         _______ _______ _______ _____ _____    ______ ____

>  <TORSDO>
F 2

$$$$
=
 OpenBabel11122410433D

 32 38  0  0  1  0  0  0  0  0999 V2000
  190.8840  177.4600  145.0130 C   0  0  1  0  0  3  0  0  0  0  0  0
  186.7030  178.3040  141.8800 C   0  0  0  0  0  0  0  0  0  0  0  0
  188.7920  178.4140  137.4750 C   0  0  0  0  0  3  0  0  0  0  0  0
  187.5370  178.5140  136.8740 C   0  0  0  0  0  3  0  0  0  0  0  0
  184.1570  178.4380  142.1040 C   0  0  0  0  0  0  0  0  0  0  0  0
  182.8960  178.5520  141.3760 C   0  0  0  0  0  0  0  0  0  0  0  0
  188.1430  177.5350  143.7920 C   0  0  1  0  0  3  0  0  0  0  0  0
  189.1590  178.1660  141.6680 N   0  0  0  0  0  2  0  0  0  0  0  0
  181.4740  178.7290  139.6160 C   0  0  0  0  0  0  0  0  0  0  0  0
  190.7100  177.6280  143.5020 C   0  0  2  0  0  3  0  0  0  0  0  0
  188.8950  178.3420  138.8650 C   0  0  0  0  0  3  0  0  0  0  0  0
  187.8590  178.2970  141.0660 C   0  0  0  0  0  0  0  0  0  0  0  0
  187.7460  178.3680  139.6710 C   0  0  0  0  0  0  0  0  0  0  0  0
  185.3110  178.4930  139.8610 C   0  0  0  0  0  0  0  0  0  0  0  0
  180.7530  178.7120  140.6930 N   0  0  0  0  0  0  0  0  0  0  0  0
  189.6570  177.8980  145.8450 C   0  0  0  0  0  2  0  0  0  0  0  0
  189.3370  178.2060  143.1120 C   0  0  2  0  0  3  0  0  0  0  0  0
  181.6450  178.6000  141.8150 C   0  0  0  0  0  2  0  0  0  0  0  0
  188.2750  177.4790  145.3150 C   0  0  0  0  0  2  0  0  0  0  0  0
  190.6440  176.2400  144.1350 C   0  0  1  0  0  3  0  0  0  0  0  0
  186.3860  178.5410  137.6640 C   0  0  0  0  0  3  0  0  0  0  0  0
  186.4720  178.4680  139.0650 C   0  0  0  0  0  0  0  0  0  0  0  0
  183.9730  178.6050  139.2030 C   0  0  0  0  0  2  0  0  0  0  0  0
  186.8690  178.2600  143.3830 C   0  0  0  0  0  2  0  0  0  0  0  0
  184.1550  178.3630  143.3620 O   0  0  0  0  0  0  0  0  0  0  0  0
  180.9020  178.8350  138.2460 C   0  0  0  0  0  1  0  0  0  0  0  0
  185.4190  178.4110  141.2880 C   0  0  0  0  0  0  0  0  0  0  0  0
  182.8770  178.6300  139.9510 C   0  0  0  0  0  0  0  0  0  0  0  0
  191.9600  175.5240  143.9020 C   0  0  0  0  0  2  0  0  0  0  0  0
  192.2280  174.5840  145.0240 C   0  0  0  0  0  0  0  0  0  0  0  0
  192.3570  175.0670  146.3200 O   0  0  0  0  0  1  0  0  0  0  0  0
  192.3690  173.3550  144.7940 O   0  0  0  0  0  0  0  0  0  0  0  0
  1 16  1  1  0  0  0
  2 24  1  0  0  0  0
  3 11  1  0  0  0  0
  4  3  2  0  0  0  0
  4 21  1  0  0  0  0
  5 25  2  0  0  0  0
  6 18  1  0  0  0  0
  6  5  1  0  0  0  0
  7 24  1  1  0  0  0
  7 19  1  0  0  0  0
  8 17  1  0  0  0  0
  9 28  1  0  0  0  0
  9 15  2  0  0  0  0
 10 20  1  0  0  0  0
 10  1  1  0  0  0  0
 11 13  2  0  0  0  0
 12  8  1  0  0  0  0
 12  2  2  0  0  0  0
 13 12  1  0  0  0  0
 14 27  2  0  0  0  0
 15 18  1  0  0  0  0
 17 10  1  0  0  0  0
 17  7  1  0  0  0  0
 19 16  1  0  0  0  0
 20  1  1  0  0  0  0
 21 22  2  0  0  0  0
 22 13  1  0  0  0  0
 22 14  1  0  0  0  0
 23 14  1  0  0  0  0
 23 28  1  0  0  0  0
 26  9  1  0  0  0  0
 27  2  1  0  0  0  0
 27  5  1  0  0  0  0
 28  6  2  0  0  0  0
 29 20  1  0  0  0  0
 29 30  1  0  0  0  0
 30 31  1  0  0  0  0
 32 30  2  0  0  0  0
M  END
>  <MODEL>
9

>  <REMARK>
 VINA RESULT:      -8.8      2.632      7.784
  Name = 
  2 active torsions:
  status: ('A' for Active; 'I' for Inactive)
    1  A    between atoms: C_20  and  C_29
    2  A    between atoms: C_29  and  C_30
                            x       y       z     vdW  Elec       q    Type
                         _______ _______ _______ _____ _____    ______ ____

>  <TORSDO>
F 2

$$$$
