=
 OpenBabel11122412203D

 34 42  0  0  1  0  0  0  0  0999 V2000
  189.1430  177.5830  143.4140 C   0  0  1  0  0  3  0  0  0  0  0  0
  191.3370  176.9240  142.6170 C   0  0  0  0  0  2  0  0  0  0  0  0
  182.5090  178.6400  142.5390 C   0  0  2  0  0  0  0  0  0  0  0  0
  186.7930  178.2110  144.1030 C   0  0  2  0  0  3  0  0  0  0  0  0
  185.0500  178.4820  142.2410 C   0  0  2  0  0  3  0  0  0  0  0  0
  182.9950  178.4340  140.6550 C   0  0  2  0  0  3  0  0  0  0  0  0
  181.7790  178.3950  141.3350 O   0  0  0  0  0  0  0  0  0  0  0  0
  183.1890  179.2780  144.7520 C   0  0  0  0  0  3  0  0  0  0  0  0
  189.8280  177.8180  141.1880 C   0  0  2  0  0  3  0  0  0  0  0  0
  189.8250  176.9980  138.0760 C   0  0  0  0  0  3  0  0  0  0  0  0
  186.0990  178.3410  141.2770 N   0  0  0  0  0  2  0  0  0  0  0  0
  184.5120  179.0370  144.7050 C   0  0  0  0  0  3  0  0  0  0  0  0
  188.4120  177.8080  140.6040 C   0  0  1  0  0  3  0  0  0  0  0  0
  192.0270  176.9410  141.2580 C   0  0  0  0  0  2  0  0  0  0  0  0
  185.3040  178.2080  143.7140 C   0  0  2  0  0  3  0  0  0  0  0  0
  182.2060  178.9170  143.7630 N   0  0  0  0  0  2  0  0  0  0  0  0
  190.5800  176.4090  139.2450 C   0  0  2  0  0  3  0  0  0  0  0  0
  187.6620  177.6010  142.9970 C   0  0  1  0  0  3  0  0  0  0  0  0
  183.7970  178.5190  141.8310 C   0  0  1  0  0  3  0  0  0  0  0  0
  187.4920  178.3820  141.6890 C   0  0  2  0  0  3  0  0  0  0  0  0
  188.3680  177.5120  145.7690 C   0  0  0  0  0  2  0  0  0  0  0  0
  188.8590  177.9330  138.1280 C   0  0  0  0  0  3  0  0  0  0  0  0
  186.9700  177.4440  145.3410 N   0  0  0  0  0  2  0  0  0  0  0  0
  188.3850  178.6710  139.3530 C   0  0  0  0  0  2  0  0  0  0  0  0
  190.9910  177.4730  140.2720 C   0  0  1  0  0  3  0  0  0  0  0  0
  189.2700  176.8340  144.7390 C   0  0  0  0  0  2  0  0  0  0  0  0
  189.9090  176.9400  142.3440 N   0  0  2  0  0  0  0  0  0  0  0  0
  191.6980  175.7260  138.7590 O   0  0  0  0  0  0  0  0  0  0  0  0
  192.0020  176.3520  137.5480 C   0  0  0  0  0  2  0  0  0  0  0  0
  195.1300  175.6500  137.0330 O   0  0  0  0  0  0  0  0  0  0  0  0
  193.2870  174.2420  137.4740 C   0  0  0  0  0  2  0  0  0  0  0  0
  192.8030  175.4090  136.6650 C   0  0  2  0  0  3  0  0  0  0  0  0
  194.7910  174.3370  137.3880 C   0  0  0  0  0  2  0  0  0  0  0  0
  194.0750  176.0960  136.2240 C   0  0  0  0  0  2  0  0  0  0  0  0
  1 26  1  1  0  0  0
  3  7  1  1  0  0  0
  3 16  1  0  0  0  0
  4 23  1  1  0  0  0
  5 11  1  6  0  0  0
  5 15  1  0  0  0  0
  6  7  1  1  0  0  0
  6 19  1  0  0  0  0
  6  3  1  0  0  0  0
  9 27  1  0  0  0  0
 10 22  2  0  0  0  0
 10 17  1  0  0  0  0
 11 20  1  0  0  0  0
 12  8  2  0  0  0  0
 13  9  1  0  0  0  0
 13 20  1  0  0  0  0
 14  2  1  0  0  0  0
 15  4  1  0  0  0  0
 15 12  1  0  0  0  0
 16  8  1  0  0  0  0
 17 25  1  0  0  0  0
 18  1  1  0  0  0  0
 18  4  1  0  0  0  0
 19  5  1  0  0  0  0
 19  3  1  0  0  0  0
 20 18  1  0  0  0  0
 22 24  1  0  0  0  0
 23 21  1  0  0  0  0
 24 13  1  0  0  0  0
 25  9  1  0  0  0  0
 25 14  1  0  0  0  0
 26 21  1  0  0  0  0
 27  2  1  0  0  0  0
 27  1  1  0  0  0  0
 28 17  1  0  0  0  0
 29 28  1  0  0  0  0
 30 33  1  0  0  0  0
 32 31  1  0  0  0  0
 32 29  1  0  0  0  0
 33 31  1  0  0  0  0
 34 32  1  0  0  0  0
 34 30  1  0  0  0  0
M  END
>  <MODEL>
1

>  <REMARK>
 VINA RESULT:      -9.4      0.000      0.000
  Name = 
  3 active torsions:
  status: ('A' for Active; 'I' for Inactive)
    1  A    between atoms: C_17  and  O_28
    2  A    between atoms: O_28  and  C_29
    3  A    between atoms: C_29  and  C_32
                            x       y       z     vdW  Elec       q    Type
                         _______ _______ _______ _____ _____    ______ ____

>  <TORSDO>
F 3

$$$$
=
 OpenBabel11122412203D

 34 42  0  0  1  0  0  0  0  0999 V2000
  182.5020  179.0240  143.2980 C   0  0  1  0  0  3  0  0  0  0  0  0
  183.8030  178.9060  145.3420 C   0  0  0  0  0  2  0  0  0  0  0  0
  181.5980  177.8540  136.6860 C   0  0  2  0  0  0  0  0  0  0  0  0
  181.2590  179.0460  141.0970 C   0  0  2  0  0  3  0  0  0  0  0  0
  182.5760  178.4060  138.9910 C   0  0  2  0  0  3  0  0  0  0  0  0
  183.5060  177.4310  136.7710 C   0  0  2  0  0  3  0  0  0  0  0  0
  182.5120  177.1670  135.8300 O   0  0  0  0  0  0  0  0  0  0  0  0
  179.7510  179.0930  137.5930 C   0  0  0  0  0  3  0  0  0  0  0  0
  184.8430  179.0040  143.3360 C   0  0  2  0  0  3  0  0  0  0  0  0
  187.7150  177.6170  142.9040 C   0  0  0  0  0  3  0  0  0  0  0  0
  183.7720  178.3960  139.7760 N   0  0  0  0  0  2  0  0  0  0  0  0
  180.1400  179.2550  138.8720 C   0  0  0  0  0  3  0  0  0  0  0  0
  185.0020  178.4560  141.9150 C   0  0  1  0  0  3  0  0  0  0  0  0
  185.2930  178.8560  145.6570 C   0  0  0  0  0  2  0  0  0  0  0  0
  181.2120  178.5200  139.6510 C   0  0  2  0  0  3  0  0  0  0  0  0
  180.3770  178.2660  136.5950 N   0  0  0  0  0  2  0  0  0  0  0  0
  186.7460  177.5260  144.0590 C   0  0  2  0  0  3  0  0  0  0  0  0
  182.4870  178.5150  141.8450 C   0  0  1  0  0  3  0  0  0  0  0  0
  182.6190  177.9850  137.7420 C   0  0  1  0  0  3  0  0  0  0  0  0
  183.7750  178.9330  141.1270 C   0  0  2  0  0  3  0  0  0  0  0  0
  180.0320  179.1950  143.1500 C   0  0  0  0  0  2  0  0  0  0  0  0
  187.5010  178.2120  141.7160 C   0  0  0  0  0  3  0  0  0  0  0  0
  180.0410  178.6290  141.8010 N   0  0  0  0  0  2  0  0  0  0  0  0
  186.2850  179.0030  141.3110 C   0  0  0  0  0  2  0  0  0  0  0  0
  186.0030  178.8480  144.3060 C   0  0  1  0  0  3  0  0  0  0  0  0
  181.1900  178.6270  143.9700 C   0  0  0  0  0  2  0  0  0  0  0  0
  183.6640  178.4390  143.9720 N   0  0  2  0  0  0  0  0  0  0  0  0
  187.4440  177.1260  145.2020 O   0  0  0  0  0  0  0  0  0  0  0  0
  188.7590  176.9360  144.7690 C   0  0  0  0  0  2  0  0  0  0  0  0
  190.6000  176.2110  147.3430 O   0  0  0  0  0  0  0  0  0  0  0  0
  191.1340  177.3240  145.3310 C   0  0  0  0  0  2  0  0  0  0  0  0
  189.7180  177.6650  145.6950 C   0  0  2  0  0  3  0  0  0  0  0  0
  191.6800  176.6630  146.5730 C   0  0  0  0  0  2  0  0  0  0  0  0
  189.5660  177.1280  147.0990 C   0  0  0  0  0  2  0  0  0  0  0  0
  1 26  1  1  0  0  0
  1 27  1  0  0  0  0
  2 14  1  0  0  0  0
  3  7  1  1  0  0  0
  3  6  1  0  0  0  0
  3 19  1  0  0  0  0
  4 23  1  1  0  0  0
  4 18  1  0  0  0  0
  5 15  1  0  0  0  0
  5 11  1  1  0  0  0
  6  7  1  1  0  0  0
  6 19  1  0  0  0  0
  8 12  2  0  0  0  0
  9 27  1  0  0  0  0
  9 25  1  0  0  0  0
 10 17  1  0  0  0  0
 11 20  1  0  0  0  0
 12 15  1  0  0  0  0
 13  9  1  0  0  0  0
 15  4  1  0  0  0  0
 16  3  1  0  0  0  0
 16  8  1  0  0  0  0
 17 25  1  0  0  0  0
 17 28  1  0  0  0  0
 18  1  1  0  0  0  0
 19  5  1  0  0  0  0
 20 18  1  0  0  0  0
 20 13  1  0  0  0  0
 21 26  1  0  0  0  0
 22 10  2  0  0  0  0
 23 21  1  0  0  0  0
 24 22  1  0  0  0  0
 24 13  1  0  0  0  0
 25 14  1  0  0  0  0
 27  2  1  0  0  0  0
 29 28  1  0  0  0  0
 29 32  1  0  0  0  0
 31 32  1  0  0  0  0
 31 33  1  0  0  0  0
 32 34  1  0  0  0  0
 33 30  1  0  0  0  0
 34 30  1  0  0  0  0
M  END
>  <MODEL>
2

>  <REMARK>
 VINA RESULT:      -9.3      4.665      7.057
  Name = 
  3 active torsions:
  status: ('A' for Active; 'I' for Inactive)
    1  A    between atoms: C_17  and  O_28
    2  A    between atoms: O_28  and  C_29
    3  A    between atoms: C_29  and  C_32
                            x       y       z     vdW  Elec       q    Type
                         _______ _______ _______ _____ _____    ______ ____

>  <TORSDO>
F 3

$$$$
=
 OpenBabel11122412203D

 34 42  0  0  1  0  0  0  0  0999 V2000
  187.5570  178.2900  140.3820 C   0  0  1  0  0  3  0  0  0  0  0  0
  185.7650  178.5820  138.7730 C   0  0  0  0  0  2  0  0  0  0  0  0
  189.8770  176.9030  146.5930 C   0  0  2  0  0  0  0  0  0  0  0  0
  189.3130  177.9250  142.1630 C   0  0  2  0  0  3  0  0  0  0  0  0
  188.5070  177.7310  144.5910 C   0  0  2  0  0  3  0  0  0  0  0  0
  187.9860  177.0970  147.0540 C   0  0  2  0  0  3  0  0  0  0  0  0
  189.0770  176.5370  147.7180 O   0  0  0  0  0  0  0  0  0  0  0  0
  191.6800  177.5030  145.1240 C   0  0  0  0  0  3  0  0  0  0  0  0
  185.4050  179.0030  140.9670 C   0  0  2  0  0  3  0  0  0  0  0  0
  182.4900  178.5820  142.2640 C   0  0  0  0  0  3  0  0  0  0  0  0
  187.1940  178.0940  144.1550 N   0  0  0  0  0  2  0  0  0  0  0  0
  191.0170  177.7760  143.9850 C   0  0  0  0  0  3  0  0  0  0  0  0
  185.4930  178.5320  142.4220 C   0  0  1  0  0  3  0  0  0  0  0  0
  184.3020  179.0010  138.8700 C   0  0  0  0  0  2  0  0  0  0  0  0
  189.6010  177.4120  143.5860 C   0  0  2  0  0  3  0  0  0  0  0  0
  191.1400  176.9140  146.3220 N   0  0  0  0  0  2  0  0  0  0  0  0
  183.0240  178.1920  140.9060 C   0  0  2  0  0  3  0  0  0  0  0  0
  187.8240  177.8040  141.8170 C   0  0  1  0  0  3  0  0  0  0  0  0
  188.6900  177.3450  145.8390 C   0  0  1  0  0  3  0  0  0  0  0  0
  186.9750  178.6030  142.8110 C   0  0  2  0  0  3  0  0  0  0  0  0
  189.9030  177.6830  139.8530 C   0  0  0  0  0  2  0  0  0  0  0  0
  183.1950  179.0810  143.2960 C   0  0  0  0  0  3  0  0  0  0  0  0
  190.1020  177.1480  141.2020 N   0  0  0  0  0  2  0  0  0  0  0  0
  184.6550  179.4530  143.2930 C   0  0  0  0  0  2  0  0  0  0  0  0
  184.0290  179.2150  140.3560 C   0  0  1  0  0  3  0  0  0  0  0  0
  188.4480  177.5030  139.4240 C   0  0  0  0  0  2  0  0  0  0  0  0
  186.1330  178.0970  140.0930 N   0  0  2  0  0  0  0  0  0  0  0  0
  181.9490  178.0290  140.0290 O   0  0  0  0  0  0  0  0  0  0  0  0
  180.9250  178.8120  140.5690 C   0  0  0  0  0  2  0  0  0  0  0  0
  181.3940  181.2660  138.4950 O   0  0  0  0  0  0  0  0  0  0  0  0
  180.6810  179.0470  138.1210 C   0  0  0  0  0  2  0  0  0  0  0  0
  180.1510  179.4920  139.4520 C   0  0  2  0  0  3  0  0  0  0  0  0
  181.1800  180.3210  137.4830 C   0  0  0  0  0  2  0  0  0  0  0  0
  180.4350  180.9760  139.4770 C   0  0  0  0  0  2  0  0  0  0  0  0
  1 26  1  6  0  0  0
  1 18  1  0  0  0  0
  2 14  1  0  0  0  0
  2 27  1  0  0  0  0
  3 16  1  1  0  0  0
  3  6  1  0  0  0  0
  3  7  1  0  0  0  0
  4 23  1  6  0  0  0
  4 15  1  0  0  0  0
  5 11  1  6  0  0  0
  5 19  1  0  0  0  0
  6  7  1  6  0  0  0
  8 16  1  0  0  0  0
  9 13  1  0  0  0  0
 10 22  2  0  0  0  0
 12  8  2  0  0  0  0
 13 20  1  0  0  0  0
 13 24  1  0  0  0  0
 14 25  1  0  0  0  0
 15 12  1  0  0  0  0
 15  5  1  0  0  0  0
 17 10  1  0  0  0  0
 18  4  1  0  0  0  0
 18 20  1  0  0  0  0
 19  3  1  0  0  0  0
 19  6  1  0  0  0  0
 20 11  1  0  0  0  0
 21 23  1  0  0  0  0
 24 22  1  0  0  0  0
 25 17  1  0  0  0  0
 25  9  1  0  0  0  0
 26 21  1  0  0  0  0
 27  1  1  0  0  0  0
 27  9  1  0  0  0  0
 28 29  1  0  0  0  0
 28 17  1  0  0  0  0
 30 34  1  0  0  0  0
 31 32  1  0  0  0  0
 32 34  1  0  0  0  0
 32 29  1  0  0  0  0
 33 31  1  0  0  0  0
 33 30  1  0  0  0  0
M  END
>  <MODEL>
3

>  <REMARK>
 VINA RESULT:      -9.2      3.625      8.363
  Name = 
  3 active torsions:
  status: ('A' for Active; 'I' for Inactive)
    1  A    between atoms: C_17  and  O_28
    2  A    between atoms: O_28  and  C_29
    3  A    between atoms: C_29  and  C_32
                            x       y       z     vdW  Elec       q    Type
                         _______ _______ _______ _____ _____    ______ ____

>  <TORSDO>
F 3

$$$$
=
 OpenBabel11122412203D

 34 42  0  0  1  0  0  0  0  0999 V2000
  187.7200  178.2230  140.2750 C   0  0  1  0  0  3  0  0  0  0  0  0
  185.9920  178.4780  138.5910 C   0  0  0  0  0  2  0  0  0  0  0  0
  189.7970  176.9220  146.5900 C   0  0  2  0  0  0  0  0  0  0  0  0
  189.4040  177.8960  142.1310 C   0  0  2  0  0  3  0  0  0  0  0  0
  188.5010  177.7140  144.5250 C   0  0  2  0  0  3  0  0  0  0  0  0
  187.8860  177.0970  146.9710 C   0  0  2  0  0  3  0  0  0  0  0  0
  188.9550  176.5560  147.6850 O   0  0  0  0  0  0  0  0  0  0  0  0
  191.6520  177.5310  145.1910 C   0  0  0  0  0  3  0  0  0  0  0  0
  185.5370  178.9140  140.7630 C   0  0  2  0  0  3  0  0  0  0  0  0
  182.5750  178.4690  141.9430 C   0  0  0  0  0  3  0  0  0  0  0  0
  187.2030  178.0570  144.0320 N   0  0  0  0  0  2  0  0  0  0  0  0
  191.0340  177.7860  144.0230 C   0  0  0  0  0  3  0  0  0  0  0  0
  185.5700  178.4580  142.2250 C   0  0  1  0  0  3  0  0  0  0  0  0
  184.5220  178.8790  138.6230 C   0  0  0  0  0  2  0  0  0  0  0  0
  189.6400  177.4000  143.5690 C   0  0  2  0  0  3  0  0  0  0  0  0
  191.0700  176.9460  146.3710 N   0  0  0  0  0  2  0  0  0  0  0  0
  183.1710  178.0730  140.6120 C   0  0  2  0  0  3  0  0  0  0  0  0
  187.9330  177.7530  141.7240 C   0  0  1  0  0  3  0  0  0  0  0  0
  188.6370  177.3430  145.7830 C   0  0  1  0  0  3  0  0  0  0  0  0
  187.0340  178.5510  142.6750 C   0  0  2  0  0  3  0  0  0  0  0  0
  190.0930  177.6400  139.8500 C   0  0  0  0  0  2  0  0  0  0  0  0
  183.2310  178.9860  142.9980 C   0  0  0  0  0  3  0  0  0  0  0  0
  190.2420  177.1210  141.2100 N   0  0  0  0  0  2  0  0  0  0  0  0
  184.6850  179.3770  143.0520 C   0  0  0  0  0  2  0  0  0  0  0  0
  184.1850  179.1040  140.0940 C   0  0  1  0  0  3  0  0  0  0  0  0
  188.6590  177.4390  139.3620 C   0  0  0  0  0  2  0  0  0  0  0  0
  186.3120  178.0100  139.9300 N   0  0  2  0  0  0  0  0  0  0  0  0
  182.1340  177.8880  139.6930 O   0  0  0  0  0  0  0  0  0  0  0  0
  181.8580  176.5190  139.7360 C   0  0  0  0  0  2  0  0  0  0  0  0
  179.7750  174.0360  139.9210 O   0  0  0  0  0  0  0  0  0  0  0  0
  179.6320  176.2340  140.7720 C   0  0  0  0  0  2  0  0  0  0  0  0
  180.3810  176.2810  139.4720 C   0  0  2  0  0  3  0  0  0  0  0  0
  179.0440  174.8440  140.8040 C   0  0  0  0  0  2  0  0  0  0  0  0
  180.1920  174.8970  138.8960 C   0  0  0  0  0  2  0  0  0  0  0  0
  1 26  1  6  0  0  0
  1 18  1  0  0  0  0
  2 14  1  0  0  0  0
  2 27  1  0  0  0  0
  3 16  1  1  0  0  0
  3  6  1  0  0  0  0
  3  7  1  0  0  0  0
  4 23  1  6  0  0  0
  4 15  1  0  0  0  0
  5 11  1  6  0  0  0
  5 19  1  0  0  0  0
  6  7  1  6  0  0  0
  8 16  1  0  0  0  0
  9 13  1  0  0  0  0
 10 22  2  0  0  0  0
 12  8  2  0  0  0  0
 13 20  1  0  0  0  0
 13 24  1  0  0  0  0
 14 25  1  0  0  0  0
 15 12  1  0  0  0  0
 15  5  1  0  0  0  0
 17 10  1  0  0  0  0
 18  4  1  0  0  0  0
 18 20  1  0  0  0  0
 19  3  1  0  0  0  0
 19  6  1  0  0  0  0
 20 11  1  0  0  0  0
 21 23  1  0  0  0  0
 22 24  1  0  0  0  0
 25 17  1  0  0  0  0
 25  9  1  0  0  0  0
 26 21  1  0  0  0  0
 27  1  1  0  0  0  0
 27  9  1  0  0  0  0
 28 29  1  0  0  0  0
 28 17  1  0  0  0  0
 30 33  1  0  0  0  0
 31 33  1  0  0  0  0
 32 29  1  0  0  0  0
 32 31  1  0  0  0  0
 34 32  1  0  0  0  0
 34 30  1  0  0  0  0
M  END
>  <MODEL>
4

>  <REMARK>
 VINA RESULT:      -9.0      3.608      8.322
  Name = 
  3 active torsions:
  status: ('A' for Active; 'I' for Inactive)
    1  A    between atoms: C_17  and  O_28
    2  A    between atoms: O_28  and  C_29
    3  A    between atoms: C_29  and  C_32
                            x       y       z     vdW  Elec       q    Type
                         _______ _______ _______ _____ _____    ______ ____

>  <TORSDO>
F 3

$$$$
=
 OpenBabel11122412203D

 34 42  0  0  1  0  0  0  0  0999 V2000
  189.1090  177.5960  143.4860 C   0  0  1  0  0  3  0  0  0  0  0  0
  191.3180  176.9370  142.7310 C   0  0  0  0  0  2  0  0  0  0  0  0
  182.4910  178.6450  142.4860 C   0  0  2  0  0  0  0  0  0  0  0  0
  186.7460  178.2250  144.1300 C   0  0  2  0  0  3  0  0  0  0  0  0
  185.0380  178.4880  142.2360 C   0  0  2  0  0  3  0  0  0  0  0  0
  183.0120  178.4340  140.6130 C   0  0  2  0  0  3  0  0  0  0  0  0
  181.7830  178.3960  141.2710 O   0  0  0  0  0  0  0  0  0  0  0  0
  183.1300  179.2890  144.7100 C   0  0  0  0  0  3  0  0  0  0  0  0
  189.8350  177.8260  141.2720 C   0  0  2  0  0  3  0  0  0  0  0  0
  189.8890  176.9960  138.1630 C   0  0  0  0  0  3  0  0  0  0  0  0
  186.1030  178.3460  141.2920 N   0  0  0  0  0  2  0  0  0  0  0  0
  184.4540  179.0500  144.6880 C   0  0  0  0  0  3  0  0  0  0  0  0
  188.4300  177.8130  140.6630 C   0  0  1  0  0  3  0  0  0  0  0  0
  192.0330  176.9500  141.3850 C   0  0  0  0  0  2  0  0  0  0  0  0
  185.2640  178.2190  143.7140 C   0  0  2  0  0  3  0  0  0  0  0  0
  182.1660  178.9260  143.7040 N   0  0  0  0  0  2  0  0  0  0  0  0
  190.6230  176.4120  139.3470 C   0  0  2  0  0  3  0  0  0  0  0  0
  187.6360  177.6120  143.0420 C   0  0  1  0  0  3  0  0  0  0  0  0
  183.7920  178.5230  141.8030 C   0  0  1  0  0  3  0  0  0  0  0  0
  187.4890  178.3890  141.7290 C   0  0  2  0  0  3  0  0  0  0  0  0
  188.2910  177.5310  145.8270 C   0  0  0  0  0  2  0  0  0  0  0  0
  188.9210  177.9310  138.1950 C   0  0  0  0  0  3  0  0  0  0  0  0
  186.9010  177.4610  145.3730 N   0  0  0  0  0  2  0  0  0  0  0  0
  188.4240  178.6720  139.4090 C   0  0  0  0  0  2  0  0  0  0  0  0
  191.0150  177.4790  140.3790 C   0  0  1  0  0  3  0  0  0  0  0  0
  189.2120  176.8520  144.8150 C   0  0  0  0  0  2  0  0  0  0  0  0
  189.8950  176.9500  142.4320 N   0  0  2  0  0  0  0  0  0  0  0  0
  191.7500  175.7280  138.8840 O   0  0  0  0  0  0  0  0  0  0  0  0
  192.1450  176.4220  137.7380 C   0  0  0  0  0  2  0  0  0  0  0  0
  191.7300  173.7990  135.8700 O   0  0  0  0  0  0  0  0  0  0  0  0
  192.7830  175.8630  135.4170 C   0  0  0  0  0  2  0  0  0  0  0  0
  193.0080  175.5290  136.8630 C   0  0  2  0  0  3  0  0  0  0  0  0
  192.2410  174.5830  134.8270 C   0  0  0  0  0  2  0  0  0  0  0  0
  192.5310  174.1000  136.9820 C   0  0  0  0  0  2  0  0  0  0  0  0
  1 26  1  1  0  0  0
  3  7  1  1  0  0  0
  3 16  1  0  0  0  0
  4 23  1  1  0  0  0
  5 11  1  6  0  0  0
  5 15  1  0  0  0  0
  6  7  1  1  0  0  0
  6 19  1  0  0  0  0
  6  3  1  0  0  0  0
  9 27  1  0  0  0  0
 10 22  2  0  0  0  0
 10 17  1  0  0  0  0
 11 20  1  0  0  0  0
 12  8  2  0  0  0  0
 13  9  1  0  0  0  0
 13 20  1  0  0  0  0
 14  2  1  0  0  0  0
 15  4  1  0  0  0  0
 15 12  1  0  0  0  0
 16  8  1  0  0  0  0
 17 25  1  0  0  0  0
 18  1  1  0  0  0  0
 18  4  1  0  0  0  0
 19  5  1  0  0  0  0
 19  3  1  0  0  0  0
 20 18  1  0  0  0  0
 22 24  1  0  0  0  0
 23 21  1  0  0  0  0
 24 13  1  0  0  0  0
 25  9  1  0  0  0  0
 25 14  1  0  0  0  0
 26 21  1  0  0  0  0
 27  2  1  0  0  0  0
 27  1  1  0  0  0  0
 28 17  1  0  0  0  0
 29 28  1  0  0  0  0
 30 34  1  0  0  0  0
 31 32  1  0  0  0  0
 32 34  1  0  0  0  0
 32 29  1  0  0  0  0
 33 31  1  0  0  0  0
 33 30  1  0  0  0  0
M  END
>  <MODEL>
5

>  <REMARK>
 VINA RESULT:      -9.0      0.818      1.136
  Name = 
  3 active torsions:
  status: ('A' for Active; 'I' for Inactive)
    1  A    between atoms: C_17  and  O_28
    2  A    between atoms: O_28  and  C_29
    3  A    between atoms: C_29  and  C_32
                            x       y       z     vdW  Elec       q    Type
                         _______ _______ _______ _____ _____    ______ ____

>  <TORSDO>
F 3

$$$$
=
 OpenBabel11122412203D

 34 42  0  0  1  0  0  0  0  0999 V2000
  189.7860  177.1620  142.2260 C   0  0  1  0  0  3  0  0  0  0  0  0
  191.1510  176.5050  140.3310 C   0  0  0  0  0  2  0  0  0  0  0  0
  183.8340  178.6240  145.1120 C   0  0  2  0  0  0  0  0  0  0  0  0
  188.2300  177.8100  144.1090 C   0  0  2  0  0  3  0  0  0  0  0  0
  185.8080  178.3860  143.4930 C   0  0  2  0  0  3  0  0  0  0  0  0
  183.2340  178.6270  143.2510 C   0  0  2  0  0  3  0  0  0  0  0  0
  182.5600  178.5620  144.4700 O   0  0  0  0  0  0  0  0  0  0  0  0
  185.6380  178.9540  146.6640 C   0  0  0  0  0  3  0  0  0  0  0  0
  189.2200  177.6350  140.0040 C   0  0  2  0  0  3  0  0  0  0  0  0
  187.4960  177.2020  137.3210 C   0  0  0  0  0  3  0  0  0  0  0  0
  186.1720  178.3150  142.1110 N   0  0  0  0  0  2  0  0  0  0  0  0
  186.7060  178.6600  145.8990 C   0  0  0  0  0  3  0  0  0  0  0  0
  187.7160  177.7620  140.2670 C   0  0  1  0  0  3  0  0  0  0  0  0
  191.0220  176.6550  138.8200 C   0  0  0  0  0  2  0  0  0  0  0  0
  186.7670  177.9230  144.5760 C   0  0  2  0  0  3  0  0  0  0  0  0
  184.2510  178.7630  146.3270 N   0  0  0  0  0  2  0  0  0  0  0  0
  188.6860  176.4410  137.8560 C   0  0  2  0  0  3  0  0  0  0  0  0
  188.3180  177.2990  142.6660 C   0  0  1  0  0  3  0  0  0  0  0  0
  184.5380  178.5310  143.8200 C   0  0  1  0  0  3  0  0  0  0  0  0
  187.5690  178.2410  141.7180 C   0  0  2  0  0  3  0  0  0  0  0  0
  190.3620  176.8400  144.6170 C   0  0  0  0  0  2  0  0  0  0  0  0
  186.8050  178.1670  137.9540 C   0  0  0  0  0  3  0  0  0  0  0  0
  188.9490  176.8900  144.9970 N   0  0  0  0  0  2  0  0  0  0  0  0
  187.1250  178.7710  139.2970 C   0  0  0  0  0  2  0  0  0  0  0  0
  189.6850  177.3510  138.5850 C   0  0  1  0  0  3  0  0  0  0  0  0
  190.5110  176.2520  143.2150 C   0  0  0  0  0  2  0  0  0  0  0  0
  189.8040  176.6190  140.8650 N   0  0  2  0  0  0  0  0  0  0  0  0
  189.3050  175.7710  136.7960 O   0  0  0  0  0  0  0  0  0  0  0  0
  188.5000  174.6530  136.5620 C   0  0  0  0  0  2  0  0  0  0  0  0
  190.0780  172.5060  134.7070 O   0  0  0  0  0  0  0  0  0  0  0  0
  190.7710  173.6810  136.6330 C   0  0  0  0  0  2  0  0  0  0  0  0
  189.3060  173.3820  136.7680 C   0  0  2  0  0  3  0  0  0  0  0  0
  191.2110  172.8340  135.4640 C   0  0  0  0  0  2  0  0  0  0  0  0
  189.0280  172.4230  135.6340 C   0  0  0  0  0  2  0  0  0  0  0  0
  1 18  1  0  0  0  0
  1 26  1  1  0  0  0
  2 27  1  0  0  0  0
  3  7  1  1  0  0  0
  3 16  1  0  0  0  0
  4 15  1  0  0  0  0
  4 23  1  1  0  0  0
  5 11  1  6  0  0  0
  5 19  1  0  0  0  0
  5 15  1  0  0  0  0
  6 19  1  0  0  0  0
  6  7  1  1  0  0  0
  6  3  1  0  0  0  0
  9 13  1  0  0  0  0
  9 27  1  0  0  0  0
 10 17  1  0  0  0  0
 10 22  2  0  0  0  0
 12  8  2  0  0  0  0
 13 20  1  0  0  0  0
 14  2  1  0  0  0  0
 15 12  1  0  0  0  0
 16  8  1  0  0  0  0
 17 25  1  0  0  0  0
 18  4  1  0  0  0  0
 19  3  1  0  0  0  0
 20 11  1  0  0  0  0
 20 18  1  0  0  0  0
 21 23  1  0  0  0  0
 22 24  1  0  0  0  0
 24 13  1  0  0  0  0
 25 14  1  0  0  0  0
 25  9  1  0  0  0  0
 26 21  1  0  0  0  0
 27  1  1  0  0  0  0
 28 17  1  0  0  0  0
 29 32  1  0  0  0  0
 29 28  1  0  0  0  0
 30 33  1  0  0  0  0
 30 34  1  0  0  0  0
 31 32  1  0  0  0  0
 33 31  1  0  0  0  0
 34 32  1  0  0  0  0
M  END
>  <MODEL>
6

>  <REMARK>
 VINA RESULT:      -8.8      2.204      2.816
  Name = 
  3 active torsions:
  status: ('A' for Active; 'I' for Inactive)
    1  A    between atoms: C_17  and  O_28
    2  A    between atoms: O_28  and  C_29
    3  A    between atoms: C_29  and  C_32
                            x       y       z     vdW  Elec       q    Type
                         _______ _______ _______ _____ _____    ______ ____

>  <TORSDO>
F 3

$$$$
=
 OpenBabel11122412203D

 34 42  0  0  1  0  0  0  0  0999 V2000
  185.9180  178.3670  142.2450 C   0  0  1  0  0  3  0  0  0  0  0  0
  185.4060  178.8090  139.9150 C   0  0  0  0  0  2  0  0  0  0  0  0
  190.2560  177.2490  147.3260 C   0  0  2  0  0  0  0  0  0  0  0  0
  186.6110  177.9350  144.6370 C   0  0  2  0  0  3  0  0  0  0  0  0
  189.0610  177.3020  145.0590 C   0  0  2  0  0  3  0  0  0  0  0  0
  191.5210  177.0430  145.8480 C   0  0  2  0  0  3  0  0  0  0  0  0
  191.6810  177.2440  147.2190 O   0  0  0  0  0  0  0  0  0  0  0  0
  187.9850  177.0840  148.0920 C   0  0  0  0  0  3  0  0  0  0  0  0
  187.2710  177.6550  140.4710 C   0  0  2  0  0  3  0  0  0  0  0  0
  189.9030  177.7980  138.6250 C   0  0  0  0  0  3  0  0  0  0  0  0
  189.2550  177.2190  143.6440 N   0  0  0  0  0  2  0  0  0  0  0  0
  187.3030  177.2900  146.9500 C   0  0  0  0  0  3  0  0  0  0  0  0
  188.5540  177.5630  141.3020 C   0  0  1  0  0  3  0  0  0  0  0  0
  186.0960  178.4950  138.5930 C   0  0  0  0  0  2  0  0  0  0  0  0
  187.7800  177.8780  145.6380 C   0  0  2  0  0  3  0  0  0  0  0  0
  189.4020  177.2420  148.2950 N   0  0  0  0  0  2  0  0  0  0  0  0
  188.6300  178.6090  138.5810 C   0  0  2  0  0  3  0  0  0  0  0  0
  187.1010  178.2840  143.2260 C   0  0  1  0  0  3  0  0  0  0  0  0
  190.1030  177.1970  145.8610 C   0  0  1  0  0  3  0  0  0  0  0  0
  188.1170  177.2460  142.7390 C   0  0  2  0  0  3  0  0  0  0  0  0
  184.4870  178.9470  144.1850 C   0  0  0  0  0  2  0  0  0  0  0  0
  190.2620  176.9100  139.5700 C   0  0  0  0  0  3  0  0  0  0  0  0
  185.6450  178.9440  145.0810 N   0  0  0  0  0  2  0  0  0  0  0  0
  189.4300  176.4550  140.7410 C   0  0  0  0  0  2  0  0  0  0  0  0
  187.3940  177.7810  138.9610 C   0  0  1  0  0  3  0  0  0  0  0  0
  184.9070  179.3780  142.7810 C   0  0  0  0  0  2  0  0  0  0  0  0
  186.4430  178.7580  140.9330 N   0  0  2  0  0  0  0  0  0  0  0  0
  188.4890  179.1570  137.3040 O   0  0  0  0  0  0  0  0  0  0  0  0
  189.4050  178.4590  136.5120 C   0  0  0  0  0  2  0  0  0  0  0  0
  187.4290  175.9640  135.8710 O   0  0  0  0  0  0  0  0  0  0  0  0
  187.2480  178.2530  135.3230 C   0  0  0  0  0  2  0  0  0  0  0  0
  188.7010  177.8780  135.2980 C   0  0  2  0  0  3  0  0  0  0  0  0
  186.5300  176.9270  135.3930 C   0  0  0  0  0  2  0  0  0  0  0  0
  188.6870  176.3700  135.4010 C   0  0  0  0  0  2  0  0  0  0  0  0
  1 26  1  1  0  0  0
  1 18  1  0  0  0  0
  2 27  1  0  0  0  0
  3  7  1  1  0  0  0
  3 16  1  0  0  0  0
  4 23  1  1  0  0  0
  4 15  1  0  0  0  0
  5 11  1  6  0  0  0
  5 15  1  0  0  0  0
  5 19  1  0  0  0  0
  6 19  1  0  0  0  0
  6  7  1  6  0  0  0
  6  3  1  0  0  0  0
  8 16  1  0  0  0  0
  9 27  1  0  0  0  0
  9 13  1  0  0  0  0
 10 22  2  0  0  0  0
 12  8  2  0  0  0  0
 13 20  1  0  0  0  0
 14 25  1  0  0  0  0
 14  2  1  0  0  0  0
 15 12  1  0  0  0  0
 17 10  1  0  0  0  0
 17 25  1  0  0  0  0
 18  4  1  0  0  0  0
 19  3  1  0  0  0  0
 20 18  1  0  0  0  0
 20 11  1  0  0  0  0
 21 23  1  0  0  0  0
 22 24  1  0  0  0  0
 24 13  1  0  0  0  0
 25  9  1  0  0  0  0
 26 21  1  0  0  0  0
 27  1  1  0  0  0  0
 28 17  1  0  0  0  0
 29 28  1  0  0  0  0
 31 33  1  0  0  0  0
 32 31  1  0  0  0  0
 32 34  1  0  0  0  0
 32 29  1  0  0  0  0
 33 30  1  0  0  0  0
 34 30  1  0  0  0  0
M  END
>  <MODEL>
7

>  <REMARK>
 VINA RESULT:      -8.7      3.026      5.613
  Name = 
  3 active torsions:
  status: ('A' for Active; 'I' for Inactive)
    1  A    between atoms: C_17  and  O_28
    2  A    between atoms: O_28  and  C_29
    3  A    between atoms: C_29  and  C_32
                            x       y       z     vdW  Elec       q    Type
                         _______ _______ _______ _____ _____    ______ ____

>  <TORSDO>
F 3

$$$$
=
 OpenBabel11122412203D

 34 42  0  0  1  0  0  0  0  0999 V2000
  188.0760  178.0790  140.2990 C   0  0  1  0  0  3  0  0  0  0  0  0
  186.4590  178.3050  138.5050 C   0  0  0  0  0  2  0  0  0  0  0  0
  189.7450  176.9040  146.7590 C   0  0  2  0  0  0  0  0  0  0  0  0
  189.6380  177.7840  142.2640 C   0  0  2  0  0  3  0  0  0  0  0  0
  188.5860  177.6580  144.6000 C   0  0  2  0  0  3  0  0  0  0  0  0
  187.8150  177.0960  147.0150 C   0  0  2  0  0  3  0  0  0  0  0  0
  188.8330  176.5660  147.8060 O   0  0  0  0  0  0  0  0  0  0  0  0
  191.6880  177.4740  145.4670 C   0  0  0  0  0  3  0  0  0  0  0  0
  185.8710  178.7900  140.6350 C   0  0  2  0  0  3  0  0  0  0  0  0
  182.8380  178.3830  141.6350 C   0  0  0  0  0  3  0  0  0  0  0  0
  187.3230  177.9950  144.0190 N   0  0  0  0  0  2  0  0  0  0  0  0
  191.1450  177.7070  144.2570 C   0  0  0  0  0  3  0  0  0  0  0  0
  185.8090  178.3650  142.1050 C   0  0  1  0  0  3  0  0  0  0  0  0
  184.9920  178.7130  138.4360 C   0  0  0  0  0  2  0  0  0  0  0  0
  189.7800  177.3180  143.7250 C   0  0  2  0  0  3  0  0  0  0  0  0
  191.0290  176.9170  146.6200 N   0  0  0  0  0  2  0  0  0  0  0  0
  183.5140  177.9570  140.3530 C   0  0  2  0  0  3  0  0  0  0  0  0
  188.1950  177.6390  141.7690 C   0  0  1  0  0  3  0  0  0  0  0  0
  188.6400  177.3120  145.8720 C   0  0  1  0  0  3  0  0  0  0  0  0
  187.2420  178.4610  142.6440 C   0  0  2  0  0  3  0  0  0  0  0  0
  190.4670  177.4760  140.0370 C   0  0  0  0  0  2  0  0  0  0  0  0
  183.4300  178.9200  142.7180 C   0  0  0  0  0  3  0  0  0  0  0  0
  190.5280  176.9850  141.4150 N   0  0  0  0  0  2  0  0  0  0  0  0
  184.8800  179.3050  142.8550 C   0  0  0  0  0  2  0  0  0  0  0  0
  184.5650  178.9710  139.8780 C   0  0  1  0  0  3  0  0  0  0  0  0
  189.0660  177.2700  139.4640 C   0  0  0  0  0  2  0  0  0  0  0  0
  186.6910  177.8640  139.8710 N   0  0  2  0  0  0  0  0  0  0  0  0
  182.5360  177.7570  139.3750 O   0  0  0  0  0  0  0  0  0  0  0  0
  182.2640  176.3870  139.4150 C   0  0  0  0  0  2  0  0  0  0  0  0
  182.5610  177.4580  136.3650 O   0  0  0  0  0  0  0  0  0  0  0  0
  183.1950  175.4070  137.3460 C   0  0  0  0  0  2  0  0  0  0  0  0
  181.9410  175.8820  138.0190 C   0  0  2  0  0  3  0  0  0  0  0  0
  183.3220  176.3040  136.1390 C   0  0  0  0  0  2  0  0  0  0  0  0
  181.4850  177.0380  137.1610 C   0  0  0  0  0  2  0  0  0  0  0  0
  1 26  1  6  0  0  0
  1 18  1  0  0  0  0
  2 27  1  0  0  0  0
  3 16  1  1  0  0  0
  3  6  1  0  0  0  0
  3  7  1  0  0  0  0
  4 23  1  6  0  0  0
  4 15  1  0  0  0  0
  5 11  1  6  0  0  0
  5 19  1  0  0  0  0
  6  7  1  6  0  0  0
  8 16  1  0  0  0  0
  9 13  1  0  0  0  0
 10 22  2  0  0  0  0
 12  8  2  0  0  0  0
 13 20  1  0  0  0  0
 13 24  1  0  0  0  0
 14  2  1  0  0  0  0
 14 25  1  0  0  0  0
 15 12  1  0  0  0  0
 15  5  1  0  0  0  0
 17 10  1  0  0  0  0
 18  4  1  0  0  0  0
 18 20  1  0  0  0  0
 19  3  1  0  0  0  0
 19  6  1  0  0  0  0
 20 11  1  0  0  0  0
 21 23  1  0  0  0  0
 22 24  1  0  0  0  0
 25 17  1  0  0  0  0
 25  9  1  0  0  0  0
 26 21  1  0  0  0  0
 27  1  1  0  0  0  0
 27  9  1  0  0  0  0
 28 29  1  0  0  0  0
 28 17  1  0  0  0  0
 30 34  1  0  0  0  0
 31 32  1  0  0  0  0
 32 29  1  0  0  0  0
 33 30  1  0  0  0  0
 33 31  1  0  0  0  0
 34 32  1  0  0  0  0
M  END
>  <MODEL>
8

>  <REMARK>
 VINA RESULT:      -8.7      3.600      7.490
  Name = 
  3 active torsions:
  status: ('A' for Active; 'I' for Inactive)
    1  A    between atoms: C_17  and  O_28
    2  A    between atoms: O_28  and  C_29
    3  A    between atoms: C_29  and  C_32
                            x       y       z     vdW  Elec       q    Type
                         _______ _______ _______ _____ _____    ______ ____

>  <TORSDO>
F 3

$$$$
=
 OpenBabel11122412203D

 34 42  0  0  1  0  0  0  0  0999 V2000
  189.6510  177.1590  142.0260 C   0  0  1  0  0  3  0  0  0  0  0  0
  190.9790  176.5170  140.1000 C   0  0  0  0  0  2  0  0  0  0  0  0
  183.7620  178.6420  145.0280 C   0  0  2  0  0  0  0  0  0  0  0  0
  188.1310  177.7940  143.9440 C   0  0  2  0  0  3  0  0  0  0  0  0
  185.7070  178.4080  143.3750 C   0  0  2  0  0  3  0  0  0  0  0  0
  183.1330  178.6840  143.1760 C   0  0  2  0  0  3  0  0  0  0  0  0
  182.4770  178.6060  144.4050 O   0  0  0  0  0  0  0  0  0  0  0  0
  185.5930  178.9260  146.5570 C   0  0  0  0  0  3  0  0  0  0  0  0
  189.0560  177.6750  139.8220 C   0  0  2  0  0  3  0  0  0  0  0  0
  187.2860  177.3060  137.1580 C   0  0  0  0  0  3  0  0  0  0  0  0
  186.0490  178.3560  141.9860 N   0  0  0  0  0  2  0  0  0  0  0  0
  186.6450  178.6320  145.7700 C   0  0  0  0  0  3  0  0  0  0  0  0
  187.5580  177.8160  140.1100 C   0  0  1  0  0  3  0  0  0  0  0  0
  190.8280  176.6940  138.5940 C   0  0  0  0  0  2  0  0  0  0  0  0
  186.6770  177.9160  144.4350 C   0  0  2  0  0  3  0  0  0  0  0  0
  184.1990  178.7570  146.2380 N   0  0  0  0  0  2  0  0  0  0  0  0
  188.4760  176.5230  137.6620 C   0  0  2  0  0  3  0  0  0  0  0  0
  188.1910  177.3060  142.4920 C   0  0  1  0  0  3  0  0  0  0  0  0
  184.4440  178.5630  143.7240 C   0  0  1  0  0  3  0  0  0  0  0  0
  187.4390  178.2720  141.5700 C   0  0  2  0  0  3  0  0  0  0  0  0
  190.2590  176.7910  144.4020 C   0  0  0  0  0  2  0  0  0  0  0  0
  186.6170  178.2690  137.8190 C   0  0  0  0  0  3  0  0  0  0  0  0
  188.8530  176.8500  144.8050 N   0  0  0  0  0  2  0  0  0  0  0  0
  186.9640  178.8470  139.1650 C   0  0  0  0  0  2  0  0  0  0  0  0
  189.4960  177.4090  138.3910 C   0  0  1  0  0  3  0  0  0  0  0  0
  190.3800  176.2250  142.9890 C   0  0  0  0  0  2  0  0  0  0  0  0
  189.6410  176.6390  140.6570 N   0  0  2  0  0  0  0  0  0  0  0  0
  189.0690  175.8630  136.5830 O   0  0  0  0  0  0  0  0  0  0  0  0
  188.0190  175.6080  135.6980 C   0  0  0  0  0  2  0  0  0  0  0  0
  188.8080  172.8190  137.1590 O   0  0  0  0  0  0  0  0  0  0  0  0
  186.8110  173.4890  136.0940 C   0  0  0  0  0  2  0  0  0  0  0  0
  187.9630  174.1250  135.3730 C   0  0  2  0  0  3  0  0  0  0  0  0
  187.4620  172.4650  136.9920 C   0  0  0  0  0  2  0  0  0  0  0  0
  189.1770  173.4390  135.9560 C   0  0  0  0  0  2  0  0  0  0  0  0
  1 18  1  0  0  0  0
  1 26  1  1  0  0  0
  2 27  1  0  0  0  0
  3  7  1  1  0  0  0
  3 16  1  0  0  0  0
  4 15  1  0  0  0  0
  4 23  1  1  0  0  0
  5 11  1  6  0  0  0
  5 19  1  0  0  0  0
  5 15  1  0  0  0  0
  6 19  1  0  0  0  0
  6  7  1  1  0  0  0
  6  3  1  0  0  0  0
  9 13  1  0  0  0  0
  9 27  1  0  0  0  0
 10 17  1  0  0  0  0
 10 22  2  0  0  0  0
 12  8  2  0  0  0  0
 13 20  1  0  0  0  0
 14  2  1  0  0  0  0
 15 12  1  0  0  0  0
 16  8  1  0  0  0  0
 17 25  1  0  0  0  0
 18  4  1  0  0  0  0
 19  3  1  0  0  0  0
 20 11  1  0  0  0  0
 20 18  1  0  0  0  0
 21 23  1  0  0  0  0
 22 24  1  0  0  0  0
 24 13  1  0  0  0  0
 25 14  1  0  0  0  0
 25  9  1  0  0  0  0
 26 21  1  0  0  0  0
 27  1  1  0  0  0  0
 28 17  1  0  0  0  0
 29 28  1  0  0  0  0
 31 33  1  0  0  0  0
 32 29  1  0  0  0  0
 32 34  1  0  0  0  0
 32 31  1  0  0  0  0
 33 30  1  0  0  0  0
 34 30  1  0  0  0  0
M  END
>  <MODEL>
9

>  <REMARK>
 VINA RESULT:      -8.7      2.378      3.282
  Name = 
  3 active torsions:
  status: ('A' for Active; 'I' for Inactive)
    1  A    between atoms: C_17  and  O_28
    2  A    between atoms: O_28  and  C_29
    3  A    between atoms: C_29  and  C_32
                            x       y       z     vdW  Elec       q    Type
                         _______ _______ _______ _____ _____    ______ ____

>  <TORSDO>
F 3

$$$$
