=
 OpenBabel11122410233D

 30 35  0  0  1  0  0  0  0  0999 V2000
  188.1590  177.4570  142.8630 C   0  0  0  0  0  0  0  0  0  0  0  0
  189.6040  176.7050  144.7610 C   0  0  0  0  0  0  0  0  0  0  0  0
  185.1050  178.8290  145.5060 C   0  0  0  0  0  2  0  0  0  0  0  0
  186.9530  178.0650  142.4310 C   0  0  0  0  0  0  0  0  0  0  0  0
  189.0910  176.8850  141.8280 C   0  0  0  0  0  2  0  0  0  0  0  0
  187.9450  178.7750  138.9300 O   0  0  0  0  0  0  0  0  0  0  0  0
  184.4150  177.5280  140.9890 C   0  0  1  0  0  3  0  0  0  0  0  0
  187.9700  178.3380  140.1130 C   0  0  0  0  0  0  0  0  0  0  0  0
  183.8010  178.0410  142.2840 C   0  0  2  0  0  3  0  0  0  0  0  0
  184.1390  179.3200  144.4120 C   0  0  1  0  0  3  0  0  0  0  0  0
  189.1480  177.6950  140.6190 N   0  0  0  0  0  0  0  0  0  0  0  0
  186.8000  178.5850  141.0190 C   0  0  1  0  0  3  0  0  0  0  0  0
  189.8090  176.5940  146.1390 C   0  0  0  0  0  3  0  0  0  0  0  0
  182.5960  178.7810  141.8140 C   0  0  0  0  0  2  0  0  0  0  0  0
  183.3570  177.2970  140.0880 O   0  0  0  0  0  0  0  0  0  0  0  0
  190.5830  176.2490  143.9410 F   0  0  0  0  0  0  0  0  0  0  0  0
  186.2590  178.3120  144.7260 C   0  0  0  0  0  0  0  0  0  0  0  0
  188.8520  177.0540  147.0410 C   0  0  0  0  0  3  0  0  0  0  0  0
  188.4140  177.2930  144.2600 C   0  0  0  0  0  0  0  0  0  0  0  0
  186.0010  178.4100  143.3920 C   0  0  0  0  0  0  0  0  0  0  0  0
  184.0850  180.8360  144.4240 C   0  0  0  0  0  1  0  0  0  0  0  0
  184.6780  178.8560  143.1300 N   0  0  0  0  0  0  0  0  0  0  0  0
  182.2430  178.0370  140.5440 C   0  0  0  0  0  2  0  0  0  0  0  0
  184.9090  179.7250  140.0830 O   0  0  0  0  0  1  0  0  0  0  0  0
  187.6750  177.6330  146.5730 C   0  0  0  0  0  3  0  0  0  0  0  0
  187.4480  177.7570  145.1980 C   0  0  0  0  0  0  0  0  0  0  0  0
  185.4420  178.4560  140.3210 C   0  0  2  0  0  3  0  0  0  0  0  0
  190.3560  177.6180  139.8100 C   0  0  0  0  0  2  0  0  0  0  0  0
  190.2060  176.1040  138.0470 C   0  0  0  0  0  1  0  0  0  0  0  0
  190.6090  176.2380  139.4350 N   0  0  0  0  0  2  0  0  0  0  0  0
  1 19  1  0  0  0  0
  2 13  1  0  0  0  0
  4  1  2  0  0  0  0
  4 20  1  0  0  0  0
  5  1  1  0  0  0  0
  6  8  2  0  0  0  0
  7 15  1  6  0  0  0
  7  9  1  0  0  0  0
  8 11  1  0  0  0  0
  9 14  1  6  0  0  0
  9 22  1  0  0  0  0
 10 21  1  6  0  0  0
 10  3  1  0  0  0  0
 11  5  1  0  0  0  0
 12  8  1  6  0  0  0
 12  4  1  0  0  0  0
 13 18  2  0  0  0  0
 15 23  1  0  0  0  0
 16  2  1  0  0  0  0
 17 26  1  0  0  0  0
 17  3  1  0  0  0  0
 19  2  2  0  0  0  0
 19 26  1  0  0  0  0
 20 17  2  0  0  0  0
 22 20  1  0  0  0  0
 22 10  1  0  0  0  0
 23 14  1  0  0  0  0
 25 18  1  0  0  0  0
 26 25  2  0  0  0  0
 27 24  1  1  0  0  0
 27  7  1  0  0  0  0
 27 12  1  0  0  0  0
 28 11  1  0  0  0  0
 29 30  1  0  0  0  0
 30 28  1  0  0  0  0
M  END
>  <MODEL>
1

>  <REMARK>
 VINA RESULT:      -8.7      0.000      0.000
  Name = 
  2 active torsions:
  status: ('A' for Active; 'I' for Inactive)
    1  A    between atoms: N_11  and  C_28
    2  A    between atoms: C_28  and  N_30
                            x       y       z     vdW  Elec       q    Type
                         _______ _______ _______ _____ _____    ______ ____

>  <TORSDO>
F 2

$$$$
=
 OpenBabel11122410233D

 30 35  0  0  1  0  0  0  0  0999 V2000
  185.4380  178.2210  142.4540 C   0  0  0  0  0  0  0  0  0  0  0  0
  186.2710  178.2580  144.8120 C   0  0  0  0  0  0  0  0  0  0  0  0
  181.4170  178.9420  143.6840 C   0  0  0  0  0  2  0  0  0  0  0  0
  184.3460  178.3460  141.5570 C   0  0  0  0  0  0  0  0  0  0  0  0
  186.7810  177.8230  141.9050 C   0  0  0  0  0  2  0  0  0  0  0  0
  186.2820  178.7970  138.4290 O   0  0  0  0  0  0  0  0  0  0  0  0
  182.6850  176.8260  139.6240 C   0  0  1  0  0  3  0  0  0  0  0  0
  186.0030  178.5740  139.6380 C   0  0  0  0  0  0  0  0  0  0  0  0
  181.5520  177.3080  140.5190 C   0  0  2  0  0  3  0  0  0  0  0  0
  180.8010  178.9330  142.2720 C   0  0  1  0  0  3  0  0  0  0  0  0
  187.0520  178.4190  140.6040 N   0  0  0  0  0  0  0  0  0  0  0  0
  184.5690  178.5720  140.0790 C   0  0  1  0  0  3  0  0  0  0  0  0
  186.0050  178.4260  146.1740 C   0  0  0  0  0  3  0  0  0  0  0  0
  180.4420  177.5500  139.5560 C   0  0  0  0  0  2  0  0  0  0  0  0
  182.0990  176.1400  138.5420 O   0  0  0  0  0  0  0  0  0  0  0  0
  187.5550  178.0160  144.4480 F   0  0  0  0  0  0  0  0  0  0  0  0
  182.8600  178.7040  143.4220 C   0  0  0  0  0  0  0  0  0  0  0  0
  184.7130  178.6910  146.6200 C   0  0  0  0  0  3  0  0  0  0  0  0
  185.2230  178.3580  143.8610 C   0  0  0  0  0  0  0  0  0  0  0  0
  183.0660  178.5140  142.0880 C   0  0  0  0  0  0  0  0  0  0  0  0
  180.3710  180.3380  141.8960 C   0  0  0  0  0  1  0  0  0  0  0  0
  181.8490  178.4750  141.3550 N   0  0  0  0  0  0  0  0  0  0  0  0
  180.7490  176.5500  138.4610 C   0  0  0  0  0  2  0  0  0  0  0  0
  182.9010  178.9030  138.3880 O   0  0  0  0  0  1  0  0  0  0  0  0
  183.6670  178.7920  145.7060 C   0  0  0  0  0  3  0  0  0  0  0  0
  183.9080  178.6290  144.3370 C   0  0  0  0  0  0  0  0  0  0  0  0
  183.6150  177.9190  139.0730 C   0  0  2  0  0  3  0  0  0  0  0  0
  188.4440  178.6060  140.2220 C   0  0  0  0  0  2  0  0  0  0  0  0
  190.2390  177.1240  140.3040 C   0  0  0  0  0  1  0  0  0  0  0  0
  189.3050  177.8690  141.1290 N   0  0  0  0  0  2  0  0  0  0  0  0
  1 19  1  0  0  0  0
  2 13  1  0  0  0  0
  4 20  1  0  0  0  0
  4  1  2  0  0  0  0
  5  1  1  0  0  0  0
  6  8  2  0  0  0  0
  7 15  1  6  0  0  0
  7  9  1  0  0  0  0
  8 11  1  0  0  0  0
  9 14  1  6  0  0  0
  9 22  1  0  0  0  0
 10 21  1  6  0  0  0
 10  3  1  0  0  0  0
 11  5  1  0  0  0  0
 12  8  1  6  0  0  0
 12  4  1  0  0  0  0
 13 18  2  0  0  0  0
 16  2  1  0  0  0  0
 17  3  1  0  0  0  0
 17 26  1  0  0  0  0
 19 26  1  0  0  0  0
 19  2  2  0  0  0  0
 20 17  2  0  0  0  0
 22 20  1  0  0  0  0
 22 10  1  0  0  0  0
 23 15  1  0  0  0  0
 23 14  1  0  0  0  0
 25 18  1  0  0  0  0
 26 25  2  0  0  0  0
 27 24  1  1  0  0  0
 27  7  1  0  0  0  0
 27 12  1  0  0  0  0
 28 11  1  0  0  0  0
 28 30  1  0  0  0  0
 29 30  1  0  0  0  0
M  END
>  <MODEL>
2

>  <REMARK>
 VINA RESULT:      -8.5      2.039      3.194
  Name = 
  2 active torsions:
  status: ('A' for Active; 'I' for Inactive)
    1  A    between atoms: N_11  and  C_28
    2  A    between atoms: C_28  and  N_30
                            x       y       z     vdW  Elec       q    Type
                         _______ _______ _______ _____ _____    ______ ____

>  <TORSDO>
F 2

$$$$
=
 OpenBabel11122410233D

 30 35  0  0  1  0  0  0  0  0999 V2000
  189.4380  177.1000  143.6580 C   0  0  0  0  0  0  0  0  0  0  0  0
  191.2850  175.9990  144.9360 C   0  0  0  0  0  0  0  0  0  0  0  0
  187.3580  178.1470  147.2320 C   0  0  0  0  0  2  0  0  0  0  0  0
  188.2130  177.8150  143.6810 C   0  0  0  0  0  0  0  0  0  0  0  0
  189.9960  176.6650  142.3290 C   0  0  0  0  0  2  0  0  0  0  0  0
  188.2520  179.0380  140.1810 O   0  0  0  0  0  0  0  0  0  0  0  0
  185.3400  177.6140  142.9650 C   0  0  1  0  0  3  0  0  0  0  0  0
  188.5680  178.4170  141.2330 C   0  0  0  0  0  0  0  0  0  0  0  0
  185.1530  177.9360  144.4400 C   0  0  2  0  0  3  0  0  0  0  0  0
  186.1710  178.8440  146.5420 C   0  0  1  0  0  3  0  0  0  0  0  0
  189.7830  177.6560  141.2830 N   0  0  0  0  0  0  0  0  0  0  0  0
  187.7190  178.5600  142.4610 C   0  0  1  0  0  3  0  0  0  0  0  0
  191.8530  175.6610  146.1670 C   0  0  0  0  0  3  0  0  0  0  0  0
  183.9300  178.7870  144.4460 C   0  0  0  0  0  2  0  0  0  0  0  0
  184.0590  177.5700  142.3800 O   0  0  0  0  0  0  0  0  0  0  0  0
  191.9580  175.6430  143.8140 F   0  0  0  0  0  0  0  0  0  0  0  0
  188.2040  177.7170  146.0890 C   0  0  0  0  0  0  0  0  0  0  0  0
  191.2250  176.0070  147.3610 C   0  0  0  0  0  3  0  0  0  0  0  0
  190.0550  176.7050  144.8850 C   0  0  0  0  0  0  0  0  0  0  0  0
  187.5970  178.0380  144.9130 C   0  0  0  0  0  0  0  0  0  0  0  0
  186.2460  180.3390  146.7860 C   0  0  0  0  0  1  0  0  0  0  0  0
  186.2940  178.5710  145.1070 N   0  0  0  0  0  0  0  0  0  0  0  0
  183.1790  178.2690  143.2370 C   0  0  0  0  0  2  0  0  0  0  0  0
  185.7420  179.9060  142.2780 O   0  0  0  0  0  1  0  0  0  0  0  0
  190.0160  176.6990  147.3380 C   0  0  0  0  0  3  0  0  0  0  0  0
  189.4280  177.0490  146.1180 C   0  0  0  0  0  0  0  0  0  0  0  0
  186.2150  178.5970  142.1700 C   0  0  2  0  0  3  0  0  0  0  0  0
  190.7090  177.6640  140.1600 C   0  0  0  0  0  2  0  0  0  0  0  0
  190.0100  176.4500  138.3000 C   0  0  0  0  0  1  0  0  0  0  0  0
  190.7470  176.3480  139.5460 N   0  0  0  0  0  2  0  0  0  0  0  0
  1  4  2  0  0  0  0
  1 19  1  0  0  0  0
  2 13  1  0  0  0  0
  4 20  1  0  0  0  0
  5  1  1  0  0  0  0
  6  8  2  0  0  0  0
  7 15  1  6  0  0  0
  7  9  1  0  0  0  0
  8 11  1  0  0  0  0
  9 14  1  6  0  0  0
  9 22  1  0  0  0  0
 10 21  1  6  0  0  0
 10  3  1  0  0  0  0
 11  5  1  0  0  0  0
 12  8  1  6  0  0  0
 12  4  1  0  0  0  0
 13 18  2  0  0  0  0
 15 23  1  0  0  0  0
 16  2  1  0  0  0  0
 17 26  1  0  0  0  0
 17  3  1  0  0  0  0
 19  2  2  0  0  0  0
 19 26  1  0  0  0  0
 20 22  1  0  0  0  0
 20 17  2  0  0  0  0
 22 10  1  0  0  0  0
 23 14  1  0  0  0  0
 25 18  1  0  0  0  0
 26 25  2  0  0  0  0
 27 24  1  1  0  0  0
 27 12  1  0  0  0  0
 27  7  1  0  0  0  0
 28 11  1  0  0  0  0
 29 30  1  0  0  0  0
 30 28  1  0  0  0  0
M  END
>  <MODEL>
3

>  <REMARK>
 VINA RESULT:      -8.0      1.445      2.133
  Name = 
  2 active torsions:
  status: ('A' for Active; 'I' for Inactive)
    1  A    between atoms: N_11  and  C_28
    2  A    between atoms: C_28  and  N_30
                            x       y       z     vdW  Elec       q    Type
                         _______ _______ _______ _____ _____    ______ ____

>  <TORSDO>
F 2

$$$$
=
 OpenBabel11122410233D

 30 35  0  0  1  0  0  0  0  0999 V2000
  186.3290  178.1920  142.1170 C   0  0  0  0  0  0  0  0  0  0  0  0
  185.6450  178.2860  144.5210 C   0  0  0  0  0  0  0  0  0  0  0  0
  182.4040  179.2040  140.7840 C   0  0  0  0  0  2  0  0  0  0  0  0
  185.9700  178.3410  140.7530 C   0  0  0  0  0  0  0  0  0  0  0  0
  187.7080  177.6910  142.4500 C   0  0  0  0  0  2  0  0  0  0  0  0
  189.3860  178.5350  139.3260 O   0  0  0  0  0  0  0  0  0  0  0  0
  185.6260  176.8360  138.2180 C   0  0  1  0  0  3  0  0  0  0  0  0
  188.4430  178.3840  140.1500 C   0  0  0  0  0  0  0  0  0  0  0  0
  184.2230  177.4240  138.2890 C   0  0  2  0  0  3  0  0  0  0  0  0
  182.7200  179.1680  139.2770 C   0  0  1  0  0  3  0  0  0  0  0  0
  188.7250  178.2110  141.5450 N   0  0  0  0  0  0  0  0  0  0  0  0
  187.0230  178.4870  139.6770 C   0  0  1  0  0  3  0  0  0  0  0  0
  184.6540  178.5300  145.4750 C   0  0  0  0  0  3  0  0  0  0  0  0
  183.8970  177.6880  136.8600 C   0  0  0  0  0  2  0  0  0  0  0  0
  185.7250  176.1380  136.9980 O   0  0  0  0  0  0  0  0  0  0  0  0
  186.8810  177.9520  144.9690 F   0  0  0  0  0  0  0  0  0  0  0  0
  183.7110  178.8690  141.4080 C   0  0  0  0  0  0  0  0  0  0  0  0
  183.3650  178.8910  145.0880 C   0  0  0  0  0  3  0  0  0  0  0  0
  185.3510  178.4050  143.1380 C   0  0  0  0  0  0  0  0  0  0  0  0
  184.6350  178.6080  140.4420 C   0  0  0  0  0  0  0  0  0  0  0  0
  182.6930  180.5780  138.7180 C   0  0  0  0  0  1  0  0  0  0  0  0
  184.0680  178.6080  139.1390 N   0  0  0  0  0  0  0  0  0  0  0  0
  184.7050  176.6230  136.1480 C   0  0  0  0  0  2  0  0  0  0  0  0
  186.6700  178.8390  137.3310 O   0  0  0  0  0  1  0  0  0  0  0  0
  183.0520  179.0130  143.7370 C   0  0  0  0  0  3  0  0  0  0  0  0
  184.0270  178.7740  142.7620 C   0  0  0  0  0  0  0  0  0  0  0  0
  186.7810  177.8460  138.3060 C   0  0  2  0  0  3  0  0  0  0  0  0
  190.0910  178.2970  142.0410 C   0  0  0  0  0  2  0  0  0  0  0  0
  191.2450  179.0760  143.9080 C   0  0  0  0  0  1  0  0  0  0  0  0
  190.0860  178.3060  143.4930 N   0  0  0  0  0  2  0  0  0  0  0  0
  1  5  1  0  0  0  0
  1 19  1  0  0  0  0
  2 16  1  0  0  0  0
  2 13  1  0  0  0  0
  3 17  1  0  0  0  0
  4  1  2  0  0  0  0
  6  8  2  0  0  0  0
  7 15  1  6  0  0  0
  7  9  1  0  0  0  0
  7 27  1  0  0  0  0
  8 11  1  0  0  0  0
  9 14  1  6  0  0  0
  9 22  1  0  0  0  0
 10 21  1  1  0  0  0
 10  3  1  0  0  0  0
 11 28  1  0  0  0  0
 11  5  1  0  0  0  0
 12  8  1  1  0  0  0
 12  4  1  0  0  0  0
 17 26  1  0  0  0  0
 18 13  2  0  0  0  0
 19  2  2  0  0  0  0
 20  4  1  0  0  0  0
 20 17  2  0  0  0  0
 22 10  1  0  0  0  0
 22 20  1  0  0  0  0
 23 14  1  0  0  0  0
 23 15  1  0  0  0  0
 25 18  1  0  0  0  0
 26 19  1  0  0  0  0
 26 25  2  0  0  0  0
 27 24  1  6  0  0  0
 27 12  1  0  0  0  0
 28 30  1  0  0  0  0
 30 29  1  0  0  0  0
M  END
>  <MODEL>
4

>  <REMARK>
 VINA RESULT:      -7.7      2.375      4.108
  Name = 
  2 active torsions:
  status: ('A' for Active; 'I' for Inactive)
    1  A    between atoms: N_11  and  C_28
    2  A    between atoms: C_28  and  N_30
                            x       y       z     vdW  Elec       q    Type
                         _______ _______ _______ _____ _____    ______ ____

>  <TORSDO>
F 2

$$$$
=
 OpenBabel11122410233D

 30 35  0  0  1  0  0  0  0  0999 V2000
  188.4120  177.6570  141.7090 C   0  0  0  0  0  0  0  0  0  0  0  0
  186.5630  178.2530  143.2840 C   0  0  0  0  0  0  0  0  0  0  0  0
  185.9900  178.4620  138.2910 C   0  0  0  0  0  2  0  0  0  0  0  0
  188.8650  177.5320  140.3710 C   0  0  0  0  0  0  0  0  0  0  0  0
  189.3170  177.2030  142.8230 C   0  0  0  0  0  2  0  0  0  0  0  0
  192.5030  177.3550  141.0600 O   0  0  0  0  0  0  0  0  0  0  0  0
  189.7430  175.5500  138.3440 C   0  0  1  0  0  3  0  0  0  0  0  0
  191.2550  177.3960  141.2370 C   0  0  0  0  0  0  0  0  0  0  0  0
  188.6130  176.1710  137.5340 C   0  0  2  0  0  3  0  0  0  0  0  0
  187.0570  178.1130  137.2380 C   0  0  1  0  0  3  0  0  0  0  0  0
  190.7180  177.5050  142.5620 N   0  0  0  0  0  0  0  0  0  0  0  0
  190.3390  177.4320  140.0490 C   0  0  1  0  0  3  0  0  0  0  0  0
  185.2560  178.7090  143.4790 C   0  0  0  0  0  3  0  0  0  0  0  0
  189.1430  176.1460  136.1420 C   0  0  0  0  0  2  0  0  0  0  0  0
  190.3890  174.6160  137.5100 O   0  0  0  0  0  0  0  0  0  0  0  0
  187.3080  177.9900  144.3860 F   0  0  0  0  0  0  0  0  0  0  0  0
  186.6990  178.2330  139.5760 C   0  0  0  0  0  0  0  0  0  0  0  0
  184.4370  179.0120  142.3940 C   0  0  0  0  0  3  0  0  0  0  0  0
  187.0770  178.0940  141.9710 C   0  0  0  0  0  0  0  0  0  0  0  0
  187.9540  177.7600  139.3370 C   0  0  0  0  0  0  0  0  0  0  0  0
  187.5190  179.3790  136.5420 C   0  0  0  0  0  1  0  0  0  0  0  0
  188.1820  177.5070  137.9580 N   0  0  0  0  0  0  0  0  0  0  0  0
  190.0600  174.9400  136.1750 C   0  0  0  0  0  2  0  0  0  0  0  0
  191.3520  177.3070  137.8780 O   0  0  0  0  0  1  0  0  0  0  0  0
  184.9180  178.8620  141.0950 C   0  0  0  0  0  3  0  0  0  0  0  0
  186.2230  178.4090  140.8740 C   0  0  0  0  0  0  0  0  0  0  0  0
  190.7900  176.5310  138.8950 C   0  0  2  0  0  3  0  0  0  0  0  0
  191.6010  177.6610  143.7090 C   0  0  0  0  0  2  0  0  0  0  0  0
  191.6800  176.7520  145.8510 C   0  0  0  0  0  1  0  0  0  0  0  0
  191.6800  176.4090  144.4410 N   0  0  0  0  0  2  0  0  0  0  0  0
  1 19  1  0  0  0  0
  1  5  1  0  0  0  0
  2 13  1  0  0  0  0
  2 16  1  0  0  0  0
  3 17  1  0  0  0  0
  4  1  2  0  0  0  0
  6  8  2  0  0  0  0
  7 15  1  6  0  0  0
  7 27  1  0  0  0  0
  8 11  1  0  0  0  0
  9 14  1  6  0  0  0
  9 22  1  0  0  0  0
  9  7  1  0  0  0  0
 10 21  1  1  0  0  0
 10 22  1  0  0  0  0
 10  3  1  0  0  0  0
 11  5  1  0  0  0  0
 11 28  1  0  0  0  0
 12  4  1  1  0  0  0
 12  8  1  0  0  0  0
 14 23  1  0  0  0  0
 17 26  1  0  0  0  0
 18 13  2  0  0  0  0
 19  2  2  0  0  0  0
 20 17  2  0  0  0  0
 20  4  1  0  0  0  0
 22 20  1  0  0  0  0
 23 15  1  0  0  0  0
 25 18  1  0  0  0  0
 26 25  2  0  0  0  0
 26 19  1  0  0  0  0
 27 24  1  6  0  0  0
 27 12  1  0  0  0  0
 28 30  1  0  0  0  0
 30 29  1  0  0  0  0
M  END
>  <MODEL>
5

>  <REMARK>
 VINA RESULT:      -7.6      3.017      5.887
  Name = 
  2 active torsions:
  status: ('A' for Active; 'I' for Inactive)
    1  A    between atoms: N_11  and  C_28
    2  A    between atoms: C_28  and  N_30
                            x       y       z     vdW  Elec       q    Type
                         _______ _______ _______ _____ _____    ______ ____

>  <TORSDO>
F 2

$$$$
=
 OpenBabel11122410233D

 30 35  0  0  1  0  0  0  0  0999 V2000
  189.0380  177.3930  139.4680 C   0  0  0  0  0  0  0  0  0  0  0  0
  190.7620  176.6810  137.8010 C   0  0  0  0  0  0  0  0  0  0  0  0
  191.9410  177.7580  142.5720 C   0  0  0  0  0  2  0  0  0  0  0  0
  188.7350  177.8080  140.7900 C   0  0  0  0  0  0  0  0  0  0  0  0
  187.9030  177.1640  138.5050 C   0  0  0  0  0  2  0  0  0  0  0  0
  185.3510  179.1790  140.1510 O   0  0  0  0  0  0  0  0  0  0  0  0
  187.3030  176.9910  143.2580 C   0  0  1  0  0  3  0  0  0  0  0  0
  186.4550  178.5960  139.9760 C   0  0  0  0  0  0  0  0  0  0  0  0
  188.6770  177.1880  143.8840 C   0  0  2  0  0  3  0  0  0  0  0  0
  190.9600  178.1990  143.6730 C   0  0  1  0  0  3  0  0  0  0  0  0
  186.8270  178.1310  138.6710 N   0  0  0  0  0  0  0  0  0  0  0  0
  187.4210  178.4800  141.1180 C   0  0  1  0  0  3  0  0  0  0  0  0
  192.1020  176.4210  137.5020 C   0  0  0  0  0  3  0  0  0  0  0  0
  188.3560  177.7360  145.2310 C   0  0  0  0  0  2  0  0  0  0  0  0
  186.4080  176.6860  144.3020 O   0  0  0  0  0  0  0  0  0  0  0  0
  189.8560  176.5440  136.8020 F   0  0  0  0  0  0  0  0  0  0  0  0
  191.0610  177.5910  141.3870 C   0  0  0  0  0  0  0  0  0  0  0  0
  193.0890  176.5550  138.4750 C   0  0  0  0  0  3  0  0  0  0  0  0
  190.3870  177.0890  139.1080 C   0  0  0  0  0  0  0  0  0  0  0  0
  189.7640  177.8230  141.7340 C   0  0  0  0  0  0  0  0  0  0  0  0
  191.1980  179.6580  144.0140 C   0  0  0  0  0  1  0  0  0  0  0  0
  189.6080  178.0330  143.1300 N   0  0  0  0  0  0  0  0  0  0  0  0
  187.0000  177.1220  145.5090 C   0  0  0  0  0  2  0  0  0  0  0  0
  186.7180  179.3460  143.2410 O   0  0  0  0  0  1  0  0  0  0  0  0
  192.7460  176.9520  139.7650 C   0  0  0  0  0  3  0  0  0  0  0  0
  191.4110  177.2190  140.0900 C   0  0  0  0  0  0  0  0  0  0  0  0
  186.7510  178.1860  142.4650 C   0  0  2  0  0  3  0  0  0  0  0  0
  185.9810  178.4060  137.5180 C   0  0  0  0  0  2  0  0  0  0  0  0
  184.1850  176.9240  137.4770 C   0  0  0  0  0  1  0  0  0  0  0  0
  185.5140  177.1570  136.9430 N   0  0  0  0  0  2  0  0  0  0  0  0
  1  4  1  0  0  0  0
  2 19  1  0  0  0  0
  3 10  1  0  0  0  0
  4 12  1  0  0  0  0
  4 20  2  0  0  0  0
  5 11  1  0  0  0  0
  5  1  1  0  0  0  0
  7  9  1  0  0  0  0
  7 15  1  1  0  0  0
  8  6  2  0  0  0  0
  9 14  1  1  0  0  0
 10 21  1  6  0  0  0
 11  8  1  0  0  0  0
 12  8  1  6  0  0  0
 12 27  1  0  0  0  0
 13  2  2  0  0  0  0
 13 18  1  0  0  0  0
 14 23  1  0  0  0  0
 15 23  1  0  0  0  0
 16  2  1  0  0  0  0
 17 20  1  0  0  0  0
 17  3  1  0  0  0  0
 18 25  2  0  0  0  0
 19  1  2  0  0  0  0
 19 26  1  0  0  0  0
 20 22  1  0  0  0  0
 22 10  1  0  0  0  0
 22  9  1  0  0  0  0
 25 26  1  0  0  0  0
 26 17  2  0  0  0  0
 27 24  1  1  0  0  0
 27  7  1  0  0  0  0
 28 11  1  0  0  0  0
 30 29  1  0  0  0  0
 30 28  1  0  0  0  0
M  END
>  <MODEL>
6

>  <REMARK>
 VINA RESULT:      -7.4      2.740      5.717
  Name = 
  2 active torsions:
  status: ('A' for Active; 'I' for Inactive)
    1  A    between atoms: N_11  and  C_28
    2  A    between atoms: C_28  and  N_30
                            x       y       z     vdW  Elec       q    Type
                         _______ _______ _______ _____ _____    ______ ____

>  <TORSDO>
F 2

$$$$
=
 OpenBabel11122410233D

 30 35  0  0  1  0  0  0  0  0999 V2000
  186.7610  178.1220  143.2450 C   0  0  0  0  0  0  0  0  0  0  0  0
  186.1700  178.1770  140.8150 C   0  0  0  0  0  0  0  0  0  0  0  0
  190.9420  178.2350  142.4060 C   0  0  0  0  0  2  0  0  0  0  0  0
  187.7680  178.1310  144.2430 C   0  0  0  0  0  0  0  0  0  0  0  0
  185.3280  177.9330  143.6660 C   0  0  0  0  0  2  0  0  0  0  0  0
  185.6240  178.9680  147.1490 O   0  0  0  0  0  0  0  0  0  0  0  0
  189.0070  176.4770  146.3730 C   0  0  1  0  0  3  0  0  0  0  0  0
  185.9840  178.6610  145.9800 C   0  0  0  0  0  0  0  0  0  0  0  0
  190.2760  176.7630  145.5830 C   0  0  2  0  0  3  0  0  0  0  0  0
  191.4120  178.1990  143.8720 C   0  0  1  0  0  3  0  0  0  0  0  0
  185.0200  178.6120  144.9180 N   0  0  0  0  0  0  0  0  0  0  0  0
  187.4390  178.4450  145.6850 C   0  0  1  0  0  3  0  0  0  0  0  0
  186.5860  178.2530  139.4830 C   0  0  0  0  0  3  0  0  0  0  0  0
  191.3120  176.8900  146.6470 C   0  0  0  0  0  2  0  0  0  0  0  0
  189.3840  175.7610  147.5260 O   0  0  0  0  0  0  0  0  0  0  0  0
  184.8360  178.1280  141.0550 F   0  0  0  0  0  0  0  0  0  0  0  0
  189.4610  178.2070  142.5290 C   0  0  0  0  0  0  0  0  0  0  0  0
  187.9400  178.3210  139.1620 C   0  0  0  0  0  3  0  0  0  0  0  0
  187.1260  178.1720  141.8640 C   0  0  0  0  0  0  0  0  0  0  0  0
  189.1040  178.1010  143.8390 C   0  0  0  0  0  0  0  0  0  0  0  0
  191.9970  179.5450  144.2530 C   0  0  0  0  0  1  0  0  0  0  0  0
  190.2270  177.9260  144.6920 N   0  0  0  0  0  0  0  0  0  0  0  0
  190.7650  175.9860  147.7310 C   0  0  0  0  0  2  0  0  0  0  0  0
  188.9670  178.6120  147.5260 O   0  0  0  0  0  1  0  0  0  0  0  0
  188.8970  178.3140  140.1730 C   0  0  0  0  0  3  0  0  0  0  0  0
  188.5050  178.2400  141.5150 C   0  0  0  0  0  0  0  0  0  0  0  0
  188.1910  177.7080  146.7980 C   0  0  2  0  0  3  0  0  0  0  0  0
  183.6380  179.0030  145.1530 C   0  0  0  0  0  2  0  0  0  0  0  0
  181.6600  178.6790  143.9680 C   0  0  0  0  0  1  0  0  0  0  0  0
  182.9820  179.2740  143.8870 N   0  0  0  0  0  2  0  0  0  0  0  0
  1  5  1  0  0  0  0
  1  4  1  0  0  0  0
  2 16  1  0  0  0  0
  2 19  1  0  0  0  0
  3 17  1  0  0  0  0
  3 10  1  0  0  0  0
  5 11  1  0  0  0  0
  7 27  1  0  0  0  0
  7 15  1  1  0  0  0
  8  6  2  0  0  0  0
  9  7  1  0  0  0  0
  9 14  1  1  0  0  0
 10 21  1  1  0  0  0
 10 22  1  0  0  0  0
 11 28  1  0  0  0  0
 11  8  1  0  0  0  0
 12  4  1  6  0  0  0
 12  8  1  0  0  0  0
 12 27  1  0  0  0  0
 13  2  2  0  0  0  0
 14 23  1  0  0  0  0
 15 23  1  0  0  0  0
 17 20  1  0  0  0  0
 18 13  1  0  0  0  0
 18 25  2  0  0  0  0
 19  1  2  0  0  0  0
 20  4  2  0  0  0  0
 20 22  1  0  0  0  0
 22  9  1  0  0  0  0
 25 26  1  0  0  0  0
 26 19  1  0  0  0  0
 26 17  2  0  0  0  0
 27 24  1  6  0  0  0
 30 29  1  0  0  0  0
 30 28  1  0  0  0  0
M  END
>  <MODEL>
7

>  <REMARK>
 VINA RESULT:      -7.0      3.359      7.097
  Name = 
  2 active torsions:
  status: ('A' for Active; 'I' for Inactive)
    1  A    between atoms: N_11  and  C_28
    2  A    between atoms: C_28  and  N_30
                            x       y       z     vdW  Elec       q    Type
                         _______ _______ _______ _____ _____    ______ ____

>  <TORSDO>
F 2

$$$$
=
 OpenBabel11122410233D

 30 35  0  0  1  0  0  0  0  0999 V2000
  187.2790  178.1710  140.1510 C   0  0  0  0  0  0  0  0  0  0  0  0
  185.0890  178.9740  139.2500 C   0  0  0  0  0  0  0  0  0  0  0  0
  185.8570  178.2700  144.1710 C   0  0  0  0  0  2  0  0  0  0  0  0
  188.0570  177.7950  141.2750 C   0  0  0  0  0  0  0  0  0  0  0  0
  187.9420  178.2310  138.8010 C   0  0  0  0  0  2  0  0  0  0  0  0
  190.7820  176.0460  139.4690 O   0  0  0  0  0  0  0  0  0  0  0  0
  190.4210  178.5810  142.8890 C   0  0  1  0  0  3  0  0  0  0  0  0
  189.7480  176.7320  139.6960 C   0  0  0  0  0  0  0  0  0  0  0  0
  189.4060  178.5600  144.0240 C   0  0  2  0  0  3  0  0  0  0  0  0
  187.1630  177.7850  144.8270 C   0  0  1  0  0  3  0  0  0  0  0  0
  188.9180  177.1660  138.6100 N   0  0  0  0  0  0  0  0  0  0  0  0
  189.3380  177.0060  141.1130 C   0  0  1  0  0  3  0  0  0  0  0  0
  183.7650  179.3580  139.4850 C   0  0  0  0  0  3  0  0  0  0  0  0
  190.2010  178.0510  145.1760 C   0  0  0  0  0  2  0  0  0  0  0  0
  191.6810  178.8430  143.4600 O   0  0  0  0  0  0  0  0  0  0  0  0
  185.5210  178.9650  137.9650 F   0  0  0  0  0  0  0  0  0  0  0  0
  186.1940  178.2840  142.7240 C   0  0  0  0  0  0  0  0  0  0  0  0
  183.2480  179.3780  140.7780 C   0  0  0  0  0  3  0  0  0  0  0  0
  185.9260  178.5960  140.3310 C   0  0  0  0  0  0  0  0  0  0  0  0
  187.4990  177.9350  142.5470 C   0  0  0  0  0  0  0  0  0  0  0  0
  186.9730  176.3780  145.3620 C   0  0  0  0  0  1  0  0  0  0  0  0
  188.1890  177.7810  143.7790 N   0  0  0  0  0  0  0  0  0  0  0  0
  191.5950  178.5340  144.8370 C   0  0  0  0  0  2  0  0  0  0  0  0
  190.7700  176.1790  142.8500 O   0  0  0  0  0  1  0  0  0  0  0  0
  184.0510  179.0130  141.8560 C   0  0  0  0  0  3  0  0  0  0  0  0
  185.3790  178.6240  141.6460 C   0  0  0  0  0  0  0  0  0  0  0  0
  190.5140  177.2960  142.0510 C   0  0  2  0  0  3  0  0  0  0  0  0
  189.2030  176.7460  137.2460 C   0  0  0  0  0  2  0  0  0  0  0  0
  187.5990  175.1590  136.6720 C   0  0  0  0  0  1  0  0  0  0  0  0
  187.9600  176.5570  136.5200 N   0  0  0  0  0  2  0  0  0  0  0  0
  1 19  2  0  0  0  0
  1  4  1  0  0  0  0
  2 13  2  0  0  0  0
  2 19  1  0  0  0  0
  3 10  1  0  0  0  0
  4 20  2  0  0  0  0
  5  1  1  0  0  0  0
  6  8  2  0  0  0  0
  7 15  1  1  0  0  0
  7  9  1  0  0  0  0
  9 14  1  1  0  0  0
 10 21  1  6  0  0  0
 11  5  1  0  0  0  0
 11  8  1  0  0  0  0
 12  8  1  6  0  0  0
 12  4  1  0  0  0  0
 12 27  1  0  0  0  0
 13 18  1  0  0  0  0
 15 23  1  0  0  0  0
 16  2  1  0  0  0  0
 17  3  1  0  0  0  0
 18 25  2  0  0  0  0
 19 26  1  0  0  0  0
 20 17  1  0  0  0  0
 20 22  1  0  0  0  0
 22  9  1  0  0  0  0
 22 10  1  0  0  0  0
 23 14  1  0  0  0  0
 26 25  1  0  0  0  0
 26 17  2  0  0  0  0
 27 24  1  1  0  0  0
 27  7  1  0  0  0  0
 28 11  1  0  0  0  0
 30 29  1  0  0  0  0
 30 28  1  0  0  0  0
M  END
>  <MODEL>
8

>  <REMARK>
 VINA RESULT:      -7.0      2.961      5.607
  Name = 
  2 active torsions:
  status: ('A' for Active; 'I' for Inactive)
    1  A    between atoms: N_11  and  C_28
    2  A    between atoms: C_28  and  N_30
                            x       y       z     vdW  Elec       q    Type
                         _______ _______ _______ _____ _____    ______ ____

>  <TORSDO>
F 2

$$$$
=
 OpenBabel11122410233D

 30 35  0  0  1  0  0  0  0  0999 V2000
  185.5290  178.7300  140.7220 C   0  0  0  0  0  0  0  0  0  0  0  0
  188.0020  178.5750  140.3800 C   0  0  0  0  0  0  0  0  0  0  0  0
  184.7240  177.4370  136.7370 C   0  0  0  0  0  2  0  0  0  0  0  0
  184.2240  178.5620  140.1930 C   0  0  0  0  0  0  0  0  0  0  0  0
  185.6800  179.3300  142.0940 C   0  0  0  0  0  2  0  0  0  0  0  0
  182.3470  178.6280  143.3890 O   0  0  0  0  0  0  0  0  0  0  0  0
  181.7810  180.0490  139.4000 C   0  0  1  0  0  3  0  0  0  0  0  0
  183.2920  178.7050  142.5580 C   0  0  0  0  0  0  0  0  0  0  0  0
  182.0320  179.3580  138.0660 C   0  0  2  0  0  3  0  0  0  0  0  0
  183.1890  177.5030  136.8420 C   0  0  1  0  0  3  0  0  0  0  0  0
  184.6390  178.8920  143.0130 N   0  0  0  0  0  0  0  0  0  0  0  0
  183.0140  178.4990  141.0980 C   0  0  1  0  0  3  0  0  0  0  0  0
  189.0770  178.2530  139.5480 C   0  0  0  0  0  3  0  0  0  0  0  0
  180.6560  179.0770  137.5690 C   0  0  0  0  0  2  0  0  0  0  0  0
  180.5700  180.7580  139.2810 O   0  0  0  0  0  0  0  0  0  0  0  0
  188.2840  178.9970  141.6370 F   0  0  0  0  0  0  0  0  0  0  0  0
  185.1700  177.8640  138.0880 C   0  0  0  0  0  0  0  0  0  0  0  0
  188.8630  177.7990  138.2480 C   0  0  0  0  0  3  0  0  0  0  0  0
  186.6690  178.4400  139.9100 C   0  0  0  0  0  0  0  0  0  0  0  0
  184.0920  178.1980  138.8510 C   0  0  0  0  0  0  0  0  0  0  0  0
  182.6170  176.0980  136.8420 C   0  0  0  0  0  1  0  0  0  0  0  0
  182.8780  178.1620  138.1150 N   0  0  0  0  0  0  0  0  0  0  0  0
  179.8580  180.2030  138.1930 C   0  0  0  0  0  2  0  0  0  0  0  0
  180.7320  178.1330  140.4570 O   0  0  0  0  0  1  0  0  0  0  0  0
  187.5640  177.6610  137.7640 C   0  0  0  0  0  3  0  0  0  0  0  0
  186.4710  177.9760  138.5780 C   0  0  0  0  0  0  0  0  0  0  0  0
  181.6980  179.1270  140.6260 C   0  0  2  0  0  3  0  0  0  0  0  0
  184.9450  178.9040  144.4370 C   0  0  0  0  0  2  0  0  0  0  0  0
  186.2530  178.0150  146.1460 C   0  0  0  0  0  1  0  0  0  0  0  0
  186.0580  178.0120  144.7070 N   0  0  0  0  0  2  0  0  0  0  0  0
  1  5  1  0  0  0  0
  2 16  1  0  0  0  0
  3 10  1  0  0  0  0
  3 17  1  0  0  0  0
  4  1  1  0  0  0  0
  5 11  1  0  0  0  0
  7 15  1  6  0  0  0
  7 27  1  0  0  0  0
  8 11  1  0  0  0  0
  8  6  2  0  0  0  0
  9 14  1  1  0  0  0
  9 22  1  0  0  0  0
  9  7  1  0  0  0  0
 10 21  1  1  0  0  0
 10 22  1  0  0  0  0
 11 28  1  0  0  0  0
 12  4  1  6  0  0  0
 12  8  1  0  0  0  0
 13  2  2  0  0  0  0
 14 23  1  0  0  0  0
 17 26  2  0  0  0  0
 17 20  1  0  0  0  0
 18 13  1  0  0  0  0
 19  2  1  0  0  0  0
 19  1  2  0  0  0  0
 20  4  2  0  0  0  0
 22 20  1  0  0  0  0
 23 15  1  0  0  0  0
 25 18  2  0  0  0  0
 25 26  1  0  0  0  0
 26 19  1  0  0  0  0
 27 24  1  6  0  0  0
 27 12  1  0  0  0  0
 28 30  1  0  0  0  0
 30 29  1  0  0  0  0
M  END
>  <MODEL>
9

>  <REMARK>
 VINA RESULT:      -6.9      2.978      6.109
  Name = 
  2 active torsions:
  status: ('A' for Active; 'I' for Inactive)
    1  A    between atoms: N_11  and  C_28
    2  A    between atoms: C_28  and  N_30
                            x       y       z     vdW  Elec       q    Type
                         _______ _______ _______ _____ _____    ______ ____

>  <TORSDO>
F 2

$$$$
