=
 OpenBabel11122411543D

 28 32  0  0  1  0  0  0  0  0999 V2000
  187.0730  176.0320  137.4030 C   0  0  0  0  0  0  0  0  0  0  0  0
  183.7370  177.8420  140.5210 O   0  0  0  0  0  0  0  0  0  0  0  0
  181.1150  173.8770  135.9660 C   0  0  0  0  0  1  0  0  0  0  0  0
  187.7530  178.7160  136.8460 C   0  0  0  0  0  3  0  0  0  0  0  0
  181.4310  176.1910  135.8890 C   0  0  2  0  0  3  0  0  0  0  0  0
  186.9760  174.7510  137.1850 N   0  0  0  0  0  0  0  0  0  0  0  0
  185.2480  179.4300  139.3800 O   0  0  0  0  0  0  0  0  0  0  0  0
  183.9110  178.7480  139.3350 S   0  0  0  0  0  0  0  0  0  0  0  0
  181.7190  179.9860  138.2220 C   0  0  0  0  0  0  0  0  0  0  0  0
  183.7130  177.8490  137.8580 C   0  0  0  0  0  0  0  0  0  0  0  0
  184.5870  172.0010  136.9110 C   0  0  0  0  0  1  0  0  0  0  0  0
  183.7760  176.1250  136.2120 C   0  0  2  0  0  3  0  0  0  0  0  0
  181.7530  179.1430  137.2270 N   0  0  0  0  0  0  0  0  0  0  0  0
  182.6540  179.9280  139.3070 N   0  0  0  0  0  2  0  0  0  0  0  0
  184.9430  173.3620  137.4710 C   0  0  2  0  0  3  0  0  0  0  0  0
  185.9880  177.0170  137.1090 C   0  0  0  0  0  0  0  0  0  0  0  0
  181.7730  174.9900  136.6360 N   0  0  0  0  0  0  0  0  0  0  0  0
  180.6690  181.0370  138.2370 C   0  0  0  0  0  1  0  0  0  0  0  0
  183.6600  174.1610  137.7090 C   0  0  0  0  0  2  0  0  0  0  0  0
  186.3460  178.2740  136.8000 C   0  0  0  0  0  3  0  0  0  0  0  0
  188.3750  176.5560  137.6840 N   0  0  0  0  0  2  0  0  0  0  0  0
  188.7020  177.8990  137.3060 C   0  0  0  0  0  3  0  0  0  0  0  0
  185.8840  174.0650  136.5040 C   0  0  0  0  0  2  0  0  0  0  0  0
  182.6470  177.1030  135.9120 C   0  0  2  0  0  3  0  0  0  0  0  0
  183.1610  174.7980  136.4780 N   0  0  2  0  0  0  0  0  0  0  0  0
  182.6940  178.0670  137.0560 C   0  0  0  0  0  0  0  0  0  0  0  0
  180.1370  176.8130  136.4040 C   0  0  0  0  0  1  0  0  0  0  0  0
  184.5420  176.6960  137.4210 C   0  0  1  0  0  3  0  0  0  0  0  0
  1 21  1  0  0  0  0
  3 17  1  0  0  0  0
  4 22  2  0  0  0  0
  5 24  1  0  0  0  0
  5 27  1  1  0  0  0
  5 17  1  0  0  0  0
  6  1  2  0  0  0  0
  8  7  2  0  0  0  0
  8  2  2  0  0  0  0
  9 18  1  0  0  0  0
  9 14  1  0  0  0  0
 10  8  1  0  0  0  0
 11 15  1  0  0  0  0
 12 25  1  0  0  0  0
 12 28  1  0  0  0  0
 13  9  2  0  0  0  0
 14  8  1  0  0  0  0
 15 19  1  0  0  0  0
 16  1  1  0  0  0  0
 16 28  1  0  0  0  0
 20  4  1  0  0  0  0
 20 16  2  0  0  0  0
 22 21  1  0  0  0  0
 23  6  1  0  0  0  0
 23 15  1  0  0  0  0
 24 12  1  0  0  0  0
 24 26  1  0  0  0  0
 25 17  1  0  0  0  0
 25 19  1  0  0  0  0
 26 13  1  0  0  0  0
 26 10  2  0  0  0  0
 28 10  1  0  0  0  0
M  END
>  <MODEL>
1

>  <REMARK>
 VINA RESULT:      -5.7      0.000      0.000
  Name = 
  0 active torsions:
  status: ('A' for Active; 'I' for Inactive)
                            x       y       z     vdW  Elec       q    Type
                         _______ _______ _______ _____ _____    ______ ____

>  <TORSDO>
F 0

$$$$
=
 OpenBabel11122411543D

 28 32  0  0  1  0  0  0  0  0999 V2000
  182.7620  177.1910  136.5330 C   0  0  0  0  0  0  0  0  0  0  0  0
  181.2170  181.3080  138.7230 O   0  0  0  0  0  0  0  0  0  0  0  0
  186.4510  178.6280  141.6840 C   0  0  0  0  0  1  0  0  0  0  0  0
  180.1440  176.2060  136.9290 C   0  0  0  0  0  3  0  0  0  0  0  0
  184.1820  178.2580  142.1010 C   0  0  2  0  0  3  0  0  0  0  0  0
  184.0490  177.1270  136.3390 N   0  0  0  0  0  0  0  0  0  0  0  0
  179.5650  179.5160  138.3120 O   0  0  0  0  0  0  0  0  0  0  0  0
  180.5320  180.1030  139.3010 S   0  0  0  0  0  0  0  0  0  0  0  0
  180.0570  179.9620  142.0090 C   0  0  0  0  0  0  0  0  0  0  0  0
  181.7100  178.9240  139.8030 C   0  0  0  0  0  0  0  0  0  0  0  0
  187.2740  178.1080  137.7450 C   0  0  0  0  0  1  0  0  0  0  0  0
  183.6480  177.5390  139.9080 C   0  0  2  0  0  3  0  0  0  0  0  0
  181.0390  179.1130  142.1320 N   0  0  0  0  0  0  0  0  0  0  0  0
  179.6970  180.5370  140.7460 N   0  0  0  0  0  2  0  0  0  0  0  0
  185.7880  178.3620  137.6010 C   0  0  2  0  0  3  0  0  0  0  0  0
  182.1240  177.3260  137.8790 C   0  0  0  0  0  0  0  0  0  0  0  0
  185.1130  178.8660  141.1630 N   0  0  0  0  0  0  0  0  0  0  0  0
  179.2890  180.3550  143.2190 C   0  0  0  0  0  1  0  0  0  0  0  0
  185.2740  179.0740  138.8540 C   0  0  0  0  0  2  0  0  0  0  0  0
  180.8970  176.8050  138.0480 C   0  0  0  0  0  3  0  0  0  0  0  0
  181.9110  176.8440  135.4360 N   0  0  0  0  0  2  0  0  0  0  0  0
  180.6220  176.2670  135.6840 C   0  0  0  0  0  3  0  0  0  0  0  0
  185.0800  177.0360  137.3650 C   0  0  0  0  0  2  0  0  0  0  0  0
  183.0270  177.6880  141.2920 C   0  0  2  0  0  3  0  0  0  0  0  0
  185.0070  178.1370  139.9600 N   0  0  2  0  0  0  0  0  0  0  0  0
  181.8830  178.6280  141.0720 C   0  0  0  0  0  0  0  0  0  0  0  0
  183.7880  179.2360  143.2030 C   0  0  0  0  0  1  0  0  0  0  0  0
  182.7030  178.2550  138.9240 C   0  0  1  0  0  3  0  0  0  0  0  0
  1 16  1  0  0  0  0
  2  8  2  0  0  0  0
  4 20  1  0  0  0  0
  5 27  1  1  0  0  0
  6  1  2  0  0  0  0
  6 23  1  0  0  0  0
  7  8  2  0  0  0  0
  8 10  1  0  0  0  0
  8 14  1  0  0  0  0
  9 13  2  0  0  0  0
  9 18  1  0  0  0  0
 10 26  2  0  0  0  0
 12 25  1  0  0  0  0
 12 24  1  0  0  0  0
 14  9  1  0  0  0  0
 15 11  1  0  0  0  0
 15 19  1  0  0  0  0
 16 20  2  0  0  0  0
 16 28  1  0  0  0  0
 17  3  1  0  0  0  0
 17  5  1  0  0  0  0
 19 25  1  0  0  0  0
 21 22  1  0  0  0  0
 21  1  1  0  0  0  0
 22  4  2  0  0  0  0
 23 15  1  0  0  0  0
 24  5  1  0  0  0  0
 25 17  1  0  0  0  0
 26 24  1  0  0  0  0
 26 13  1  0  0  0  0
 28 10  1  0  0  0  0
 28 12  1  0  0  0  0
M  END
>  <MODEL>
2

>  <REMARK>
 VINA RESULT:      -5.3      3.119      5.593
  Name = 
  0 active torsions:
  status: ('A' for Active; 'I' for Inactive)
                            x       y       z     vdW  Elec       q    Type
                         _______ _______ _______ _____ _____    ______ ____

>  <TORSDO>
F 0

$$$$
=
 OpenBabel11122411543D

 28 32  0  0  1  0  0  0  0  0999 V2000
  186.6220  177.3810  137.3950 C   0  0  0  0  0  0  0  0  0  0  0  0
  188.5470  172.8650  137.5670 O   0  0  0  0  0  0  0  0  0  0  0  0
  192.4510  177.4300  140.2640 C   0  0  0  0  0  1  0  0  0  0  0  0
  186.4510  177.0120  134.6000 C   0  0  0  0  0  3  0  0  0  0  0  0
  192.3860  176.6770  138.0520 C   0  0  2  0  0  3  0  0  0  0  0  0
  186.6930  178.0460  138.5140 N   0  0  0  0  0  0  0  0  0  0  0  0
  187.7650  173.7160  135.3830 O   0  0  0  0  0  0  0  0  0  0  0  0
  188.9440  173.5700  136.3010 S   0  0  0  0  0  0  0  0  0  0  0  0
  191.4940  173.2720  135.3060 C   0  0  0  0  0  0  0  0  0  0  0  0
  189.6480  175.1180  136.6700 C   0  0  0  0  0  0  0  0  0  0  0  0
  188.7520  178.5640  141.4860 C   0  0  0  0  0  1  0  0  0  0  0  0
  190.1140  177.2300  137.6760 C   0  0  2  0  0  3  0  0  0  0  0  0
  191.7950  174.4670  135.7330 N   0  0  0  0  0  0  0  0  0  0  0  0
  190.1980  172.6920  135.5070 N   0  0  0  0  0  2  0  0  0  0  0  0
  188.3130  177.6640  140.3500 C   0  0  2  0  0  3  0  0  0  0  0  0
  187.8110  176.8660  136.6500 C   0  0  0  0  0  0  0  0  0  0  0  0
  191.6730  176.6400  139.3200 N   0  0  0  0  0  0  0  0  0  0  0  0
  192.5300  172.4790  134.5960 C   0  0  0  0  0  1  0  0  0  0  0  0
  189.4520  176.7030  139.9980 C   0  0  0  0  0  2  0  0  0  0  0  0
  187.7140  176.7470  135.3150 C   0  0  0  0  0  3  0  0  0  0  0  0
  185.3660  177.3770  136.7090 N   0  0  0  0  0  2  0  0  0  0  0  0
  185.3320  177.2720  135.2800 C   0  0  0  0  0  3  0  0  0  0  0  0
  187.9060  178.5260  139.1640 C   0  0  0  0  0  2  0  0  0  0  0  0
  191.3450  176.7080  136.9450 C   0  0  2  0  0  3  0  0  0  0  0  0
  190.4570  177.3250  139.1190 N   0  0  2  0  0  0  0  0  0  0  0  0
  190.9180  175.3650  136.4390 C   0  0  0  0  0  0  0  0  0  0  0  0
  193.4070  175.5480  137.9580 C   0  0  0  0  0  1  0  0  0  0  0  0
  188.9740  176.2340  137.3830 C   0  0  1  0  0  3  0  0  0  0  0  0
  1  6  2  0  0  0  0
  4 22  2  0  0  0  0
  4 20  1  0  0  0  0
  5 27  1  6  0  0  0
  5 17  1  0  0  0  0
  6 23  1  0  0  0  0
  7  8  2  0  0  0  0
  8 10  1  0  0  0  0
  8  2  2  0  0  0  0
  9 14  1  0  0  0  0
  9 13  2  0  0  0  0
 10 28  1  0  0  0  0
 12 25  1  0  0  0  0
 13 26  1  0  0  0  0
 14  8  1  0  0  0  0
 15 11  1  0  0  0  0
 16 28  1  0  0  0  0
 16  1  1  0  0  0  0
 17  3  1  0  0  0  0
 18  9  1  0  0  0  0
 19 15  1  0  0  0  0
 20 16  2  0  0  0  0
 21  1  1  0  0  0  0
 22 21  1  0  0  0  0
 23 15  1  0  0  0  0
 24 12  1  0  0  0  0
 24  5  1  0  0  0  0
 25 17  1  0  0  0  0
 25 19  1  0  0  0  0
 26 10  2  0  0  0  0
 26 24  1  0  0  0  0
 28 12  1  0  0  0  0
M  END
>  <MODEL>
3

>  <REMARK>
 VINA RESULT:      -5.3      4.351      8.353
  Name = 
  0 active torsions:
  status: ('A' for Active; 'I' for Inactive)
                            x       y       z     vdW  Elec       q    Type
                         _______ _______ _______ _____ _____    ______ ____

>  <TORSDO>
F 0

$$$$
=
 OpenBabel11122411543D

 28 32  0  0  1  0  0  0  0  0999 V2000
  183.9950  179.0290  143.6430 C   0  0  0  0  0  0  0  0  0  0  0  0
  184.5190  180.5020  138.9860 O   0  0  0  0  0  0  0  0  0  0  0  0
  178.9310  177.1770  140.0190 C   0  0  0  0  0  1  0  0  0  0  0  0
  186.4820  177.7260  143.3270 C   0  0  0  0  0  3  0  0  0  0  0  0
  181.0250  176.3620  139.3760 C   0  0  2  0  0  3  0  0  0  0  0  0
  182.8210  179.2600  144.1580 N   0  0  0  0  0  0  0  0  0  0  0  0
  186.3700  179.2340  140.0230 O   0  0  0  0  0  0  0  0  0  0  0  0
  185.1240  179.1410  139.1900 S   0  0  0  0  0  0  0  0  0  0  0  0
  184.8540  177.2130  137.2440 C   0  0  0  0  0  0  0  0  0  0  0  0
  183.9610  178.0700  139.9170 C   0  0  0  0  0  0  0  0  0  0  0  0
  179.2610  179.4550  143.3610 C   0  0  0  0  0  1  0  0  0  0  0  0
  182.1960  177.1920  141.2590 C   0  0  2  0  0  3  0  0  0  0  0  0
  183.9530  176.6120  137.9710 N   0  0  0  0  0  0  0  0  0  0  0  0
  185.4920  178.4260  137.6650 N   0  0  0  0  0  2  0  0  0  0  0  0
  180.7030  179.5640  142.9080 C   0  0  2  0  0  3  0  0  0  0  0  0
  184.2290  178.1780  142.4370 C   0  0  0  0  0  0  0  0  0  0  0  0
  180.3350  177.5390  139.8820 N   0  0  0  0  0  0  0  0  0  0  0  0
  185.2250  176.6290  135.9300 C   0  0  0  0  0  1  0  0  0  0  0  0
  180.7920  179.2190  141.4200 C   0  0  0  0  0  2  0  0  0  0  0  0
  185.4030  177.5330  142.3390 C   0  0  0  0  0  3  0  0  0  0  0  0
  185.1400  179.3850  144.4250 N   0  0  0  0  0  2  0  0  0  0  0  0
  186.3580  178.6410  144.2920 C   0  0  0  0  0  3  0  0  0  0  0  0
  181.5610  178.6420  143.7620 C   0  0  0  0  0  2  0  0  0  0  0  0
  182.4010  176.3270  140.0210 C   0  0  2  0  0  3  0  0  0  0  0  0
  180.8270  177.7650  141.1840 N   0  0  2  0  0  0  0  0  0  0  0  0
  183.4750  177.0400  139.2600 C   0  0  0  0  0  0  0  0  0  0  0  0
  181.0160  176.3290  137.8510 C   0  0  0  0  0  1  0  0  0  0  0  0
  183.3080  178.2590  141.2380 C   0  0  1  0  0  3  0  0  0  0  0  0
  1  6  2  0  0  0  0
  1 21  1  0  0  0  0
  2  8  2  0  0  0  0
  4 22  2  0  0  0  0
  5 27  1  6  0  0  0
  5 17  1  0  0  0  0
  5 24  1  0  0  0  0
  8 10  1  0  0  0  0
  8  7  2  0  0  0  0
  9 14  1  0  0  0  0
  9 13  2  0  0  0  0
 10 28  1  0  0  0  0
 13 26  1  0  0  0  0
 14  8  1  0  0  0  0
 15 11  1  0  0  0  0
 15 23  1  0  0  0  0
 16  1  1  0  0  0  0
 17  3  1  0  0  0  0
 17 25  1  0  0  0  0
 18  9  1  0  0  0  0
 19 15  1  0  0  0  0
 20 16  2  0  0  0  0
 20  4  1  0  0  0  0
 22 21  1  0  0  0  0
 23  6  1  0  0  0  0
 24 12  1  0  0  0  0
 25 12  1  0  0  0  0
 25 19  1  0  0  0  0
 26 10  2  0  0  0  0
 26 24  1  0  0  0  0
 28 12  1  0  0  0  0
 28 16  1  0  0  0  0
M  END
>  <MODEL>
4

>  <REMARK>
 VINA RESULT:      -5.2      3.958      5.990
  Name = 
  0 active torsions:
  status: ('A' for Active; 'I' for Inactive)
                            x       y       z     vdW  Elec       q    Type
                         _______ _______ _______ _____ _____    ______ ____

>  <TORSDO>
F 0

$$$$
=
 OpenBabel11122411543D

 28 32  0  0  1  0  0  0  0  0999 V2000
  180.0340  178.1310  137.5650 C   0  0  0  0  0  0  0  0  0  0  0  0
  183.6900  174.8530  137.7030 O   0  0  0  0  0  0  0  0  0  0  0  0
  183.7600  179.0010  142.8160 C   0  0  0  0  0  1  0  0  0  0  0  0
  181.0220  178.8640  135.0230 C   0  0  0  0  0  3  0  0  0  0  0  0
  184.8180  179.2110  140.7430 C   0  0  2  0  0  3  0  0  0  0  0  0
  179.3940  178.2810  138.6910 N   0  0  0  0  0  0  0  0  0  0  0  0
  183.3930  176.1810  135.6400 O   0  0  0  0  0  0  0  0  0  0  0  0
  184.1060  176.0900  136.9590 S   0  0  0  0  0  0  0  0  0  0  0  0
  186.6530  177.0880  137.2700 C   0  0  0  0  0  0  0  0  0  0  0  0
  183.8130  177.5040  137.9310 C   0  0  0  0  0  0  0  0  0  0  0  0
  179.8050  178.2410  142.3200 C   0  0  0  0  0  1  0  0  0  0  0  0
  182.8410  179.0670  139.4470 C   0  0  2  0  0  3  0  0  0  0  0  0
  186.1820  178.0410  138.0250 N   0  0  0  0  0  0  0  0  0  0  0  0
  185.8110  176.0770  136.7010 N   0  0  0  0  0  2  0  0  0  0  0  0
  180.2650  177.7740  140.9550 C   0  0  2  0  0  3  0  0  0  0  0  0
  181.4970  178.3870  137.3930 C   0  0  0  0  0  0  0  0  0  0  0  0
  183.8270  178.4380  141.4750 N   0  0  0  0  0  0  0  0  0  0  0  0
  188.1120  177.0410  136.9980 C   0  0  0  0  0  1  0  0  0  0  0  0
  181.7660  177.4760  141.0020 C   0  0  0  0  0  2  0  0  0  0  0  0
  181.9280  178.7800  136.1830 C   0  0  0  0  0  3  0  0  0  0  0  0
  179.2520  177.9760  136.3770 N   0  0  0  0  0  2  0  0  0  0  0  0
  179.7600  178.4410  135.1200 C   0  0  0  0  0  3  0  0  0  0  0  0
  179.9270  178.8430  139.9260 C   0  0  0  0  0  2  0  0  0  0  0  0
  184.3360  179.3250  139.3050 C   0  0  2  0  0  3  0  0  0  0  0  0
  182.5830  178.6930  140.8620 N   0  0  2  0  0  0  0  0  0  0  0  0
  184.8030  178.2340  138.3920 C   0  0  0  0  0  0  0  0  0  0  0  0
  186.2170  178.6280  140.9190 C   0  0  0  0  0  1  0  0  0  0  0  0
  182.4920  177.9490  138.4460 C   0  0  1  0  0  3  0  0  0  0  0  0
  1  6  2  0  0  0  0
  4 22  2  0  0  0  0
  4 20  1  0  0  0  0
  5 27  1  6  0  0  0
  5 17  1  0  0  0  0
  6 23  1  0  0  0  0
  7  8  2  0  0  0  0
  8  2  2  0  0  0  0
  8 10  1  0  0  0  0
  9 13  2  0  0  0  0
 10 26  2  0  0  0  0
 10 28  1  0  0  0  0
 12 25  1  0  0  0  0
 13 26  1  0  0  0  0
 14  8  1  0  0  0  0
 14  9  1  0  0  0  0
 15 19  1  0  0  0  0
 15 11  1  0  0  0  0
 16  1  1  0  0  0  0
 16 28  1  0  0  0  0
 17  3  1  0  0  0  0
 18  9  1  0  0  0  0
 20 16  2  0  0  0  0
 21  1  1  0  0  0  0
 22 21  1  0  0  0  0
 23 15  1  0  0  0  0
 24 12  1  0  0  0  0
 24  5  1  0  0  0  0
 25 19  1  0  0  0  0
 25 17  1  0  0  0  0
 26 24  1  0  0  0  0
 28 12  1  0  0  0  0
M  END
>  <MODEL>
5

>  <REMARK>
 VINA RESULT:      -5.2      2.926      6.431
  Name = 
  0 active torsions:
  status: ('A' for Active; 'I' for Inactive)
                            x       y       z     vdW  Elec       q    Type
                         _______ _______ _______ _____ _____    ______ ____

>  <TORSDO>
F 0

$$$$
=
 OpenBabel11122411543D

 28 32  0  0  1  0  0  0  0  0999 V2000
  187.7300  177.9470  138.2270 C   0  0  0  0  0  0  0  0  0  0  0  0
  190.7290  176.5540  134.5950 O   0  0  0  0  0  0  0  0  0  0  0  0
  185.0050  173.3010  134.5940 C   0  0  0  0  0  1  0  0  0  0  0  0
  189.8360  177.2800  139.9870 C   0  0  0  0  0  3  0  0  0  0  0  0
  187.0070  172.7450  135.6640 C   0  0  2  0  0  3  0  0  0  0  0  0
  186.4980  178.1680  137.8620 N   0  0  0  0  0  0  0  0  0  0  0  0
  191.6140  176.5520  136.9030 O   0  0  0  0  0  0  0  0  0  0  0  0
  190.9620  175.7290  135.8290 S   0  0  0  0  0  0  0  0  0  0  0  0
  191.4620  173.0310  135.6030 C   0  0  0  0  0  0  0  0  0  0  0  0
  189.4610  175.0450  136.3870 C   0  0  0  0  0  0  0  0  0  0  0  0
  183.8950  177.0880  135.5390 C   0  0  0  0  0  1  0  0  0  0  0  0
  187.1610  174.7370  136.9370 C   0  0  2  0  0  3  0  0  0  0  0  0
  190.2470  172.7770  136.0030 N   0  0  0  0  0  0  0  0  0  0  0  0
  191.9530  174.3700  135.4510 N   0  0  0  0  0  2  0  0  0  0  0  0
  185.3670  177.2290  135.8670 C   0  0  2  0  0  3  0  0  0  0  0  0
  188.4270  176.6340  138.0720 C   0  0  0  0  0  0  0  0  0  0  0  0
  186.3190  173.8140  134.9570 N   0  0  0  0  0  0  0  0  0  0  0  0
  192.3660  171.8970  135.2830 C   0  0  0  0  0  1  0  0  0  0  0  0
  186.1510  176.1230  135.1580 C   0  0  0  0  0  2  0  0  0  0  0  0
  189.3920  176.3250  138.9540 C   0  0  0  0  0  3  0  0  0  0  0  0
  188.3560  178.9260  139.0620 N   0  0  0  0  0  2  0  0  0  0  0  0
  189.3630  178.5280  140.0020 C   0  0  0  0  0  3  0  0  0  0  0  0
  185.5440  177.1780  137.3780 C   0  0  0  0  0  2  0  0  0  0  0  0
  187.8490  173.3880  136.7550 C   0  0  2  0  0  3  0  0  0  0  0  0
  186.1090  174.8470  135.8940 N   0  0  2  0  0  0  0  0  0  0  0  0
  189.2430  173.7490  136.3490 C   0  0  0  0  0  0  0  0  0  0  0  0
  187.7680  171.8430  134.6980 C   0  0  0  0  0  1  0  0  0  0  0  0
  188.2600  175.8100  136.8130 C   0  0  1  0  0  3  0  0  0  0  0  0
  1 21  1  0  0  0  0
  2  8  2  0  0  0  0
  3 17  1  0  0  0  0
  4 22  2  0  0  0  0
  5 27  1  6  0  0  0
  5 24  1  0  0  0  0
  6  1  2  0  0  0  0
  8 10  1  0  0  0  0
  8  7  2  0  0  0  0
  9 13  2  0  0  0  0
 10 28  1  0  0  0  0
 11 15  1  0  0  0  0
 13 26  1  0  0  0  0
 14  9  1  0  0  0  0
 14  8  1  0  0  0  0
 15 23  1  0  0  0  0
 16  1  1  0  0  0  0
 16 20  2  0  0  0  0
 17  5  1  0  0  0  0
 17 25  1  0  0  0  0
 18  9  1  0  0  0  0
 19 15  1  0  0  0  0
 19 25  1  0  0  0  0
 20  4  1  0  0  0  0
 21 22  1  0  0  0  0
 23  6  1  0  0  0  0
 24 12  1  0  0  0  0
 25 12  1  0  0  0  0
 26 10  2  0  0  0  0
 26 24  1  0  0  0  0
 28 12  1  0  0  0  0
 28 16  1  0  0  0  0
M  END
>  <MODEL>
6

>  <REMARK>
 VINA RESULT:      -5.1      3.906      6.918
  Name = 
  0 active torsions:
  status: ('A' for Active; 'I' for Inactive)
                            x       y       z     vdW  Elec       q    Type
                         _______ _______ _______ _____ _____    ______ ____

>  <TORSDO>
F 0

$$$$
=
 OpenBabel11122411543D

 28 32  0  0  1  0  0  0  0  0999 V2000
  190.3280  177.1280  147.5240 C   0  0  0  0  0  0  0  0  0  0  0  0
  190.9300  179.9170  143.5250 O   0  0  0  0  0  0  0  0  0  0  0  0
  184.6150  178.5320  144.7680 C   0  0  0  0  0  1  0  0  0  0  0  0
  192.0560  175.2730  146.2760 C   0  0  0  0  0  3  0  0  0  0  0  0
  186.1440  177.3520  143.4510 C   0  0  2  0  0  3  0  0  0  0  0  0
  189.3960  177.5370  148.3380 N   0  0  0  0  0  0  0  0  0  0  0  0
  192.2240  177.8180  143.6870 O   0  0  0  0  0  0  0  0  0  0  0  0
  190.9670  178.4570  143.1720 S   0  0  0  0  0  0  0  0  0  0  0  0
  189.7690  177.5760  140.8560 C   0  0  0  0  0  0  0  0  0  0  0  0
  189.5530  177.6530  143.7920 C   0  0  0  0  0  0  0  0  0  0  0  0
  186.1430  179.1920  148.4680 C   0  0  0  0  0  1  0  0  0  0  0  0
  187.7260  176.9980  145.1780 C   0  0  2  0  0  3  0  0  0  0  0  0
  188.7800  177.0930  141.5560 N   0  0  0  0  0  0  0  0  0  0  0  0
  190.8710  178.2630  141.4610 N   0  0  0  0  0  2  0  0  0  0  0  0
  187.4590  178.9660  147.7530 C   0  0  2  0  0  3  0  0  0  0  0  0
  190.0870  176.7450  146.0990 C   0  0  0  0  0  0  0  0  0  0  0  0
  186.0270  178.4240  144.4280 N   0  0  0  0  0  0  0  0  0  0  0  0
  189.7480  177.4180  139.3790 C   0  0  0  0  0  1  0  0  0  0  0  0
  187.2580  179.1750  146.2500 C   0  0  0  0  0  2  0  0  0  0  0  0
  190.8970  175.8250  145.5490 C   0  0  0  0  0  3  0  0  0  0  0  0
  191.5910  176.7690  148.0940 N   0  0  0  0  0  2  0  0  0  0  0  0
  192.3970  175.7610  147.4710 C   0  0  0  0  0  3  0  0  0  0  0  0
  187.9630  177.5670  148.0740 C   0  0  0  0  0  2  0  0  0  0  0  0
  187.4510  176.6260  143.7250 C   0  0  2  0  0  3  0  0  0  0  0  0
  186.6940  177.9840  145.5900 N   0  0  2  0  0  0  0  0  0  0  0  0
  188.6380  177.1600  142.9870 C   0  0  0  0  0  0  0  0  0  0  0  0
  185.9730  177.8780  142.0300 C   0  0  0  0  0  1  0  0  0  0  0  0
  189.1600  177.5590  145.2220 C   0  0  1  0  0  3  0  0  0  0  0  0
  1 21  1  0  0  0  0
  1  6  2  0  0  0  0
  4 22  2  0  0  0  0
  5 27  1  6  0  0  0
  5 24  1  0  0  0  0
  5 17  1  0  0  0  0
  8  2  2  0  0  0  0
  8  7  2  0  0  0  0
  8 10  1  0  0  0  0
  9 14  1  0  0  0  0
  9 13  2  0  0  0  0
 10 28  1  0  0  0  0
 12 28  1  0  0  0  0
 12 25  1  0  0  0  0
 13 26  1  0  0  0  0
 14  8  1  0  0  0  0
 15 23  1  0  0  0  0
 15 11  1  0  0  0  0
 16  1  1  0  0  0  0
 17  3  1  0  0  0  0
 17 25  1  0  0  0  0
 18  9  1  0  0  0  0
 19 15  1  0  0  0  0
 20 16  2  0  0  0  0
 20  4  1  0  0  0  0
 22 21  1  0  0  0  0
 23  6  1  0  0  0  0
 24 12  1  0  0  0  0
 25 19  1  0  0  0  0
 26 24  1  0  0  0  0
 26 10  2  0  0  0  0
 28 16  1  0  0  0  0
M  END
>  <MODEL>
7

>  <REMARK>
 VINA RESULT:      -4.9      8.115      9.976
  Name = 
  0 active torsions:
  status: ('A' for Active; 'I' for Inactive)
                            x       y       z     vdW  Elec       q    Type
                         _______ _______ _______ _____ _____    ______ ____

>  <TORSDO>
F 0

$$$$
=
 OpenBabel11122411543D

 28 32  0  0  1  0  0  0  0  0999 V2000
  189.2150  178.1210  140.5520 C   0  0  0  0  0  0  0  0  0  0  0  0
  193.5570  178.0200  138.2550 O   0  0  0  0  0  0  0  0  0  0  0  0
  188.6530  175.5890  134.5950 C   0  0  0  0  0  1  0  0  0  0  0  0
  190.4570  176.6130  142.5920 C   0  0  0  0  0  3  0  0  0  0  0  0
  190.0750  174.4680  136.0720 C   0  0  2  0  0  3  0  0  0  0  0  0
  188.2300  178.5830  139.8350 N   0  0  0  0  0  0  0  0  0  0  0  0
  193.4060  177.0140  140.5070 O   0  0  0  0  0  0  0  0  0  0  0  0
  193.3300  176.7530  139.0300 S   0  0  0  0  0  0  0  0  0  0  0  0
  194.1140  174.3370  137.9700 C   0  0  0  0  0  0  0  0  0  0  0  0
  191.8000  176.0480  138.5950 C   0  0  0  0  0  0  0  0  0  0  0  0
  186.9250  178.7690  136.4280 C   0  0  0  0  0  1  0  0  0  0  0  0
  189.5140  175.7610  137.9750 C   0  0  2  0  0  3  0  0  0  0  0  0
  192.8700  174.0590  137.6950 N   0  0  0  0  0  0  0  0  0  0  0  0
  194.5040  175.5720  138.5840 N   0  0  0  0  0  2  0  0  0  0  0  0
  188.1110  178.6300  137.3600 C   0  0  2  0  0  3  0  0  0  0  0  0
  190.0270  176.9200  140.1850 C   0  0  0  0  0  0  0  0  0  0  0  0
  189.6490  175.7890  135.6390 N   0  0  0  0  0  0  0  0  0  0  0  0
  195.1660  173.3460  137.6260 C   0  0  0  0  0  1  0  0  0  0  0  0
  189.2110  177.8300  136.6590 C   0  0  0  0  0  2  0  0  0  0  0  0
  190.5650  176.1960  141.1810 C   0  0  0  0  0  3  0  0  0  0  0  0
  189.3530  178.6220  141.8850 N   0  0  0  0  0  2  0  0  0  0  0  0
  189.9120  177.7890  142.9090 C   0  0  0  0  0  3  0  0  0  0  0  0
  187.6530  177.9630  138.6490 C   0  0  0  0  0  2  0  0  0  0  0  0
  190.3310  174.5400  137.5690 C   0  0  2  0  0  3  0  0  0  0  0  0
  188.9810  176.3770  136.7330 N   0  0  2  0  0  0  0  0  0  0  0  0
  191.7320  174.9010  137.9550 C   0  0  0  0  0  0  0  0  0  0  0  0
  191.2430  173.9590  135.2330 C   0  0  0  0  0  1  0  0  0  0  0  0
  190.4680  176.6870  138.7560 C   0  0  1  0  0  3  0  0  0  0  0  0
  1 21  1  0  0  0  0
  2  8  2  0  0  0  0
  3 17  1  0  0  0  0
  4 22  2  0  0  0  0
  5 27  1  6  0  0  0
  5 24  1  0  0  0  0
  6  1  2  0  0  0  0
  8  7  2  0  0  0  0
  9 14  1  0  0  0  0
 10 28  1  0  0  0  0
 10  8  1  0  0  0  0
 11 15  1  0  0  0  0
 12 28  1  0  0  0  0
 13 26  1  0  0  0  0
 13  9  2  0  0  0  0
 14  8  1  0  0  0  0
 15 23  1  0  0  0  0
 16  1  1  0  0  0  0
 16 20  2  0  0  0  0
 17  5  1  0  0  0  0
 17 25  1  0  0  0  0
 18  9  1  0  0  0  0
 19 25  1  0  0  0  0
 19 15  1  0  0  0  0
 20  4  1  0  0  0  0
 21 22  1  0  0  0  0
 23  6  1  0  0  0  0
 24 26  1  0  0  0  0
 24 12  1  0  0  0  0
 25 12  1  0  0  0  0
 26 10  2  0  0  0  0
 28 16  1  0  0  0  0
M  END
>  <MODEL>
8

>  <REMARK>
 VINA RESULT:      -4.9      5.555      8.610
  Name = 
  0 active torsions:
  status: ('A' for Active; 'I' for Inactive)
                            x       y       z     vdW  Elec       q    Type
                         _______ _______ _______ _____ _____    ______ ____

>  <TORSDO>
F 0

$$$$
=
 OpenBabel11122411543D

 28 32  0  0  1  0  0  0  0  0999 V2000
  186.7410  178.1000  139.3660 C   0  0  0  0  0  0  0  0  0  0  0  0
  187.1310  175.2380  143.3390 O   0  0  0  0  0  0  0  0  0  0  0  0
  181.7550  179.0380  143.4240 C   0  0  0  0  0  1  0  0  0  0  0  0
  189.2950  179.0960  140.0480 C   0  0  0  0  0  3  0  0  0  0  0  0
  183.8850  179.4920  144.2710 C   0  0  2  0  0  3  0  0  0  0  0  0
  185.5600  178.1080  138.8140 N   0  0  0  0  0  0  0  0  0  0  0  0
  189.0630  176.6530  142.7280 O   0  0  0  0  0  0  0  0  0  0  0  0
  187.8150  176.5570  143.5590 S   0  0  0  0  0  0  0  0  0  0  0  0
  187.6360  177.8050  146.0060 C   0  0  0  0  0  0  0  0  0  0  0  0
  186.7240  177.8670  143.2060 C   0  0  0  0  0  0  0  0  0  0  0  0
  181.9880  177.8830  139.5410 C   0  0  0  0  0  1  0  0  0  0  0  0
  185.0260  179.2150  142.2140 C   0  0  2  0  0  3  0  0  0  0  0  0
  186.7790  178.6520  145.5060 N   0  0  0  0  0  0  0  0  0  0  0  0
  188.2080  176.7460  145.2270 N   0  0  0  0  0  2  0  0  0  0  0  0
  183.4150  177.5570  139.9260 C   0  0  2  0  0  3  0  0  0  0  0  0
  187.0100  178.5240  140.7740 C   0  0  0  0  0  0  0  0  0  0  0  0
  183.1340  178.5700  143.4320 N   0  0  0  0  0  0  0  0  0  0  0  0
  188.0270  177.9340  147.4330 C   0  0  0  0  0  1  0  0  0  0  0  0
  183.5090  177.4210  141.4480 C   0  0  0  0  0  2  0  0  0  0  0  0
  188.2190  179.0380  141.0560 C   0  0  0  0  0  3  0  0  0  0  0  0
  187.8710  177.9360  138.5030 N   0  0  0  0  0  2  0  0  0  0  0  0
  189.1280  178.5320  138.8490 C   0  0  0  0  0  3  0  0  0  0  0  0
  184.3340  178.6450  139.3910 C   0  0  0  0  0  2  0  0  0  0  0  0
  185.2670  179.6440  143.6570 C   0  0  2  0  0  3  0  0  0  0  0  0
  183.6260  178.7270  142.1200 N   0  0  2  0  0  0  0  0  0  0  0  0
  186.2910  178.6700  144.1530 C   0  0  0  0  0  0  0  0  0  0  0  0
  183.8630  179.0550  145.7320 C   0  0  0  0  0  1  0  0  0  0  0  0
  186.0740  178.1310  141.8960 C   0  0  1  0  0  3  0  0  0  0  0  0
  1 16  1  0  0  0  0
  2  8  2  0  0  0  0
  3 17  1  0  0  0  0
  4 20  1  0  0  0  0
  5 27  1  1  0  0  0
  6  1  2  0  0  0  0
  6 23  1  0  0  0  0
  7  8  2  0  0  0  0
  8 14  1  0  0  0  0
  9 18  1  0  0  0  0
 10  8  1  0  0  0  0
 10 26  2  0  0  0  0
 11 15  1  0  0  0  0
 12 24  1  0  0  0  0
 13  9  2  0  0  0  0
 14  9  1  0  0  0  0
 15 19  1  0  0  0  0
 16 20  2  0  0  0  0
 16 28  1  0  0  0  0
 17  5  1  0  0  0  0
 19 25  1  0  0  0  0
 21 22  1  0  0  0  0
 21  1  1  0  0  0  0
 22  4  2  0  0  0  0
 23 15  1  0  0  0  0
 24 26  1  0  0  0  0
 24  5  1  0  0  0  0
 25 12  1  0  0  0  0
 25 17  1  0  0  0  0
 26 13  1  0  0  0  0
 28 12  1  0  0  0  0
 28 10  1  0  0  0  0
M  END
>  <MODEL>
9

>  <REMARK>
 VINA RESULT:      -4.7      5.382      6.967
  Name = 
  0 active torsions:
  status: ('A' for Active; 'I' for Inactive)
                            x       y       z     vdW  Elec       q    Type
                         _______ _______ _______ _____ _____    ______ ____

>  <TORSDO>
F 0

$$$$
