=
 OpenBabel11122411233D

 37 43  0  0  1  0  0  0  0  0999 V2000
  180.7890  180.8880  138.8960 C   0  0  0  0  0  2  0  0  0  0  0  0
  180.2310  178.2860  143.5720 C   0  0  1  0  0  0  0  0  0  0  0  0
  182.9960  179.2110  140.6560 C   0  0  1  0  0  3  0  0  0  0  0  0
  179.9090  182.0320  138.3860 C   0  0  2  0  0  3  0  0  0  0  0  0
  181.7810  177.9590  137.3280 O   0  0  0  0  0  0  0  0  0  0  0  0
  182.5270  179.0320  143.1610 C   0  0  0  0  0  0  0  0  0  0  0  0
  182.1740  178.3770  139.6950 C   0  0  2  0  0  3  0  0  0  0  0  0
  179.5070  180.7370  136.1700 C   0  0  2  0  0  3  0  0  0  0  0  0
  182.0580  179.5360  141.8090 C   0  0  2  0  0  3  0  0  0  0  0  0
  182.6160  178.6150  138.2380 C   0  0  1  0  0  3  0  0  0  0  0  0
  183.9910  179.0350  143.5150 C   0  0  0  0  0  2  0  0  0  0  0  0
  178.9310  181.6470  137.2660 C   0  0  0  0  0  2  0  0  0  0  0  0
  180.6660  179.0240  141.3940 C   0  0  2  0  0  3  0  0  0  0  0  0
  179.4110  179.5320  143.9020 C   0  0  0  0  0  1  0  0  0  0  0  0
  185.2900  178.2540  139.9700 C   0  0  0  0  0  2  0  0  0  0  0  0
  184.8890  179.1850  142.2810 C   0  0  0  0  0  2  0  0  0  0  0  0
  180.1770  177.9570  142.1930 O   0  0  0  0  0  0  0  0  0  0  0  0
  179.8840  179.3040  136.6250 C   0  0  1  0  0  3  0  0  0  0  0  0
  181.3730  178.9730  136.4560 C   0  0  0  0  0  2  0  0  0  0  0  0
  184.2660  178.4670  141.0890 C   0  0  1  0  0  3  0  0  0  0  0  0
  180.7390  178.5950  139.9980 N   0  0  1  0  0  0  0  0  0  0  0  0
  181.6600  178.4570  143.9950 C   0  0  0  0  0  3  0  0  0  0  0  0
  184.0920  178.2570  137.9820 C   0  0  1  0  0  3  0  0  0  0  0  0
  179.6990  177.2330  144.2910 F   0  0  0  0  0  0  0  0  0  0  0  0
  179.3100  178.9270  138.0020 C   0  0  0  0  0  2  0  0  0  0  0  0
  180.5370  181.3780  135.4740 O   0  0  0  0  0  1  0  0  0  0  0  0
  180.0080  179.5950  139.1980 C   0  0  2  0  0  3  0  0  0  0  0  0
  185.0010  178.9800  138.7960 O   0  0  0  0  0  0  0  0  0  0  0  0
  183.5060  175.8230  138.1720 C   0  0  0  0  0  3  0  0  0  0  0  0
  184.4110  176.7990  137.7410 C   0  0  0  0  0  0  0  0  0  0  0  0
  185.5790  176.4110  137.0690 C   0  0  0  0  0  3  0  0  0  0  0  0
  187.0840  174.6530  136.1330 C   0  0  0  0  0  1  0  0  0  0  0  0
  184.9390  174.0860  137.2810 C   0  0  0  0  0  3  0  0  0  0  0  0
  185.8440  175.0580  136.8430 C   0  0  0  0  0  0  0  0  0  0  0  0
  183.7700  174.4690  137.9450 C   0  0  0  0  0  3  0  0  0  0  0  0
  179.8560  184.2250  137.5740 C   0  0  0  0  0  1  0  0  0  0  0  0
  180.7450  183.1410  137.9550 N   0  0  0  0  0  2  0  0  0  0  0  0
  1 27  1  0  0  0  0
  2 14  1  1  0  0  0
  2 22  1  0  0  0  0
  2 24  1  0  0  0  0
  3 20  1  0  0  0  0
  3  9  1  0  0  0  0
  4  1  1  0  0  0  0
  5 10  1  0  0  0  0
  6 11  1  0  0  0  0
  6 22  2  0  0  0  0
  7 21  1  0  0  0  0
  7  3  1  0  0  0  0
  8 18  1  0  0  0  0
  8 12  1  0  0  0  0
  9  6  1  0  0  0  0
 10  7  1  0  0  0  0
 12  4  1  0  0  0  0
 13  9  1  0  0  0  0
 13 17  1  0  0  0  0
 15 20  1  0  0  0  0
 16 11  1  0  0  0  0
 17  2  1  0  0  0  0
 18 25  1  0  0  0  0
 19 18  1  0  0  0  0
 19  5  1  0  0  0  0
 20 16  1  0  0  0  0
 21 13  1  0  0  0  0
 23 10  1  0  0  0  0
 23 28  1  0  0  0  0
 25 27  1  0  0  0  0
 26  8  1  0  0  0  0
 27 21  1  0  0  0  0
 28 15  1  0  0  0  0
 30 23  1  0  0  0  0
 30 29  2  0  0  0  0
 31 30  1  0  0  0  0
 32 34  1  0  0  0  0
 33 35  2  0  0  0  0
 34 31  2  0  0  0  0
 34 33  1  0  0  0  0
 35 29  1  0  0  0  0
 36 37  1  0  0  0  0
 37  4  1  0  0  0  0
M  END
>  <MODEL>
1

>  <REMARK>
 VINA RESULT:      -6.8      0.000      0.000
  Name = 
  2 active torsions:
  status: ('A' for Active; 'I' for Inactive)
    1  A    between atoms: C_4  and  N_37
    2  A    between atoms: C_23  and  C_30
                            x       y       z     vdW  Elec       q    Type
                         _______ _______ _______ _____ _____    ______ ____

>  <TORSDO>
F 2

$$$$
=
 OpenBabel11122411233D

 37 43  0  0  1  0  0  0  0  0999 V2000
  182.0910  179.9730  138.9970 C   0  0  0  0  0  2  0  0  0  0  0  0
  185.2600  178.3760  143.0420 C   0  0  1  0  0  0  0  0  0  0  0  0
  184.9140  178.2980  138.9330 C   0  0  1  0  0  3  0  0  0  0  0  0
  181.0970  181.1360  139.0310 C   0  0  2  0  0  3  0  0  0  0  0  0
  181.6580  176.6880  137.9750 O   0  0  0  0  0  0  0  0  0  0  0  0
  186.4700  178.6500  140.9290 C   0  0  0  0  0  0  0  0  0  0  0  0
  183.6710  177.4520  139.1130 C   0  0  2  0  0  3  0  0  0  0  0  0
  179.2110  179.5490  138.2100 C   0  0  2  0  0  3  0  0  0  0  0  0
  185.1380  178.9740  140.2780 C   0  0  2  0  0  3  0  0  0  0  0  0
  182.8770  177.3500  137.7970 C   0  0  1  0  0  3  0  0  0  0  0  0
  187.7110  178.4750  140.0930 C   0  0  0  0  0  2  0  0  0  0  0  0
  179.6190  180.7220  139.1140 C   0  0  0  0  0  2  0  0  0  0  0  0
  183.9130  178.6320  141.1450 C   0  0  2  0  0  3  0  0  0  0  0  0
  184.9290  179.7790  143.5480 C   0  0  0  0  0  1  0  0  0  0  0  0
  185.9590  176.8700  137.0570 C   0  0  0  0  0  2  0  0  0  0  0  0
  187.3890  178.2530  138.6110 C   0  0  0  0  0  2  0  0  0  0  0  0
  184.2060  177.8200  142.2720 O   0  0  0  0  0  0  0  0  0  0  0  0
  179.8360  178.1790  138.5750 C   0  0  1  0  0  3  0  0  0  0  0  0
  180.7120  177.5820  137.4650 C   0  0  0  0  0  2  0  0  0  0  0  0
  186.1030  177.4450  138.4690 C   0  0  1  0  0  3  0  0  0  0  0  0
  182.9330  177.9530  140.2970 N   0  0  1  0  0  0  0  0  0  0  0  0
  186.5250  178.3840  142.2350 C   0  0  0  0  0  3  0  0  0  0  0  0
  183.6800  176.7150  136.6460 C   0  0  1  0  0  3  0  0  0  0  0  0
  185.4650  177.5710  144.1450 F   0  0  0  0  0  0  0  0  0  0  0  0
  180.4860  178.1530  139.9690 C   0  0  0  0  0  2  0  0  0  0  0  0
  179.3650  179.8770  136.8590 O   0  0  0  0  0  1  0  0  0  0  0  0
  181.8250  178.9010  140.0710 C   0  0  2  0  0  3  0  0  0  0  0  0
  184.8750  177.4120  136.3350 O   0  0  0  0  0  0  0  0  0  0  0  0
  184.4860  174.5340  137.5940 C   0  0  0  0  0  3  0  0  0  0  0  0
  183.7490  175.2050  136.6120 C   0  0  0  0  0  0  0  0  0  0  0  0
  183.0650  174.4670  135.6340 C   0  0  0  0  0  3  0  0  0  0  0  0
  182.4060  172.2950  134.5940 C   0  0  0  0  0  1  0  0  0  0  0  0
  183.8720  172.4060  136.6130 C   0  0  0  0  0  3  0  0  0  0  0  0
  183.1300  173.0710  135.6330 C   0  0  0  0  0  0  0  0  0  0  0  0
  184.5500  173.1370  137.5930 C   0  0  0  0  0  3  0  0  0  0  0  0
  180.3400  183.0770  137.9690 C   0  0  0  0  0  1  0  0  0  0  0  0
  181.3080  181.9970  137.8790 N   0  0  0  0  0  2  0  0  0  0  0  0
  1  4  1  0  0  0  0
  1 27  1  0  0  0  0
  2 14  1  1  0  0  0
  2 24  1  0  0  0  0
  3  7  1  0  0  0  0
  3  9  1  0  0  0  0
  4 12  1  0  0  0  0
  6 22  2  0  0  0  0
  7 21  1  0  0  0  0
  8 18  1  0  0  0  0
  8 12  1  0  0  0  0
  9  6  1  0  0  0  0
  9 13  1  0  0  0  0
 10  5  1  0  0  0  0
 10  7  1  0  0  0  0
 11  6  1  0  0  0  0
 13 17  1  0  0  0  0
 15 20  1  0  0  0  0
 16 11  1  0  0  0  0
 17  2  1  0  0  0  0
 18 25  1  0  0  0  0
 19  5  1  0  0  0  0
 19 18  1  0  0  0  0
 20 16  1  0  0  0  0
 20  3  1  0  0  0  0
 21 13  1  0  0  0  0
 22  2  1  0  0  0  0
 23 10  1  0  0  0  0
 25 27  1  0  0  0  0
 26  8  1  0  0  0  0
 27 21  1  0  0  0  0
 28 23  1  0  0  0  0
 28 15  1  0  0  0  0
 30 23  1  0  0  0  0
 30 29  2  0  0  0  0
 31 30  1  0  0  0  0
 32 34  1  0  0  0  0
 33 35  2  0  0  0  0
 34 31  2  0  0  0  0
 34 33  1  0  0  0  0
 35 29  1  0  0  0  0
 37 36  1  0  0  0  0
 37  4  1  0  0  0  0
M  END
>  <MODEL>
2

>  <REMARK>
 VINA RESULT:      -6.8      2.181      3.247
  Name = 
  2 active torsions:
  status: ('A' for Active; 'I' for Inactive)
    1  A    between atoms: C_4  and  N_37
    2  A    between atoms: C_23  and  C_30
                            x       y       z     vdW  Elec       q    Type
                         _______ _______ _______ _____ _____    ______ ____

>  <TORSDO>
F 2

$$$$
=
 OpenBabel11122411233D

 37 43  0  0  1  0  0  0  0  0999 V2000
  182.6990  176.1920  138.4100 C   0  0  0  0  0  2  0  0  0  0  0  0
  184.7830  179.1250  142.4110 C   0  0  1  0  0  0  0  0  0  0  0  0
  181.3490  178.5980  140.1890 C   0  0  1  0  0  3  0  0  0  0  0  0
  183.1650  174.8020  137.9690 C   0  0  2  0  0  3  0  0  0  0  0  0
  182.1270  179.0580  136.5420 O   0  0  0  0  0  0  0  0  0  0  0  0
  182.3410  178.9620  142.5140 C   0  0  0  0  0  0  0  0  0  0  0  0
  182.1320  179.0600  138.9770 C   0  0  2  0  0  3  0  0  0  0  0  0
  183.4050  175.6560  135.5260 C   0  0  2  0  0  3  0  0  0  0  0  0
  182.3970  178.1870  141.2120 C   0  0  2  0  0  3  0  0  0  0  0  0
  181.3630  178.7640  137.6760 C   0  0  1  0  0  3  0  0  0  0  0  0
  181.0190  179.3890  143.0980 C   0  0  0  0  0  2  0  0  0  0  0  0
  183.9610  174.7730  136.6540 C   0  0  0  0  0  2  0  0  0  0  0  0
  183.7570  178.2580  140.4940 C   0  0  2  0  0  3  0  0  0  0  0  0
  185.3360  177.7590  142.8130 C   0  0  0  0  0  1  0  0  0  0  0  0
  179.2530  180.0300  139.7310 C   0  0  0  0  0  2  0  0  0  0  0  0
  179.8810  179.3260  142.0720 C   0  0  0  0  0  2  0  0  0  0  0  0
  184.6330  179.2520  141.0050 O   0  0  0  0  0  0  0  0  0  0  0  0
  183.4750  177.1840  135.7830 C   0  0  1  0  0  3  0  0  0  0  0  0
  182.1020  177.8700  135.8030 C   0  0  0  0  0  2  0  0  0  0  0  0
  180.4020  179.6980  140.6890 C   0  0  1  0  0  3  0  0  0  0  0  0
  183.5070  178.5120  139.0750 N   0  0  1  0  0  0  0  0  0  0  0  0
  183.4690  179.3900  143.0840 C   0  0  0  0  0  3  0  0  0  0  0  0
  179.9920  179.4610  137.6050 C   0  0  1  0  0  3  0  0  0  0  0  0
  185.6810  180.0840  142.8400 F   0  0  0  0  0  0  0  0  0  0  0  0
  184.3860  177.5670  136.9610 C   0  0  0  0  0  2  0  0  0  0  0  0
  182.1350  175.2260  135.1290 O   0  0  0  0  0  1  0  0  0  0  0  0
  183.8060  177.2620  138.3520 C   0  0  2  0  0  3  0  0  0  0  0  0
  179.1210  179.1110  138.6690 O   0  0  0  0  0  0  0  0  0  0  0  0
  178.9720  181.3560  136.3120 C   0  0  0  0  0  3  0  0  0  0  0  0
  179.9810  180.9090  137.1710 C   0  0  0  0  0  0  0  0  0  0  0  0
  180.9460  181.8160  137.6360 C   0  0  0  0  0  3  0  0  0  0  0  0
  181.9310  184.1080  137.7280 C   0  0  0  0  0  1  0  0  0  0  0  0
  179.8970  183.5930  136.3710 C   0  0  0  0  0  3  0  0  0  0  0  0
  180.9050  183.1530  137.2340 C   0  0  0  0  0  0  0  0  0  0  0  0
  178.9310  182.6940  135.9100 C   0  0  0  0  0  3  0  0  0  0  0  0
  180.8590  174.6510  138.3260 C   0  0  0  0  0  1  0  0  0  0  0  0
  182.0240  173.9070  137.8780 N   0  0  0  0  0  2  0  0  0  0  0  0
  2 14  1  1  0  0  0
  2 24  1  0  0  0  0
  2 22  1  0  0  0  0
  3 20  1  0  0  0  0
  3  9  1  0  0  0  0
  4  1  1  0  0  0  0
  5 10  1  0  0  0  0
  6 22  2  0  0  0  0
  6 11  1  0  0  0  0
  7 21  1  0  0  0  0
  7  3  1  0  0  0  0
  8 18  1  0  0  0  0
  8 12  1  0  0  0  0
  9  6  1  0  0  0  0
 10  7  1  0  0  0  0
 12  4  1  0  0  0  0
 13 17  1  0  0  0  0
 13  9  1  0  0  0  0
 15 20  1  0  0  0  0
 16 11  1  0  0  0  0
 17  2  1  0  0  0  0
 18 19  1  0  0  0  0
 18 25  1  0  0  0  0
 19  5  1  0  0  0  0
 20 16  1  0  0  0  0
 21 13  1  0  0  0  0
 23 10  1  0  0  0  0
 23 28  1  0  0  0  0
 25 27  1  0  0  0  0
 26  8  1  0  0  0  0
 27  1  1  0  0  0  0
 27 21  1  0  0  0  0
 28 15  1  0  0  0  0
 29 30  1  0  0  0  0
 30 23  1  0  0  0  0
 30 31  2  0  0  0  0
 33 34  2  0  0  0  0
 34 31  1  0  0  0  0
 34 32  1  0  0  0  0
 35 29  2  0  0  0  0
 35 33  1  0  0  0  0
 37  4  1  0  0  0  0
 37 36  1  0  0  0  0
M  END
>  <MODEL>
3

>  <REMARK>
 VINA RESULT:      -6.7      2.149      6.077
  Name = 
  2 active torsions:
  status: ('A' for Active; 'I' for Inactive)
    1  A    between atoms: C_4  and  N_37
    2  A    between atoms: C_23  and  C_30
                            x       y       z     vdW  Elec       q    Type
                         _______ _______ _______ _____ _____    ______ ____

>  <TORSDO>
F 2

$$$$
=
 OpenBabel11122411233D

 37 43  0  0  1  0  0  0  0  0999 V2000
  184.6960  175.2830  137.1080 C   0  0  0  0  0  2  0  0  0  0  0  0
  188.7660  178.7930  137.3780 C   0  0  1  0  0  0  0  0  0  0  0  0
  185.3100  177.6380  139.3110 C   0  0  1  0  0  3  0  0  0  0  0  0
  184.7120  173.9320  136.3880 C   0  0  2  0  0  3  0  0  0  0  0  0
  182.4030  177.8790  136.9430 O   0  0  0  0  0  0  0  0  0  0  0  0
  187.7580  178.3260  139.5610 C   0  0  0  0  0  0  0  0  0  0  0  0
  184.5430  178.0910  138.0860 C   0  0  2  0  0  3  0  0  0  0  0  0
  182.5620  174.5960  135.0900 C   0  0  2  0  0  3  0  0  0  0  0  0
  186.7460  177.4550  138.8410 C   0  0  2  0  0  3  0  0  0  0  0  0
  183.0880  177.5870  138.1270 C   0  0  1  0  0  3  0  0  0  0  0  0
  187.6050  178.6270  141.0290 C   0  0  0  0  0  2  0  0  0  0  0  0
  183.9280  173.8920  135.0680 C   0  0  0  0  0  2  0  0  0  0  0  0
  186.7300  177.6390  137.3130 C   0  0  2  0  0  3  0  0  0  0  0  0
  189.5590  177.5490  136.9800 C   0  0  0  0  0  1  0  0  0  0  0  0
  183.7520  178.7430  141.0430 C   0  0  0  0  0  2  0  0  0  0  0  0
  186.1910  178.3290  141.5410 C   0  0  0  0  0  2  0  0  0  0  0  0
  187.4460  178.7770  136.8570 O   0  0  0  0  0  0  0  0  0  0  0  0
  182.6110  176.1360  135.2620 C   0  0  1  0  0  3  0  0  0  0  0  0
  181.9050  176.6390  136.5290 C   0  0  0  0  0  2  0  0  0  0  0  0
  185.1650  178.6460  140.4600 C   0  0  1  0  0  3  0  0  0  0  0  0
  185.3350  177.7360  136.8830 N   0  0  1  0  0  0  0  0  0  0  0  0
  188.7170  178.9420  138.8690 C   0  0  0  0  0  3  0  0  0  0  0  0
  182.3020  178.0940  139.3510 C   0  0  1  0  0  3  0  0  0  0  0  0
  189.4240  179.8920  136.8610 F   0  0  0  0  0  0  0  0  0  0  0  0
  184.0110  176.7340  135.0440 C   0  0  0  0  0  2  0  0  0  0  0  0
  181.6890  173.9730  135.9870 O   0  0  0  0  0  1  0  0  0  0  0  0
  185.0080  176.4780  136.1870 C   0  0  2  0  0  3  0  0  0  0  0  0
  182.8840  177.7270  140.5910 O   0  0  0  0  0  0  0  0  0  0  0  0
  182.2640  180.3960  138.3500 C   0  0  0  0  0  3  0  0  0  0  0  0
  181.7190  179.4860  139.2620 C   0  0  0  0  0  0  0  0  0  0  0  0
  180.6260  179.8700  140.0540 C   0  0  0  0  0  3  0  0  0  0  0  0
  178.9390  181.5580  140.7850 C   0  0  0  0  0  1  0  0  0  0  0  0
  180.6460  182.0640  139.0330 C   0  0  0  0  0  3  0  0  0  0  0  0
  180.0940  181.1560  139.9410 C   0  0  0  0  0  0  0  0  0  0  0  0
  181.7300  181.6830  138.2370 C   0  0  0  0  0  3  0  0  0  0  0  0
  184.2460  171.6450  136.5380 C   0  0  0  0  0  1  0  0  0  0  0  0
  184.2310  172.8920  137.2830 N   0  0  0  0  0  2  0  0  0  0  0  0
  2 14  1  6  0  0  0
  2 22  1  0  0  0  0
  3 20  1  0  0  0  0
  4  1  1  0  0  0  0
  4 37  1  0  0  0  0
  5 10  1  0  0  0  0
  6 11  1  0  0  0  0
  7 10  1  0  0  0  0
  7  3  1  0  0  0  0
  8 18  1  0  0  0  0
  8 26  1  0  0  0  0
  9  3  1  0  0  0  0
  9  6  1  0  0  0  0
 10 23  1  0  0  0  0
 11 16  1  0  0  0  0
 12  8  1  0  0  0  0
 12  4  1  0  0  0  0
 13  9  1  0  0  0  0
 17 13  1  0  0  0  0
 17  2  1  0  0  0  0
 18 19  1  0  0  0  0
 19  5  1  0  0  0  0
 20 15  1  0  0  0  0
 20 16  1  0  0  0  0
 21 13  1  0  0  0  0
 21  7  1  0  0  0  0
 22  6  2  0  0  0  0
 23 28  1  0  0  0  0
 24  2  1  0  0  0  0
 25 18  1  0  0  0  0
 25 27  1  0  0  0  0
 27 21  1  0  0  0  0
 27  1  1  0  0  0  0
 28 15  1  0  0  0  0
 29 30  1  0  0  0  0
 30 23  1  0  0  0  0
 30 31  2  0  0  0  0
 33 34  2  0  0  0  0
 34 31  1  0  0  0  0
 34 32  1  0  0  0  0
 35 29  2  0  0  0  0
 35 33  1  0  0  0  0
 36 37  1  0  0  0  0
M  END
>  <MODEL>
4

>  <REMARK>
 VINA RESULT:      -5.6      3.342      7.325
  Name = 
  2 active torsions:
  status: ('A' for Active; 'I' for Inactive)
    1  A    between atoms: C_4  and  N_37
    2  A    between atoms: C_23  and  C_30
                            x       y       z     vdW  Elec       q    Type
                         _______ _______ _______ _____ _____    ______ ____

>  <TORSDO>
F 2

$$$$
=
 OpenBabel11122411233D

 37 43  0  0  1  0  0  0  0  0999 V2000
  183.3950  175.8660  137.9350 C   0  0  0  0  0  2  0  0  0  0  0  0
  186.3550  178.7680  141.3660 C   0  0  1  0  0  0  0  0  0  0  0  0
  182.5020  178.2720  139.9820 C   0  0  1  0  0  3  0  0  0  0  0  0
  183.7390  174.4750  137.3950 C   0  0  2  0  0  3  0  0  0  0  0  0
  182.4330  178.7430  136.2550 O   0  0  0  0  0  0  0  0  0  0  0  0
  184.0000  178.6190  142.0220 C   0  0  0  0  0  0  0  0  0  0  0  0
  182.9920  178.7340  138.6250 C   0  0  2  0  0  3  0  0  0  0  0  0
  183.4230  175.3390  134.9650 C   0  0  2  0  0  3  0  0  0  0  0  0
  183.7530  177.8490  140.7390 C   0  0  2  0  0  3  0  0  0  0  0  0
  181.9450  178.4480  137.5320 C   0  0  1  0  0  3  0  0  0  0  0  0
  182.8480  179.0510  142.8920 C   0  0  0  0  0  2  0  0  0  0  0  0
  184.2150  174.4470  135.9340 C   0  0  0  0  0  2  0  0  0  0  0  0
  184.9140  177.9160  139.7300 C   0  0  2  0  0  3  0  0  0  0  0  0
  186.9760  177.3960  141.6270 C   0  0  0  0  0  1  0  0  0  0  0  0
  180.3670  179.7180  140.0180 C   0  0  0  0  0  2  0  0  0  0  0  0
  181.5070  178.9990  142.1520 C   0  0  0  0  0  2  0  0  0  0  0  0
  185.8900  178.9010  140.0320 O   0  0  0  0  0  0  0  0  0  0  0  0
  183.5600  176.8640  135.2030 C   0  0  1  0  0  3  0  0  0  0  0  0
  182.2330  177.5590  135.5380 C   0  0  0  0  0  2  0  0  0  0  0  0
  181.7010  179.3750  140.6870 C   0  0  1  0  0  3  0  0  0  0  0  0
  184.3500  178.1780  138.4060 N   0  0  1  0  0  0  0  0  0  0  0  0
  185.2300  179.0370  142.3210 C   0  0  0  0  0  3  0  0  0  0  0  0
  180.5990  179.1540  137.7780 C   0  0  1  0  0  3  0  0  0  0  0  0
  187.3340  179.7190  141.5830 F   0  0  0  0  0  0  0  0  0  0  0  0
  184.7180  177.2370  136.1440 C   0  0  0  0  0  2  0  0  0  0  0  0
  182.0930  174.9180  134.8650 O   0  0  0  0  0  1  0  0  0  0  0  0
  184.4680  176.9290  137.6300 C   0  0  2  0  0  3  0  0  0  0  0  0
  179.9910  178.8050  139.0110 O   0  0  0  0  0  0  0  0  0  0  0  0
  181.1700  181.5760  138.1130 C   0  0  0  0  0  3  0  0  0  0  0  0
  180.5000  180.6040  137.3620 C   0  0  0  0  0  0  0  0  0  0  0  0
  179.7750  180.9880  136.2230 C   0  0  0  0  0  3  0  0  0  0  0  0
  178.9420  182.7330  134.6440 C   0  0  0  0  0  1  0  0  0  0  0  0
  180.3800  183.3000  136.6070 C   0  0  0  0  0  3  0  0  0  0  0  0
  179.7130  182.3330  135.8490 C   0  0  0  0  0  0  0  0  0  0  0  0
  181.1090  182.9220  137.7380 C   0  0  0  0  0  3  0  0  0  0  0  0
  183.0240  172.2630  137.1410 C   0  0  0  0  0  1  0  0  0  0  0  0
  182.6010  173.5870  137.5640 N   0  0  0  0  0  2  0  0  0  0  0  0
  2 24  1  0  0  0  0
  2 14  1  1  0  0  0
  2 22  1  0  0  0  0
  3 20  1  0  0  0  0
  3  9  1  0  0  0  0
  4 37  1  0  0  0  0
  4  1  1  0  0  0  0
  5 10  1  0  0  0  0
  6 22  2  0  0  0  0
  6 11  1  0  0  0  0
  7  3  1  0  0  0  0
  8 18  1  0  0  0  0
  8 12  1  0  0  0  0
  9  6  1  0  0  0  0
 10 23  1  0  0  0  0
 10  7  1  0  0  0  0
 12  4  1  0  0  0  0
 13 17  1  0  0  0  0
 13  9  1  0  0  0  0
 15 20  1  0  0  0  0
 16 11  1  0  0  0  0
 17  2  1  0  0  0  0
 18 19  1  0  0  0  0
 18 25  1  0  0  0  0
 19  5  1  0  0  0  0
 20 16  1  0  0  0  0
 21  7  1  0  0  0  0
 21 13  1  0  0  0  0
 23 28  1  0  0  0  0
 25 27  1  0  0  0  0
 26  8  1  0  0  0  0
 27  1  1  0  0  0  0
 27 21  1  0  0  0  0
 28 15  1  0  0  0  0
 30 23  1  0  0  0  0
 30 29  2  0  0  0  0
 31 30  1  0  0  0  0
 32 34  1  0  0  0  0
 33 35  2  0  0  0  0
 34 31  2  0  0  0  0
 34 33  1  0  0  0  0
 35 29  1  0  0  0  0
 36 37  1  0  0  0  0
M  END
>  <MODEL>
5

>  <REMARK>
 VINA RESULT:      -5.1      2.415      6.421
  Name = 
  2 active torsions:
  status: ('A' for Active; 'I' for Inactive)
    1  A    between atoms: C_4  and  N_37
    2  A    between atoms: C_23  and  C_30
                            x       y       z     vdW  Elec       q    Type
                         _______ _______ _______ _____ _____    ______ ____

>  <TORSDO>
F 2

$$$$
=
 OpenBabel11122411233D

 37 43  0  0  1  0  0  0  0  0999 V2000
  191.1040  175.7370  136.1520 C   0  0  0  0  0  2  0  0  0  0  0  0
  186.8000  172.5240  135.8240 C   0  0  1  0  0  0  0  0  0  0  0  0
  187.9250  176.4100  136.6230 C   0  0  1  0  0  3  0  0  0  0  0  0
  192.4520  175.5180  135.4600 C   0  0  2  0  0  3  0  0  0  0  0  0
  190.3800  176.4500  139.4680 O   0  0  0  0  0  0  0  0  0  0  0  0
  186.2680  174.8810  135.4230 C   0  0  0  0  0  0  0  0  0  0  0  0
  188.6570  175.8860  137.8410 C   0  0  2  0  0  3  0  0  0  0  0  0
  193.6650  175.7660  137.7440 C   0  0  2  0  0  3  0  0  0  0  0  0
  187.7200  175.1990  135.7260 C   0  0  2  0  0  3  0  0  0  0  0  0
  189.5960  176.9580  138.4260 C   0  0  1  0  0  3  0  0  0  0  0  0
  185.2630  175.9880  135.2350 C   0  0  0  0  0  2  0  0  0  0  0  0
  193.5860  175.0520  136.3860 C   0  0  0  0  0  2  0  0  0  0  0  0
  188.4960  174.0400  136.3760 C   0  0  2  0  0  3  0  0  0  0  0  0
  187.5560  172.0240  134.5940 C   0  0  0  0  0  1  0  0  0  0  0  0
  186.8060  178.4100  137.8060 C   0  0  0  0  0  2  0  0  0  0  0  0
  185.7660  177.3310  135.7750 C   0  0  0  0  0  2  0  0  0  0  0  0
  187.6750  172.9800  136.8440 O   0  0  0  0  0  0  0  0  0  0  0  0
  192.4810  175.4960  138.7070 C   0  0  1  0  0  3  0  0  0  0  0  0
  191.6890  176.7550  139.0820 C   0  0  0  0  0  2  0  0  0  0  0  0
  186.6170  177.1090  137.0200 C   0  0  1  0  0  3  0  0  0  0  0  0
  189.2720  174.5830  137.4900 N   0  0  1  0  0  0  0  0  0  0  0  0
  185.8420  173.6180  135.4560 C   0  0  0  0  0  3  0  0  0  0  0  0
  188.8610  178.2360  138.8700 C   0  0  1  0  0  3  0  0  0  0  0  0
  186.0660  171.4650  136.3220 F   0  0  0  0  0  0  0  0  0  0  0  0
  191.6040  174.3060  138.2820 C   0  0  0  0  0  2  0  0  0  0  0  0
  193.9390  177.1280  137.5820 O   0  0  0  0  0  1  0  0  0  0  0  0
  190.6880  174.5770  137.0770 C   0  0  2  0  0  3  0  0  0  0  0  0
  188.1400  178.8680  137.8250 O   0  0  0  0  0  0  0  0  0  0  0  0
  186.8700  178.6270  140.3480 C   0  0  0  0  0  3  0  0  0  0  0  0
  188.2000  178.2090  140.2290 C   0  0  0  0  0  0  0  0  0  0  0  0
  188.8840  177.7470  141.3640 C   0  0  0  0  0  3  0  0  0  0  0  0
  188.9760  177.2270  143.8030 C   0  0  0  0  0  1  0  0  0  0  0  0
  186.9180  178.1390  142.7200 C   0  0  0  0  0  3  0  0  0  0  0  0
  188.2450  177.7150  142.6060 C   0  0  0  0  0  0  0  0  0  0  0  0
  186.2310  178.5940  141.5910 C   0  0  0  0  0  3  0  0  0  0  0  0
  194.2900  176.6780  134.5980 C   0  0  0  0  0  1  0  0  0  0  0  0
  192.8480  176.7290  134.7610 N   0  0  0  0  0  2  0  0  0  0  0  0
  1 27  1  0  0  0  0
  2 14  1  6  0  0  0
  2 24  1  0  0  0  0
  2 17  1  0  0  0  0
  3 20  1  0  0  0  0
  3  7  1  0  0  0  0
  4  1  1  0  0  0  0
  4 12  1  0  0  0  0
  6 22  2  0  0  0  0
  6  9  1  0  0  0  0
  7 10  1  0  0  0  0
  8 18  1  0  0  0  0
  9 13  1  0  0  0  0
  9  3  1  0  0  0  0
 10 23  1  0  0  0  0
 10  5  1  0  0  0  0
 11  6  1  0  0  0  0
 11 16  1  0  0  0  0
 12  8  1  0  0  0  0
 13 17  1  0  0  0  0
 13 21  1  0  0  0  0
 15 28  1  0  0  0  0
 16 20  1  0  0  0  0
 18 19  1  0  0  0  0
 19  5  1  0  0  0  0
 20 15  1  0  0  0  0
 21  7  1  0  0  0  0
 22  2  1  0  0  0  0
 23 30  1  0  0  0  0
 25 18  1  0  0  0  0
 26  8  1  0  0  0  0
 27 21  1  0  0  0  0
 27 25  1  0  0  0  0
 28 23  1  0  0  0  0
 29 35  1  0  0  0  0
 30 29  2  0  0  0  0
 30 31  1  0  0  0  0
 31 34  2  0  0  0  0
 34 33  1  0  0  0  0
 34 32  1  0  0  0  0
 35 33  2  0  0  0  0
 36 37  1  0  0  0  0
 37  4  1  0  0  0  0
M  END
>  <MODEL>
6

>  <REMARK>
 VINA RESULT:      -4.5      6.023     10.288
  Name = 
  2 active torsions:
  status: ('A' for Active; 'I' for Inactive)
    1  A    between atoms: C_4  and  N_37
    2  A    between atoms: C_23  and  C_30
                            x       y       z     vdW  Elec       q    Type
                         _______ _______ _______ _____ _____    ______ ____

>  <TORSDO>
F 2

$$$$
=
 OpenBabel11122411233D

 37 43  0  0  1  0  0  0  0  0999 V2000
  184.8510  176.2060  137.9550 C   0  0  0  0  0  2  0  0  0  0  0  0
  185.2940  179.4030  142.2610 C   0  0  1  0  0  0  0  0  0  0  0  0
  182.5430  177.8580  139.6050 C   0  0  1  0  0  3  0  0  0  0  0  0
  185.8280  175.1020  137.5430 C   0  0  2  0  0  3  0  0  0  0  0  0
  183.5050  178.8090  136.1000 O   0  0  0  0  0  0  0  0  0  0  0  0
  183.0750  178.3870  142.0470 C   0  0  0  0  0  0  0  0  0  0  0  0
  183.2390  178.6460  138.5150 C   0  0  2  0  0  3  0  0  0  0  0  0
  186.0170  176.1510  135.1740 C   0  0  2  0  0  3  0  0  0  0  0  0
  183.5480  177.7710  140.7440 C   0  0  2  0  0  3  0  0  0  0  0  0
  182.7760  178.1890  137.1190 C   0  0  1  0  0  3  0  0  0  0  0  0
  181.6320  178.2820  142.4660 C   0  0  0  0  0  2  0  0  0  0  0  0
  186.7220  175.4440  136.3410 C   0  0  0  0  0  2  0  0  0  0  0  0
  184.8640  178.3640  140.2070 C   0  0  2  0  0  3  0  0  0  0  0  0
  186.2500  178.2940  142.6970 C   0  0  0  0  0  1  0  0  0  0  0  0
  180.1390  178.4900  138.9180 C   0  0  0  0  0  2  0  0  0  0  0  0
  180.7130  177.8930  141.3020 C   0  0  0  0  0  2  0  0  0  0  0  0
  185.2650  179.5640  140.8510 O   0  0  0  0  0  0  0  0  0  0  0  0
  185.5080  177.5840  135.4740 C   0  0  1  0  0  3  0  0  0  0  0  0
  183.9880  177.7420  135.3360 C   0  0  0  0  0  2  0  0  0  0  0  0
  181.2170  178.5180  140.0060 C   0  0  1  0  0  3  0  0  0  0  0  0
  184.6990  178.6110  138.7750 N   0  0  1  0  0  0  0  0  0  0  0  0
  183.9050  179.1430  142.7660 C   0  0  0  0  0  3  0  0  0  0  0  0
  181.2630  178.3640  136.8910 C   0  0  1  0  0  3  0  0  0  0  0  0
  185.7370  180.5840  142.8250 F   0  0  0  0  0  0  0  0  0  0  0  0
  186.0860  178.1810  136.7680 C   0  0  0  0  0  2  0  0  0  0  0  0
  185.0370  175.3300  134.6060 O   0  0  0  0  0  1  0  0  0  0  0  0
  185.5030  177.5980  138.0650 C   0  0  2  0  0  3  0  0  0  0  0  0
  180.4620  177.6580  137.8260 O   0  0  0  0  0  0  0  0  0  0  0  0
  179.8770  179.8710  135.4370 C   0  0  0  0  0  3  0  0  0  0  0  0
  180.7850  179.7420  136.4950 C   0  0  0  0  0  0  0  0  0  0  0  0
  181.2110  180.8870  137.1840 C   0  0  0  0  0  3  0  0  0  0  0  0
  181.1990  183.3580  137.5430 C   0  0  0  0  0  1  0  0  0  0  0  0
  179.8400  182.2730  135.7500 C   0  0  0  0  0  3  0  0  0  0  0  0
  180.7410  182.1490  136.8100 C   0  0  0  0  0  0  0  0  0  0  0  0
  179.4070  181.1340  135.0640 C   0  0  0  0  0  3  0  0  0  0  0  0
  183.7000  174.1330  137.5780 C   0  0  0  0  0  1  0  0  0  0  0  0
  185.0990  173.8720  137.2860 N   0  0  0  0  0  2  0  0  0  0  0  0
  1 27  1  0  0  0  0
  2 14  1  1  0  0  0
  2 22  1  0  0  0  0
  2 24  1  0  0  0  0
  3 20  1  0  0  0  0
  3  9  1  0  0  0  0
  4  1  1  0  0  0  0
  5 10  1  0  0  0  0
  6 11  1  0  0  0  0
  6 22  2  0  0  0  0
  7 21  1  0  0  0  0
  7  3  1  0  0  0  0
  8 18  1  0  0  0  0
  8 12  1  0  0  0  0
  9  6  1  0  0  0  0
 10  7  1  0  0  0  0
 12  4  1  0  0  0  0
 13  9  1  0  0  0  0
 13 17  1  0  0  0  0
 15 20  1  0  0  0  0
 16 11  1  0  0  0  0
 17  2  1  0  0  0  0
 18 25  1  0  0  0  0
 19 18  1  0  0  0  0
 19  5  1  0  0  0  0
 20 16  1  0  0  0  0
 21 13  1  0  0  0  0
 23 10  1  0  0  0  0
 23 28  1  0  0  0  0
 25 27  1  0  0  0  0
 26  8  1  0  0  0  0
 27 21  1  0  0  0  0
 28 15  1  0  0  0  0
 29 30  1  0  0  0  0
 30 23  1  0  0  0  0
 30 31  2  0  0  0  0
 33 34  2  0  0  0  0
 34 31  1  0  0  0  0
 34 32  1  0  0  0  0
 35 29  2  0  0  0  0
 35 33  1  0  0  0  0
 37  4  1  0  0  0  0
 37 36  1  0  0  0  0
M  END
>  <MODEL>
7

>  <REMARK>
 VINA RESULT:      -4.2      2.355      6.308
  Name = 
  2 active torsions:
  status: ('A' for Active; 'I' for Inactive)
    1  A    between atoms: C_4  and  N_37
    2  A    between atoms: C_23  and  C_30
                            x       y       z     vdW  Elec       q    Type
                         _______ _______ _______ _____ _____    ______ ____

>  <TORSDO>
F 2

$$$$
=
 OpenBabel11122411233D

 37 43  0  0  1  0  0  0  0  0999 V2000
  190.3400  176.0510  136.2460 C   0  0  0  0  0  2  0  0  0  0  0  0
  185.6440  173.4610  136.6800 C   0  0  1  0  0  0  0  0  0  0  0  0
  187.6070  176.8910  137.8590 C   0  0  1  0  0  3  0  0  0  0  0  0
  191.3660  175.8820  135.1230 C   0  0  2  0  0  3  0  0  0  0  0  0
  190.7570  175.9730  139.6880 O   0  0  0  0  0  0  0  0  0  0  0  0
  185.4320  175.8840  136.9750 C   0  0  0  0  0  0  0  0  0  0  0  0
  188.5620  176.0080  138.6340 C   0  0  2  0  0  3  0  0  0  0  0  0
  193.2220  175.4260  136.8840 C   0  0  2  0  0  3  0  0  0  0  0  0
  186.9410  175.9710  136.8460 C   0  0  2  0  0  3  0  0  0  0  0  0
  189.8020  176.8010  139.0890 C   0  0  1  0  0  3  0  0  0  0  0  0
  184.6230  177.0950  137.3590 C   0  0  0  0  0  2  0  0  0  0  0  0
  192.6250  175.0890  135.5090 C   0  0  0  0  0  2  0  0  0  0  0  0
  187.6620  174.6150  136.9510 C   0  0  2  0  0  3  0  0  0  0  0  0
  185.9070  173.2160  135.1950 C   0  0  0  0  0  1  0  0  0  0  0  0
  187.2470  178.6290  139.7300 C   0  0  0  0  0  2  0  0  0  0  0  0
  185.4870  178.2030  137.9730 C   0  0  0  0  0  2  0  0  0  0  0  0
  186.8450  173.5580  137.4300 O   0  0  0  0  0  0  0  0  0  0  0  0
  192.3450  175.0400  138.1020 C   0  0  1  0  0  3  0  0  0  0  0  0
  191.9270  176.2360  138.9680 C   0  0  0  0  0  2  0  0  0  0  0  0
  186.6140  177.5920  138.7960 C   0  0  1  0  0  3  0  0  0  0  0  0
  188.8130  174.7820  137.8380 N   0  0  1  0  0  0  0  0  0  0  0  0
  184.8230  174.7010  136.8810 C   0  0  0  0  0  3  0  0  0  0  0  0
  189.4630  177.9920  140.0040 C   0  0  1  0  0  3  0  0  0  0  0  0
  184.9170  172.3880  137.1600 F   0  0  0  0  0  0  0  0  0  0  0  0
  191.1890  174.0870  137.7490 C   0  0  0  0  0  2  0  0  0  0  0  0
  193.6660  176.7520  136.9290 O   0  0  0  0  0  1  0  0  0  0  0  0
  190.0210  174.7420  136.9930 C   0  0  2  0  0  3  0  0  0  0  0  0
  188.5860  178.9340  139.4080 O   0  0  0  0  0  0  0  0  0  0  0  0
  187.9260  177.5310  141.9360 C   0  0  0  0  0  3  0  0  0  0  0  0
  189.2350  177.6880  141.4680 C   0  0  0  0  0  0  0  0  0  0  0  0
  190.3110  177.5330  142.3550 C   0  0  0  0  0  3  0  0  0  0  0  0
  191.2190  177.0750  144.6350 C   0  0  0  0  0  1  0  0  0  0  0  0
  188.7660  177.0850  144.1640 C   0  0  0  0  0  3  0  0  0  0  0  0
  190.0760  177.2350  143.7000 C   0  0  0  0  0  0  0  0  0  0  0  0
  187.6910  177.2330  143.2820 C   0  0  0  0  0  3  0  0  0  0  0  0
  190.5550  178.0210  134.6390 C   0  0  0  0  0  1  0  0  0  0  0  0
  191.7420  177.1850  134.6010 N   0  0  0  0  0  2  0  0  0  0  0  0
  1 27  1  0  0  0  0
  2 14  1  6  0  0  0
  2 22  1  0  0  0  0
  2 24  1  0  0  0  0
  2 17  1  0  0  0  0
  3  7  1  0  0  0  0
  3 20  1  0  0  0  0
  4 12  1  0  0  0  0
  4  1  1  0  0  0  0
  6 11  1  0  0  0  0
  7 10  1  0  0  0  0
  8 26  1  0  0  0  0
  8 18  1  0  0  0  0
  9 13  1  0  0  0  0
  9  6  1  0  0  0  0
  9  3  1  0  0  0  0
 10  5  1  0  0  0  0
 10 23  1  0  0  0  0
 11 16  1  0  0  0  0
 12  8  1  0  0  0  0
 13 17  1  0  0  0  0
 13 21  1  0  0  0  0
 16 20  1  0  0  0  0
 18 19  1  0  0  0  0
 19  5  1  0  0  0  0
 20 15  1  0  0  0  0
 21  7  1  0  0  0  0
 22  6  2  0  0  0  0
 23 30  1  0  0  0  0
 25 18  1  0  0  0  0
 27 25  1  0  0  0  0
 27 21  1  0  0  0  0
 28 15  1  0  0  0  0
 28 23  1  0  0  0  0
 29 35  1  0  0  0  0
 30 29  2  0  0  0  0
 30 31  1  0  0  0  0
 31 34  2  0  0  0  0
 34 33  1  0  0  0  0
 34 32  1  0  0  0  0
 35 33  2  0  0  0  0
 37 36  1  0  0  0  0
 37  4  1  0  0  0  0
M  END
>  <MODEL>
8

>  <REMARK>
 VINA RESULT:      -4.1      5.790      9.652
  Name = 
  2 active torsions:
  status: ('A' for Active; 'I' for Inactive)
    1  A    between atoms: C_4  and  N_37
    2  A    between atoms: C_23  and  C_30
                            x       y       z     vdW  Elec       q    Type
                         _______ _______ _______ _____ _____    ______ ____

>  <TORSDO>
F 2

$$$$
