=
 OpenBabel11122411383D

 37 42  0  0  1  0  0  0  0  0999 V2000
  188.2710  177.8470  138.2430 C   0  0  0  0  0  0  0  0  0  0  0  0
  185.4110  178.5000  141.1600 C   0  0  0  0  0  0  0  0  0  0  0  0
  182.7150  176.6400  140.6130 C   0  0  0  0  0  2  0  0  0  0  0  0
  187.7620  178.2220  140.7110 C   0  0  0  0  0  0  0  0  0  0  0  0
  184.2790  178.6100  140.3650 C   0  0  0  0  0  0  0  0  0  0  0  0
  186.4760  178.5270  140.3240 C   0  0  0  0  0  0  0  0  0  0  0  0
  182.9000  178.1520  140.7880 C   0  0  2  0  0  3  0  0  0  0  0  0
  187.9770  177.9330  142.0710 C   0  0  0  0  0  3  0  0  0  0  0  0
  186.0290  178.6610  139.0560 C   0  0  0  0  0  0  0  0  0  0  0  0
  188.0120  176.3520  138.1660 C   0  0  0  0  0  1  0  0  0  0  0  0
  184.5060  178.3360  143.4100 O   0  0  0  0  0  0  0  0  0  0  0  0
  186.8820  177.9500  142.9760 C   0  0  0  0  0  3  0  0  0  0  0  0
  186.9650  178.6090  137.8820 C   0  0  0  0  0  2  0  0  0  0  0  0
  182.4950  176.6410  138.0630 C   0  0  1  0  0  3  0  0  0  0  0  0
  183.2540  176.1090  139.2810 C   0  0  0  0  0  2  0  0  0  0  0  0
  185.5770  178.2460  142.5210 C   0  0  0  0  0  0  0  0  0  0  0  0
  184.6770  178.7040  139.0560 N   0  0  0  0  0  0  0  0  0  0  0  0
  188.8340  178.1990  139.6510 C   0  0  0  0  0  2  0  0  0  0  0  0
  182.3940  178.5760  142.1780 C   0  0  1  0  0  3  0  0  0  0  0  0
  189.3230  178.1920  137.2100 C   0  0  0  0  0  1  0  0  0  0  0  0
  182.4780  178.1720  137.9460 C   0  0  0  0  0  2  0  0  0  0  0  0
  183.8610  178.8240  137.8410 C   0  0  0  0  0  2  0  0  0  0  0  0
  183.4040  179.1990  143.1470 C   0  0  0  0  0  2  0  0  0  0  0  0
  184.1660  174.5290  134.5950 O   0  0  0  0  0  0  0  0  0  0  0  0
  184.5650  174.2970  135.7670 C   0  0  0  0  0  0  0  0  0  0  0  0
  182.9820  175.9990  136.8030 C   0  0  0  0  0  0  0  0  0  0  0  0
  184.0060  175.0020  136.8840 N   0  0  0  0  0  2  0  0  0  0  0  0
  182.4810  176.3230  135.6920 O   0  0  0  0  0  0  0  0  0  0  0  0
  186.0870  173.0010  137.2990 C   0  0  0  0  0  1  0  0  0  0  0  0
  185.5830  173.3180  135.9740 N   0  0  0  0  0  2  0  0  0  0  0  0
  180.3920  179.6870  143.1730 C   0  0  0  0  0  3  0  0  0  0  0  0
  181.1850  179.4430  142.0490 C   0  0  0  0  0  0  0  0  0  0  0  0
  180.8290  180.0070  140.8160 C   0  0  0  0  0  3  0  0  0  0  0  0
  179.2970  181.4100  139.4330 C   0  0  0  0  0  1  0  0  0  0  0  0
  178.9310  181.0300  141.8420 N   0  0  0  0  0  0  0  0  0  0  0  0
  179.6860  180.8050  140.7340 C   0  0  0  0  0  0  0  0  0  0  0  0
  179.2580  180.4920  143.0480 C   0  0  0  0  0  3  0  0  0  0  0  0
  1 18  1  0  0  0  0
  2 16  1  0  0  0  0
  4  8  2  0  0  0  0
  5  7  1  0  0  0  0
  5  2  2  0  0  0  0
  6  4  1  0  0  0  0
  6  2  1  0  0  0  0
  7  3  1  1  0  0  0
  7 19  1  0  0  0  0
  8 12  1  0  0  0  0
  9  6  2  0  0  0  0
 10  1  1  0  0  0  0
 13  1  1  0  0  0  0
 13  9  1  0  0  0  0
 14 26  1  6  0  0  0
 14 15  1  0  0  0  0
 15  3  1  0  0  0  0
 16 12  2  0  0  0  0
 16 11  1  0  0  0  0
 17  9  1  0  0  0  0
 17  5  1  0  0  0  0
 18  4  1  0  0  0  0
 19 32  1  6  0  0  0
 19 23  1  0  0  0  0
 20  1  1  0  0  0  0
 21 14  1  0  0  0  0
 22 21  1  0  0  0  0
 22 17  1  0  0  0  0
 23 11  1  0  0  0  0
 24 25  2  0  0  0  0
 25 30  1  0  0  0  0
 25 27  1  0  0  0  0
 26 27  1  0  0  0  0
 28 26  2  0  0  0  0
 30 29  1  0  0  0  0
 32 31  2  0  0  0  0
 33 32  1  0  0  0  0
 34 36  1  0  0  0  0
 35 37  2  0  0  0  0
 36 33  2  0  0  0  0
 36 35  1  0  0  0  0
 37 31  1  0  0  0  0
M  END
>  <MODEL>
1

>  <REMARK>
 VINA RESULT:      -6.4      0.000      0.000
  Name = 
  2 active torsions:
  status: ('A' for Active; 'I' for Inactive)
    1  A    between atoms: C_8  and  C_18
    2  A    between atoms: C_23  and  C_30
                            x       y       z     vdW  Elec       q    Type
                         _______ _______ _______ _____ _____    ______ ____

>  <TORSDO>
F 2

$$$$
=
 OpenBabel11122411383D

 37 42  0  0  1  0  0  0  0  0999 V2000
  187.7510  177.9910  142.6570 C   0  0  0  0  0  0  0  0  0  0  0  0
  183.7160  178.9090  142.6110 C   0  0  0  0  0  0  0  0  0  0  0  0
  182.1320  177.1650  140.2710 C   0  0  0  0  0  2  0  0  0  0  0  0
  185.6430  178.4950  143.9970 C   0  0  0  0  0  0  0  0  0  0  0  0
  183.5170  179.0420  141.2440 C   0  0  0  0  0  0  0  0  0  0  0  0
  185.0560  178.8470  142.8030 C   0  0  0  0  0  0  0  0  0  0  0  0
  182.2320  178.6720  140.5360 C   0  0  2  0  0  3  0  0  0  0  0  0
  184.7910  178.2540  145.0910 C   0  0  0  0  0  3  0  0  0  0  0  0
  185.6720  178.9500  141.6050 C   0  0  0  0  0  0  0  0  0  0  0  0
  187.5300  176.5090  142.4060 C   0  0  0  0  0  1  0  0  0  0  0  0
  181.4580  178.8850  143.5100 O   0  0  0  0  0  0  0  0  0  0  0  0
  183.3840  178.3630  144.9250 C   0  0  0  0  0  3  0  0  0  0  0  0
  187.1600  178.8020  141.4690 C   0  0  0  0  0  2  0  0  0  0  0  0
  183.8210  177.0690  138.3500 C   0  0  1  0  0  3  0  0  0  0  0  0
  183.4300  176.5520  139.7360 C   0  0  0  0  0  2  0  0  0  0  0  0
  182.8320  178.7050  143.6690 C   0  0  0  0  0  0  0  0  0  0  0  0
  184.7420  179.0610  140.6270 N   0  0  0  0  0  0  0  0  0  0  0  0
  187.1450  178.3740  144.0400 C   0  0  0  0  0  2  0  0  0  0  0  0
  180.9070  179.1780  141.1340 C   0  0  1  0  0  3  0  0  0  0  0  0
  189.2430  178.2400  142.7070 C   0  0  0  0  0  1  0  0  0  0  0  0
  183.9930  178.5930  138.2670 C   0  0  0  0  0  2  0  0  0  0  0  0
  185.0640  179.1700  139.1990 C   0  0  0  0  0  2  0  0  0  0  0  0
  180.9440  179.7900  142.5380 C   0  0  0  0  0  2  0  0  0  0  0  0
  187.5520  175.3120  136.8420 O   0  0  0  0  0  0  0  0  0  0  0  0
  187.4640  176.5360  137.1280 C   0  0  0  0  0  0  0  0  0  0  0  0
  185.0240  176.3520  137.8270 C   0  0  0  0  0  0  0  0  0  0  0  0
  186.2340  177.0880  137.6160 N   0  0  0  0  0  2  0  0  0  0  0  0
  184.9720  175.1130  137.5940 O   0  0  0  0  0  0  0  0  0  0  0  0
  188.5760  178.7910  137.2710 C   0  0  0  0  0  1  0  0  0  0  0  0
  188.6080  177.3720  136.9600 N   0  0  0  0  0  2  0  0  0  0  0  0
  179.5760  181.2370  140.6630 C   0  0  0  0  0  3  0  0  0  0  0  0
  180.2230  180.0990  140.1770 C   0  0  0  0  0  0  0  0  0  0  0  0
  180.2140  179.8320  138.8010 C   0  0  0  0  0  3  0  0  0  0  0  0
  179.5390  180.4430  136.4770 C   0  0  0  0  0  1  0  0  0  0  0  0
  178.9340  181.8150  138.4350 N   0  0  0  0  0  0  0  0  0  0  0  0
  179.5570  180.7130  137.9390 C   0  0  0  0  0  0  0  0  0  0  0  0
  178.9310  182.0920  139.7670 C   0  0  0  0  0  3  0  0  0  0  0  0
  1 20  1  0  0  0  0
  1 18  1  0  0  0  0
  2  6  1  0  0  0  0
  2 16  1  0  0  0  0
  4 18  1  0  0  0  0
  4  8  2  0  0  0  0
  5  2  2  0  0  0  0
  6  4  1  0  0  0  0
  7  3  1  1  0  0  0
  7 19  1  0  0  0  0
  7  5  1  0  0  0  0
  9  6  2  0  0  0  0
 10  1  1  0  0  0  0
 11 16  1  0  0  0  0
 12  8  1  0  0  0  0
 13  9  1  0  0  0  0
 13  1  1  0  0  0  0
 14 26  1  1  0  0  0
 14 15  1  0  0  0  0
 15  3  1  0  0  0  0
 16 12  2  0  0  0  0
 17  5  1  0  0  0  0
 17  9  1  0  0  0  0
 19 32  1  6  0  0  0
 19 23  1  0  0  0  0
 21 14  1  0  0  0  0
 21 22  1  0  0  0  0
 22 17  1  0  0  0  0
 23 11  1  0  0  0  0
 24 25  2  0  0  0  0
 25 27  1  0  0  0  0
 27 26  1  0  0  0  0
 28 26  2  0  0  0  0
 30 25  1  0  0  0  0
 30 29  1  0  0  0  0
 32 31  1  0  0  0  0
 33 32  2  0  0  0  0
 34 36  1  0  0  0  0
 35 37  1  0  0  0  0
 36 35  2  0  0  0  0
 36 33  1  0  0  0  0
 37 31  2  0  0  0  0
M  END
>  <MODEL>
2

>  <REMARK>
 VINA RESULT:      -5.9      1.921      3.307
  Name = 
  2 active torsions:
  status: ('A' for Active; 'I' for Inactive)
    1  A    between atoms: C_8  and  C_18
    2  A    between atoms: C_23  and  C_30
                            x       y       z     vdW  Elec       q    Type
                         _______ _______ _______ _____ _____    ______ ____

>  <TORSDO>
F 2

$$$$
=
 OpenBabel11122411383D

 37 42  0  0  1  0  0  0  0  0999 V2000
  187.5200  178.0120  142.6920 C   0  0  0  0  0  0  0  0  0  0  0  0
  183.5230  179.0680  142.5180 C   0  0  0  0  0  0  0  0  0  0  0  0
  181.9220  177.2690  140.2320 C   0  0  0  0  0  2  0  0  0  0  0  0
  185.4070  178.6540  143.9630 C   0  0  0  0  0  0  0  0  0  0  0  0
  183.3550  179.1410  141.1420 C   0  0  0  0  0  0  0  0  0  0  0  0
  184.8560  178.9680  142.7410 C   0  0  0  0  0  0  0  0  0  0  0  0
  182.0710  178.7820  140.4270 C   0  0  2  0  0  3  0  0  0  0  0  0
  184.5260  178.4960  145.0480 C   0  0  0  0  0  3  0  0  0  0  0  0
  185.4980  178.9910  141.5520 C   0  0  0  0  0  0  0  0  0  0  0  0
  187.2510  176.5280  142.5080 C   0  0  0  0  0  1  0  0  0  0  0  0
  181.2490  179.1660  143.3710 O   0  0  0  0  0  0  0  0  0  0  0  0
  183.1280  178.6460  144.8480 C   0  0  0  0  0  3  0  0  0  0  0  0
  186.9820  178.7850  141.4550 C   0  0  0  0  0  2  0  0  0  0  0  0
  183.6430  177.0220  138.3530 C   0  0  1  0  0  3  0  0  0  0  0  0
  183.2080  176.5860  139.7530 C   0  0  0  0  0  2  0  0  0  0  0  0
  182.6120  178.9460  143.5660 C   0  0  0  0  0  0  0  0  0  0  0  0
  184.5920  179.0870  140.5510 N   0  0  0  0  0  0  0  0  0  0  0  0
  186.9030  178.4820  144.0420 C   0  0  0  0  0  2  0  0  0  0  0  0
  180.7550  179.3640  140.9720 C   0  0  1  0  0  3  0  0  0  0  0  0
  189.0200  178.2100  142.7610 C   0  0  0  0  0  1  0  0  0  0  0  0
  183.8710  178.5320  138.2010 C   0  0  0  0  0  2  0  0  0  0  0  0
  184.9450  179.1160  139.1260 C   0  0  0  0  0  2  0  0  0  0  0  0
  180.7870  180.0410  142.3460 C   0  0  0  0  0  2  0  0  0  0  0  0
  186.8800  174.3990  136.9660 O   0  0  0  0  0  0  0  0  0  0  0  0
  185.7120  173.9660  137.1560 C   0  0  0  0  0  0  0  0  0  0  0  0
  184.8290  176.2370  137.8890 C   0  0  0  0  0  0  0  0  0  0  0  0
  184.6720  174.8420  137.6130 N   0  0  0  0  0  2  0  0  0  0  0  0
  185.9430  176.8070  137.7300 O   0  0  0  0  0  0  0  0  0  0  0  0
  184.1090  172.0240  137.1100 C   0  0  0  0  0  1  0  0  0  0  0  0
  185.4330  172.5880  136.9110 N   0  0  0  0  0  2  0  0  0  0  0  0
  179.5280  181.4540  140.3730 C   0  0  0  0  0  3  0  0  0  0  0  0
  180.1230  180.2610  139.9580 C   0  0  0  0  0  0  0  0  0  0  0  0
  180.1110  179.9170  138.5990 C   0  0  0  0  0  3  0  0  0  0  0  0
  179.4830  180.4270  136.2380 C   0  0  0  0  0  1  0  0  0  0  0  0
  178.9310  181.9350  138.1100 N   0  0  0  0  0  0  0  0  0  0  0  0
  179.5030  180.7780  137.6830 C   0  0  0  0  0  0  0  0  0  0  0  0
  178.9310  182.2870  139.4240 C   0  0  0  0  0  3  0  0  0  0  0  0
  1 20  1  0  0  0  0
  1 18  1  0  0  0  0
  2  6  1  0  0  0  0
  2 16  1  0  0  0  0
  4 18  1  0  0  0  0
  4  8  2  0  0  0  0
  5  2  2  0  0  0  0
  6  4  1  0  0  0  0
  7  3  1  1  0  0  0
  7 19  1  0  0  0  0
  7  5  1  0  0  0  0
  9  6  2  0  0  0  0
 10  1  1  0  0  0  0
 11 16  1  0  0  0  0
 12  8  1  0  0  0  0
 13  9  1  0  0  0  0
 13  1  1  0  0  0  0
 14 26  1  1  0  0  0
 14 15  1  0  0  0  0
 15  3  1  0  0  0  0
 16 12  2  0  0  0  0
 17  5  1  0  0  0  0
 17  9  1  0  0  0  0
 19 32  1  6  0  0  0
 19 23  1  0  0  0  0
 21 14  1  0  0  0  0
 21 22  1  0  0  0  0
 22 17  1  0  0  0  0
 23 11  1  0  0  0  0
 24 25  2  0  0  0  0
 25 27  1  0  0  0  0
 27 26  1  0  0  0  0
 28 26  2  0  0  0  0
 30 29  1  0  0  0  0
 30 25  1  0  0  0  0
 32 31  1  0  0  0  0
 33 32  2  0  0  0  0
 34 36  1  0  0  0  0
 35 37  1  0  0  0  0
 36 35  2  0  0  0  0
 36 33  1  0  0  0  0
 37 31  2  0  0  0  0
M  END
>  <MODEL>
3

>  <REMARK>
 VINA RESULT:      -5.8      2.028      3.081
  Name = 
  2 active torsions:
  status: ('A' for Active; 'I' for Inactive)
    1  A    between atoms: C_8  and  C_18
    2  A    between atoms: C_23  and  C_30
                            x       y       z     vdW  Elec       q    Type
                         _______ _______ _______ _____ _____    ______ ____

>  <TORSDO>
F 2

$$$$
=
 OpenBabel11122411383D

 37 42  0  0  1  0  0  0  0  0999 V2000
  189.0660  175.5670  136.4190 C   0  0  0  0  0  0  0  0  0  0  0  0
  186.1260  177.9070  138.1530 C   0  0  0  0  0  0  0  0  0  0  0  0
  183.3080  176.1900  138.5160 C   0  0  0  0  0  2  0  0  0  0  0  0
  188.4640  177.3190  138.1680 C   0  0  0  0  0  0  0  0  0  0  0  0
  185.0520  177.5860  137.3350 C   0  0  0  0  0  0  0  0  0  0  0  0
  187.2330  177.4000  137.5570 C   0  0  0  0  0  0  0  0  0  0  0  0
  183.6180  177.5160  137.8110 C   0  0  2  0  0  3  0  0  0  0  0  0
  188.5800  177.8600  139.4620 C   0  0  0  0  0  3  0  0  0  0  0  0
  186.8670  176.7960  136.4040 C   0  0  0  0  0  0  0  0  0  0  0  0
  188.6780  174.3150  137.1870 C   0  0  0  0  0  1  0  0  0  0  0  0
  185.0940  179.1100  139.9950 O   0  0  0  0  0  0  0  0  0  0  0  0
  187.4450  178.4430  140.0870 C   0  0  0  0  0  3  0  0  0  0  0  0
  187.8540  176.0370  135.5660 C   0  0  0  0  0  2  0  0  0  0  0  0
  183.2230  174.7280  136.4160 C   0  0  1  0  0  3  0  0  0  0  0  0
  183.8660  174.9650  137.7840 C   0  0  0  0  0  2  0  0  0  0  0  0
  186.1970  178.4780  139.4230 C   0  0  0  0  0  0  0  0  0  0  0  0
  185.5250  176.8900  136.2520 N   0  0  0  0  0  0  0  0  0  0  0  0
  189.5840  176.6430  137.4190 C   0  0  0  0  0  2  0  0  0  0  0  0
  183.0800  178.6860  138.6540 C   0  0  1  0  0  3  0  0  0  0  0  0
  190.1970  175.2070  135.4800 C   0  0  0  0  0  1  0  0  0  0  0  0
  183.3490  175.9100  135.4440 C   0  0  0  0  0  2  0  0  0  0  0  0
  184.7880  176.3210  135.1160 C   0  0  0  0  0  2  0  0  0  0  0  0
  184.0890  179.7100  139.1830 C   0  0  0  0  0  2  0  0  0  0  0  0
  184.2840  170.8760  134.5970 O   0  0  0  0  0  0  0  0  0  0  0  0
  183.0910  171.1700  134.8770 C   0  0  0  0  0  0  0  0  0  0  0  0
  183.7160  173.4570  135.8030 C   0  0  0  0  0  0  0  0  0  0  0  0
  182.7700  172.4330  135.4750 N   0  0  0  0  0  2  0  0  0  0  0  0
  184.9450  173.3020  135.5640 O   0  0  0  0  0  0  0  0  0  0  0  0
  180.6630  170.5030  134.8920 C   0  0  0  0  0  1  0  0  0  0  0  0
  182.0580  170.2280  134.5940 N   0  0  0  0  0  2  0  0  0  0  0  0
  181.1840  178.6480  137.0300 C   0  0  0  0  0  3  0  0  0  0  0  0
  181.9610  179.3710  137.9380 C   0  0  0  0  0  0  0  0  0  0  0  0
  181.6870  180.7270  138.1590 C   0  0  0  0  0  3  0  0  0  0  0  0
  180.3350  182.7710  137.6870 C   0  0  0  0  0  1  0  0  0  0  0  0
  179.8940  180.6100  136.5850 N   0  0  0  0  0  0  0  0  0  0  0  0
  180.6370  181.3330  137.4640 C   0  0  0  0  0  0  0  0  0  0  0  0
  180.1440  179.2920  136.3570 C   0  0  0  0  0  3  0  0  0  0  0  0
  1 10  1  0  0  0  0
  1 18  1  0  0  0  0
  2 16  1  0  0  0  0
  4  8  2  0  0  0  0
  5  7  1  0  0  0  0
  5  2  2  0  0  0  0
  6  2  1  0  0  0  0
  6  4  1  0  0  0  0
  7  3  1  1  0  0  0
  7 19  1  0  0  0  0
  8 12  1  0  0  0  0
  9  6  2  0  0  0  0
 13  9  1  0  0  0  0
 13  1  1  0  0  0  0
 14 26  1  6  0  0  0
 14 15  1  0  0  0  0
 15  3  1  0  0  0  0
 16 11  1  0  0  0  0
 16 12  2  0  0  0  0
 17  9  1  0  0  0  0
 17  5  1  0  0  0  0
 18  4  1  0  0  0  0
 19 32  1  6  0  0  0
 19 23  1  0  0  0  0
 20  1  1  0  0  0  0
 21 14  1  0  0  0  0
 22 21  1  0  0  0  0
 22 17  1  0  0  0  0
 23 11  1  0  0  0  0
 24 25  2  0  0  0  0
 25 27  1  0  0  0  0
 27 26  1  0  0  0  0
 28 26  2  0  0  0  0
 30 25  1  0  0  0  0
 30 29  1  0  0  0  0
 31 32  1  0  0  0  0
 32 33  2  0  0  0  0
 35 36  2  0  0  0  0
 36 34  1  0  0  0  0
 36 33  1  0  0  0  0
 37 35  1  0  0  0  0
 37 31  2  0  0  0  0
M  END
>  <MODEL>
4

>  <REMARK>
 VINA RESULT:      -5.7      2.729      3.724
  Name = 
  2 active torsions:
  status: ('A' for Active; 'I' for Inactive)
    1  A    between atoms: C_8  and  C_18
    2  A    between atoms: C_23  and  C_30
                            x       y       z     vdW  Elec       q    Type
                         _______ _______ _______ _____ _____    ______ ____

>  <TORSDO>
F 2

$$$$
=
 OpenBabel11122411383D

 37 42  0  0  1  0  0  0  0  0999 V2000
  190.2260  176.8840  143.5810 C   0  0  0  0  0  0  0  0  0  0  0  0
  186.7860  177.9960  141.5680 C   0  0  0  0  0  0  0  0  0  0  0  0
  184.9970  180.1320  143.3740 C   0  0  0  0  0  2  0  0  0  0  0  0
  189.1420  177.5290  141.3670 C   0  0  0  0  0  0  0  0  0  0  0  0
  185.8620  177.8880  142.5970 C   0  0  0  0  0  0  0  0  0  0  0  0
  187.9310  177.4250  142.0130 C   0  0  0  0  0  0  0  0  0  0  0  0
  184.6480  178.7790  142.7410 C   0  0  2  0  0  3  0  0  0  0  0  0
  189.1620  178.2160  140.1390 C   0  0  0  0  0  3  0  0  0  0  0  0
  187.7280  176.9650  143.2680 C   0  0  0  0  0  0  0  0  0  0  0  0
  190.4810  178.2730  144.1400 C   0  0  0  0  0  1  0  0  0  0  0  0
  185.5530  179.1490  139.8200 O   0  0  0  0  0  0  0  0  0  0  0  0
  187.9630  178.7800  139.6270 C   0  0  0  0  0  3  0  0  0  0  0  0
  188.8440  176.3780  144.0830 C   0  0  0  0  0  2  0  0  0  0  0  0
  185.3020  179.2900  145.7720 C   0  0  1  0  0  3  0  0  0  0  0  0
  185.9310  180.0170  144.5820 C   0  0  0  0  0  2  0  0  0  0  0  0
  186.7500  178.6630  140.3440 C   0  0  0  0  0  0  0  0  0  0  0  0
  186.4610  177.2490  143.6530 N   0  0  0  0  0  0  0  0  0  0  0  0
  190.3540  176.9240  142.0290 C   0  0  0  0  0  2  0  0  0  0  0  0
  183.7660  179.0030  141.5000 C   0  0  1  0  0  3  0  0  0  0  0  0
  191.2960  175.9580  144.1210 C   0  0  0  0  0  1  0  0  0  0  0  0
  184.8170  177.8660  145.4600 C   0  0  0  0  0  2  0  0  0  0  0  0
  185.9100  176.9090  144.9710 C   0  0  0  0  0  2  0  0  0  0  0  0
  184.3070  178.5370  140.1450 C   0  0  0  0  0  2  0  0  0  0  0  0
  188.1680  179.0530  149.0900 O   0  0  0  0  0  0  0  0  0  0  0  0
  188.2120  178.2530  148.1180 C   0  0  0  0  0  0  0  0  0  0  0  0
  186.2090  179.3140  146.9600 C   0  0  0  0  0  0  0  0  0  0  0  0
  187.2620  178.3480  147.0480 N   0  0  0  0  0  2  0  0  0  0  0  0
  186.0560  180.1860  147.8580 O   0  0  0  0  0  0  0  0  0  0  0  0
  189.3290  176.2900  147.0040 C   0  0  0  0  0  1  0  0  0  0  0  0
  189.2210  177.2450  148.0930 N   0  0  0  0  0  2  0  0  0  0  0  0
  181.7930  177.6690  140.7510 C   0  0  0  0  0  3  0  0  0  0  0  0
  182.3940  178.4600  141.7330 C   0  0  0  0  0  0  0  0  0  0  0  0
  181.6980  178.7410  142.9170 C   0  0  0  0  0  3  0  0  0  0  0  0
  179.6630  178.5120  144.3440 C   0  0  0  0  0  1  0  0  0  0  0  0
  179.8490  177.4540  142.1240 N   0  0  0  0  0  0  0  0  0  0  0  0
  180.4140  178.2220  143.0930 C   0  0  0  0  0  0  0  0  0  0  0  0
  180.5070  177.1690  140.9670 C   0  0  0  0  0  3  0  0  0  0  0  0
  1 13  1  0  0  0  0
  1 20  1  0  0  0  0
  1 10  1  0  0  0  0
  2  6  1  0  0  0  0
  2  5  2  0  0  0  0
  3 15  1  0  0  0  0
  4  6  1  0  0  0  0
  4 18  1  0  0  0  0
  5  7  1  0  0  0  0
  5 17  1  0  0  0  0
  6  9  2  0  0  0  0
  7  3  1  6  0  0  0
  8  4  2  0  0  0  0
  9 17  1  0  0  0  0
  9 13  1  0  0  0  0
 11 23  1  0  0  0  0
 11 16  1  0  0  0  0
 12  8  1  0  0  0  0
 12 16  2  0  0  0  0
 14 26  1  1  0  0  0
 15 14  1  0  0  0  0
 16  2  1  0  0  0  0
 17 22  1  0  0  0  0
 18  1  1  0  0  0  0
 19 32  1  1  0  0  0
 19  7  1  0  0  0  0
 21 14  1  0  0  0  0
 22 21  1  0  0  0  0
 23 19  1  0  0  0  0
 25 24  2  0  0  0  0
 26 27  1  0  0  0  0
 26 28  2  0  0  0  0
 27 25  1  0  0  0  0
 29 30  1  0  0  0  0
 30 25  1  0  0  0  0
 31 37  2  0  0  0  0
 31 32  1  0  0  0  0
 32 33  2  0  0  0  0
 33 36  1  0  0  0  0
 35 36  2  0  0  0  0
 36 34  1  0  0  0  0
 37 35  1  0  0  0  0
M  END
>  <MODEL>
5

>  <REMARK>
 VINA RESULT:      -5.2      3.623      7.038
  Name = 
  2 active torsions:
  status: ('A' for Active; 'I' for Inactive)
    1  A    between atoms: C_8  and  C_18
    2  A    between atoms: C_23  and  C_30
                            x       y       z     vdW  Elec       q    Type
                         _______ _______ _______ _____ _____    ______ ____

>  <TORSDO>
F 2

$$$$
=
 OpenBabel11122411383D

 37 42  0  0  1  0  0  0  0  0999 V2000
  187.9780  177.9520  142.3450 C   0  0  0  0  0  0  0  0  0  0  0  0
  184.1020  178.7280  141.1210 C   0  0  0  0  0  0  0  0  0  0  0  0
  183.1910  176.6570  138.6910 C   0  0  0  0  0  2  0  0  0  0  0  0
  185.5920  178.5520  143.0070 C   0  0  0  0  0  0  0  0  0  0  0  0
  184.2730  178.6840  139.7440 C   0  0  0  0  0  0  0  0  0  0  0  0
  185.3430  178.7340  141.6660 C   0  0  0  0  0  0  0  0  0  0  0  0
  183.2200  178.1880  138.7780 C   0  0  2  0  0  3  0  0  0  0  0  0
  184.4800  178.4210  143.8590 C   0  0  0  0  0  3  0  0  0  0  0  0
  186.2550  178.7060  140.6680 C   0  0  0  0  0  0  0  0  0  0  0  0
  187.8290  176.4450  142.2370 C   0  0  0  0  0  1  0  0  0  0  0  0
  181.6870  178.7440  141.3910 O   0  0  0  0  0  0  0  0  0  0  0  0
  183.1680  178.4630  143.3170 C   0  0  0  0  0  3  0  0  0  0  0  0
  187.7260  178.5910  140.9490 C   0  0  0  0  0  2  0  0  0  0  0  0
  185.3290  176.3780  137.3100 C   0  0  1  0  0  3  0  0  0  0  0  0
  184.5830  176.0250  138.5990 C   0  0  0  0  0  2  0  0  0  0  0  0
  182.9690  178.6290  141.9270 C   0  0  0  0  0  0  0  0  0  0  0  0
  185.6180  178.6650  139.4750 N   0  0  0  0  0  0  0  0  0  0  0  0
  187.0290  178.4840  143.4580 C   0  0  0  0  0  2  0  0  0  0  0  0
  181.7860  178.7230  138.9360 C   0  0  1  0  0  3  0  0  0  0  0  0
  189.4050  178.2530  142.7530 C   0  0  0  0  0  1  0  0  0  0  0  0
  185.5190  177.8840  137.0810 C   0  0  0  0  0  2  0  0  0  0  0  0
  186.3070  178.6060  138.1800 C   0  0  0  0  0  2  0  0  0  0  0  0
  181.4510  179.5050  140.2090 C   0  0  0  0  0  2  0  0  0  0  0  0
  189.3140  174.5400  137.1890 O   0  0  0  0  0  0  0  0  0  0  0  0
  189.1440  175.7290  137.5690 C   0  0  0  0  0  0  0  0  0  0  0  0
  186.6250  175.6390  137.2180 C   0  0  0  0  0  0  0  0  0  0  0  0
  187.8330  176.3080  137.5970 N   0  0  0  0  0  2  0  0  0  0  0  0
  186.6460  174.4390  136.8290 O   0  0  0  0  0  0  0  0  0  0  0  0
  190.1510  177.8730  138.4240 C   0  0  0  0  0  1  0  0  0  0  0  0
  190.2760  176.4970  137.9740 N   0  0  0  0  0  2  0  0  0  0  0  0
  181.2180  178.8260  136.5070 C   0  0  0  0  0  3  0  0  0  0  0  0
  181.3820  179.4940  137.7220 C   0  0  0  0  0  0  0  0  0  0  0  0
  181.1740  180.8790  137.7840 C   0  0  0  0  0  3  0  0  0  0  0  0
  180.5820  183.0350  136.6750 C   0  0  0  0  0  1  0  0  0  0  0  0
  180.6510  180.8940  135.4540 N   0  0  0  0  0  0  0  0  0  0  0  0
  180.8050  181.5660  136.6250 C   0  0  0  0  0  0  0  0  0  0  0  0
  180.8480  179.5500  135.3720 C   0  0  0  0  0  3  0  0  0  0  0  0
  1 20  1  0  0  0  0
  1 18  1  0  0  0  0
  2  6  1  0  0  0  0
  2 16  1  0  0  0  0
  4 18  1  0  0  0  0
  4  8  2  0  0  0  0
  5  2  2  0  0  0  0
  6  4  1  0  0  0  0
  7  3  1  1  0  0  0
  7 19  1  0  0  0  0
  7  5  1  0  0  0  0
  9 13  1  0  0  0  0
  9  6  2  0  0  0  0
 10  1  1  0  0  0  0
 11 16  1  0  0  0  0
 12  8  1  0  0  0  0
 13  1  1  0  0  0  0
 14 26  1  1  0  0  0
 14 15  1  0  0  0  0
 15  3  1  0  0  0  0
 16 12  2  0  0  0  0
 17  5  1  0  0  0  0
 17  9  1  0  0  0  0
 19 32  1  6  0  0  0
 19 23  1  0  0  0  0
 21 14  1  0  0  0  0
 21 22  1  0  0  0  0
 22 17  1  0  0  0  0
 23 11  1  0  0  0  0
 24 25  2  0  0  0  0
 25 27  1  0  0  0  0
 25 30  1  0  0  0  0
 26 27  1  0  0  0  0
 28 26  2  0  0  0  0
 30 29  1  0  0  0  0
 31 32  1  0  0  0  0
 32 33  2  0  0  0  0
 35 36  2  0  0  0  0
 36 34  1  0  0  0  0
 36 33  1  0  0  0  0
 37 35  1  0  0  0  0
 37 31  2  0  0  0  0
M  END
>  <MODEL>
6

>  <REMARK>
 VINA RESULT:      -5.1      2.473      4.095
  Name = 
  2 active torsions:
  status: ('A' for Active; 'I' for Inactive)
    1  A    between atoms: C_8  and  C_18
    2  A    between atoms: C_23  and  C_30
                            x       y       z     vdW  Elec       q    Type
                         _______ _______ _______ _____ _____    ______ ____

>  <TORSDO>
F 2

$$$$
=
 OpenBabel11122411383D

 37 42  0  0  1  0  0  0  0  0999 V2000
  185.6580  175.0290  135.3690 C   0  0  0  0  0  0  0  0  0  0  0  0
  189.6240  173.8540  135.2400 C   0  0  0  0  0  0  0  0  0  0  0  0
  191.2420  174.8480  137.9640 C   0  0  0  0  0  2  0  0  0  0  0  0
  187.3460  173.2140  134.7800 C   0  0  0  0  0  0  0  0  0  0  0  0
  190.2350  175.0300  135.6530 C   0  0  0  0  0  0  0  0  0  0  0  0
  188.3260  174.1560  134.9960 C   0  0  0  0  0  0  0  0  0  0  0  0
  191.5060  175.0800  136.4710 C   0  0  2  0  0  3  0  0  0  0  0  0
  187.7440  171.8640  134.7480 C   0  0  0  0  0  3  0  0  0  0  0  0
  188.1350  175.4730  135.2340 C   0  0  0  0  0  0  0  0  0  0  0  0
  185.5070  174.7470  136.8540 C   0  0  0  0  0  1  0  0  0  0  0  0
  191.4240  172.2230  135.3210 O   0  0  0  0  0  0  0  0  0  0  0  0
  189.1090  171.5270  134.9500 C   0  0  0  0  0  3  0  0  0  0  0  0
  186.7700  176.0960  135.1630 C   0  0  0  0  0  2  0  0  0  0  0  0
  190.2190  177.1410  138.4630 C   0  0  1  0  0  3  0  0  0  0  0  0
  190.0320  175.6230  138.4970 C   0  0  0  0  0  2  0  0  0  0  0  0
  190.0710  172.5340  135.1920 C   0  0  0  0  0  0  0  0  0  0  0  0
  189.2960  176.0300  135.6510 N   0  0  0  0  0  0  0  0  0  0  0  0
  185.9260  173.6910  134.6170 C   0  0  0  0  0  2  0  0  0  0  0  0
  192.6920  174.2100  136.0170 C   0  0  1  0  0  3  0  0  0  0  0  0
  184.3500  175.6020  134.8670 C   0  0  0  0  0  1  0  0  0  0  0  0
  190.5220  177.7120  137.0710 C   0  0  0  0  0  2  0  0  0  0  0  0
  189.4410  177.4440  136.0180 C   0  0  0  0  0  2  0  0  0  0  0  0
  192.4310  173.1550  134.9370 C   0  0  0  0  0  2  0  0  0  0  0  0
  186.9060  178.9820  140.6800 O   0  0  0  0  0  0  0  0  0  0  0  0
  187.6350  178.0920  141.1950 C   0  0  0  0  0  0  0  0  0  0  0  0
  189.0640  177.8410  139.1040 C   0  0  0  0  0  0  0  0  0  0  0  0
  188.7090  177.5040  140.4500 N   0  0  0  0  0  2  0  0  0  0  0  0
  188.4270  178.7260  138.4700 O   0  0  0  0  0  0  0  0  0  0  0  0
  188.1800  176.6550  143.1890 C   0  0  0  0  0  1  0  0  0  0  0  0
  187.3790  177.6740  142.5350 N   0  0  0  0  0  2  0  0  0  0  0  0
  193.6310  176.2630  134.9510 C   0  0  0  0  0  3  0  0  0  0  0  0
  193.8540  175.0700  135.6430 C   0  0  0  0  0  0  0  0  0  0  0  0
  195.1650  174.6940  135.9680 C   0  0  0  0  0  3  0  0  0  0  0  0
  197.6210  175.1340  135.9310 C   0  0  0  0  0  1  0  0  0  0  0  0
  195.9840  176.6780  134.9210 N   0  0  0  0  0  0  0  0  0  0  0  0
  196.2260  175.5210  135.5940 C   0  0  0  0  0  0  0  0  0  0  0  0
  194.7200  177.0610  134.5960 C   0  0  0  0  0  3  0  0  0  0  0  0
  1 10  1  0  0  0  0
  2  5  2  0  0  0  0
  3 15  1  0  0  0  0
  4  6  1  0  0  0  0
  5  7  1  0  0  0  0
  6  9  2  0  0  0  0
  6  2  1  0  0  0  0
  7  3  1  1  0  0  0
  8  4  2  0  0  0  0
  8 12  1  0  0  0  0
  9 17  1  0  0  0  0
 12 16  2  0  0  0  0
 13  9  1  0  0  0  0
 13  1  1  0  0  0  0
 14 15  1  0  0  0  0
 14 26  1  6  0  0  0
 16  2  1  0  0  0  0
 16 11  1  0  0  0  0
 17  5  1  0  0  0  0
 17 22  1  0  0  0  0
 18  4  1  0  0  0  0
 18  1  1  0  0  0  0
 19 32  1  6  0  0  0
 19  7  1  0  0  0  0
 20  1  1  0  0  0  0
 21 14  1  0  0  0  0
 22 21  1  0  0  0  0
 23 11  1  0  0  0  0
 23 19  1  0  0  0  0
 24 25  2  0  0  0  0
 25 30  1  0  0  0  0
 26 27  1  0  0  0  0
 27 25  1  0  0  0  0
 28 26  2  0  0  0  0
 30 29  1  0  0  0  0
 31 32  1  0  0  0  0
 32 33  2  0  0  0  0
 35 36  2  0  0  0  0
 36 34  1  0  0  0  0
 36 33  1  0  0  0  0
 37 35  1  0  0  0  0
 37 31  2  0  0  0  0
M  END
>  <MODEL>
7

>  <REMARK>
 VINA RESULT:      -5.1      4.877     10.608
  Name = 
  2 active torsions:
  status: ('A' for Active; 'I' for Inactive)
    1  A    between atoms: C_8  and  C_18
    2  A    between atoms: C_23  and  C_30
                            x       y       z     vdW  Elec       q    Type
                         _______ _______ _______ _____ _____    ______ ____

>  <TORSDO>
F 2

$$$$
=
 OpenBabel11122411383D

 37 42  0  0  1  0  0  0  0  0999 V2000
  189.2240  177.7680  140.4360 C   0  0  0  0  0  0  0  0  0  0  0  0
  185.1730  178.5090  140.0290 C   0  0  0  0  0  0  0  0  0  0  0  0
  183.7740  176.3300  137.9510 C   0  0  0  0  0  2  0  0  0  0  0  0
  187.0310  178.4130  141.5610 C   0  0  0  0  0  0  0  0  0  0  0  0
  185.0470  178.3970  138.6510 C   0  0  0  0  0  0  0  0  0  0  0  0
  186.5010  178.5330  140.2960 C   0  0  0  0  0  0  0  0  0  0  0  0
  183.8150  177.8620  137.9550 C   0  0  2  0  0  3  0  0  0  0  0  0
  186.1260  178.3310  142.6360 C   0  0  0  0  0  3  0  0  0  0  0  0
  187.1800  178.4510  139.1300 C   0  0  0  0  0  0  0  0  0  0  0  0
  189.0600  176.2570  140.4360 C   0  0  0  0  0  1  0  0  0  0  0  0
  182.8700  178.5540  140.8050 O   0  0  0  0  0  0  0  0  0  0  0  0
  184.7280  178.3560  142.3830 C   0  0  0  0  0  3  0  0  0  0  0  0
  188.6770  178.3400  139.0970 C   0  0  0  0  0  2  0  0  0  0  0  0
  185.5700  175.9700  136.1630 C   0  0  1  0  0  3  0  0  0  0  0  0
  185.1170  175.6840  137.5960 C   0  0  0  0  0  2  0  0  0  0  0  0
  184.2370  178.4560  141.0610 C   0  0  0  0  0  0  0  0  0  0  0  0
  186.3040  178.3570  138.1030 N   0  0  0  0  0  0  0  0  0  0  0  0
  188.5310  178.3590  141.7000 C   0  0  0  0  0  2  0  0  0  0  0  0
  182.4450  178.4140  138.3890 C   0  0  1  0  0  3  0  0  0  0  0  0
  190.7030  178.0780  140.5170 C   0  0  0  0  0  1  0  0  0  0  0  0
  185.7020  177.4620  135.8250 C   0  0  0  0  0  2  0  0  0  0  0  0
  186.7020  178.2310  136.6960 C   0  0  0  0  0  2  0  0  0  0  0  0
  182.3850  179.2580  139.6650 C   0  0  0  0  0  2  0  0  0  0  0  0
  189.0110  173.4360  135.1570 O   0  0  0  0  0  0  0  0  0  0  0  0
  187.8470  172.9640  135.2550 C   0  0  0  0  0  0  0  0  0  0  0  0
  186.8200  175.2200  135.8330 C   0  0  0  0  0  0  0  0  0  0  0  0
  186.7390  173.8110  135.5890 N   0  0  0  0  0  2  0  0  0  0  0  0
  187.9230  175.8280  135.7550 O   0  0  0  0  0  0  0  0  0  0  0  0
  186.3260  170.9610  135.1290 C   0  0  0  0  0  1  0  0  0  0  0  0
  187.6410  171.5700  135.0310 N   0  0  0  0  0  2  0  0  0  0  0  0
  181.6900  178.4980  136.0110 C   0  0  0  0  0  3  0  0  0  0  0  0
  181.7890  179.1290  137.2530 C   0  0  0  0  0  0  0  0  0  0  0  0
  181.2800  180.4250  137.4140 C   0  0  0  0  0  3  0  0  0  0  0  0
  180.1380  182.4380  136.4810 C   0  0  0  0  0  1  0  0  0  0  0  0
  180.5960  180.4300  135.1260 N   0  0  0  0  0  0  0  0  0  0  0  0
  180.6820  181.0640  136.3260 C   0  0  0  0  0  0  0  0  0  0  0  0
  181.0840  179.1720  134.9480 C   0  0  0  0  0  3  0  0  0  0  0  0
  1 10  1  0  0  0  0
  1 20  1  0  0  0  0
  1 18  1  0  0  0  0
  2  6  1  0  0  0  0
  2 16  1  0  0  0  0
  4 18  1  0  0  0  0
  4  8  2  0  0  0  0
  5  2  2  0  0  0  0
  6  4  1  0  0  0  0
  7  3  1  1  0  0  0
  7 19  1  0  0  0  0
  7  5  1  0  0  0  0
  9  6  2  0  0  0  0
 11 16  1  0  0  0  0
 12  8  1  0  0  0  0
 13  9  1  0  0  0  0
 13  1  1  0  0  0  0
 14 26  1  1  0  0  0
 14 15  1  0  0  0  0
 15  3  1  0  0  0  0
 16 12  2  0  0  0  0
 17  5  1  0  0  0  0
 17  9  1  0  0  0  0
 19 32  1  6  0  0  0
 19 23  1  0  0  0  0
 21 14  1  0  0  0  0
 21 22  1  0  0  0  0
 22 17  1  0  0  0  0
 23 11  1  0  0  0  0
 24 25  2  0  0  0  0
 25 27  1  0  0  0  0
 27 26  1  0  0  0  0
 28 26  2  0  0  0  0
 30 29  1  0  0  0  0
 30 25  1  0  0  0  0
 31 32  1  0  0  0  0
 32 33  2  0  0  0  0
 35 36  2  0  0  0  0
 36 34  1  0  0  0  0
 36 33  1  0  0  0  0
 37 35  1  0  0  0  0
 37 31  2  0  0  0  0
M  END
>  <MODEL>
8

>  <REMARK>
 VINA RESULT:      -5.0      2.565      3.708
  Name = 
  2 active torsions:
  status: ('A' for Active; 'I' for Inactive)
    1  A    between atoms: C_8  and  C_18
    2  A    between atoms: C_23  and  C_30
                            x       y       z     vdW  Elec       q    Type
                         _______ _______ _______ _____ _____    ______ ____

>  <TORSDO>
F 2

$$$$
=
 OpenBabel11122411383D

 37 42  0  0  1  0  0  0  0  0999 V2000
  184.2820  178.2520  142.6510 C   0  0  0  0  0  0  0  0  0  0  0  0
  187.1670  178.1350  145.6150 C   0  0  0  0  0  0  0  0  0  0  0  0
  190.1310  179.0350  144.4190 C   0  0  0  0  0  2  0  0  0  0  0  0
  184.8920  178.7220  145.0800 C   0  0  0  0  0  0  0  0  0  0  0  0
  188.1910  177.4980  144.9280 C   0  0  0  0  0  0  0  0  0  0  0  0
  186.0580  178.0280  144.8450 C   0  0  0  0  0  0  0  0  0  0  0  0
  189.6610  177.7740  145.1530 C   0  0  2  0  0  3  0  0  0  0  0  0
  184.8430  179.5340  146.2280 C   0  0  0  0  0  3  0  0  0  0  0  0
  186.3710  177.3390  143.7250 C   0  0  0  0  0  0  0  0  0  0  0  0
  184.8290  179.5180  142.0140 C   0  0  0  0  0  1  0  0  0  0  0  0
  188.2550  178.9270  147.6390 O   0  0  0  0  0  0  0  0  0  0  0  0
  185.9780  179.6220  147.0780 C   0  0  0  0  0  3  0  0  0  0  0  0
  185.3780  177.1490  142.6140 C   0  0  0  0  0  2  0  0  0  0  0  0
  190.1520  178.0390  142.0610 C   0  0  1  0  0  3  0  0  0  0  0  0
  189.6100  179.1340  142.9810 C   0  0  0  0  0  2  0  0  0  0  0  0
  187.1590  178.9060  146.7770 C   0  0  0  0  0  0  0  0  0  0  0  0
  187.6840  177.0110  143.7490 N   0  0  0  0  0  0  0  0  0  0  0  0
  183.7690  178.5780  144.0850 C   0  0  0  0  0  2  0  0  0  0  0  0
  190.1760  177.8000  146.6030 C   0  0  1  0  0  3  0  0  0  0  0  0
  183.1070  177.7810  141.8210 C   0  0  0  0  0  1  0  0  0  0  0  0
  189.8540  176.6090  142.5330 C   0  0  0  0  0  2  0  0  0  0  0  0
  188.3650  176.2760  142.6760 C   0  0  0  0  0  2  0  0  0  0  0  0
  189.1390  177.8130  147.7300 C   0  0  0  0  0  2  0  0  0  0  0  0
  189.1400  178.4100  137.8040 O   0  0  0  0  0  0  0  0  0  0  0  0
  190.0910  177.6830  138.1980 C   0  0  0  0  0  0  0  0  0  0  0  0
  189.7090  178.2540  140.6490 C   0  0  0  0  0  0  0  0  0  0  0  0
  190.4040  177.5810  139.5940 N   0  0  0  0  0  2  0  0  0  0  0  0
  188.7260  179.0050  140.4000 O   0  0  0  0  0  0  0  0  0  0  0  0
  191.9660  176.1050  137.6220 C   0  0  0  0  0  1  0  0  0  0  0  0
  190.8570  176.9600  137.2360 N   0  0  0  0  0  2  0  0  0  0  0  0
  191.8580  176.6380  148.0350 C   0  0  0  0  0  3  0  0  0  0  0  0
  191.1740  176.7100  146.8200 C   0  0  0  0  0  0  0  0  0  0  0  0
  191.4400  175.7650  145.8190 C   0  0  0  0  0  3  0  0  0  0  0  0
  192.6800  173.7580  145.0040 C   0  0  0  0  0  1  0  0  0  0  0  0
  193.0400  174.7150  147.2480 N   0  0  0  0  0  0  0  0  0  0  0  0
  192.3870  174.7660  146.0560 C   0  0  0  0  0  0  0  0  0  0  0  0
  192.7970  175.6220  148.2330 C   0  0  0  0  0  3  0  0  0  0  0  0
  1 18  1  0  0  0  0
  2 16  1  0  0  0  0
  4  8  2  0  0  0  0
  5  7  1  0  0  0  0
  5  2  2  0  0  0  0
  6  4  1  0  0  0  0
  6  2  1  0  0  0  0
  7  3  1  1  0  0  0
  7 19  1  0  0  0  0
  8 12  1  0  0  0  0
  9 17  1  0  0  0  0
  9  6  2  0  0  0  0
 10  1  1  0  0  0  0
 11 23  1  0  0  0  0
 13  1  1  0  0  0  0
 13  9  1  0  0  0  0
 14 26  1  6  0  0  0
 14 21  1  0  0  0  0
 14 15  1  0  0  0  0
 15  3  1  0  0  0  0
 16 12  2  0  0  0  0
 16 11  1  0  0  0  0
 17  5  1  0  0  0  0
 18  4  1  0  0  0  0
 19 32  1  1  0  0  0
 19 23  1  0  0  0  0
 20  1  1  0  0  0  0
 21 22  1  0  0  0  0
 22 17  1  0  0  0  0
 24 25  2  0  0  0  0
 25 27  1  0  0  0  0
 27 26  1  0  0  0  0
 28 26  2  0  0  0  0
 30 29  1  0  0  0  0
 30 25  1  0  0  0  0
 31 37  1  0  0  0  0
 32 31  2  0  0  0  0
 33 36  2  0  0  0  0
 33 32  1  0  0  0  0
 34 36  1  0  0  0  0
 35 37  2  0  0  0  0
 36 35  1  0  0  0  0
M  END
>  <MODEL>
9

>  <REMARK>
 VINA RESULT:      -4.7      4.763      8.758
  Name = 
  2 active torsions:
  status: ('A' for Active; 'I' for Inactive)
    1  A    between atoms: C_8  and  C_18
    2  A    between atoms: C_23  and  C_30
                            x       y       z     vdW  Elec       q    Type
                         _______ _______ _______ _____ _____    ______ ____

>  <TORSDO>
F 2

$$$$
