=
 OpenBabel11122410413D

 32 38  0  0  1  0  0  0  0  0999 V2000
  187.5770  178.7220  136.8120 C   0  0  1  0  0  3  0  0  0  0  0  0
  188.1990  177.7760  141.9700 C   0  0  1  0  0  3  0  0  0  0  0  0
  184.0660  179.3960  143.7500 C   0  0  0  0  0  3  0  0  0  0  0  0
  184.4590  179.0340  145.1240 C   0  0  0  0  0  3  0  0  0  0  0  0
  190.0300  177.1970  143.5030 C   0  0  0  0  0  0  0  0  0  0  0  0
  190.4430  177.1160  144.8240 C   0  0  0  0  0  0  0  0  0  0  0  0
  188.4350  177.5840  139.4690 C   0  0  1  0  0  3  0  0  0  0  0  0
  186.2320  178.1800  140.4100 C   0  0  0  0  0  2  0  0  0  0  0  0
  190.3680  177.1800  147.0280 C   0  0  0  0  0  0  0  0  0  0  0  0
  186.5880  178.6290  137.9720 C   0  0  2  0  0  3  0  0  0  0  0  0
  184.7430  178.9640  142.7250 N   0  0  0  0  0  0  0  0  0  0  0  0
  186.8100  178.1470  141.7590 N   0  0  1  0  0  0  0  0  0  0  0  0
  185.8500  178.0050  142.8520 C   0  0  1  0  0  3  0  0  0  0  0  0
  187.7970  177.7790  144.3710 C   0  0  0  0  0  0  0  0  0  0  0  0
  191.6850  176.8080  146.6220 N   0  0  0  0  0  0  0  0  0  0  0  0
  189.0560  178.7270  137.2550 C   0  0  0  0  0  2  0  0  0  0  0  0
  187.2600  178.5570  139.3580 C   0  0  2  0  0  3  0  0  0  0  0  0
  191.7290  176.7700  145.3430 N   0  0  0  0  0  0  0  0  0  0  0  0
  189.4370  177.6860  138.3150 C   0  0  0  0  0  2  0  0  0  0  0  0
  186.8450  177.4150  137.0860 C   0  0  1  0  0  3  0  0  0  0  0  0
  185.6270  178.4270  145.3450 C   0  0  0  0  0  3  0  0  0  0  0  0
  186.5020  178.0920  144.2040 C   0  0  2  0  0  3  0  0  0  0  0  0
  188.2900  177.6920  145.6470 N   0  0  0  0  0  0  0  0  0  0  0  0
  189.1420  177.8180  140.7890 C   0  0  0  0  0  2  0  0  0  0  0  0
  190.9500  176.9000  142.5020 O   0  0  0  0  0  1  0  0  0  0  0  0
  189.9860  177.3050  148.2210 O   0  0  0  0  0  0  0  0  0  0  0  0
  188.6690  177.5690  143.2370 C   0  0  0  0  0  0  0  0  0  0  0  0
  189.5870  177.3750  145.8370 C   0  0  0  0  0  0  0  0  0  0  0  0
  185.7490  177.2690  136.1440 N   0  0  0  0  0  2  0  0  0  0  0  0
  185.2090  175.9310  136.3110 C   0  0  0  0  0  3  0  0  0  0  0  0
  184.0410  175.9770  137.2730 C   0  0  0  0  0  1  0  0  0  0  0  0
  186.2770  175.0110  136.8680 C   0  0  0  0  0  1  0  0  0  0  0  0
  1 20  1  0  0  0  0
  1 16  1  1  0  0  0
  1 10  1  0  0  0  0
  2 24  1  1  0  0  0
  2 27  1  0  0  0  0
  3  4  1  0  0  0  0
  4 21  2  0  0  0  0
  5  6  1  0  0  0  0
  6 18  1  0  0  0  0
  6 28  2  0  0  0  0
  7 19  1  6  0  0  0
  7 24  1  0  0  0  0
  8 12  1  0  0  0  0
  9 26  2  0  0  0  0
 10 17  1  0  0  0  0
 11 13  1  0  0  0  0
 11  3  2  0  0  0  0
 12  2  1  0  0  0  0
 12 13  1  0  0  0  0
 13 22  1  0  0  0  0
 14 23  2  0  0  0  0
 15  9  1  0  0  0  0
 16 19  1  0  0  0  0
 17  7  1  0  0  0  0
 17  8  1  0  0  0  0
 18 15  2  0  0  0  0
 20 10  1  0  0  0  0
 22 14  1  0  0  0  0
 22 21  1  0  0  0  0
 23 28  1  0  0  0  0
 25  5  1  0  0  0  0
 27  5  2  0  0  0  0
 27 14  1  0  0  0  0
 28  9  1  0  0  0  0
 29 30  1  0  0  0  0
 29 20  1  0  0  0  0
 30 32  1  0  0  0  0
 30 31  1  0  0  0  0
M  END
>  <MODEL>
1

>  <REMARK>
 VINA RESULT:      -9.6      0.000      0.000
  Name = 
  2 active torsions:
  status: ('A' for Active; 'I' for Inactive)
    1  A    between atoms: C_20  and  N_29
    2  A    between atoms: N_29  and  C_30
                            x       y       z     vdW  Elec       q    Type
                         _______ _______ _______ _____ _____    ______ ____

>  <TORSDO>
F 2

$$$$
=
 OpenBabel11122410413D

 32 38  0  0  1  0  0  0  0  0999 V2000
  179.8720  178.7460  141.6480 C   0  0  1  0  0  3  0  0  0  0  0  0
  184.9000  178.4530  143.2350 C   0  0  1  0  0  3  0  0  0  0  0  0
  187.2060  178.0920  139.0610 C   0  0  0  0  0  3  0  0  0  0  0  0
  188.5170  178.0340  139.7340 C   0  0  0  0  0  3  0  0  0  0  0  0
  186.1240  178.0610  145.3300 C   0  0  0  0  0  0  0  0  0  0  0  0
  187.3450  177.7480  145.9080 C   0  0  0  0  0  0  0  0  0  0  0  0
  182.4420  179.0030  143.2040 C   0  0  1  0  0  3  0  0  0  0  0  0
  183.6960  179.0580  141.0790 C   0  0  0  0  0  2  0  0  0  0  0  0
  189.4990  177.3130  146.0970 C   0  0  0  0  0  0  0  0  0  0  0  0
  181.1980  178.9670  140.9240 C   0  0  2  0  0  3  0  0  0  0  0  0
  186.1340  178.4380  139.7130 N   0  0  0  0  0  0  0  0  0  0  0  0
  184.9080  178.6390  141.7940 N   0  0  1  0  0  0  0  0  0  0  0  0
  186.1700  178.9060  141.1060 C   0  0  1  0  0  3  0  0  0  0  0  0
  187.3150  178.1510  143.1730 C   0  0  0  0  0  0  0  0  0  0  0  0
  188.9030  177.2660  147.3930 N   0  0  0  0  0  0  0  0  0  0  0  0
  180.0280  178.1410  143.0600 C   0  0  0  0  0  2  0  0  0  0  0  0
  182.4330  178.5440  141.7450 C   0  0  2  0  0  3  0  0  0  0  0  0
  187.6530  177.5190  147.2840 N   0  0  0  0  0  0  0  0  0  0  0  0
  181.1170  178.7690  143.9370 C   0  0  0  0  0  2  0  0  0  0  0  0
  180.4360  180.1540  141.5040 C   0  0  1  0  0  3  0  0  0  0  0  0
  188.5900  178.1410  141.0620 C   0  0  0  0  0  3  0  0  0  0  0  0
  187.3550  178.3490  141.8450 C   0  0  2  0  0  3  0  0  0  0  0  0
  188.4780  177.8240  143.8210 N   0  0  0  0  0  0  0  0  0  0  0  0
  183.5680  178.2990  143.9340 C   0  0  0  0  0  2  0  0  0  0  0  0
  185.0140  178.1930  146.1570 O   0  0  0  0  0  1  0  0  0  0  0  0
  190.7180  177.1130  145.8520 O   0  0  0  0  0  0  0  0  0  0  0  0
  186.0730  178.2460  143.9060 C   0  0  0  0  0  0  0  0  0  0  0  0
  188.4600  177.6260  145.1550 C   0  0  0  0  0  0  0  0  0  0  0  0
  179.7400  180.8440  140.4330 N   0  0  0  0  0  2  0  0  0  0  0  0
  180.3500  180.4280  139.1810 C   0  0  0  0  0  3  0  0  0  0  0  0
  181.1750  181.5680  138.6210 C   0  0  0  0  0  1  0  0  0  0  0  0
  179.2720  180.0550  138.1830 C   0  0  0  0  0  1  0  0  0  0  0  0
  1 16  1  1  0  0  0
  2 27  1  0  0  0  0
  2 24  1  6  0  0  0
  3 11  2  0  0  0  0
  3  4  1  0  0  0  0
  4 21  2  0  0  0  0
  5  6  1  0  0  0  0
  5 25  1  0  0  0  0
  6 18  1  0  0  0  0
  7 24  1  1  0  0  0
  7 19  1  0  0  0  0
  8 17  1  0  0  0  0
  8 12  1  0  0  0  0
  9 15  1  0  0  0  0
 10 20  1  0  0  0  0
 10  1  1  0  0  0  0
 10 17  1  0  0  0  0
 11 13  1  0  0  0  0
 12  2  1  0  0  0  0
 13 12  1  0  0  0  0
 13 22  1  0  0  0  0
 14 23  2  0  0  0  0
 14 27  1  0  0  0  0
 16 19  1  0  0  0  0
 17  7  1  0  0  0  0
 18 15  2  0  0  0  0
 20  1  1  0  0  0  0
 21 22  1  0  0  0  0
 22 14  1  0  0  0  0
 23 28  1  0  0  0  0
 26  9  2  0  0  0  0
 27  5  2  0  0  0  0
 28  6  2  0  0  0  0
 28  9  1  0  0  0  0
 29 20  1  0  0  0  0
 30 29  1  0  0  0  0
 31 30  1  0  0  0  0
 32 30  1  0  0  0  0
M  END
>  <MODEL>
2

>  <REMARK>
 VINA RESULT:      -9.5      3.137      5.732
  Name = 
  2 active torsions:
  status: ('A' for Active; 'I' for Inactive)
    1  A    between atoms: C_20  and  N_29
    2  A    between atoms: N_29  and  C_30
                            x       y       z     vdW  Elec       q    Type
                         _______ _______ _______ _____ _____    ______ ____

>  <TORSDO>
F 2

$$$$
=
 OpenBabel11122410413D

 32 38  0  0  1  0  0  0  0  0999 V2000
  181.8690  178.5850  139.8290 C   0  0  1  0  0  3  0  0  0  0  0  0
  186.0420  178.2740  143.0500 C   0  0  1  0  0  3  0  0  0  0  0  0
  189.5630  177.2850  139.9690 C   0  0  0  0  0  3  0  0  0  0  0  0
  190.5670  177.2550  141.0490 C   0  0  0  0  0  3  0  0  0  0  0  0
  186.4640  178.0980  145.4650 C   0  0  0  0  0  0  0  0  0  0  0  0
  187.3930  177.8070  146.4520 C   0  0  0  0  0  0  0  0  0  0  0  0
  183.7890  178.9240  142.1280 C   0  0  1  0  0  3  0  0  0  0  0  0
  185.6770  178.6530  140.5620 C   0  0  0  0  0  2  0  0  0  0  0  0
  189.3180  177.3050  147.4060 C   0  0  0  0  0  0  0  0  0  0  0  0
  183.3740  178.6540  139.5790 C   0  0  2  0  0  3  0  0  0  0  0  0
  188.3690  177.7580  140.1790 N   0  0  0  0  0  0  0  0  0  0  0  0
  186.5430  178.2750  141.6860 N   0  0  1  0  0  0  0  0  0  0  0  0
  187.9790  178.3970  141.4440 C   0  0  1  0  0  3  0  0  0  0  0  0
  188.3060  177.8610  143.8430 C   0  0  0  0  0  0  0  0  0  0  0  0
  188.3240  177.4500  148.4200 N   0  0  0  0  0  0  0  0  0  0  0  0
  181.4960  178.1580  141.2650 C   0  0  0  0  0  2  0  0  0  0  0  0
  184.2260  178.2840  140.8100 C   0  0  2  0  0  3  0  0  0  0  0  0
  187.2070  177.7410  147.8680 N   0  0  0  0  0  0  0  0  0  0  0  0
  182.2820  178.8430  142.3890 C   0  0  0  0  0  2  0  0  0  0  0  0
  182.5650  179.9360  139.7390 C   0  0  1  0  0  3  0  0  0  0  0  0
  190.2030  177.5270  142.3040 C   0  0  0  0  0  3  0  0  0  0  0  0
  188.8010  177.8870  142.5950 C   0  0  2  0  0  3  0  0  0  0  0  0
  189.1560  177.5680  144.8780 N   0  0  0  0  0  0  0  0  0  0  0  0
  184.5460  178.2690  143.2670 C   0  0  0  0  0  2  0  0  0  0  0  0
  185.1570  178.3830  145.8470 O   0  0  0  0  0  1  0  0  0  0  0  0
  190.5270  177.0230  147.6110 O   0  0  0  0  0  0  0  0  0  0  0  0
  186.9040  178.1030  144.0980 C   0  0  0  0  0  0  0  0  0  0  0  0
  188.6800  177.5420  146.1400 C   0  0  0  0  0  0  0  0  0  0  0  0
  182.3250  180.5160  138.4290 N   0  0  0  0  0  2  0  0  0  0  0  0
  180.8870  180.5350  138.2200 C   0  0  0  0  0  3  0  0  0  0  0  0
  180.5950  180.5880  136.7360 C   0  0  0  0  0  1  0  0  0  0  0  0
  180.2870  181.7550  138.8910 C   0  0  0  0  0  1  0  0  0  0  0  0
  1 16  1  1  0  0  0
  2 24  1  6  0  0  0
  2 27  1  0  0  0  0
  3 11  2  0  0  0  0
  3  4  1  0  0  0  0
  4 21  2  0  0  0  0
  5 25  1  0  0  0  0
  5  6  1  0  0  0  0
  6 18  1  0  0  0  0
  7 19  1  1  0  0  0
  7 24  1  0  0  0  0
  8 17  1  0  0  0  0
  8 12  1  0  0  0  0
  9 26  2  0  0  0  0
  9 15  1  0  0  0  0
 10 20  1  0  0  0  0
 10  1  1  0  0  0  0
 10 17  1  0  0  0  0
 11 13  1  0  0  0  0
 12  2  1  0  0  0  0
 13 12  1  0  0  0  0
 13 22  1  0  0  0  0
 14 27  1  0  0  0  0
 14 23  2  0  0  0  0
 16 19  1  0  0  0  0
 17  7  1  0  0  0  0
 18 15  2  0  0  0  0
 20  1  1  0  0  0  0
 21 22  1  0  0  0  0
 22 14  1  0  0  0  0
 23 28  1  0  0  0  0
 27  5  2  0  0  0  0
 28  6  2  0  0  0  0
 28  9  1  0  0  0  0
 29 20  1  0  0  0  0
 30 29  1  0  0  0  0
 30 32  1  0  0  0  0
 31 30  1  0  0  0  0
M  END
>  <MODEL>
3

>  <REMARK>
 VINA RESULT:      -9.4      2.928      4.988
  Name = 
  2 active torsions:
  status: ('A' for Active; 'I' for Inactive)
    1  A    between atoms: C_20  and  N_29
    2  A    between atoms: N_29  and  C_30
                            x       y       z     vdW  Elec       q    Type
                         _______ _______ _______ _____ _____    ______ ____

>  <TORSDO>
F 2

$$$$
=
 OpenBabel11122410413D

 32 38  0  0  1  0  0  0  0  0999 V2000
  179.9330  178.6080  137.5320 C   0  0  1  0  0  3  0  0  0  0  0  0
  183.5830  178.8060  141.3430 C   0  0  1  0  0  3  0  0  0  0  0  0
  187.5910  177.9410  138.8820 C   0  0  0  0  0  3  0  0  0  0  0  0
  188.4190  178.0500  140.0970 C   0  0  0  0  0  3  0  0  0  0  0  0
  183.6470  178.7930  143.8000 C   0  0  0  0  0  0  0  0  0  0  0  0
  184.4340  178.6310  144.9300 C   0  0  0  0  0  0  0  0  0  0  0  0
  181.4540  179.2220  140.0620 C   0  0  1  0  0  3  0  0  0  0  0  0
  183.5720  179.0210  138.8100 C   0  0  0  0  0  2  0  0  0  0  0  0
  186.2240  178.3370  146.1860 C   0  0  0  0  0  0  0  0  0  0  0  0
  181.4500  178.7840  137.5020 C   0  0  2  0  0  3  0  0  0  0  0  0
  186.3480  178.3270  138.8840 N   0  0  0  0  0  0  0  0  0  0  0  0
  184.2830  178.7740  140.0710 N   0  0  1  0  0  0  0  0  0  0  0  0
  185.7270  178.9990  140.0340 C   0  0  1  0  0  3  0  0  0  0  0  0
  185.7250  178.6190  142.4850 C   0  0  0  0  0  0  0  0  0  0  0  0
  185.0800  178.4540  147.0320 N   0  0  0  0  0  0  0  0  0  0  0  0
  179.3790  178.2290  138.9230 C   0  0  0  0  0  2  0  0  0  0  0  0
  182.1300  178.5500  138.8660 C   0  0  2  0  0  3  0  0  0  0  0  0
  184.0420  178.6250  146.3040 N   0  0  0  0  0  0  0  0  0  0  0  0
  179.9350  179.0340  140.1030 C   0  0  0  0  0  2  0  0  0  0  0  0
  180.5360  180.0040  137.4580 C   0  0  1  0  0  3  0  0  0  0  0  0
  187.8520  178.3570  141.2650 C   0  0  0  0  0  3  0  0  0  0  0  0
  186.3990  178.6190  141.3240 C   0  0  2  0  0  3  0  0  0  0  0  0
  186.4280  178.4510  143.6500 N   0  0  0  0  0  0  0  0  0  0  0  0
  182.0750  178.6920  141.3390 C   0  0  0  0  0  2  0  0  0  0  0  0
  182.2800  178.9920  143.9680 O   0  0  0  0  0  1  0  0  0  0  0  0
  187.4060  178.1640  146.5840 O   0  0  0  0  0  0  0  0  0  0  0  0
  184.2870  178.7600  142.5150 C   0  0  0  0  0  0  0  0  0  0  0  0
  185.7690  178.4530  144.8270 C   0  0  0  0  0  0  0  0  0  0  0  0
  180.4560  180.4920  136.0920 N   0  0  0  0  0  2  0  0  0  0  0  0
  180.1580  181.9130  136.1560 C   0  0  0  0  0  3  0  0  0  0  0  0
  180.7260  182.6000  134.9330 C   0  0  0  0  0  1  0  0  0  0  0  0
  180.7810  182.5130  137.4010 C   0  0  0  0  0  1  0  0  0  0  0  0
  1 16  1  1  0  0  0
  2 24  1  6  0  0  0
  2 27  1  0  0  0  0
  3 11  2  0  0  0  0
  3  4  1  0  0  0  0
  4 21  2  0  0  0  0
  5 25  1  0  0  0  0
  5  6  1  0  0  0  0
  6 18  1  0  0  0  0
  7 19  1  1  0  0  0
  7 24  1  0  0  0  0
  8 17  1  0  0  0  0
  8 12  1  0  0  0  0
  9 26  2  0  0  0  0
  9 15  1  0  0  0  0
 10  1  1  0  0  0  0
 10 17  1  0  0  0  0
 11 13  1  0  0  0  0
 12  2  1  0  0  0  0
 13 12  1  0  0  0  0
 13 22  1  0  0  0  0
 14 27  1  0  0  0  0
 14 23  2  0  0  0  0
 16 19  1  0  0  0  0
 17  7  1  0  0  0  0
 18 15  2  0  0  0  0
 20 10  1  0  0  0  0
 20  1  1  0  0  0  0
 21 22  1  0  0  0  0
 22 14  1  0  0  0  0
 23 28  1  0  0  0  0
 27  5  2  0  0  0  0
 28  6  2  0  0  0  0
 28  9  1  0  0  0  0
 29 30  1  0  0  0  0
 29 20  1  0  0  0  0
 30 32  1  0  0  0  0
 31 30  1  0  0  0  0
M  END
>  <MODEL>
4

>  <REMARK>
 VINA RESULT:      -8.8      4.072      6.218
  Name = 
  2 active torsions:
  status: ('A' for Active; 'I' for Inactive)
    1  A    between atoms: C_20  and  N_29
    2  A    between atoms: N_29  and  C_30
                            x       y       z     vdW  Elec       q    Type
                         _______ _______ _______ _____ _____    ______ ____

>  <TORSDO>
F 2

$$$$
=
 OpenBabel11122410413D

 32 38  0  0  1  0  0  0  0  0999 V2000
  189.3310  177.7680  147.8720 C   0  0  1  0  0  3  0  0  0  0  0  0
  186.5220  178.0440  143.4090 C   0  0  1  0  0  3  0  0  0  0  0  0
  189.9770  178.1330  140.1030 C   0  0  0  0  0  3  0  0  0  0  0  0
  188.9930  178.2010  139.0060 C   0  0  0  0  0  3  0  0  0  0  0  0
  184.2040  178.5230  142.7480 C   0  0  0  0  0  0  0  0  0  0  0  0
  183.3470  178.8410  141.7050 C   0  0  0  0  0  0  0  0  0  0  0  0
  187.1570  177.5420  145.7950 C   0  0  1  0  0  3  0  0  0  0  0  0
  188.8840  177.3480  144.0420 C   0  0  0  0  0  2  0  0  0  0  0  0
  182.6320  179.2420  139.6570 C   0  0  0  0  0  0  0  0  0  0  0  0
  189.6790  177.4810  146.4130 C   0  0  2  0  0  3  0  0  0  0  0  0
  189.6060  177.8450  141.3170 N   0  0  0  0  0  0  0  0  0  0  0  0
  187.9020  177.7810  143.0400 N   0  0  1  0  0  0  0  0  0  0  0  0
  188.2300  177.4510  141.6540 C   0  0  1  0  0  3  0  0  0  0  0  0
  185.9760  178.2920  141.0500 C   0  0  0  0  0  0  0  0  0  0  0  0
  181.5360  179.3710  140.5620 N   0  0  0  0  0  0  0  0  0  0  0  0
  187.9560  178.4440  148.0620 C   0  0  0  0  0  2  0  0  0  0  0  0
  188.5890  177.9230  145.4160 C   0  0  2  0  0  3  0  0  0  0  0  0
  181.9500  179.1380  141.7510 N   0  0  0  0  0  0  0  0  0  0  0  0
  186.8000  177.8430  147.2540 C   0  0  0  0  0  2  0  0  0  0  0  0
  189.2590  176.3430  147.3370 C   0  0  1  0  0  3  0  0  0  0  0  0
  187.6880  178.1640  139.2790 C   0  0  0  0  0  3  0  0  0  0  0  0
  187.2380  178.0220  140.6790 C   0  0  2  0  0  3  0  0  0  0  0  0
  185.0670  178.6300  140.0810 N   0  0  0  0  0  0  0  0  0  0  0  0
  186.1960  178.2620  144.8690 C   0  0  0  0  0  2  0  0  0  0  0  0
  183.6840  178.4570  144.0360 O   0  0  0  0  0  1  0  0  0  0  0  0
  182.5660  179.4030  138.4110 O   0  0  0  0  0  0  0  0  0  0  0  0
  185.5820  178.2620  142.4400 C   0  0  0  0  0  0  0  0  0  0  0  0
  183.7940  178.9000  140.4320 C   0  0  0  0  0  0  0  0  0  0  0  0
  190.4400  175.6100  147.7600 N   0  0  0  0  0  2  0  0  0  0  0  0
  191.6000  176.3440  147.2810 C   0  0  0  0  0  3  0  0  0  0  0  0
  192.0530  175.7610  145.9600 C   0  0  0  0  0  1  0  0  0  0  0  0
  192.7270  176.2360  148.2890 C   0  0  0  0  0  1  0  0  0  0  0  0
  1 16  1  6  0  0  0
  2 24  1  1  0  0  0
  3 11  2  0  0  0  0
  4 21  2  0  0  0  0
  4  3  1  0  0  0  0
  5 25  1  0  0  0  0
  6 18  1  0  0  0  0
  6  5  2  0  0  0  0
  7 24  1  6  0  0  0
  7 19  1  0  0  0  0
  8 17  1  0  0  0  0
  9 28  1  0  0  0  0
  9 15  1  0  0  0  0
 10 20  1  0  0  0  0
 10  1  1  0  0  0  0
 11 13  1  0  0  0  0
 12  2  1  0  0  0  0
 12  8  1  0  0  0  0
 13 12  1  0  0  0  0
 14 27  2  0  0  0  0
 15 18  2  0  0  0  0
 17  7  1  0  0  0  0
 17 10  1  0  0  0  0
 19 16  1  0  0  0  0
 20 29  1  0  0  0  0
 20  1  1  0  0  0  0
 21 22  1  0  0  0  0
 22 14  1  0  0  0  0
 22 13  1  0  0  0  0
 23 28  2  0  0  0  0
 23 14  1  0  0  0  0
 26  9  2  0  0  0  0
 27  5  1  0  0  0  0
 27  2  1  0  0  0  0
 28  6  1  0  0  0  0
 30 29  1  0  0  0  0
 30 32  1  0  0  0  0
 31 30  1  0  0  0  0
M  END
>  <MODEL>
5

>  <REMARK>
 VINA RESULT:      -8.8      2.900      8.507
  Name = 
  2 active torsions:
  status: ('A' for Active; 'I' for Inactive)
    1  A    between atoms: C_20  and  N_29
    2  A    between atoms: N_29  and  C_30
                            x       y       z     vdW  Elec       q    Type
                         _______ _______ _______ _____ _____    ______ ____

>  <TORSDO>
F 2

$$$$
=
 OpenBabel11122410413D

 32 38  0  0  1  0  0  0  0  0999 V2000
  181.3130  179.6640  139.7030 C   0  0  1  0  0  3  0  0  0  0  0  0
  185.9140  178.2610  141.8830 C   0  0  1  0  0  3  0  0  0  0  0  0
  184.9500  178.7230  146.5440 C   0  0  0  0  0  3  0  0  0  0  0  0
  186.3100  178.2920  146.9180 C   0  0  0  0  0  3  0  0  0  0  0  0
  188.2360  177.9110  141.1580 C   0  0  0  0  0  0  0  0  0  0  0  0
  189.5560  177.7640  141.5560 C   0  0  0  0  0  0  0  0  0  0  0  0
  184.0090  178.4270  140.2420 C   0  0  1  0  0  3  0  0  0  0  0  0
  183.4970  178.4150  142.6560 C   0  0  0  0  0  2  0  0  0  0  0  0
  191.3130  177.5440  142.8710 C   0  0  0  0  0  0  0  0  0  0  0  0
  181.6950  179.2200  141.1130 C   0  0  2  0  0  3  0  0  0  0  0  0
  184.5130  178.5740  145.3270 N   0  0  0  0  0  0  0  0  0  0  0  0
  184.9330  178.3450  142.9510 N   0  0  1  0  0  0  0  0  0  0  0  0
  185.2790  177.8690  144.2890 C   0  0  1  0  0  3  0  0  0  0  0  0
  187.6470  177.8880  143.5520 C   0  0  0  0  0  0  0  0  0  0  0  0
  191.7480  177.5170  141.5120 N   0  0  0  0  0  0  0  0  0  0  0  0
  182.5260  179.9350  138.7860 C   0  0  0  0  0  2  0  0  0  0  0  0
  183.2170  179.1290  141.3460 C   0  0  2  0  0  3  0  0  0  0  0  0
  190.7290  177.6440  140.7480 N   0  0  0  0  0  0  0  0  0  0  0  0
  183.6390  178.8810  138.8260 C   0  0  0  0  0  2  0  0  0  0  0  0
  181.1520  178.2060  140.1130 C   0  0  1  0  0  3  0  0  0  0  0  0
  187.1780  177.9300  145.9730 C   0  0  0  0  0  3  0  0  0  0  0  0
  186.7570  177.9320  144.5560 C   0  0  2  0  0  3  0  0  0  0  0  0
  188.9760  177.7570  143.8600 N   0  0  0  0  0  0  0  0  0  0  0  0
  185.4900  178.6470  140.4840 C   0  0  0  0  0  2  0  0  0  0  0  0
  187.9540  177.9420  139.7960 O   0  0  0  0  0  1  0  0  0  0  0  0
  192.0660  177.4400  143.8750 O   0  0  0  0  0  0  0  0  0  0  0  0
  187.2260  178.0090  142.1740 C   0  0  0  0  0  0  0  0  0  0  0  0
  189.8850  177.7070  142.8650 C   0  0  0  0  0  0  0  0  0  0  0  0
  179.7550  177.9410  140.4120 N   0  0  0  0  0  2  0  0  0  0  0  0
  179.4180  176.6620  139.8110 C   0  0  0  0  0  3  0  0  0  0  0  0
  179.3050  175.6110  140.8950 C   0  0  0  0  0  1  0  0  0  0  0  0
  180.4990  176.2530  138.8300 C   0  0  0  0  0  1  0  0  0  0  0  0
  1 16  1  6  0  0  0
  1 20  1  0  0  0  0
  1 10  1  0  0  0  0
  2 24  1  1  0  0  0
  2 27  1  0  0  0  0
  2 12  1  0  0  0  0
  3  4  1  0  0  0  0
  5  6  2  0  0  0  0
  5 27  1  0  0  0  0
  6 28  1  0  0  0  0
  7 19  1  6  0  0  0
  7 24  1  0  0  0  0
  7 17  1  0  0  0  0
  8 12  1  0  0  0  0
  9 26  2  0  0  0  0
 10 17  1  0  0  0  0
 11  3  2  0  0  0  0
 12 13  1  0  0  0  0
 13 22  1  0  0  0  0
 13 11  1  0  0  0  0
 14 23  1  0  0  0  0
 14 22  1  0  0  0  0
 15  9  1  0  0  0  0
 16 19  1  0  0  0  0
 17  8  1  0  0  0  0
 18 15  2  0  0  0  0
 18  6  1  0  0  0  0
 20 29  1  0  0  0  0
 20 10  1  0  0  0  0
 21  4  2  0  0  0  0
 22 21  1  0  0  0  0
 25  5  1  0  0  0  0
 27 14  2  0  0  0  0
 28  9  1  0  0  0  0
 28 23  2  0  0  0  0
 30 29  1  0  0  0  0
 30 31  1  0  0  0  0
 32 30  1  0  0  0  0
M  END
>  <MODEL>
6

>  <REMARK>
 VINA RESULT:      -8.6      3.021      4.458
  Name = 
  2 active torsions:
  status: ('A' for Active; 'I' for Inactive)
    1  A    between atoms: C_20  and  N_29
    2  A    between atoms: N_29  and  C_30
                            x       y       z     vdW  Elec       q    Type
                         _______ _______ _______ _____ _____    ______ ____

>  <TORSDO>
F 2

$$$$
=
 OpenBabel11122410413D

 32 38  0  0  1  0  0  0  0  0999 V2000
  191.3230  175.8020  138.0150 C   0  0  1  0  0  3  0  0  0  0  0  0
  188.8120  177.3860  142.3820 C   0  0  1  0  0  3  0  0  0  0  0  0
  191.8320  175.9540  145.8020 C   0  0  0  0  0  3  0  0  0  0  0  0
  190.9600  176.4870  146.8640 C   0  0  0  0  0  3  0  0  0  0  0  0
  186.5670  178.1710  143.0030 C   0  0  0  0  0  0  0  0  0  0  0  0
  185.6810  178.4190  144.0400 C   0  0  0  0  0  0  0  0  0  0  0  0
  189.5730  177.2690  139.9830 C   0  0  1  0  0  3  0  0  0  0  0  0
  191.2010  176.7700  141.7690 C   0  0  0  0  0  2  0  0  0  0  0  0
  184.8940  178.6280  146.0900 C   0  0  0  0  0  0  0  0  0  0  0  0
  191.7910  176.0270  139.4510 C   0  0  2  0  0  3  0  0  0  0  0  0
  191.6310  176.2630  144.5530 N   0  0  0  0  0  0  0  0  0  0  0  0
  190.1500  176.9770  142.7730 N   0  0  1  0  0  0  0  0  0  0  0  0
  190.6190  177.2420  144.1310 C   0  0  1  0  0  3  0  0  0  0  0  0
  188.2520  177.6760  144.7330 C   0  0  0  0  0  0  0  0  0  0  0  0
  183.8610  178.9610  145.1630 N   0  0  0  0  0  0  0  0  0  0  0  0
  189.7910  175.8680  137.8420 C   0  0  0  0  0  2  0  0  0  0  0  0
  190.6410  176.2780  140.4470 C   0  0  2  0  0  3  0  0  0  0  0  0
  184.3170  178.8410  143.9740 N   0  0  0  0  0  0  0  0  0  0  0  0
  189.0910  177.0360  138.5480 C   0  0  0  0  0  2  0  0  0  0  0  0
  191.9670  177.1250  138.4080 C   0  0  1  0  0  3  0  0  0  0  0  0
  189.8350  177.1300  146.5430 C   0  0  0  0  0  3  0  0  0  0  0  0
  189.4900  177.3300  145.1210 C   0  0  2  0  0  3  0  0  0  0  0  0
  187.3100  177.9260  145.6970 N   0  0  0  0  0  0  0  0  0  0  0  0
  188.3970  177.2090  140.9380 C   0  0  0  0  0  2  0  0  0  0  0  0
  186.1250  178.3520  141.6960 O   0  0  0  0  0  1  0  0  0  0  0  0
  184.7770  178.6470  147.3440 O   0  0  0  0  0  0  0  0  0  0  0  0
  187.9010  177.7540  143.3330 C   0  0  0  0  0  0  0  0  0  0  0  0
  186.0620  178.2790  145.3280 C   0  0  0  0  0  0  0  0  0  0  0  0
  193.3490  177.1400  137.9600 N   0  0  0  0  0  2  0  0  0  0  0  0
  193.5500  175.9610  137.1340 C   0  0  0  0  0  3  0  0  0  0  0  0
  194.6540  175.1140  137.7290 C   0  0  0  0  0  1  0  0  0  0  0  0
  193.9410  176.3780  135.7300 C   0  0  0  0  0  1  0  0  0  0  0  0
  1 16  1  1  0  0  0
  1 20  1  0  0  0  0
  1 10  1  0  0  0  0
  2 24  1  1  0  0  0
  2 12  1  0  0  0  0
  2 27  1  0  0  0  0
  3  4  1  0  0  0  0
  5 27  2  0  0  0  0
  5  6  1  0  0  0  0
  6 28  2  0  0  0  0
  7 19  1  6  0  0  0
  7 17  1  0  0  0  0
  7 24  1  0  0  0  0
  8 12  1  0  0  0  0
  9 26  2  0  0  0  0
 10 17  1  0  0  0  0
 11  3  2  0  0  0  0
 12 13  1  0  0  0  0
 13 11  1  0  0  0  0
 13 22  1  0  0  0  0
 14 22  1  0  0  0  0
 14 23  2  0  0  0  0
 15  9  1  0  0  0  0
 16 19  1  0  0  0  0
 17  8  1  0  0  0  0
 18  6  1  0  0  0  0
 18 15  2  0  0  0  0
 20 10  1  0  0  0  0
 21  4  2  0  0  0  0
 22 21  1  0  0  0  0
 25  5  1  0  0  0  0
 27 14  1  0  0  0  0
 28 23  1  0  0  0  0
 28  9  1  0  0  0  0
 29 20  1  0  0  0  0
 30 31  1  0  0  0  0
 30 29  1  0  0  0  0
 32 30  1  0  0  0  0
M  END
>  <MODEL>
7

>  <REMARK>
 VINA RESULT:      -8.6      2.888      5.538
  Name = 
  2 active torsions:
  status: ('A' for Active; 'I' for Inactive)
    1  A    between atoms: C_20  and  N_29
    2  A    between atoms: N_29  and  C_30
                            x       y       z     vdW  Elec       q    Type
                         _______ _______ _______ _____ _____    ______ ____

>  <TORSDO>
F 2

$$$$
=
 OpenBabel11122410413D

 32 38  0  0  1  0  0  0  0  0999 V2000
  192.8890  175.0610  136.2670 C   0  0  1  0  0  3  0  0  0  0  0  0
  189.5090  177.3550  139.6150 C   0  0  1  0  0  3  0  0  0  0  0  0
  191.6060  176.5090  143.8290 C   0  0  0  0  0  3  0  0  0  0  0  0
  190.5360  177.2130  144.5580 C   0  0  0  0  0  3  0  0  0  0  0  0
  187.2150  178.2350  139.5610 C   0  0  0  0  0  0  0  0  0  0  0  0
  186.1260  178.6540  140.3100 C   0  0  0  0  0  0  0  0  0  0  0  0
  190.7940  176.8390  137.5100 C   0  0  1  0  0  3  0  0  0  0  0  0
  191.9490  176.6430  139.6830 C   0  0  0  0  0  2  0  0  0  0  0  0
  184.8990  179.2030  142.0590 C   0  0  0  0  0  0  0  0  0  0  0  0
  193.0230  175.5230  137.7170 C   0  0  2  0  0  3  0  0  0  0  0  0
  191.7090  176.6060  142.5340 N   0  0  0  0  0  0  0  0  0  0  0  0
  190.7050  177.0150  140.3670 N   0  0  1  0  0  0  0  0  0  0  0  0
  190.8610  177.5030  141.7360 C   0  0  1  0  0  3  0  0  0  0  0  0
  188.4380  178.0330  141.6930 C   0  0  0  0  0  0  0  0  0  0  0  0
  184.1200  179.3780  140.8760 N   0  0  0  0  0  0  0  0  0  0  0  0
  191.4400  175.1000  135.7340 C   0  0  0  0  0  2  0  0  0  0  0  0
  191.6870  175.9370  138.3640 C   0  0  2  0  0  3  0  0  0  0  0  0
  184.8310  179.0600  139.8610 N   0  0  0  0  0  0  0  0  0  0  0  0
  190.6450  176.3700  136.0590 C   0  0  0  0  0  2  0  0  0  0  0  0
  193.4780  176.4310  136.5800 C   0  0  1  0  0  3  0  0  0  0  0  0
  189.5410  177.7950  143.8850 C   0  0  0  0  0  3  0  0  0  0  0  0
  189.5400  177.7560  142.4080 C   0  0  2  0  0  3  0  0  0  0  0  0
  187.3110  178.4420  142.3580 N   0  0  0  0  0  0  0  0  0  0  0  0
  189.4300  176.9400  138.1630 C   0  0  0  0  0  2  0  0  0  0  0  0
  187.0920  178.1960  138.1760 O   0  0  0  0  0  1  0  0  0  0  0  0
  184.4990  179.4300  143.2310 O   0  0  0  0  0  0  0  0  0  0  0  0
  188.4200  177.8770  140.2560 C   0  0  0  0  0  0  0  0  0  0  0  0
  186.1950  178.7300  141.6570 C   0  0  0  0  0  0  0  0  0  0  0  0
  194.9250  176.3700  136.4690 N   0  0  0  0  0  2  0  0  0  0  0  0
  195.2620  176.5970  135.0730 C   0  0  0  0  0  3  0  0  0  0  0  0
  196.3150  175.5980  134.6420 C   0  0  0  0  0  1  0  0  0  0  0  0
  195.8060  178.0010  134.8980 C   0  0  0  0  0  1  0  0  0  0  0  0
  1 16  1  6  0  0  0
  1 20  1  0  0  0  0
  1 10  1  0  0  0  0
  2 24  1  1  0  0  0
  2 27  1  0  0  0  0
  2 12  1  0  0  0  0
  3  4  1  0  0  0  0
  5 27  2  0  0  0  0
  5  6  1  0  0  0  0
  6 28  2  0  0  0  0
  7 19  1  6  0  0  0
  7 24  1  0  0  0  0
  7 17  1  0  0  0  0
  8 12  1  0  0  0  0
  9 26  2  0  0  0  0
 10 17  1  0  0  0  0
 11  3  2  0  0  0  0
 12 13  1  0  0  0  0
 13 22  1  0  0  0  0
 13 11  1  0  0  0  0
 14 23  2  0  0  0  0
 14 22  1  0  0  0  0
 15  9  1  0  0  0  0
 16 19  1  0  0  0  0
 17  8  1  0  0  0  0
 18  6  1  0  0  0  0
 18 15  2  0  0  0  0
 20 10  1  0  0  0  0
 21  4  2  0  0  0  0
 22 21  1  0  0  0  0
 25  5  1  0  0  0  0
 27 14  1  0  0  0  0
 28  9  1  0  0  0  0
 28 23  1  0  0  0  0
 29 20  1  0  0  0  0
 30 29  1  0  0  0  0
 31 30  1  0  0  0  0
 32 30  1  0  0  0  0
M  END
>  <MODEL>
8

>  <REMARK>
 VINA RESULT:      -8.3      3.935      6.614
  Name = 
  2 active torsions:
  status: ('A' for Active; 'I' for Inactive)
    1  A    between atoms: C_20  and  N_29
    2  A    between atoms: N_29  and  C_30
                            x       y       z     vdW  Elec       q    Type
                         _______ _______ _______ _____ _____    ______ ____

>  <TORSDO>
F 2

$$$$
=
 OpenBabel11122410413D

 32 38  0  0  1  0  0  0  0  0999 V2000
  189.5990  176.7430  145.7960 C   0  0  1  0  0  3  0  0  0  0  0  0
  187.9440  177.9610  140.9320 C   0  0  1  0  0  3  0  0  0  0  0  0
  183.2150  178.2590  141.5720 C   0  0  0  0  0  3  0  0  0  0  0  0
  182.9940  178.5970  140.1530 C   0  0  0  0  0  3  0  0  0  0  0  0
  188.8580  177.9670  138.6510 C   0  0  0  0  0  0  0  0  0  0  0  0
  188.5700  178.0340  137.2960 C   0  0  0  0  0  0  0  0  0  0  0  0
  189.4200  177.7620  142.9650 C   0  0  1  0  0  3  0  0  0  0  0  0
  187.0060  178.1650  143.2860 C   0  0  0  0  0  2  0  0  0  0  0  0
  187.4150  178.2560  135.4290 C   0  0  0  0  0  0  0  0  0  0  0  0
  188.2970  177.3390  145.2670 C   0  0  2  0  0  3  0  0  0  0  0  0
  184.4100  178.2790  142.0860 N   0  0  0  0  0  0  0  0  0  0  0  0
  186.8150  178.1280  141.8310 N   0  0  1  0  0  0  0  0  0  0  0  0
  185.5870  178.7500  141.3410 C   0  0  1  0  0  3  0  0  0  0  0  0
  186.4610  178.3860  139.0490 C   0  0  0  0  0  0  0  0  0  0  0  0
  188.7880  178.0470  135.1000 N   0  0  0  0  0  0  0  0  0  0  0  0
  190.5410  176.2240  144.6880 C   0  0  0  0  0  2  0  0  0  0  0  0
  188.1770  177.3070  143.7300 C   0  0  2  0  0  3  0  0  0  0  0  0
  189.4590  177.9190  136.1830 N   0  0  0  0  0  0  0  0  0  0  0  0
  190.7270  177.1530  143.4830 C   0  0  0  0  0  2  0  0  0  0  0  0
  189.3990  178.2530  145.7910 C   0  0  1  0  0  3  0  0  0  0  0  0
  184.0360  178.7330  139.3310 C   0  0  0  0  0  3  0  0  0  0  0  0
  185.4070  178.5750  139.8580 C   0  0  2  0  0  3  0  0  0  0  0  0
  186.2610  178.4230  137.6930 N   0  0  0  0  0  0  0  0  0  0  0  0
  189.2420  177.4280  141.4960 C   0  0  0  0  0  2  0  0  0  0  0  0
  190.1800  177.7740  139.0380 O   0  0  0  0  0  1  0  0  0  0  0  0
  186.4870  178.4230  134.5950 O   0  0  0  0  0  0  0  0  0  0  0  0
  187.7770  178.1160  139.5840 C   0  0  0  0  0  0  0  0  0  0  0  0
  187.3070  178.2400  136.8630 C   0  0  0  0  0  0  0  0  0  0  0  0
  189.0550  178.6980  147.1310 N   0  0  0  0  0  2  0  0  0  0  0  0
  187.8220  178.0260  147.5070 C   0  0  0  0  0  3  0  0  0  0  0  0
  186.6690  179.0030  147.4130 C   0  0  0  0  0  1  0  0  0  0  0  0
  187.9280  177.5150  148.9300 C   0  0  0  0  0  1  0  0  0  0  0  0
  1 16  1  6  0  0  0
  2 24  1  6  0  0  0
  2 12  1  0  0  0  0
  3 11  2  0  0  0  0
  4  3  1  0  0  0  0
  5 25  1  0  0  0  0
  5 27  1  0  0  0  0
  6  5  2  0  0  0  0
  7 24  1  6  0  0  0
  7 19  1  0  0  0  0
  7 17  1  0  0  0  0
  8 17  1  0  0  0  0
  9 28  1  0  0  0  0
 10 20  1  0  0  0  0
 10  1  1  0  0  0  0
 12  8  1  0  0  0  0
 13 12  1  0  0  0  0
 13 11  1  0  0  0  0
 14 27  2  0  0  0  0
 14 22  1  0  0  0  0
 15  9  1  0  0  0  0
 15 18  2  0  0  0  0
 17 10  1  0  0  0  0
 18  6  1  0  0  0  0
 19 16  1  0  0  0  0
 20  1  1  0  0  0  0
 20 29  1  0  0  0  0
 21 22  1  0  0  0  0
 21  4  2  0  0  0  0
 22 13  1  0  0  0  0
 23 14  1  0  0  0  0
 26  9  2  0  0  0  0
 27  2  1  0  0  0  0
 28  6  1  0  0  0  0
 28 23  2  0  0  0  0
 29 30  1  0  0  0  0
 30 32  1  0  0  0  0
 31 30  1  0  0  0  0
M  END
>  <MODEL>
9

>  <REMARK>
 VINA RESULT:      -7.7      2.521      7.672
  Name = 
  2 active torsions:
  status: ('A' for Active; 'I' for Inactive)
    1  A    between atoms: C_20  and  N_29
    2  A    between atoms: N_29  and  C_30
                            x       y       z     vdW  Elec       q    Type
                         _______ _______ _______ _____ _____    ______ ____

>  <TORSDO>
F 2

$$$$
