=
 OpenBabel11122411353D

 37 43  0  0  1  0  0  0  0  0999 V2000
  187.7490  178.0160  137.1680 C   0  0  0  0  0  0  0  0  0  0  0  0
  189.0230  177.3180  141.0860 C   0  0  0  0  0  0  0  0  0  0  0  0
  186.2930  177.4090  143.7830 C   0  0  0  0  0  2  0  0  0  0  0  0
  189.6250  177.2750  138.7310 C   0  0  0  0  0  0  0  0  0  0  0  0
  187.9360  177.8560  141.7990 C   0  0  0  0  0  0  0  0  0  0  0  0
  188.7880  177.6140  139.7740 C   0  0  0  0  0  0  0  0  0  0  0  0
  187.7170  177.8490  143.3320 C   0  0  2  0  0  3  0  0  0  0  0  0
  190.8140  176.6040  139.0490 C   0  0  0  0  0  3  0  0  0  0  0  0
  187.6290  178.2950  139.6650 C   0  0  0  0  0  0  0  0  0  0  0  0
  187.0080  176.6990  137.0130 C   0  0  0  0  0  1  0  0  0  0  0  0
  190.5900  176.3080  142.8360 C   0  0  0  0  0  2  0  0  0  0  0  0
  191.1010  176.2910  140.3980 C   0  0  0  0  0  3  0  0  0  0  0  0
  187.1340  178.8150  138.3460 C   0  0  0  0  0  2  0  0  0  0  0  0
  184.1470  178.3980  143.0160 C   0  0  1  0  0  3  0  0  0  0  0  0
  185.3380  177.5980  142.7080 N   0  0  1  0  0  0  0  0  0  0  0  0
  190.2160  176.6570  141.4380 C   0  0  0  0  0  0  0  0  0  0  0  0
  187.0950  178.4810  140.8900 N   0  0  0  0  0  0  0  0  0  0  0  0
  189.2680  177.7340  137.3390 C   0  0  0  0  0  2  0  0  0  0  0  0
  188.7660  177.1610  144.2240 C   0  0  1  0  0  3  0  0  0  0  0  0
  187.5540  178.8150  135.8970 C   0  0  0  0  0  1  0  0  0  0  0  0
  185.3710  179.0610  142.5400 C   0  0  1  0  0  3  0  0  0  0  0  0
  185.8260  179.2070  141.1040 C   0  0  0  0  0  2  0  0  0  0  0  0
  190.1970  177.4060  143.7960 C   0  0  0  0  0  2  0  0  0  0  0  0
  189.6330  177.2630  146.5690 C   0  0  0  0  0  3  0  0  0  0  0  0
  188.6040  177.5480  145.6650 C   0  0  0  0  0  0  0  0  0  0  0  0
  187.4420  178.1940  146.1170 C   0  0  0  0  0  3  0  0  0  0  0  0
  186.0820  179.2280  147.9390 C   0  0  0  0  0  1  0  0  0  0  0  0
  188.3440  178.2560  148.3620 C   0  0  0  0  0  3  0  0  0  0  0  0
  187.3140  178.5460  147.4640 C   0  0  0  0  0  0  0  0  0  0  0  0
  189.5040  177.6160  147.9150 C   0  0  0  0  0  3  0  0  0  0  0  0
  183.1280  178.2470  141.9310 C   0  0  0  0  0  0  0  0  0  0  0  0
  181.8750  178.9260  142.0360 N   0  0  0  0  0  2  0  0  0  0  0  0
  183.3680  177.4980  140.9450 O   0  0  0  0  0  0  0  0  0  0  0  0
  180.0980  180.1910  140.9360 C   0  0  0  0  0  1  0  0  0  0  0  0
  180.8630  178.8790  140.9890 C   0  0  2  0  0  3  0  0  0  0  0  0
  179.3290  177.8070  142.4990 O   0  0  0  0  0  1  0  0  0  0  0  0
  179.9110  177.7170  141.2320 C   0  0  0  0  0  2  0  0  0  0  0  0
  1 18  1  0  0  0  0
  1 13  1  0  0  0  0
  2 16  1  0  0  0  0
  2  5  2  0  0  0  0
  4  8  2  0  0  0  0
  4  6  1  0  0  0  0
  5  7  1  0  0  0  0
  6  2  1  0  0  0  0
  7  3  1  6  0  0  0
  7 19  1  0  0  0  0
  8 12  1  0  0  0  0
  9  6  2  0  0  0  0
  9 17  1  0  0  0  0
 10  1  1  0  0  0  0
 11 23  1  0  0  0  0
 12 16  2  0  0  0  0
 13  9  1  0  0  0  0
 14 31  1  6  0  0  0
 15 14  1  0  0  0  0
 15  3  1  1  0  0  0
 16 11  1  0  0  0  0
 17 22  1  0  0  0  0
 17  5  1  0  0  0  0
 18  4  1  0  0  0  0
 19 25  1  1  0  0  0
 20  1  1  0  0  0  0
 21 22  1  6  0  0  0
 21 15  1  0  0  0  0
 21 14  1  0  0  0  0
 23 19  1  0  0  0  0
 24 30  1  0  0  0  0
 25 26  1  0  0  0  0
 25 24  2  0  0  0  0
 26 29  2  0  0  0  0
 29 27  1  0  0  0  0
 29 28  1  0  0  0  0
 30 28  2  0  0  0  0
 31 32  1  0  0  0  0
 33 31  2  0  0  0  0
 35 34  1  1  0  0  0
 35 37  1  0  0  0  0
 35 32  1  0  0  0  0
 37 36  1  0  0  0  0
M  END
>  <MODEL>
1

>  <REMARK>
 VINA RESULT:      -9.7      0.000      0.000
  Name = 
  4 active torsions:
  status: ('A' for Active; 'I' for Inactive)
    1  A    between atoms: CA_4  and  N_12
    2  A    between atoms: CA_4  and  C_37
    3  A    between atoms: C_8  and  C_18
    4  A    between atoms: C_23  and  C_30
                            x       y       z     vdW  Elec       q    Type
                         _______ _______ _______ _____ _____    ______ ____

>  <TORSDO>
F 4

$$$$
=
 OpenBabel11122411353D

 37 43  0  0  1  0  0  0  0  0999 V2000
  187.7260  178.0100  137.1650 C   0  0  0  0  0  0  0  0  0  0  0  0
  188.9930  177.2850  141.0810 C   0  0  0  0  0  0  0  0  0  0  0  0
  186.2680  177.4160  143.7810 C   0  0  0  0  0  2  0  0  0  0  0  0
  189.5910  177.2360  138.7260 C   0  0  0  0  0  0  0  0  0  0  0  0
  187.9160  177.8400  141.7970 C   0  0  0  0  0  0  0  0  0  0  0  0
  188.7610  177.5860  139.7700 C   0  0  0  0  0  0  0  0  0  0  0  0
  187.6990  177.8330  143.3300 C   0  0  2  0  0  3  0  0  0  0  0  0
  190.7690  176.5450  139.0410 C   0  0  0  0  0  3  0  0  0  0  0  0
  187.6130  178.2870  139.6640 C   0  0  0  0  0  0  0  0  0  0  0  0
  186.9630  176.7060  137.0100 C   0  0  0  0  0  1  0  0  0  0  0  0
  190.5450  176.2460  142.8280 C   0  0  0  0  0  2  0  0  0  0  0  0
  191.0530  176.2250  140.3880 C   0  0  0  0  0  3  0  0  0  0  0  0
  187.1250  178.8180  138.3460 C   0  0  0  0  0  2  0  0  0  0  0  0
  184.1370  178.4410  143.0190 C   0  0  1  0  0  3  0  0  0  0  0  0
  185.3150  177.6230  142.7080 N   0  0  1  0  0  0  0  0  0  0  0  0
  190.1750  176.6030  141.4310 C   0  0  0  0  0  0  0  0  0  0  0  0
  187.0830  178.4790  140.8900 N   0  0  0  0  0  0  0  0  0  0  0  0
  189.2400  177.7030  137.3350 C   0  0  0  0  0  2  0  0  0  0  0  0
  188.7370  177.1260  144.2190 C   0  0  1  0  0  3  0  0  0  0  0  0
  187.5430  178.8150  135.8970 C   0  0  0  0  0  1  0  0  0  0  0  0
  185.3710  179.0850  142.5420 C   0  0  1  0  0  3  0  0  0  0  0  0
  185.8270  179.2260  141.1060 C   0  0  0  0  0  2  0  0  0  0  0  0
  190.1720  177.3480  143.7900 C   0  0  0  0  0  2  0  0  0  0  0  0
  189.6100  177.2140  146.5630 C   0  0  0  0  0  3  0  0  0  0  0  0
  188.5830  177.5130  145.6610 C   0  0  0  0  0  0  0  0  0  0  0  0
  187.4310  178.1730  146.1160 C   0  0  0  0  0  3  0  0  0  0  0  0
  186.0880  179.2220  147.9430 C   0  0  0  0  0  1  0  0  0  0  0  0
  188.3380  178.2210  148.3600 C   0  0  0  0  0  3  0  0  0  0  0  0
  187.3100  178.5250  147.4640 C   0  0  0  0  0  0  0  0  0  0  0  0
  189.4890  177.5670  147.9090 C   0  0  0  0  0  3  0  0  0  0  0  0
  183.1150  178.3090  141.9350 C   0  0  0  0  0  0  0  0  0  0  0  0
  183.3770  177.4640  140.8140 N   0  0  0  0  0  2  0  0  0  0  0  0
  182.0420  178.9680  142.0020 O   0  0  0  0  0  0  0  0  0  0  0  0
  182.5200  175.8150  139.2280 C   0  0  0  0  0  1  0  0  0  0  0  0
  182.4020  177.2350  139.7550 C   0  0  2  0  0  3  0  0  0  0  0  0
  183.7800  177.9640  137.9230 O   0  0  0  0  0  1  0  0  0  0  0  0
  182.6060  178.2390  138.6290 C   0  0  0  0  0  2  0  0  0  0  0  0
  1 18  1  0  0  0  0
  1 13  1  0  0  0  0
  2 16  1  0  0  0  0
  2  5  2  0  0  0  0
  4  8  2  0  0  0  0
  4  6  1  0  0  0  0
  5  7  1  0  0  0  0
  6  2  1  0  0  0  0
  7  3  1  6  0  0  0
  7 19  1  0  0  0  0
  8 12  1  0  0  0  0
  9  6  2  0  0  0  0
  9 17  1  0  0  0  0
 10  1  1  0  0  0  0
 11 23  1  0  0  0  0
 12 16  2  0  0  0  0
 13  9  1  0  0  0  0
 14 31  1  6  0  0  0
 15 14  1  0  0  0  0
 15  3  1  1  0  0  0
 16 11  1  0  0  0  0
 17 22  1  0  0  0  0
 17  5  1  0  0  0  0
 18  4  1  0  0  0  0
 19 25  1  1  0  0  0
 20  1  1  0  0  0  0
 21 22  1  6  0  0  0
 21 15  1  0  0  0  0
 21 14  1  0  0  0  0
 23 19  1  0  0  0  0
 24 30  1  0  0  0  0
 25 26  1  0  0  0  0
 25 24  2  0  0  0  0
 26 29  2  0  0  0  0
 29 27  1  0  0  0  0
 29 28  1  0  0  0  0
 30 28  2  0  0  0  0
 31 33  2  0  0  0  0
 32 31  1  0  0  0  0
 35 34  1  6  0  0  0
 35 32  1  0  0  0  0
 36 37  1  0  0  0  0
 37 35  1  0  0  0  0
M  END
>  <MODEL>
2

>  <REMARK>
 VINA RESULT:      -9.6      1.156      1.649
  Name = 
  4 active torsions:
  status: ('A' for Active; 'I' for Inactive)
    1  A    between atoms: CA_4  and  N_12
    2  A    between atoms: CA_4  and  C_37
    3  A    between atoms: C_8  and  C_18
    4  A    between atoms: C_23  and  C_30
                            x       y       z     vdW  Elec       q    Type
                         _______ _______ _______ _____ _____    ______ ____

>  <TORSDO>
F 4

$$$$
=
 OpenBabel11122411353D

 37 43  0  0  1  0  0  0  0  0999 V2000
  187.8390  177.8760  136.8810 C   0  0  0  0  0  0  0  0  0  0  0  0
  188.6090  177.4440  140.9660 C   0  0  0  0  0  0  0  0  0  0  0  0
  185.5480  177.5820  143.2780 C   0  0  0  0  0  2  0  0  0  0  0  0
  189.5150  177.2940  138.7150 C   0  0  0  0  0  0  0  0  0  0  0  0
  187.4220  177.9800  141.5000 C   0  0  0  0  0  0  0  0  0  0  0  0
  188.5390  177.6580  139.6190 C   0  0  0  0  0  0  0  0  0  0  0  0
  187.0050  178.0500  142.9890 C   0  0  2  0  0  3  0  0  0  0  0  0
  190.6710  176.6860  139.2230 C   0  0  0  0  0  3  0  0  0  0  0  0
  187.3840  178.2890  139.3210 C   0  0  0  0  0  0  0  0  0  0  0  0
  187.1640  176.5260  136.7120 C   0  0  0  0  0  1  0  0  0  0  0  0
  189.9620  176.5920  142.9610 C   0  0  0  0  0  2  0  0  0  0  0  0
  190.7890  176.4600  140.6140 C   0  0  0  0  0  3  0  0  0  0  0  0
  187.0510  178.7160  137.9210 C   0  0  0  0  0  2  0  0  0  0  0  0
  183.4920  178.4460  142.1830 C   0  0  1  0  0  3  0  0  0  0  0  0
  184.7360  177.6760  142.0790 N   0  0  1  0  0  0  0  0  0  0  0  0
  189.7650  176.8480  141.5080 C   0  0  0  0  0  0  0  0  0  0  0  0
  186.6890  178.5220  140.4540 N   0  0  0  0  0  0  0  0  0  0  0  0
  189.3300  177.6610  137.2640 C   0  0  0  0  0  2  0  0  0  0  0  0
  187.9480  177.4510  144.0480 C   0  0  1  0  0  3  0  0  0  0  0  0
  187.7880  178.5960  135.5510 C   0  0  0  0  0  1  0  0  0  0  0  0
  184.7470  179.1270  141.8300 C   0  0  1  0  0  3  0  0  0  0  0  0
  185.3820  179.2110  140.4580 C   0  0  0  0  0  2  0  0  0  0  0  0
  189.4150  177.7260  143.7950 C   0  0  0  0  0  2  0  0  0  0  0  0
  186.3140  178.4450  145.6630 C   0  0  0  0  0  3  0  0  0  0  0  0
  187.5870  177.9110  145.4310 C   0  0  0  0  0  0  0  0  0  0  0  0
  188.5010  177.8110  146.4910 C   0  0  0  0  0  3  0  0  0  0  0  0
  189.1120  178.1400  148.8900 C   0  0  0  0  0  1  0  0  0  0  0  0
  186.8700  178.7800  147.9950 C   0  0  0  0  0  3  0  0  0  0  0  0
  188.1420  178.2460  147.7700 C   0  0  0  0  0  0  0  0  0  0  0  0
  185.9550  178.8790  146.9420 C   0  0  0  0  0  3  0  0  0  0  0  0
  182.6290  178.1980  140.9870 C   0  0  0  0  0  0  0  0  0  0  0  0
  182.8800  177.0630  140.1550 N   0  0  0  0  0  2  0  0  0  0  0  0
  181.7040  179.0060  140.7010 O   0  0  0  0  0  0  0  0  0  0  0  0
  181.0100  175.6790  139.4100 C   0  0  0  0  0  1  0  0  0  0  0  0
  182.0420  176.7220  139.0130 C   0  0  2  0  0  3  0  0  0  0  0  0
  183.5170  175.0030  138.2040 O   0  0  0  0  0  1  0  0  0  0  0  0
  182.9010  176.2110  137.8660 C   0  0  0  0  0  2  0  0  0  0  0  0
  1 18  1  0  0  0  0
  1 13  1  0  0  0  0
  2  5  2  0  0  0  0
  2 16  1  0  0  0  0
  4  8  2  0  0  0  0
  4  6  1  0  0  0  0
  5  7  1  0  0  0  0
  6  2  1  0  0  0  0
  7  3  1  6  0  0  0
  7 19  1  0  0  0  0
  8 12  1  0  0  0  0
  9  6  2  0  0  0  0
  9 17  1  0  0  0  0
 10  1  1  0  0  0  0
 11 23  1  0  0  0  0
 12 16  2  0  0  0  0
 13  9  1  0  0  0  0
 14 31  1  6  0  0  0
 15 14  1  0  0  0  0
 15  3  1  1  0  0  0
 16 11  1  0  0  0  0
 17 22  1  0  0  0  0
 17  5  1  0  0  0  0
 18  4  1  0  0  0  0
 19 25  1  1  0  0  0
 20  1  1  0  0  0  0
 21 22  1  6  0  0  0
 21 15  1  0  0  0  0
 21 14  1  0  0  0  0
 23 19  1  0  0  0  0
 24 30  1  0  0  0  0
 25 24  2  0  0  0  0
 25 26  1  0  0  0  0
 26 29  2  0  0  0  0
 29 28  1  0  0  0  0
 29 27  1  0  0  0  0
 30 28  2  0  0  0  0
 32 31  1  0  0  0  0
 33 31  2  0  0  0  0
 35 34  1  1  0  0  0
 35 32  1  0  0  0  0
 37 36  1  0  0  0  0
 37 35  1  0  0  0  0
M  END
>  <MODEL>
3

>  <REMARK>
 VINA RESULT:      -9.5      1.458      2.138
  Name = 
  4 active torsions:
  status: ('A' for Active; 'I' for Inactive)
    1  A    between atoms: CA_4  and  N_12
    2  A    between atoms: CA_4  and  C_37
    3  A    between atoms: C_8  and  C_18
    4  A    between atoms: C_23  and  C_30
                            x       y       z     vdW  Elec       q    Type
                         _______ _______ _______ _____ _____    ______ ____

>  <TORSDO>
F 4

$$$$
=
 OpenBabel11122411353D

 37 43  0  0  1  0  0  0  0  0999 V2000
  184.7960  178.3260  142.0940 C   0  0  0  0  0  0  0  0  0  0  0  0
  187.1980  178.0250  145.5000 C   0  0  0  0  0  0  0  0  0  0  0  0
  190.9610  177.5930  144.8710 C   0  0  0  0  0  2  0  0  0  0  0  0
  184.9860  178.5300  144.6310 C   0  0  0  0  0  0  0  0  0  0  0  0
  188.3510  177.4450  144.9400 C   0  0  0  0  0  0  0  0  0  0  0  0
  186.2710  178.0490  144.4990 C   0  0  0  0  0  0  0  0  0  0  0  0
  189.6920  177.1350  145.6500 C   0  0  2  0  0  3  0  0  0  0  0  0
  184.6000  179.0040  145.8920 C   0  0  0  0  0  3  0  0  0  0  0  0
  186.8030  177.5160  143.3780 C   0  0  0  0  0  0  0  0  0  0  0  0
  185.2820  179.7070  141.6880 C   0  0  0  0  0  1  0  0  0  0  0  0
  187.7550  178.4790  147.9550 C   0  0  0  0  0  2  0  0  0  0  0  0
  185.5270  178.9840  146.9600 C   0  0  0  0  0  3  0  0  0  0  0  0
  185.9990  177.3460  142.1210 C   0  0  0  0  0  2  0  0  0  0  0  0
  191.5320  176.9970  142.5280 C   0  0  1  0  0  3  0  0  0  0  0  0
  190.6680  177.7330  143.4580 N   0  0  1  0  0  0  0  0  0  0  0  0
  186.8360  178.4820  146.7830 C   0  0  0  0  0  0  0  0  0  0  0  0
  188.0670  177.1150  143.6220 N   0  0  0  0  0  0  0  0  0  0  0  0
  184.0490  178.4240  143.4540 C   0  0  0  0  0  2  0  0  0  0  0  0
  189.8450  177.5120  147.1340 C   0  0  1  0  0  3  0  0  0  0  0  0
  183.8160  177.8470  141.0450 C   0  0  0  0  0  1  0  0  0  0  0  0
  190.3370  176.3460  143.0880 C   0  0  1  0  0  3  0  0  0  0  0  0
  188.9130  176.4790  142.5920 C   0  0  0  0  0  2  0  0  0  0  0  0
  188.6140  177.2370  147.9710 C   0  0  0  0  0  2  0  0  0  0  0  0
  191.3740  175.5410  147.3410 C   0  0  0  0  0  3  0  0  0  0  0  0
  191.0310  176.8330  147.7550 C   0  0  0  0  0  0  0  0  0  0  0  0
  191.8020  177.4740  148.7380 C   0  0  0  0  0  3  0  0  0  0  0  0
  193.7150  177.5030  150.3430 C   0  0  0  0  0  1  0  0  0  0  0  0
  193.2380  175.5310  148.8860 C   0  0  0  0  0  3  0  0  0  0  0  0
  192.9030  176.8220  149.3020 C   0  0  0  0  0  0  0  0  0  0  0  0
  192.4750  174.8900  147.9050 C   0  0  0  0  0  3  0  0  0  0  0  0
  191.3110  177.4760  141.1280 C   0  0  0  0  0  0  0  0  0  0  0  0
  190.0020  177.4160  140.5580 N   0  0  0  0  0  2  0  0  0  0  0  0
  192.2850  177.9000  140.4490 O   0  0  0  0  0  0  0  0  0  0  0  0
  188.2210  178.2530  139.1110 C   0  0  0  0  0  1  0  0  0  0  0  0
  189.6990  177.9240  139.2260 C   0  0  2  0  0  3  0  0  0  0  0  0
  190.2190  175.6280  138.7310 O   0  0  0  0  0  1  0  0  0  0  0  0
  190.1010  176.9030  138.1710 C   0  0  0  0  0  2  0  0  0  0  0  0
  1 13  1  0  0  0  0
  1 18  1  0  0  0  0
  2 16  1  0  0  0  0
  4  8  2  0  0  0  0
  5  2  2  0  0  0  0
  5  7  1  0  0  0  0
  6  4  1  0  0  0  0
  6  2  1  0  0  0  0
  7  3  1  6  0  0  0
  7 19  1  0  0  0  0
  8 12  1  0  0  0  0
  9 17  1  0  0  0  0
  9  6  2  0  0  0  0
 10  1  1  0  0  0  0
 11 23  1  0  0  0  0
 13  9  1  0  0  0  0
 14 31  1  6  0  0  0
 14 21  1  0  0  0  0
 14 15  1  0  0  0  0
 15  3  1  1  0  0  0
 16 12  2  0  0  0  0
 16 11  1  0  0  0  0
 17  5  1  0  0  0  0
 18  4  1  0  0  0  0
 19 25  1  1  0  0  0
 19 23  1  0  0  0  0
 20  1  1  0  0  0  0
 21 22  1  6  0  0  0
 21 15  1  0  0  0  0
 22 17  1  0  0  0  0
 24 25  2  0  0  0  0
 24 30  1  0  0  0  0
 25 26  1  0  0  0  0
 26 29  2  0  0  0  0
 28 29  1  0  0  0  0
 29 27  1  0  0  0  0
 30 28  2  0  0  0  0
 32 31  1  0  0  0  0
 33 31  2  0  0  0  0
 35 34  1  1  0  0  0
 35 32  1  0  0  0  0
 37 36  1  0  0  0  0
 37 35  1  0  0  0  0
M  END
>  <MODEL>
4

>  <REMARK>
 VINA RESULT:      -9.5      3.091      6.602
  Name = 
  4 active torsions:
  status: ('A' for Active; 'I' for Inactive)
    1  A    between atoms: CA_4  and  N_12
    2  A    between atoms: CA_4  and  C_37
    3  A    between atoms: C_8  and  C_18
    4  A    between atoms: C_23  and  C_30
                            x       y       z     vdW  Elec       q    Type
                         _______ _______ _______ _____ _____    ______ ____

>  <TORSDO>
F 4

$$$$
=
 OpenBabel11122411353D

 37 43  0  0  1  0  0  0  0  0999 V2000
  190.2640  177.5050  142.8730 C   0  0  0  0  0  0  0  0  0  0  0  0
  186.2680  178.1870  141.8570 C   0  0  0  0  0  0  0  0  0  0  0  0
  185.3810  177.7670  138.1460 C   0  0  0  0  0  2  0  0  0  0  0  0
  187.8680  177.8930  143.6620 C   0  0  0  0  0  0  0  0  0  0  0  0
  186.3970  178.3960  140.4710 C   0  0  0  0  0  0  0  0  0  0  0  0
  187.5420  178.0880  142.3370 C   0  0  0  0  0  0  0  0  0  0  0  0
  185.2620  178.6220  139.4420 C   0  0  2  0  0  3  0  0  0  0  0  0
  186.8140  177.8190  144.5830 C   0  0  0  0  0  3  0  0  0  0  0  0
  188.4190  178.2270  141.3210 C   0  0  0  0  0  0  0  0  0  0  0  0
  190.2210  176.0020  142.6520 C   0  0  0  0  0  1  0  0  0  0  0  0
  183.7600  178.2520  142.3540 C   0  0  0  0  0  2  0  0  0  0  0  0
  185.4800  177.9300  144.1280 C   0  0  0  0  0  3  0  0  0  0  0  0
  189.9040  178.2280  141.5480 C   0  0  0  0  0  2  0  0  0  0  0  0
  187.3550  177.6620  136.6400 C   0  0  1  0  0  3  0  0  0  0  0  0
  186.7530  177.3430  137.9400 N   0  0  1  0  0  0  0  0  0  0  0  0
  185.1870  178.1300  142.7590 C   0  0  0  0  0  0  0  0  0  0  0  0
  187.7500  178.4400  140.1690 N   0  0  0  0  0  0  0  0  0  0  0  0
  189.3250  177.8770  144.0540 C   0  0  0  0  0  2  0  0  0  0  0  0
  183.8040  178.5970  139.9330 C   0  0  1  0  0  3  0  0  0  0  0  0
  191.6790  177.8820  143.2520 C   0  0  0  0  0  1  0  0  0  0  0  0
  187.4330  178.6340  137.7420 C   0  0  1  0  0  3  0  0  0  0  0  0
  188.4350  178.6440  138.8760 C   0  0  0  0  0  2  0  0  0  0  0  0
  183.5890  179.2850  141.2650 C   0  0  0  0  0  2  0  0  0  0  0  0
  182.3140  178.3460  137.9380 C   0  0  0  0  0  3  0  0  0  0  0  0
  182.8690  179.1810  138.9150 C   0  0  0  0  0  0  0  0  0  0  0  0
  182.5410  180.5450  138.9290 C   0  0  0  0  0  3  0  0  0  0  0  0
  181.3220  182.5120  137.9870 C   0  0  0  0  0  1  0  0  0  0  0  0
  181.1170  180.2280  136.9960 C   0  0  0  0  0  3  0  0  0  0  0  0
  181.6670  181.0670  137.9700 C   0  0  0  0  0  0  0  0  0  0  0  0
  181.4400  178.8670  136.9810 C   0  0  0  0  0  3  0  0  0  0  0  0
  188.6330  176.9050  136.4630 C   0  0  0  0  0  0  0  0  0  0  0  0
  188.8260  175.6690  137.1550 N   0  0  0  0  0  2  0  0  0  0  0  0
  189.5440  177.3760  135.7290 O   0  0  0  0  0  0  0  0  0  0  0  0
  189.6730  173.3780  137.1620 C   0  0  0  0  0  1  0  0  0  0  0  0
  190.0160  174.8470  136.9800 C   0  0  2  0  0  3  0  0  0  0  0  0
  190.5280  175.8090  139.1230 O   0  0  0  0  0  1  0  0  0  0  0  0
  191.0950  175.2680  137.9670 C   0  0  0  0  0  2  0  0  0  0  0  0
  1 20  1  0  0  0  0
  1 18  1  0  0  0  0
  2  6  1  0  0  0  0
  2 16  1  0  0  0  0
  4 18  1  0  0  0  0
  4  8  2  0  0  0  0
  5  2  2  0  0  0  0
  6  4  1  0  0  0  0
  7  3  1  6  0  0  0
  7 19  1  0  0  0  0
  7  5  1  0  0  0  0
  9 13  1  0  0  0  0
  9  6  2  0  0  0  0
 10  1  1  0  0  0  0
 11 16  1  0  0  0  0
 12  8  1  0  0  0  0
 13  1  1  0  0  0  0
 14 31  1  1  0  0  0
 14 21  1  0  0  0  0
 14 15  1  0  0  0  0
 15  3  1  6  0  0  0
 16 12  2  0  0  0  0
 17  5  1  0  0  0  0
 17  9  1  0  0  0  0
 19 25  1  6  0  0  0
 19 23  1  0  0  0  0
 21 15  1  0  0  0  0
 21 22  1  1  0  0  0
 22 17  1  0  0  0  0
 23 11  1  0  0  0  0
 24 25  1  0  0  0  0
 25 26  2  0  0  0  0
 28 29  2  0  0  0  0
 29 27  1  0  0  0  0
 29 26  1  0  0  0  0
 30 28  1  0  0  0  0
 30 24  2  0  0  0  0
 31 32  1  0  0  0  0
 33 31  2  0  0  0  0
 35 32  1  0  0  0  0
 35 34  1  1  0  0  0
 35 37  1  0  0  0  0
 37 36  1  0  0  0  0
M  END
>  <MODEL>
5

>  <REMARK>
 VINA RESULT:      -9.4      3.221      8.056
  Name = 
  4 active torsions:
  status: ('A' for Active; 'I' for Inactive)
    1  A    between atoms: CA_4  and  N_12
    2  A    between atoms: CA_4  and  C_37
    3  A    between atoms: C_8  and  C_18
    4  A    between atoms: C_23  and  C_30
                            x       y       z     vdW  Elec       q    Type
                         _______ _______ _______ _____ _____    ______ ____

>  <TORSDO>
F 4

$$$$
=
 OpenBabel11122411353D

 37 43  0  0  1  0  0  0  0  0999 V2000
  189.8310  177.5300  142.7060 C   0  0  0  0  0  0  0  0  0  0  0  0
  185.8950  178.0550  144.0080 C   0  0  0  0  0  0  0  0  0  0  0  0
  183.1850  177.8400  141.2980 C   0  0  0  0  0  2  0  0  0  0  0  0
  188.2120  177.7300  144.6680 C   0  0  0  0  0  0  0  0  0  0  0  0
  185.2700  178.3640  142.7860 C   0  0  0  0  0  0  0  0  0  0  0  0
  187.2320  177.9960  143.7350 C   0  0  0  0  0  0  0  0  0  0  0  0
  183.7600  178.5970  142.5320 C   0  0  2  0  0  3  0  0  0  0  0  0
  187.8050  177.5340  145.9950 C   0  0  0  0  0  3  0  0  0  0  0  0
  187.4370  178.2520  142.4260 C   0  0  0  0  0  0  0  0  0  0  0  0
  189.6960  176.0460  142.4110 C   0  0  0  0  0  1  0  0  0  0  0  0
  184.0290  177.9460  145.7530 C   0  0  0  0  0  2  0  0  0  0  0  0
  186.4310  177.6010  146.3220 C   0  0  0  0  0  3  0  0  0  0  0  0
  188.8170  178.3200  141.8380 C   0  0  0  0  0  2  0  0  0  0  0  0
  184.0650  177.9470  138.9770 C   0  0  1  0  0  3  0  0  0  0  0  0
  184.2450  177.5070  140.3650 N   0  0  1  0  0  0  0  0  0  0  0  0
  185.4560  177.8770  145.3350 C   0  0  0  0  0  0  0  0  0  0  0  0
  186.2580  178.5050  141.8230 N   0  0  0  0  0  0  0  0  0  0  0  0
  189.6550  177.7680  144.2320 C   0  0  0  0  0  2  0  0  0  0  0  0
  182.7820  178.4560  143.7120 C   0  0  1  0  0  3  0  0  0  0  0  0
  191.2290  177.9590  142.3150 C   0  0  0  0  0  1  0  0  0  0  0  0
  184.7030  178.8450  139.9530 C   0  0  1  0  0  3  0  0  0  0  0  0
  186.1530  178.8340  140.3860 C   0  0  0  0  0  2  0  0  0  0  0  0
  183.2960  179.0390  145.0120 C   0  0  0  0  0  2  0  0  0  0  0  0
  180.4190  178.9830  144.3430 C   0  0  0  0  0  3  0  0  0  0  0  0
  181.4430  179.0550  143.3930 C   0  0  0  0  0  0  0  0  0  0  0  0
  181.2060  179.6870  142.1630 C   0  0  0  0  0  3  0  0  0  0  0  0
  179.7010  180.9060  140.5840 C   0  0  0  0  0  1  0  0  0  0  0  0
  178.9310  180.1610  142.8410 C   0  0  0  0  0  3  0  0  0  0  0  0
  179.9500  180.2390  141.8880 C   0  0  0  0  0  0  0  0  0  0  0  0
  179.1650  179.5350  144.0690 C   0  0  0  0  0  3  0  0  0  0  0  0
  185.0650  177.2770  138.0890 C   0  0  0  0  0  0  0  0  0  0  0  0
  186.2940  177.9370  137.7810 N   0  0  0  0  0  2  0  0  0  0  0  0
  184.8050  176.1470  137.5930 O   0  0  0  0  0  0  0  0  0  0  0  0
  188.1790  176.3840  137.8340 C   0  0  0  0  0  1  0  0  0  0  0  0
  187.3410  177.3190  136.9780 C   0  0  2  0  0  3  0  0  0  0  0  0
  188.4080  179.4610  137.2220 O   0  0  0  0  0  1  0  0  0  0  0  0
  188.2180  178.3900  136.3450 C   0  0  0  0  0  2  0  0  0  0  0  0
  1 18  1  0  0  0  0
  2 16  1  0  0  0  0
  4  8  2  0  0  0  0
  5  2  2  0  0  0  0
  6  2  1  0  0  0  0
  6  4  1  0  0  0  0
  7  3  1  6  0  0  0
  7  5  1  0  0  0  0
  7 19  1  0  0  0  0
  8 12  1  0  0  0  0
  9  6  2  0  0  0  0
 10  1  1  0  0  0  0
 13  9  1  0  0  0  0
 13  1  1  0  0  0  0
 14 31  1  6  0  0  0
 14 21  1  0  0  0  0
 14 15  1  0  0  0  0
 15  3  1  1  0  0  0
 16 11  1  0  0  0  0
 16 12  2  0  0  0  0
 17  9  1  0  0  0  0
 17  5  1  0  0  0  0
 18  4  1  0  0  0  0
 19 25  1  6  0  0  0
 19 23  1  0  0  0  0
 20  1  1  0  0  0  0
 21 15  1  0  0  0  0
 21 22  1  6  0  0  0
 22 17  1  0  0  0  0
 23 11  1  0  0  0  0
 25 24  2  0  0  0  0
 26 25  1  0  0  0  0
 27 29  1  0  0  0  0
 28 30  2  0  0  0  0
 29 26  2  0  0  0  0
 29 28  1  0  0  0  0
 30 24  1  0  0  0  0
 32 31  1  0  0  0  0
 33 31  2  0  0  0  0
 35 32  1  0  0  0  0
 35 34  1  1  0  0  0
 37 35  1  0  0  0  0
 37 36  1  0  0  0  0
M  END
>  <MODEL>
6

>  <REMARK>
 VINA RESULT:      -9.3      2.129      6.814
  Name = 
  4 active torsions:
  status: ('A' for Active; 'I' for Inactive)
    1  A    between atoms: CA_4  and  N_12
    2  A    between atoms: CA_4  and  C_37
    3  A    between atoms: C_8  and  C_18
    4  A    between atoms: C_23  and  C_30
                            x       y       z     vdW  Elec       q    Type
                         _______ _______ _______ _____ _____    ______ ____

>  <TORSDO>
F 4

$$$$
=
 OpenBabel11122411353D

 37 43  0  0  1  0  0  0  0  0999 V2000
  188.1610  177.6750  143.4310 C   0  0  0  0  0  0  0  0  0  0  0  0
  184.4540  178.5410  141.7070 C   0  0  0  0  0  0  0  0  0  0  0  0
  184.1170  177.7610  137.9640 C   0  0  0  0  0  2  0  0  0  0  0  0
  185.7200  178.3370  143.7720 C   0  0  0  0  0  0  0  0  0  0  0  0
  184.8150  178.5760  140.3470 C   0  0  0  0  0  0  0  0  0  0  0  0
  185.6230  178.4010  142.3980 C   0  0  0  0  0  0  0  0  0  0  0  0
  183.8810  178.7680  139.1270 C   0  0  2  0  0  3  0  0  0  0  0  0
  184.5330  178.4520  144.5090 C   0  0  0  0  0  3  0  0  0  0  0  0
  186.6560  178.3520  141.5310 C   0  0  0  0  0  0  0  0  0  0  0  0
  188.0100  176.1650  143.3620 C   0  0  0  0  0  1  0  0  0  0  0  0
  181.9170  178.8570  141.7750 C   0  0  0  0  0  2  0  0  0  0  0  0
  183.3020  178.6120  143.8320 C   0  0  0  0  0  3  0  0  0  0  0  0
  188.0810  178.2650  141.9980 C   0  0  0  0  0  2  0  0  0  0  0  0
  186.2810  177.3290  136.8220 C   0  0  1  0  0  3  0  0  0  0  0  0
  185.4570  177.2110  138.0310 N   0  0  1  0  0  0  0  0  0  0  0  0
  183.2460  178.6730  142.4200 C   0  0  0  0  0  0  0  0  0  0  0  0
  186.1970  178.4810  140.2690 N   0  0  0  0  0  0  0  0  0  0  0  0
  187.0900  178.2550  144.3970 C   0  0  0  0  0  2  0  0  0  0  0  0
  182.3680  178.9130  139.3720 C   0  0  1  0  0  3  0  0  0  0  0  0
  189.5300  177.9840  143.9970 C   0  0  0  0  0  1  0  0  0  0  0  0
  186.2800  178.4130  137.8160 C   0  0  1  0  0  3  0  0  0  0  0  0
  187.0900  178.4790  139.0930 C   0  0  0  0  0  2  0  0  0  0  0  0
  182.0160  179.7660  140.5730 C   0  0  0  0  0  2  0  0  0  0  0  0
  181.1600  178.5450  137.2110 C   0  0  0  0  0  3  0  0  0  0  0  0
  181.6620  179.4440  138.1590 C   0  0  0  0  0  0  0  0  0  0  0  0
  181.4940  180.8240  137.9640 C   0  0  0  0  0  3  0  0  0  0  0  0
  180.6570  182.7570  136.6210 C   0  0  0  0  0  1  0  0  0  0  0  0
  180.3350  180.3930  135.8820 C   0  0  0  0  0  3  0  0  0  0  0  0
  180.8320  181.2960  136.8260 C   0  0  0  0  0  0  0  0  0  0  0  0
  180.4980  179.0170  136.0750 C   0  0  0  0  0  3  0  0  0  0  0  0
  187.4940  176.4600  136.9360 C   0  0  0  0  0  0  0  0  0  0  0  0
  188.7470  176.9240  136.4310 N   0  0  0  0  0  2  0  0  0  0  0  0
  187.3970  175.3130  137.4500 O   0  0  0  0  0  0  0  0  0  0  0  0
  190.8440  176.7460  137.6720 C   0  0  0  0  0  1  0  0  0  0  0  0
  189.9820  176.1610  136.5660 C   0  0  2  0  0  3  0  0  0  0  0  0
  192.1130  176.0000  135.4630 O   0  0  0  0  0  1  0  0  0  0  0  0
  190.7410  176.1540  135.2470 C   0  0  0  0  0  2  0  0  0  0  0  0
  1 20  1  0  0  0  0
  1 18  1  0  0  0  0
  2  6  1  0  0  0  0
  2 16  1  0  0  0  0
  4 18  1  0  0  0  0
  4  8  2  0  0  0  0
  5  2  2  0  0  0  0
  6  4  1  0  0  0  0
  7  3  1  6  0  0  0
  7 19  1  0  0  0  0
  7  5  1  0  0  0  0
  9 13  1  0  0  0  0
  9  6  2  0  0  0  0
 10  1  1  0  0  0  0
 11 16  1  0  0  0  0
 12  8  1  0  0  0  0
 13  1  1  0  0  0  0
 14 31  1  1  0  0  0
 14 21  1  0  0  0  0
 14 15  1  0  0  0  0
 15  3  1  6  0  0  0
 16 12  2  0  0  0  0
 17  5  1  0  0  0  0
 17  9  1  0  0  0  0
 19 25  1  6  0  0  0
 19 23  1  0  0  0  0
 21 15  1  0  0  0  0
 21 22  1  1  0  0  0
 22 17  1  0  0  0  0
 23 11  1  0  0  0  0
 24 25  1  0  0  0  0
 26 25  2  0  0  0  0
 27 29  1  0  0  0  0
 28 30  1  0  0  0  0
 28 29  2  0  0  0  0
 29 26  1  0  0  0  0
 30 24  2  0  0  0  0
 31 33  2  0  0  0  0
 32 35  1  0  0  0  0
 32 31  1  0  0  0  0
 35 34  1  1  0  0  0
 37 36  1  0  0  0  0
 37 35  1  0  0  0  0
M  END
>  <MODEL>
7

>  <REMARK>
 VINA RESULT:      -9.1      3.166      8.803
  Name = 
  4 active torsions:
  status: ('A' for Active; 'I' for Inactive)
    1  A    between atoms: CA_4  and  N_12
    2  A    between atoms: CA_4  and  C_37
    3  A    between atoms: C_8  and  C_18
    4  A    between atoms: C_23  and  C_30
                            x       y       z     vdW  Elec       q    Type
                         _______ _______ _______ _____ _____    ______ ____

>  <TORSDO>
F 4

$$$$
=
 OpenBabel11122411353D

 37 43  0  0  1  0  0  0  0  0999 V2000
  182.5720  178.8590  139.3980 C   0  0  0  0  0  0  0  0  0  0  0  0
  184.9660  178.5700  142.8110 C   0  0  0  0  0  0  0  0  0  0  0  0
  188.7570  178.5490  142.2080 C   0  0  0  0  0  2  0  0  0  0  0  0
  182.7210  178.9130  141.9450 C   0  0  0  0  0  0  0  0  0  0  0  0
  186.1750  178.1430  142.2300 C   0  0  0  0  0  0  0  0  0  0  0  0
  184.0490  178.5680  141.8000 C   0  0  0  0  0  0  0  0  0  0  0  0
  187.5340  177.9190  142.9380 C   0  0  2  0  0  3  0  0  0  0  0  0
  182.2810  179.2620  143.2290 C   0  0  0  0  0  3  0  0  0  0  0  0
  184.6380  178.1650  140.6550 C   0  0  0  0  0  0  0  0  0  0  0  0
  182.9240  180.3040  139.0900 C   0  0  0  0  0  1  0  0  0  0  0  0
  185.4560  178.9120  145.2970 C   0  0  0  0  0  2  0  0  0  0  0  0
  183.1970  179.2630  144.3060 C   0  0  0  0  0  3  0  0  0  0  0  0
  183.8650  178.0010  139.3790 C   0  0  0  0  0  2  0  0  0  0  0  0
  189.4030  178.1670  139.8400 C   0  0  1  0  0  3  0  0  0  0  0  0
  188.4630  178.7520  140.8030 N   0  0  1  0  0  0  0  0  0  0  0  0
  184.5510  178.9030  144.1160 C   0  0  0  0  0  0  0  0  0  0  0  0
  185.9350  177.8740  140.8900 N   0  0  0  0  0  0  0  0  0  0  0  0
  181.8080  178.7930  140.7510 C   0  0  0  0  0  2  0  0  0  0  0  0
  187.6380  178.2100  144.4450 C   0  0  1  0  0  3  0  0  0  0  0  0
  181.6520  178.3570  138.3070 C   0  0  0  0  0  1  0  0  0  0  0  0
  188.2730  177.3670  140.3390 C   0  0  1  0  0  3  0  0  0  0  0  0
  186.8470  177.3920  139.8330 C   0  0  0  0  0  2  0  0  0  0  0  0
  186.4330  177.7620  145.2450 C   0  0  0  0  0  2  0  0  0  0  0  0
  189.1180  177.7480  146.4100 C   0  0  0  0  0  3  0  0  0  0  0  0
  188.8800  177.6110  145.0380 C   0  0  0  0  0  0  0  0  0  0  0  0
  189.8010  176.9140  144.2410 C   0  0  0  0  0  3  0  0  0  0  0  0
  191.9250  175.6270  143.9680 C   0  0  0  0  0  1  0  0  0  0  0  0
  191.1840  176.5060  146.1860 C   0  0  0  0  0  3  0  0  0  0  0  0
  190.9510  176.3630  144.8150 C   0  0  0  0  0  0  0  0  0  0  0  0
  190.2670  177.1970  146.9840 C   0  0  0  0  0  3  0  0  0  0  0  0
  189.1460  178.7120  138.4710 C   0  0  0  0  0  0  0  0  0  0  0  0
  189.0400  177.8190  137.3610 N   0  0  0  0  0  2  0  0  0  0  0  0
  189.0550  179.9580  138.2990 O   0  0  0  0  0  0  0  0  0  0  0  0
  187.2240  178.2500  135.7840 C   0  0  0  0  0  1  0  0  0  0  0  0
  188.7270  178.2720  136.0120 C   0  0  2  0  0  3  0  0  0  0  0  0
  190.0820  176.3270  135.6080 O   0  0  0  0  0  1  0  0  0  0  0  0
  189.4330  177.3970  134.9870 C   0  0  0  0  0  2  0  0  0  0  0  0
  1 18  1  0  0  0  0
  2 16  1  0  0  0  0
  4  8  2  0  0  0  0
  5  2  2  0  0  0  0
  5  7  1  0  0  0  0
  6  4  1  0  0  0  0
  6  2  1  0  0  0  0
  7  3  1  6  0  0  0
  7 19  1  0  0  0  0
  8 12  1  0  0  0  0
  9 17  1  0  0  0  0
  9  6  2  0  0  0  0
 10  1  1  0  0  0  0
 13  1  1  0  0  0  0
 13  9  1  0  0  0  0
 14 31  1  6  0  0  0
 14 21  1  0  0  0  0
 14 15  1  0  0  0  0
 15  3  1  1  0  0  0
 16 12  2  0  0  0  0
 16 11  1  0  0  0  0
 17  5  1  0  0  0  0
 18  4  1  0  0  0  0
 19 25  1  1  0  0  0
 19 23  1  0  0  0  0
 20  1  1  0  0  0  0
 21 22  1  6  0  0  0
 21 15  1  0  0  0  0
 22 17  1  0  0  0  0
 23 11  1  0  0  0  0
 24 30  1  0  0  0  0
 25 24  2  0  0  0  0
 26 29  2  0  0  0  0
 26 25  1  0  0  0  0
 27 29  1  0  0  0  0
 28 30  2  0  0  0  0
 29 28  1  0  0  0  0
 32 31  1  0  0  0  0
 33 31  2  0  0  0  0
 35 34  1  6  0  0  0
 35 32  1  0  0  0  0
 37 36  1  0  0  0  0
 37 35  1  0  0  0  0
M  END
>  <MODEL>
8

>  <REMARK>
 VINA RESULT:      -8.9      2.688      6.220
  Name = 
  4 active torsions:
  status: ('A' for Active; 'I' for Inactive)
    1  A    between atoms: CA_4  and  N_12
    2  A    between atoms: CA_4  and  C_37
    3  A    between atoms: C_8  and  C_18
    4  A    between atoms: C_23  and  C_30
                            x       y       z     vdW  Elec       q    Type
                         _______ _______ _______ _____ _____    ______ ____

>  <TORSDO>
F 4

$$$$
=
 OpenBabel11122411353D

 37 43  0  0  1  0  0  0  0  0999 V2000
  187.8040  177.5190  147.5450 C   0  0  0  0  0  0  0  0  0  0  0  0
  189.4010  177.7230  143.6880 C   0  0  0  0  0  0  0  0  0  0  0  0
  186.9690  178.7870  140.9160 C   0  0  0  0  0  2  0  0  0  0  0  0
  189.8780  177.4750  146.0590 C   0  0  0  0  0  0  0  0  0  0  0  0
  188.2180  177.6800  142.9280 C   0  0  0  0  0  0  0  0  0  0  0  0
  189.0160  177.5210  144.9830 C   0  0  0  0  0  0  0  0  0  0  0  0
  188.0790  177.8040  141.3900 C   0  0  2  0  0  3  0  0  0  0  0  0
  191.2470  177.6190  145.7960 C   0  0  0  0  0  3  0  0  0  0  0  0
  187.6780  177.3600  145.0370 C   0  0  0  0  0  0  0  0  0  0  0  0
  187.6470  179.0200  147.7220 C   0  0  0  0  0  1  0  0  0  0  0  0
  191.3070  178.0530  142.0160 C   0  0  0  0  0  2  0  0  0  0  0  0
  191.6880  177.8160  144.4670 C   0  0  0  0  0  3  0  0  0  0  0  0
  186.9660  177.0570  146.3230 C   0  0  0  0  0  2  0  0  0  0  0  0
  184.5790  178.7280  141.5890 C   0  0  1  0  0  3  0  0  0  0  0  0
  185.9770  178.9770  141.9570 N   0  0  1  0  0  0  0  0  0  0  0  0
  190.7710  177.8570  143.3910 C   0  0  0  0  0  0  0  0  0  0  0  0
  187.1620  177.4280  143.7920 N   0  0  0  0  0  0  0  0  0  0  0  0
  189.3140  177.1720  147.4240 C   0  0  0  0  0  2  0  0  0  0  0  0
  189.3490  178.0310  140.5510 C   0  0  1  0  0  3  0  0  0  0  0  0
  187.2560  176.8420  148.7820 C   0  0  0  0  0  1  0  0  0  0  0  0
  185.4150  177.6210  142.0770 C   0  0  1  0  0  3  0  0  0  0  0  0
  185.7180  177.2760  143.5190 C   0  0  0  0  0  2  0  0  0  0  0  0
  190.5450  177.2240  141.0100 C   0  0  0  0  0  2  0  0  0  0  0  0
  189.0560  178.8480  138.2040 C   0  0  0  0  0  3  0  0  0  0  0  0
  189.1010  177.7690  139.0940 C   0  0  0  0  0  0  0  0  0  0  0  0
  188.9190  176.4640  138.6120 C   0  0  0  0  0  3  0  0  0  0  0  0
  188.4970  174.8610  136.7440 C   0  0  0  0  0  1  0  0  0  0  0  0
  188.6440  177.3260  136.3670 C   0  0  0  0  0  3  0  0  0  0  0  0
  188.6900  176.2440  137.2510 C   0  0  0  0  0  0  0  0  0  0  0  0
  188.8280  178.6280  136.8430 C   0  0  0  0  0  3  0  0  0  0  0  0
  183.6640  179.2540  142.6500 C   0  0  0  0  0  0  0  0  0  0  0  0
  182.2570  179.0310  142.5470 N   0  0  0  0  0  2  0  0  0  0  0  0
  184.1370  179.9170  143.6130 O   0  0  0  0  0  0  0  0  0  0  0  0
  180.7960  178.2530  144.3430 C   0  0  0  0  0  1  0  0  0  0  0  0
  181.3140  179.4560  143.5740 C   0  0  2  0  0  3  0  0  0  0  0  0
  180.3770  180.4090  141.5750 O   0  0  0  0  0  1  0  0  0  0  0  0
  180.1600  180.2210  142.9420 C   0  0  0  0  0  2  0  0  0  0  0  0
  1 10  1  0  0  0  0
  1 20  1  0  0  0  0
  2  6  1  0  0  0  0
  4 18  1  0  0  0  0
  5  2  2  0  0  0  0
  5 17  1  0  0  0  0
  6  9  2  0  0  0  0
  6  4  1  0  0  0  0
  7  3  1  1  0  0  0
  7  5  1  0  0  0  0
  8  4  2  0  0  0  0
  9 13  1  0  0  0  0
 11 16  1  0  0  0  0
 12  8  1  0  0  0  0
 13  1  1  0  0  0  0
 14 15  1  0  0  0  0
 14 21  1  0  0  0  0
 14 31  1  1  0  0  0
 15  3  1  6  0  0  0
 15 21  1  0  0  0  0
 16  2  1  0  0  0  0
 16 12  2  0  0  0  0
 17  9  1  0  0  0  0
 18  1  1  0  0  0  0
 19 25  1  6  0  0  0
 19 23  1  0  0  0  0
 19  7  1  0  0  0  0
 21 22  1  1  0  0  0
 22 17  1  0  0  0  0
 23 11  1  0  0  0  0
 24 25  1  0  0  0  0
 26 25  2  0  0  0  0
 27 29  1  0  0  0  0
 28 30  1  0  0  0  0
 28 29  2  0  0  0  0
 29 26  1  0  0  0  0
 30 24  2  0  0  0  0
 31 33  2  0  0  0  0
 32 31  1  0  0  0  0
 32 35  1  0  0  0  0
 35 34  1  6  0  0  0
 36 37  1  0  0  0  0
 37 35  1  0  0  0  0
M  END
>  <MODEL>
9

>  <REMARK>
 VINA RESULT:      -8.9      1.613      6.557
  Name = 
  4 active torsions:
  status: ('A' for Active; 'I' for Inactive)
    1  A    between atoms: CA_4  and  N_12
    2  A    between atoms: CA_4  and  C_37
    3  A    between atoms: C_8  and  C_18
    4  A    between atoms: C_23  and  C_30
                            x       y       z     vdW  Elec       q    Type
                         _______ _______ _______ _____ _____    ______ ____

>  <TORSDO>
F 4

$$$$
