=
 OpenBabel11122411263D

 37 43  0  0  1  0  0  0  0  0999 V2000
  184.2680  175.0570  137.2260 C   0  0  0  0  0  2  0  0  0  0  0  0
  188.6930  177.2170  136.7400 C   0  0  1  0  0  0  0  0  0  0  0  0
  185.2590  177.9380  139.2000 N   0  0  1  0  0  0  0  0  0  0  0  0
  183.9180  173.6660  136.6550 C   0  0  2  0  0  3  0  0  0  0  0  0
  181.8340  177.4060  137.9140 O   0  0  0  0  0  0  0  0  0  0  0  0
  187.8050  178.0850  139.0000 C   0  0  1  0  0  3  0  0  0  0  0  0
  184.1860  177.9790  138.3290 C   0  0  2  0  0  3  0  0  0  0  0  0
  181.5000  174.2990  135.9390 C   0  0  0  0  0  0  0  0  0  0  0  0
  186.4190  178.0750  138.3920 C   0  0  1  0  0  3  0  0  0  0  0  0
  182.8810  177.2110  138.8270 C   0  0  1  0  0  3  0  0  0  0  0  0
  187.7090  177.8110  140.4640 C   0  0  0  0  0  2  0  0  0  0  0  0
  182.7770  173.4790  135.6510 C   0  0  0  0  0  2  0  0  0  0  0  0
  186.1890  177.2690  137.1870 C   0  0  2  0  0  3  0  0  0  0  0  0
  189.2630  176.0770  136.2310 O   0  0  0  0  0  1  0  0  0  0  0  0
  184.2630  178.9880  141.2640 C   0  0  0  0  0  2  0  0  0  0  0  0
  186.6260  178.7400  141.1200 C   0  0  0  0  0  2  0  0  0  0  0  0
  187.3610  177.3680  136.1620 C   0  0  0  0  0  2  0  0  0  0  0  0
  181.5110  175.7690  136.2080 C   0  0  1  0  0  3  0  0  0  0  0  0
  181.3570  176.0870  137.6780 C   0  0  0  0  0  2  0  0  0  0  0  0
  185.4200  179.0220  140.2540 C   0  0  1  0  0  3  0  0  0  0  0  0
  184.7340  177.5330  136.8690 C   0  0  1  0  0  3  0  0  0  0  0  0
  188.7150  177.0300  138.3370 C   0  0  0  0  0  2  0  0  0  0  0  0
  182.3750  177.6670  140.1770 C   0  0  1  0  0  3  0  0  0  0  0  0
  189.4890  178.4860  136.3370 C   0  0  0  0  0  1  0  0  0  0  0  0
  182.7420  176.5300  135.5960 C   0  0  0  0  0  2  0  0  0  0  0  0
  180.3860  173.7130  136.0720 O   0  0  0  0  0  0  0  0  0  0  0  0
  184.1170  176.2670  136.2550 C   0  0  2  0  0  3  0  0  0  0  0  0
  183.3960  177.7140  141.2630 C   0  0  0  0  0  2  0  0  0  0  0  0
  180.5530  178.8180  141.3330 C   0  0  0  0  0  3  0  0  0  0  0  0
  181.4520  178.8380  140.2690 C   0  0  0  0  0  0  0  0  0  0  0  0
  181.4870  179.8220  139.3240 C   0  0  0  0  0  3  0  0  0  0  0  0
  180.5120  181.9560  138.7240 O   0  0  0  0  0  1  0  0  0  0  0  0
  179.7040  180.9010  140.5800 C   0  0  0  0  0  3  0  0  0  0  0  0
  180.6160  180.8940  139.5400 C   0  0  0  0  0  0  0  0  0  0  0  0
  179.6330  179.8310  141.4560 C   0  0  0  0  0  3  0  0  0  0  0  0
  183.6910  171.5440  136.9260 C   0  0  0  0  0  1  0  0  0  0  0  0
  184.0120  172.7070  137.6530 O   0  0  0  0  0  0  0  0  0  0  0  0
  2 24  1  6  0  0  0
  2 22  1  0  0  0  0
  3 20  1  0  0  0  0
  4  1  1  0  0  0  0
  4 37  1  0  0  0  0
  5 10  1  0  0  0  0
  6 11  1  0  0  0  0
  7 10  1  0  0  0  0
  7  3  1  0  0  0  0
  8 26  2  0  0  0  0
  8 18  1  0  0  0  0
  9  6  1  0  0  0  0
  9  3  1  0  0  0  0
 10 23  1  0  0  0  0
 11 16  1  0  0  0  0
 12  8  1  0  0  0  0
 12  4  1  0  0  0  0
 13  9  1  0  0  0  0
 14  2  1  0  0  0  0
 17  2  1  0  0  0  0
 17 13  1  0  0  0  0
 18 19  1  0  0  0  0
 19  5  1  0  0  0  0
 20 16  1  0  0  0  0
 20 15  1  0  0  0  0
 21 13  1  0  0  0  0
 21  7  1  0  0  0  0
 22  6  1  0  0  0  0
 23 30  1  0  0  0  0
 23 28  1  0  0  0  0
 25 18  1  0  0  0  0
 25 27  1  0  0  0  0
 27 21  1  0  0  0  0
 27  1  1  0  0  0  0
 28 15  1  0  0  0  0
 29 35  1  0  0  0  0
 30 29  2  0  0  0  0
 31 34  2  0  0  0  0
 31 30  1  0  0  0  0
 32 34  1  0  0  0  0
 33 35  2  0  0  0  0
 34 33  1  0  0  0  0
 36 37  1  0  0  0  0
M  END
>  <MODEL>
1

>  <REMARK>
 VINA RESULT:      -6.3      0.000      0.000
  Name = 
  2 active torsions:
  status: ('A' for Active; 'I' for Inactive)
    1  A    between atoms: C_4  and  O_37
    2  A    between atoms: C_23  and  C_30
                            x       y       z     vdW  Elec       q    Type
                         _______ _______ _______ _____ _____    ______ ____

>  <TORSDO>
F 2

$$$$
=
 OpenBabel11122411263D

 37 43  0  0  1  0  0  0  0  0999 V2000
  185.7600  175.2220  137.4220 C   0  0  0  0  0  2  0  0  0  0  0  0
  190.1880  176.7690  138.9980 C   0  0  1  0  0  0  0  0  0  0  0  0
  186.1450  177.9470  139.7890 N   0  0  1  0  0  0  0  0  0  0  0  0
  185.5250  173.8890  136.6790 C   0  0  2  0  0  3  0  0  0  0  0  0
  183.5720  177.8770  137.1340 O   0  0  0  0  0  0  0  0  0  0  0  0
  188.5240  177.7520  140.7060 C   0  0  1  0  0  3  0  0  0  0  0  0
  185.5660  178.1310  138.5460 C   0  0  2  0  0  3  0  0  0  0  0  0
  183.7490  174.8390  135.0350 C   0  0  0  0  0  0  0  0  0  0  0  0
  187.5470  177.9270  139.5640 C   0  0  1  0  0  3  0  0  0  0  0  0
  184.0910  177.5450  138.3940 C   0  0  1  0  0  3  0  0  0  0  0  0
  187.7730  177.4960  141.9700 C   0  0  0  0  0  2  0  0  0  0  0  0
  184.9150  173.8550  135.2750 C   0  0  0  0  0  2  0  0  0  0  0  0
  187.7630  177.1570  138.3330 C   0  0  2  0  0  3  0  0  0  0  0  0
  190.7780  175.5620  138.7180 O   0  0  0  0  0  1  0  0  0  0  0  0
  184.4910  179.1260  141.2830 C   0  0  0  0  0  2  0  0  0  0  0  0
  186.6350  178.5630  142.1510 C   0  0  0  0  0  2  0  0  0  0  0  0
  189.2650  177.0970  137.9150 C   0  0  0  0  0  2  0  0  0  0  0  0
  183.8210  176.2940  135.3650 C   0  0  1  0  0  3  0  0  0  0  0  0
  183.0880  176.6330  136.6430 C   0  0  0  0  0  2  0  0  0  0  0  0
  185.9660  179.0030  140.8700 C   0  0  1  0  0  3  0  0  0  0  0  0
  186.6320  177.6120  137.4390 C   0  0  1  0  0  3  0  0  0  0  0  0
  189.4960  176.5840  140.4370 C   0  0  0  0  0  2  0  0  0  0  0  0
  183.1120  178.0670  139.4210 C   0  0  1  0  0  3  0  0  0  0  0  0
  191.2270  177.9200  139.0460 C   0  0  0  0  0  1  0  0  0  0  0  0
  185.2780  176.8830  135.3810 C   0  0  0  0  0  2  0  0  0  0  0  0
  182.6240  174.4080  134.6450 O   0  0  0  0  0  0  0  0  0  0  0  0
  186.1910  176.4390  136.5500 C   0  0  2  0  0  3  0  0  0  0  0  0
  183.5620  177.9780  140.8410 C   0  0  0  0  0  2  0  0  0  0  0  0
  181.0010  179.2940  139.2780 C   0  0  0  0  0  3  0  0  0  0  0  0
  182.3890  179.3520  139.1750 C   0  0  0  0  0  0  0  0  0  0  0  0
  183.0790  180.4770  138.8290 C   0  0  0  0  0  3  0  0  0  0  0  0
  182.8050  182.8340  138.3440 O   0  0  0  0  0  1  0  0  0  0  0  0
  180.9250  181.6070  138.7600 C   0  0  0  0  0  3  0  0  0  0  0  0
  182.3050  181.6310  138.6760 C   0  0  0  0  0  0  0  0  0  0  0  0
  180.2600  180.4200  139.0120 C   0  0  0  0  0  3  0  0  0  0  0  0
  184.5860  171.9540  136.6670 C   0  0  0  0  0  1  0  0  0  0  0  0
  185.0610  172.9280  137.5660 O   0  0  0  0  0  0  0  0  0  0  0  0
  2 24  1  1  0  0  0
  2 22  1  0  0  0  0
  3 20  1  0  0  0  0
  4  1  1  0  0  0  0
  4 37  1  0  0  0  0
  5 10  1  0  0  0  0
  6 11  1  0  0  0  0
  7  3  1  0  0  0  0
  8 12  1  0  0  0  0
  8 18  1  0  0  0  0
  9  3  1  0  0  0  0
  9  6  1  0  0  0  0
 10  7  1  0  0  0  0
 10 23  1  0  0  0  0
 11 16  1  0  0  0  0
 12  4  1  0  0  0  0
 13  9  1  0  0  0  0
 14  2  1  0  0  0  0
 17 13  1  0  0  0  0
 17  2  1  0  0  0  0
 18 25  1  0  0  0  0
 18 19  1  0  0  0  0
 19  5  1  0  0  0  0
 20 15  1  0  0  0  0
 20 16  1  0  0  0  0
 21 13  1  0  0  0  0
 21  7  1  0  0  0  0
 22  6  1  0  0  0  0
 23 28  1  0  0  0  0
 25 27  1  0  0  0  0
 26  8  2  0  0  0  0
 27  1  1  0  0  0  0
 27 21  1  0  0  0  0
 28 15  1  0  0  0  0
 30 29  1  0  0  0  0
 30 23  1  0  0  0  0
 31 30  2  0  0  0  0
 32 34  1  0  0  0  0
 33 35  1  0  0  0  0
 34 33  2  0  0  0  0
 34 31  1  0  0  0  0
 35 29  2  0  0  0  0
 36 37  1  0  0  0  0
M  END
>  <MODEL>
2

>  <REMARK>
 VINA RESULT:      -5.6      1.549      1.995
  Name = 
  2 active torsions:
  status: ('A' for Active; 'I' for Inactive)
    1  A    between atoms: C_4  and  O_37
    2  A    between atoms: C_23  and  C_30
                            x       y       z     vdW  Elec       q    Type
                         _______ _______ _______ _____ _____    ______ ____

>  <TORSDO>
F 2

$$$$
=
 OpenBabel11122411263D

 37 43  0  0  1  0  0  0  0  0999 V2000
  187.7820  176.3900  138.7360 C   0  0  0  0  0  2  0  0  0  0  0  0
  190.2650  177.7430  142.7970 C   0  0  1  0  0  0  0  0  0  0  0  0
  186.1960  178.1210  141.5060 N   0  0  1  0  0  0  0  0  0  0  0  0
  188.3190  175.3920  137.6870 C   0  0  2  0  0  3  0  0  0  0  0  0
  185.3600  178.7230  137.9550 O   0  0  0  0  0  0  0  0  0  0  0  0
  187.7850  177.8690  143.4940 C   0  0  1  0  0  3  0  0  0  0  0  0
  186.2630  178.6710  140.2380 C   0  0  2  0  0  3  0  0  0  0  0  0
  187.3700  176.6680  135.6300 C   0  0  0  0  0  0  0  0  0  0  0  0
  187.4750  178.3320  142.0880 C   0  0  1  0  0  3  0  0  0  0  0  0
  185.2770  178.0230  139.1680 C   0  0  1  0  0  3  0  0  0  0  0  0
  186.6250  177.1010  144.0340 C   0  0  0  0  0  2  0  0  0  0  0  0
  188.4980  175.7950  136.2210 C   0  0  0  0  0  2  0  0  0  0  0  0
  188.4630  178.0790  141.0320 C   0  0  2  0  0  3  0  0  0  0  0  0
  191.2290  176.7850  142.6020 O   0  0  0  0  0  1  0  0  0  0  0  0
  183.7730  178.5060  142.0850 C   0  0  0  0  0  2  0  0  0  0  0  0
  185.2940  177.9050  143.8160 C   0  0  0  0  0  2  0  0  0  0  0  0
  189.9290  178.3330  141.5040 C   0  0  0  0  0  2  0  0  0  0  0  0
  186.8620  177.9100  136.2890 C   0  0  1  0  0  3  0  0  0  0  0  0
  185.5430  177.6910  136.9940 C   0  0  0  0  0  2  0  0  0  0  0  0
  185.2310  178.6970  142.5310 C   0  0  1  0  0  3  0  0  0  0  0  0
  187.8270  178.6980  139.8080 C   0  0  1  0  0  3  0  0  0  0  0  0
  189.0490  176.9850  143.5270 C   0  0  0  0  0  2  0  0  0  0  0  0
  183.8230  178.0370  139.5820 C   0  0  1  0  0  3  0  0  0  0  0  0
  190.7820  178.9060  143.6840 C   0  0  0  0  0  1  0  0  0  0  0  0
  187.8990  178.6070  137.2430 C   0  0  0  0  0  2  0  0  0  0  0  0
  186.7440  176.2860  134.5980 O   0  0  0  0  0  0  0  0  0  0  0  0
  188.2190  177.8780  138.5700 C   0  0  2  0  0  3  0  0  0  0  0  0
  183.5370  177.4980  140.9430 C   0  0  0  0  0  2  0  0  0  0  0  0
  181.6050  179.0570  139.4260 C   0  0  0  0  0  3  0  0  0  0  0  0
  182.9800  179.2390  139.3020 C   0  0  0  0  0  0  0  0  0  0  0  0
  183.5580  180.4110  138.9070 C   0  0  0  0  0  3  0  0  0  0  0  0
  183.0610  182.7130  138.3440 O   0  0  0  0  0  1  0  0  0  0  0  0
  181.3080  181.3330  138.8300 C   0  0  0  0  0  3  0  0  0  0  0  0
  182.6790  181.4820  138.7250 C   0  0  0  0  0  0  0  0  0  0  0  0
  180.7590  180.0990  139.1310 C   0  0  0  0  0  3  0  0  0  0  0  0
  188.4140  173.3950  136.8960 C   0  0  0  0  0  1  0  0  0  0  0  0
  187.7760  174.1350  137.9110 O   0  0  0  0  0  0  0  0  0  0  0  0
  2 22  1  0  0  0  0
  2 24  1  1  0  0  0
  3  9  1  0  0  0  0
  3 20  1  0  0  0  0
  4 37  1  0  0  0  0
  4  1  1  0  0  0  0
  5 10  1  0  0  0  0
  6 22  1  0  0  0  0
  6 11  1  0  0  0  0
  7  3  1  0  0  0  0
  8 12  1  0  0  0  0
  8 18  1  0  0  0  0
  9  6  1  0  0  0  0
 10 23  1  0  0  0  0
 10  7  1  0  0  0  0
 12  4  1  0  0  0  0
 13 17  1  0  0  0  0
 13  9  1  0  0  0  0
 14  2  1  0  0  0  0
 15 20  1  0  0  0  0
 16 11  1  0  0  0  0
 17  2  1  0  0  0  0
 18 19  1  0  0  0  0
 18 25  1  0  0  0  0
 19  5  1  0  0  0  0
 20 16  1  0  0  0  0
 21  7  1  0  0  0  0
 21 13  1  0  0  0  0
 23 28  1  0  0  0  0
 25 27  1  0  0  0  0
 26  8  2  0  0  0  0
 27  1  1  0  0  0  0
 27 21  1  0  0  0  0
 28 15  1  0  0  0  0
 30 29  1  0  0  0  0
 30 23  1  0  0  0  0
 31 30  2  0  0  0  0
 32 34  1  0  0  0  0
 33 35  1  0  0  0  0
 34 33  2  0  0  0  0
 34 31  1  0  0  0  0
 35 29  2  0  0  0  0
 36 37  1  0  0  0  0
M  END
>  <MODEL>
3

>  <REMARK>
 VINA RESULT:      -5.5      2.838      4.372
  Name = 
  2 active torsions:
  status: ('A' for Active; 'I' for Inactive)
    1  A    between atoms: C_4  and  O_37
    2  A    between atoms: C_23  and  C_30
                            x       y       z     vdW  Elec       q    Type
                         _______ _______ _______ _____ _____    ______ ____

>  <TORSDO>
F 2

$$$$
=
 OpenBabel11122411263D

 37 43  0  0  1  0  0  0  0  0999 V2000
  185.9360  177.4220  136.9790 C   0  0  0  0  0  2  0  0  0  0  0  0
  181.2300  178.2020  135.6640 C   0  0  1  0  0  0  0  0  0  0  0  0
  183.5650  174.7120  136.5150 N   0  0  1  0  0  0  0  0  0  0  0  0
  186.8850  178.5280  137.4910 C   0  0  2  0  0  3  0  0  0  0  0  0
  187.1320  174.5110  135.5600 O   0  0  0  0  0  0  0  0  0  0  0  0
  181.2460  175.7880  136.5720 C   0  0  1  0  0  3  0  0  0  0  0  0
  184.7030  174.8330  135.7380 C   0  0  2  0  0  3  0  0  0  0  0  0
  188.9900  177.6300  136.2570 C   0  0  0  0  0  0  0  0  0  0  0  0
  182.6310  175.6390  135.9810 C   0  0  1  0  0  3  0  0  0  0  0  0
  186.0650  174.4470  136.4690 C   0  0  1  0  0  3  0  0  0  0  0  0
  181.1310  174.9400  137.7940 C   0  0  0  0  0  2  0  0  0  0  0  0
  188.1950  178.8520  136.7680 C   0  0  0  0  0  2  0  0  0  0  0  0
  183.3870  176.8530  135.6500 C   0  0  2  0  0  3  0  0  0  0  0  0
  181.2400  179.4840  136.1550 O   0  0  0  0  0  1  0  0  0  0  0  0
  183.6530  172.2720  137.1440 C   0  0  0  0  0  2  0  0  0  0  0  0
  181.6340  173.4830  137.4930 C   0  0  0  0  0  2  0  0  0  0  0  0
  182.5010  177.9540  134.9890 C   0  0  0  0  0  2  0  0  0  0  0  0
  188.3810  176.5400  135.4350 C   0  0  1  0  0  3  0  0  0  0  0  0
  188.1000  175.2960  136.2460 C   0  0  0  0  0  2  0  0  0  0  0  0
  182.8010  173.3970  136.5370 C   0  0  1  0  0  3  0  0  0  0  0  0
  184.6730  176.3110  135.0690 C   0  0  1  0  0  3  0  0  0  0  0  0
  180.9480  177.2590  136.9350 C   0  0  0  0  0  2  0  0  0  0  0  0
  186.0760  173.0540  137.0570 C   0  0  1  0  0  3  0  0  0  0  0  0
  180.1240  178.0070  134.5940 C   0  0  0  0  0  1  0  0  0  0  0  0
  187.1120  176.9770  134.6180 C   0  0  0  0  0  2  0  0  0  0  0  0
  190.1880  177.4520  136.6240 O   0  0  0  0  0  0  0  0  0  0  0  0
  185.8270  177.2590  135.4330 C   0  0  2  0  0  3  0  0  0  0  0  0
  184.9090  172.7130  137.9210 C   0  0  0  0  0  2  0  0  0  0  0  0
  185.4340  171.3190  135.4570 C   0  0  0  0  0  3  0  0  0  0  0  0
  186.4610  171.8890  136.2050 C   0  0  0  0  0  0  0  0  0  0  0  0
  187.7410  171.4140  136.2230 C   0  0  0  0  0  3  0  0  0  0  0  0
  189.1980  169.7600  135.2200 O   0  0  0  0  0  1  0  0  0  0  0  0
  187.0010  169.7600  134.5990 C   0  0  0  0  0  3  0  0  0  0  0  0
  188.0000  170.3550  135.3480 C   0  0  0  0  0  0  0  0  0  0  0  0
  185.6950  170.2090  134.6910 C   0  0  0  0  0  3  0  0  0  0  0  0
  185.5780  178.5830  139.1980 C   0  0  0  0  0  1  0  0  0  0  0  0
  186.9470  178.4930  138.8760 O   0  0  0  0  0  0  0  0  0  0  0  0
  1  4  1  0  0  0  0
  2 24  1  6  0  0  0
  2 14  1  0  0  0  0
  2 22  1  0  0  0  0
  3 20  1  0  0  0  0
  4 37  1  0  0  0  0
  5 19  1  0  0  0  0
  5 10  1  0  0  0  0
  6 22  1  0  0  0  0
  6 11  1  0  0  0  0
  7 10  1  0  0  0  0
  7  3  1  0  0  0  0
  8 26  2  0  0  0  0
  8 12  1  0  0  0  0
  9  3  1  0  0  0  0
  9  6  1  0  0  0  0
 10 23  1  0  0  0  0
 12  4  1  0  0  0  0
 13  9  1  0  0  0  0
 15 28  1  0  0  0  0
 16 11  1  0  0  0  0
 17 13  1  0  0  0  0
 17  2  1  0  0  0  0
 18 19  1  0  0  0  0
 18  8  1  0  0  0  0
 20 15  1  0  0  0  0
 20 16  1  0  0  0  0
 21 27  1  0  0  0  0
 21 13  1  0  0  0  0
 21  7  1  0  0  0  0
 23 28  1  0  0  0  0
 25 27  1  0  0  0  0
 25 18  1  0  0  0  0
 27  1  1  0  0  0  0
 29 30  1  0  0  0  0
 30 31  2  0  0  0  0
 30 23  1  0  0  0  0
 32 34  1  0  0  0  0
 33 35  1  0  0  0  0
 33 34  2  0  0  0  0
 34 31  1  0  0  0  0
 35 29  2  0  0  0  0
 37 36  1  0  0  0  0
M  END
>  <MODEL>
4

>  <REMARK>
 VINA RESULT:      -5.2      2.839      8.165
  Name = 
  2 active torsions:
  status: ('A' for Active; 'I' for Inactive)
    1  A    between atoms: C_4  and  O_37
    2  A    between atoms: C_23  and  C_30
                            x       y       z     vdW  Elec       q    Type
                         _______ _______ _______ _____ _____    ______ ____

>  <TORSDO>
F 2

$$$$
=
 OpenBabel11122411263D

 37 43  0  0  1  0  0  0  0  0999 V2000
  180.5630  180.3550  138.8230 C   0  0  0  0  0  2  0  0  0  0  0  0
  179.8490  179.0480  143.5410 C   0  0  1  0  0  0  0  0  0  0  0  0
  183.0400  178.5120  140.7330 N   0  0  1  0  0  0  0  0  0  0  0  0
  179.7000  181.3920  138.0730 C   0  0  2  0  0  3  0  0  0  0  0  0
  182.3600  177.9310  137.1450 O   0  0  0  0  0  0  0  0  0  0  0  0
  182.3920  178.8010  143.1900 C   0  0  1  0  0  3  0  0  0  0  0  0
  182.4470  177.9860  139.5990 C   0  0  2  0  0  3  0  0  0  0  0  0
  179.6870  180.1090  135.8120 C   0  0  0  0  0  0  0  0  0  0  0  0
  182.0920  178.3480  141.7780 C   0  0  1  0  0  3  0  0  0  0  0  0
  182.9530  178.6070  138.2220 C   0  0  1  0  0  3  0  0  0  0  0  0
  183.7050  179.5090  143.2190 C   0  0  0  0  0  2  0  0  0  0  0  0
  178.9310  181.0220  136.8020 C   0  0  0  0  0  2  0  0  0  0  0  0
  180.7780  178.6610  141.2050 C   0  0  2  0  0  3  0  0  0  0  0  0
  178.9330  180.0500  143.7450 O   0  0  0  0  0  1  0  0  0  0  0  0
  185.4720  178.0120  140.2970 C   0  0  0  0  0  2  0  0  0  0  0  0
  184.7990  178.6510  142.4890 C   0  0  0  0  0  2  0  0  0  0  0  0
  179.6130  178.4640  142.2240 C   0  0  0  0  0  2  0  0  0  0  0  0
  180.3570  178.8350  136.2170 C   0  0  1  0  0  3  0  0  0  0  0  0
  181.8560  178.9850  136.3350 C   0  0  0  0  0  2  0  0  0  0  0  0
  184.3060  177.8770  141.2880 C   0  0  1  0  0  3  0  0  0  0  0  0
  180.8420  178.0340  139.8300 C   0  0  1  0  0  3  0  0  0  0  0  0
  181.2880  179.7400  143.7220 C   0  0  0  0  0  2  0  0  0  0  0  0
  184.4490  178.5220  138.0200 C   0  0  1  0  0  3  0  0  0  0  0  0
  179.6750  177.8950  144.5650 C   0  0  0  0  0  1  0  0  0  0  0  0
  179.7560  178.1690  137.5070 C   0  0  0  0  0  2  0  0  0  0  0  0
  179.8660  180.4800  134.6150 O   0  0  0  0  0  0  0  0  0  0  0  0
  180.0270  178.8910  138.8490 C   0  0  2  0  0  3  0  0  0  0  0  0
  185.2790  179.0260  139.1530 C   0  0  0  0  0  2  0  0  0  0  0  0
  186.2080  177.4800  136.6770 C   0  0  0  0  0  3  0  0  0  0  0  0
  185.0530  177.2890  137.4310 C   0  0  0  0  0  0  0  0  0  0  0  0
  184.4520  176.0760  137.6040 C   0  0  0  0  0  3  0  0  0  0  0  0
  184.7020  173.7140  137.1270 O   0  0  0  0  0  1  0  0  0  0  0  0
  186.2760  175.1420  136.2920 C   0  0  0  0  0  3  0  0  0  0  0  0
  185.1330  174.9850  137.0540 C   0  0  0  0  0  0  0  0  0  0  0  0
  186.7920  176.4040  136.0550 C   0  0  0  0  0  3  0  0  0  0  0  0
  181.6610  182.2250  138.3630 C   0  0  0  0  0  1  0  0  0  0  0  0
  180.3440  182.6200  138.0570 O   0  0  0  0  0  0  0  0  0  0  0  0
  1 27  1  0  0  0  0
  2 22  1  0  0  0  0
  2 14  1  0  0  0  0
  2 24  1  1  0  0  0
  3 20  1  0  0  0  0
  3  9  1  0  0  0  0
  4  1  1  0  0  0  0
  5 10  1  0  0  0  0
  6 11  1  0  0  0  0
  6 22  1  0  0  0  0
  7 21  1  0  0  0  0
  7  3  1  0  0  0  0
  8 18  1  0  0  0  0
  8 12  1  0  0  0  0
  9  6  1  0  0  0  0
 10  7  1  0  0  0  0
 12  4  1  0  0  0  0
 13  9  1  0  0  0  0
 13 17  1  0  0  0  0
 15 20  1  0  0  0  0
 16 11  1  0  0  0  0
 17  2  1  0  0  0  0
 18 19  1  0  0  0  0
 18 25  1  0  0  0  0
 19  5  1  0  0  0  0
 20 16  1  0  0  0  0
 21 13  1  0  0  0  0
 23 10  1  0  0  0  0
 23 28  1  0  0  0  0
 25 27  1  0  0  0  0
 26  8  2  0  0  0  0
 27 21  1  0  0  0  0
 28 15  1  0  0  0  0
 29 30  1  0  0  0  0
 30 31  2  0  0  0  0
 30 23  1  0  0  0  0
 33 34  2  0  0  0  0
 34 32  1  0  0  0  0
 34 31  1  0  0  0  0
 35 33  1  0  0  0  0
 35 29  2  0  0  0  0
 37  4  1  0  0  0  0
 37 36  1  0  0  0  0
M  END
>  <MODEL>
5

>  <REMARK>
 VINA RESULT:      -5.0      2.255      7.177
  Name = 
  2 active torsions:
  status: ('A' for Active; 'I' for Inactive)
    1  A    between atoms: C_4  and  O_37
    2  A    between atoms: C_23  and  C_30
                            x       y       z     vdW  Elec       q    Type
                         _______ _______ _______ _____ _____    ______ ____

>  <TORSDO>
F 2

$$$$
=
 OpenBabel11122411263D

 37 43  0  0  1  0  0  0  0  0999 V2000
  183.7730  176.8500  136.4060 C   0  0  0  0  0  2  0  0  0  0  0  0
  180.8400  172.8660  136.4950 C   0  0  1  0  0  0  0  0  0  0  0  0
  181.5610  176.1170  139.1900 N   0  0  1  0  0  0  0  0  0  0  0  0
  184.4830  177.3720  135.1380 C   0  0  2  0  0  3  0  0  0  0  0  0
  184.9370  177.5770  139.5740 O   0  0  0  0  0  0  0  0  0  0  0  0
  179.8670  174.4140  138.3140 C   0  0  1  0  0  3  0  0  0  0  0  0
  182.9360  176.1730  139.3390 C   0  0  2  0  0  3  0  0  0  0  0  0
  186.6870  178.0310  136.3490 C   0  0  0  0  0  0  0  0  0  0  0  0
  181.2840  174.8470  138.6190 C   0  0  1  0  0  3  0  0  0  0  0  0
  183.5590  177.6390  139.3150 C   0  0  1  0  0  3  0  0  0  0  0  0
  178.9310  175.5430  138.5870 C   0  0  0  0  0  2  0  0  0  0  0  0
  186.0070  177.4940  135.0700 C   0  0  0  0  0  2  0  0  0  0  0  0
  182.3230  174.6050  137.6100 C   0  0  2  0  0  3  0  0  0  0  0  0
  180.8350  172.7610  135.1260 O   0  0  0  0  0  1  0  0  0  0  0  0
  180.7950  177.5140  141.1450 C   0  0  0  0  0  2  0  0  0  0  0  0
  179.2100  176.1470  140.0090 C   0  0  0  0  0  2  0  0  0  0  0  0
  182.1910  173.2070  136.9300 C   0  0  0  0  0  2  0  0  0  0  0  0
  186.4260  177.4760  137.7120 C   0  0  1  0  0  3  0  0  0  0  0  0
  185.5010  178.3540  138.5240 C   0  0  0  0  0  2  0  0  0  0  0  0
  180.6650  176.1660  140.4190 C   0  0  1  0  0  3  0  0  0  0  0  0
  183.5760  175.1320  138.2730 C   0  0  1  0  0  3  0  0  0  0  0  0
  179.7220  173.9670  136.8440 C   0  0  0  0  0  2  0  0  0  0  0  0
  182.9640  178.5790  140.3380 C   0  0  1  0  0  3  0  0  0  0  0  0
  180.4930  171.5150  137.1740 C   0  0  0  0  0  1  0  0  0  0  0  0
  185.9350  175.9830  137.7210 C   0  0  0  0  0  2  0  0  0  0  0  0
  187.4200  179.0620  136.2940 O   0  0  0  0  0  0  0  0  0  0  0  0
  184.5020  175.7230  137.1990 C   0  0  2  0  0  3  0  0  0  0  0  0
  181.4740  178.6500  140.3550 C   0  0  0  0  0  2  0  0  0  0  0  0
  182.6440  179.0890  142.7090 C   0  0  0  0  0  3  0  0  0  0  0  0
  183.5100  178.6100  141.7280 C   0  0  0  0  0  0  0  0  0  0  0  0
  184.7970  178.2280  141.9720 C   0  0  0  0  0  3  0  0  0  0  0  0
  186.4070  177.9010  143.7520 O   0  0  0  0  0  1  0  0  0  0  0  0
  184.3530  178.7260  144.3120 C   0  0  0  0  0  3  0  0  0  0  0  0
  185.1840  178.2470  143.3160 C   0  0  0  0  0  0  0  0  0  0  0  0
  183.0910  179.2010  144.0030 C   0  0  0  0  0  3  0  0  0  0  0  0
  182.4460  177.9760  134.8040 C   0  0  0  0  0  1  0  0  0  0  0  0
  183.7640  178.4260  134.5940 O   0  0  0  0  0  0  0  0  0  0  0  0
  1 27  1  0  0  0  0
  2 22  1  0  0  0  0
  2 17  1  0  0  0  0
  2 24  1  1  0  0  0
  3  7  1  0  0  0  0
  3 20  1  0  0  0  0
  4  1  1  0  0  0  0
  6 11  1  0  0  0  0
  6  9  1  0  0  0  0
  8 18  1  0  0  0  0
  9  3  1  0  0  0  0
 10  7  1  0  0  0  0
 10  5  1  0  0  0  0
 10 23  1  0  0  0  0
 11 16  1  0  0  0  0
 12  4  1  0  0  0  0
 12  8  1  0  0  0  0
 13 21  1  0  0  0  0
 13  9  1  0  0  0  0
 14  2  1  0  0  0  0
 16 20  1  0  0  0  0
 17 13  1  0  0  0  0
 18 25  1  0  0  0  0
 18 19  1  0  0  0  0
 19  5  1  0  0  0  0
 20 15  1  0  0  0  0
 21  7  1  0  0  0  0
 22  6  1  0  0  0  0
 23 28  1  0  0  0  0
 23 30  1  0  0  0  0
 26  8  2  0  0  0  0
 27 25  1  0  0  0  0
 27 21  1  0  0  0  0
 28 15  1  0  0  0  0
 29 35  1  0  0  0  0
 30 31  1  0  0  0  0
 30 29  2  0  0  0  0
 31 34  2  0  0  0  0
 34 32  1  0  0  0  0
 34 33  1  0  0  0  0
 35 33  2  0  0  0  0
 37 36  1  0  0  0  0
 37  4  1  0  0  0  0
M  END
>  <MODEL>
6

>  <REMARK>
 VINA RESULT:      -4.7      2.430      6.037
  Name = 
  2 active torsions:
  status: ('A' for Active; 'I' for Inactive)
    1  A    between atoms: C_4  and  O_37
    2  A    between atoms: C_23  and  C_30
                            x       y       z     vdW  Elec       q    Type
                         _______ _______ _______ _____ _____    ______ ____

>  <TORSDO>
F 2

$$$$
=
 OpenBabel11122411263D

 37 43  0  0  1  0  0  0  0  0999 V2000
  184.0250  177.4480  137.1810 C   0  0  0  0  0  2  0  0  0  0  0  0
  180.9160  181.0910  138.4230 C   0  0  1  0  0  0  0  0  0  0  0  0
  180.6010  176.8230  138.2160 N   0  0  1  0  0  0  0  0  0  0  0  0
  185.5520  177.6250  137.0430 C   0  0  2  0  0  3  0  0  0  0  0  0
  182.3360  174.8990  135.5780 O   0  0  0  0  0  0  0  0  0  0  0  0
  179.8160  178.9620  139.3760 C   0  0  1  0  0  3  0  0  0  0  0  0
  181.0620  176.4820  136.9560 C   0  0  2  0  0  3  0  0  0  0  0  0
  185.7910  176.0680  134.9740 C   0  0  0  0  0  0  0  0  0  0  0  0
  180.3470  178.2200  138.1700 C   0  0  1  0  0  3  0  0  0  0  0  0
  182.0160  175.2070  136.9090 C   0  0  1  0  0  3  0  0  0  0  0  0
  179.7520  178.0360  140.5440 C   0  0  0  0  0  2  0  0  0  0  0  0
  186.2750  177.3280  135.7260 C   0  0  0  0  0  2  0  0  0  0  0  0
  181.4450  178.8210  137.4040 C   0  0  2  0  0  3  0  0  0  0  0  0
  181.9440  181.9450  138.7380 O   0  0  0  0  0  1  0  0  0  0  0  0
  179.4070  174.7100  138.8950 C   0  0  0  0  0  2  0  0  0  0  0  0
  179.0270  176.7030  140.1400 C   0  0  0  0  0  2  0  0  0  0  0  0
  181.2750  180.3600  137.2110 C   0  0  0  0  0  2  0  0  0  0  0  0
  184.3530  175.7940  134.6710 C   0  0  1  0  0  3  0  0  0  0  0  0
  183.7530  174.7680  135.6040 C   0  0  0  0  0  2  0  0  0  0  0  0
  179.2970  176.2330  138.7300 C   0  0  1  0  0  3  0  0  0  0  0  0
  181.6720  177.8270  136.2870 C   0  0  1  0  0  3  0  0  0  0  0  0
  180.7070  180.1730  139.7260 C   0  0  0  0  0  2  0  0  0  0  0  0
  181.4110  173.9610  137.5130 C   0  0  1  0  0  3  0  0  0  0  0  0
  179.6100  181.8620  138.0940 C   0  0  0  0  0  1  0  0  0  0  0  0
  183.4520  177.0790  134.5940 C   0  0  0  0  0  2  0  0  0  0  0  0
  186.6100  175.1470  134.6850 O   0  0  0  0  0  0  0  0  0  0  0  0
  183.1660  177.8060  135.9300 C   0  0  2  0  0  3  0  0  0  0  0  0
  180.8320  174.1240  138.8780 C   0  0  0  0  0  2  0  0  0  0  0  0
  179.7900  173.7070  135.6980 C   0  0  0  0  0  3  0  0  0  0  0  0
  180.5490  173.0700  136.6770 C   0  0  0  0  0  0  0  0  0  0  0  0
  180.5020  171.7280  136.9210 C   0  0  0  0  0  3  0  0  0  0  0  0
  179.5380  169.6550  136.1200 O   0  0  0  0  0  1  0  0  0  0  0  0
  178.9310  171.5890  135.0680 C   0  0  0  0  0  3  0  0  0  0  0  0
  179.7050  170.9870  136.0440 C   0  0  0  0  0  0  0  0  0  0  0  0
  178.9310  172.9650  134.9250 C   0  0  0  0  0  3  0  0  0  0  0  0
  187.4240  177.8430  138.0780 C   0  0  0  0  0  1  0  0  0  0  0  0
  186.1850  177.1840  138.1960 O   0  0  0  0  0  0  0  0  0  0  0  0
  2 24  1  6  0  0  0
  2 14  1  0  0  0  0
  2 22  1  0  0  0  0
  3 20  1  0  0  0  0
  4  1  1  0  0  0  0
  4 37  1  0  0  0  0
  5 19  1  0  0  0  0
  5 10  1  0  0  0  0
  6 22  1  0  0  0  0
  6 11  1  0  0  0  0
  7  3  1  0  0  0  0
  8 12  1  0  0  0  0
  9  3  1  0  0  0  0
  9  6  1  0  0  0  0
 10  7  1  0  0  0  0
 10 23  1  0  0  0  0
 12  4  1  0  0  0  0
 13  9  1  0  0  0  0
 16 11  1  0  0  0  0
 17 13  1  0  0  0  0
 17  2  1  0  0  0  0
 18  8  1  0  0  0  0
 18 19  1  0  0  0  0
 20 15  1  0  0  0  0
 20 16  1  0  0  0  0
 21  7  1  0  0  0  0
 21 13  1  0  0  0  0
 23 28  1  0  0  0  0
 25 18  1  0  0  0  0
 25 27  1  0  0  0  0
 26  8  2  0  0  0  0
 27 21  1  0  0  0  0
 27  1  1  0  0  0  0
 28 15  1  0  0  0  0
 29 30  1  0  0  0  0
 30 31  2  0  0  0  0
 30 23  1  0  0  0  0
 33 34  2  0  0  0  0
 34 32  1  0  0  0  0
 34 31  1  0  0  0  0
 35 33  1  0  0  0  0
 35 29  2  0  0  0  0
 36 37  1  0  0  0  0
M  END
>  <MODEL>
7

>  <REMARK>
 VINA RESULT:      -4.3      2.346      6.878
  Name = 
  2 active torsions:
  status: ('A' for Active; 'I' for Inactive)
    1  A    between atoms: C_4  and  O_37
    2  A    between atoms: C_23  and  C_30
                            x       y       z     vdW  Elec       q    Type
                         _______ _______ _______ _____ _____    ______ ____

>  <TORSDO>
F 2

$$$$
=
 OpenBabel11122411263D

 37 43  0  0  1  0  0  0  0  0999 V2000
  182.5010  179.8520  139.1350 C   0  0  0  0  0  2  0  0  0  0  0  0
  184.0210  179.3170  143.8120 C   0  0  1  0  0  0  0  0  0  0  0  0
  185.6290  178.2230  139.9940 N   0  0  1  0  0  0  0  0  0  0  0  0
  181.3600  180.7970  138.7000 C   0  0  2  0  0  3  0  0  0  0  0  0
  183.4300  177.1260  137.2310 O   0  0  0  0  0  0  0  0  0  0  0  0
  186.1430  178.9130  142.4030 C   0  0  1  0  0  3  0  0  0  0  0  0
  184.6070  177.5540  139.3440 C   0  0  2  0  0  3  0  0  0  0  0  0
  180.3750  179.1830  136.9140 C   0  0  0  0  0  0  0  0  0  0  0  0
  185.2560  178.2610  141.3640 C   0  0  1  0  0  3  0  0  0  0  0  0
  184.4220  177.9350  137.8070 C   0  0  1  0  0  3  0  0  0  0  0  0
  187.3060  179.5610  141.7290 C   0  0  0  0  0  2  0  0  0  0  0  0
  180.1150  180.2680  137.9830 C   0  0  0  0  0  2  0  0  0  0  0  0
  183.8150  178.5370  141.4000 C   0  0  2  0  0  3  0  0  0  0  0  0
  183.2630  180.3750  144.2460 O   0  0  0  0  0  1  0  0  0  0  0  0
  187.6210  177.5610  138.5980 C   0  0  0  0  0  2  0  0  0  0  0  0
  187.9830  178.5560  140.7300 C   0  0  0  0  0  2  0  0  0  0  0  0
  183.2380  178.5480  142.8490 C   0  0  0  0  0  2  0  0  0  0  0  0
  181.1960  177.9610  137.1690 C   0  0  1  0  0  3  0  0  0  0  0  0
  182.5830  178.0640  136.5780 C   0  0  0  0  0  2  0  0  0  0  0  0
  187.0290  177.6290  140.0150 C   0  0  1  0  0  3  0  0  0  0  0  0
  183.2760  177.7050  140.2580 C   0  0  1  0  0  3  0  0  0  0  0  0
  185.3660  179.9670  143.2190 C   0  0  0  0  0  2  0  0  0  0  0  0
  185.6700  177.7580  136.9730 C   0  0  1  0  0  3  0  0  0  0  0  0
  184.3620  178.3420  144.9710 C   0  0  0  0  0  1  0  0  0  0  0  0
  181.2590  177.5260  138.6790 C   0  0  0  0  0  2  0  0  0  0  0  0
  179.9850  179.3590  135.7230 O   0  0  0  0  0  0  0  0  0  0  0  0
  182.0810  178.4330  139.6260 C   0  0  2  0  0  3  0  0  0  0  0  0
  186.9030  178.3940  137.5200 C   0  0  0  0  0  2  0  0  0  0  0  0
  186.7850  176.4440  135.2360 C   0  0  0  0  0  3  0  0  0  0  0  0
  185.9840  176.4240  136.3760 C   0  0  0  0  0  0  0  0  0  0  0  0
  185.4600  175.2850  136.9160 C   0  0  0  0  0  3  0  0  0  0  0  0
  185.4600  172.8730  136.7020 O   0  0  0  0  0  1  0  0  0  0  0  0
  186.6490  174.0780  135.1700 C   0  0  0  0  0  3  0  0  0  0  0  0
  185.8640  174.0930  136.3090 C   0  0  0  0  0  0  0  0  0  0  0  0
  187.0720  175.2640  134.5960 C   0  0  0  0  0  3  0  0  0  0  0  0
  180.7070  182.6850  137.9030 C   0  0  0  0  0  1  0  0  0  0  0  0
  181.8890  181.9810  138.2060 O   0  0  0  0  0  0  0  0  0  0  0  0
  1 27  1  0  0  0  0
  2 14  1  0  0  0  0
  2 24  1  1  0  0  0
  3 20  1  0  0  0  0
  3  9  1  0  0  0  0
  4  1  1  0  0  0  0
  5 10  1  0  0  0  0
  6 22  1  0  0  0  0
  7  3  1  0  0  0  0
  7 21  1  0  0  0  0
  8 18  1  0  0  0  0
  8 12  1  0  0  0  0
  9 13  1  0  0  0  0
  9  6  1  0  0  0  0
 10  7  1  0  0  0  0
 11  6  1  0  0  0  0
 12  4  1  0  0  0  0
 13 17  1  0  0  0  0
 15 20  1  0  0  0  0
 16 11  1  0  0  0  0
 17  2  1  0  0  0  0
 18 25  1  0  0  0  0
 19 18  1  0  0  0  0
 19  5  1  0  0  0  0
 20 16  1  0  0  0  0
 21 13  1  0  0  0  0
 22  2  1  0  0  0  0
 23 28  1  0  0  0  0
 23 10  1  0  0  0  0
 25 27  1  0  0  0  0
 26  8  2  0  0  0  0
 27 21  1  0  0  0  0
 28 15  1  0  0  0  0
 29 30  1  0  0  0  0
 30 31  2  0  0  0  0
 30 23  1  0  0  0  0
 33 34  2  0  0  0  0
 34 32  1  0  0  0  0
 34 31  1  0  0  0  0
 35 33  1  0  0  0  0
 35 29  2  0  0  0  0
 36 37  1  0  0  0  0
 37  4  1  0  0  0  0
M  END
>  <MODEL>
8

>  <REMARK>
 VINA RESULT:      -3.9      2.138      6.661
  Name = 
  2 active torsions:
  status: ('A' for Active; 'I' for Inactive)
    1  A    between atoms: C_4  and  O_37
    2  A    between atoms: C_23  and  C_30
                            x       y       z     vdW  Elec       q    Type
                         _______ _______ _______ _____ _____    ______ ____

>  <TORSDO>
F 2

$$$$
=
 OpenBabel11122411263D

 37 43  0  0  1  0  0  0  0  0999 V2000
  184.4120  177.7530  136.9070 C   0  0  0  0  0  2  0  0  0  0  0  0
  180.3460  180.2540  135.6050 C   0  0  1  0  0  0  0  0  0  0  0  0
  181.1180  176.2280  136.8520 N   0  0  1  0  0  0  0  0  0  0  0  0
  185.7630  178.4180  137.2490 C   0  0  2  0  0  3  0  0  0  0  0  0
  184.2140  174.4720  135.8530 O   0  0  0  0  0  0  0  0  0  0  0  0
  179.4470  178.1640  136.8190 C   0  0  1  0  0  3  0  0  0  0  0  0
  182.1460  175.7830  136.0410 C   0  0  2  0  0  3  0  0  0  0  0  0
  187.2250  176.6030  136.0970 C   0  0  0  0  0  0  0  0  0  0  0  0
  180.6040  177.3930  136.2220 C   0  0  1  0  0  3  0  0  0  0  0  0
  183.2840  174.9530  136.7860 C   0  0  1  0  0  3  0  0  0  0  0  0
  179.0870  177.5780  138.1440 C   0  0  0  0  0  2  0  0  0  0  0  0
  187.0350  178.0920  136.4620 C   0  0  0  0  0  2  0  0  0  0  0  0
  181.7610  178.1430  135.7200 C   0  0  2  0  0  3  0  0  0  0  0  0
  180.9110  181.4630  135.9250 O   0  0  0  0  0  1  0  0  0  0  0  0
  180.2530  174.0540  137.7910 C   0  0  0  0  0  2  0  0  0  0  0  0
  178.9310  176.0200  138.0230 C   0  0  0  0  0  2  0  0  0  0  0  0
  181.3530  179.4320  134.9400 C   0  0  0  0  0  2  0  0  0  0  0  0
  186.1680  175.7780  135.4370 C   0  0  1  0  0  3  0  0  0  0  0  0
  185.4650  174.8580  136.4090 C   0  0  0  0  0  2  0  0  0  0  0  0
  179.8890  175.3560  137.0620 C   0  0  1  0  0  3  0  0  0  0  0  0
  182.6700  177.0590  135.1860 C   0  0  1  0  0  3  0  0  0  0  0  0
  179.7990  179.6560  136.9930 C   0  0  0  0  0  2  0  0  0  0  0  0
  182.7710  173.7540  137.5500 C   0  0  1  0  0  3  0  0  0  0  0  0
  179.1800  180.4150  134.5940 C   0  0  0  0  0  1  0  0  0  0  0  0
  185.1290  176.6070  134.5980 C   0  0  0  0  0  2  0  0  0  0  0  0
  188.2710  175.9890  136.4580 O   0  0  0  0  0  0  0  0  0  0  0  0
  184.1320  177.4810  135.3980 C   0  0  2  0  0  3  0  0  0  0  0  0
  181.6330  174.0210  138.4770 C   0  0  0  0  0  2  0  0  0  0  0  0
  183.5700  171.4890  137.0830 C   0  0  0  0  0  3  0  0  0  0  0  0
  182.5860  172.4470  136.8490 C   0  0  0  0  0  0  0  0  0  0  0  0
  181.5310  172.2610  136.0040 C   0  0  0  0  0  3  0  0  0  0  0  0
  180.4560  170.6090  134.5960 O   0  0  0  0  0  1  0  0  0  0  0  0
  182.3920  170.0130  135.6490 C   0  0  0  0  0  3  0  0  0  0  0  0
  181.4280  170.9830  135.4450 C   0  0  0  0  0  0  0  0  0  0  0  0
  183.5010  170.2820  136.4320 C   0  0  0  0  0  3  0  0  0  0  0  0
  184.5570  178.5400  139.0250 C   0  0  0  0  0  1  0  0  0  0  0  0
  185.9070  178.5140  138.6260 O   0  0  0  0  0  0  0  0  0  0  0  0
  1  4  1  0  0  0  0
  2 24  1  6  0  0  0
  2 14  1  0  0  0  0
  2 22  1  0  0  0  0
  3 20  1  0  0  0  0
  4 37  1  0  0  0  0
  5 19  1  0  0  0  0
  5 10  1  0  0  0  0
  6 22  1  0  0  0  0
  6 11  1  0  0  0  0
  7 10  1  0  0  0  0
  7  3  1  0  0  0  0
  8 26  2  0  0  0  0
  8 12  1  0  0  0  0
  9  6  1  0  0  0  0
  9  3  1  0  0  0  0
 10 23  1  0  0  0  0
 12  4  1  0  0  0  0
 13  9  1  0  0  0  0
 15 28  1  0  0  0  0
 16 11  1  0  0  0  0
 17  2  1  0  0  0  0
 17 13  1  0  0  0  0
 18  8  1  0  0  0  0
 18 19  1  0  0  0  0
 20 15  1  0  0  0  0
 20 16  1  0  0  0  0
 21 27  1  0  0  0  0
 21 13  1  0  0  0  0
 21  7  1  0  0  0  0
 23 28  1  0  0  0  0
 25 27  1  0  0  0  0
 25 18  1  0  0  0  0
 27  1  1  0  0  0  0
 30 29  1  0  0  0  0
 30 23  1  0  0  0  0
 31 30  2  0  0  0  0
 32 34  1  0  0  0  0
 33 35  1  0  0  0  0
 34 33  2  0  0  0  0
 34 31  1  0  0  0  0
 35 29  2  0  0  0  0
 37 36  1  0  0  0  0
M  END
>  <MODEL>
9

>  <REMARK>
 VINA RESULT:      -3.8      2.521      7.374
  Name = 
  2 active torsions:
  status: ('A' for Active; 'I' for Inactive)
    1  A    between atoms: C_4  and  O_37
    2  A    between atoms: C_23  and  C_30
                            x       y       z     vdW  Elec       q    Type
                         _______ _______ _______ _____ _____    ______ ____

>  <TORSDO>
F 2

$$$$
