=
 OpenBabel11122410353D

 32 37  0  0  1  0  0  0  0  0999 V2000
  189.0840  177.8660  140.0670 C   0  0  1  0  0  3  0  0  0  0  0  0
  191.7440  177.0780  144.1490 C   0  0  0  0  0  3  0  0  0  0  0  0
  190.5870  177.0750  144.9210 C   0  0  0  0  0  3  0  0  0  0  0  0
  186.6860  178.4880  140.3860 C   0  0  0  0  0  0  0  0  0  0  0  0
  185.5360  178.6350  141.2630 C   0  0  0  0  0  0  0  0  0  0  0  0
  190.0720  176.5720  138.2180 N   0  0  0  0  0  0  0  0  0  0  0  0
  191.5770  177.5470  139.9360 C   0  0  0  0  0  2  0  0  0  0  0  0
  184.3280  178.5690  143.0500 C   0  0  0  0  0  0  0  0  0  0  0  0
  191.6600  177.2960  142.7740 C   0  0  0  0  0  3  0  0  0  0  0  0
  190.3740  177.7010  140.8120 C   0  0  0  0  0  0  0  0  0  0  0  0
  190.4210  177.5200  142.1460 C   0  0  0  0  0  0  0  0  0  0  0  0
  188.0260  177.7410  142.3780 C   0  0  0  0  0  0  0  0  0  0  0  0
  183.5720  179.0580  142.0450 N   0  0  0  0  0  0  0  0  0  0  0  0
  191.3450  176.3890  138.9570 C   0  0  2  0  0  3  0  0  0  0  0  0
  184.3130  179.1000  140.9430 N   0  0  0  0  0  0  0  0  0  0  0  0
  189.3490  177.2950  144.3200 C   0  0  0  0  0  3  0  0  0  0  0  0
  189.2390  177.5230  142.9340 C   0  0  0  0  0  0  0  0  0  0  0  0
  186.7750  177.6920  143.2520 C   0  0  0  0  0  3  0  0  0  0  0  0
  188.9320  176.6630  139.1420 C   0  0  0  0  0  2  0  0  0  0  0  0
  186.5990  178.7900  139.1640 O   0  0  0  0  0  0  0  0  0  0  0  0
  183.8370  178.3570  144.4400 C   0  0  0  0  0  1  0  0  0  0  0  0
  187.9220  178.0050  140.9500 N   0  0  0  0  0  0  0  0  0  0  0  0
  185.5900  178.2990  142.5780 C   0  0  0  0  0  0  0  0  0  0  0  0
  193.6090  177.0660  138.5350 O   0  0  0  0  0  0  0  0  0  0  0  0
  192.5300  176.3380  137.9970 C   0  0  1  0  0  3  0  0  0  0  0  0
  193.6790  175.6660  138.6460 C   0  0  1  0  0  3  0  0  0  0  0  0
  194.5450  175.1700  137.6700 O   0  0  0  0  0  0  0  0  0  0  0  0
  195.5300  174.4850  138.3830 C   0  0  2  0  0  3  0  0  0  0  0  0
  195.1520  173.0210  138.4890 C   0  0  0  0  0  1  0  0  0  0  0  0
  195.6430  175.0280  139.6640 O   0  0  0  0  0  1  0  0  0  0  0  0
  188.3470  175.3040  136.9150 C   0  0  0  0  0  1  0  0  0  0  0  0
  189.8200  175.4510  137.2990 C   0  0  0  0  0  2  0  0  0  0  0  0
  1 19  1  6  0  0  0
  1 10  1  0  0  0  0
  1 22  1  0  0  0  0
  2  3  1  0  0  0  0
  4 22  1  0  0  0  0
  4  5  1  0  0  0  0
  5 23  1  0  0  0  0
  6 14  1  0  0  0  0
  6 19  1  0  0  0  0
  7 10  1  0  0  0  0
  8 21  1  0  0  0  0
  9  2  2  0  0  0  0
 10 11  2  0  0  0  0
 11  9  1  0  0  0  0
 11 17  1  0  0  0  0
 12 17  2  0  0  0  0
 12 18  1  0  0  0  0
 13  8  2  0  0  0  0
 14  7  1  1  0  0  0
 15  5  2  0  0  0  0
 15 13  1  0  0  0  0
 16  3  2  0  0  0  0
 17 16  1  0  0  0  0
 20  4  2  0  0  0  0
 22 12  1  0  0  0  0
 23  8  1  0  0  0  0
 23 18  2  0  0  0  0
 24 26  1  0  0  0  0
 25 24  1  1  0  0  0
 25 26  1  0  0  0  0
 25 14  1  0  0  0  0
 26 27  1  6  0  0  0
 27 28  1  0  0  0  0
 28 29  1  1  0  0  0
 28 30  1  0  0  0  0
 31 32  1  0  0  0  0
 32  6  1  0  0  0  0
M  END
>  <MODEL>
1

>  <REMARK>
 VINA RESULT:      -8.7      0.000      0.000
  Name = 
  4 active torsions:
  status: ('A' for Active; 'I' for Inactive)
    1  A    between atoms: N_7  and  C_19
    2  A    between atoms: C_10  and  C_17
    3  A    between atoms: C_20  and  O_29
    4  A    between atoms: O_29  and  C_30
                            x       y       z     vdW  Elec       q    Type
                         _______ _______ _______ _____ _____    ______ ____

>  <TORSDO>
F 4

$$$$
=
 OpenBabel11122410353D

 32 37  0  0  1  0  0  0  0  0999 V2000
  187.9150  178.3390  140.5250 C   0  0  1  0  0  3  0  0  0  0  0  0
  191.7170  176.6410  143.1740 C   0  0  0  0  0  3  0  0  0  0  0  0
  190.9120  176.5560  144.3050 C   0  0  0  0  0  3  0  0  0  0  0  0
  185.8730  179.0230  141.7920 C   0  0  0  0  0  0  0  0  0  0  0  0
  185.1290  179.0640  143.0400 C   0  0  0  0  0  0  0  0  0  0  0  0
  188.0310  177.3670  138.2640 N   0  0  0  0  0  0  0  0  0  0  0  0
  190.1470  177.9110  139.4440 C   0  0  0  0  0  2  0  0  0  0  0  0
  184.6220  178.7270  145.1110 C   0  0  0  0  0  0  0  0  0  0  0  0
  191.1850  177.1210  141.9780 C   0  0  0  0  0  3  0  0  0  0  0  0
  189.3530  177.9640  140.7120 C   0  0  0  0  0  0  0  0  0  0  0  0
  189.8410  177.5290  141.8900 C   0  0  0  0  0  0  0  0  0  0  0  0
  187.7240  177.8360  143.0130 C   0  0  0  0  0  0  0  0  0  0  0  0
  183.6280  179.4400  144.5420 N   0  0  0  0  0  0  0  0  0  0  0  0
  189.4490  176.9760  138.4480 C   0  0  2  0  0  3  0  0  0  0  0  0
  183.9370  179.6490  143.2660 N   0  0  0  0  0  0  0  0  0  0  0  0
  189.5780  176.9550  144.2400 C   0  0  0  0  0  3  0  0  0  0  0  0
  189.0190  177.4490  143.0450 C   0  0  0  0  0  0  0  0  0  0  0  0
  186.8610  177.6920  144.2640 C   0  0  0  0  0  3  0  0  0  0  0  0
  187.3050  177.3440  139.5440 C   0  0  0  0  0  2  0  0  0  0  0  0
  185.4020  179.5550  140.7500 O   0  0  0  0  0  0  0  0  0  0  0  0
  184.6270  178.2820  146.5320 C   0  0  0  0  0  1  0  0  0  0  0  0
  187.1610  178.3720  141.7820 N   0  0  0  0  0  0  0  0  0  0  0  0
  185.5980  178.4820  144.1740 C   0  0  0  0  0  0  0  0  0  0  0  0
  191.5770  176.7950  137.3520 O   0  0  0  0  0  0  0  0  0  0  0  0
  190.2090  177.0420  137.1270 C   0  0  1  0  0  3  0  0  0  0  0  0
  190.8240  175.7290  136.8290 C   0  0  1  0  0  3  0  0  0  0  0  0
  191.0650  175.6230  135.4580 O   0  0  0  0  0  0  0  0  0  0  0  0
  191.6580  174.3700  135.2960 C   0  0  2  0  0  3  0  0  0  0  0  0
  191.1820  173.4390  136.3940 C   0  0  0  0  0  1  0  0  0  0  0  0
  193.0460  174.4970  135.3670 O   0  0  0  0  0  1  0  0  0  0  0  0
  185.9660  176.9680  136.9020 C   0  0  0  0  0  1  0  0  0  0  0  0
  187.3400  176.4570  137.3370 C   0  0  0  0  0  2  0  0  0  0  0  0
  1 19  1  6  0  0  0
  1 10  1  0  0  0  0
  1 22  1  0  0  0  0
  2  3  1  0  0  0  0
  4  5  1  0  0  0  0
  5 15  2  0  0  0  0
  5 23  1  0  0  0  0
  6 14  1  0  0  0  0
  6 19  1  0  0  0  0
  7 10  1  0  0  0  0
  8 21  1  0  0  0  0
  9  2  2  0  0  0  0
 10 11  2  0  0  0  0
 11  9  1  0  0  0  0
 11 17  1  0  0  0  0
 12 17  2  0  0  0  0
 12 18  1  0  0  0  0
 13  8  2  0  0  0  0
 14  7  1  1  0  0  0
 15 13  1  0  0  0  0
 16  3  2  0  0  0  0
 17 16  1  0  0  0  0
 20  4  2  0  0  0  0
 22  4  1  0  0  0  0
 22 12  1  0  0  0  0
 23 18  2  0  0  0  0
 23  8  1  0  0  0  0
 25 24  1  1  0  0  0
 25 14  1  0  0  0  0
 26 27  1  6  0  0  0
 26 25  1  0  0  0  0
 26 24  1  0  0  0  0
 28 30  1  0  0  0  0
 28 27  1  0  0  0  0
 28 29  1  1  0  0  0
 31 32  1  0  0  0  0
 32  6  1  0  0  0  0
M  END
>  <MODEL>
2

>  <REMARK>
 VINA RESULT:      -8.6      2.091      2.411
  Name = 
  4 active torsions:
  status: ('A' for Active; 'I' for Inactive)
    1  A    between atoms: N_7  and  C_19
    2  A    between atoms: C_10  and  C_17
    3  A    between atoms: C_20  and  O_29
    4  A    between atoms: O_29  and  C_30
                            x       y       z     vdW  Elec       q    Type
                         _______ _______ _______ _____ _____    ______ ____

>  <TORSDO>
F 4

$$$$
=
 OpenBabel11122410353D

 32 37  0  0  1  0  0  0  0  0999 V2000
  190.5940  177.0900  139.1120 C   0  0  1  0  0  3  0  0  0  0  0  0
  186.9430  175.1750  136.3990 C   0  0  0  0  0  3  0  0  0  0  0  0
  187.7980  174.1890  135.9170 C   0  0  0  0  0  3  0  0  0  0  0  0
  192.9030  176.2570  138.6460 C   0  0  0  0  0  0  0  0  0  0  0  0
  193.7820  175.3070  137.9850 C   0  0  0  0  0  0  0  0  0  0  0  0
  189.6680  177.8350  141.2700 N   0  0  0  0  0  0  0  0  0  0  0  0
  188.2680  178.0430  139.2300 C   0  0  0  0  0  2  0  0  0  0  0  0
  194.4180  173.6230  136.7940 C   0  0  0  0  0  0  0  0  0  0  0  0
  187.4260  176.1410  137.2820 C   0  0  0  0  0  3  0  0  0  0  0  0
  189.1980  177.0750  138.5690 C   0  0  0  0  0  0  0  0  0  0  0  0
  188.7720  176.1430  137.6950 C   0  0  0  0  0  0  0  0  0  0  0  0
  190.9500  175.1050  137.5590 C   0  0  0  0  0  0  0  0  0  0  0  0
  195.5170  174.2430  137.2740 N   0  0  0  0  0  0  0  0  0  0  0  0
  188.2820  177.8040  140.7450 C   0  0  2  0  0  3  0  0  0  0  0  0
  195.1280  175.2800  138.0080 N   0  0  0  0  0  2  0  0  0  0  0  0
  189.1340  174.1730  136.3120 C   0  0  0  0  0  3  0  0  0  0  0  0
  189.6470  175.1400  137.1980 C   0  0  0  0  0  0  0  0  0  0  0  0
  191.8480  173.9850  137.0390 C   0  0  0  0  0  2  0  0  0  0  0  0
  190.5070  176.8220  140.6110 C   0  0  0  0  0  2  0  0  0  0  0  0
  193.3830  177.1800  139.3600 O   0  0  0  0  0  0  0  0  0  0  0  0
  194.4500  172.4030  135.9410 C   0  0  0  0  0  1  0  0  0  0  0  0
  191.4790  176.1250  138.4530 N   0  0  0  0  0  0  0  0  0  0  0  0
  193.2970  174.2890  137.2280 C   0  0  0  0  0  0  0  0  0  0  0  0
  186.1950  178.9910  140.7250 O   0  0  0  0  0  0  0  0  0  0  0  0
  187.4260  178.8840  141.4000 C   0  0  1  0  0  3  0  0  0  0  0  0
  186.1840  178.2870  141.9420 C   0  0  1  0  0  3  0  0  0  0  0  0
  185.6660  179.1100  142.9440 O   0  0  0  0  0  0  0  0  0  0  0  0
  185.1610  178.2300  143.9020 C   0  0  2  0  0  3  0  0  0  0  0  0
  184.3920  179.0100  144.9500 C   0  0  0  0  0  1  0  0  0  0  0  0
  186.2150  177.5490  144.5130 O   0  0  0  0  0  1  0  0  0  0  0  0
  189.3370  176.1320  143.0790 C   0  0  0  0  0  1  0  0  0  0  0  0
  189.6990  177.5730  142.7170 C   0  0  0  0  0  2  0  0  0  0  0  0
  1 19  1  1  0  0  0
  2  9  2  0  0  0  0
  3 16  2  0  0  0  0
  3  2  1  0  0  0  0
  4 20  2  0  0  0  0
  5 15  1  0  0  0  0
  5  4  1  0  0  0  0
  6 32  1  0  0  0  0
  8 23  1  0  0  0  0
  8 13  2  0  0  0  0
  9 11  1  0  0  0  0
 10  1  1  0  0  0  0
 10  7  1  0  0  0  0
 11 10  2  0  0  0  0
 12 22  1  0  0  0  0
 13 15  1  0  0  0  0
 14  7  1  6  0  0  0
 14  6  1  0  0  0  0
 14 25  1  0  0  0  0
 16 17  1  0  0  0  0
 17 12  2  0  0  0  0
 17 11  1  0  0  0  0
 18 23  1  0  0  0  0
 18 12  1  0  0  0  0
 19  6  1  0  0  0  0
 21  8  1  0  0  0  0
 22  4  1  0  0  0  0
 22  1  1  0  0  0  0
 23  5  2  0  0  0  0
 24 26  1  0  0  0  0
 25 24  1  6  0  0  0
 25 26  1  0  0  0  0
 26 27  1  1  0  0  0
 27 28  1  0  0  0  0
 28 30  1  0  0  0  0
 28 29  1  1  0  0  0
 32 31  1  0  0  0  0
M  END
>  <MODEL>
3

>  <REMARK>
 VINA RESULT:      -8.2      2.266      8.674
  Name = 
  4 active torsions:
  status: ('A' for Active; 'I' for Inactive)
    1  A    between atoms: N_7  and  C_19
    2  A    between atoms: C_10  and  C_17
    3  A    between atoms: C_20  and  O_29
    4  A    between atoms: O_29  and  C_30
                            x       y       z     vdW  Elec       q    Type
                         _______ _______ _______ _____ _____    ______ ____

>  <TORSDO>
F 4

$$$$
=
 OpenBabel11122410353D

 32 37  0  0  1  0  0  0  0  0999 V2000
  184.4260  178.6210  141.2290 C   0  0  1  0  0  3  0  0  0  0  0  0
  188.9660  177.9520  139.4120 C   0  0  0  0  0  3  0  0  0  0  0  0
  189.4560  177.6940  140.6880 C   0  0  0  0  0  3  0  0  0  0  0  0
  184.2210  178.8100  143.7120 C   0  0  0  0  0  0  0  0  0  0  0  0
  184.8200  178.6920  145.0310 C   0  0  0  0  0  0  0  0  0  0  0  0
  182.7950  177.6640  139.6510 N   0  0  0  0  0  0  0  0  0  0  0  0
  184.8490  178.7300  138.7500 C   0  0  0  0  0  2  0  0  0  0  0  0
  186.2830  178.2810  146.5630 C   0  0  0  0  0  0  0  0  0  0  0  0
  187.6180  178.2650  139.2360 C   0  0  0  0  0  3  0  0  0  0  0  0
  185.4360  178.6110  140.1220 C   0  0  0  0  0  0  0  0  0  0  0  0
  186.7370  178.3310  140.3310 C   0  0  0  0  0  0  0  0  0  0  0  0
  186.4300  178.1340  142.7200 C   0  0  0  0  0  0  0  0  0  0  0  0
  185.1550  178.7190  147.1610 N   0  0  0  0  0  0  0  0  0  0  0  0
  183.7930  177.6340  138.5550 C   0  0  2  0  0  3  0  0  0  0  0  0
  184.2530  178.9730  146.2190 N   0  0  0  0  0  2  0  0  0  0  0  0
  188.6000  177.7550  141.7870 C   0  0  0  0  0  3  0  0  0  0  0  0
  187.2370  178.0750  141.6360 C   0  0  0  0  0  0  0  0  0  0  0  0
  186.9960  177.8070  144.1000 C   0  0  0  0  0  2  0  0  0  0  0  0
  183.4400  177.4890  140.9610 C   0  0  0  0  0  2  0  0  0  0  0  0
  183.0250  179.1910  143.5870 O   0  0  0  0  0  0  0  0  0  0  0  0
  187.5160  177.8770  147.2950 C   0  0  0  0  0  1  0  0  0  0  0  0
  185.0290  178.4930  142.5600 N   0  0  0  0  0  0  0  0  0  0  0  0
  186.0980  178.2630  145.2010 C   0  0  0  0  0  0  0  0  0  0  0  0
  184.0200  177.5230  136.1680 O   0  0  0  0  0  0  0  0  0  0  0  0
  183.1260  177.8590  137.2020 C   0  0  1  0  0  3  0  0  0  0  0  0
  183.0240  176.5770  136.4680 C   0  0  1  0  0  3  0  0  0  0  0  0
  182.0080  176.6610  135.5140 O   0  0  0  0  0  0  0  0  0  0  0  0
  181.3690  175.4210  135.5630 C   0  0  2  0  0  3  0  0  0  0  0  0
  180.0410  175.5640  136.2790 C   0  0  0  0  0  1  0  0  0  0  0  0
  182.1710  174.5100  136.2520 O   0  0  0  0  0  1  0  0  0  0  0  0
  180.3660  177.0590  139.7790 C   0  0  0  0  0  1  0  0  0  0  0  0
  181.7950  176.5960  139.4940 C   0  0  0  0  0  2  0  0  0  0  0  0
  1 19  1  6  0  0  0
  1 22  1  0  0  0  0
  2  3  1  0  0  0  0
  3 16  2  0  0  0  0
  4  5  1  0  0  0  0
  5 23  2  0  0  0  0
  5 15  1  0  0  0  0
  6 19  1  0  0  0  0
  7 10  1  0  0  0  0
  8 13  2  0  0  0  0
  8 21  1  0  0  0  0
  9  2  2  0  0  0  0
  9 11  1  0  0  0  0
 10 11  2  0  0  0  0
 10  1  1  0  0  0  0
 11 17  1  0  0  0  0
 12 18  1  0  0  0  0
 14  7  1  1  0  0  0
 14  6  1  0  0  0  0
 15 13  1  0  0  0  0
 17 16  1  0  0  0  0
 17 12  2  0  0  0  0
 18 23  1  0  0  0  0
 20  4  2  0  0  0  0
 22 12  1  0  0  0  0
 22  4  1  0  0  0  0
 23  8  1  0  0  0  0
 24 26  1  0  0  0  0
 25 24  1  6  0  0  0
 25 14  1  0  0  0  0
 26 27  1  6  0  0  0
 26 25  1  0  0  0  0
 27 28  1  0  0  0  0
 28 30  1  0  0  0  0
 28 29  1  1  0  0  0
 32  6  1  0  0  0  0
 32 31  1  0  0  0  0
M  END
>  <MODEL>
4

>  <REMARK>
 VINA RESULT:      -8.2      4.690      7.498
  Name = 
  4 active torsions:
  status: ('A' for Active; 'I' for Inactive)
    1  A    between atoms: N_7  and  C_19
    2  A    between atoms: C_10  and  C_17
    3  A    between atoms: C_20  and  O_29
    4  A    between atoms: O_29  and  C_30
                            x       y       z     vdW  Elec       q    Type
                         _______ _______ _______ _____ _____    ______ ____

>  <TORSDO>
F 4

$$$$
=
 OpenBabel11122410353D

 32 37  0  0  1  0  0  0  0  0999 V2000
  187.9230  177.1050  142.8300 C   0  0  1  0  0  3  0  0  0  0  0  0
  184.5360  179.0030  145.8770 C   0  0  0  0  0  3  0  0  0  0  0  0
  185.4550  179.0080  146.9200 C   0  0  0  0  0  3  0  0  0  0  0  0
  190.0290  176.2560  143.8720 C   0  0  0  0  0  0  0  0  0  0  0  0
  190.8910  176.1370  145.0360 C   0  0  0  0  0  0  0  0  0  0  0  0
  187.6490  178.1300  140.6070 N   0  0  0  0  0  0  0  0  0  0  0  0
  185.6290  177.7070  141.9880 C   0  0  0  0  0  2  0  0  0  0  0  0
  191.6260  176.3950  147.0490 C   0  0  0  0  0  0  0  0  0  0  0  0
  184.9090  178.5120  144.6260 C   0  0  0  0  0  3  0  0  0  0  0  0
  186.5410  177.5740  143.1670 C   0  0  0  0  0  0  0  0  0  0  0  0
  186.2060  178.0150  144.3950 C   0  0  0  0  0  0  0  0  0  0  0  0
  188.3990  177.5400  145.2920 C   0  0  0  0  0  0  0  0  0  0  0  0
  192.5050  175.6270  146.3710 N   0  0  0  0  0  0  0  0  0  0  0  0
  186.2870  178.6140  140.9400 C   0  0  2  0  0  3  0  0  0  0  0  0
  192.0550  175.4670  145.1320 N   0  0  0  0  0  0  0  0  0  0  0  0
  186.7450  178.5200  146.7140 C   0  0  0  0  0  3  0  0  0  0  0  0
  187.1440  178.0150  145.4620 C   0  0  0  0  0  0  0  0  0  0  0  0
  189.3920  177.5990  146.4500 C   0  0  0  0  0  3  0  0  0  0  0  0
  188.5000  178.0760  141.8050 C   0  0  0  0  0  2  0  0  0  0  0  0
  190.3540  175.7150  142.7800 O   0  0  0  0  0  0  0  0  0  0  0  0
  191.7960  176.8090  148.4690 C   0  0  0  0  0  1  0  0  0  0  0  0
  188.7960  176.9940  144.0020 N   0  0  0  0  0  0  0  0  0  0  0  0
  190.5800  176.7260  146.2200 C   0  0  0  0  0  0  0  0  0  0  0  0
  184.1220  178.1190  140.0270 O   0  0  0  0  0  0  0  0  0  0  0  0
  185.3950  178.6270  139.7020 C   0  0  1  0  0  3  0  0  0  0  0  0
  184.2330  179.5170  139.9260 C   0  0  1  0  0  3  0  0  0  0  0  0
  183.7150  179.9310  138.6970 O   0  0  0  0  0  0  0  0  0  0  0  0
  182.3550  180.1350  138.9330 C   0  0  2  0  0  3  0  0  0  0  0  0
  181.5420  179.2720  137.9890 C   0  0  0  0  0  1  0  0  0  0  0  0
  182.0400  181.4780  138.7180 O   0  0  0  0  0  1  0  0  0  0  0  0
  189.2130  178.2580  138.6530 C   0  0  0  0  0  1  0  0  0  0  0  0
  188.3040  179.0100  139.6270 C   0  0  0  0  0  2  0  0  0  0  0  0
  1 19  1  6  0  0  0
  1 10  1  0  0  0  0
  1 22  1  0  0  0  0
  2  3  1  0  0  0  0
  4 22  1  0  0  0  0
  4  5  1  0  0  0  0
  5 15  2  0  0  0  0
  5 23  1  0  0  0  0
  6 14  1  0  0  0  0
  6 19  1  0  0  0  0
  7 10  1  0  0  0  0
  8 21  1  0  0  0  0
  9  2  2  0  0  0  0
 10 11  2  0  0  0  0
 11  9  1  0  0  0  0
 11 17  1  0  0  0  0
 12 17  2  0  0  0  0
 12 18  1  0  0  0  0
 13  8  2  0  0  0  0
 14  7  1  1  0  0  0
 15 13  1  0  0  0  0
 16  3  2  0  0  0  0
 17 16  1  0  0  0  0
 20  4  2  0  0  0  0
 22 12  1  0  0  0  0
 23 18  2  0  0  0  0
 23  8  1  0  0  0  0
 25 26  1  0  0  0  0
 25 24  1  1  0  0  0
 25 14  1  0  0  0  0
 26 27  1  6  0  0  0
 26 24  1  0  0  0  0
 27 28  1  0  0  0  0
 28 29  1  6  0  0  0
 30 28  1  0  0  0  0
 31 32  1  0  0  0  0
 32  6  1  0  0  0  0
M  END
>  <MODEL>
5

>  <REMARK>
 VINA RESULT:      -8.1      3.515      7.820
  Name = 
  4 active torsions:
  status: ('A' for Active; 'I' for Inactive)
    1  A    between atoms: N_7  and  C_19
    2  A    between atoms: C_10  and  C_17
    3  A    between atoms: C_20  and  O_29
    4  A    between atoms: O_29  and  C_30
                            x       y       z     vdW  Elec       q    Type
                         _______ _______ _______ _____ _____    ______ ____

>  <TORSDO>
F 4

$$$$
=
 OpenBabel11122410353D

 32 37  0  0  1  0  0  0  0  0999 V2000
  185.0960  178.9210  142.0390 C   0  0  1  0  0  3  0  0  0  0  0  0
  180.3140  178.6240  143.2230 C   0  0  0  0  0  3  0  0  0  0  0  0
  180.0300  178.0360  141.9950 C   0  0  0  0  0  3  0  0  0  0  0  0
  185.6990  178.4710  139.6570 C   0  0  0  0  0  0  0  0  0  0  0  0
  185.3160  178.0040  138.3340 C   0  0  0  0  0  0  0  0  0  0  0  0
  186.4380  178.4420  144.0490 N   0  0  0  0  0  0  0  0  0  0  0  0
  184.2840  179.6510  144.3070 C   0  0  0  0  0  2  0  0  0  0  0  0
  184.1100  177.1760  136.7480 C   0  0  0  0  0  0  0  0  0  0  0  0
  181.6210  179.0070  143.5240 C   0  0  0  0  0  3  0  0  0  0  0  0
  183.9220  179.1700  142.9370 C   0  0  0  0  0  0  0  0  0  0  0  0
  182.6670  178.8120  142.6030 C   0  0  0  0  0  0  0  0  0  0  0  0
  183.3480  178.0160  140.4250 C   0  0  0  0  0  0  0  0  0  0  0  0
  185.3260  177.4750  136.2440 N   0  0  0  0  0  0  0  0  0  0  0  0
  185.2770  178.6690  144.9430 C   0  0  2  0  0  3  0  0  0  0  0  0
  186.0700  177.9850  137.2200 N   0  0  0  0  0  0  0  0  0  0  0  0
  181.0510  177.8340  141.0680 C   0  0  0  0  0  3  0  0  0  0  0  0
  182.3780  178.2170  141.3460 C   0  0  0  0  0  0  0  0  0  0  0  0
  183.0050  177.3320  139.1040 C   0  0  0  0  0  3  0  0  0  0  0  0
  186.0080  177.9210  142.7430 C   0  0  0  0  0  2  0  0  0  0  0  0
  186.8640  178.9030  139.8680 O   0  0  0  0  0  0  0  0  0  0  0  0
  183.0040  176.5670  135.9580 C   0  0  0  0  0  1  0  0  0  0  0  0
  184.7120  178.4400  140.7090 N   0  0  0  0  0  0  0  0  0  0  0  0
  184.0750  177.5130  138.0800 C   0  0  0  0  0  0  0  0  0  0  0  0
  185.0290  178.6190  147.3300 O   0  0  0  0  0  0  0  0  0  0  0  0
  185.7230  179.2510  146.2810 C   0  0  1  0  0  3  0  0  0  0  0  0
  186.3510  178.1950  147.1080 C   0  0  1  0  0  3  0  0  0  0  0  0
  187.1880  178.7800  148.0600 O   0  0  0  0  0  0  0  0  0  0  0  0
  188.0400  177.7520  148.4650 C   0  0  2  0  0  3  0  0  0  0  0  0
  189.4700  178.2530  148.4700 C   0  0  0  0  0  1  0  0  0  0  0  0
  187.9290  176.6770  147.5820 O   0  0  0  0  0  1  0  0  0  0  0  0
  187.9990  176.5350  143.5970 C   0  0  0  0  0  1  0  0  0  0  0  0
  187.3820  177.4760  144.6320 C   0  0  0  0  0  2  0  0  0  0  0  0
  1 19  1  1  0  0  0
  1 10  1  0  0  0  0
  2  9  2  0  0  0  0
  3  2  1  0  0  0  0
  4 20  2  0  0  0  0
  4 22  1  0  0  0  0
  5  4  1  0  0  0  0
  6 32  1  0  0  0  0
  6 14  1  0  0  0  0
  8 23  1  0  0  0  0
 10  7  1  0  0  0  0
 11 10  2  0  0  0  0
 11  9  1  0  0  0  0
 12 22  1  0  0  0  0
 12 17  2  0  0  0  0
 13  8  2  0  0  0  0
 13 15  1  0  0  0  0
 14  7  1  6  0  0  0
 14 25  1  0  0  0  0
 15  5  2  0  0  0  0
 16 17  1  0  0  0  0
 16  3  2  0  0  0  0
 17 11  1  0  0  0  0
 18 12  1  0  0  0  0
 19  6  1  0  0  0  0
 21  8  1  0  0  0  0
 22  1  1  0  0  0  0
 23  5  1  0  0  0  0
 23 18  2  0  0  0  0
 25 26  1  0  0  0  0
 25 24  1  1  0  0  0
 26 24  1  0  0  0  0
 26 27  1  1  0  0  0
 27 28  1  0  0  0  0
 28 29  1  6  0  0  0
 30 28  1  0  0  0  0
 31 32  1  0  0  0  0
M  END
>  <MODEL>
6

>  <REMARK>
 VINA RESULT:      -8.1      4.844      8.426
  Name = 
  4 active torsions:
  status: ('A' for Active; 'I' for Inactive)
    1  A    between atoms: N_7  and  C_19
    2  A    between atoms: C_10  and  C_17
    3  A    between atoms: C_20  and  O_29
    4  A    between atoms: O_29  and  C_30
                            x       y       z     vdW  Elec       q    Type
                         _______ _______ _______ _____ _____    ______ ____

>  <TORSDO>
F 4

$$$$
=
 OpenBabel11122410353D

 32 37  0  0  1  0  0  0  0  0999 V2000
  186.6440  178.6280  140.0830 C   0  0  1  0  0  3  0  0  0  0  0  0
  188.5250  177.5480  144.5160 C   0  0  0  0  0  3  0  0  0  0  0  0
  187.2460  177.4630  145.0550 C   0  0  0  0  0  3  0  0  0  0  0  0
  184.2100  179.1840  139.9940 C   0  0  0  0  0  0  0  0  0  0  0  0
  182.9130  179.2400  140.6500 C   0  0  0  0  0  0  0  0  0  0  0  0
  187.9970  177.5060  138.3560 N   0  0  0  0  0  0  0  0  0  0  0  0
  189.1270  178.3600  140.3960 C   0  0  0  0  0  2  0  0  0  0  0  0
  181.3980  179.0080  142.1680 C   0  0  0  0  0  0  0  0  0  0  0  0
  188.6900  177.8780  143.1710 C   0  0  0  0  0  3  0  0  0  0  0  0
  187.7770  178.4230  141.0400 C   0  0  0  0  0  0  0  0  0  0  0  0
  187.5820  178.1330  142.3410 C   0  0  0  0  0  0  0  0  0  0  0  0
  185.1800  178.2960  142.1380 C   0  0  0  0  0  0  0  0  0  0  0  0
  180.8260  179.5660  141.0810 N   0  0  0  0  0  0  0  0  0  0  0  0
  189.1150  177.2830  139.3030 C   0  0  2  0  0  3  0  0  0  0  0  0
  181.7570  179.7100  140.1440 N   0  0  0  0  0  0  0  0  0  0  0  0
  186.1340  177.7120  144.2520 C   0  0  0  0  0  3  0  0  0  0  0  0
  186.2760  178.0520  142.8930 C   0  0  0  0  0  0  0  0  0  0  0  0
  183.7910  178.1550  142.7560 C   0  0  0  0  0  3  0  0  0  0  0  0
  186.7020  177.5030  139.0550 C   0  0  0  0  0  2  0  0  0  0  0  0
  184.3410  179.5830  138.8060 O   0  0  0  0  0  0  0  0  0  0  0  0
  180.6650  178.6740  143.4210 C   0  0  0  0  0  1  0  0  0  0  0  0
  185.3350  178.6750  140.7410 N   0  0  0  0  0  0  0  0  0  0  0  0
  182.7340  178.7970  141.9210 C   0  0  0  0  0  0  0  0  0  0  0  0
  191.5040  177.1430  139.5070 O   0  0  0  0  0  0  0  0  0  0  0  0
  190.4590  177.3310  138.5810 C   0  0  1  0  0  3  0  0  0  0  0  0
  191.1550  176.0310  138.7210 C   0  0  1  0  0  3  0  0  0  0  0  0
  192.0870  175.8850  137.6920 O   0  0  0  0  0  0  0  0  0  0  0  0
  192.0560  174.5270  137.3720 C   0  0  2  0  0  3  0  0  0  0  0  0
  192.4230  174.3420  135.9130 C   0  0  0  0  0  1  0  0  0  0  0  0
  190.7730  174.0250  137.5940 O   0  0  0  0  0  1  0  0  0  0  0  0
  186.5320  176.0800  136.9060 C   0  0  0  0  0  1  0  0  0  0  0  0
  187.9540  176.4610  137.3220 C   0  0  0  0  0  2  0  0  0  0  0  0
  1 19  1  6  0  0  0
  1 22  1  0  0  0  0
  1 10  1  0  0  0  0
  2  3  1  0  0  0  0
  4  5  1  0  0  0  0
  4 22  1  0  0  0  0
  5 23  1  0  0  0  0
  6 19  1  0  0  0  0
  6 14  1  0  0  0  0
  7 10  1  0  0  0  0
  8 21  1  0  0  0  0
  9  2  2  0  0  0  0
 10 11  2  0  0  0  0
 11 17  1  0  0  0  0
 11  9  1  0  0  0  0
 12 18  1  0  0  0  0
 12 17  2  0  0  0  0
 13  8  2  0  0  0  0
 14  7  1  1  0  0  0
 15  5  2  0  0  0  0
 15 13  1  0  0  0  0
 16  3  2  0  0  0  0
 17 16  1  0  0  0  0
 20  4  2  0  0  0  0
 22 12  1  0  0  0  0
 23  8  1  0  0  0  0
 23 18  2  0  0  0  0
 25 26  1  0  0  0  0
 25 14  1  0  0  0  0
 25 24  1  1  0  0  0
 26 27  1  6  0  0  0
 26 24  1  0  0  0  0
 28 29  1  6  0  0  0
 28 30  1  0  0  0  0
 28 27  1  0  0  0  0
 31 32  1  0  0  0  0
 32  6  1  0  0  0  0
M  END
>  <MODEL>
7

>  <REMARK>
 VINA RESULT:      -7.9      2.052      2.950
  Name = 
  4 active torsions:
  status: ('A' for Active; 'I' for Inactive)
    1  A    between atoms: N_7  and  C_19
    2  A    between atoms: C_10  and  C_17
    3  A    between atoms: C_20  and  O_29
    4  A    between atoms: O_29  and  C_30
                            x       y       z     vdW  Elec       q    Type
                         _______ _______ _______ _____ _____    ______ ____

>  <TORSDO>
F 4

$$$$
=
 OpenBabel11122410353D

 32 37  0  0  1  0  0  0  0  0999 V2000
  189.2670  177.8770  140.3060 C   0  0  1  0  0  3  0  0  0  0  0  0
  185.8370  177.6330  136.7650 C   0  0  0  0  0  3  0  0  0  0  0  0
  186.7180  176.9440  135.9380 C   0  0  0  0  0  3  0  0  0  0  0  0
  191.5970  177.2410  139.6660 C   0  0  0  0  0  0  0  0  0  0  0  0
  192.5180  176.6650  138.7000 C   0  0  0  0  0  0  0  0  0  0  0  0
  188.1700  177.5760  142.4910 N   0  0  0  0  0  0  0  0  0  0  0  0
  186.9510  178.7820  140.6940 C   0  0  0  0  0  2  0  0  0  0  0  0
  193.2320  175.7000  136.9060 C   0  0  0  0  0  0  0  0  0  0  0  0
  186.2550  178.0510  138.0290 C   0  0  0  0  0  3  0  0  0  0  0  0
  187.9220  178.1870  139.7230 C   0  0  0  0  0  0  0  0  0  0  0  0
  187.5600  177.7920  138.4870 C   0  0  0  0  0  0  0  0  0  0  0  0
  189.7300  176.8280  138.0330 C   0  0  0  0  0  0  0  0  0  0  0  0
  194.2940  175.9680  137.6950 N   0  0  0  0  0  0  0  0  0  0  0  0
  186.8330  177.8640  141.9170 C   0  0  2  0  0  3  0  0  0  0  0  0
  193.8560  176.5630  138.8000 N   0  0  0  0  0  2  0  0  0  0  0  0
  188.0160  176.6770  136.3720 C   0  0  0  0  0  3  0  0  0  0  0  0
  188.4630  177.0940  137.6410 C   0  0  0  0  0  0  0  0  0  0  0  0
  190.6550  176.0360  137.1130 C   0  0  0  0  0  2  0  0  0  0  0  0
  189.0490  176.9460  141.4940 C   0  0  0  0  0  2  0  0  0  0  0  0
  192.0250  177.7000  140.7600 O   0  0  0  0  0  0  0  0  0  0  0  0
  193.3220  175.0180  135.5860 C   0  0  0  0  0  1  0  0  0  0  0  0
  190.1940  177.2860  139.3350 N   0  0  0  0  0  0  0  0  0  0  0  0
  192.0860  176.1430  137.5220 C   0  0  0  0  0  0  0  0  0  0  0  0
  185.3060  179.6660  142.3470 O   0  0  0  0  0  0  0  0  0  0  0  0
  185.9380  178.5560  142.9410 C   0  0  1  0  0  3  0  0  0  0  0  0
  184.5270  178.5050  142.4960 C   0  0  1  0  0  3  0  0  0  0  0  0
  183.6820  178.6570  143.5970 O   0  0  0  0  0  0  0  0  0  0  0  0
  182.4010  178.7630  143.0520 C   0  0  2  0  0  3  0  0  0  0  0  0
  182.4420  178.3800  141.5870 C   0  0  0  0  0  1  0  0  0  0  0  0
  181.9480  180.0780  143.1750 O   0  0  0  0  0  1  0  0  0  0  0  0
  189.1150  176.9580  144.7280 C   0  0  0  0  0  1  0  0  0  0  0  0
  188.0740  176.6700  143.6450 C   0  0  0  0  0  2  0  0  0  0  0  0
  1 19  1  1  0  0  0
  2  9  2  0  0  0  0
  3 16  2  0  0  0  0
  3  2  1  0  0  0  0
  4 20  2  0  0  0  0
  5 15  1  0  0  0  0
  5  4  1  0  0  0  0
  6 32  1  0  0  0  0
  8 23  1  0  0  0  0
  8 13  2  0  0  0  0
  9 11  1  0  0  0  0
 10  1  1  0  0  0  0
 10  7  1  0  0  0  0
 11 10  2  0  0  0  0
 12 22  1  0  0  0  0
 13 15  1  0  0  0  0
 14  7  1  6  0  0  0
 14  6  1  0  0  0  0
 14 25  1  0  0  0  0
 16 17  1  0  0  0  0
 17 12  2  0  0  0  0
 17 11  1  0  0  0  0
 18 23  1  0  0  0  0
 18 12  1  0  0  0  0
 19  6  1  0  0  0  0
 21  8  1  0  0  0  0
 22  4  1  0  0  0  0
 22  1  1  0  0  0  0
 23  5  2  0  0  0  0
 24 26  1  0  0  0  0
 25 24  1  6  0  0  0
 26 25  1  0  0  0  0
 26 27  1  1  0  0  0
 28 29  1  6  0  0  0
 28 30  1  0  0  0  0
 28 27  1  0  0  0  0
 32 31  1  0  0  0  0
M  END
>  <MODEL>
8

>  <REMARK>
 VINA RESULT:      -7.6      2.446      8.757
  Name = 
  4 active torsions:
  status: ('A' for Active; 'I' for Inactive)
    1  A    between atoms: N_7  and  C_19
    2  A    between atoms: C_10  and  C_17
    3  A    between atoms: C_20  and  O_29
    4  A    between atoms: O_29  and  C_30
                            x       y       z     vdW  Elec       q    Type
                         _______ _______ _______ _____ _____    ______ ____

>  <TORSDO>
F 4

$$$$
=
 OpenBabel11122410353D

 32 37  0  0  1  0  0  0  0  0999 V2000
  185.7610  178.6590  139.5120 C   0  0  1  0  0  3  0  0  0  0  0  0
  188.4460  177.6920  143.5380 C   0  0  0  0  0  3  0  0  0  0  0  0
  187.2900  177.6050  144.3070 C   0  0  0  0  0  3  0  0  0  0  0  0
  183.3440  179.1870  139.8660 C   0  0  0  0  0  0  0  0  0  0  0  0
  182.1910  179.2420  140.7490 C   0  0  0  0  0  0  0  0  0  0  0  0
  186.7860  177.5150  137.5850 N   0  0  0  0  0  0  0  0  0  0  0  0
  188.2620  178.4240  139.3640 C   0  0  0  0  0  2  0  0  0  0  0  0
  180.9860  179.0260  142.5270 C   0  0  0  0  0  0  0  0  0  0  0  0
  188.3540  177.9960  142.1800 C   0  0  0  0  0  3  0  0  0  0  0  0
  187.0550  178.4860  140.2460 C   0  0  0  0  0  0  0  0  0  0  0  0
  187.1080  178.2210  141.5660 C   0  0  0  0  0  0  0  0  0  0  0  0
  184.7070  178.3550  141.8090 C   0  0  0  0  0  0  0  0  0  0  0  0
  180.2150  179.5550  141.5540 N   0  0  0  0  0  0  0  0  0  0  0  0
  188.0640  177.3240  138.3130 C   0  0  2  0  0  3  0  0  0  0  0  0
  180.9550  179.6900  140.4580 N   0  0  0  0  0  0  0  0  0  0  0  0
  186.0450  177.8260  143.7200 C   0  0  0  0  0  3  0  0  0  0  0  0
  185.9270  178.1380  142.3510 C   0  0  0  0  0  0  0  0  0  0  0  0
  183.4590  178.2120  142.6760 C   0  0  0  0  0  3  0  0  0  0  0  0
  185.6440  177.5130  138.5120 C   0  0  0  0  0  2  0  0  0  0  0  0
  183.2480  179.5620  138.6660 O   0  0  0  0  0  0  0  0  0  0  0  0
  180.5030  178.7110  143.8990 C   0  0  0  0  0  1  0  0  0  0  0  0
  184.5950  178.7060  140.4000 N   0  0  0  0  0  0  0  0  0  0  0  0
  182.2560  178.8250  142.0400 C   0  0  0  0  0  0  0  0  0  0  0  0
  190.4540  177.3400  138.0830 O   0  0  0  0  0  0  0  0  0  0  0  0
  189.2500  177.3710  137.3530 C   0  0  1  0  0  3  0  0  0  0  0  0
  190.0540  176.1340  137.4820 C   0  0  1  0  0  3  0  0  0  0  0  0
  190.7960  175.9340  136.3160 O   0  0  0  0  0  0  0  0  0  0  0  0
  191.2790  174.6280  136.4210 C   0  0  2  0  0  3  0  0  0  0  0  0
  190.2090  173.7400  137.0250 C   0  0  0  0  0  1  0  0  0  0  0  0
  192.4090  174.6130  137.2380 O   0  0  0  0  0  1  0  0  0  0  0  0
  186.3930  175.0670  137.2280 C   0  0  0  0  0  1  0  0  0  0  0  0
  186.5680  176.4480  136.5960 C   0  0  0  0  0  2  0  0  0  0  0  0
  1 19  1  6  0  0  0
  1 10  1  0  0  0  0
  1 22  1  0  0  0  0
  2  3  1  0  0  0  0
  4 22  1  0  0  0  0
  4  5  1  0  0  0  0
  5 23  1  0  0  0  0
  6 14  1  0  0  0  0
  6 19  1  0  0  0  0
  7 10  1  0  0  0  0
  8 21  1  0  0  0  0
  9  2  2  0  0  0  0
 10 11  2  0  0  0  0
 11  9  1  0  0  0  0
 11 17  1  0  0  0  0
 12 17  2  0  0  0  0
 12 18  1  0  0  0  0
 13  8  2  0  0  0  0
 14  7  1  1  0  0  0
 15  5  2  0  0  0  0
 15 13  1  0  0  0  0
 16  3  2  0  0  0  0
 17 16  1  0  0  0  0
 20  4  2  0  0  0  0
 22 12  1  0  0  0  0
 23  8  1  0  0  0  0
 23 18  2  0  0  0  0
 25 26  1  0  0  0  0
 25 24  1  1  0  0  0
 25 14  1  0  0  0  0
 26 27  1  6  0  0  0
 26 24  1  0  0  0  0
 27 28  1  0  0  0  0
 28 29  1  1  0  0  0
 28 30  1  0  0  0  0
 32 31  1  0  0  0  0
 32  6  1  0  0  0  0
M  END
>  <MODEL>
9

>  <REMARK>
 VINA RESULT:      -7.3      2.529      3.565
  Name = 
  4 active torsions:
  status: ('A' for Active; 'I' for Inactive)
    1  A    between atoms: N_7  and  C_19
    2  A    between atoms: C_10  and  C_17
    3  A    between atoms: C_20  and  O_29
    4  A    between atoms: O_29  and  C_30
                            x       y       z     vdW  Elec       q    Type
                         _______ _______ _______ _____ _____    ______ ____

>  <TORSDO>
F 4

$$$$
