=
 OpenBabel11122411243D

 37 43  0  0  1  0  0  0  0  0999 V2000
  185.9040  175.1650  137.1290 C   0  0  0  0  0  2  0  0  0  0  0  0
  189.3890  177.0960  135.6570 C   0  0  0  0  0  0  0  0  0  0  0  0
  186.5920  178.2550  138.4510 C   0  0  0  0  0  0  0  0  0  0  0  0
  185.9420  173.7050  136.6670 C   0  0  2  0  0  3  0  0  0  0  0  0
  183.0880  177.2800  137.7640 O   0  0  0  0  0  0  0  0  0  0  0  0
  188.9110  178.0330  137.9030 C   0  0  0  0  0  0  0  0  0  0  0  0
  185.3610  177.9510  137.8110 N   0  0  0  0  0  0  0  0  0  0  0  0
  183.3530  173.6810  136.6730 C   0  0  2  0  0  3  0  0  0  0  0  0
  187.5940  178.1830  137.5490 C   0  0  0  0  0  0  0  0  0  0  0  0
  184.1630  177.6360  138.5840 C   0  0  1  0  0  3  0  0  0  0  0  0
  189.2480  178.1220  139.2640 C   0  0  0  0  0  3  0  0  0  0  0  0
  184.6500  173.2120  135.9970 C   0  0  0  0  0  2  0  0  0  0  0  0
  187.1150  177.8920  136.2680 N   0  0  0  0  0  0  0  0  0  0  0  0
  189.2610  175.5970  135.8600 C   0  0  0  0  0  1  0  0  0  0  0  0
  185.8500  178.4400  140.7910 O   0  0  0  0  0  0  0  0  0  0  0  0
  188.2140  178.2730  140.2230 C   0  0  0  0  0  3  0  0  0  0  0  0
  188.0300  177.6520  135.1530 C   0  0  0  0  0  2  0  0  0  0  0  0
  183.0620  175.1960  136.5540 C   0  0  1  0  0  3  0  0  0  0  0  0
  182.9790  175.8960  137.9120 C   0  0  0  0  0  2  0  0  0  0  0  0
  186.8580  178.3180  139.8230 C   0  0  0  0  0  0  0  0  0  0  0  0
  185.6780  177.6170  136.3930 C   0  0  1  0  0  3  0  0  0  0  0  0
  189.8240  177.7060  136.8930 O   0  0  0  0  0  0  0  0  0  0  0  0
  183.8300  178.7630  139.5340 C   0  0  0  0  0  0  0  0  0  0  0  0
  190.4390  177.3430  134.5940 C   0  0  0  0  0  1  0  0  0  0  0  0
  183.9790  175.9260  135.5560 C   0  0  0  0  0  2  0  0  0  0  0  0
  183.2710  173.2100  137.9730 F   0  0  0  0  0  0  0  0  0  0  0  0
  185.4210  176.1410  136.0440 C   0  0  2  0  0  3  0  0  0  0  0  0
  184.6110  179.0140  140.5470 N   0  0  0  0  0  0  0  0  0  0  0  0
  181.4320  179.2570  140.0490 C   0  0  0  0  0  3  0  0  0  0  0  0
  182.6140  179.5990  139.3700 C   0  0  0  0  0  0  0  0  0  0  0  0
  182.6310  180.7660  138.5890 C   0  0  0  0  0  3  0  0  0  0  0  0
  181.5170  182.6790  137.7070 F   0  0  0  0  0  0  0  0  0  0  0  0
  180.3150  181.2020  139.1400 C   0  0  0  0  0  3  0  0  0  0  0  0
  181.4870  181.5600  138.4700 C   0  0  0  0  0  0  0  0  0  0  0  0
  180.2880  180.0510  139.9310 C   0  0  0  0  0  3  0  0  0  0  0  0
  187.4600  172.2690  137.3980 C   0  0  0  0  0  1  0  0  0  0  0  0
  186.2580  172.8840  137.7520 O   0  0  0  0  0  0  0  0  0  0  0  0
  2 14  1  0  0  0  0
  2 22  1  0  0  0  0
  3 20  1  0  0  0  0
  4  1  1  0  0  0  0
  4 37  1  1  0  0  0
  5 19  1  0  0  0  0
  6 11  2  0  0  0  0
  7  3  1  0  0  0  0
  7 10  1  0  0  0  0
  8 26  1  1  0  0  0
  9  6  1  0  0  0  0
  9  3  2  0  0  0  0
 10  5  1  6  0  0  0
 10 23  1  0  0  0  0
 11 16  1  0  0  0  0
 12  4  1  0  0  0  0
 12  8  1  0  0  0  0
 13  9  1  0  0  0  0
 17  2  1  0  0  0  0
 17 13  1  0  0  0  0
 18 25  1  6  0  0  0
 18  8  1  0  0  0  0
 18 19  1  0  0  0  0
 20 16  2  0  0  0  0
 20 15  1  0  0  0  0
 21 13  1  1  0  0  0
 21  7  1  0  0  0  0
 22  6  1  0  0  0  0
 23 28  2  0  0  0  0
 24  2  1  0  0  0  0
 27 25  1  1  0  0  0
 27 21  1  0  0  0  0
 27  1  1  0  0  0  0
 28 15  1  0  0  0  0
 30 23  1  0  0  0  0
 30 29  2  0  0  0  0
 31 30  1  0  0  0  0
 32 34  1  0  0  0  0
 33 35  2  0  0  0  0
 34 31  2  0  0  0  0
 34 33  1  0  0  0  0
 35 29  1  0  0  0  0
 36 37  1  0  0  0  0
M  END
>  <MODEL>
1

>  <REMARK>
 VINA RESULT:      -6.4      0.000      0.000
  Name = 
  2 active torsions:
  status: ('A' for Active; 'I' for Inactive)
    1  A    between atoms: C_4  and  O_37
    2  A    between atoms: C_23  and  C_30
                            x       y       z     vdW  Elec       q    Type
                         _______ _______ _______ _____ _____    ______ ____

>  <TORSDO>
F 2

$$$$
=
 OpenBabel11122411243D

 37 43  0  0  1  0  0  0  0  0999 V2000
  184.7140  175.7840  137.5520 C   0  0  0  0  0  2  0  0  0  0  0  0
  188.6720  177.3210  137.6600 C   0  0  0  0  0  0  0  0  0  0  0  0
  185.1770  178.6360  139.4010 C   0  0  0  0  0  0  0  0  0  0  0  0
  184.7710  174.3730  136.9580 C   0  0  2  0  0  3  0  0  0  0  0  0
  182.0910  178.2140  137.4020 O   0  0  0  0  0  0  0  0  0  0  0  0
  187.5000  178.1370  139.6880 C   0  0  0  0  0  0  0  0  0  0  0  0
  184.2430  178.5570  138.3340 N   0  0  0  0  0  0  0  0  0  0  0  0
  182.3720  174.7080  136.0430 C   0  0  2  0  0  3  0  0  0  0  0  0
  186.4270  178.4960  138.9120 C   0  0  0  0  0  0  0  0  0  0  0  0
  182.8190  178.3510  138.5870 C   0  0  1  0  0  3  0  0  0  0  0  0
  187.3210  178.0730  141.0800 C   0  0  0  0  0  3  0  0  0  0  0  0
  183.7720  174.1180  135.8180 C   0  0  0  0  0  2  0  0  0  0  0  0
  186.4250  178.3750  137.5180 N   0  0  0  0  0  0  0  0  0  0  0  0
  188.3270  175.8430  137.6190 C   0  0  0  0  0  1  0  0  0  0  0  0
  183.6510  178.7400  141.3290 O   0  0  0  0  0  0  0  0  0  0  0  0
  186.0280  178.2910  141.6210 C   0  0  0  0  0  3  0  0  0  0  0  0
  187.6570  178.0970  136.7790 C   0  0  0  0  0  2  0  0  0  0  0  0
  182.3000  176.2540  136.0150 C   0  0  1  0  0  3  0  0  0  0  0  0
  181.7960  176.8510  137.3310 C   0  0  0  0  0  2  0  0  0  0  0  0
  184.9260  178.5550  140.7750 C   0  0  0  0  0  0  0  0  0  0  0  0
  185.0220  178.2930  137.0910 C   0  0  1  0  0  3  0  0  0  0  0  0
  188.6820  177.7660  139.0350 O   0  0  0  0  0  0  0  0  0  0  0  0
  182.2760  179.4370  139.4880 C   0  0  0  0  0  0  0  0  0  0  0  0
  190.0580  177.5020  137.0770 C   0  0  0  0  0  1  0  0  0  0  0  0
  183.5890  176.9240  135.5050 C   0  0  0  0  0  2  0  0  0  0  0  0
  181.7710  174.1530  137.1610 F   0  0  0  0  0  0  0  0  0  0  0  0
  184.7640  176.8990  136.4950 C   0  0  2  0  0  3  0  0  0  0  0  0
  182.6530  179.4980  140.7340 N   0  0  0  0  0  0  0  0  0  0  0  0
  179.9390  180.3170  139.3460 C   0  0  0  0  0  3  0  0  0  0  0  0
  181.2970  180.4440  139.0080 C   0  0  0  0  0  0  0  0  0  0  0  0
  181.7060  181.5610  138.2610 C   0  0  0  0  0  3  0  0  0  0  0  0
  181.1850  183.5860  137.1190 F   0  0  0  0  0  0  0  0  0  0  0  0
  179.4280  182.3730  138.1760 C   0  0  0  0  0  3  0  0  0  0  0  0
  180.7760  182.5180  137.8430 C   0  0  0  0  0  0  0  0  0  0  0  0
  179.0090  181.2740  138.9290 C   0  0  0  0  0  3  0  0  0  0  0  0
  184.4940  172.2060  137.3170 C   0  0  0  0  0  1  0  0  0  0  0  0
  184.5820  173.4340  137.9740 O   0  0  0  0  0  0  0  0  0  0  0  0
  2 22  1  0  0  0  0
  3 20  1  0  0  0  0
  4  1  1  0  0  0  0
  4 37  1  1  0  0  0
  6 11  2  0  0  0  0
  7 10  1  0  0  0  0
  7  3  1  0  0  0  0
  8 26  1  1  0  0  0
  9  3  2  0  0  0  0
  9  6  1  0  0  0  0
 10  5  1  6  0  0  0
 10 23  1  0  0  0  0
 11 16  1  0  0  0  0
 12  8  1  0  0  0  0
 12  4  1  0  0  0  0
 13  9  1  0  0  0  0
 14  2  1  0  0  0  0
 17 13  1  0  0  0  0
 17  2  1  0  0  0  0
 18 25  1  1  0  0  0
 18  8  1  0  0  0  0
 18 19  1  0  0  0  0
 19  5  1  0  0  0  0
 20 15  1  0  0  0  0
 20 16  2  0  0  0  0
 21 13  1  1  0  0  0
 21  7  1  0  0  0  0
 22  6  1  0  0  0  0
 23 28  2  0  0  0  0
 24  2  1  0  0  0  0
 27 25  1  1  0  0  0
 27 21  1  0  0  0  0
 27  1  1  0  0  0  0
 28 15  1  0  0  0  0
 30 29  1  0  0  0  0
 30 23  1  0  0  0  0
 31 30  2  0  0  0  0
 32 34  1  0  0  0  0
 33 35  1  0  0  0  0
 34 33  2  0  0  0  0
 34 31  1  0  0  0  0
 35 29  2  0  0  0  0
 36 37  1  0  0  0  0
M  END
>  <MODEL>
2

>  <REMARK>
 VINA RESULT:      -5.6      1.493      1.837
  Name = 
  2 active torsions:
  status: ('A' for Active; 'I' for Inactive)
    1  A    between atoms: C_4  and  O_37
    2  A    between atoms: C_23  and  C_30
                            x       y       z     vdW  Elec       q    Type
                         _______ _______ _______ _____ _____    ______ ____

>  <TORSDO>
F 2

$$$$
=
 OpenBabel11122411243D

 37 43  0  0  1  0  0  0  0  0999 V2000
  183.6850  177.8210  138.0470 C   0  0  0  0  0  2  0  0  0  0  0  0
  180.8720  180.9990  138.2380 C   0  0  0  0  0  0  0  0  0  0  0  0
  180.4350  176.9260  138.6810 C   0  0  0  0  0  0  0  0  0  0  0  0
  185.0900  178.4320  138.0720 C   0  0  2  0  0  3  0  0  0  0  0  0
  182.5410  174.8040  136.4990 O   0  0  0  0  0  0  0  0  0  0  0  0
  179.9470  179.1050  139.5440 C   0  0  0  0  0  0  0  0  0  0  0  0
  181.1730  176.4070  137.5850 N   0  0  0  0  0  0  0  0  0  0  0  0
  185.9450  176.4140  136.6930 C   0  0  2  0  0  3  0  0  0  0  0  0
  180.2590  178.2540  138.5140 C   0  0  0  0  0  0  0  0  0  0  0  0
  181.7880  175.0840  137.6440 C   0  0  1  0  0  3  0  0  0  0  0  0
  179.6350  178.5470  140.7950 C   0  0  0  0  0  3  0  0  0  0  0  0
  186.0280  177.9230  136.9670 C   0  0  0  0  0  2  0  0  0  0  0  0
  180.8000  178.6970  137.3020 N   0  0  0  0  0  0  0  0  0  0  0  0
  182.3090  181.0960  138.7180 C   0  0  0  0  0  1  0  0  0  0  0  0
  180.2940  174.9300  140.1150 O   0  0  0  0  0  0  0  0  0  0  0  0
  179.7420  177.1440  140.9720 C   0  0  0  0  0  3  0  0  0  0  0  0
  180.8300  180.1190  136.9600 C   0  0  0  0  0  2  0  0  0  0  0  0
  184.6200  175.9370  136.0500 C   0  0  1  0  0  3  0  0  0  0  0  0
  183.8680  174.9240  136.9170 C   0  0  0  0  0  2  0  0  0  0  0  0
  180.1700  176.3120  139.9110 C   0  0  0  0  0  0  0  0  0  0  0  0
  181.5110  177.5600  136.7020 C   0  0  1  0  0  3  0  0  0  0  0  0
  180.0500  180.4810  139.3070 O   0  0  0  0  0  0  0  0  0  0  0  0
  180.7490  174.0270  137.9370 C   0  0  0  0  0  0  0  0  0  0  0  0
  180.3950  182.3920  137.8840 C   0  0  0  0  0  1  0  0  0  0  0  0
  183.7240  177.0870  135.5530 C   0  0  0  0  0  2  0  0  0  0  0  0
  186.3010  175.6830  137.8150 F   0  0  0  0  0  0  0  0  0  0  0  0
  183.0150  177.8780  136.6640 C   0  0  2  0  0  3  0  0  0  0  0  0
  180.1720  173.9860  139.1050 N   0  0  0  0  0  0  0  0  0  0  0  0
  179.2870  173.2340  136.0690 C   0  0  0  0  0  3  0  0  0  0  0  0
  180.3660  172.9980  136.9370 C   0  0  0  0  0  0  0  0  0  0  0  0
  181.0950  171.8060  136.8010 C   0  0  0  0  0  3  0  0  0  0  0  0
  181.4500  169.7130  135.7180 F   0  0  0  0  0  0  0  0  0  0  0  0
  179.6590  171.1030  134.9840 C   0  0  0  0  0  3  0  0  0  0  0  0
  180.7410  170.8610  135.8330 C   0  0  0  0  0  0  0  0  0  0  0  0
  178.9330  172.2900  135.1000 C   0  0  0  0  0  3  0  0  0  0  0  0
  184.9270  179.0030  140.2040 C   0  0  0  0  0  1  0  0  0  0  0  0
  185.6680  178.2130  139.3240 O   0  0  0  0  0  0  0  0  0  0  0  0
  1  4  1  0  0  0  0
  2 14  1  0  0  0  0
  2 22  1  0  0  0  0
  3 20  1  0  0  0  0
  4 37  1  1  0  0  0
  5 19  1  0  0  0  0
  6 11  2  0  0  0  0
  7 10  1  0  0  0  0
  7  3  1  0  0  0  0
  8 12  1  0  0  0  0
  8 26  1  1  0  0  0
  9  3  2  0  0  0  0
  9  6  1  0  0  0  0
 10  5  1  6  0  0  0
 10 23  1  0  0  0  0
 11 16  1  0  0  0  0
 12  4  1  0  0  0  0
 13  9  1  0  0  0  0
 17 13  1  0  0  0  0
 17  2  1  0  0  0  0
 18 25  1  1  0  0  0
 18  8  1  0  0  0  0
 18 19  1  0  0  0  0
 20 15  1  0  0  0  0
 20 16  2  0  0  0  0
 21 13  1  1  0  0  0
 21  7  1  0  0  0  0
 22  6  1  0  0  0  0
 23 28  2  0  0  0  0
 24  2  1  0  0  0  0
 27 25  1  6  0  0  0
 27 21  1  0  0  0  0
 27  1  1  0  0  0  0
 28 15  1  0  0  0  0
 29 30  1  0  0  0  0
 30 23  1  0  0  0  0
 31 30  2  0  0  0  0
 32 34  1  0  0  0  0
 33 35  1  0  0  0  0
 33 34  2  0  0  0  0
 34 31  1  0  0  0  0
 35 29  2  0  0  0  0
 37 36  1  0  0  0  0
M  END
>  <MODEL>
3

>  <REMARK>
 VINA RESULT:      -5.2      3.197      7.363
  Name = 
  2 active torsions:
  status: ('A' for Active; 'I' for Inactive)
    1  A    between atoms: C_4  and  O_37
    2  A    between atoms: C_23  and  C_30
                            x       y       z     vdW  Elec       q    Type
                         _______ _______ _______ _____ _____    ______ ____

>  <TORSDO>
F 2

$$$$
=
 OpenBabel11122411243D

 37 43  0  0  1  0  0  0  0  0999 V2000
  183.7170  176.9900  136.6440 C   0  0  0  0  0  2  0  0  0  0  0  0
  180.9140  173.8070  136.4010 C   0  0  0  0  0  0  0  0  0  0  0  0
  181.3930  176.8280  139.1610 C   0  0  0  0  0  0  0  0  0  0  0  0
  184.4480  177.0790  135.3010 C   0  0  2  0  0  3  0  0  0  0  0  0
  184.8770  177.8120  139.9280 O   0  0  0  0  0  0  0  0  0  0  0  0
  179.8830  175.6060  137.7630 C   0  0  0  0  0  0  0  0  0  0  0  0
  182.7910  176.8150  139.4070 N   0  0  0  0  0  0  0  0  0  0  0  0
  186.5210  178.0120  136.5400 C   0  0  2  0  0  3  0  0  0  0  0  0
  181.0460  175.7140  138.4830 C   0  0  0  0  0  0  0  0  0  0  0  0
  183.4980  178.0200  139.8290 C   0  0  1  0  0  3  0  0  0  0  0  0
  178.9360  176.6370  137.8710 C   0  0  0  0  0  3  0  0  0  0  0  0
  185.9800  177.1250  135.4090 C   0  0  0  0  0  2  0  0  0  0  0  0
  182.1440  174.8710  138.2810 N   0  0  0  0  0  0  0  0  0  0  0  0
  181.4780  174.5460  135.2010 C   0  0  0  0  0  1  0  0  0  0  0  0
  180.8070  179.0610  140.0170 O   0  0  0  0  0  0  0  0  0  0  0  0
  179.2510  177.7860  138.6410 C   0  0  0  0  0  3  0  0  0  0  0  0
  182.0320  173.6600  137.4690 C   0  0  0  0  0  2  0  0  0  0  0  0
  186.2460  177.4890  137.9710 C   0  0  1  0  0  3  0  0  0  0  0  0
  185.4080  178.4570  138.8090 C   0  0  0  0  0  2  0  0  0  0  0  0
  180.5060  177.9040  139.2830 C   0  0  0  0  0  0  0  0  0  0  0  0
  183.3340  175.5860  138.7610 C   0  0  1  0  0  3  0  0  0  0  0  0
  179.7550  174.5160  136.8920 O   0  0  0  0  0  0  0  0  0  0  0  0
  182.8950  178.5750  141.0980 C   0  0  0  0  0  0  0  0  0  0  0  0
  180.4880  172.4250  135.9510 C   0  0  0  0  0  1  0  0  0  0  0  0
  185.7160  176.0440  138.0100 C   0  0  0  0  0  2  0  0  0  0  0  0
  186.1450  179.3330  136.3610 F   0  0  0  0  0  0  0  0  0  0  0  0
  184.2530  175.8830  137.5640 C   0  0  2  0  0  3  0  0  0  0  0  0
  181.6980  179.0900  141.0800 N   0  0  0  0  0  0  0  0  0  0  0  0
  183.0070  179.0570  143.5510 C   0  0  0  0  0  3  0  0  0  0  0  0
  183.6320  178.5760  142.3870 C   0  0  0  0  0  0  0  0  0  0  0  0
  184.9320  178.0540  142.4840 C   0  0  0  0  0  3  0  0  0  0  0  0
  186.8570  177.5320  143.7890 F   0  0  0  0  0  0  0  0  0  0  0  0
  184.9730  178.5240  144.8580 C   0  0  0  0  0  3  0  0  0  0  0  0
  185.6010  178.0330  143.7120 C   0  0  0  0  0  0  0  0  0  0  0  0
  183.6760  179.0350  144.7780 C   0  0  0  0  0  3  0  0  0  0  0  0
  182.5980  178.0700  134.5990 C   0  0  0  0  0  1  0  0  0  0  0  0
  183.9870  178.1920  134.5950 O   0  0  0  0  0  0  0  0  0  0  0  0
  2 22  1  0  0  0  0
  2 17  1  0  0  0  0
  3 20  1  0  0  0  0
  3  7  1  0  0  0  0
  4 37  1  1  0  0  0
  4 12  1  0  0  0  0
  4  1  1  0  0  0  0
  6 11  2  0  0  0  0
  6  9  1  0  0  0  0
  7 10  1  0  0  0  0
  8 26  1  1  0  0  0
  8 18  1  0  0  0  0
  9  3  2  0  0  0  0
 10  5  1  1  0  0  0
 10 23  1  0  0  0  0
 11 16  1  0  0  0  0
 12  8  1  0  0  0  0
 13  9  1  0  0  0  0
 14  2  1  0  0  0  0
 15 28  1  0  0  0  0
 16 20  2  0  0  0  0
 17 13  1  0  0  0  0
 18 25  1  6  0  0  0
 18 19  1  0  0  0  0
 19  5  1  0  0  0  0
 20 15  1  0  0  0  0
 21 13  1  6  0  0  0
 21  7  1  0  0  0  0
 22  6  1  0  0  0  0
 23 30  1  0  0  0  0
 24  2  1  0  0  0  0
 27  1  1  1  0  0  0
 27 25  1  0  0  0  0
 27 21  1  0  0  0  0
 28 23  2  0  0  0  0
 29 35  1  0  0  0  0
 30 31  1  0  0  0  0
 30 29  2  0  0  0  0
 31 34  2  0  0  0  0
 34 32  1  0  0  0  0
 34 33  1  0  0  0  0
 35 33  2  0  0  0  0
 37 36  1  0  0  0  0
M  END
>  <MODEL>
4

>  <REMARK>
 VINA RESULT:      -4.1      3.231      6.417
  Name = 
  2 active torsions:
  status: ('A' for Active; 'I' for Inactive)
    1  A    between atoms: C_4  and  O_37
    2  A    between atoms: C_23  and  C_30
                            x       y       z     vdW  Elec       q    Type
                         _______ _______ _______ _____ _____    ______ ____

>  <TORSDO>
F 2

$$$$
=
 OpenBabel11122411243D

 37 43  0  0  1  0  0  0  0  0999 V2000
  187.9890  176.9390  140.3150 C   0  0  0  0  0  2  0  0  0  0  0  0
  184.4660  178.0340  138.2100 C   0  0  0  0  0  0  0  0  0  0  0  0
  187.5210  175.4360  137.2670 C   0  0  0  0  0  0  0  0  0  0  0  0
  187.8620  177.4570  141.7510 C   0  0  2  0  0  3  0  0  0  0  0  0
  190.9210  176.4530  138.3200 O   0  0  0  0  0  0  0  0  0  0  0  0
  185.1590  175.7970  137.3910 C   0  0  0  0  0  0  0  0  0  0  0  0
  188.6840  176.1880  137.5800 N   0  0  0  0  0  0  0  0  0  0  0  0
  190.4400  177.6680  141.8570 C   0  0  2  0  0  3  0  0  0  0  0  0
  186.4470  176.2530  137.2660 C   0  0  0  0  0  0  0  0  0  0  0  0
  189.9300  175.5310  137.9680 C   0  0  1  0  0  3  0  0  0  0  0  0
  184.9370  174.4110  137.3510 C   0  0  0  0  0  3  0  0  0  0  0  0
  189.0770  178.2530  142.2530 C   0  0  0  0  0  2  0  0  0  0  0  0
  186.8090  177.5810  137.5150 N   0  0  0  0  0  0  0  0  0  0  0  0
  184.5570  177.9050  139.7200 C   0  0  0  0  0  1  0  0  0  0  0  0
  188.4580  173.1600  137.2100 O   0  0  0  0  0  0  0  0  0  0  0  0
  186.0510  173.5360  137.2770 C   0  0  0  0  0  3  0  0  0  0  0  0
  185.7980  178.6260  137.6750 C   0  0  0  0  0  2  0  0  0  0  0  0
  190.7740  177.7470  140.3470 C   0  0  1  0  0  3  0  0  0  0  0  0
  190.9920  176.3720  139.7120 C   0  0  0  0  0  2  0  0  0  0  0  0
  187.3700  174.0450  137.2570 C   0  0  0  0  0  0  0  0  0  0  0  0
  188.2410  177.5870  137.8410 C   0  0  1  0  0  3  0  0  0  0  0  0
  184.1550  176.7410  137.6430 O   0  0  0  0  0  0  0  0  0  0  0  0
  190.3790  174.5660  136.8960 C   0  0  0  0  0  0  0  0  0  0  0  0
  183.3420  178.9950  137.8820 C   0  0  0  0  0  1  0  0  0  0  0  0
  189.8050  178.6340  139.5450 C   0  0  0  0  0  2  0  0  0  0  0  0
  190.6120  176.4000  142.3880 F   0  0  0  0  0  0  0  0  0  0  0  0
  188.4160  178.0180  139.3070 C   0  0  2  0  0  3  0  0  0  0  0  0
  189.6920  173.4820  136.6650 N   0  0  0  0  0  0  0  0  0  0  0  0
  191.7360  175.9700  135.3320 C   0  0  0  0  0  3  0  0  0  0  0  0
  191.6060  174.7950  136.0910 C   0  0  0  0  0  0  0  0  0  0  0  0
  192.6730  173.8830  136.1140 C   0  0  0  0  0  3  0  0  0  0  0  0
  194.8530  173.2360  135.4020 F   0  0  0  0  0  0  0  0  0  0  0  0
  193.9470  175.2940  134.6150 C   0  0  0  0  0  3  0  0  0  0  0  0
  193.8350  174.1280  135.3760 C   0  0  0  0  0  0  0  0  0  0  0  0
  192.8980  176.2160  134.5940 C   0  0  0  0  0  3  0  0  0  0  0  0
  187.4820  176.9620  143.8740 C   0  0  0  0  0  1  0  0  0  0  0  0
  187.6070  176.3860  142.6090 O   0  0  0  0  0  0  0  0  0  0  0  0
  1  4  1  0  0  0  0
  2 14  1  0  0  0  0
  3  7  1  0  0  0  0
  4 12  1  0  0  0  0
  4 37  1  1  0  0  0
  5 19  1  0  0  0  0
  6 22  1  0  0  0  0
  7 21  1  0  0  0  0
  7 10  1  0  0  0  0
  8 12  1  0  0  0  0
  8 26  1  6  0  0  0
  9  3  1  0  0  0  0
  9  6  2  0  0  0  0
  9 13  1  0  0  0  0
 10 23  1  6  0  0  0
 10  5  1  0  0  0  0
 11  6  1  0  0  0  0
 13 17  1  0  0  0  0
 15 20  1  0  0  0  0
 16 11  2  0  0  0  0
 17  2  1  0  0  0  0
 18 25  1  6  0  0  0
 18  8  1  0  0  0  0
 19 18  1  0  0  0  0
 20  3  2  0  0  0  0
 20 16  1  0  0  0  0
 21 13  1  1  0  0  0
 21 27  1  0  0  0  0
 22  2  1  0  0  0  0
 24  2  1  0  0  0  0
 27 25  1  6  0  0  0
 27  1  1  0  0  0  0
 28 23  2  0  0  0  0
 28 15  1  0  0  0  0
 29 30  1  0  0  0  0
 30 31  2  0  0  0  0
 30 23  1  0  0  0  0
 33 34  2  0  0  0  0
 34 32  1  0  0  0  0
 34 31  1  0  0  0  0
 35 33  1  0  0  0  0
 35 29  2  0  0  0  0
 37 36  1  0  0  0  0
M  END
>  <MODEL>
5

>  <REMARK>
 VINA RESULT:      -3.8      3.378      8.415
  Name = 
  2 active torsions:
  status: ('A' for Active; 'I' for Inactive)
    1  A    between atoms: C_4  and  O_37
    2  A    between atoms: C_23  and  C_30
                            x       y       z     vdW  Elec       q    Type
                         _______ _______ _______ _____ _____    ______ ____

>  <TORSDO>
F 2

$$$$
=
 OpenBabel11122411243D

 37 43  0  0  1  0  0  0  0  0999 V2000
  184.1340  176.8090  138.2220 C   0  0  0  0  0  2  0  0  0  0  0  0
  181.1520  175.4810  135.5020 C   0  0  0  0  0  0  0  0  0  0  0  0
  184.9050  174.0220  136.3770 C   0  0  0  0  0  0  0  0  0  0  0  0
  183.4960  177.8440  139.1540 C   0  0  2  0  0  3  0  0  0  0  0  0
  187.5190  176.5430  137.0910 O   0  0  0  0  0  0  0  0  0  0  0  0
  182.5860  173.5310  136.0480 C   0  0  0  0  0  0  0  0  0  0  0  0
  185.7090  175.1910  136.3710 N   0  0  0  0  0  0  0  0  0  0  0  0
  185.8080  178.9820  139.4010 C   0  0  2  0  0  3  0  0  0  0  0  0
  183.7000  174.3040  135.8380 C   0  0  0  0  0  0  0  0  0  0  0  0
  186.9270  175.2780  137.1710 C   0  0  1  0  0  3  0  0  0  0  0  0
  182.7430  172.3060  136.7150 C   0  0  0  0  0  3  0  0  0  0  0  0
  184.2860  179.1540  139.2900 C   0  0  0  0  0  2  0  0  0  0  0  0
  183.6310  175.6280  135.3930 N   0  0  0  0  0  0  0  0  0  0  0  0
  180.8620  176.1010  136.8580 C   0  0  0  0  0  1  0  0  0  0  0  0
  186.3680  172.4760  137.6140 O   0  0  0  0  0  0  0  0  0  0  0  0
  184.0190  171.9550  137.2250 C   0  0  0  0  0  3  0  0  0  0  0  0
  182.3840  176.1920  134.8790 C   0  0  0  0  0  2  0  0  0  0  0  0
  186.5060  178.4740  138.1170 C   0  0  1  0  0  3  0  0  0  0  0  0
  187.2290  177.1400  138.3190 C   0  0  0  0  0  2  0  0  0  0  0  0
  185.1210  172.8300  137.0790 C   0  0  0  0  0  0  0  0  0  0  0  0
  184.8720  176.2930  135.8150 C   0  0  1  0  0  3  0  0  0  0  0  0
  181.3460  174.0580  135.6650 O   0  0  0  0  0  0  0  0  0  0  0  0
  187.8800  174.1600  136.8130 C   0  0  0  0  0  0  0  0  0  0  0  0
  179.9530  175.7130  134.6070 C   0  0  0  0  0  1  0  0  0  0  0  0
  185.5970  178.4830  136.8740 C   0  0  0  0  0  2  0  0  0  0  0  0
  186.1460  178.2540  140.5310 F   0  0  0  0  0  0  0  0  0  0  0  0
  184.5280  177.3780  136.8490 C   0  0  2  0  0  3  0  0  0  0  0  0
  187.5800  172.9280  137.1120 N   0  0  0  0  0  0  0  0  0  0  0  0
  189.2940  175.4690  135.2180 C   0  0  0  0  0  3  0  0  0  0  0  0
  189.1790  174.4150  136.1400 C   0  0  0  0  0  0  0  0  0  0  0  0
  190.3190  173.6560  136.4450 C   0  0  0  0  0  3  0  0  0  0  0  0
  192.6330  173.1830  136.1260 F   0  0  0  0  0  0  0  0  0  0  0  0
  191.6420  174.9710  134.9030 C   0  0  0  0  0  3  0  0  0  0  0  0
  191.5430  173.9290  135.8260 C   0  0  0  0  0  0  0  0  0  0  0  0
  190.5180  175.7430  134.5990 C   0  0  0  0  0  3  0  0  0  0  0  0
  182.6440  178.2590  141.1540 C   0  0  0  0  0  1  0  0  0  0  0  0
  183.2990  177.2740  140.4130 O   0  0  0  0  0  0  0  0  0  0  0  0
  1  4  1  0  0  0  0
  2 22  1  0  0  0  0
  2 14  1  0  0  0  0
  3 20  1  0  0  0  0
  4 12  1  0  0  0  0
  4 37  1  1  0  0  0
  5 10  1  0  0  0  0
  5 19  1  0  0  0  0
  6 11  2  0  0  0  0
  7  3  1  0  0  0  0
  7 10  1  0  0  0  0
  8 26  1  1  0  0  0
  9  6  1  0  0  0  0
  9  3  2  0  0  0  0
 10 23  1  6  0  0  0
 11 16  1  0  0  0  0
 12  8  1  0  0  0  0
 13  9  1  0  0  0  0
 17 13  1  0  0  0  0
 17  2  1  0  0  0  0
 18 25  1  6  0  0  0
 18 19  1  0  0  0  0
 18  8  1  0  0  0  0
 20 16  2  0  0  0  0
 20 15  1  0  0  0  0
 21 13  1  1  0  0  0
 21  7  1  0  0  0  0
 21 27  1  0  0  0  0
 22  6  1  0  0  0  0
 23 28  2  0  0  0  0
 24  2  1  0  0  0  0
 27 25  1  1  0  0  0
 27  1  1  0  0  0  0
 28 15  1  0  0  0  0
 29 30  1  0  0  0  0
 30 31  2  0  0  0  0
 30 23  1  0  0  0  0
 33 34  2  0  0  0  0
 34 32  1  0  0  0  0
 34 31  1  0  0  0  0
 35 33  1  0  0  0  0
 35 29  2  0  0  0  0
 37 36  1  0  0  0  0
M  END
>  <MODEL>
6

>  <REMARK>
 VINA RESULT:      -3.8      2.808      7.793
  Name = 
  2 active torsions:
  status: ('A' for Active; 'I' for Inactive)
    1  A    between atoms: C_4  and  O_37
    2  A    between atoms: C_23  and  C_30
                            x       y       z     vdW  Elec       q    Type
                         _______ _______ _______ _____ _____    ______ ____

>  <TORSDO>
F 2

$$$$
=
 OpenBabel11122411243D

 37 43  0  0  1  0  0  0  0  0999 V2000
  183.2090  177.0480  136.6680 C   0  0  0  0  0  2  0  0  0  0  0  0
  179.8140  174.5520  137.2070 C   0  0  0  0  0  0  0  0  0  0  0  0
  181.6130  177.3000  139.6940 C   0  0  0  0  0  0  0  0  0  0  0  0
  183.5810  177.0260  135.1830 C   0  0  2  0  0  3  0  0  0  0  0  0
  185.3060  177.4840  139.5360 O   0  0  0  0  0  0  0  0  0  0  0  0
  179.5730  176.4810  138.7480 C   0  0  0  0  0  0  0  0  0  0  0  0
  182.9910  176.9770  139.5790 N   0  0  0  0  0  0  0  0  0  0  0  0
  186.0500  177.4470  135.8390 C   0  0  2  0  0  3  0  0  0  0  0  0
  180.8740  176.3110  139.1480 C   0  0  0  0  0  0  0  0  0  0  0  0
  184.0250  177.9870  139.7840 C   0  0  1  0  0  3  0  0  0  0  0  0
  178.9310  177.6870  139.0710 C   0  0  0  0  0  3  0  0  0  0  0  0
  185.0640  176.7380  134.8990 C   0  0  0  0  0  2  0  0  0  0  0  0
  181.6770  175.2600  138.6930 N   0  0  0  0  0  0  0  0  0  0  0  0
  180.2050  175.1960  135.8880 C   0  0  0  0  0  1  0  0  0  0  0  0
  181.7590  179.5740  140.6250 O   0  0  0  0  0  0  0  0  0  0  0  0
  179.6700  178.7130  139.7130 C   0  0  0  0  0  3  0  0  0  0  0  0
  181.1040  174.1300  137.9600 C   0  0  0  0  0  2  0  0  0  0  0  0
  186.0370  176.9440  137.3040 C   0  0  1  0  0  3  0  0  0  0  0  0
  185.6660  178.0400  138.3060 C   0  0  0  0  0  2  0  0  0  0  0  0
  181.0400  178.5360  140.0140 C   0  0  0  0  0  0  0  0  0  0  0  0
  183.0750  175.6840  138.8420 C   0  0  1  0  0  3  0  0  0  0  0  0
  178.9970  175.4760  137.9600 O   0  0  0  0  0  0  0  0  0  0  0  0
  183.8950  178.6130  141.1530 C   0  0  0  0  0  0  0  0  0  0  0  0
  179.0000  173.3110  136.9070 C   0  0  0  0  0  1  0  0  0  0  0  0
  185.2330  175.6470  137.5050 C   0  0  0  0  0  2  0  0  0  0  0  0
  185.9370  178.8240  135.7340 F   0  0  0  0  0  0  0  0  0  0  0  0
  183.7060  175.8190  137.4460 C   0  0  2  0  0  3  0  0  0  0  0  0
  182.8730  179.3740  141.4270 N   0  0  0  0  0  0  0  0  0  0  0  0
  184.5190  178.3420  143.5610 C   0  0  0  0  0  3  0  0  0  0  0  0
  184.9140  178.4100  142.2140 C   0  0  0  0  0  0  0  0  0  0  0  0
  186.2700  178.2280  141.8970 C   0  0  0  0  0  3  0  0  0  0  0  0
  188.5180  177.8390  142.5850 F   0  0  0  0  0  0  0  0  0  0  0  0
  186.8090  177.9520  144.2410 C   0  0  0  0  0  3  0  0  0  0  0  0
  187.2130  178.0060  142.9050 C   0  0  0  0  0  0  0  0  0  0  0  0
  185.4610  178.1190  144.5690 C   0  0  0  0  0  3  0  0  0  0  0  0
  181.8240  178.2920  134.7300 C   0  0  0  0  0  1  0  0  0  0  0  0
  183.2110  178.2360  134.5930 O   0  0  0  0  0  0  0  0  0  0  0  0
  2 17  1  0  0  0  0
  2 22  1  0  0  0  0
  3 20  1  0  0  0  0
  4 37  1  1  0  0  0
  4  1  1  0  0  0  0
  6 11  2  0  0  0  0
  6  9  1  0  0  0  0
  7  3  1  0  0  0  0
  7 10  1  0  0  0  0
  8 26  1  1  0  0  0
  8 18  1  0  0  0  0
  9  3  2  0  0  0  0
 10  5  1  1  0  0  0
 10 23  1  0  0  0  0
 11 16  1  0  0  0  0
 12  4  1  0  0  0  0
 12  8  1  0  0  0  0
 13  9  1  0  0  0  0
 14  2  1  0  0  0  0
 15 28  1  0  0  0  0
 16 20  2  0  0  0  0
 17 13  1  0  0  0  0
 18 25  1  6  0  0  0
 18 19  1  0  0  0  0
 19  5  1  0  0  0  0
 20 15  1  0  0  0  0
 21 13  1  6  0  0  0
 21  7  1  0  0  0  0
 22  6  1  0  0  0  0
 23 28  2  0  0  0  0
 23 30  1  0  0  0  0
 24  2  1  0  0  0  0
 27  1  1  1  0  0  0
 27 25  1  0  0  0  0
 27 21  1  0  0  0  0
 29 35  1  0  0  0  0
 30 29  2  0  0  0  0
 31 30  1  0  0  0  0
 31 34  2  0  0  0  0
 32 34  1  0  0  0  0
 33 35  2  0  0  0  0
 34 33  1  0  0  0  0
 37 36  1  0  0  0  0
M  END
>  <MODEL>
7

>  <REMARK>
 VINA RESULT:      -3.6      3.193      6.658
  Name = 
  2 active torsions:
  status: ('A' for Active; 'I' for Inactive)
    1  A    between atoms: C_4  and  O_37
    2  A    between atoms: C_23  and  C_30
                            x       y       z     vdW  Elec       q    Type
                         _______ _______ _______ _____ _____    ______ ____

>  <TORSDO>
F 2

$$$$
=
 OpenBabel11122411243D

 37 43  0  0  1  0  0  0  0  0999 V2000
  186.5450  177.5930  136.4330 C   0  0  0  0  0  2  0  0  0  0  0  0
  182.7290  175.8600  135.7410 C   0  0  0  0  0  0  0  0  0  0  0  0
  184.2290  177.9910  138.9320 C   0  0  0  0  0  0  0  0  0  0  0  0
  187.3150  177.5840  135.1090 C   0  0  2  0  0  3  0  0  0  0  0  0
  187.7780  177.3830  139.7860 O   0  0  0  0  0  0  0  0  0  0  0  0
  182.4280  177.6940  137.3840 C   0  0  0  0  0  0  0  0  0  0  0  0
  185.4950  177.3870  139.1500 N   0  0  0  0  0  0  0  0  0  0  0  0
  189.5260  177.4190  136.4460 C   0  0  2  0  0  3  0  0  0  0  0  0
  183.5030  177.2210  138.0930 C   0  0  0  0  0  0  0  0  0  0  0  0
  186.6000  178.1340  139.7430 C   0  0  1  0  0  3  0  0  0  0  0  0
  181.9610  178.9870  137.6680 C   0  0  0  0  0  3  0  0  0  0  0  0
  188.7340  177.0010  135.1980 C   0  0  0  0  0  2  0  0  0  0  0  0
  184.1880  176.0530  137.7440 N   0  0  0  0  0  0  0  0  0  0  0  0
  183.5950  176.4850  134.6620 C   0  0  0  0  0  1  0  0  0  0  0  0
  184.5320  180.1170  140.1360 O   0  0  0  0  0  0  0  0  0  0  0  0
  182.6660  179.7870  138.6030 C   0  0  0  0  0  3  0  0  0  0  0  0
  183.6450  175.1220  136.7550 C   0  0  0  0  0  2  0  0  0  0  0  0
  189.0000  176.8400  137.7810 C   0  0  1  0  0  3  0  0  0  0  0  0
  188.5730  177.9240  138.7740 C   0  0  0  0  0  2  0  0  0  0  0  0
  183.8340  179.2990  139.2350 C   0  0  0  0  0  0  0  0  0  0  0  0
  185.5390  176.1550  138.3110 C   0  0  1  0  0  3  0  0  0  0  0  0
  181.9210  176.8890  136.3560 O   0  0  0  0  0  0  0  0  0  0  0  0
  186.2050  178.6850  141.0940 C   0  0  0  0  0  0  0  0  0  0  0  0
  181.8140  174.8450  135.0870 C   0  0  0  0  0  1  0  0  0  0  0  0
  187.9410  175.7370  137.6030 C   0  0  0  0  0  2  0  0  0  0  0  0
  189.7120  178.7920  136.4820 F   0  0  0  0  0  0  0  0  0  0  0  0
  186.5570  176.2380  137.1600 C   0  0  2  0  0  3  0  0  0  0  0  0
  185.3100  179.6300  141.1760 N   0  0  0  0  0  0  0  0  0  0  0  0
  188.2080  177.9930  142.4220 C   0  0  0  0  0  3  0  0  0  0  0  0
  186.8200  178.2000  142.3550 C   0  0  0  0  0  0  0  0  0  0  0  0
  186.0490  177.9930  143.5100 C   0  0  0  0  0  3  0  0  0  0  0  0
  185.8900  177.3630  145.8030 F   0  0  0  0  0  0  0  0  0  0  0  0
  188.0270  177.3520  144.7490 C   0  0  0  0  0  3  0  0  0  0  0  0
  186.6480  177.5660  144.6990 C   0  0  0  0  0  0  0  0  0  0  0  0
  188.8080  177.5670  143.6110 C   0  0  0  0  0  3  0  0  0  0  0  0
  186.8210  179.6860  135.5940 C   0  0  0  0  0  1  0  0  0  0  0  0
  187.3650  178.8810  134.5940 O   0  0  0  0  0  0  0  0  0  0  0  0
  2 22  1  0  0  0  0
  2 17  1  0  0  0  0
  3  7  1  0  0  0  0
  3 20  1  0  0  0  0
  4 37  1  1  0  0  0
  4 12  1  0  0  0  0
  4  1  1  0  0  0  0
  6 11  2  0  0  0  0
  6  9  1  0  0  0  0
  7 10  1  0  0  0  0
  8 26  1  1  0  0  0
  8 18  1  0  0  0  0
  9  3  2  0  0  0  0
 10  5  1  1  0  0  0
 10 23  1  0  0  0  0
 11 16  1  0  0  0  0
 12  8  1  0  0  0  0
 13  9  1  0  0  0  0
 14  2  1  0  0  0  0
 15 28  1  0  0  0  0
 16 20  2  0  0  0  0
 17 13  1  0  0  0  0
 18 25  1  6  0  0  0
 18 19  1  0  0  0  0
 19  5  1  0  0  0  0
 20 15  1  0  0  0  0
 21 13  1  6  0  0  0
 21  7  1  0  0  0  0
 22  6  1  0  0  0  0
 23 28  2  0  0  0  0
 23 30  1  0  0  0  0
 24  2  1  0  0  0  0
 27  1  1  1  0  0  0
 27 25  1  0  0  0  0
 27 21  1  0  0  0  0
 29 35  1  0  0  0  0
 30 29  2  0  0  0  0
 30 31  1  0  0  0  0
 31 34  2  0  0  0  0
 34 33  1  0  0  0  0
 34 32  1  0  0  0  0
 35 33  2  0  0  0  0
 37 36  1  0  0  0  0
M  END
>  <MODEL>
8

>  <REMARK>
 VINA RESULT:      -3.5      2.923      6.147
  Name = 
  2 active torsions:
  status: ('A' for Active; 'I' for Inactive)
    1  A    between atoms: C_4  and  O_37
    2  A    between atoms: C_23  and  C_30
                            x       y       z     vdW  Elec       q    Type
                         _______ _______ _______ _____ _____    ______ ____

>  <TORSDO>
F 2

$$$$
=
 OpenBabel11122411243D

 37 43  0  0  1  0  0  0  0  0999 V2000
  181.1500  179.0340  136.6480 C   0  0  0  0  0  2  0  0  0  0  0  0
  184.1410  176.1370  135.8060 C   0  0  0  0  0  0  0  0  0  0  0  0
  181.3910  176.4250  138.8610 C   0  0  0  0  0  0  0  0  0  0  0  0
  180.9900  179.9210  135.4090 C   0  0  2  0  0  3  0  0  0  0  0  0
  180.6710  179.8360  140.1020 O   0  0  0  0  0  0  0  0  0  0  0  0
  182.4070  175.0360  137.1980 C   0  0  0  0  0  0  0  0  0  0  0  0
  181.5030  177.7820  139.2620 N   0  0  0  0  0  0  0  0  0  0  0  0
  180.2810  181.8740  136.9540 C   0  0  2  0  0  3  0  0  0  0  0  0
  182.4240  176.1100  138.0520 C   0  0  0  0  0  0  0  0  0  0  0  0
  180.3780  178.4890  139.8660 C   0  0  1  0  0  3  0  0  0  0  0  0
  181.3370  174.1310  137.2890 C   0  0  0  0  0  3  0  0  0  0  0  0
  181.0390  181.4310  135.6940 C   0  0  0  0  0  2  0  0  0  0  0  0
  183.3070  177.1840  137.9010 N   0  0  0  0  0  0  0  0  0  0  0  0
  183.3370  176.8710  134.7480 C   0  0  0  0  0  1  0  0  0  0  0  0
  179.2080  175.8450  139.8410 O   0  0  0  0  0  0  0  0  0  0  0  0
  180.2760  174.4050  138.1890 C   0  0  0  0  0  3  0  0  0  0  0  0
  184.4390  177.1130  136.9770 C   0  0  0  0  0  2  0  0  0  0  0  0
  180.9050  181.4100  138.2920 C   0  0  1  0  0  3  0  0  0  0  0  0
  179.9650  180.5240  139.1130 C   0  0  0  0  0  2  0  0  0  0  0  0
  180.2810  175.5800  138.9770 C   0  0  0  0  0  0  0  0  0  0  0  0
  182.7030  178.3410  138.5750 C   0  0  1  0  0  3  0  0  0  0  0  0
  183.4110  174.9610  136.2240 O   0  0  0  0  0  0  0  0  0  0  0  0
  179.8980  177.7670  141.1040 C   0  0  0  0  0  0  0  0  0  0  0  0
  185.4550  175.7040  135.1900 C   0  0  0  0  0  1  0  0  0  0  0  0
  182.3170  180.8130  138.1420 C   0  0  0  0  0  2  0  0  0  0  0  0
  178.9310  181.5830  136.8520 F   0  0  0  0  0  0  0  0  0  0  0  0
  182.3590  179.4070  137.5210 C   0  0  2  0  0  3  0  0  0  0  0  0
  179.3170  176.6050  140.9960 N   0  0  0  0  0  0  0  0  0  0  0  0
  178.9310  178.9040  143.1110 C   0  0  0  0  0  3  0  0  0  0  0  0
  180.0460  178.3460  142.4630 C   0  0  0  0  0  0  0  0  0  0  0  0
  181.2720  178.3020  143.1450 C   0  0  0  0  0  3  0  0  0  0  0  0
  182.5780  178.7800  145.0800 F   0  0  0  0  0  0  0  0  0  0  0  0
  180.2740  179.3860  145.0660 C   0  0  0  0  0  3  0  0  0  0  0  0
  181.3870  178.8240  144.4370 C   0  0  0  0  0  0  0  0  0  0  0  0
  179.0450  179.4250  144.4030 C   0  0  0  0  0  3  0  0  0  0  0  0
  179.3790  178.4060  135.3480 C   0  0  0  0  0  1  0  0  0  0  0  0
  179.7990  179.5990  134.7580 O   0  0  0  0  0  0  0  0  0  0  0  0
  2 22  1  0  0  0  0
  2 17  1  0  0  0  0
  3 20  1  0  0  0  0
  3  7  1  0  0  0  0
  4 37  1  1  0  0  0
  4 12  1  0  0  0  0
  4  1  1  0  0  0  0
  6 11  2  0  0  0  0
  6  9  1  0  0  0  0
  7 10  1  0  0  0  0
  8 26  1  6  0  0  0
  8 18  1  0  0  0  0
  9  3  2  0  0  0  0
 10  5  1  1  0  0  0
 10 23  1  0  0  0  0
 11 16  1  0  0  0  0
 12  8  1  0  0  0  0
 13  9  1  0  0  0  0
 14  2  1  0  0  0  0
 15 28  1  0  0  0  0
 16 20  2  0  0  0  0
 17 13  1  0  0  0  0
 18 25  1  6  0  0  0
 18 19  1  0  0  0  0
 19  5  1  0  0  0  0
 20 15  1  0  0  0  0
 21 13  1  6  0  0  0
 21  7  1  0  0  0  0
 22  6  1  0  0  0  0
 23 30  1  0  0  0  0
 24  2  1  0  0  0  0
 27  1  1  1  0  0  0
 27 25  1  0  0  0  0
 27 21  1  0  0  0  0
 28 23  2  0  0  0  0
 29 35  1  0  0  0  0
 30 29  2  0  0  0  0
 30 31  1  0  0  0  0
 31 34  2  0  0  0  0
 34 33  1  0  0  0  0
 34 32  1  0  0  0  0
 35 33  2  0  0  0  0
 37 36  1  0  0  0  0
M  END
>  <MODEL>
9

>  <REMARK>
 VINA RESULT:      -3.5      3.552      6.578
  Name = 
  2 active torsions:
  status: ('A' for Active; 'I' for Inactive)
    1  A    between atoms: C_4  and  O_37
    2  A    between atoms: C_23  and  C_30
                            x       y       z     vdW  Elec       q    Type
                         _______ _______ _______ _____ _____    ______ ____

>  <TORSDO>
F 2

$$$$
