=
 OpenBabel11122411143D

 31 35  0  0  1  0  0  0  0  0999 V2000
  191.3280  176.4270  144.6680 C   0  0  0  0  0  0  0  0  0  0  0  0
  187.6500  177.0090  143.8640 C   0  0  2  0  0  3  0  0  0  0  0  0
  187.0480  177.8150  145.0060 C   0  0  0  0  0  0  0  0  0  0  0  0
  187.0900  178.4800  147.3490 C   0  0  0  0  0  0  0  0  0  0  0  0
  189.1570  177.0890  143.8080 C   0  0  0  0  0  0  0  0  0  0  0  0
  191.9550  177.2460  143.7260 C   0  0  0  0  0  3  0  0  0  0  0  0
  187.6680  177.8150  146.2660 C   0  0  0  0  0  3  0  0  0  0  0  0
  187.6170  178.6560  141.9400 C   0  0  2  0  0  3  0  0  0  0  0  0
  192.0710  175.7110  145.5450 F   0  0  0  0  0  0  0  0  0  0  0  0
  185.0710  178.5120  143.5510 C   0  0  0  0  0  2  0  0  0  0  0  0
  187.7260  178.4820  148.5820 O   0  0  0  0  0  1  0  0  0  0  0  0
  189.0430  178.6000  141.8990 O   0  0  0  0  0  0  0  0  0  0  0  0
  187.0320  177.3460  142.4930 C   0  0  2  0  0  3  0  0  0  0  0  0
  189.9330  176.3460  144.7070 C   0  0  0  0  0  3  0  0  0  0  0  0
  185.8710  179.1390  147.1920 C   0  0  0  0  0  3  0  0  0  0  0  0
  189.7940  177.9020  142.8500 C   0  0  0  0  0  0  0  0  0  0  0  0
  191.1890  177.9790  142.8170 C   0  0  0  0  0  3  0  0  0  0  0  0
  185.5090  177.4000  142.6030 C   0  0  0  0  0  2  0  0  0  0  0  0
  185.7920  178.4540  144.8670 C   0  0  0  0  0  0  0  0  0  0  0  0
  185.2250  179.1260  145.9550 C   0  0  0  0  0  3  0  0  0  0  0  0
  188.4310  177.2920  139.5770 O   0  0  0  0  0  0  0  0  0  0  0  0
  187.5500  178.1870  139.4580 C   0  0  0  0  0  0  0  0  0  0  0  0
  187.1020  178.9140  140.6030 N   0  0  0  0  0  2  0  0  0  0  0  0
  187.6830  176.6530  135.9890 N   0  0  0  0  0  0  0  0  0  0  0  0
  186.0200  177.4040  137.6310 C   0  0  0  0  0  2  0  0  0  0  0  0
  188.9790  179.7220  137.5360 O   0  0  0  0  0  1  0  0  0  0  0  0
  188.3900  175.4750  135.5230 C   0  0  0  0  0  1  0  0  0  0  0  0
  186.8120  176.2160  137.0790 C   0  0  0  0  0  2  0  0  0  0  0  0
  188.0210  178.8340  137.0450 C   0  0  2  0  0  3  0  0  0  0  0  0
  186.9630  178.5100  138.1140 C   0  0  2  0  0  3  0  0  0  0  0  0
  188.6920  177.5590  136.5360 C   0  0  0  0  0  2  0  0  0  0  0  0
  1 14  1  0  0  0  0
  1  9  1  0  0  0  0
  2  5  1  6  0  0  0
  2  3  1  0  0  0  0
  3  7  1  0  0  0  0
  4 11  1  0  0  0  0
  5 14  2  0  0  0  0
  6  1  2  0  0  0  0
  7  4  2  0  0  0  0
  8 23  1  6  0  0  0
  8 13  1  0  0  0  0
 10 19  1  0  0  0  0
 12  8  1  0  0  0  0
 12 16  1  0  0  0  0
 13 18  1  1  0  0  0
 13  2  1  0  0  0  0
 15  4  1  0  0  0  0
 16  5  1  0  0  0  0
 17 16  2  0  0  0  0
 17  6  1  0  0  0  0
 18 10  1  0  0  0  0
 19  3  2  0  0  0  0
 19 20  1  0  0  0  0
 20 15  2  0  0  0  0
 22 21  2  0  0  0  0
 22 23  1  0  0  0  0
 24 31  1  0  0  0  0
 24 28  1  0  0  0  0
 25 30  1  0  0  0  0
 27 24  1  0  0  0  0
 28 25  1  0  0  0  0
 29 26  1  1  0  0  0
 29 30  1  0  0  0  0
 30 22  1  1  0  0  0
 31 29  1  0  0  0  0
M  END
>  <MODEL>
1

>  <REMARK>
 VINA RESULT:      -9.7      0.000      0.000
  Name = 
  2 active torsions:
  status: ('A' for Active; 'I' for Inactive)
    1  A    between atoms: C_5  and  C_30
    2  A    between atoms: C_10  and  N_16
                            x       y       z     vdW  Elec       q    Type
                         _______ _______ _______ _____ _____    ______ ____

>  <TORSDO>
F 2

$$$$
=
 OpenBabel11122411143D

 31 35  0  0  1  0  0  0  0  0999 V2000
  189.8630  175.9200  142.6910 C   0  0  0  0  0  0  0  0  0  0  0  0
  186.5890  177.1240  144.2220 C   0  0  2  0  0  3  0  0  0  0  0  0
  186.9170  177.8030  145.5450 C   0  0  0  0  0  0  0  0  0  0  0  0
  188.4080  178.0540  147.4550 C   0  0  0  0  0  0  0  0  0  0  0  0
  187.7800  177.0060  143.3010 C   0  0  0  0  0  0  0  0  0  0  0  0
  190.0050  176.7920  141.6090 C   0  0  0  0  0  3  0  0  0  0  0  0
  188.1230  177.5070  146.2020 C   0  0  0  0  0  3  0  0  0  0  0  0
  185.8220  179.0590  142.7780 C   0  0  2  0  0  3  0  0  0  0  0  0
  190.8020  174.9730  142.9260 F   0  0  0  0  0  0  0  0  0  0  0  0
  184.6620  178.9960  145.5620 C   0  0  0  0  0  2  0  0  0  0  0  0
  189.6110  177.7630  148.0820 O   0  0  0  0  0  1  0  0  0  0  0  0
  186.9280  178.8170  141.9080 O   0  0  0  0  0  0  0  0  0  0  0  0
  185.3930  177.7670  143.4920 C   0  0  2  0  0  3  0  0  0  0  0  0
  188.7520  176.0250  143.5330 C   0  0  0  0  0  3  0  0  0  0  0  0
  187.4810  178.8900  148.0770 C   0  0  0  0  0  3  0  0  0  0  0  0
  187.9190  177.8740  142.2000 C   0  0  0  0  0  0  0  0  0  0  0  0
  189.0320  177.7650  141.3620 C   0  0  0  0  0  3  0  0  0  0  0  0
  184.2470  178.0090  144.4740 C   0  0  0  0  0  2  0  0  0  0  0  0
  185.9670  178.6210  146.2020 C   0  0  0  0  0  0  0  0  0  0  0  0
  186.2660  179.1720  147.4520 C   0  0  0  0  0  3  0  0  0  0  0  0
  184.1430  177.5640  141.0300 O   0  0  0  0  0  0  0  0  0  0  0  0
  183.9030  178.7960  141.1560 C   0  0  0  0  0  0  0  0  0  0  0  0
  184.7120  179.6050  142.0110 N   0  0  0  0  0  2  0  0  0  0  0  0
  181.7620  177.8790  138.1590 N   0  0  0  0  0  0  0  0  0  0  0  0
  181.4930  178.5970  140.4900 C   0  0  0  0  0  2  0  0  0  0  0  0
  184.3590  180.3850  138.8400 O   0  0  0  0  0  1  0  0  0  0  0  0
  181.8040  176.6990  137.3160 C   0  0  0  0  0  1  0  0  0  0  0  0
  181.5540  177.4090  139.5270 C   0  0  0  0  0  2  0  0  0  0  0  0
  183.1140  179.7620  138.9400 C   0  0  2  0  0  3  0  0  0  0  0  0
  182.7710  179.4360  140.4040 C   0  0  2  0  0  3  0  0  0  0  0  0
  183.0820  178.5020  138.0770 C   0  0  0  0  0  2  0  0  0  0  0  0
  1  9  1  0  0  0  0
  1 14  1  0  0  0  0
  2  5  1  6  0  0  0
  2  3  1  0  0  0  0
  3 19  2  0  0  0  0
  3  7  1  0  0  0  0
  4 15  1  0  0  0  0
  4 11  1  0  0  0  0
  5 14  2  0  0  0  0
  6  1  2  0  0  0  0
  7  4  2  0  0  0  0
  8 23  1  6  0  0  0
  8 13  1  0  0  0  0
 10 19  1  0  0  0  0
 12 16  1  0  0  0  0
 12  8  1  0  0  0  0
 13  2  1  0  0  0  0
 13 18  1  1  0  0  0
 16  5  1  0  0  0  0
 17  6  1  0  0  0  0
 17 16  2  0  0  0  0
 18 10  1  0  0  0  0
 19 20  1  0  0  0  0
 20 15  2  0  0  0  0
 21 22  2  0  0  0  0
 22 23  1  0  0  0  0
 24 28  1  0  0  0  0
 27 24  1  0  0  0  0
 28 25  1  0  0  0  0
 29 26  1  1  0  0  0
 29 30  1  0  0  0  0
 30 25  1  0  0  0  0
 30 22  1  6  0  0  0
 31 24  1  0  0  0  0
 31 29  1  0  0  0  0
M  END
>  <MODEL>
2

>  <REMARK>
 VINA RESULT:      -9.6      2.945      3.542
  Name = 
  2 active torsions:
  status: ('A' for Active; 'I' for Inactive)
    1  A    between atoms: C_5  and  C_30
    2  A    between atoms: C_10  and  N_16
                            x       y       z     vdW  Elec       q    Type
                         _______ _______ _______ _____ _____    ______ ____

>  <TORSDO>
F 2

$$$$
=
 OpenBabel11122411143D

 31 35  0  0  1  0  0  0  0  0999 V2000
  190.0050  175.9710  142.7300 C   0  0  0  0  0  0  0  0  0  0  0  0
  186.4760  177.1920  143.4790 C   0  0  2  0  0  3  0  0  0  0  0  0
  186.5080  177.9120  144.8190 C   0  0  0  0  0  0  0  0  0  0  0  0
  187.5490  178.2320  146.9980 C   0  0  0  0  0  0  0  0  0  0  0  0
  187.8380  177.0570  142.8410 C   0  0  0  0  0  0  0  0  0  0  0  0
  190.3770  176.8130  141.6790 C   0  0  0  0  0  3  0  0  0  0  0  0
  187.5430  177.6460  145.7310 C   0  0  0  0  0  3  0  0  0  0  0  0
  186.0360  179.0770  141.8440 C   0  0  2  0  0  3  0  0  0  0  0  0
  190.8730  175.0400  143.1920 F   0  0  0  0  0  0  0  0  0  0  0  0
  184.3010  179.0860  144.3110 C   0  0  0  0  0  2  0  0  0  0  0  0
  188.5880  177.9700  147.8790 O   0  0  0  0  0  1  0  0  0  0  0  0
  187.3050  178.8190  141.2430 O   0  0  0  0  0  0  0  0  0  0  0  0
  185.4650  177.8030  142.4870 C   0  0  2  0  0  3  0  0  0  0  0  0
  188.7380  176.0910  143.3080 C   0  0  0  0  0  3  0  0  0  0  0  0
  186.5070  179.0780  147.3800 C   0  0  0  0  0  3  0  0  0  0  0  0
  188.2110  177.8940  141.7700 C   0  0  0  0  0  0  0  0  0  0  0  0
  189.4790  177.7690  141.1970 C   0  0  0  0  0  3  0  0  0  0  0  0
  184.1330  178.0640  143.1900 C   0  0  0  0  0  2  0  0  0  0  0  0
  185.4360  178.7410  145.2300 C   0  0  0  0  0  0  0  0  0  0  0  0
  185.4560  179.3320  146.4980 C   0  0  0  0  0  3  0  0  0  0  0  0
  185.3620  177.7590  139.4110 O   0  0  0  0  0  0  0  0  0  0  0  0
  184.8180  178.8740  139.6400 C   0  0  0  0  0  0  0  0  0  0  0  0
  185.1170  179.5910  140.8390 N   0  0  0  0  0  2  0  0  0  0  0  0
  181.1160  178.5010  138.8880 N   0  0  0  0  0  0  0  0  0  0  0  0
  182.7520  180.2690  139.3600 C   0  0  0  0  0  2  0  0  0  0  0  0
  184.2320  177.6000  137.1660 O   0  0  0  0  0  1  0  0  0  0  0  0
  180.1220  177.6540  139.5200 C   0  0  0  0  0  1  0  0  0  0  0  0
  181.6890  179.3350  139.9430 C   0  0  0  0  0  2  0  0  0  0  0  0
  183.2470  178.4390  137.6890 C   0  0  2  0  0  3  0  0  0  0  0  0
  183.8530  179.4710  138.6560 C   0  0  2  0  0  3  0  0  0  0  0  0
  182.1610  177.6150  138.3780 C   0  0  0  0  0  2  0  0  0  0  0  0
  1  9  1  0  0  0  0
  1 14  1  0  0  0  0
  2  5  1  6  0  0  0
  2  3  1  0  0  0  0
  3 19  2  0  0  0  0
  3  7  1  0  0  0  0
  4 15  1  0  0  0  0
  4 11  1  0  0  0  0
  5 14  2  0  0  0  0
  6  1  2  0  0  0  0
  7  4  2  0  0  0  0
  8 23  1  6  0  0  0
  8 13  1  0  0  0  0
 10 19  1  0  0  0  0
 12 16  1  0  0  0  0
 12  8  1  0  0  0  0
 13 18  1  1  0  0  0
 13  2  1  0  0  0  0
 16  5  1  0  0  0  0
 17  6  1  0  0  0  0
 17 16  2  0  0  0  0
 18 10  1  0  0  0  0
 19 20  1  0  0  0  0
 20 15  2  0  0  0  0
 21 22  2  0  0  0  0
 22 23  1  0  0  0  0
 24 27  1  0  0  0  0
 24 28  1  0  0  0  0
 25 28  1  0  0  0  0
 29 26  1  1  0  0  0
 29 31  1  0  0  0  0
 29 30  1  0  0  0  0
 30 25  1  0  0  0  0
 30 22  1  1  0  0  0
 31 24  1  0  0  0  0
M  END
>  <MODEL>
3

>  <REMARK>
 VINA RESULT:      -9.4      2.765      3.562
  Name = 
  2 active torsions:
  status: ('A' for Active; 'I' for Inactive)
    1  A    between atoms: C_5  and  C_30
    2  A    between atoms: C_10  and  N_16
                            x       y       z     vdW  Elec       q    Type
                         _______ _______ _______ _____ _____    ______ ____

>  <TORSDO>
F 2

$$$$
=
 OpenBabel11122411143D

 31 35  0  0  1  0  0  0  0  0999 V2000
  190.3980  176.9260  145.7650 C   0  0  0  0  0  0  0  0  0  0  0  0
  187.4910  177.2740  143.3280 C   0  0  2  0  0  3  0  0  0  0  0  0
  186.4120  178.1030  144.0100 C   0  0  0  0  0  0  0  0  0  0  0  0
  185.3540  178.8830  146.0600 C   0  0  0  0  0  0  0  0  0  0  0  0
  188.8530  177.4300  143.9630 C   0  0  0  0  0  0  0  0  0  0  0  0
  191.3680  177.7300  145.1620 C   0  0  0  0  0  3  0  0  0  0  0  0
  186.3820  178.1970  145.4110 C   0  0  0  0  0  3  0  0  0  0  0  0
  188.3080  178.8200  141.4960 C   0  0  2  0  0  3  0  0  0  0  0  0
  190.6710  176.2940  146.9320 F   0  0  0  0  0  0  0  0  0  0  0  0
  185.3110  178.6230  141.7670 C   0  0  0  0  0  2  0  0  0  0  0  0
  185.3510  178.9790  147.4450 O   0  0  0  0  0  1  0  0  0  0  0  0
  189.5940  178.8370  142.1170 O   0  0  0  0  0  0  0  0  0  0  0  0
  187.5670  177.5100  141.8070 C   0  0  2  0  0  3  0  0  0  0  0  0
  189.1450  176.7740  145.1660 C   0  0  0  0  0  3  0  0  0  0  0  0
  184.3290  179.4690  145.3180 C   0  0  0  0  0  3  0  0  0  0  0  0
  189.8390  178.2280  143.3510 C   0  0  0  0  0  0  0  0  0  0  0  0
  191.0900  178.3760  143.9550 C   0  0  0  0  0  3  0  0  0  0  0  0
  186.1630  177.4900  141.2020 C   0  0  0  0  0  2  0  0  0  0  0  0
  185.3460  178.6680  143.2670 C   0  0  0  0  0  0  0  0  0  0  0  0
  184.3260  179.3620  143.9260 C   0  0  0  0  0  3  0  0  0  0  0  0
  189.7730  177.0720  139.7900 O   0  0  0  0  0  0  0  0  0  0  0  0
  189.2060  178.0660  139.2580 C   0  0  0  0  0  0  0  0  0  0  0  0
  188.4610  178.9860  140.0580 N   0  0  0  0  0  2  0  0  0  0  0  0
  187.9500  176.3290  136.1260 N   0  0  0  0  0  0  0  0  0  0  0  0
  187.9360  178.5580  137.1510 C   0  0  0  0  0  2  0  0  0  0  0  0
  191.2350  176.8370  137.6880 O   0  0  0  0  0  1  0  0  0  0  0  0
  187.1600  175.1200  135.9890 C   0  0  0  0  0  1  0  0  0  0  0  0
  187.1740  177.2450  136.9580 C   0  0  0  0  0  2  0  0  0  0  0  0
  190.0560  177.1870  137.0290 C   0  0  2  0  0  3  0  0  0  0  0  0
  189.3100  178.3040  137.7790 C   0  0  2  0  0  3  0  0  0  0  0  0
  189.1650  175.9590  136.8500 C   0  0  0  0  0  2  0  0  0  0  0  0
  1  9  1  0  0  0  0
  2  5  1  1  0  0  0
  2  3  1  0  0  0  0
  3  7  1  0  0  0  0
  4 11  1  0  0  0  0
  5 14  2  0  0  0  0
  6  1  2  0  0  0  0
  7  4  2  0  0  0  0
  8 23  1  6  0  0  0
  8 13  1  0  0  0  0
  8 12  1  0  0  0  0
 10 19  1  0  0  0  0
 12 16  1  0  0  0  0
 13 18  1  1  0  0  0
 13  2  1  0  0  0  0
 14  1  1  0  0  0  0
 15  4  1  0  0  0  0
 16 17  2  0  0  0  0
 16  5  1  0  0  0  0
 17  6  1  0  0  0  0
 18 10  1  0  0  0  0
 19 20  1  0  0  0  0
 19  3  2  0  0  0  0
 20 15  2  0  0  0  0
 22 21  2  0  0  0  0
 22 23  1  0  0  0  0
 24 31  1  0  0  0  0
 24 28  1  0  0  0  0
 25 30  1  0  0  0  0
 27 24  1  0  0  0  0
 28 25  1  0  0  0  0
 29 26  1  1  0  0  0
 29 30  1  0  0  0  0
 30 22  1  1  0  0  0
 31 29  1  0  0  0  0
M  END
>  <MODEL>
4

>  <REMARK>
 VINA RESULT:      -8.4      1.410      1.743
  Name = 
  2 active torsions:
  status: ('A' for Active; 'I' for Inactive)
    1  A    between atoms: C_5  and  C_30
    2  A    between atoms: C_10  and  N_16
                            x       y       z     vdW  Elec       q    Type
                         _______ _______ _______ _____ _____    ______ ____

>  <TORSDO>
F 2

$$$$
=
 OpenBabel11122411143D

 31 35  0  0  1  0  0  0  0  0999 V2000
  189.5150  176.4710  142.1300 C   0  0  0  0  0  0  0  0  0  0  0  0
  186.6250  177.1200  144.5240 C   0  0  2  0  0  3  0  0  0  0  0  0
  187.2100  177.6620  145.8210 C   0  0  0  0  0  0  0  0  0  0  0  0
  189.0920  177.8330  147.3570 C   0  0  0  0  0  0  0  0  0  0  0  0
  187.5640  177.2450  143.3480 C   0  0  0  0  0  0  0  0  0  0  0  0
  189.3280  177.4800  141.1820 C   0  0  0  0  0  3  0  0  0  0  0  0
  188.5560  177.4170  146.1370 C   0  0  0  0  0  3  0  0  0  0  0  0
  185.3910  179.1250  143.5890 C   0  0  2  0  0  3  0  0  0  0  0  0
  190.5520  175.6080  142.0040 F   0  0  0  0  0  0  0  0  0  0  0  0
  184.9420  178.5960  146.5240 C   0  0  0  0  0  2  0  0  0  0  0  0
  190.4290  177.5970  147.6440 O   0  0  0  0  0  1  0  0  0  0  0  0
  186.2700  179.1110  142.4640 O   0  0  0  0  0  0  0  0  0  0  0  0
  185.2440  177.7160  144.1870 C   0  0  2  0  0  3  0  0  0  0  0  0
  188.6340  176.3520  143.2080 C   0  0  0  0  0  3  0  0  0  0  0  0
  188.2820  178.4820  148.2890 C   0  0  0  0  0  3  0  0  0  0  0  0
  187.3700  178.2510  142.3820 C   0  0  0  0  0  0  0  0  0  0  0  0
  188.2540  178.3660  141.3070 C   0  0  0  0  0  3  0  0  0  0  0  0
  184.3530  177.7110  145.4280 C   0  0  0  0  0  2  0  0  0  0  0  0
  186.3860  178.2860  146.7890 C   0  0  0  0  0  0  0  0  0  0  0  0
  186.9340  178.7080  148.0050 C   0  0  0  0  0  3  0  0  0  0  0  0
  183.6380  177.8700  141.7290 O   0  0  0  0  0  0  0  0  0  0  0  0
  183.2570  178.9550  142.2470 C   0  0  0  0  0  0  0  0  0  0  0  0
  184.0910  179.6400  143.1830 N   0  0  0  0  0  2  0  0  0  0  0  0
  179.8800  177.6110  141.1530 N   0  0  0  0  0  0  0  0  0  0  0  0
  180.8270  179.1020  142.8560 C   0  0  0  0  0  2  0  0  0  0  0  0
  182.5650  179.5370  139.5500 O   0  0  0  0  0  1  0  0  0  0  0  0
  179.4550  176.2410  140.9300 C   0  0  0  0  0  1  0  0  0  0  0  0
  180.3600  177.6820  142.5310 C   0  0  0  0  0  2  0  0  0  0  0  0
  181.5110  179.2840  140.4290 C   0  0  2  0  0  3  0  0  0  0  0  0
  181.9260  179.5500  141.8860 C   0  0  2  0  0  3  0  0  0  0  0  0
  181.0080  177.8520  140.2550 C   0  0  0  0  0  2  0  0  0  0  0  0
  1 14  1  0  0  0  0
  2  5  1  6  0  0  0
  2  3  1  0  0  0  0
  3  7  2  0  0  0  0
  3 19  1  0  0  0  0
  4 11  1  0  0  0  0
  4 15  2  0  0  0  0
  6 17  1  0  0  0  0
  6  1  2  0  0  0  0
  7  4  1  0  0  0  0
  8 23  1  6  0  0  0
  8 13  1  0  0  0  0
  9  1  1  0  0  0  0
 10 19  1  0  0  0  0
 12  8  1  0  0  0  0
 13  2  1  0  0  0  0
 13 18  1  1  0  0  0
 14  5  2  0  0  0  0
 16 12  1  0  0  0  0
 16  5  1  0  0  0  0
 17 16  2  0  0  0  0
 18 10  1  0  0  0  0
 19 20  2  0  0  0  0
 20 15  1  0  0  0  0
 21 22  2  0  0  0  0
 22 23  1  0  0  0  0
 24 28  1  0  0  0  0
 27 24  1  0  0  0  0
 28 25  1  0  0  0  0
 29 26  1  6  0  0  0
 29 30  1  0  0  0  0
 30 22  1  1  0  0  0
 30 25  1  0  0  0  0
 31 29  1  0  0  0  0
 31 24  1  0  0  0  0
M  END
>  <MODEL>
5

>  <REMARK>
 VINA RESULT:      -8.3      3.355      4.921
  Name = 
  2 active torsions:
  status: ('A' for Active; 'I' for Inactive)
    1  A    between atoms: C_5  and  C_30
    2  A    between atoms: C_10  and  N_16
                            x       y       z     vdW  Elec       q    Type
                         _______ _______ _______ _____ _____    ______ ____

>  <TORSDO>
F 2

$$$$
=
 OpenBabel11122411143D

 31 35  0  0  1  0  0  0  0  0999 V2000
  184.9100  178.9030  144.7280 C   0  0  0  0  0  0  0  0  0  0  0  0
  188.6720  178.6380  144.1880 C   0  0  2  0  0  3  0  0  0  0  0  0
  189.2300  177.7130  145.2600 C   0  0  0  0  0  0  0  0  0  0  0  0
  189.0390  176.7240  147.4780 C   0  0  0  0  0  0  0  0  0  0  0  0
  187.1830  178.4860  143.9850 C   0  0  0  0  0  0  0  0  0  0  0  0
  184.4180  178.1920  143.6310 C   0  0  0  0  0  3  0  0  0  0  0  0
  188.5090  177.5030  146.4470 C   0  0  0  0  0  3  0  0  0  0  0  0
  188.9720  177.2830  142.0700 C   0  0  2  0  0  3  0  0  0  0  0  0
  184.0520  179.4470  145.6230 F   0  0  0  0  0  0  0  0  0  0  0  0
  191.3610  177.3350  143.9090 C   0  0  0  0  0  2  0  0  0  0  0  0
  188.3060  176.5140  148.6370 O   0  0  0  0  0  1  0  0  0  0  0  0
  187.5530  177.2670  141.9080 O   0  0  0  0  0  0  0  0  0  0  0  0
  189.4210  178.5320  142.8450 C   0  0  2  0  0  3  0  0  0  0  0  0
  186.2890  179.0520  144.9030 C   0  0  0  0  0  3  0  0  0  0  0  0
  190.3080  176.1600  147.3440 C   0  0  0  0  0  3  0  0  0  0  0  0
  186.6820  177.7830  142.8720 C   0  0  0  0  0  0  0  0  0  0  0  0
  185.3030  177.6360  142.7030 C   0  0  0  0  0  3  0  0  0  0  0  0
  190.9300  178.5450  143.0840 C   0  0  0  0  0  2  0  0  0  0  0  0
  190.5320  177.1690  145.1490 C   0  0  0  0  0  0  0  0  0  0  0  0
  191.0510  176.3810  146.1830 C   0  0  0  0  0  3  0  0  0  0  0  0
  188.0300  178.6280  139.7430 O   0  0  0  0  0  0  0  0  0  0  0  0
  189.0880  177.9480  139.6350 C   0  0  0  0  0  0  0  0  0  0  0  0
  189.6100  177.2430  140.7620 N   0  0  0  0  0  2  0  0  0  0  0  0
  188.2930  176.6160  136.1710 N   0  0  0  0  0  0  0  0  0  0  0  0
  189.1020  178.6740  137.2340 C   0  0  0  0  0  2  0  0  0  0  0  0
  190.5550  175.6280  138.8910 O   0  0  0  0  0  1  0  0  0  0  0  0
  187.0900  175.9700  135.6790 C   0  0  0  0  0  1  0  0  0  0  0  0
  187.8860  177.9180  136.6940 C   0  0  0  0  0  2  0  0  0  0  0  0
  190.0590  176.4180  137.8520 C   0  0  2  0  0  3  0  0  0  0  0  0
  189.8110  177.8610  138.3220 C   0  0  2  0  0  3  0  0  0  0  0  0
  188.7830  175.8010  137.2820 C   0  0  0  0  0  2  0  0  0  0  0  0
  1 14  1  0  0  0  0
  1  9  1  0  0  0  0
  2  5  1  6  0  0  0
  2  3  1  0  0  0  0
  3  7  1  0  0  0  0
  4 11  1  0  0  0  0
  5 14  2  0  0  0  0
  6  1  2  0  0  0  0
  7  4  2  0  0  0  0
  8 23  1  6  0  0  0
  8 13  1  0  0  0  0
 10 19  1  0  0  0  0
 12  8  1  0  0  0  0
 12 16  1  0  0  0  0
 13 18  1  1  0  0  0
 13  2  1  0  0  0  0
 15  4  1  0  0  0  0
 16  5  1  0  0  0  0
 17 16  2  0  0  0  0
 17  6  1  0  0  0  0
 18 10  1  0  0  0  0
 19  3  2  0  0  0  0
 19 20  1  0  0  0  0
 20 15  2  0  0  0  0
 22 21  2  0  0  0  0
 22 23  1  0  0  0  0
 24 28  1  0  0  0  0
 24 31  1  0  0  0  0
 25 30  1  0  0  0  0
 27 24  1  0  0  0  0
 28 25  1  0  0  0  0
 29 30  1  0  0  0  0
 29 26  1  1  0  0  0
 30 22  1  1  0  0  0
 31 29  1  0  0  0  0
M  END
>  <MODEL>
6

>  <REMARK>
 VINA RESULT:      -8.0      2.226      4.141
  Name = 
  2 active torsions:
  status: ('A' for Active; 'I' for Inactive)
    1  A    between atoms: C_5  and  C_30
    2  A    between atoms: C_10  and  N_16
                            x       y       z     vdW  Elec       q    Type
                         _______ _______ _______ _____ _____    ______ ____

>  <TORSDO>
F 2

$$$$
=
 OpenBabel11122411143D

 31 35  0  0  1  0  0  0  0  0999 V2000
  184.0720  178.7060  144.1630 C   0  0  0  0  0  0  0  0  0  0  0  0
  182.8040  178.0820  140.6260 C   0  0  2  0  0  3  0  0  0  0  0  0
  181.6080  178.9940  140.3940 C   0  0  0  0  0  0  0  0  0  0  0  0
  179.7460  180.2750  141.3020 C   0  0  0  0  0  0  0  0  0  0  0  0
  183.6780  178.5240  141.7760 C   0  0  0  0  0  0  0  0  0  0  0  0
  185.2810  179.3610  143.9170 C   0  0  0  0  0  3  0  0  0  0  0  0
  180.8940  179.5040  141.4910 C   0  0  0  0  0  3  0  0  0  0  0  0
  184.5580  179.0580  139.0820 C   0  0  2  0  0  3  0  0  0  0  0  0
  183.6710  178.4800  145.4370 F   0  0  0  0  0  0  0  0  0  0  0  0
  181.8180  178.7270  137.8660 C   0  0  0  0  0  2  0  0  0  0  0  0
  179.0640  180.7850  142.3980 O   0  0  0  0  0  1  0  0  0  0  0  0
  185.3610  179.3590  140.2230 O   0  0  0  0  0  0  0  0  0  0  0  0
  183.6460  177.8510  139.3560 C   0  0  2  0  0  3  0  0  0  0  0  0
  183.2740  178.2860  143.0960 C   0  0  0  0  0  3  0  0  0  0  0  0
  179.2820  180.5300  140.0110 C   0  0  0  0  0  3  0  0  0  0  0  0
  184.9050  179.1710  141.5320 C   0  0  0  0  0  0  0  0  0  0  0  0
  185.6980  179.5890  142.6030 C   0  0  0  0  0  3  0  0  0  0  0  0
  182.7320  177.5430  138.1700 C   0  0  0  0  0  2  0  0  0  0  0  0
  181.1070  179.2250  139.0900 C   0  0  0  0  0  0  0  0  0  0  0  0
  179.9610  180.0070  138.9100 C   0  0  0  0  0  3  0  0  0  0  0  0
  187.1710  177.9340  139.2230 O   0  0  0  0  0  0  0  0  0  0  0  0
  186.7200  178.2190  138.0790 C   0  0  0  0  0  0  0  0  0  0  0  0
  185.4190  178.7920  137.9390 N   0  0  0  0  0  2  0  0  0  0  0  0
  189.8830  176.2860  137.2660 N   0  0  0  0  0  0  0  0  0  0  0  0
  187.5670  176.4820  136.4800 C   0  0  0  0  0  2  0  0  0  0  0  0
  188.9670  179.8390  137.4330 O   0  0  0  0  0  1  0  0  0  0  0  0
  190.7420  175.5040  138.1360 C   0  0  0  0  0  1  0  0  0  0  0  0
  188.5430  175.7140  137.3740 C   0  0  0  0  0  2  0  0  0  0  0  0
  188.9710  178.5330  136.9410 C   0  0  2  0  0  3  0  0  0  0  0  0
  187.5430  177.9680  136.8490 C   0  0  2  0  0  3  0  0  0  0  0  0
  189.8560  177.6420  137.8120 C   0  0  0  0  0  2  0  0  0  0  0  0
  1  9  1  0  0  0  0
  2  3  1  6  0  0  0
  2  5  1  0  0  0  0
  3  7  1  0  0  0  0
  4  7  2  0  0  0  0
  4 11  1  0  0  0  0
  5 14  1  0  0  0  0
  6  1  1  0  0  0  0
  8 23  1  6  0  0  0
  8 13  1  0  0  0  0
  8 12  1  0  0  0  0
 10 18  1  0  0  0  0
 10 19  1  0  0  0  0
 12 16  1  0  0  0  0
 13 18  1  6  0  0  0
 13  2  1  0  0  0  0
 14  1  2  0  0  0  0
 15  4  1  0  0  0  0
 16  5  2  0  0  0  0
 16 17  1  0  0  0  0
 17  6  2  0  0  0  0
 19  3  2  0  0  0  0
 20 19  1  0  0  0  0
 20 15  2  0  0  0  0
 22 21  2  0  0  0  0
 23 22  1  0  0  0  0
 24 28  1  0  0  0  0
 24 31  1  0  0  0  0
 24 27  1  0  0  0  0
 25 30  1  0  0  0  0
 25 28  1  0  0  0  0
 29 26  1  1  0  0  0
 29 31  1  0  0  0  0
 30 29  1  0  0  0  0
 30 22  1  1  0  0  0
M  END
>  <MODEL>
7

>  <REMARK>
 VINA RESULT:      -7.9      4.089      5.981
  Name = 
  2 active torsions:
  status: ('A' for Active; 'I' for Inactive)
    1  A    between atoms: C_5  and  C_30
    2  A    between atoms: C_10  and  N_16
                            x       y       z     vdW  Elec       q    Type
                         _______ _______ _______ _____ _____    ______ ____

>  <TORSDO>
F 2

$$$$
=
 OpenBabel11122411143D

 31 35  0  0  1  0  0  0  0  0999 V2000
  190.5560  176.7720  139.9460 C   0  0  0  0  0  0  0  0  0  0  0  0
  187.8850  176.9560  142.6550 C   0  0  2  0  0  3  0  0  0  0  0  0
  188.5580  177.4170  143.9400 C   0  0  0  0  0  0  0  0  0  0  0  0
  190.5700  177.5930  145.3020 C   0  0  0  0  0  0  0  0  0  0  0  0
  188.6890  177.2670  141.4150 C   0  0  0  0  0  0  0  0  0  0  0  0
  190.2020  177.8490  139.1280 C   0  0  0  0  0  3  0  0  0  0  0  0
  189.9440  177.2530  144.1010 C   0  0  0  0  0  3  0  0  0  0  0  0
  186.4230  178.9330  142.0510 C   0  0  2  0  0  3  0  0  0  0  0  0
  191.6330  176.0120  139.6360 F   0  0  0  0  0  0  0  0  0  0  0  0
  186.3130  178.0930  144.9450 C   0  0  0  0  0  2  0  0  0  0  0  0
  191.9430  177.4400  145.4360 O   0  0  0  0  0  1  0  0  0  0  0  0
  187.1830  179.0980  140.8530 O   0  0  0  0  0  0  0  0  0  0  0  0
  186.4380  177.4670  142.5120 C   0  0  2  0  0  3  0  0  0  0  0  0
  189.8000  176.4800  141.0840 C   0  0  0  0  0  3  0  0  0  0  0  0
  189.8150  178.0840  146.3670 C   0  0  0  0  0  3  0  0  0  0  0  0
  188.3260  178.3420  140.5800 C   0  0  0  0  0  0  0  0  0  0  0  0
  189.0870  178.6290  139.4430 C   0  0  0  0  0  3  0  0  0  0  0  0
  185.6800  177.2730  143.8250 C   0  0  0  0  0  2  0  0  0  0  0  0
  187.7950  177.8780  145.0400 C   0  0  0  0  0  0  0  0  0  0  0  0
  188.4330  178.2260  146.2360 C   0  0  0  0  0  3  0  0  0  0  0  0
  184.7590  178.0870  139.9000 O   0  0  0  0  0  0  0  0  0  0  0  0
  184.2720  178.9070  140.7250 C   0  0  0  0  0  0  0  0  0  0  0  0
  185.0550  179.3780  141.8230 N   0  0  0  0  0  2  0  0  0  0  0  0
  181.2640  177.9560  138.6150 N   0  0  0  0  0  0  0  0  0  0  0  0
  181.8390  178.3470  140.9680 C   0  0  0  0  0  2  0  0  0  0  0  0
  183.5840  180.8020  138.7180 O   0  0  0  0  0  1  0  0  0  0  0  0
  181.1210  176.9060  137.6240 C   0  0  0  0  0  1  0  0  0  0  0  0
  181.6680  177.3060  139.8600 C   0  0  0  0  0  2  0  0  0  0  0  0
  182.5650  179.9550  139.1590 C   0  0  2  0  0  3  0  0  0  0  0  0
  182.8650  179.4090  140.5650 C   0  0  2  0  0  3  0  0  0  0  0  0
  182.3570  178.8150  138.1630 C   0  0  0  0  0  2  0  0  0  0  0  0
  1 14  1  0  0  0  0
  2  5  1  6  0  0  0
  2  3  1  0  0  0  0
  3  7  2  0  0  0  0
  3 19  1  0  0  0  0
  4 11  1  0  0  0  0
  4 15  2  0  0  0  0
  6 17  1  0  0  0  0
  6  1  2  0  0  0  0
  7  4  1  0  0  0  0
  8 23  1  6  0  0  0
  8 13  1  0  0  0  0
  9  1  1  0  0  0  0
 10 19  1  0  0  0  0
 12  8  1  0  0  0  0
 13  2  1  0  0  0  0
 13 18  1  1  0  0  0
 14  5  2  0  0  0  0
 16 12  1  0  0  0  0
 16  5  1  0  0  0  0
 17 16  2  0  0  0  0
 18 10  1  0  0  0  0
 19 20  2  0  0  0  0
 20 15  1  0  0  0  0
 21 22  2  0  0  0  0
 22 23  1  0  0  0  0
 24 28  1  0  0  0  0
 27 24  1  0  0  0  0
 28 25  1  0  0  0  0
 29 26  1  6  0  0  0
 29 30  1  0  0  0  0
 30 22  1  6  0  0  0
 30 25  1  0  0  0  0
 31 24  1  0  0  0  0
 31 29  1  0  0  0  0
M  END
>  <MODEL>
8

>  <REMARK>
 VINA RESULT:      -7.7      3.211      4.302
  Name = 
  2 active torsions:
  status: ('A' for Active; 'I' for Inactive)
    1  A    between atoms: C_5  and  C_30
    2  A    between atoms: C_10  and  N_16
                            x       y       z     vdW  Elec       q    Type
                         _______ _______ _______ _____ _____    ______ ____

>  <TORSDO>
F 2

$$$$
=
 OpenBabel11122411143D

 31 35  0  0  1  0  0  0  0  0999 V2000
  186.4200  178.2770  146.6990 C   0  0  0  0  0  0  0  0  0  0  0  0
  189.6550  178.2530  144.6900 C   0  0  2  0  0  3  0  0  0  0  0  0
  190.5040  177.0930  145.1910 C   0  0  0  0  0  0  0  0  0  0  0  0
  191.0970  175.5560  146.9850 C   0  0  0  0  0  0  0  0  0  0  0  0
  188.1950  178.1230  145.0520 C   0  0  0  0  0  0  0  0  0  0  0  0
  185.4910  177.8650  145.7410 C   0  0  0  0  0  3  0  0  0  0  0  0
  190.2780  176.5630  146.4720 C   0  0  0  0  0  3  0  0  0  0  0  0
  189.0130  177.5060  142.3560 C   0  0  2  0  0  3  0  0  0  0  0  0
  186.0150  178.5470  147.9630 F   0  0  0  0  0  0  0  0  0  0  0  0
  191.9200  177.1330  143.0690 C   0  0  0  0  0  2  0  0  0  0  0  0
  190.8470  175.0330  148.2460 O   0  0  0  0  0  1  0  0  0  0  0  0
  187.6440  177.4980  142.7610 O   0  0  0  0  0  0  0  0  0  0  0  0
  189.8240  178.5190  143.1800 C   0  0  2  0  0  3  0  0  0  0  0  0
  187.7680  178.4080  146.3550 C   0  0  0  0  0  3  0  0  0  0  0  0
  192.1680  175.0770  146.2310 C   0  0  0  0  0  3  0  0  0  0  0  0
  187.2520  177.7230  144.0850 C   0  0  0  0  0  0  0  0  0  0  0  0
  185.9060  177.5920  144.4350 C   0  0  0  0  0  3  0  0  0  0  0  0
  191.3060  178.5050  142.8070 C   0  0  0  0  0  2  0  0  0  0  0  0
  191.6180  176.6290  144.4500 C   0  0  0  0  0  0  0  0  0  0  0  0
  192.4270  175.6110  144.9680 C   0  0  0  0  0  3  0  0  0  0  0  0
  190.4660  176.0030  140.4220 O   0  0  0  0  0  0  0  0  0  0  0  0
  189.8410  177.0220  140.0190 C   0  0  0  0  0  0  0  0  0  0  0  0
  189.0990  177.8240  140.9380 N   0  0  0  0  0  2  0  0  0  0  0  0
  187.3130  177.2190  137.1940 N   0  0  0  0  0  0  0  0  0  0  0  0
  188.9870  178.6350  138.2970 C   0  0  0  0  0  2  0  0  0  0  0  0
  190.2110  175.0960  137.9580 O   0  0  0  0  0  1  0  0  0  0  0  0
  185.8980  176.8980  137.1920 C   0  0  0  0  0  1  0  0  0  0  0  0
  187.5120  178.2320  138.2280 C   0  0  0  0  0  2  0  0  0  0  0  0
  189.5250  176.2620  137.6130 C   0  0  2  0  0  3  0  0  0  0  0  0
  189.8730  177.4150  138.5690 C   0  0  2  0  0  3  0  0  0  0  0  0
  188.0190  176.0030  137.5940 C   0  0  0  0  0  2  0  0  0  0  0  0
  1  9  1  0  0  0  0
  2  5  1  6  0  0  0
  2  3  1  0  0  0  0
  3  7  1  0  0  0  0
  4 11  1  0  0  0  0
  5 14  2  0  0  0  0
  6  1  2  0  0  0  0
  7  4  2  0  0  0  0
  8 23  1  6  0  0  0
  8 12  1  0  0  0  0
  8 13  1  0  0  0  0
 10 19  1  0  0  0  0
 12 16  1  0  0  0  0
 13 18  1  6  0  0  0
 13  2  1  0  0  0  0
 14  1  1  0  0  0  0
 15  4  1  0  0  0  0
 16 17  2  0  0  0  0
 16  5  1  0  0  0  0
 17  6  1  0  0  0  0
 18 10  1  0  0  0  0
 19 20  1  0  0  0  0
 19  3  2  0  0  0  0
 20 15  2  0  0  0  0
 22 21  2  0  0  0  0
 22 23  1  0  0  0  0
 24 31  1  0  0  0  0
 24 28  1  0  0  0  0
 25 30  1  0  0  0  0
 27 24  1  0  0  0  0
 28 25  1  0  0  0  0
 29 26  1  1  0  0  0
 29 30  1  0  0  0  0
 30 22  1  1  0  0  0
 31 29  1  0  0  0  0
M  END
>  <MODEL>
9

>  <REMARK>
 VINA RESULT:      -7.3      2.205      4.440
  Name = 
  2 active torsions:
  status: ('A' for Active; 'I' for Inactive)
    1  A    between atoms: C_5  and  C_30
    2  A    between atoms: C_10  and  N_16
                            x       y       z     vdW  Elec       q    Type
                         _______ _______ _______ _____ _____    ______ ____

>  <TORSDO>
F 2

$$$$
