=
 OpenBabel11122411503D

 28 32  0  0  1  0  0  0  0  0999 V2000
  191.0210  175.4190  136.8090 C   0  0  0  0  0  0  0  0  0  0  0  0
  187.4680  177.6810  135.6870 O   0  0  0  0  0  0  0  0  0  0  0  0
  190.4260  175.9110  142.6080 C   0  0  0  0  0  1  0  0  0  0  0  0
  189.4670  173.1180  136.4390 C   0  0  0  0  0  3  0  0  0  0  0  0
  189.1590  177.8960  141.5210 C   0  0  1  0  0  3  0  0  0  0  0  0
  191.9380  176.5630  137.0550 C   0  0  0  0  0  2  0  0  0  0  0  0
  186.6210  175.4710  136.3760 O   0  0  0  0  0  0  0  0  0  0  0  0
  186.9100  176.8740  136.8250 S   0  0  0  0  0  0  0  0  0  0  0  0
  185.6960  178.8020  138.3510 C   0  0  1  0  0  3  0  0  0  0  0  0
  188.0020  176.9110  138.1950 C   0  0  0  0  0  0  0  0  0  0  0  0
  193.9650  176.6980  140.1820 O   0  0  0  0  0  1  0  0  0  0  0  0
  189.6450  176.7050  139.5480 C   0  0  0  0  0  0  0  0  0  0  0  0
  186.5050  178.4100  139.5060 N   0  0  0  0  0  2  0  0  0  0  0  0
  185.3960  177.6150  137.4260 C   0  0  0  0  0  2  0  0  0  0  0  0
  193.1680  177.2020  139.1540 C   0  0  2  0  0  3  0  0  0  0  0  0
  189.7760  175.3030  137.4670 C   0  0  0  0  0  0  0  0  0  0  0  0
  190.5110  177.1220  141.6850 C   0  0  2  0  0  3  0  0  0  0  0  0
  184.3980  179.4190  138.8260 C   0  0  0  0  0  1  0  0  0  0  0  0
  191.8550  177.7330  139.7200 C   0  0  0  0  0  2  0  0  0  0  0  0
  189.0170  174.1380  137.2770 C   0  0  0  0  0  3  0  0  0  0  0  0
  191.4630  174.3890  135.9690 C   0  0  0  0  0  3  0  0  0  0  0  0
  190.6870  173.2450  135.7780 C   0  0  0  0  0  3  0  0  0  0  0  0
  192.9590  176.1310  138.0970 C   0  0  0  0  0  2  0  0  0  0  0  0
  188.7210  177.4280  140.1970 C   0  0  0  0  0  0  0  0  0  0  0  0
  190.9390  176.6420  140.2740 C   0  0  2  0  0  3  0  0  0  0  0  0
  187.6770  177.6130  139.3340 C   0  0  0  0  0  0  0  0  0  0  0  0
  188.1120  177.5940  142.5870 C   0  0  0  0  0  1  0  0  0  0  0  0
  189.2390  176.3490  138.3010 N   0  0  0  0  0  0  0  0  0  0  0  0
  1  6  1  0  0  0  0
  1 16  1  0  0  0  0
  2  8  2  0  0  0  0
  4 20  1  0  0  0  0
  5 17  1  0  0  0  0
  5 27  1  1  0  0  0
  6 23  1  0  0  0  0
  7  8  2  0  0  0  0
  8 14  1  0  0  0  0
  8 10  1  0  0  0  0
  9 18  1  1  0  0  0
  9 13  1  0  0  0  0
 10 28  1  0  0  0  0
 10 26  2  0  0  0  0
 12 24  2  0  0  0  0
 12 25  1  0  0  0  0
 14  9  1  0  0  0  0
 15 19  1  0  0  0  0
 15 11  1  1  0  0  0
 16 28  1  0  0  0  0
 17  3  1  1  0  0  0
 20 16  2  0  0  0  0
 21  1  2  0  0  0  0
 22 21  1  0  0  0  0
 22  4  2  0  0  0  0
 23 15  1  0  0  0  0
 24  5  1  0  0  0  0
 25 19  1  6  0  0  0
 25 17  1  0  0  0  0
 26 13  1  0  0  0  0
 26 24  1  0  0  0  0
 28 12  1  0  0  0  0
M  END
>  <MODEL>
1

>  <REMARK>
 VINA RESULT:      -6.2      0.000      0.000
  Name = 
  0 active torsions:
  status: ('A' for Active; 'I' for Inactive)
                            x       y       z     vdW  Elec       q    Type
                         _______ _______ _______ _____ _____    ______ ____

>  <TORSDO>
F 0

$$$$
=
 OpenBabel11122411503D

 28 32  0  0  1  0  0  0  0  0999 V2000
  187.4570  174.4270  135.3180 C   0  0  0  0  0  0  0  0  0  0  0  0
  183.8820  176.8920  135.7010 O   0  0  0  0  0  0  0  0  0  0  0  0
  190.3920  176.6500  139.8650 C   0  0  0  0  0  1  0  0  0  0  0  0
  186.0310  172.4430  136.6910 C   0  0  0  0  0  3  0  0  0  0  0  0
  188.6870  178.4420  139.0830 C   0  0  1  0  0  3  0  0  0  0  0  0
  188.3170  175.4040  134.6020 C   0  0  0  0  0  2  0  0  0  0  0  0
  183.6500  175.1640  137.4450 O   0  0  0  0  0  0  0  0  0  0  0  0
  184.1200  176.5590  137.1470 S   0  0  0  0  0  0  0  0  0  0  0  0
  184.0020  179.0300  138.3280 C   0  0  1  0  0  3  0  0  0  0  0  0
  185.8090  176.7820  137.5550 C   0  0  0  0  0  0  0  0  0  0  0  0
  191.7970  176.0470  135.7790 O   0  0  0  0  0  1  0  0  0  0  0  0
  187.9380  176.6700  137.7230 C   0  0  0  0  0  0  0  0  0  0  0  0
  185.3460  178.8410  138.8790 N   0  0  0  0  0  2  0  0  0  0  0  0
  183.2390  177.7060  138.2000 C   0  0  0  0  0  2  0  0  0  0  0  0
  190.5370  176.3750  135.2790 C   0  0  2  0  0  3  0  0  0  0  0  0
  186.8430  174.7350  136.5530 C   0  0  0  0  0  0  0  0  0  0  0  0
  189.8900  177.5110  138.7100 C   0  0  2  0  0  3  0  0  0  0  0  0
  183.2240  179.9850  139.2070 C   0  0  0  0  0  1  0  0  0  0  0  0
  189.8010  177.2780  136.2650 C   0  0  0  0  0  2  0  0  0  0  0  0
  186.1430  173.7250  137.2300 C   0  0  0  0  0  3  0  0  0  0  0  0
  187.3380  173.1370  134.7840 C   0  0  0  0  0  3  0  0  0  0  0  0
  186.6230  172.1500  135.4630 C   0  0  0  0  0  3  0  0  0  0  0  0
  189.7650  175.1060  134.9610 C   0  0  0  0  0  2  0  0  0  0  0  0
  187.5610  177.7060  138.4880 C   0  0  0  0  0  0  0  0  0  0  0  0
  189.4120  176.5790  137.5670 C   0  0  2  0  0  3  0  0  0  0  0  0
  186.2050  177.8260  138.3600 C   0  0  0  0  0  0  0  0  0  0  0  0
  188.4780  178.6540  140.5780 C   0  0  0  0  0  1  0  0  0  0  0  0
  186.8810  176.0550  137.1310 N   0  0  0  0  0  0  0  0  0  0  0  0
  1 16  1  0  0  0  0
  2  8  2  0  0  0  0
  4 20  1  0  0  0  0
  5 27  1  1  0  0  0
  6 23  1  0  0  0  0
  6  1  1  0  0  0  0
  8  7  2  0  0  0  0
  8 10  1  0  0  0  0
  8 14  1  0  0  0  0
  9 13  1  0  0  0  0
  9 18  1  1  0  0  0
 10 26  2  0  0  0  0
 12 24  2  0  0  0  0
 14  9  1  0  0  0  0
 15 11  1  1  0  0  0
 15 19  1  0  0  0  0
 16 28  1  0  0  0  0
 16 20  2  0  0  0  0
 17  5  1  0  0  0  0
 17  3  1  1  0  0  0
 21  1  2  0  0  0  0
 21 22  1  0  0  0  0
 22  4  2  0  0  0  0
 23 15  1  0  0  0  0
 24  5  1  0  0  0  0
 25 19  1  6  0  0  0
 25 12  1  0  0  0  0
 25 17  1  0  0  0  0
 26 24  1  0  0  0  0
 26 13  1  0  0  0  0
 28 10  1  0  0  0  0
 28 12  1  0  0  0  0
M  END
>  <MODEL>
2

>  <REMARK>
 VINA RESULT:      -6.1      2.298      3.260
  Name = 
  0 active torsions:
  status: ('A' for Active; 'I' for Inactive)
                            x       y       z     vdW  Elec       q    Type
                         _______ _______ _______ _____ _____    ______ ____

>  <TORSDO>
F 0

$$$$
=
 OpenBabel11122411503D

 28 32  0  0  1  0  0  0  0  0999 V2000
  183.0510  177.8610  137.1000 C   0  0  0  0  0  0  0  0  0  0  0  0
  187.1700  179.2680  136.8630 O   0  0  0  0  0  0  0  0  0  0  0  0
  184.2220  172.1310  137.2370 C   0  0  0  0  0  1  0  0  0  0  0  0
  183.2130  178.3700  139.8510 C   0  0  0  0  0  3  0  0  0  0  0  0
  186.2320  173.3130  136.1010 C   0  0  1  0  0  3  0  0  0  0  0  0
  182.8510  177.5350  135.6640 C   0  0  0  0  0  2  0  0  0  0  0  0
  186.8420  178.6630  139.2310 O   0  0  0  0  0  0  0  0  0  0  0  0
  187.3280  178.1850  137.8920 S   0  0  0  0  0  0  0  0  0  0  0  0
  189.4490  176.7590  136.8990 C   0  0  1  0  0  3  0  0  0  0  0  0
  186.5010  176.7280  137.3780 C   0  0  0  0  0  0  0  0  0  0  0  0
  181.3910  174.2470  134.6800 O   0  0  0  0  0  1  0  0  0  0  0  0
  185.0760  175.2430  136.7990 C   0  0  0  0  0  0  0  0  0  0  0  0
  188.6360  175.5410  136.8880 N   0  0  0  0  0  2  0  0  0  0  0  0
  189.0480  177.7110  138.0330 C   0  0  0  0  0  2  0  0  0  0  0  0
  182.2580  175.3370  134.5940 C   0  0  2  0  0  3  0  0  0  0  0  0
  184.1140  177.3110  137.8510 C   0  0  0  0  0  0  0  0  0  0  0  0
  184.6900  173.0380  136.1040 C   0  0  2  0  0  3  0  0  0  0  0  0
  190.9110  176.3920  137.0340 C   0  0  0  0  0  1  0  0  0  0  0  0
  183.6970  174.8800  134.8150 C   0  0  0  0  0  2  0  0  0  0  0  0
  184.1720  177.5690  139.2300 C   0  0  0  0  0  3  0  0  0  0  0  0
  182.0950  178.6660  137.7330 C   0  0  0  0  0  3  0  0  0  0  0  0
  182.1780  178.9260  139.1010 C   0  0  0  0  0  3  0  0  0  0  0  0
  181.8280  176.4120  135.5770 C   0  0  0  0  0  2  0  0  0  0  0  0
  186.2820  174.6700  136.6640 C   0  0  0  0  0  0  0  0  0  0  0  0
  183.9800  174.4100  136.2410 C   0  0  2  0  0  3  0  0  0  0  0  0
  187.2140  175.6180  136.9850 C   0  0  0  0  0  0  0  0  0  0  0  0
  187.0600  172.3400  136.9330 C   0  0  0  0  0  1  0  0  0  0  0  0
  185.1600  176.5210  137.2520 N   0  0  0  0  0  0  0  0  0  0  0  0
  1 21  2  0  0  0  0
  1 16  1  0  0  0  0
  2  8  2  0  0  0  0
  5 17  1  0  0  0  0
  5 24  1  0  0  0  0
  5 27  1  1  0  0  0
  6  1  1  0  0  0  0
  8 14  1  0  0  0  0
  8  7  2  0  0  0  0
  9 18  1  1  0  0  0
  9 14  1  0  0  0  0
 10  8  1  0  0  0  0
 12 28  1  0  0  0  0
 13  9  1  0  0  0  0
 13 26  1  0  0  0  0
 15 11  1  1  0  0  0
 15 19  1  0  0  0  0
 15 23  1  0  0  0  0
 16 20  2  0  0  0  0
 17 25  1  0  0  0  0
 17  3  1  1  0  0  0
 20  4  1  0  0  0  0
 21 22  1  0  0  0  0
 22  4  2  0  0  0  0
 23  6  1  0  0  0  0
 24 12  2  0  0  0  0
 24 26  1  0  0  0  0
 25 19  1  6  0  0  0
 25 12  1  0  0  0  0
 26 10  2  0  0  0  0
 28 10  1  0  0  0  0
 28 16  1  0  0  0  0
M  END
>  <MODEL>
3

>  <REMARK>
 VINA RESULT:      -5.5      3.073      7.732
  Name = 
  0 active torsions:
  status: ('A' for Active; 'I' for Inactive)
                            x       y       z     vdW  Elec       q    Type
                         _______ _______ _______ _____ _____    ______ ____

>  <TORSDO>
F 0

$$$$
=
 OpenBabel11122411503D

 28 32  0  0  1  0  0  0  0  0999 V2000
  184.3070  177.4520  138.5340 C   0  0  0  0  0  0  0  0  0  0  0  0
  180.5270  179.4740  139.3240 O   0  0  0  0  0  0  0  0  0  0  0  0
  186.0930  177.0020  144.0870 C   0  0  0  0  0  1  0  0  0  0  0  0
  182.8170  175.0830  138.3980 C   0  0  0  0  0  3  0  0  0  0  0  0
  184.4260  178.9850  143.9600 C   0  0  1  0  0  3  0  0  0  0  0  0
  185.2030  178.6350  138.6010 C   0  0  0  0  0  2  0  0  0  0  0  0
  180.1090  177.1090  139.8820 O   0  0  0  0  0  0  0  0  0  0  0  0
  180.5050  178.4520  140.4250 S   0  0  0  0  0  0  0  0  0  0  0  0
  179.9460  179.9910  142.6240 C   0  0  1  0  0  3  0  0  0  0  0  0
  182.0570  178.3960  141.2380 C   0  0  0  0  0  0  0  0  0  0  0  0
  188.3170  178.5090  140.6500 O   0  0  0  0  0  1  0  0  0  0  0  0
  184.1130  178.1620  141.7760 C   0  0  0  0  0  0  0  0  0  0  0  0
  181.1670  179.5160  143.2780 N   0  0  0  0  0  2  0  0  0  0  0  0
  179.3400  178.9320  141.6950 C   0  0  0  0  0  2  0  0  0  0  0  0
  187.1550  179.0760  140.1260 C   0  0  2  0  0  3  0  0  0  0  0  0
  183.4390  177.1100  139.5960 C   0  0  0  0  0  0  0  0  0  0  0  0
  185.7550  178.3400  143.4380 C   0  0  2  0  0  3  0  0  0  0  0  0
  178.9320  180.3900  143.6730 C   0  0  0  0  0  1  0  0  0  0  0  0
  186.1660  179.3760  141.2480 C   0  0  0  0  0  2  0  0  0  0  0  0
  182.7100  175.9140  139.5130 C   0  0  0  0  0  3  0  0  0  0  0  0
  184.4060  176.6120  137.4180 C   0  0  0  0  0  3  0  0  0  0  0  0
  183.6600  175.4350  137.3450 C   0  0  0  0  0  3  0  0  0  0  0  0
  186.5730  178.1600  139.0620 C   0  0  0  0  0  2  0  0  0  0  0  0
  183.5060  178.6780  142.8540 C   0  0  0  0  0  0  0  0  0  0  0  0
  185.5920  178.1250  141.9110 C   0  0  2  0  0  3  0  0  0  0  0  0
  182.1960  178.8810  142.5190 C   0  0  0  0  0  0  0  0  0  0  0  0
  183.9110  178.4190  145.2790 C   0  0  0  0  0  1  0  0  0  0  0  0
  183.2500  177.9560  140.7470 N   0  0  0  0  0  0  0  0  0  0  0  0
  1  6  1  0  0  0  0
  1 16  1  0  0  0  0
  2  8  2  0  0  0  0
  4 20  1  0  0  0  0
  5 27  1  1  0  0  0
  6 23  1  0  0  0  0
  7  8  2  0  0  0  0
  8 10  1  0  0  0  0
  8 14  1  0  0  0  0
  9 13  1  0  0  0  0
  9 18  1  1  0  0  0
 10 26  2  0  0  0  0
 12 25  1  0  0  0  0
 12 24  2  0  0  0  0
 14  9  1  0  0  0  0
 15 11  1  1  0  0  0
 15 19  1  0  0  0  0
 16 28  1  0  0  0  0
 17  5  1  0  0  0  0
 17  3  1  1  0  0  0
 20 16  2  0  0  0  0
 21  1  2  0  0  0  0
 22 21  1  0  0  0  0
 22  4  2  0  0  0  0
 23 15  1  0  0  0  0
 24  5  1  0  0  0  0
 25 19  1  6  0  0  0
 25 17  1  0  0  0  0
 26 24  1  0  0  0  0
 26 13  1  0  0  0  0
 28 10  1  0  0  0  0
 28 12  1  0  0  0  0
M  END
>  <MODEL>
4

>  <REMARK>
 VINA RESULT:      -5.5      4.886      6.696
  Name = 
  0 active torsions:
  status: ('A' for Active; 'I' for Inactive)
                            x       y       z     vdW  Elec       q    Type
                         _______ _______ _______ _____ _____    ______ ____

>  <TORSDO>
F 0

$$$$
=
 OpenBabel11122411503D

 28 32  0  0  1  0  0  0  0  0999 V2000
  188.9310  177.6560  136.9900 C   0  0  0  0  0  0  0  0  0  0  0  0
  192.7400  176.0030  135.6640 O   0  0  0  0  0  0  0  0  0  0  0  0
  185.8390  172.6950  136.7690 C   0  0  0  0  0  1  0  0  0  0  0  0
  189.9200  177.3980  139.6000 C   0  0  0  0  0  3  0  0  0  0  0  0
  187.8440  172.4410  135.1420 C   0  0  1  0  0  3  0  0  0  0  0  0
  188.2920  177.8240  135.6600 C   0  0  0  0  0  2  0  0  0  0  0  0
  192.5460  175.3300  138.0280 O   0  0  0  0  0  0  0  0  0  0  0  0
  192.3030  174.9160  136.6050 S   0  0  0  0  0  0  0  0  0  0  0  0
  192.6190  172.6680  135.0690 C   0  0  1  0  0  3  0  0  0  0  0  0
  190.6230  174.5020  136.3230 C   0  0  0  0  0  0  0  0  0  0  0  0
  184.8220  176.5870  135.0820 O   0  0  0  0  0  1  0  0  0  0  0  0
  188.4930  174.4740  136.1380 C   0  0  0  0  0  0  0  0  0  0  0  0
  191.2100  172.3220  135.2680 N   0  0  0  0  0  2  0  0  0  0  0  0
  193.2080  173.4090  136.2760 C   0  0  0  0  0  2  0  0  0  0  0  0
  186.1610  176.8220  134.7730 C   0  0  2  0  0  3  0  0  0  0  0  0
  189.4410  176.4130  137.4250 C   0  0  0  0  0  0  0  0  0  0  0  0
  186.5740  173.2600  135.5580 C   0  0  2  0  0  3  0  0  0  0  0  0
  193.4170  171.4100  134.8030 C   0  0  0  0  0  1  0  0  0  0  0  0
  186.8990  175.4980  134.5960 C   0  0  0  0  0  2  0  0  0  0  0  0
  189.9220  176.3010  138.7380 C   0  0  0  0  0  3  0  0  0  0  0  0
  188.9340  178.7530  137.8620 C   0  0  0  0  0  3  0  0  0  0  0  0
  189.4320  178.6270  139.1600 C   0  0  0  0  0  3  0  0  0  0  0  0
  186.7870  177.7010  135.8430 C   0  0  0  0  0  2  0  0  0  0  0  0
  188.9190  173.2870  135.6800 C   0  0  0  0  0  0  0  0  0  0  0  0
  187.0460  174.6990  135.8900 C   0  0  2  0  0  3  0  0  0  0  0  0
  190.2850  173.2990  135.7450 C   0  0  0  0  0  0  0  0  0  0  0  0
  187.9140  171.0300  135.7150 C   0  0  0  0  0  1  0  0  0  0  0  0
  189.5170  175.2610  136.5610 N   0  0  0  0  0  0  0  0  0  0  0  0
  1 16  2  0  0  0  0
  1 21  1  0  0  0  0
  2  8  2  0  0  0  0
  5 17  1  0  0  0  0
  5 24  1  0  0  0  0
  5 27  1  1  0  0  0
  6 23  1  0  0  0  0
  6  1  1  0  0  0  0
  8  7  2  0  0  0  0
  9 18  1  1  0  0  0
  9 13  1  0  0  0  0
  9 14  1  0  0  0  0
 10 28  1  0  0  0  0
 10  8  1  0  0  0  0
 12 28  1  0  0  0  0
 13 26  1  0  0  0  0
 14  8  1  0  0  0  0
 15 11  1  1  0  0  0
 15 23  1  0  0  0  0
 16 20  1  0  0  0  0
 17 25  1  0  0  0  0
 17  3  1  1  0  0  0
 19 15  1  0  0  0  0
 20  4  2  0  0  0  0
 21 22  2  0  0  0  0
 22  4  1  0  0  0  0
 24 26  1  0  0  0  0
 24 12  2  0  0  0  0
 25 19  1  6  0  0  0
 25 12  1  0  0  0  0
 26 10  2  0  0  0  0
 28 16  1  0  0  0  0
M  END
>  <MODEL>
5

>  <REMARK>
 VINA RESULT:      -5.2      2.765      7.019
  Name = 
  0 active torsions:
  status: ('A' for Active; 'I' for Inactive)
                            x       y       z     vdW  Elec       q    Type
                         _______ _______ _______ _____ _____    ______ ____

>  <TORSDO>
F 0

$$$$
=
 OpenBabel11122411503D

 28 32  0  0  1  0  0  0  0  0999 V2000
  189.7380  177.5860  137.6660 C   0  0  0  0  0  0  0  0  0  0  0  0
  193.9400  177.1300  136.6030 O   0  0  0  0  0  0  0  0  0  0  0  0
  187.9600  172.2680  135.9980 C   0  0  0  0  0  1  0  0  0  0  0  0
  190.5050  176.9500  140.2850 C   0  0  0  0  0  3  0  0  0  0  0  0
  190.1130  172.8270  134.6640 C   0  0  1  0  0  3  0  0  0  0  0  0
  189.2070  177.9150  136.3180 C   0  0  0  0  0  2  0  0  0  0  0  0
  193.6880  175.9070  138.7290 O   0  0  0  0  0  0  0  0  0  0  0  0
  193.6880  175.7890  137.2320 S   0  0  0  0  0  0  0  0  0  0  0  0
  194.6800  174.0750  135.3360 C   0  0  1  0  0  3  0  0  0  0  0  0
  192.1920  175.1040  136.6300 C   0  0  0  0  0  0  0  0  0  0  0  0
  186.2060  176.1350  135.0020 O   0  0  0  0  0  1  0  0  0  0  0  0
  190.1580  174.6670  136.1340 C   0  0  0  0  0  0  0  0  0  0  0  0
  193.3820  173.4010  135.2540 N   0  0  0  0  0  2  0  0  0  0  0  0
  194.9560  174.6260  136.7410 C   0  0  0  0  0  2  0  0  0  0  0  0
  187.4740  176.7150  134.9460 C   0  0  2  0  0  3  0  0  0  0  0  0
  190.4870  176.4130  137.9100 C   0  0  0  0  0  0  0  0  0  0  0  0
  188.6510  173.2390  135.0470 C   0  0  2  0  0  3  0  0  0  0  0  0
  195.7770  173.1110  134.9410 C   0  0  0  0  0  1  0  0  0  0  0  0
  188.5200  175.6550  134.6150 C   0  0  0  0  0  2  0  0  0  0  0  0
  190.8530  176.1070  139.2300 C   0  0  0  0  0  3  0  0  0  0  0  0
  189.3950  178.4270  138.7330 C   0  0  0  0  0  3  0  0  0  0  0  0
  189.7820  178.1150  140.0370 C   0  0  0  0  0  3  0  0  0  0  0  0
  187.7650  177.4360  136.2510 C   0  0  0  0  0  2  0  0  0  0  0  0
  190.8980  173.7360  135.5130 C   0  0  0  0  0  0  0  0  0  0  0  0
  188.7300  174.6300  135.7280 C   0  0  2  0  0  3  0  0  0  0  0  0
  192.2080  174.0220  135.7770 C   0  0  0  0  0  0  0  0  0  0  0  0
  190.4640  171.3700  134.9440 C   0  0  0  0  0  1  0  0  0  0  0  0
  190.9180  175.5340  136.8520 N   0  0  0  0  0  0  0  0  0  0  0  0
  1 16  2  0  0  0  0
  1 21  1  0  0  0  0
  2  8  2  0  0  0  0
  5 27  1  1  0  0  0
  5 17  1  0  0  0  0
  5 24  1  0  0  0  0
  6  1  1  0  0  0  0
  8  7  2  0  0  0  0
  9 18  1  1  0  0  0
  9 14  1  0  0  0  0
 10 28  1  0  0  0  0
 10  8  1  0  0  0  0
 12 28  1  0  0  0  0
 13  9  1  0  0  0  0
 13 26  1  0  0  0  0
 14  8  1  0  0  0  0
 15 11  1  1  0  0  0
 15 23  1  0  0  0  0
 16 20  1  0  0  0  0
 17 25  1  0  0  0  0
 17  3  1  1  0  0  0
 19 15  1  0  0  0  0
 20  4  2  0  0  0  0
 21 22  2  0  0  0  0
 22  4  1  0  0  0  0
 23  6  1  0  0  0  0
 24 26  1  0  0  0  0
 24 12  2  0  0  0  0
 25 19  1  6  0  0  0
 25 12  1  0  0  0  0
 26 10  2  0  0  0  0
 28 16  1  0  0  0  0
M  END
>  <MODEL>
6

>  <REMARK>
 VINA RESULT:      -5.1      2.729      7.170
  Name = 
  0 active torsions:
  status: ('A' for Active; 'I' for Inactive)
                            x       y       z     vdW  Elec       q    Type
                         _______ _______ _______ _____ _____    ______ ____

>  <TORSDO>
F 0

$$$$
=
 OpenBabel11122411503D

 28 32  0  0  1  0  0  0  0  0999 V2000
  191.4520  174.8740  137.8480 C   0  0  0  0  0  0  0  0  0  0  0  0
  190.5550  175.6260  142.0460 O   0  0  0  0  0  0  0  0  0  0  0  0
  187.2350  178.2250  135.5650 C   0  0  0  0  0  1  0  0  0  0  0  0
  193.4370  176.8370  138.0950 C   0  0  0  0  0  3  0  0  0  0  0  0
  186.4930  177.5550  137.9590 C   0  0  1  0  0  3  0  0  0  0  0  0
  190.4240  173.8330  137.5890 C   0  0  0  0  0  2  0  0  0  0  0  0
  191.7580  177.6390  141.2850 O   0  0  0  0  0  0  0  0  0  0  0  0
  190.4080  177.0170  141.5000 S   0  0  0  0  0  0  0  0  0  0  0  0
  187.9690  177.7700  142.5020 C   0  0  1  0  0  3  0  0  0  0  0  0
  189.4550  176.9980  140.0280 C   0  0  0  0  0  0  0  0  0  0  0  0
  188.2170  174.0870  134.5940 O   0  0  0  0  0  1  0  0  0  0  0  0
  188.6880  176.7070  138.0540 C   0  0  0  0  0  0  0  0  0  0  0  0
  187.4820  178.0320  141.1460 N   0  0  0  0  0  2  0  0  0  0  0  0
  189.4740  178.0350  142.6370 C   0  0  0  0  0  2  0  0  0  0  0  0
  188.5350  173.8320  135.9280 C   0  0  2  0  0  3  0  0  0  0  0  0
  191.1170  176.1450  138.3640 C   0  0  0  0  0  0  0  0  0  0  0  0
  186.9440  177.0840  136.5350 C   0  0  2  0  0  3  0  0  0  0  0  0
  187.2080  178.6290  143.4880 C   0  0  0  0  0  1  0  0  0  0  0  0
  187.7780  174.7920  136.8400 C   0  0  0  0  0  2  0  0  0  0  0  0
  192.1230  177.1180  138.4700 C   0  0  0  0  0  3  0  0  0  0  0  0
  192.7750  174.6000  137.4750 C   0  0  0  0  0  3  0  0  0  0  0  0
  193.7650  175.5740  137.6040 C   0  0  0  0  0  3  0  0  0  0  0  0
  190.0400  173.9070  136.1190 C   0  0  0  0  0  2  0  0  0  0  0  0
  187.7280  177.3540  138.7310 C   0  0  0  0  0  0  0  0  0  0  0  0
  188.2350  176.2450  136.7170 C   0  0  2  0  0  3  0  0  0  0  0  0
  188.1770  177.5110  140.0130 C   0  0  0  0  0  0  0  0  0  0  0  0
  186.0220  179.0030  138.0380 C   0  0  0  0  0  1  0  0  0  0  0  0
  189.7880  176.4730  138.8160 N   0  0  0  0  0  0  0  0  0  0  0  0
  1 16  1  0  0  0  0
  4 20  1  0  0  0  0
  5 27  1  6  0  0  0
  5 24  1  0  0  0  0
  6  1  1  0  0  0  0
  7  8  2  0  0  0  0
  8  2  2  0  0  0  0
  8 14  1  0  0  0  0
  9 14  1  0  0  0  0
  9 18  1  1  0  0  0
 10  8  1  0  0  0  0
 12 24  2  0  0  0  0
 12 28  1  0  0  0  0
 13  9  1  0  0  0  0
 15 11  1  6  0  0  0
 15 23  1  0  0  0  0
 15 19  1  0  0  0  0
 16 20  2  0  0  0  0
 16 28  1  0  0  0  0
 17  3  1  6  0  0  0
 17 25  1  0  0  0  0
 17  5  1  0  0  0  0
 21 22  1  0  0  0  0
 21  1  2  0  0  0  0
 22  4  2  0  0  0  0
 23  6  1  0  0  0  0
 24 26  1  0  0  0  0
 25 19  1  1  0  0  0
 25 12  1  0  0  0  0
 26 10  2  0  0  0  0
 26 13  1  0  0  0  0
 28 10  1  0  0  0  0
M  END
>  <MODEL>
7

>  <REMARK>
 VINA RESULT:      -5.0      1.960      4.943
  Name = 
  0 active torsions:
  status: ('A' for Active; 'I' for Inactive)
                            x       y       z     vdW  Elec       q    Type
                         _______ _______ _______ _____ _____    ______ ____

>  <TORSDO>
F 0

$$$$
=
 OpenBabel11122411503D

 28 32  0  0  1  0  0  0  0  0999 V2000
  188.7270  175.5730  136.3420 C   0  0  0  0  0  0  0  0  0  0  0  0
  187.0010  178.2300  139.3350 O   0  0  0  0  0  0  0  0  0  0  0  0
  183.7530  172.9780  134.6830 C   0  0  0  0  0  1  0  0  0  0  0  0
  188.6410  177.7610  134.5940 C   0  0  0  0  0  3  0  0  0  0  0  0
  183.3990  173.8810  137.0890 C   0  0  1  0  0  3  0  0  0  0  0  0
  188.8060  174.3390  137.1660 C   0  0  0  0  0  2  0  0  0  0  0  0
  186.4830  179.2920  137.1710 O   0  0  0  0  0  0  0  0  0  0  0  0
  185.9770  178.3720  138.2450 S   0  0  0  0  0  0  0  0  0  0  0  0
  183.6340  177.9420  139.6030 C   0  0  1  0  0  3  0  0  0  0  0  0
  185.5400  176.7990  137.6070 C   0  0  0  0  0  0  0  0  0  0  0  0
  187.5240  171.1050  135.8230 O   0  0  0  0  0  1  0  0  0  0  0  0
  185.4940  174.8750  136.6760 C   0  0  0  0  0  0  0  0  0  0  0  0
  183.2980  176.8440  138.6930 N   0  0  0  0  0  2  0  0  0  0  0  0
  184.4530  179.0370  138.9080 C   0  0  0  0  0  2  0  0  0  0  0  0
  187.7420  172.0910  136.7850 C   0  0  2  0  0  3  0  0  0  0  0  0
  187.5150  176.2770  136.1620 C   0  0  0  0  0  0  0  0  0  0  0  0
  184.2400  172.9730  136.1280 C   0  0  2  0  0  3  0  0  0  0  0  0
  182.3630  178.5370  140.1690 C   0  0  0  0  0  1  0  0  0  0  0  0
  186.4120  172.6820  137.2410 C   0  0  0  0  0  2  0  0  0  0  0  0
  187.4900  177.3640  135.2750 C   0  0  0  0  0  3  0  0  0  0  0  0
  189.8780  175.9810  135.6550 C   0  0  0  0  0  3  0  0  0  0  0  0
  189.8380  177.0750  134.7890 C   0  0  0  0  0  3  0  0  0  0  0  0
  188.6910  173.1430  136.2340 C   0  0  0  0  0  2  0  0  0  0  0  0
  184.2820  175.0490  137.2220 C   0  0  0  0  0  0  0  0  0  0  0  0
  185.6990  173.4970  136.1620 C   0  0  2  0  0  3  0  0  0  0  0  0
  184.3010  176.2560  137.8650 C   0  0  0  0  0  0  0  0  0  0  0  0
  182.0280  174.2830  136.5560 C   0  0  0  0  0  1  0  0  0  0  0  0
  186.3100  175.9420  136.8790 N   0  0  0  0  0  0  0  0  0  0  0  0
  1  6  1  0  0  0  0
  4 22  2  0  0  0  0
  4 20  1  0  0  0  0
  5 27  1  6  0  0  0
  5 24  1  0  0  0  0
  7  8  2  0  0  0  0
  8 14  1  0  0  0  0
  8  2  2  0  0  0  0
  9 18  1  6  0  0  0
 10 26  2  0  0  0  0
 10  8  1  0  0  0  0
 12 28  1  0  0  0  0
 12 24  2  0  0  0  0
 13  9  1  0  0  0  0
 14  9  1  0  0  0  0
 15 11  1  6  0  0  0
 15 19  1  0  0  0  0
 16  1  1  0  0  0  0
 16 28  1  0  0  0  0
 17  3  1  6  0  0  0
 17 25  1  0  0  0  0
 17  5  1  0  0  0  0
 20 16  2  0  0  0  0
 21  1  2  0  0  0  0
 22 21  1  0  0  0  0
 23 15  1  0  0  0  0
 23  6  1  0  0  0  0
 24 26  1  0  0  0  0
 25 12  1  0  0  0  0
 25 19  1  1  0  0  0
 26 13  1  0  0  0  0
 28 10  1  0  0  0  0
M  END
>  <MODEL>
8

>  <REMARK>
 VINA RESULT:      -4.8      3.662      5.699
  Name = 
  0 active torsions:
  status: ('A' for Active; 'I' for Inactive)
                            x       y       z     vdW  Elec       q    Type
                         _______ _______ _______ _____ _____    ______ ____

>  <TORSDO>
F 0

$$$$
=
 OpenBabel11122411503D

 28 32  0  0  1  0  0  0  0  0999 V2000
  180.8440  178.1290  137.2210 C   0  0  0  0  0  0  0  0  0  0  0  0
  180.1200  173.8340  137.4020 O   0  0  0  0  0  0  0  0  0  0  0  0
  186.5620  177.8780  136.0130 C   0  0  0  0  0  1  0  0  0  0  0  0
  179.8730  178.0120  134.5950 C   0  0  0  0  0  3  0  0  0  0  0  0
  185.9130  175.6580  137.1890 C   0  0  1  0  0  3  0  0  0  0  0  0
  181.3930  178.3140  138.5890 C   0  0  0  0  0  2  0  0  0  0  0  0
  180.2310  174.3580  134.9950 O   0  0  0  0  0  0  0  0  0  0  0  0
  181.0100  173.8940  136.1920 S   0  0  0  0  0  0  0  0  0  0  0  0
  182.8870  171.9800  136.7690 C   0  0  1  0  0  3  0  0  0  0  0  0
  182.3990  174.9150  136.5050 C   0  0  0  0  0  0  0  0  0  0  0  0
  184.5550  180.2250  139.0930 O   0  0  0  0  0  1  0  0  0  0  0  0
  183.7410  176.5280  136.9200 C   0  0  0  0  0  0  0  0  0  0  0  0
  183.9550  172.9720  136.6290 N   0  0  0  0  0  2  0  0  0  0  0  0
  181.6970  172.2780  135.8480 C   0  0  0  0  0  2  0  0  0  0  0  0
  183.6380  179.1960  139.3040 C   0  0  2  0  0  3  0  0  0  0  0  0
  181.3970  177.2000  136.3120 C   0  0  0  0  0  0  0  0  0  0  0  0
  185.9540  177.2240  137.2490 C   0  0  2  0  0  3  0  0  0  0  0  0
  183.4330  170.6020  136.4680 C   0  0  0  0  0  1  0  0  0  0  0  0
  184.2520  177.8570  138.9050 C   0  0  0  0  0  2  0  0  0  0  0  0
  180.9040  177.1640  134.9980 C   0  0  0  0  0  3  0  0  0  0  0  0
  179.8070  178.9750  136.8070 C   0  0  0  0  0  3  0  0  0  0  0  0
  179.3180  178.9140  135.5020 C   0  0  0  0  0  3  0  0  0  0  0  0
  182.3510  179.4960  138.5550 C   0  0  0  0  0  2  0  0  0  0  0  0
  184.4980  175.4220  136.8670 C   0  0  0  0  0  0  0  0  0  0  0  0
  184.4910  177.7150  137.4020 C   0  0  2  0  0  3  0  0  0  0  0  0
  183.6540  174.3680  136.6480 C   0  0  0  0  0  0  0  0  0  0  0  0
  186.8290  175.0310  136.1440 C   0  0  0  0  0  1  0  0  0  0  0  0
  182.4280  176.2650  136.6890 N   0  0  0  0  0  0  0  0  0  0  0  0
  1  6  1  0  0  0  0
  4 20  2  0  0  0  0
  4 22  1  0  0  0  0
  5 27  1  6  0  0  0
  5 17  1  0  0  0  0
  7  8  2  0  0  0  0
  8 10  1  0  0  0  0
  8  2  2  0  0  0  0
  9 18  1  6  0  0  0
 10 26  2  0  0  0  0
 10 28  1  0  0  0  0
 12 25  1  0  0  0  0
 13 26  1  0  0  0  0
 13  9  1  0  0  0  0
 14  8  1  0  0  0  0
 14  9  1  0  0  0  0
 15 11  1  6  0  0  0
 16 28  1  0  0  0  0
 16  1  2  0  0  0  0
 17  3  1  6  0  0  0
 17 25  1  0  0  0  0
 19 15  1  0  0  0  0
 20 16  1  0  0  0  0
 21  1  1  0  0  0  0
 22 21  2  0  0  0  0
 23  6  1  0  0  0  0
 23 15  1  0  0  0  0
 24 12  2  0  0  0  0
 24  5  1  0  0  0  0
 25 19  1  1  0  0  0
 26 24  1  0  0  0  0
 28 12  1  0  0  0  0
M  END
>  <MODEL>
9

>  <REMARK>
 VINA RESULT:      -4.8      5.233      8.503
  Name = 
  0 active torsions:
  status: ('A' for Active; 'I' for Inactive)
                            x       y       z     vdW  Elec       q    Type
                         _______ _______ _______ _____ _____    ______ ____

>  <TORSDO>
F 0

$$$$
