=
 OpenBabel11122412123D

 34 42  0  0  1  0  0  0  0  0999 V2000
  187.9720  177.9700  140.4930 C   0  0  0  0  0  0  0  0  0  0  0  0
  186.3000  178.1670  138.5950 C   0  0  0  0  0  2  0  0  0  0  0  0
  189.6190  177.0560  147.0130 C   0  0  1  0  0  0  0  0  0  0  0  0
  189.3430  177.3920  142.4080 C   0  0  0  0  0  0  0  0  0  0  0  0
  188.4290  177.3310  144.6730 C   0  0  0  0  0  0  0  0  0  0  0  0
  187.6970  177.2390  147.2150 C   0  0  1  0  0  3  0  0  0  0  0  0
  188.7150  177.0770  148.1690 N   0  0  0  0  0  2  0  0  0  0  0  0
  191.5000  176.9480  145.4820 C   0  0  0  0  0  3  0  0  0  0  0  0
  185.6750  178.9870  140.7890 C   0  0  2  0  0  3  0  0  0  0  0  0
  182.6830  178.0430  141.6950 C   0  0  0  0  0  2  0  0  0  0  0  0
  187.0500  177.4160  144.0740 C   0  0  0  0  0  2  0  0  0  0  0  0
  190.8940  177.0840  144.3310 N   0  0  0  0  0  0  0  0  0  0  0  0
  185.6370  178.2810  142.1660 C   0  0  1  0  0  3  0  0  0  0  0  0
  184.8680  178.6590  138.5120 C   0  0  0  0  0  2  0  0  0  0  0  0
  189.5280  177.2620  143.8760 C   0  0  0  0  0  0  0  0  0  0  0  0
  190.9100  176.9300  146.8280 C   0  0  0  0  0  2  0  0  0  0  0  0
  183.4720  177.7170  140.4140 C   0  0  2  0  0  3  0  0  0  0  0  0
  188.1230  177.8540  141.8820 C   0  0  0  0  0  0  0  0  0  0  0  0
  188.5240  177.2280  146.0820 N   0  0  0  0  0  0  0  0  0  0  0  0
  187.0290  178.2970  142.8230 C   0  0  2  0  0  3  0  0  0  0  0  0
  190.2240  177.1500  140.2110 C   0  0  0  0  0  3  0  0  0  0  0  0
  183.2490  179.2080  142.5090 C   0  0  0  0  0  2  0  0  0  0  0  0
  190.3560  177.0570  141.5620 N   0  0  0  0  0  0  0  0  0  0  0  0
  184.6150  178.9100  143.1260 C   0  0  0  0  0  2  0  0  0  0  0  0
  184.3890  178.8710  139.9490 C   0  0  1  0  0  3  0  0  0  0  0  0
  189.0280  177.6030  139.6520 C   0  0  0  0  0  3  0  0  0  0  0  0
  186.7250  178.4280  139.9560 N   0  0  0  0  0  0  0  0  0  0  0  0
  182.5680  177.3570  139.4090 O   0  0  0  0  0  0  0  0  0  0  0  0
  182.4160  175.9750  139.5430 C   0  0  0  0  0  2  0  0  0  0  0  0
  183.3880  176.3330  136.3230 O   0  0  0  0  0  0  0  0  0  0  0  0
  183.7700  174.7720  137.8610 C   0  0  0  0  0  3  0  0  0  0  0  0
  182.4150  175.3180  138.1740 C   0  0  2  0  0  3  0  0  0  0  0  0
  184.2690  175.3840  136.8050 C   0  0  0  0  0  3  0  0  0  0  0  0
  182.2050  176.3800  137.0990 C   0  0  0  0  0  2  0  0  0  0  0  0
  1 18  1  0  0  0  0
  2 27  1  0  0  0  0
  3 16  1  6  0  0  0
  3  6  1  0  0  0  0
  3  7  1  0  0  0  0
  4 15  1  0  0  0  0
  5 19  1  0  0  0  0
  6  7  1  1  0  0  0
  8 16  1  0  0  0  0
  9 27  1  6  0  0  0
  9 13  1  0  0  0  0
 10 22  1  0  0  0  0
 11  5  1  0  0  0  0
 12  8  2  0  0  0  0
 13 20  1  0  0  0  0
 13 24  1  1  0  0  0
 14  2  1  0  0  0  0
 15 12  1  0  0  0  0
 15  5  2  0  0  0  0
 17 28  1  6  0  0  0
 17 10  1  0  0  0  0
 18  4  2  0  0  0  0
 18 20  1  0  0  0  0
 19  3  1  0  0  0  0
 19  6  1  0  0  0  0
 20 11  1  1  0  0  0
 21 23  2  0  0  0  0
 22 24  1  0  0  0  0
 23  4  1  0  0  0  0
 25 14  1  6  0  0  0
 25 17  1  0  0  0  0
 25  9  1  0  0  0  0
 26 21  1  0  0  0  0
 26  1  2  0  0  0  0
 27  1  1  0  0  0  0
 28 29  1  0  0  0  0
 30 33  1  0  0  0  0
 30 34  1  0  0  0  0
 31 32  1  0  0  0  0
 32 29  1  1  0  0  0
 33 31  2  0  0  0  0
 34 32  1  0  0  0  0
M  END
>  <MODEL>
1

>  <REMARK>
 VINA RESULT:      -9.4      0.000      0.000
  Name = 
  3 active torsions:
  status: ('A' for Active; 'I' for Inactive)
    1  A    between atoms: C_17  and  O_28
    2  A    between atoms: O_28  and  C_29
    3  A    between atoms: C_29  and  C_32
                            x       y       z     vdW  Elec       q    Type
                         _______ _______ _______ _____ _____    ______ ____

>  <TORSDO>
F 3

$$$$
=
 OpenBabel11122412123D

 34 42  0  0  1  0  0  0  0  0999 V2000
  188.0440  177.9210  140.7090 C   0  0  0  0  0  0  0  0  0  0  0  0
  186.3570  178.1740  138.8310 C   0  0  0  0  0  2  0  0  0  0  0  0
  189.7380  176.9830  147.2130 C   0  0  1  0  0  0  0  0  0  0  0  0
  189.4150  177.2990  142.6100 C   0  0  0  0  0  0  0  0  0  0  0  0
  188.5300  177.2920  144.8870 C   0  0  0  0  0  0  0  0  0  0  0  0
  187.8290  177.2470  147.4390 C   0  0  1  0  0  3  0  0  0  0  0  0
  188.8520  177.0500  148.3800 N   0  0  0  0  0  2  0  0  0  0  0  0
  191.5930  176.7860  145.6580 C   0  0  0  0  0  3  0  0  0  0  0  0
  185.7960  179.0350  141.0270 C   0  0  2  0  0  3  0  0  0  0  0  0
  182.7800  178.2230  141.9780 C   0  0  0  0  0  2  0  0  0  0  0  0
  187.1470  177.4300  144.3050 C   0  0  0  0  0  2  0  0  0  0  0  0
  190.9780  176.9400  144.5140 N   0  0  0  0  0  0  0  0  0  0  0  0
  185.7470  178.3400  142.4100 C   0  0  1  0  0  3  0  0  0  0  0  0
  184.9450  178.7260  138.7630 C   0  0  0  0  0  2  0  0  0  0  0  0
  189.6140  177.1710  144.0750 C   0  0  0  0  0  0  0  0  0  0  0  0
  191.0200  176.8020  147.0120 C   0  0  0  0  0  2  0  0  0  0  0  0
  183.5370  177.8550  140.6900 C   0  0  2  0  0  3  0  0  0  0  0  0
  188.2090  177.8080  142.0960 C   0  0  0  0  0  0  0  0  0  0  0  0
  188.6400  177.1940  146.2950 N   0  0  0  0  0  0  0  0  0  0  0  0
  187.1460  178.3030  143.0480 C   0  0  2  0  0  3  0  0  0  0  0  0
  190.2570  177.0060  140.4030 C   0  0  0  0  0  3  0  0  0  0  0  0
  183.4040  179.3690  142.7770 C   0  0  0  0  0  2  0  0  0  0  0  0
  190.4020  176.9170  141.7520 N   0  0  0  0  0  0  0  0  0  0  0  0
  184.7650  179.0180  143.3780 C   0  0  0  0  0  2  0  0  0  0  0  0
  184.4950  178.9670  140.2050 C   0  0  1  0  0  3  0  0  0  0  0  0
  189.0730  177.5040  139.8560 C   0  0  0  0  0  3  0  0  0  0  0  0
  186.8110  178.4270  140.1840 N   0  0  0  0  0  0  0  0  0  0  0  0
  182.6060  177.5260  139.6990 O   0  0  0  0  0  0  0  0  0  0  0  0
  181.3630  177.8330  140.2590 C   0  0  0  0  0  2  0  0  0  0  0  0
  181.0510  180.9450  138.9710 O   0  0  0  0  0  0  0  0  0  0  0  0
  181.3400  178.9410  138.0500 C   0  0  0  0  0  3  0  0  0  0  0  0
  180.5620  178.6970  139.3020 C   0  0  2  0  0  3  0  0  0  0  0  0
  181.5860  180.2300  137.9170 C   0  0  0  0  0  3  0  0  0  0  0  0
  180.3960  180.0940  139.8920 C   0  0  0  0  0  2  0  0  0  0  0  0
  1 18  1  0  0  0  0
  2 27  1  0  0  0  0
  3 16  1  6  0  0  0
  3  6  1  0  0  0  0
  3  7  1  0  0  0  0
  4 15  1  0  0  0  0
  5 19  1  0  0  0  0
  6  7  1  1  0  0  0
  8 16  1  0  0  0  0
  9 27  1  6  0  0  0
  9 13  1  0  0  0  0
 10 22  1  0  0  0  0
 11  5  1  0  0  0  0
 12  8  2  0  0  0  0
 13 20  1  0  0  0  0
 13 24  1  1  0  0  0
 14  2  1  0  0  0  0
 15 12  1  0  0  0  0
 15  5  2  0  0  0  0
 17 28  1  6  0  0  0
 17 10  1  0  0  0  0
 18  4  2  0  0  0  0
 18 20  1  0  0  0  0
 19  3  1  0  0  0  0
 19  6  1  0  0  0  0
 20 11  1  1  0  0  0
 21 23  2  0  0  0  0
 22 24  1  0  0  0  0
 23  4  1  0  0  0  0
 25 14  1  6  0  0  0
 25 17  1  0  0  0  0
 25  9  1  0  0  0  0
 26 21  1  0  0  0  0
 26  1  2  0  0  0  0
 27  1  1  0  0  0  0
 28 29  1  0  0  0  0
 30 34  1  0  0  0  0
 31 32  1  0  0  0  0
 32 34  1  0  0  0  0
 32 29  1  1  0  0  0
 33 31  2  0  0  0  0
 33 30  1  0  0  0  0
M  END
>  <MODEL>
2

>  <REMARK>
 VINA RESULT:      -9.3      1.470      2.008
  Name = 
  3 active torsions:
  status: ('A' for Active; 'I' for Inactive)
    1  A    between atoms: C_17  and  O_28
    2  A    between atoms: O_28  and  C_29
    3  A    between atoms: C_29  and  C_32
                            x       y       z     vdW  Elec       q    Type
                         _______ _______ _______ _____ _____    ______ ____

>  <TORSDO>
F 3

$$$$
=
 OpenBabel11122412123D

 34 42  0  0  1  0  0  0  0  0999 V2000
  188.9190  177.4170  140.6040 C   0  0  0  0  0  0  0  0  0  0  0  0
  188.7080  177.1360  138.0910 C   0  0  0  0  0  2  0  0  0  0  0  0
  186.3300  178.3040  146.8140 C   0  0  1  0  0  0  0  0  0  0  0  0
  188.8050  177.3490  143.0250 C   0  0  0  0  0  0  0  0  0  0  0  0
  186.7720  177.9570  144.2350 C   0  0  0  0  0  0  0  0  0  0  0  0
  184.7190  178.6060  145.7750 C   0  0  1  0  0  3  0  0  0  0  0  0
  184.9550  178.6810  147.1570 N   0  0  0  0  0  2  0  0  0  0  0  0
  188.6830  177.7030  146.7880 C   0  0  0  0  0  3  0  0  0  0  0  0
  187.1190  178.5590  139.2430 C   0  0  2  0  0  3  0  0  0  0  0  0
  184.0310  178.0160  138.3290 C   0  0  0  0  0  2  0  0  0  0  0  0
  186.0310  177.9210  142.9240 C   0  0  0  0  0  2  0  0  0  0  0  0
  188.8840  177.5340  145.5060 N   0  0  0  0  0  0  0  0  0  0  0  0
  186.1640  178.2690  140.4250 C   0  0  1  0  0  3  0  0  0  0  0  0
  187.7100  177.6380  137.0640 C   0  0  0  0  0  2  0  0  0  0  0  0
  188.0890  177.6270  144.2950 C   0  0  0  0  0  0  0  0  0  0  0  0
  187.4400  178.0840  147.4750 C   0  0  0  0  0  2  0  0  0  0  0  0
  185.3270  177.3160  137.8810 C   0  0  2  0  0  3  0  0  0  0  0  0
  188.2230  177.6890  141.7900 C   0  0  0  0  0  0  0  0  0  0  0  0
  186.0230  178.2490  145.4010 N   0  0  0  0  0  0  0  0  0  0  0  0
  186.9010  178.4170  141.7680 C   0  0  2  0  0  3  0  0  0  0  0  0
  190.7140  176.4700  141.9090 C   0  0  0  0  0  3  0  0  0  0  0  0
  184.2470  179.3410  139.0630 C   0  0  0  0  0  2  0  0  0  0  0  0
  190.0300  176.7530  143.0490 N   0  0  0  0  0  0  0  0  0  0  0  0
  184.9250  179.1780  140.4230 C   0  0  0  0  0  2  0  0  0  0  0  0
  186.5500  178.2600  137.8430 C   0  0  1  0  0  3  0  0  0  0  0  0
  190.1690  176.7910  140.6650 C   0  0  0  0  0  3  0  0  0  0  0  0
  188.3220  177.7520  139.3450 N   0  0  0  0  0  0  0  0  0  0  0  0
  185.1100  176.7230  136.6340 O   0  0  0  0  0  0  0  0  0  0  0  0
  184.4250  175.5380  136.9160 C   0  0  0  0  0  2  0  0  0  0  0  0
  187.3600  174.4700  135.6180 O   0  0  0  0  0  0  0  0  0  0  0  0
  186.0430  173.6970  137.2340 C   0  0  0  0  0  3  0  0  0  0  0  0
  185.1290  174.3630  136.2590 C   0  0  2  0  0  3  0  0  0  0  0  0
  187.2910  173.7890  136.8180 C   0  0  0  0  0  3  0  0  0  0  0  0
  186.0770  174.8760  135.1790 C   0  0  0  0  0  2  0  0  0  0  0  0
  1 26  2  0  0  0  0
  1 18  1  0  0  0  0
  2 27  1  0  0  0  0
  3  7  1  0  0  0  0
  3 16  1  1  0  0  0
  4 23  1  0  0  0  0
  4 15  1  0  0  0  0
  5 15  2  0  0  0  0
  5 19  1  0  0  0  0
  6  3  1  0  0  0  0
  6  7  1  6  0  0  0
  8 16  1  0  0  0  0
  9 27  1  1  0  0  0
  9 13  1  0  0  0  0
 10 22  1  0  0  0  0
 11  5  1  0  0  0  0
 12  8  2  0  0  0  0
 13 24  1  1  0  0  0
 13 20  1  0  0  0  0
 14  2  1  0  0  0  0
 15 12  1  0  0  0  0
 17 28  1  6  0  0  0
 17 10  1  0  0  0  0
 18  4  2  0  0  0  0
 19  6  1  0  0  0  0
 19  3  1  0  0  0  0
 20 18  1  0  0  0  0
 20 11  1  1  0  0  0
 21 23  2  0  0  0  0
 22 24  1  0  0  0  0
 25 14  1  6  0  0  0
 25 17  1  0  0  0  0
 25  9  1  0  0  0  0
 26 21  1  0  0  0  0
 27  1  1  0  0  0  0
 28 29  1  0  0  0  0
 30 33  1  0  0  0  0
 32 29  1  1  0  0  0
 32 31  1  0  0  0  0
 33 31  2  0  0  0  0
 34 30  1  0  0  0  0
 34 32  1  0  0  0  0
M  END
>  <MODEL>
3

>  <REMARK>
 VINA RESULT:      -9.1      1.836      2.870
  Name = 
  3 active torsions:
  status: ('A' for Active; 'I' for Inactive)
    1  A    between atoms: C_17  and  O_28
    2  A    between atoms: O_28  and  C_29
    3  A    between atoms: C_29  and  C_32
                            x       y       z     vdW  Elec       q    Type
                         _______ _______ _______ _____ _____    ______ ____

>  <TORSDO>
F 3

$$$$
=
 OpenBabel11122412123D

 34 42  0  0  1  0  0  0  0  0999 V2000
  182.2440  178.8580  143.2880 C   0  0  0  0  0  0  0  0  0  0  0  0
  183.7040  178.8350  145.3630 C   0  0  0  0  0  2  0  0  0  0  0  0
  181.1180  177.7390  136.6900 C   0  0  1  0  0  0  0  0  0  0  0  0
  180.9820  178.4410  141.2600 C   0  0  0  0  0  0  0  0  0  0  0  0
  182.0850  177.9480  139.1360 C   0  0  0  0  0  0  0  0  0  0  0  0
  183.0350  177.4410  136.7180 C   0  0  1  0  0  3  0  0  0  0  0  0
  182.1150  177.4350  135.6580 N   0  0  0  0  0  2  0  0  0  0  0  0
  179.1170  178.2270  137.9770 C   0  0  0  0  0  3  0  0  0  0  0  0
  184.7380  179.2690  143.2140 C   0  0  2  0  0  3  0  0  0  0  0  0
  187.4840  177.5610  142.7560 C   0  0  0  0  0  2  0  0  0  0  0  0
  183.3720  177.7610  139.8970 C   0  0  0  0  0  2  0  0  0  0  0  0
  179.6140  178.3260  139.1840 N   0  0  0  0  0  0  0  0  0  0  0  0
  184.7460  178.4460  141.9040 C   0  0  1  0  0  3  0  0  0  0  0  0
  185.1960  178.9800  145.5910 C   0  0  0  0  0  2  0  0  0  0  0  0
  180.9260  178.2180  139.7930 C   0  0  0  0  0  0  0  0  0  0  0  0
  179.8230  177.9410  136.7200 C   0  0  0  0  0  2  0  0  0  0  0  0
  186.5090  177.5560  143.9480 C   0  0  2  0  0  3  0  0  0  0  0  0
  182.2160  178.6490  141.9020 C   0  0  0  0  0  0  0  0  0  0  0  0
  182.1160  177.7360  137.7370 N   0  0  0  0  0  0  0  0  0  0  0  0
  183.4780  178.7280  141.0780 C   0  0  2  0  0  3  0  0  0  0  0  0
  179.8420  178.6260  143.3410 C   0  0  0  0  0  3  0  0  0  0  0  0
  187.3110  178.7440  141.8010 C   0  0  0  0  0  2  0  0  0  0  0  0
  179.8350  178.4380  141.9940 N   0  0  0  0  0  0  0  0  0  0  0  0
  185.9860  178.7190  141.0390 C   0  0  0  0  0  2  0  0  0  0  0  0
  185.8610  178.9330  144.2140 C   0  0  1  0  0  3  0  0  0  0  0  0
  181.0470  178.8350  144.0130 C   0  0  0  0  0  3  0  0  0  0  0  0
  183.5010  179.0580  143.9450 N   0  0  0  0  0  0  0  0  0  0  0  0
  187.1850  177.0900  145.0800 O   0  0  0  0  0  0  0  0  0  0  0  0
  188.5150  176.9570  144.6730 C   0  0  0  0  0  2  0  0  0  0  0  0
  190.5570  176.4550  147.3230 O   0  0  0  0  0  0  0  0  0  0  0  0
  190.8620  177.3800  145.3240 C   0  0  0  0  0  3  0  0  0  0  0  0
  189.4330  177.6420  145.6710 C   0  0  2  0  0  3  0  0  0  0  0  0
  191.4450  176.7070  146.2960 C   0  0  0  0  0  3  0  0  0  0  0  0
  189.2760  176.9880  147.0410 C   0  0  0  0  0  2  0  0  0  0  0  0
  1 27  1  0  0  0  0
  1 26  1  0  0  0  0
  2 14  1  0  0  0  0
  3  6  1  0  0  0  0
  3 16  1  1  0  0  0
  3 19  1  0  0  0  0
  4 18  1  0  0  0  0
  4 23  2  0  0  0  0
  5 15  2  0  0  0  0
  5 11  1  0  0  0  0
  6  7  1  6  0  0  0
  6 19  1  0  0  0  0
  7  3  1  0  0  0  0
  8 12  2  0  0  0  0
  9 27  1  1  0  0  0
  9 25  1  0  0  0  0
 10 17  1  0  0  0  0
 12 15  1  0  0  0  0
 13 24  1  6  0  0  0
 13  9  1  0  0  0  0
 15  4  1  0  0  0  0
 16  8  1  0  0  0  0
 17 25  1  0  0  0  0
 17 28  1  1  0  0  0
 18  1  2  0  0  0  0
 19  5  1  0  0  0  0
 20 11  1  6  0  0  0
 20 18  1  0  0  0  0
 20 13  1  0  0  0  0
 21 26  2  0  0  0  0
 22 10  1  0  0  0  0
 23 21  1  0  0  0  0
 24 22  1  0  0  0  0
 25 14  1  1  0  0  0
 27  2  1  0  0  0  0
 29 28  1  0  0  0  0
 31 32  1  0  0  0  0
 31 33  2  0  0  0  0
 32 29  1  6  0  0  0
 32 34  1  0  0  0  0
 33 30  1  0  0  0  0
 34 30  1  0  0  0  0
M  END
>  <MODEL>
4

>  <REMARK>
 VINA RESULT:      -9.0      3.691      9.276
  Name = 
  3 active torsions:
  status: ('A' for Active; 'I' for Inactive)
    1  A    between atoms: C_17  and  O_28
    2  A    between atoms: O_28  and  C_29
    3  A    between atoms: C_29  and  C_32
                            x       y       z     vdW  Elec       q    Type
                         _______ _______ _______ _____ _____    ______ ____

>  <TORSDO>
F 3

$$$$
=
 OpenBabel11122412123D

 34 42  0  0  1  0  0  0  0  0999 V2000
  182.9110  178.8320  143.1510 C   0  0  0  0  0  0  0  0  0  0  0  0
  180.5920  179.6850  142.5720 C   0  0  0  0  0  2  0  0  0  0  0  0
  189.4040  177.5260  141.6690 C   0  0  1  0  0  0  0  0  0  0  0  0
  185.2700  178.4250  143.5400 C   0  0  0  0  0  0  0  0  0  0  0  0
  186.8650  178.2480  141.6980 C   0  0  0  0  0  0  0  0  0  0  0  0
  188.7760  177.9710  139.8870 C   0  0  1  0  0  3  0  0  0  0  0  0
  190.0310  177.5380  140.3440 N   0  0  0  0  0  2  0  0  0  0  0  0
  188.8610  177.3480  144.0290 C   0  0  0  0  0  3  0  0  0  0  0  0
  181.9130  178.6260  140.8370 C   0  0  2  0  0  3  0  0  0  0  0  0
  181.8900  180.2910  138.0280 C   0  0  0  0  0  2  0  0  0  0  0  0
  185.8000  178.7890  140.7790 C   0  0  0  0  0  2  0  0  0  0  0  0
  187.6040  177.7090  144.0250 N   0  0  0  0  0  0  0  0  0  0  0  0
  183.3260  178.9480  140.2940 C   0  0  1  0  0  3  0  0  0  0  0  0
  179.7950  179.7490  141.2840 C   0  0  0  0  0  2  0  0  0  0  0  0
  186.6320  178.1260  143.0310 C   0  0  0  0  0  0  0  0  0  0  0  0
  189.7840  177.2420  142.8900 C   0  0  0  0  0  2  0  0  0  0  0  0
  181.2240  180.6250  139.3750 C   0  0  2  0  0  3  0  0  0  0  0  0
  184.1890  178.5510  142.6480 C   0  0  0  0  0  0  0  0  0  0  0  0
  188.1340  177.9700  141.1350 N   0  0  0  0  0  0  0  0  0  0  0  0
  184.4070  178.2980  141.1760 C   0  0  2  0  0  3  0  0  0  0  0  0
  183.8310  178.8720  145.3820 C   0  0  0  0  0  3  0  0  0  0  0  0
  182.3660  178.8430  137.8970 C   0  0  0  0  0  2  0  0  0  0  0  0
  185.0610  178.5850  144.8760 N   0  0  0  0  0  0  0  0  0  0  0  0
  183.5190  178.4970  138.8390 C   0  0  0  0  0  2  0  0  0  0  0  0
  180.7540  179.3750  140.1520 C   0  0  1  0  0  3  0  0  0  0  0  0
  182.7350  179.0050  144.5290 C   0  0  0  0  0  3  0  0  0  0  0  0
  181.8110  178.9740  142.2430 N   0  0  0  0  0  0  0  0  0  0  0  0
  180.1610  181.5050  139.1460 O   0  0  0  0  0  0  0  0  0  0  0  0
  180.2940  181.8860  137.8080 C   0  0  0  0  0  2  0  0  0  0  0  0
  181.4590  184.6460  136.2380 O   0  0  0  0  0  0  0  0  0  0  0  0
  179.4380  183.7340  136.4070 C   0  0  0  0  0  3  0  0  0  0  0  0
  180.1390  183.3920  137.6810 C   0  0  2  0  0  3  0  0  0  0  0  0
  180.2350  184.4440  135.6320 C   0  0  0  0  0  3  0  0  0  0  0  0
  181.5120  184.0340  137.5130 C   0  0  0  0  0  2  0  0  0  0  0  0
  1 26  1  0  0  0  0
  3 16  1  1  0  0  0
  4 23  2  0  0  0  0
  5 15  2  0  0  0  0
  6  7  1  6  0  0  0
  6 19  1  0  0  0  0
  6  3  1  0  0  0  0
  7  3  1  0  0  0  0
  9 27  1  1  0  0  0
 10 17  1  0  0  0  0
 11  5  1  0  0  0  0
 12  8  2  0  0  0  0
 13 24  1  6  0  0  0
 13  9  1  0  0  0  0
 13 20  1  0  0  0  0
 14  2  1  0  0  0  0
 15  4  1  0  0  0  0
 15 12  1  0  0  0  0
 16  8  1  0  0  0  0
 17 28  1  6  0  0  0
 17 25  1  0  0  0  0
 18  1  2  0  0  0  0
 18  4  1  0  0  0  0
 19  3  1  0  0  0  0
 19  5  1  0  0  0  0
 20 11  1  6  0  0  0
 20 18  1  0  0  0  0
 22 10  1  0  0  0  0
 22 24  1  0  0  0  0
 23 21  1  0  0  0  0
 25  9  1  0  0  0  0
 25 14  1  1  0  0  0
 26 21  2  0  0  0  0
 27  2  1  0  0  0  0
 27  1  1  0  0  0  0
 29 28  1  0  0  0  0
 30 34  1  0  0  0  0
 31 32  1  0  0  0  0
 32 29  1  6  0  0  0
 33 30  1  0  0  0  0
 33 31  2  0  0  0  0
 34 32  1  0  0  0  0
M  END
>  <MODEL>
5

>  <REMARK>
 VINA RESULT:      -8.9      3.685      5.938
  Name = 
  3 active torsions:
  status: ('A' for Active; 'I' for Inactive)
    1  A    between atoms: C_17  and  O_28
    2  A    between atoms: O_28  and  C_29
    3  A    between atoms: C_29  and  C_32
                            x       y       z     vdW  Elec       q    Type
                         _______ _______ _______ _____ _____    ______ ____

>  <TORSDO>
F 3

$$$$
=
 OpenBabel11122412123D

 34 42  0  0  1  0  0  0  0  0999 V2000
  190.3420  177.2160  141.9300 C   0  0  0  0  0  0  0  0  0  0  0  0
  191.3920  176.5910  139.7070 C   0  0  0  0  0  2  0  0  0  0  0  0
  185.0260  178.6260  145.9080 C   0  0  1  0  0  0  0  0  0  0  0  0
  189.0620  177.4510  143.9770 C   0  0  0  0  0  0  0  0  0  0  0  0
  186.6810  177.9950  143.9500 C   0  0  0  0  0  0  0  0  0  0  0  0
  184.1200  178.6200  144.1920 C   0  0  1  0  0  3  0  0  0  0  0  0
  183.6490  178.8980  145.4850 N   0  0  0  0  0  2  0  0  0  0  0  0
  187.1080  178.2760  147.1080 C   0  0  0  0  0  3  0  0  0  0  0  0
  189.4040  177.9780  139.7090 C   0  0  2  0  0  3  0  0  0  0  0  0
  187.1720  177.0010  137.5340 C   0  0  0  0  0  2  0  0  0  0  0  0
  186.6760  177.7120  142.4700 C   0  0  0  0  0  2  0  0  0  0  0  0
  187.9140  177.9640  146.1250 N   0  0  0  0  0  0  0  0  0  0  0  0
  188.0010  177.7450  140.3200 C   0  0  1  0  0  3  0  0  0  0  0  0
  191.0090  176.8480  138.2620 C   0  0  0  0  0  2  0  0  0  0  0  0
  187.8100  177.8160  144.6860 C   0  0  0  0  0  0  0  0  0  0  0  0
  185.6790  178.6110  147.0440 C   0  0  0  0  0  2  0  0  0  0  0  0
  188.5400  176.3880  137.8820 C   0  0  2  0  0  3  0  0  0  0  0  0
  189.1480  177.5650  142.5780 C   0  0  0  0  0  0  0  0  0  0  0  0
  185.4500  178.3560  144.5510 N   0  0  0  0  0  0  0  0  0  0  0  0
  187.9850  178.1420  141.8070 C   0  0  2  0  0  3  0  0  0  0  0  0
  191.2970  176.6390  144.0700 C   0  0  0  0  0  3  0  0  0  0  0  0
  186.9640  178.4250  138.0530 C   0  0  0  0  0  2  0  0  0  0  0  0
  190.1350  176.9950  144.6810 N   0  0  0  0  0  0  0  0  0  0  0  0
  186.8960  178.5110  139.5780 C   0  0  0  0  0  2  0  0  0  0  0  0
  189.6000  177.4410  138.2780 C   0  0  1  0  0  3  0  0  0  0  0  0
  191.4200  176.7380  142.6830 C   0  0  0  0  0  3  0  0  0  0  0  0
  190.4260  177.3200  140.5040 N   0  0  0  0  0  0  0  0  0  0  0  0
  188.9770  175.6180  136.7990 O   0  0  0  0  0  0  0  0  0  0  0  0
  187.8470  175.4610  135.9930 C   0  0  0  0  0  2  0  0  0  0  0  0
  187.7940  172.3540  137.3280 O   0  0  0  0  0  0  0  0  0  0  0  0
  186.2970  173.5460  136.1960 C   0  0  0  0  0  3  0  0  0  0  0  0
  187.6290  173.9900  135.6850 C   0  0  2  0  0  3  0  0  0  0  0  0
  186.4540  172.6210  137.1210 C   0  0  0  0  0  3  0  0  0  0  0  0
  188.6140  173.1490  136.4930 C   0  0  0  0  0  2  0  0  0  0  0  0
  1 18  2  0  0  0  0
  1 26  1  0  0  0  0
  2 27  1  0  0  0  0
  3 16  1  1  0  0  0
  4 23  2  0  0  0  0
  4 15  1  0  0  0  0
  5 19  1  0  0  0  0
  5 15  2  0  0  0  0
  6 19  1  0  0  0  0
  6  7  1  6  0  0  0
  6  3  1  0  0  0  0
  7  3  1  0  0  0  0
  9 13  1  0  0  0  0
  9 27  1  1  0  0  0
 10 17  1  0  0  0  0
 10 22  1  0  0  0  0
 11  5  1  0  0  0  0
 12  8  2  0  0  0  0
 13 24  1  6  0  0  0
 13 20  1  0  0  0  0
 14  2  1  0  0  0  0
 15 12  1  0  0  0  0
 16  8  1  0  0  0  0
 17 28  1  6  0  0  0
 17 25  1  0  0  0  0
 18  4  1  0  0  0  0
 19  3  1  0  0  0  0
 20 11  1  1  0  0  0
 20 18  1  0  0  0  0
 21 23  1  0  0  0  0
 22 24  1  0  0  0  0
 25 14  1  1  0  0  0
 25  9  1  0  0  0  0
 26 21  2  0  0  0  0
 27  1  1  0  0  0  0
 29 28  1  0  0  0  0
 31 33  2  0  0  0  0
 32 29  1  1  0  0  0
 32 31  1  0  0  0  0
 32 34  1  0  0  0  0
 33 30  1  0  0  0  0
 34 30  1  0  0  0  0
M  END
>  <MODEL>
6

>  <REMARK>
 VINA RESULT:      -8.8      2.797      4.663
  Name = 
  3 active torsions:
  status: ('A' for Active; 'I' for Inactive)
    1  A    between atoms: C_17  and  O_28
    2  A    between atoms: O_28  and  C_29
    3  A    between atoms: C_29  and  C_32
                            x       y       z     vdW  Elec       q    Type
                         _______ _______ _______ _____ _____    ______ ____

>  <TORSDO>
F 3

$$$$
=
 OpenBabel11122412123D

 34 42  0  0  1  0  0  0  0  0999 V2000
  190.5550  177.4400  143.4870 C   0  0  0  0  0  0  0  0  0  0  0  0
  192.4340  176.7660  141.9210 C   0  0  0  0  0  2  0  0  0  0  0  0
  184.0290  178.6270  144.9220 C   0  0  1  0  0  0  0  0  0  0  0  0
  188.5590  177.6950  144.8400 C   0  0  0  0  0  0  0  0  0  0  0  0
  186.3560  178.0190  143.8350 C   0  0  0  0  0  0  0  0  0  0  0  0
  183.8780  178.4250  142.9970 C   0  0  1  0  0  3  0  0  0  0  0  0
  182.9190  178.7450  143.9710 N   0  0  0  0  0  2  0  0  0  0  0  0
  185.4820  178.5470  146.8660 C   0  0  0  0  0  3  0  0  0  0  0  0
  190.5330  177.9650  141.0130 C   0  0  2  0  0  3  0  0  0  0  0  0
  189.4030  176.6480  138.2460 C   0  0  0  0  0  2  0  0  0  0  0  0
  186.9540  177.6390  142.5050 C   0  0  0  0  0  2  0  0  0  0  0  0
  186.6270  178.2440  146.3100 N   0  0  0  0  0  0  0  0  0  0  0  0
  189.0180  177.6470  141.0490 C   0  0  1  0  0  3  0  0  0  0  0  0
  192.6410  176.8900  140.4230 C   0  0  0  0  0  2  0  0  0  0  0  0
  187.1100  177.9910  144.9650 C   0  0  0  0  0  0  0  0  0  0  0  0
  184.1780  178.7470  146.2180 C   0  0  0  0  0  2  0  0  0  0  0  0
  190.5550  176.1850  139.1570 C   0  0  2  0  0  3  0  0  0  0  0  0
  189.1850  177.7230  143.5800 C   0  0  0  0  0  0  0  0  0  0  0  0
  184.9700  178.3060  143.8700 N   0  0  0  0  0  0  0  0  0  0  0  0
  188.3920  178.1400  142.3660 C   0  0  2  0  0  3  0  0  0  0  0  0
  190.6170  177.0950  145.8750 C   0  0  0  0  0  3  0  0  0  0  0  0
  188.9270  178.0790  138.5030 C   0  0  0  0  0  2  0  0  0  0  0  0
  189.2900  177.3850  145.9470 N   0  0  0  0  0  0  0  0  0  0  0  0
  188.2560  178.2600  139.8640 C   0  0  0  0  0  2  0  0  0  0  0  0
  191.3090  177.3540  139.8310 C   0  0  1  0  0  3  0  0  0  0  0  0
  191.2720  177.1120  144.6430 C   0  0  0  0  0  3  0  0  0  0  0  0
  191.1920  177.4570  142.2030 N   0  0  0  0  0  0  0  0  0  0  0  0
  191.4270  175.3870  138.4100 O   0  0  0  0  0  0  0  0  0  0  0  0
  191.6740  176.1200  137.2460 C   0  0  0  0  0  2  0  0  0  0  0  0
  195.0090  175.7250  136.8410 O   0  0  0  0  0  0  0  0  0  0  0  0
  193.3410  174.2950  137.1830 C   0  0  0  0  0  3  0  0  0  0  0  0
  192.7430  175.4300  136.4170 C   0  0  2  0  0  3  0  0  0  0  0  0
  194.6230  174.5190  137.3920 C   0  0  0  0  0  3  0  0  0  0  0  0
  193.9220  176.3780  136.2130 C   0  0  0  0  0  2  0  0  0  0  0  0
  1 18  2  0  0  0  0
  1 26  1  0  0  0  0
  2 27  1  0  0  0  0
  3 16  1  1  0  0  0
  4 15  1  0  0  0  0
  4 23  2  0  0  0  0
  5 19  1  0  0  0  0
  5 15  2  0  0  0  0
  6 19  1  0  0  0  0
  6  7  1  6  0  0  0
  6  3  1  0  0  0  0
  7  3  1  0  0  0  0
  9 13  1  0  0  0  0
  9 27  1  1  0  0  0
 10 22  1  0  0  0  0
 10 17  1  0  0  0  0
 11  5  1  0  0  0  0
 12  8  2  0  0  0  0
 13 24  1  6  0  0  0
 13 20  1  0  0  0  0
 14  2  1  0  0  0  0
 15 12  1  0  0  0  0
 16  8  1  0  0  0  0
 17 28  1  6  0  0  0
 17 25  1  0  0  0  0
 18  4  1  0  0  0  0
 19  3  1  0  0  0  0
 20 11  1  1  0  0  0
 20 18  1  0  0  0  0
 21 23  1  0  0  0  0
 22 24  1  0  0  0  0
 25 14  1  1  0  0  0
 25  9  1  0  0  0  0
 26 21  2  0  0  0  0
 27  1  1  0  0  0  0
 29 28  1  0  0  0  0
 30 33  1  0  0  0  0
 31 33  2  0  0  0  0
 32 31  1  0  0  0  0
 32 29  1  1  0  0  0
 34 32  1  0  0  0  0
 34 30  1  0  0  0  0
M  END
>  <MODEL>
7

>  <REMARK>
 VINA RESULT:      -8.7      3.603      6.778
  Name = 
  3 active torsions:
  status: ('A' for Active; 'I' for Inactive)
    1  A    between atoms: C_17  and  O_28
    2  A    between atoms: O_28  and  C_29
    3  A    between atoms: C_29  and  C_32
                            x       y       z     vdW  Elec       q    Type
                         _______ _______ _______ _____ _____    ______ ____

>  <TORSDO>
F 3

$$$$
=
 OpenBabel11122412123D

 34 42  0  0  1  0  0  0  0  0999 V2000
  188.1160  177.8760  138.6460 C   0  0  0  0  0  0  0  0  0  0  0  0
  186.4440  178.3680  140.4890 C   0  0  0  0  0  2  0  0  0  0  0  0
  193.9790  175.3610  136.3320 C   0  0  1  0  0  0  0  0  0  0  0  0
  189.7050  176.9750  137.0500 C   0  0  0  0  0  0  0  0  0  0  0  0
  191.8870  176.1260  137.7470 C   0  0  0  0  0  0  0  0  0  0  0  0
  194.3160  175.1930  138.2360 C   0  0  1  0  0  3  0  0  0  0  0  0
  195.1280  174.9130  137.1260 N   0  0  0  0  0  2  0  0  0  0  0  0
  192.4010  175.9780  134.5940 C   0  0  0  0  0  3  0  0  0  0  0  0
  188.8090  178.4160  141.0170 C   0  0  2  0  0  3  0  0  0  0  0  0
  189.5280  176.8220  143.7760 C   0  0  0  0  0  2  0  0  0  0  0  0
  191.4050  176.1780  139.1740 C   0  0  0  0  0  2  0  0  0  0  0  0
  191.3720  176.3530  135.3110 N   0  0  0  0  0  0  0  0  0  0  0  0
  189.9120  177.3430  140.8460 C   0  0  1  0  0  3  0  0  0  0  0  0
  186.5790  178.6490  141.9740 C   0  0  0  0  0  2  0  0  0  0  0  0
  191.0550  176.4530  136.7230 C   0  0  0  0  0  0  0  0  0  0  0  0
  193.7050  175.4840  135.0570 C   0  0  0  0  0  2  0  0  0  0  0  0
  188.1730  177.0010  143.0680 C   0  0  2  0  0  3  0  0  0  0  0  0
  189.3980  177.3850  138.3610 C   0  0  0  0  0  0  0  0  0  0  0  0
  193.1940  175.6330  137.5170 N   0  0  0  0  0  0  0  0  0  0  0  0
  190.4780  177.3710  139.4150 C   0  0  2  0  0  3  0  0  0  0  0  0
  187.4970  177.5120  136.3420 C   0  0  0  0  0  3  0  0  0  0  0  0
  190.6260  177.7710  143.2920 C   0  0  0  0  0  2  0  0  0  0  0  0
  188.7500  177.0520  136.0820 N   0  0  0  0  0  0  0  0  0  0  0  0
  191.0620  177.5100  141.8510 C   0  0  0  0  0  2  0  0  0  0  0  0
  188.0340  178.3620  142.3470 C   0  0  1  0  0  3  0  0  0  0  0  0
  187.1560  177.9280  137.6290 C   0  0  0  0  0  3  0  0  0  0  0  0
  187.7990  178.2830  139.9820 N   0  0  0  0  0  0  0  0  0  0  0  0
  187.1490  176.8200  144.0030 O   0  0  0  0  0  0  0  0  0  0  0  0
  187.6250  177.4150  145.1740 C   0  0  0  0  0  2  0  0  0  0  0  0
  185.7470  179.4400  147.1270 O   0  0  0  0  0  0  0  0  0  0  0  0
  185.2390  177.8940  145.6110 C   0  0  0  0  0  3  0  0  0  0  0  0
  186.5260  177.4460  146.2230 C   0  0  2  0  0  3  0  0  0  0  0  0
  184.8480  179.0260  146.1630 C   0  0  0  0  0  3  0  0  0  0  0  0
  186.8290  178.5360  147.2460 C   0  0  0  0  0  2  0  0  0  0  0  0
  1 27  1  0  0  0  0
  2 14  1  0  0  0  0
  3 16  1  6  0  0  0
  3  7  1  0  0  0  0
  3 19  1  0  0  0  0
  3  6  1  0  0  0  0
  4 18  2  0  0  0  0
  5 11  1  0  0  0  0
  6  7  1  1  0  0  0
  8 16  1  0  0  0  0
  8 12  2  0  0  0  0
  9 27  1  6  0  0  0
  9 25  1  0  0  0  0
 12 15  1  0  0  0  0
 13  9  1  0  0  0  0
 13 24  1  1  0  0  0
 15  4  1  0  0  0  0
 15  5  2  0  0  0  0
 17 10  1  0  0  0  0
 17 28  1  1  0  0  0
 18  1  1  0  0  0  0
 18 20  1  0  0  0  0
 19  5  1  0  0  0  0
 19  6  1  0  0  0  0
 20 11  1  6  0  0  0
 20 13  1  0  0  0  0
 21 26  1  0  0  0  0
 22 10  1  0  0  0  0
 23 21  2  0  0  0  0
 23  4  1  0  0  0  0
 24 22  1  0  0  0  0
 25 14  1  6  0  0  0
 25 17  1  0  0  0  0
 26  1  2  0  0  0  0
 27  2  1  0  0  0  0
 28 29  1  0  0  0  0
 30 34  1  0  0  0  0
 31 33  2  0  0  0  0
 31 32  1  0  0  0  0
 32 29  1  6  0  0  0
 32 34  1  0  0  0  0
 33 30  1  0  0  0  0
M  END
>  <MODEL>
8

>  <REMARK>
 VINA RESULT:      -8.5      3.741      7.771
  Name = 
  3 active torsions:
  status: ('A' for Active; 'I' for Inactive)
    1  A    between atoms: C_17  and  O_28
    2  A    between atoms: O_28  and  C_29
    3  A    between atoms: C_29  and  C_32
                            x       y       z     vdW  Elec       q    Type
                         _______ _______ _______ _____ _____    ______ ____

>  <TORSDO>
F 3

$$$$
=
 OpenBabel11122412123D

 34 42  0  0  1  0  0  0  0  0999 V2000
  188.3680  177.7820  142.9980 C   0  0  0  0  0  0  0  0  0  0  0  0
  190.6690  177.0570  142.2150 C   0  0  0  0  0  2  0  0  0  0  0  0
  181.7650  179.0030  142.0110 C   0  0  1  0  0  0  0  0  0  0  0  0
  186.0260  178.0800  143.5550 C   0  0  0  0  0  0  0  0  0  0  0  0
  184.3190  178.3620  141.8310 C   0  0  0  0  0  0  0  0  0  0  0  0
  182.2960  178.7320  140.1640 C   0  0  1  0  0  3  0  0  0  0  0  0
  181.0590  179.0830  140.7280 N   0  0  0  0  0  2  0  0  0  0  0  0
  182.4430  178.9960  144.3430 C   0  0  0  0  0  3  0  0  0  0  0  0
  189.2190  178.2180  140.6570 C   0  0  2  0  0  3  0  0  0  0  0  0
  189.1180  176.7990  137.7170 C   0  0  0  0  0  2  0  0  0  0  0  0
  185.3410  177.9360  140.8090 C   0  0  0  0  0  2  0  0  0  0  0  0
  183.7070  178.6770  144.2350 N   0  0  0  0  0  0  0  0  0  0  0  0
  187.7850  177.8980  140.1700 C   0  0  1  0  0  3  0  0  0  0  0  0
  191.3890  177.1280  140.8820 C   0  0  0  0  0  2  0  0  0  0  0  0
  184.6280  178.3770  143.1540 C   0  0  0  0  0  0  0  0  0  0  0  0
  181.4510  179.1690  143.2720 C   0  0  0  0  0  2  0  0  0  0  0  0
  189.8720  176.3730  138.9890 C   0  0  2  0  0  3  0  0  0  0  0  0
  187.0550  178.0650  142.5960 C   0  0  0  0  0  0  0  0  0  0  0  0
  183.0120  178.6470  141.3680 N   0  0  0  0  0  0  0  0  0  0  0  0
  186.7420  178.4360  141.1660 C   0  0  2  0  0  3  0  0  0  0  0  0
  187.5840  177.5230  145.2660 C   0  0  0  0  0  3  0  0  0  0  0  0
  188.5970  178.2380  137.7410 C   0  0  0  0  0  2  0  0  0  0  0  0
  186.3190  177.8120  144.8580 N   0  0  0  0  0  0  0  0  0  0  0  0
  187.4930  178.4650  138.7730 C   0  0  0  0  0  2  0  0  0  0  0  0
  190.3550  177.5670  139.8440 C   0  0  1  0  0  3  0  0  0  0  0  0
  188.6310  177.4980  144.3430 C   0  0  0  0  0  3  0  0  0  0  0  0
  189.4140  177.7540  142.0200 N   0  0  0  0  0  0  0  0  0  0  0  0
  190.9430  175.5510  138.6230 O   0  0  0  0  0  0  0  0  0  0  0  0
  190.9640  175.5910  137.2270 C   0  0  0  0  0  2  0  0  0  0  0  0
  194.2060  175.6320  138.1910 O   0  0  0  0  0  0  0  0  0  0  0  0
  193.0160  174.2450  136.9240 C   0  0  0  0  0  3  0  0  0  0  0  0
  192.3990  175.5920  136.7300 C   0  0  2  0  0  3  0  0  0  0  0  0
  194.0320  174.3320  137.7600 C   0  0  0  0  0  3  0  0  0  0  0  0
  193.2450  176.4990  137.6180 C   0  0  0  0  0  2  0  0  0  0  0  0
  1 26  1  0  0  0  0
  3 16  1  1  0  0  0
  4 23  2  0  0  0  0
  5 15  2  0  0  0  0
  6  7  1  6  0  0  0
  6 19  1  0  0  0  0
  6  3  1  0  0  0  0
  7  3  1  0  0  0  0
  9 27  1  1  0  0  0
 10 22  1  0  0  0  0
 10 17  1  0  0  0  0
 11  5  1  0  0  0  0
 12  8  2  0  0  0  0
 13 24  1  6  0  0  0
 13  9  1  0  0  0  0
 13 20  1  0  0  0  0
 14  2  1  0  0  0  0
 15  4  1  0  0  0  0
 15 12  1  0  0  0  0
 16  8  1  0  0  0  0
 17 28  1  6  0  0  0
 17 25  1  0  0  0  0
 18  1  2  0  0  0  0
 18  4  1  0  0  0  0
 19  5  1  0  0  0  0
 19  3  1  0  0  0  0
 20 11  1  6  0  0  0
 20 18  1  0  0  0  0
 22 24  1  0  0  0  0
 23 21  1  0  0  0  0
 25  9  1  0  0  0  0
 25 14  1  1  0  0  0
 26 21  2  0  0  0  0
 27  2  1  0  0  0  0
 27  1  1  0  0  0  0
 29 28  1  0  0  0  0
 31 33  2  0  0  0  0
 32 31  1  0  0  0  0
 32 29  1  1  0  0  0
 32 34  1  0  0  0  0
 33 30  1  0  0  0  0
 34 30  1  0  0  0  0
M  END
>  <MODEL>
9

>  <REMARK>
 VINA RESULT:      -8.3      3.477      7.246
  Name = 
  3 active torsions:
  status: ('A' for Active; 'I' for Inactive)
    1  A    between atoms: C_17  and  O_28
    2  A    between atoms: O_28  and  C_29
    3  A    between atoms: C_29  and  C_32
                            x       y       z     vdW  Elec       q    Type
                         _______ _______ _______ _____ _____    ______ ____

>  <TORSDO>
F 3

$$$$
