=
 OpenBabel11122412053D

 34 40  0  0  1  0  0  0  0  0999 V2000
  186.7600  178.5970  141.7210 C   0  0  0  0  0  0  0  0  0  0  0  0
  188.9780  177.8770  142.6350 C   0  0  0  0  0  2  0  0  0  0  0  0
  180.0840  179.7100  142.2840 C   0  0  2  0  0  3  0  0  0  0  0  0
  184.2980  178.8230  140.9790 C   0  0  1  0  0  3  0  0  0  0  0  0
  182.5200  178.9210  142.7250 C   0  0  0  0  0  0  0  0  0  0  0  0
  180.7690  178.6450  144.3120 O   0  0  0  0  0  0  0  0  0  0  0  0
  178.9310  180.1580  143.0470 N   0  0  0  0  0  1  0  0  0  0  0  0
  180.7920  178.2080  140.3410 C   0  0  0  0  0  2  0  0  0  0  0  0
  187.0070  177.3080  143.9540 C   0  0  2  0  0  3  0  0  0  0  0  0
  187.4330  177.9320  147.0960 C   0  0  0  0  0  2  0  0  0  0  0  0
  183.4550  178.6840  143.6590 C   0  0  0  0  0  3  0  0  0  0  0  0
  181.9450  179.2000  140.2410 C   0  0  0  0  0  2  0  0  0  0  0  0
  185.9290  178.3230  144.4050 C   0  0  1  0  0  3  0  0  0  0  0  0
  189.4500  177.2130  143.9070 C   0  0  0  0  0  2  0  0  0  0  0  0
  182.9090  178.9880  141.3250 N   0  0  0  0  0  0  0  0  0  0  0  0
  179.6330  178.7680  141.1680 C   0  0  0  0  0  2  0  0  0  0  0  0
  188.3750  178.2660  145.9470 C   0  0  2  0  0  3  0  0  0  0  0  0
  185.2880  178.6100  142.0520 C   0  0  0  0  0  0  0  0  0  0  0  0
  181.1120  179.0710  143.1730 C   0  0  0  0  0  0  0  0  0  0  0  0
  184.8870  178.5110  143.3260 C   0  0  0  0  0  0  0  0  0  0  0  0
  186.0420  178.5900  139.3400 C   0  0  0  0  0  3  0  0  0  0  0  0
  186.0570  178.5460  146.8870 C   0  0  0  0  0  2  0  0  0  0  0  0
  184.6790  178.8120  139.7340 N   0  0  0  0  0  0  0  0  0  0  0  0
  185.3180  177.8880  145.7330 C   0  0  0  0  0  2  0  0  0  0  0  0
  188.2550  177.1910  144.8510 C   0  0  1  0  0  3  0  0  0  0  0  0
  187.0180  178.4580  140.2430 C   0  0  0  0  0  3  0  0  0  0  0  0
  187.5130  177.5210  142.5150 C   0  0  1  0  0  3  0  0  0  0  0  0
  189.6810  178.3120  146.4470 O   0  0  0  0  0  0  0  0  0  0  0  0
  189.7940  177.1780  147.2550 C   0  0  0  0  0  2  0  0  0  0  0  0
  192.3330  174.6890  147.0330 O   0  0  0  0  0  0  0  0  0  0  0  0
  191.9020  176.7760  146.0100 C   0  0  0  0  0  2  0  0  0  0  0  0
  191.2490  176.7610  147.3610 C   0  0  2  0  0  3  0  0  0  0  0  0
  192.3190  175.3400  145.7910 C   0  0  0  0  0  2  0  0  0  0  0  0
  191.3330  175.3160  147.7880 C   0  0  0  0  0  2  0  0  0  0  0  0
  1 18  1  0  0  0  0
  1 27  1  0  0  0  0
  2 14  1  0  0  0  0
  3  7  1  1  0  0  0
  3 19  1  0  0  0  0
  4 23  1  6  0  0  0
  4 15  1  0  0  0  0
  4 18  1  0  0  0  0
  5 19  1  0  0  0  0
  5 11  2  0  0  0  0
  8 16  1  0  0  0  0
  9 13  1  0  0  0  0
  9 25  1  0  0  0  0
 12  8  1  0  0  0  0
 12 15  1  0  0  0  0
 13 24  1  0  0  0  0
 14 25  1  0  0  0  0
 15  5  1  0  0  0  0
 16  3  1  0  0  0  0
 17 28  1  0  0  0  0
 17 10  1  0  0  0  0
 18 20  2  0  0  0  0
 19  6  2  0  0  0  0
 20 11  1  0  0  0  0
 20 13  1  0  0  0  0
 21 23  2  0  0  0  0
 21 26  1  0  0  0  0
 22 10  1  0  0  0  0
 24 22  1  0  0  0  0
 25 17  1  0  0  0  0
 26  1  2  0  0  0  0
 27  2  1  0  0  0  0
 27  9  1  0  0  0  0
 28 29  1  0  0  0  0
 29 32  1  0  0  0  0
 30 34  1  0  0  0  0
 31 32  1  0  0  0  0
 32 34  1  0  0  0  0
 33 31  1  0  0  0  0
 33 30  1  0  0  0  0
M  END
>  <MODEL>
1

>  <REMARK>
 VINA RESULT:      -9.8      0.000      0.000
  Name = 
  3 active torsions:
  status: ('A' for Active; 'I' for Inactive)
    1  A    between atoms: C_17  and  O_28
    2  A    between atoms: O_28  and  C_29
    3  A    between atoms: C_29  and  C_32
                            x       y       z     vdW  Elec       q    Type
                         _______ _______ _______ _____ _____    ______ ____

>  <TORSDO>
F 3

$$$$
=
 OpenBabel11122412053D

 34 40  0  0  1  0  0  0  0  0999 V2000
  182.5190  178.4720  143.7130 C   0  0  0  0  0  0  0  0  0  0  0  0
  183.8050  178.7520  145.8430 C   0  0  0  0  0  2  0  0  0  0  0  0
  182.0940  177.9280  136.9560 C   0  0  2  0  0  3  0  0  0  0  0  0
  181.4850  178.6580  141.3540 C   0  0  1  0  0  3  0  0  0  0  0  0
  182.9620  178.3570  139.3680 C   0  0  0  0  0  0  0  0  0  0  0  0
  184.3730  178.4520  137.4540 O   0  0  0  0  0  0  0  0  0  0  0  0
  182.6060  177.4410  135.6860 N   0  0  0  0  0  1  0  0  0  0  0  0
  180.6320  179.7400  138.0120 C   0  0  0  0  0  2  0  0  0  0  0  0
  185.0000  179.2110  143.7670 C   0  0  2  0  0  3  0  0  0  0  0  0
  187.9440  177.8780  143.7450 C   0  0  0  0  0  2  0  0  0  0  0  0
  184.0200  178.2910  140.1910 C   0  0  0  0  0  3  0  0  0  0  0  0
  180.4330  178.6850  139.0920 C   0  0  0  0  0  2  0  0  0  0  0  0
  185.0890  178.2340  142.5710 C   0  0  1  0  0  3  0  0  0  0  0  0
  185.2390  179.0730  146.1970 C   0  0  0  0  0  2  0  0  0  0  0  0
  181.6330  178.5590  139.9250 N   0  0  0  0  0  0  0  0  0  0  0  0
  181.1810  179.1300  136.7190 C   0  0  0  0  0  2  0  0  0  0  0  0
  186.8570  177.7110  144.7990 C   0  0  2  0  0  3  0  0  0  0  0  0
  182.6780  178.5320  142.2140 C   0  0  0  0  0  0  0  0  0  0  0  0
  183.2100  178.2530  137.9070 C   0  0  0  0  0  0  0  0  0  0  0  0
  183.8910  178.3900  141.6630 C   0  0  0  0  0  0  0  0  0  0  0  0
  180.1400  179.0690  143.3040 C   0  0  0  0  0  3  0  0  0  0  0  0
  187.4540  177.4640  142.3660 C   0  0  0  0  0  2  0  0  0  0  0  0
  180.3240  178.9020  141.8900 N   0  0  0  0  0  0  0  0  0  0  0  0
  186.4080  178.4280  141.8290 C   0  0  0  0  0  2  0  0  0  0  0  0
  186.0290  179.0060  144.8960 C   0  0  1  0  0  3  0  0  0  0  0  0
  181.1480  178.9030  144.1650 C   0  0  0  0  0  3  0  0  0  0  0  0
  183.6130  179.2690  144.4350 C   0  0  1  0  0  3  0  0  0  0  0  0
  187.4700  177.4280  146.0240 O   0  0  0  0  0  0  0  0  0  0  0  0
  188.7810  177.8890  145.8810 C   0  0  0  0  0  2  0  0  0  0  0  0
  192.0860  176.6900  146.4600 O   0  0  0  0  0  0  0  0  0  0  0  0
  189.9930  176.4960  147.5400 C   0  0  0  0  0  2  0  0  0  0  0  0
  189.7560  176.7420  146.0780 C   0  0  2  0  0  3  0  0  0  0  0  0
  191.4710  176.7530  147.7180 C   0  0  0  0  0  2  0  0  0  0  0  0
  191.1150  177.1370  145.5530 C   0  0  0  0  0  2  0  0  0  0  0  0
  1 26  2  0  0  0  0
  1 27  1  0  0  0  0
  2 14  1  0  0  0  0
  3  7  1  6  0  0  0
  3 19  1  0  0  0  0
  4 23  1  6  0  0  0
  4 18  1  0  0  0  0
  5 15  1  0  0  0  0
  5 11  2  0  0  0  0
  6 19  2  0  0  0  0
  8 12  1  0  0  0  0
  9 27  1  0  0  0  0
  9 25  1  0  0  0  0
 10 17  1  0  0  0  0
 11 20  1  0  0  0  0
 12 15  1  0  0  0  0
 13  9  1  0  0  0  0
 15  4  1  0  0  0  0
 16  3  1  0  0  0  0
 16  8  1  0  0  0  0
 17 25  1  0  0  0  0
 17 28  1  0  0  0  0
 18  1  1  0  0  0  0
 19  5  1  0  0  0  0
 20 18  2  0  0  0  0
 20 13  1  0  0  0  0
 21 26  1  0  0  0  0
 22 10  1  0  0  0  0
 23 21  2  0  0  0  0
 24 22  1  0  0  0  0
 24 13  1  0  0  0  0
 25 14  1  0  0  0  0
 27  2  1  0  0  0  0
 29 28  1  0  0  0  0
 29 32  1  0  0  0  0
 30 33  1  0  0  0  0
 31 33  1  0  0  0  0
 32 31  1  0  0  0  0
 34 32  1  0  0  0  0
 34 30  1  0  0  0  0
M  END
>  <MODEL>
2

>  <REMARK>
 VINA RESULT:      -9.4      2.212      4.308
  Name = 
  3 active torsions:
  status: ('A' for Active; 'I' for Inactive)
    1  A    between atoms: C_17  and  O_28
    2  A    between atoms: O_28  and  C_29
    3  A    between atoms: C_29  and  C_32
                            x       y       z     vdW  Elec       q    Type
                         _______ _______ _______ _____ _____    ______ ____

>  <TORSDO>
F 3

$$$$
=
 OpenBabel11122412053D

 34 40  0  0  1  0  0  0  0  0999 V2000
  184.0310  179.0910  143.9460 C   0  0  2  0  0  3  0  0  0  0  0  0
  181.6190  179.3710  143.3320 C   0  0  0  0  0  2  0  0  0  0  0  0
  190.5060  177.6830  142.4570 C   0  0  2  0  0  3  0  0  0  0  0  0
  186.4550  178.2870  144.3210 C   0  0  0  0  0  0  0  0  0  0  0  0
  187.9210  177.9240  142.3370 C   0  0  0  0  0  0  0  0  0  0  0  0
  189.2360  177.2070  140.4880 O   0  0  0  0  0  0  0  0  0  0  0  0
  191.6480  177.7560  141.5620 N   0  0  0  0  0  1  0  0  0  0  0  0
  189.4960  176.3320  144.3780 C   0  0  0  0  0  2  0  0  0  0  0  0
  183.0520  178.2700  141.6930 C   0  0  2  0  0  3  0  0  0  0  0  0
  182.5480  179.3840  138.7020 C   0  0  0  0  0  2  0  0  0  0  0  0
  186.8680  178.1700  141.5410 C   0  0  0  0  0  3  0  0  0  0  0  0
  188.8380  177.6640  144.7190 C   0  0  0  0  0  2  0  0  0  0  0  0
  184.3800  178.8550  141.1550 C   0  0  1  0  0  3  0  0  0  0  0  0
  180.7850  179.0920  142.1030 C   0  0  0  0  0  2  0  0  0  0  0  0
  187.7500  177.9610  143.7810 N   0  0  0  0  0  0  0  0  0  0  0  0
  190.6800  176.5140  143.4250 C   0  0  0  0  0  2  0  0  0  0  0  0
  181.9450  179.9050  140.0010 C   0  0  2  0  0  3  0  0  0  0  0  0
  185.3450  178.5930  143.3980 C   0  0  0  0  0  0  0  0  0  0  0  0
  189.2170  177.5890  141.6920 C   0  0  0  0  0  0  0  0  0  0  0  0
  185.5290  178.5060  142.0750 C   0  0  0  0  0  0  0  0  0  0  0  0
  184.9550  178.5270  146.1850 C   0  0  0  0  0  3  0  0  0  0  0  0
  184.0690  179.4080  138.7430 C   0  0  0  0  0  2  0  0  0  0  0  0
  186.2430  178.2690  145.6060 N   0  0  0  0  0  0  0  0  0  0  0  0
  184.6200  178.3860  139.7240 C   0  0  0  0  0  2  0  0  0  0  0  0
  181.7630  178.7380  140.9890 C   0  0  1  0  0  3  0  0  0  0  0  0
  183.9090  178.8810  145.4330 C   0  0  0  0  0  3  0  0  0  0  0  0
  182.8350  178.4810  143.2040 C   0  0  1  0  0  3  0  0  0  0  0  0
  180.7130  180.4970  139.7090 O   0  0  0  0  0  0  0  0  0  0  0  0
  180.4840  180.2000  138.3620 C   0  0  0  0  0  2  0  0  0  0  0  0
  179.6330  183.6540  138.1680 O   0  0  0  0  0  0  0  0  0  0  0  0
  180.6180  182.0600  136.7260 C   0  0  0  0  0  2  0  0  0  0  0  0
  179.7330  181.3410  137.7010 C   0  0  2  0  0  3  0  0  0  0  0  0
  180.6970  183.4660  137.2750 C   0  0  0  0  0  2  0  0  0  0  0  0
  179.3990  182.3920  138.7320 C   0  0  0  0  0  2  0  0  0  0  0  0
  1 26  1  1  0  0  0
  3  7  1  6  0  0  0
  3 16  1  0  0  0  0
  4 23  2  0  0  0  0
  5 15  1  0  0  0  0
  6 19  2  0  0  0  0
  8 12  1  0  0  0  0
  9 27  1  0  0  0  0
 10 22  1  0  0  0  0
 10 17  1  0  0  0  0
 11 20  1  0  0  0  0
 11  5  2  0  0  0  0
 13  9  1  0  0  0  0
 13 20  1  0  0  0  0
 14  2  1  0  0  0  0
 15  4  1  0  0  0  0
 15 12  1  0  0  0  0
 16  8  1  0  0  0  0
 17 25  1  0  0  0  0
 18  1  1  0  0  0  0
 18  4  1  0  0  0  0
 19  5  1  0  0  0  0
 19  3  1  0  0  0  0
 20 18  2  0  0  0  0
 22 24  1  0  0  0  0
 23 21  1  0  0  0  0
 24 13  1  0  0  0  0
 25  9  1  0  0  0  0
 25 14  1  0  0  0  0
 26 21  2  0  0  0  0
 27  2  1  0  0  0  0
 27  1  1  0  0  0  0
 28 17  1  0  0  0  0
 29 28  1  0  0  0  0
 30 34  1  0  0  0  0
 31 33  1  0  0  0  0
 31 32  1  0  0  0  0
 32 29  1  0  0  0  0
 32 34  1  0  0  0  0
 33 30  1  0  0  0  0
M  END
>  <MODEL>
3

>  <REMARK>
 VINA RESULT:      -9.4      3.231      9.660
  Name = 
  3 active torsions:
  status: ('A' for Active; 'I' for Inactive)
    1  A    between atoms: C_17  and  O_28
    2  A    between atoms: O_28  and  C_29
    3  A    between atoms: C_29  and  C_32
                            x       y       z     vdW  Elec       q    Type
                         _______ _______ _______ _____ _____    ______ ____

>  <TORSDO>
F 3

$$$$
=
 OpenBabel11122412053D

 34 40  0  0  1  0  0  0  0  0999 V2000
  188.3600  177.1020  137.8990 C   0  0  0  0  0  0  0  0  0  0  0  0
  186.7630  178.1670  139.5070 C   0  0  0  0  0  2  0  0  0  0  0  0
  194.4390  174.5780  136.2240 C   0  0  2  0  0  3  0  0  0  0  0  0
  190.3500  176.4480  136.3890 C   0  0  1  0  0  3  0  0  0  0  0  0
  192.5090  175.8050  137.4580 C   0  0  0  0  0  0  0  0  0  0  0  0
  194.6810  175.5470  138.3960 O   0  0  0  0  0  0  0  0  0  0  0  0
  195.6370  173.8240  136.5550 N   0  0  0  0  0  1  0  0  0  0  0  0
  193.5260  176.3850  134.6640 C   0  0  0  0  0  2  0  0  0  0  0  0
  189.1220  178.1770  140.1290 C   0  0  2  0  0  3  0  0  0  0  0  0
  189.5610  177.3350  143.2180 C   0  0  0  0  0  2  0  0  0  0  0  0
  191.9910  176.1320  138.6520 C   0  0  0  0  0  3  0  0  0  0  0  0
  192.2050  175.6690  134.9140 C   0  0  0  0  0  2  0  0  0  0  0  0
  190.0230  176.9200  140.1740 C   0  0  1  0  0  3  0  0  0  0  0  0
  186.8740  178.7800  140.8840 C   0  0  0  0  0  2  0  0  0  0  0  0
  191.7000  175.9640  136.2590 N   0  0  0  0  0  0  0  0  0  0  0  0
  194.7250  175.5150  135.0510 C   0  0  0  0  0  2  0  0  0  0  0  0
  188.2580  177.3240  142.4290 C   0  0  2  0  0  3  0  0  0  0  0  0
  189.8180  176.7500  137.7330 C   0  0  0  0  0  0  0  0  0  0  0  0
  193.9130  175.3210  137.4180 C   0  0  0  0  0  0  0  0  0  0  0  0
  190.6060  176.6320  138.8090 C   0  0  0  0  0  0  0  0  0  0  0  0
  188.2850  177.2040  135.4160 C   0  0  0  0  0  3  0  0  0  0  0  0
  190.6250  176.4740  142.5530 C   0  0  0  0  0  2  0  0  0  0  0  0
  189.6140  176.6650  135.3380 N   0  0  0  0  0  0  0  0  0  0  0  0
  191.0990  177.0810  141.2430 C   0  0  0  0  0  2  0  0  0  0  0  0
  188.2760  178.4570  141.3870 C   0  0  1  0  0  3  0  0  0  0  0  0
  187.6950  177.4420  136.5910 C   0  0  0  0  0  3  0  0  0  0  0  0
  188.1590  178.2220  138.9280 C   0  0  1  0  0  3  0  0  0  0  0  0
  187.1990  177.4980  143.3250 O   0  0  0  0  0  0  0  0  0  0  0  0
  187.7020  177.0760  144.5590 C   0  0  0  0  0  2  0  0  0  0  0  0
  186.3330  178.7790  147.3730 O   0  0  0  0  0  0  0  0  0  0  0  0
  185.5890  178.2070  145.2040 C   0  0  0  0  0  2  0  0  0  0  0  0
  186.6330  177.2160  145.6280 C   0  0  2  0  0  3  0  0  0  0  0  0
  185.6720  179.2950  146.2490 C   0  0  0  0  0  2  0  0  0  0  0  0
  187.2350  177.8330  146.8670 C   0  0  0  0  0  2  0  0  0  0  0  0
  1 27  1  0  0  0  0
  2 14  1  0  0  0  0
  3  7  1  1  0  0  0
  3 19  1  0  0  0  0
  4 23  1  6  0  0  0
  4 18  1  0  0  0  0
  5 11  2  0  0  0  0
  8 12  1  0  0  0  0
  8 16  1  0  0  0  0
  9 13  1  0  0  0  0
  9 25  1  0  0  0  0
 11 20  1  0  0  0  0
 12 15  1  0  0  0  0
 13 24  1  0  0  0  0
 14 25  1  0  0  0  0
 15  4  1  0  0  0  0
 15  5  1  0  0  0  0
 16  3  1  0  0  0  0
 17 10  1  0  0  0  0
 17 28  1  0  0  0  0
 18  1  1  0  0  0  0
 18 20  2  0  0  0  0
 19  5  1  0  0  0  0
 19  6  2  0  0  0  0
 20 13  1  0  0  0  0
 21 26  1  0  0  0  0
 22 10  1  0  0  0  0
 23 21  2  0  0  0  0
 24 22  1  0  0  0  0
 25 17  1  0  0  0  0
 26  1  2  0  0  0  0
 27  2  1  0  0  0  0
 27  9  1  0  0  0  0
 28 29  1  0  0  0  0
 29 32  1  0  0  0  0
 31 32  1  0  0  0  0
 31 33  1  0  0  0  0
 32 34  1  0  0  0  0
 33 30  1  0  0  0  0
 34 30  1  0  0  0  0
M  END
>  <MODEL>
4

>  <REMARK>
 VINA RESULT:      -9.0      5.352      9.076
  Name = 
  3 active torsions:
  status: ('A' for Active; 'I' for Inactive)
    1  A    between atoms: C_17  and  O_28
    2  A    between atoms: O_28  and  C_29
    3  A    between atoms: C_29  and  C_32
                            x       y       z     vdW  Elec       q    Type
                         _______ _______ _______ _____ _____    ______ ____

>  <TORSDO>
F 3

$$$$
=
 OpenBabel11122412053D

 34 40  0  0  1  0  0  0  0  0999 V2000
  187.0550  178.5480  141.2140 C   0  0  0  0  0  0  0  0  0  0  0  0
  188.6390  177.9930  143.0730 C   0  0  0  0  0  2  0  0  0  0  0  0
  180.8260  179.5440  138.6990 C   0  0  2  0  0  3  0  0  0  0  0  0
  185.1650  178.6260  139.4580 C   0  0  1  0  0  3  0  0  0  0  0  0
  182.8090  178.8720  140.2380 C   0  0  0  0  0  0  0  0  0  0  0  0
  180.5370  178.7300  140.9290 O   0  0  0  0  0  0  0  0  0  0  0  0
  179.4670  180.0440  138.8310 N   0  0  0  0  0  1  0  0  0  0  0  0
  182.2690  177.8540  137.4360 C   0  0  0  0  0  2  0  0  0  0  0  0
  186.2770  177.5240  143.4620 C   0  0  2  0  0  3  0  0  0  0  0  0
  185.3140  178.5040  146.3870 C   0  0  0  0  0  2  0  0  0  0  0  0
  183.2400  178.7660  141.5050 C   0  0  0  0  0  3  0  0  0  0  0  0
  183.3750  178.8580  137.7360 C   0  0  0  0  0  2  0  0  0  0  0  0
  185.1370  178.5540  143.2850 C   0  0  1  0  0  3  0  0  0  0  0  0
  188.4960  177.4870  144.4900 C   0  0  0  0  0  2  0  0  0  0  0  0
  183.7680  178.7930  139.1470 N   0  0  0  0  0  0  0  0  0  0  0  0
  180.8790  178.4720  137.6110 C   0  0  0  0  0  2  0  0  0  0  0  0
  186.6700  178.7330  145.7310 C   0  0  2  0  0  3  0  0  0  0  0  0
  185.5860  178.5600  140.8710 C   0  0  0  0  0  0  0  0  0  0  0  0
  181.3500  179.0350  140.0110 C   0  0  0  0  0  0  0  0  0  0  0  0
  184.6700  178.5930  141.8470 C   0  0  0  0  0  0  0  0  0  0  0  0
  187.4410  178.2570  138.7750 C   0  0  0  0  0  3  0  0  0  0  0  0
  184.1810  179.0550  145.5340 C   0  0  0  0  0  2  0  0  0  0  0  0
  186.0480  178.4870  138.5120 N   0  0  0  0  0  0  0  0  0  0  0  0
  183.9990  178.2530  144.2560 C   0  0  0  0  0  2  0  0  0  0  0  0
  187.0090  177.5390  144.8180 C   0  0  1  0  0  3  0  0  0  0  0  0
  187.9250  178.2530  140.0210 C   0  0  0  0  0  3  0  0  0  0  0  0
  187.3620  177.5880  142.3710 C   0  0  1  0  0  3  0  0  0  0  0  0
  187.6300  178.8680  146.7380 O   0  0  0  0  0  0  0  0  0  0  0  0
  187.1470  178.0960  147.7980 C   0  0  0  0  0  2  0  0  0  0  0  0
  190.0970  176.1010  147.6830 O   0  0  0  0  0  0  0  0  0  0  0  0
  189.5300  178.2570  148.4690 C   0  0  0  0  0  2  0  0  0  0  0  0
  188.2990  177.3990  148.4970 C   0  0  2  0  0  3  0  0  0  0  0  0
  190.5300  177.4340  147.6910 C   0  0  0  0  0  2  0  0  0  0  0  0
  188.6970  176.1700  147.7170 C   0  0  0  0  0  2  0  0  0  0  0  0
  1 27  1  0  0  0  0
  2 14  1  0  0  0  0
  3  7  1  1  0  0  0
  3 19  1  0  0  0  0
  4 23  1  6  0  0  0
  4 18  1  0  0  0  0
  5 11  2  0  0  0  0
  8 16  1  0  0  0  0
  8 12  1  0  0  0  0
  9 25  1  0  0  0  0
 11 20  1  0  0  0  0
 12 15  1  0  0  0  0
 13  9  1  0  0  0  0
 13 24  1  0  0  0  0
 14 25  1  0  0  0  0
 15  4  1  0  0  0  0
 15  5  1  0  0  0  0
 16  3  1  0  0  0  0
 17 10  1  0  0  0  0
 17 28  1  0  0  0  0
 18  1  1  0  0  0  0
 18 20  2  0  0  0  0
 19  5  1  0  0  0  0
 19  6  2  0  0  0  0
 20 13  1  0  0  0  0
 21 26  1  0  0  0  0
 22 10  1  0  0  0  0
 23 21  2  0  0  0  0
 24 22  1  0  0  0  0
 25 17  1  0  0  0  0
 26  1  2  0  0  0  0
 27  2  1  0  0  0  0
 27  9  1  0  0  0  0
 28 29  1  0  0  0  0
 29 32  1  0  0  0  0
 30 33  1  0  0  0  0
 30 34  1  0  0  0  0
 31 32  1  0  0  0  0
 33 31  1  0  0  0  0
 34 32  1  0  0  0  0
M  END
>  <MODEL>
5

>  <REMARK>
 VINA RESULT:      -8.9      1.781      2.453
  Name = 
  3 active torsions:
  status: ('A' for Active; 'I' for Inactive)
    1  A    between atoms: C_17  and  O_28
    2  A    between atoms: O_28  and  C_29
    3  A    between atoms: C_29  and  C_32
                            x       y       z     vdW  Elec       q    Type
                         _______ _______ _______ _____ _____    ______ ____

>  <TORSDO>
F 3

$$$$
=
 OpenBabel11122412053D

 34 40  0  0  1  0  0  0  0  0999 V2000
  189.3630  176.9950  143.4590 C   0  0  2  0  0  3  0  0  0  0  0  0
  191.6810  176.7530  142.5420 C   0  0  0  0  0  2  0  0  0  0  0  0
  182.7900  178.6030  142.8810 C   0  0  2  0  0  3  0  0  0  0  0  0
  187.0160  177.7830  144.1910 C   0  0  0  0  0  0  0  0  0  0  0  0
  185.3380  178.3500  142.4350 C   0  0  0  0  0  0  0  0  0  0  0  0
  183.8320  179.2550  140.8300 O   0  0  0  0  0  0  0  0  0  0  0  0
  181.5500  178.6280  142.1230 N   0  0  0  0  0  1  0  0  0  0  0  0
  184.0440  179.7530  144.7890 C   0  0  0  0  0  2  0  0  0  0  0  0
  190.0910  178.0200  141.1950 C   0  0  2  0  0  3  0  0  0  0  0  0
  190.2210  177.1950  138.0730 C   0  0  0  0  0  2  0  0  0  0  0  0
  186.2860  178.1720  141.5020 C   0  0  0  0  0  3  0  0  0  0  0  0
  184.7090  178.3890  144.9220 C   0  0  0  0  0  2  0  0  0  0  0  0
  188.6970  177.5030  140.7640 C   0  0  1  0  0  3  0  0  0  0  0  0
  192.3720  177.1410  141.2560 C   0  0  0  0  0  2  0  0  0  0  0  0
  185.6740  178.1720  143.8400 N   0  0  0  0  0  0  0  0  0  0  0  0
  182.7530  179.6760  143.9680 C   0  0  0  0  0  2  0  0  0  0  0  0
  190.9590  176.5460  139.2370 C   0  0  2  0  0  3  0  0  0  0  0  0
  188.0050  177.5570  143.1190 C   0  0  0  0  0  0  0  0  0  0  0  0
  183.9830  178.7590  141.9820 C   0  0  0  0  0  0  0  0  0  0  0  0
  187.6710  177.7730  141.8400 C   0  0  0  0  0  0  0  0  0  0  0  0
  188.7170  177.3500  145.8340 C   0  0  0  0  0  3  0  0  0  0  0  0
  188.7150  177.1820  138.2900 C   0  0  0  0  0  2  0  0  0  0  0  0
  187.3760  177.6760  145.4370 N   0  0  0  0  0  0  0  0  0  0  0  0
  188.3030  178.1100  139.4210 C   0  0  0  0  0  2  0  0  0  0  0  0
  191.2790  177.6100  140.3030 C   0  0  1  0  0  3  0  0  0  0  0  0
  189.6610  177.0600  144.9340 C   0  0  0  0  0  3  0  0  0  0  0  0
  190.4770  177.6630  142.6420 C   0  0  1  0  0  3  0  0  0  0  0  0
  192.1370  175.9730  138.7470 O   0  0  0  0  0  0  0  0  0  0  0  0
  191.7150  175.0740  137.7640 C   0  0  0  0  0  2  0  0  0  0  0  0
  195.0560  175.6280  136.6570 O   0  0  0  0  0  0  0  0  0  0  0  0
  193.7900  173.7680  137.3820 C   0  0  0  0  0  2  0  0  0  0  0  0
  192.8540  174.7880  136.8020 C   0  0  2  0  0  3  0  0  0  0  0  0
  195.1060  174.5030  137.4920 C   0  0  0  0  0  2  0  0  0  0  0  0
  193.7110  176.0210  136.6500 C   0  0  0  0  0  2  0  0  0  0  0  0
  1 26  1  1  0  0  0
  2 27  1  0  0  0  0
  3  7  1  6  0  0  0
  3 16  1  0  0  0  0
  4 23  2  0  0  0  0
  5 15  1  0  0  0  0
  6 19  2  0  0  0  0
  8 12  1  0  0  0  0
  9 27  1  0  0  0  0
 10 22  1  0  0  0  0
 10 17  1  0  0  0  0
 11 20  1  0  0  0  0
 11  5  2  0  0  0  0
 13  9  1  0  0  0  0
 13 20  1  0  0  0  0
 14  2  1  0  0  0  0
 15  4  1  0  0  0  0
 15 12  1  0  0  0  0
 16  8  1  0  0  0  0
 17 25  1  0  0  0  0
 18  1  1  0  0  0  0
 18  4  1  0  0  0  0
 19  5  1  0  0  0  0
 19  3  1  0  0  0  0
 20 18  2  0  0  0  0
 22 24  1  0  0  0  0
 23 21  1  0  0  0  0
 24 13  1  0  0  0  0
 25  9  1  0  0  0  0
 25 14  1  0  0  0  0
 26 21  2  0  0  0  0
 27  1  1  0  0  0  0
 28 17  1  0  0  0  0
 29 28  1  0  0  0  0
 30 33  1  0  0  0  0
 31 33  1  0  0  0  0
 32 31  1  0  0  0  0
 32 29  1  0  0  0  0
 34 30  1  0  0  0  0
 34 32  1  0  0  0  0
M  END
>  <MODEL>
6

>  <REMARK>
 VINA RESULT:      -8.7      4.417      6.458
  Name = 
  3 active torsions:
  status: ('A' for Active; 'I' for Inactive)
    1  A    between atoms: C_17  and  O_28
    2  A    between atoms: O_28  and  C_29
    3  A    between atoms: C_29  and  C_32
                            x       y       z     vdW  Elec       q    Type
                         _______ _______ _______ _____ _____    ______ ____

>  <TORSDO>
F 3

$$$$
=
 OpenBabel11122412053D

 34 40  0  0  1  0  0  0  0  0999 V2000
  190.0710  176.5580  141.6260 C   0  0  2  0  0  3  0  0  0  0  0  0
  190.9150  176.6600  139.2710 C   0  0  0  0  0  2  0  0  0  0  0  0
  185.5650  178.0490  146.4850 C   0  0  2  0  0  3  0  0  0  0  0  0
  189.1770  177.0300  144.0020 C   0  0  0  0  0  0  0  0  0  0  0  0
  186.9000  178.0160  144.2550 C   0  0  0  0  0  0  0  0  0  0  0  0
  184.9100  179.2880  144.5470 O   0  0  0  0  0  0  0  0  0  0  0  0
  184.1950  178.2480  146.9300 N   0  0  0  0  0  1  0  0  0  0  0  0
  187.9930  178.6520  147.0080 C   0  0  0  0  0  2  0  0  0  0  0  0
  189.1230  178.2050  139.8670 C   0  0  2  0  0  3  0  0  0  0  0  0
  186.8080  178.3010  137.6130 C   0  0  0  0  0  2  0  0  0  0  0  0
  186.8280  178.1400  142.9210 C   0  0  0  0  0  3  0  0  0  0  0  0
  188.2750  177.3290  146.3090 C   0  0  0  0  0  2  0  0  0  0  0  0
  187.7830  177.7860  140.5180 C   0  0  1  0  0  3  0  0  0  0  0  0
  190.5250  177.4190  138.0230 C   0  0  0  0  0  2  0  0  0  0  0  0
  188.1010  177.4590  144.8590 N   0  0  0  0  0  0  0  0  0  0  0  0
  186.5260  178.7690  147.4300 C   0  0  0  0  0  2  0  0  0  0  0  0
  188.0160  177.3740  137.6650 C   0  0  2  0  0  3  0  0  0  0  0  0
  189.0240  177.1490  142.5390 C   0  0  0  0  0  0  0  0  0  0  0  0
  185.7460  178.4910  145.0610 C   0  0  0  0  0  0  0  0  0  0  0  0
  187.9220  177.7070  142.0210 C   0  0  0  0  0  0  0  0  0  0  0  0
  191.4140  176.2060  143.6890 C   0  0  0  0  0  3  0  0  0  0  0  0
  185.9550  178.1790  138.8660 C   0  0  0  0  0  2  0  0  0  0  0  0
  190.2930  176.5860  144.5030 N   0  0  0  0  0  0  0  0  0  0  0  0
  186.6690  178.7350  140.0870 C   0  0  0  0  0  2  0  0  0  0  0  0
  189.1980  178.1020  138.3300 C   0  0  1  0  0  3  0  0  0  0  0  0
  191.3430  176.2130  142.3550 C   0  0  0  0  0  3  0  0  0  0  0  0
  190.3540  177.4660  140.4220 C   0  0  1  0  0  3  0  0  0  0  0  0
  188.3430  177.0010  136.3570 O   0  0  0  0  0  0  0  0  0  0  0  0
  187.5140  175.9110  136.0790 C   0  0  0  0  0  2  0  0  0  0  0  0
  186.7570  172.6930  137.4080 O   0  0  0  0  0  0  0  0  0  0  0  0
  188.7200  173.8810  136.8410 C   0  0  0  0  0  2  0  0  0  0  0  0
  187.6430  174.8700  137.1760 C   0  0  2  0  0  3  0  0  0  0  0  0
  187.9890  172.5620  136.7520 C   0  0  0  0  0  2  0  0  0  0  0  0
  186.3880  174.0340  137.2310 C   0  0  0  0  0  2  0  0  0  0  0  0
  1 26  1  1  0  0  0
  1 18  1  0  0  0  0
  2 27  1  0  0  0  0
  3  7  1  1  0  0  0
  3 16  1  0  0  0  0
  4 23  2  0  0  0  0
  4 15  1  0  0  0  0
  5 15  1  0  0  0  0
  5 19  1  0  0  0  0
  6 19  2  0  0  0  0
  8 16  1  0  0  0  0
  9 27  1  0  0  0  0
  9 13  1  0  0  0  0
 10 17  1  0  0  0  0
 10 22  1  0  0  0  0
 11  5  2  0  0  0  0
 12  8  1  0  0  0  0
 13 20  1  0  0  0  0
 14 25  1  0  0  0  0
 14  2  1  0  0  0  0
 15 12  1  0  0  0  0
 17 25  1  0  0  0  0
 18  4  1  0  0  0  0
 19  3  1  0  0  0  0
 20 18  2  0  0  0  0
 20 11  1  0  0  0  0
 21 23  1  0  0  0  0
 22 24  1  0  0  0  0
 24 13  1  0  0  0  0
 25  9  1  0  0  0  0
 26 21  2  0  0  0  0
 27  1  1  0  0  0  0
 28 17  1  0  0  0  0
 29 28  1  0  0  0  0
 29 32  1  0  0  0  0
 31 32  1  0  0  0  0
 32 34  1  0  0  0  0
 33 31  1  0  0  0  0
 33 30  1  0  0  0  0
 34 30  1  0  0  0  0
M  END
>  <MODEL>
7

>  <REMARK>
 VINA RESULT:      -8.6      4.249      7.557
  Name = 
  3 active torsions:
  status: ('A' for Active; 'I' for Inactive)
    1  A    between atoms: C_17  and  O_28
    2  A    between atoms: O_28  and  C_29
    3  A    between atoms: C_29  and  C_32
                            x       y       z     vdW  Elec       q    Type
                         _______ _______ _______ _____ _____    ______ ____

>  <TORSDO>
F 3

$$$$
=
 OpenBabel11122412053D

 34 40  0  0  1  0  0  0  0  0999 V2000
  187.1930  177.7150  140.0510 C   0  0  2  0  0  3  0  0  0  0  0  0
  185.2330  178.4850  138.6950 C   0  0  0  0  0  2  0  0  0  0  0  0
  190.4450  176.7500  145.9350 C   0  0  2  0  0  3  0  0  0  0  0  0
  189.1840  177.4550  141.6740 C   0  0  0  0  0  0  0  0  0  0  0  0
  188.7540  177.5430  144.1280 C   0  0  0  0  0  0  0  0  0  0  0  0
  188.4650  177.9880  146.4480 O   0  0  0  0  0  0  0  0  0  0  0  0
  190.4440  176.3900  147.3430 N   0  0  0  0  0  1  0  0  0  0  0  0
  191.7400  178.0550  144.1600 C   0  0  0  0  0  2  0  0  0  0  0  0
  185.3090  179.2010  141.0270 C   0  0  2  0  0  3  0  0  0  0  0  0
  182.4470  178.8650  142.4890 C   0  0  0  0  0  2  0  0  0  0  0  0
  187.4730  177.8520  143.8710 C   0  0  0  0  0  3  0  0  0  0  0  0
  191.1000  177.0430  143.2180 C   0  0  0  0  0  2  0  0  0  0  0  0
  185.4810  178.2470  142.2320 C   0  0  1  0  0  3  0  0  0  0  0  0
  183.9670  179.2580  138.9830 C   0  0  0  0  0  2  0  0  0  0  0  0
  189.6780  177.3410  143.0230 N   0  0  0  0  0  0  0  0  0  0  0  0
  191.6810  177.5900  145.6170 C   0  0  0  0  0  2  0  0  0  0  0  0
  182.8310  178.4130  141.0860 C   0  0  2  0  0  3  0  0  0  0  0  0
  187.7560  177.7520  141.4510 C   0  0  0  0  0  0  0  0  0  0  0  0
  189.1760  177.4540  145.5500 C   0  0  0  0  0  0  0  0  0  0  0  0
  186.9450  177.9740  142.4930 C   0  0  0  0  0  0  0  0  0  0  0  0
  189.5540  177.5110  139.2980 C   0  0  0  0  0  3  0  0  0  0  0  0
  183.3580  178.2530  143.5420 C   0  0  0  0  0  2  0  0  0  0  0  0
  189.9900  177.3450  140.6570 N   0  0  0  0  0  0  0  0  0  0  0  0
  184.7690  178.8120  143.4570 C   0  0  0  0  0  2  0  0  0  0  0  0
  183.8730  179.3840  140.4980 C   0  0  1  0  0  3  0  0  0  0  0  0
  188.2680  177.7130  138.9960 C   0  0  0  0  0  3  0  0  0  0  0  0
  186.1880  178.8490  139.8110 C   0  0  1  0  0  3  0  0  0  0  0  0
  181.6770  178.3950  140.2970 O   0  0  0  0  0  0  0  0  0  0  0  0
  180.6970  179.0060  141.0840 C   0  0  0  0  0  2  0  0  0  0  0  0
  179.2630  182.0340  139.8720 O   0  0  0  0  0  0  0  0  0  0  0  0
  180.3560  180.1680  138.9180 C   0  0  0  0  0  2  0  0  0  0  0  0
  179.7040  179.7370  140.1990 C   0  0  2  0  0  3  0  0  0  0  0  0
  180.2520  181.6750  138.9450 C   0  0  0  0  0  2  0  0  0  0  0  0
  179.3010  181.0350  140.8550 C   0  0  0  0  0  2  0  0  0  0  0  0
  1 26  1  6  0  0  0
  1 18  1  0  0  0  0
  2 14  1  0  0  0  0
  2 27  1  0  0  0  0
  3  7  1  1  0  0  0
  4 15  1  0  0  0  0
  5 19  1  0  0  0  0
  8 16  1  0  0  0  0
  9 13  1  0  0  0  0
 10 22  1  0  0  0  0
 11  5  2  0  0  0  0
 12  8  1  0  0  0  0
 13 20  1  0  0  0  0
 13 24  1  0  0  0  0
 14 25  1  0  0  0  0
 15 12  1  0  0  0  0
 15  5  1  0  0  0  0
 16  3  1  0  0  0  0
 17 10  1  0  0  0  0
 18  4  1  0  0  0  0
 18 20  2  0  0  0  0
 19  3  1  0  0  0  0
 19  6  2  0  0  0  0
 20 11  1  0  0  0  0
 21 23  1  0  0  0  0
 23  4  2  0  0  0  0
 24 22  1  0  0  0  0
 25  9  1  0  0  0  0
 25 17  1  0  0  0  0
 26 21  2  0  0  0  0
 27  1  1  0  0  0  0
 27  9  1  0  0  0  0
 28 29  1  0  0  0  0
 28 17  1  0  0  0  0
 30 34  1  0  0  0  0
 31 33  1  0  0  0  0
 31 32  1  0  0  0  0
 32 34  1  0  0  0  0
 32 29  1  0  0  0  0
 33 30  1  0  0  0  0
M  END
>  <MODEL>
8

>  <REMARK>
 VINA RESULT:      -8.5      3.030      8.860
  Name = 
  3 active torsions:
  status: ('A' for Active; 'I' for Inactive)
    1  A    between atoms: C_17  and  O_28
    2  A    between atoms: O_28  and  C_29
    3  A    between atoms: C_29  and  C_32
                            x       y       z     vdW  Elec       q    Type
                         _______ _______ _______ _____ _____    ______ ____

>  <TORSDO>
F 3

$$$$
=
 OpenBabel11122412053D

 34 40  0  0  1  0  0  0  0  0999 V2000
  187.6800  177.5050  141.1330 C   0  0  2  0  0  3  0  0  0  0  0  0
  186.4930  178.1390  139.0200 C   0  0  0  0  0  2  0  0  0  0  0  0
  188.1560  177.1270  147.8970 C   0  0  2  0  0  3  0  0  0  0  0  0
  188.8070  177.4050  143.4540 C   0  0  0  0  0  0  0  0  0  0  0  0
  187.4010  177.7380  145.4870 C   0  0  0  0  0  0  0  0  0  0  0  0
  186.1960  178.4130  147.4240 O   0  0  0  0  0  0  0  0  0  0  0  0
  187.5550  176.9090  149.2030 N   0  0  0  0  0  1  0  0  0  0  0  0
  190.1250  178.2470  146.7130 C   0  0  0  0  0  2  0  0  0  0  0  0
  185.6270  179.0830  141.0960 C   0  0  2  0  0  3  0  0  0  0  0  0
  182.4040  178.8980  141.2570 C   0  0  0  0  0  2  0  0  0  0  0  0
  186.3570  178.0220  144.6930 C   0  0  0  0  0  3  0  0  0  0  0  0
  189.8900  177.1460  145.6860 C   0  0  0  0  0  2  0  0  0  0  0  0
  185.2430  178.2540  142.3440 C   0  0  1  0  0  3  0  0  0  0  0  0
  185.2560  178.9380  138.6830 C   0  0  0  0  0  2  0  0  0  0  0  0
  188.6910  177.4260  144.8890 N   0  0  0  0  0  0  0  0  0  0  0  0
  189.4470  177.9290  148.0490 C   0  0  0  0  0  2  0  0  0  0  0  0
  183.3160  178.3080  140.1880 C   0  0  2  0  0  3  0  0  0  0  0  0
  187.6130  177.6810  142.6300 C   0  0  0  0  0  0  0  0  0  0  0  0
  187.1920  177.7910  146.9560 C   0  0  0  0  0  0  0  0  0  0  0  0
  186.4540  178.0070  143.2150 C   0  0  0  0  0  0  0  0  0  0  0  0
  190.1290  177.2240  141.4540 C   0  0  0  0  0  3  0  0  0  0  0  0
  182.7700  178.3930  142.6440 C   0  0  0  0  0  2  0  0  0  0  0  0
  189.9550  177.1940  142.8790 N   0  0  0  0  0  0  0  0  0  0  0  0
  184.1110  178.9390  143.1040 C   0  0  0  0  0  2  0  0  0  0  0  0
  184.5480  179.2140  140.0030 C   0  0  1  0  0  3  0  0  0  0  0  0
  189.0940  177.3960  140.6270 C   0  0  0  0  0  3  0  0  0  0  0  0
  186.9140  178.6100  140.3950 C   0  0  1  0  0  3  0  0  0  0  0  0
  182.5930  178.2140  138.9950 O   0  0  0  0  0  0  0  0  0  0  0  0
  181.5400  179.1200  139.1420 C   0  0  0  0  0  2  0  0  0  0  0  0
  179.8650  181.5980  137.2060 O   0  0  0  0  0  0  0  0  0  0  0  0
  181.9310  181.4370  138.3440 C   0  0  0  0  0  2  0  0  0  0  0  0
  181.4930  180.0570  137.9490 C   0  0  2  0  0  3  0  0  0  0  0  0
  180.7160  182.2950  138.0750 C   0  0  0  0  0  2  0  0  0  0  0  0
  180.0620  180.2430  137.5070 C   0  0  0  0  0  2  0  0  0  0  0  0
  1 26  1  6  0  0  0
  1 18  1  0  0  0  0
  2 27  1  0  0  0  0
  3 16  1  0  0  0  0
  3  7  1  1  0  0  0
  4 15  1  0  0  0  0
  5 19  1  0  0  0  0
  8 16  1  0  0  0  0
  9 13  1  0  0  0  0
 10 22  1  0  0  0  0
 11  5  2  0  0  0  0
 12  8  1  0  0  0  0
 13 24  1  0  0  0  0
 13 20  1  0  0  0  0
 14  2  1  0  0  0  0
 14 25  1  0  0  0  0
 15  5  1  0  0  0  0
 15 12  1  0  0  0  0
 17 10  1  0  0  0  0
 18 20  2  0  0  0  0
 18  4  1  0  0  0  0
 19  6  2  0  0  0  0
 19  3  1  0  0  0  0
 20 11  1  0  0  0  0
 21 23  1  0  0  0  0
 22 24  1  0  0  0  0
 23  4  2  0  0  0  0
 25 17  1  0  0  0  0
 25  9  1  0  0  0  0
 26 21  2  0  0  0  0
 27  9  1  0  0  0  0
 27  1  1  0  0  0  0
 28 29  1  0  0  0  0
 28 17  1  0  0  0  0
 30 34  1  0  0  0  0
 30 33  1  0  0  0  0
 32 31  1  0  0  0  0
 32 29  1  0  0  0  0
 33 31  1  0  0  0  0
 34 32  1  0  0  0  0
M  END
>  <MODEL>
9

>  <REMARK>
 VINA RESULT:      -8.5      3.248      8.736
  Name = 
  3 active torsions:
  status: ('A' for Active; 'I' for Inactive)
    1  A    between atoms: C_17  and  O_28
    2  A    between atoms: O_28  and  C_29
    3  A    between atoms: C_29  and  C_32
                            x       y       z     vdW  Elec       q    Type
                         _______ _______ _______ _____ _____    ______ ____

>  <TORSDO>
F 3

$$$$
