=
 OpenBabel11122411533D

 28 31  0  0  1  0  0  0  0  0999 V2000
  183.0330  175.6480  138.2240 C   0  0  0  0  0  0  0  0  0  0  0  0
  184.2230  177.4500  141.3240 O   0  0  0  0  0  0  0  0  0  0  0  0
  185.4140  176.0200  136.7890 C   0  0  0  0  0  3  0  0  0  0  0  0
  181.7750  175.4060  138.9980 C   0  0  0  0  0  2  0  0  0  0  0  0
  184.3160  179.7070  140.3460 O   0  0  0  0  0  0  0  0  0  0  0  0
  183.4110  178.6370  140.8900 S   0  0  0  0  0  0  0  0  0  0  0  0
  181.0320  178.7420  142.1970 C   0  0  1  0  0  3  0  0  0  0  0  0
  182.2390  178.1510  139.7120 N   0  0  1  0  0  0  0  0  0  0  0  0
  180.9860  174.9200  135.8520 C   0  0  0  0  0  1  0  0  0  0  0  0
  181.5970  178.6810  137.4930 C   0  0  2  0  0  3  0  0  0  0  0  0
  180.2910  179.0840  140.8870 C   0  0  0  0  0  2  0  0  0  0  0  0
  182.4700  179.2780  142.2710 C   0  0  0  0  0  2  0  0  0  0  0  0
  180.1870  175.2650  137.0250 N   0  0  0  0  0  0  0  0  0  0  0  0
  183.4900  176.9580  137.9380 C   0  0  0  0  0  0  0  0  0  0  0  0
  180.2670  179.2270  143.3310 N   0  0  0  0  0  1  0  0  0  0  0  0
  179.9700  176.7110  137.2220 C   0  0  0  0  0  2  0  0  0  0  0  0
  184.6740  177.1260  137.2120 C   0  0  0  0  0  3  0  0  0  0  0  0
  183.7930  174.5470  137.8080 C   0  0  0  0  0  3  0  0  0  0  0  0
  184.9760  174.7300  137.0920 C   0  0  0  0  0  3  0  0  0  0  0  0
  180.7330  174.5960  138.2150 C   0  0  0  0  0  2  0  0  0  0  0  0
  180.5800  179.2110  138.4040 N   0  0  0  0  0  0  0  0  0  0  0  0
  181.0140  177.6170  136.5470 C   0  0  1  0  0  3  0  0  0  0  0  0
  181.2490  179.2110  139.6990 C   0  0  2  0  0  3  0  0  0  0  0  0
  182.7670  178.2160  138.3650 C   0  0  2  0  0  3  0  0  0  0  0  0
  181.5190  178.6670  134.6630 C   0  0  0  0  0  1  0  0  0  0  0  0
  180.4380  178.2380  135.4370 O   0  0  0  0  0  0  0  0  0  0  0  0
  180.3610  180.6020  138.0400 C   0  0  0  0  0  2  0  0  0  0  0  0
  181.5830  181.4240  138.3990 C   0  0  0  0  0  1  0  0  0  0  0  0
  1  4  1  0  0  0  0
  3 19  2  0  0  0  0
  3 17  1  0  0  0  0
  5  6  2  0  0  0  0
  6  2  2  0  0  0  0
  6 12  1  0  0  0  0
  7 12  1  0  0  0  0
  7 15  1  1  0  0  0
  8  6  1  1  0  0  0
  9 13  1  0  0  0  0
 10 24  1  0  0  0  0
 10 21  1  1  0  0  0
 11  7  1  0  0  0  0
 13 16  1  0  0  0  0
 13 20  1  0  0  0  0
 14  1  1  0  0  0  0
 17 14  2  0  0  0  0
 18  1  2  0  0  0  0
 19 18  1  0  0  0  0
 20  4  1  0  0  0  0
 21 23  1  0  0  0  0
 22 26  1  6  0  0  0
 22 16  1  0  0  0  0
 22 10  1  0  0  0  0
 23  8  1  0  0  0  0
 23 11  1  1  0  0  0
 24 14  1  6  0  0  0
 24  8  1  0  0  0  0
 25 26  1  0  0  0  0
 27 28  1  0  0  0  0
 27 21  1  0  0  0  0
M  END
>  <MODEL>
1

>  <REMARK>
 VINA RESULT:      -4.3      0.000      0.000
  Name = 
  2 active torsions:
  status: ('A' for Active; 'I' for Inactive)
    1  A    between atoms: C_5  and  N_24
    2  A    between atoms: O_17  and  C_25
                            x       y       z     vdW  Elec       q    Type
                         _______ _______ _______ _____ _____    ______ ____

>  <TORSDO>
F 2

$$$$
=
 OpenBabel11122411533D

 28 31  0  0  1  0  0  0  0  0999 V2000
  181.0900  179.0910  137.8760 C   0  0  0  0  0  0  0  0  0  0  0  0
  184.5320  180.0560  139.1000 O   0  0  0  0  0  0  0  0  0  0  0  0
  179.8710  179.2610  140.3960 C   0  0  0  0  0  3  0  0  0  0  0  0
  181.7210  179.0410  136.5200 C   0  0  0  0  0  2  0  0  0  0  0  0
  184.9630  178.0250  140.4230 O   0  0  0  0  0  0  0  0  0  0  0  0
  184.9110  178.6030  139.0360 S   0  0  0  0  0  0  0  0  0  0  0  0
  186.2880  178.0360  136.7650 C   0  0  1  0  0  3  0  0  0  0  0  0
  183.7850  177.7420  138.0420 N   0  0  1  0  0  0  0  0  0  0  0  0
  178.9310  177.3390  136.2590 C   0  0  0  0  0  1  0  0  0  0  0  0
  182.3070  175.8950  138.1880 C   0  0  2  0  0  3  0  0  0  0  0  0
  185.4670  176.7460  136.5520 C   0  0  0  0  0  2  0  0  0  0  0  0
  186.5010  178.4160  138.2370 C   0  0  0  0  0  2  0  0  0  0  0  0
  180.1710  177.3190  135.4890 N   0  0  0  0  0  0  0  0  0  0  0  0
  181.5330  178.2590  138.9330 C   0  0  0  0  0  0  0  0  0  0  0  0
  187.5700  177.9150  136.0960 N   0  0  0  0  0  1  0  0  0  0  0  0
  181.1550  176.3120  135.9290 C   0  0  0  0  0  2  0  0  0  0  0  0
  180.9070  178.3490  140.1820 C   0  0  0  0  0  3  0  0  0  0  0  0
  180.0610  180.0130  138.1080 C   0  0  0  0  0  3  0  0  0  0  0  0
  179.4510  180.0960  139.3600 C   0  0  0  0  0  3  0  0  0  0  0  0
  180.7300  178.6760  135.4070 C   0  0  0  0  0  2  0  0  0  0  0  0
  183.4560  175.5010  137.3680 N   0  0  0  0  0  0  0  0  0  0  0  0
  180.9940  175.8480  137.3860 C   0  0  1  0  0  3  0  0  0  0  0  0
  184.4590  176.5110  137.6800 C   0  0  2  0  0  3  0  0  0  0  0  0
  182.6550  177.2530  138.8040 C   0  0  2  0  0  3  0  0  0  0  0  0
  180.0220  174.3620  138.7100 C   0  0  0  0  0  1  0  0  0  0  0  0
  180.4780  174.5500  137.4040 O   0  0  0  0  0  0  0  0  0  0  0  0
  183.9460  174.2380  137.8960 C   0  0  0  0  0  2  0  0  0  0  0  0
  183.6910  173.1290  136.8930 C   0  0  0  0  0  1  0  0  0  0  0  0
  1 18  2  0  0  0  0
  1 14  1  0  0  0  0
  4  1  1  0  0  0  0
  6  2  2  0  0  0  0
  6  5  2  0  0  0  0
  7 15  1  1  0  0  0
  7 12  1  0  0  0  0
  8 24  1  0  0  0  0
  8  6  1  1  0  0  0
 10 21  1  6  0  0  0
 10 24  1  0  0  0  0
 11  7  1  0  0  0  0
 12  6  1  0  0  0  0
 13 16  1  0  0  0  0
 13  9  1  0  0  0  0
 14 17  2  0  0  0  0
 16 22  1  0  0  0  0
 17  3  1  0  0  0  0
 18 19  1  0  0  0  0
 19  3  2  0  0  0  0
 20 13  1  0  0  0  0
 20  4  1  0  0  0  0
 21 23  1  0  0  0  0
 21 27  1  0  0  0  0
 22 26  1  6  0  0  0
 22 10  1  0  0  0  0
 23 11  1  6  0  0  0
 23  8  1  0  0  0  0
 24 14  1  6  0  0  0
 26 25  1  0  0  0  0
 28 27  1  0  0  0  0
M  END
>  <MODEL>
2

>  <REMARK>
 VINA RESULT:      -4.2      2.133      5.314
  Name = 
  2 active torsions:
  status: ('A' for Active; 'I' for Inactive)
    1  A    between atoms: C_5  and  N_24
    2  A    between atoms: O_17  and  C_25
                            x       y       z     vdW  Elec       q    Type
                         _______ _______ _______ _____ _____    ______ ____

>  <TORSDO>
F 2

$$$$
=
 OpenBabel11122411533D

 28 31  0  0  1  0  0  0  0  0999 V2000
  180.3540  178.4560  138.6220 C   0  0  0  0  0  0  0  0  0  0  0  0
  180.3150  176.1130  135.6590 O   0  0  0  0  0  0  0  0  0  0  0  0
  179.8470  180.7690  137.1190 C   0  0  0  0  0  3  0  0  0  0  0  0
  180.5800  177.2220  139.4390 C   0  0  0  0  0  2  0  0  0  0  0  0
  182.3750  176.9370  134.5940 O   0  0  0  0  0  0  0  0  0  0  0  0
  181.8170  176.0980  135.7100 S   0  0  0  0  0  0  0  0  0  0  0  0
  182.7450  173.8810  136.9740 C   0  0  1  0  0  3  0  0  0  0  0  0
  182.3610  176.6670  137.2520 N   0  0  1  0  0  0  0  0  0  0  0  0
  181.4930  179.7250  141.3500 C   0  0  0  0  0  1  0  0  0  0  0  0
  183.7550  178.3590  138.1520 C   0  0  2  0  0  3  0  0  0  0  0  0
  183.7770  174.7210  137.7570 C   0  0  0  0  0  2  0  0  0  0  0  0
  182.4220  174.4200  135.5730 C   0  0  0  0  0  2  0  0  0  0  0  0
  181.8440  178.3080  141.3500 N   0  0  0  0  0  0  0  0  0  0  0  0
  181.2630  178.8570  137.6130 C   0  0  0  0  0  0  0  0  0  0  0  0
  183.2050  172.5080  136.8810 N   0  0  0  0  0  1  0  0  0  0  0  0
  183.0700  177.9760  140.5990 C   0  0  0  0  0  2  0  0  0  0  0  0
  181.0010  180.0200  136.8790 C   0  0  0  0  0  3  0  0  0  0  0  0
  179.1930  179.2080  138.8430 C   0  0  0  0  0  3  0  0  0  0  0  0
  178.9410  180.3600  138.0980 C   0  0  0  0  0  3  0  0  0  0  0  0
  180.6830  177.5060  140.9430 C   0  0  0  0  0  2  0  0  0  0  0  0
  184.4440  177.0730  138.2930 N   0  0  0  0  0  0  0  0  0  0  0  0
  183.4630  178.9990  139.5210 C   0  0  1  0  0  3  0  0  0  0  0  0
  183.7300  176.2010  137.3680 C   0  0  2  0  0  3  0  0  0  0  0  0
  182.5290  178.1040  137.2690 C   0  0  2  0  0  3  0  0  0  0  0  0
  185.1040  178.9740  141.0090 C   0  0  0  0  0  1  0  0  0  0  0  0
  184.5790  179.7200  139.9510 O   0  0  0  0  0  0  0  0  0  0  0  0
  185.7860  177.2460  137.7620 C   0  0  0  0  0  2  0  0  0  0  0  0
  185.7270  177.3780  136.2520 C   0  0  0  0  0  1  0  0  0  0  0  0
  1 18  1  0  0  0  0
  1  4  1  0  0  0  0
  2  6  2  0  0  0  0
  3 19  1  0  0  0  0
  4 20  1  0  0  0  0
  5  6  2  0  0  0  0
  7 15  1  6  0  0  0
  7 11  1  0  0  0  0
  8  6  1  6  0  0  0
  8 24  1  0  0  0  0
  8 23  1  0  0  0  0
 10 21  1  1  0  0  0
 10 22  1  0  0  0  0
 12  6  1  0  0  0  0
 12  7  1  0  0  0  0
 13  9  1  0  0  0  0
 14  1  2  0  0  0  0
 16 13  1  0  0  0  0
 17  3  2  0  0  0  0
 17 14  1  0  0  0  0
 19 18  2  0  0  0  0
 20 13  1  0  0  0  0
 22 26  1  1  0  0  0
 22 16  1  0  0  0  0
 23 11  1  1  0  0  0
 23 21  1  0  0  0  0
 24 14  1  1  0  0  0
 24 10  1  0  0  0  0
 26 25  1  0  0  0  0
 27 21  1  0  0  0  0
 28 27  1  0  0  0  0
M  END
>  <MODEL>
3

>  <REMARK>
 VINA RESULT:      -3.9      2.151      5.892
  Name = 
  2 active torsions:
  status: ('A' for Active; 'I' for Inactive)
    1  A    between atoms: C_5  and  N_24
    2  A    between atoms: O_17  and  C_25
                            x       y       z     vdW  Elec       q    Type
                         _______ _______ _______ _____ _____    ______ ____

>  <TORSDO>
F 2

$$$$
=
 OpenBabel11122411533D

 28 31  0  0  1  0  0  0  0  0999 V2000
  179.7980  179.6440  138.8910 C   0  0  0  0  0  0  0  0  0  0  0  0
  179.2250  178.7300  135.2700 O   0  0  0  0  0  0  0  0  0  0  0  0
  180.8560  182.1830  138.3450 C   0  0  0  0  0  3  0  0  0  0  0  0
  179.1920  178.3090  139.1960 C   0  0  0  0  0  2  0  0  0  0  0  0
  181.5940  178.5720  134.6200 O   0  0  0  0  0  0  0  0  0  0  0  0
  180.4650  177.8840  135.3360 S   0  0  0  0  0  0  0  0  0  0  0  0
  179.8590  175.2630  135.7030 C   0  0  1  0  0  3  0  0  0  0  0  0
  180.8750  177.5650  136.9870 N   0  0  1  0  0  0  0  0  0  0  0  0
  180.8030  179.1890  141.9130 C   0  0  0  0  0  1  0  0  0  0  0  0
  182.6990  177.8540  138.4730 C   0  0  2  0  0  3  0  0  0  0  0  0
  180.9770  175.1190  136.7580 C   0  0  0  0  0  2  0  0  0  0  0  0
  180.1590  176.2840  134.5970 C   0  0  0  0  0  2  0  0  0  0  0  0
  180.3860  177.8900  141.3930 N   0  0  0  0  0  0  0  0  0  0  0  0
  180.9770  179.7660  138.1170 C   0  0  0  0  0  0  0  0  0  0  0  0
  179.5740  173.9670  135.1150 N   0  0  0  0  0  1  0  0  0  0  0  0
  181.4070  177.1880  140.5920 C   0  0  0  0  0  2  0  0  0  0  0  0
  181.4980  181.0400  137.8620 C   0  0  0  0  0  3  0  0  0  0  0  0
  179.1540  180.7980  139.3560 C   0  0  0  0  0  3  0  0  0  0  0  0
  179.6820  182.0620  139.0880 C   0  0  0  0  0  3  0  0  0  0  0  0
  179.0970  178.0200  140.7000 C   0  0  0  0  0  2  0  0  0  0  0  0
  182.6010  176.4320  138.1380 N   0  0  0  0  0  0  0  0  0  0  0  0
  182.4820  178.1000  139.9770 C   0  0  1  0  0  3  0  0  0  0  0  0
  181.7630  176.4190  136.9450 C   0  0  2  0  0  3  0  0  0  0  0  0
  181.7340  178.5920  137.5390 C   0  0  2  0  0  3  0  0  0  0  0  0
  184.4830  179.0030  140.2730 C   0  0  0  0  0  1  0  0  0  0  0  0
  183.6860  177.9240  140.6610 O   0  0  0  0  0  0  0  0  0  0  0  0
  183.9270  175.9950  137.7300 C   0  0  0  0  0  2  0  0  0  0  0  0
  184.6470  177.1300  137.0290 C   0  0  0  0  0  1  0  0  0  0  0  0
  1  4  1  0  0  0  0
  1 18  1  0  0  0  0
  2  6  2  0  0  0  0
  3 19  1  0  0  0  0
  4 20  1  0  0  0  0
  5  6  2  0  0  0  0
  7 15  1  6  0  0  0
  7 11  1  0  0  0  0
  8  6  1  6  0  0  0
  8 24  1  0  0  0  0
 10 21  1  1  0  0  0
 10 22  1  0  0  0  0
 12  6  1  0  0  0  0
 12  7  1  0  0  0  0
 13  9  1  0  0  0  0
 14  1  2  0  0  0  0
 16 13  1  0  0  0  0
 17 14  1  0  0  0  0
 17  3  2  0  0  0  0
 19 18  2  0  0  0  0
 20 13  1  0  0  0  0
 22 16  1  0  0  0  0
 22 26  1  1  0  0  0
 23 11  1  1  0  0  0
 23  8  1  0  0  0  0
 23 21  1  0  0  0  0
 24 14  1  1  0  0  0
 24 10  1  0  0  0  0
 25 26  1  0  0  0  0
 27 21  1  0  0  0  0
 28 27  1  0  0  0  0
M  END
>  <MODEL>
4

>  <REMARK>
 VINA RESULT:      -3.7      1.985      6.000
  Name = 
  2 active torsions:
  status: ('A' for Active; 'I' for Inactive)
    1  A    between atoms: C_5  and  N_24
    2  A    between atoms: O_17  and  C_25
                            x       y       z     vdW  Elec       q    Type
                         _______ _______ _______ _____ _____    ______ ____

>  <TORSDO>
F 2

$$$$
=
 OpenBabel11122411533D

 28 31  0  0  1  0  0  0  0  0999 V2000
  182.9680  177.6660  137.9480 C   0  0  0  0  0  0  0  0  0  0  0  0
  181.4270  179.2270  134.8720 O   0  0  0  0  0  0  0  0  0  0  0  0
  181.7610  175.1600  137.5890 C   0  0  0  0  0  3  0  0  0  0  0  0
  183.6530  178.9860  138.1230 C   0  0  0  0  0  2  0  0  0  0  0  0
  179.1010  179.2490  135.6770 O   0  0  0  0  0  0  0  0  0  0  0  0
  180.4440  179.9190  135.7730 S   0  0  0  0  0  0  0  0  0  0  0  0
  181.1760  182.4900  136.2510 C   0  0  1  0  0  3  0  0  0  0  0  0
  181.0300  179.9140  137.4020 N   0  0  1  0  0  0  0  0  0  0  0  0
  183.8290  177.5030  141.0430 C   0  0  0  0  0  1  0  0  0  0  0  0
  180.3460  179.1950  139.5540 C   0  0  2  0  0  3  0  0  0  0  0  0
  180.8400  182.3400  137.7510 C   0  0  0  0  0  2  0  0  0  0  0  0
  180.2990  181.6430  135.3170 C   0  0  0  0  0  2  0  0  0  0  0  0
  183.8960  178.9070  140.6460 N   0  0  0  0  0  0  0  0  0  0  0  0
  181.5560  177.5550  137.9440 C   0  0  0  0  0  0  0  0  0  0  0  0
  181.0950  183.8880  135.8710 N   0  0  0  0  0  1  0  0  0  0  0  0
  182.6080  179.6250  140.6950 C   0  0  0  0  0  2  0  0  0  0  0  0
  180.9700  176.2960  137.7740 C   0  0  0  0  0  3  0  0  0  0  0  0
  183.7510  176.5220  137.7450 C   0  0  0  0  0  3  0  0  0  0  0  0
  183.1520  175.2740  137.5700 C   0  0  0  0  0  3  0  0  0  0  0  0
  184.5750  179.0270  139.3490 C   0  0  0  0  0  2  0  0  0  0  0  0
  180.2540  180.6570  139.5070 N   0  0  0  0  0  0  0  0  0  0  0  0
  181.3640  178.7250  140.6080 C   0  0  1  0  0  3  0  0  0  0  0  0
  180.2810  180.9540  138.0800 C   0  0  2  0  0  3  0  0  0  0  0  0
  180.6170  178.7270  138.1210 C   0  0  2  0  0  3  0  0  0  0  0  0
  179.7120  177.7400  141.7050 C   0  0  0  0  0  1  0  0  0  0  0  0
  180.7500  178.6600  141.8600 O   0  0  0  0  0  0  0  0  0  0  0  0
  178.9310  181.0180  139.9900 C   0  0  0  0  0  2  0  0  0  0  0  0
  179.0230  181.4950  141.4270 C   0  0  0  0  0  1  0  0  0  0  0  0
  1  4  1  0  0  0  0
  2  6  2  0  0  0  0
  3 17  1  0  0  0  0
  4 20  1  0  0  0  0
  5  6  2  0  0  0  0
  7 15  1  6  0  0  0
  7 11  1  0  0  0  0
  8  6  1  6  0  0  0
  8 23  1  0  0  0  0
  8 24  1  0  0  0  0
 10 21  1  6  0  0  0
 10 22  1  0  0  0  0
 12  6  1  0  0  0  0
 12  7  1  0  0  0  0
 13 16  1  0  0  0  0
 13  9  1  0  0  0  0
 14  1  1  0  0  0  0
 17 14  2  0  0  0  0
 18  1  2  0  0  0  0
 19  3  2  0  0  0  0
 19 18  1  0  0  0  0
 20 13  1  0  0  0  0
 21 27  1  0  0  0  0
 22 16  1  0  0  0  0
 22 26  1  1  0  0  0
 23 11  1  1  0  0  0
 23 21  1  0  0  0  0
 24 14  1  1  0  0  0
 24 10  1  0  0  0  0
 25 26  1  0  0  0  0
 27 28  1  0  0  0  0
M  END
>  <MODEL>
5

>  <REMARK>
 VINA RESULT:      -3.6      2.378      5.066
  Name = 
  2 active torsions:
  status: ('A' for Active; 'I' for Inactive)
    1  A    between atoms: C_5  and  N_24
    2  A    between atoms: O_17  and  C_25
                            x       y       z     vdW  Elec       q    Type
                         _______ _______ _______ _____ _____    ______ ____

>  <TORSDO>
F 2

$$$$
=
 OpenBabel11122411533D

 28 31  0  0  1  0  0  0  0  0999 V2000
  184.5450  176.0470  135.8540 C   0  0  0  0  0  0  0  0  0  0  0  0
  181.1500  176.7050  137.3750 O   0  0  0  0  0  0  0  0  0  0  0  0
  184.6470  173.3520  136.6240 C   0  0  0  0  0  3  0  0  0  0  0  0
  184.4810  177.4720  135.3990 C   0  0  0  0  0  2  0  0  0  0  0  0
  181.8270  176.4890  139.7320 O   0  0  0  0  0  0  0  0  0  0  0  0
  181.8460  177.3810  138.5210 S   0  0  0  0  0  0  0  0  0  0  0  0
  181.8260  180.0820  138.2390 C   0  0  1  0  0  3  0  0  0  0  0  0
  183.4670  177.7880  138.0710 N   0  0  1  0  0  0  0  0  0  0  0  0
  187.6450  176.6300  135.2230 C   0  0  0  0  0  1  0  0  0  0  0  0
  185.6870  177.3930  138.8000 C   0  0  2  0  0  3  0  0  0  0  0  0
  183.3080  180.1690  138.6630 C   0  0  0  0  0  2  0  0  0  0  0  0
  181.0450  178.9360  138.8970 C   0  0  0  0  0  2  0  0  0  0  0  0
  186.9760  177.9220  135.3450 N   0  0  0  0  0  0  0  0  0  0  0  0
  184.5000  175.7020  137.2270 C   0  0  0  0  0  0  0  0  0  0  0  0
  181.1680  181.3470  138.5070 N   0  0  0  0  0  1  0  0  0  0  0  0
  186.8190  178.4090  136.7290 C   0  0  0  0  0  2  0  0  0  0  0  0
  184.5620  174.3520  137.5940 C   0  0  0  0  0  3  0  0  0  0  0  0
  184.6150  175.0340  134.8890 C   0  0  0  0  0  3  0  0  0  0  0  0
  184.6690  173.6930  135.2710 C   0  0  0  0  0  3  0  0  0  0  0  0
  185.7130  177.9030  134.5940 C   0  0  0  0  0  2  0  0  0  0  0  0
  185.3410  178.7810  139.1150 N   0  0  0  0  0  0  0  0  0  0  0  0
  186.8590  177.3120  137.8060 C   0  0  1  0  0  3  0  0  0  0  0  0
  183.8860  178.7980  139.0230 C   0  0  2  0  0  3  0  0  0  0  0  0
  184.3930  176.7100  138.3480 C   0  0  2  0  0  3  0  0  0  0  0  0
  188.6140  178.6220  138.1410 C   0  0  0  0  0  1  0  0  0  0  0  0
  188.0700  177.3870  138.4980 O   0  0  0  0  0  0  0  0  0  0  0  0
  185.6800  179.0010  140.5120 C   0  0  0  0  0  2  0  0  0  0  0  0
  184.5660  178.4800  141.3990 C   0  0  0  0  0  1  0  0  0  0  0  0
  1 14  1  0  0  0  0
  2  6  2  0  0  0  0
  3 17  1  0  0  0  0
  4  1  1  0  0  0  0
  6 12  1  0  0  0  0
  6  5  2  0  0  0  0
  7 15  1  1  0  0  0
  7 11  1  0  0  0  0
  7 12  1  0  0  0  0
  8 24  1  0  0  0  0
  8  6  1  1  0  0  0
  8 23  1  0  0  0  0
  9 13  1  0  0  0  0
 10 21  1  6  0  0  0
 13 16  1  0  0  0  0
 14 17  2  0  0  0  0
 16 22  1  0  0  0  0
 18 19  1  0  0  0  0
 18  1  2  0  0  0  0
 19  3  2  0  0  0  0
 20 13  1  0  0  0  0
 20  4  1  0  0  0  0
 21 27  1  0  0  0  0
 22 26  1  1  0  0  0
 22 10  1  0  0  0  0
 23 11  1  6  0  0  0
 23 21  1  0  0  0  0
 24 14  1  6  0  0  0
 24 10  1  0  0  0  0
 25 26  1  0  0  0  0
 27 28  1  0  0  0  0
M  END
>  <MODEL>
6

>  <REMARK>
 VINA RESULT:      -3.4      2.718      4.949
  Name = 
  2 active torsions:
  status: ('A' for Active; 'I' for Inactive)
    1  A    between atoms: C_5  and  N_24
    2  A    between atoms: O_17  and  C_25
                            x       y       z     vdW  Elec       q    Type
                         _______ _______ _______ _____ _____    ______ ____

>  <TORSDO>
F 2

$$$$
=
 OpenBabel11122411533D

 28 31  0  0  1  0  0  0  0  0999 V2000
  187.4750  175.4610  135.4500 C   0  0  0  0  0  0  0  0  0  0  0  0
  184.1050  173.9000  134.7570 O   0  0  0  0  0  0  0  0  0  0  0  0
  188.5230  173.2190  136.7700 C   0  0  0  0  0  3  0  0  0  0  0  0
  186.9420  176.6460  134.7080 C   0  0  0  0  0  2  0  0  0  0  0  0
  183.3270  173.8120  137.0900 O   0  0  0  0  0  0  0  0  0  0  0  0
  183.5510  174.7030  135.9000 S   0  0  0  0  0  0  0  0  0  0  0  0
  182.2790  176.9350  135.0200 C   0  0  1  0  0  3  0  0  0  0  0  0
  184.6270  176.0030  136.2860 N   0  0  1  0  0  0  0  0  0  0  0  0
  189.5050  177.7590  136.4230 C   0  0  0  0  0  1  0  0  0  0  0  0
  185.8440  176.8370  138.1400 C   0  0  2  0  0  3  0  0  0  0  0  0
  182.9420  177.7860  136.1240 C   0  0  0  0  0  2  0  0  0  0  0  0
  182.0110  175.4770  135.4190 C   0  0  0  0  0  2  0  0  0  0  0  0
  188.3310  178.4240  135.8660 N   0  0  0  0  0  0  0  0  0  0  0  0
  186.8560  174.9820  136.6300 C   0  0  0  0  0  0  0  0  0  0  0  0
  181.0430  177.5650  134.5940 N   0  0  0  0  0  1  0  0  0  0  0  0
  187.1980  178.5610  136.8010 C   0  0  0  0  0  2  0  0  0  0  0  0
  187.3980  173.8680  137.2830 C   0  0  0  0  0  3  0  0  0  0  0  0
  188.5940  174.7910  134.9370 C   0  0  0  0  0  3  0  0  0  0  0  0
  189.1180  173.6780  135.5950 C   0  0  0  0  0  3  0  0  0  0  0  0
  187.9560  177.7920  134.5940 C   0  0  0  0  0  2  0  0  0  0  0  0
  184.7160  177.7380  137.8880 N   0  0  0  0  0  0  0  0  0  0  0  0
  187.1940  177.5530  137.9620 C   0  0  1  0  0  3  0  0  0  0  0  0
  183.8290  176.9450  137.0460 C   0  0  2  0  0  3  0  0  0  0  0  0
  185.6280  175.6070  137.2530 C   0  0  2  0  0  3  0  0  0  0  0  0
  188.6320  177.4980  139.6460 C   0  0  0  0  0  1  0  0  0  0  0  0
  187.5390  178.2090  139.1460 O   0  0  0  0  0  0  0  0  0  0  0  0
  184.0330  177.9340  139.1570 C   0  0  0  0  0  2  0  0  0  0  0  0
  184.1190  179.3920  139.5640 C   0  0  0  0  0  1  0  0  0  0  0  0
  1 14  1  0  0  0  0
  2  6  2  0  0  0  0
  3 17  1  0  0  0  0
  4  1  1  0  0  0  0
  6  5  2  0  0  0  0
  7 15  1  1  0  0  0
  7 12  1  0  0  0  0
  7 11  1  0  0  0  0
  8  6  1  1  0  0  0
  8 23  1  0  0  0  0
  8 24  1  0  0  0  0
 10 21  1  6  0  0  0
 12  6  1  0  0  0  0
 13  9  1  0  0  0  0
 13 16  1  0  0  0  0
 14 17  2  0  0  0  0
 16 22  1  0  0  0  0
 18  1  2  0  0  0  0
 18 19  1  0  0  0  0
 19  3  2  0  0  0  0
 20  4  1  0  0  0  0
 20 13  1  0  0  0  0
 21 27  1  0  0  0  0
 22 10  1  0  0  0  0
 22 26  1  1  0  0  0
 23 11  1  6  0  0  0
 23 21  1  0  0  0  0
 24 14  1  6  0  0  0
 24 10  1  0  0  0  0
 26 25  1  0  0  0  0
 27 28  1  0  0  0  0
M  END
>  <MODEL>
7

>  <REMARK>
 VINA RESULT:      -3.4      3.665      6.418
  Name = 
  2 active torsions:
  status: ('A' for Active; 'I' for Inactive)
    1  A    between atoms: C_5  and  N_24
    2  A    between atoms: O_17  and  C_25
                            x       y       z     vdW  Elec       q    Type
                         _______ _______ _______ _____ _____    ______ ____

>  <TORSDO>
F 2

$$$$
=
 OpenBabel11122411533D

 28 31  0  0  1  0  0  0  0  0999 V2000
  181.4690  178.4380  138.2760 C   0  0  0  0  0  0  0  0  0  0  0  0
  178.9400  176.0130  136.8630 O   0  0  0  0  0  0  0  0  0  0  0  0
  180.7650  180.5540  136.5750 C   0  0  0  0  0  3  0  0  0  0  0  0
  181.8220  177.3300  139.2180 C   0  0  0  0  0  2  0  0  0  0  0  0
  179.9820  175.7440  134.6490 O   0  0  0  0  0  0  0  0  0  0  0  0
  180.0590  175.3620  136.1010 S   0  0  0  0  0  0  0  0  0  0  0  0
  180.9450  173.1230  137.3590 C   0  0  1  0  0  3  0  0  0  0  0  0
  181.5830  175.8160  136.7860 N   0  0  1  0  0  0  0  0  0  0  0  0
  184.3620  179.4020  139.3000 C   0  0  0  0  0  1  0  0  0  0  0  0
  183.6170  176.8380  136.1260 C   0  0  2  0  0  3  0  0  0  0  0  0
  182.4140  173.5240  137.1050 C   0  0  0  0  0  2  0  0  0  0  0  0
  179.9660  173.5830  136.2690 C   0  0  0  0  0  2  0  0  0  0  0  0
  184.2400  177.9820  139.6160 N   0  0  0  0  0  0  0  0  0  0  0  0
  181.5970  178.2910  136.8730 C   0  0  0  0  0  0  0  0  0  0  0  0
  180.8540  171.6850  137.5290 N   0  0  0  0  0  1  0  0  0  0  0  0
  184.5670  177.0710  138.5020 C   0  0  0  0  0  2  0  0  0  0  0  0
  181.2520  179.3600  136.0390 C   0  0  0  0  0  3  0  0  0  0  0  0
  180.9650  179.6350  138.8010 C   0  0  0  0  0  3  0  0  0  0  0  0
  180.6170  180.6900  137.9560 C   0  0  0  0  0  3  0  0  0  0  0  0
  182.9250  177.7140  140.2130 C   0  0  0  0  0  2  0  0  0  0  0  0
  183.8640  175.4070  136.3210 N   0  0  0  0  0  0  0  0  0  0  0  0
  184.4420  177.6950  137.1020 C   0  0  1  0  0  3  0  0  0  0  0  0
  182.5270  174.8250  136.3070 C   0  0  2  0  0  3  0  0  0  0  0  0
  182.0990  177.0340  136.1980 C   0  0  2  0  0  3  0  0  0  0  0  0
  186.5860  177.2630  137.4570 C   0  0  0  0  0  1  0  0  0  0  0  0
  185.7170  177.9110  136.5760 O   0  0  0  0  0  0  0  0  0  0  0  0
  184.5490  174.9250  135.1330 C   0  0  0  0  0  2  0  0  0  0  0  0
  185.8350  174.2260  135.5300 C   0  0  0  0  0  1  0  0  0  0  0  0
  1 18  1  0  0  0  0
  1  4  1  0  0  0  0
  3 19  1  0  0  0  0
  4 20  1  0  0  0  0
  5  6  2  0  0  0  0
  6 12  1  0  0  0  0
  6  2  2  0  0  0  0
  7 15  1  6  0  0  0
  8  6  1  6  0  0  0
  9 13  1  0  0  0  0
 10 24  1  0  0  0  0
 10 21  1  1  0  0  0
 10 22  1  0  0  0  0
 11  7  1  0  0  0  0
 12  7  1  0  0  0  0
 13 20  1  0  0  0  0
 14  1  2  0  0  0  0
 16 13  1  0  0  0  0
 17  3  2  0  0  0  0
 17 14  1  0  0  0  0
 19 18  2  0  0  0  0
 22 26  1  6  0  0  0
 22 16  1  0  0  0  0
 23 21  1  0  0  0  0
 23  8  1  0  0  0  0
 23 11  1  1  0  0  0
 24  8  1  0  0  0  0
 24 14  1  1  0  0  0
 26 25  1  0  0  0  0
 27 28  1  0  0  0  0
 27 21  1  0  0  0  0
M  END
>  <MODEL>
8

>  <REMARK>
 VINA RESULT:      -3.2      2.733      6.046
  Name = 
  2 active torsions:
  status: ('A' for Active; 'I' for Inactive)
    1  A    between atoms: C_5  and  N_24
    2  A    between atoms: O_17  and  C_25
                            x       y       z     vdW  Elec       q    Type
                         _______ _______ _______ _____ _____    ______ ____

>  <TORSDO>
F 2

$$$$
=
 OpenBabel11122411533D

 28 31  0  0  1  0  0  0  0  0999 V2000
  185.2360  176.0320  136.7340 C   0  0  0  0  0  0  0  0  0  0  0  0
  182.1580  175.5050  134.6080 O   0  0  0  0  0  0  0  0  0  0  0  0
  185.4060  173.3670  137.5930 C   0  0  0  0  0  3  0  0  0  0  0  0
  185.1800  177.4460  136.2470 C   0  0  0  0  0  2  0  0  0  0  0  0
  180.5860  175.0740  136.4530 O   0  0  0  0  0  0  0  0  0  0  0  0
  181.3480  176.1340  135.7070 S   0  0  0  0  0  0  0  0  0  0  0  0
  180.8110  178.7420  135.1750 C   0  0  1  0  0  3  0  0  0  0  0  0
  182.3850  177.0220  136.7700 N   0  0  1  0  0  0  0  0  0  0  0  0
  187.0820  177.5060  138.9170 C   0  0  0  0  0  1  0  0  0  0  0  0
  182.9570  177.1040  139.0690 C   0  0  2  0  0  3  0  0  0  0  0  0
  181.1440  179.1400  136.6280 C   0  0  0  0  0  2  0  0  0  0  0  0
  180.2120  177.3360  135.0240 C   0  0  0  0  0  2  0  0  0  0  0  0
  186.2950  178.5370  138.2460 N   0  0  0  0  0  0  0  0  0  0  0  0
  184.1710  175.4560  137.4700 C   0  0  0  0  0  0  0  0  0  0  0  0
  179.9140  179.7240  134.5940 N   0  0  0  0  0  1  0  0  0  0  0  0
  184.9330  178.7200  138.7820 C   0  0  0  0  0  2  0  0  0  0  0  0
  184.2770  174.1280  137.9000 C   0  0  0  0  0  3  0  0  0  0  0  0
  186.3570  175.2530  136.4190 C   0  0  0  0  0  3  0  0  0  0  0  0
  186.4450  173.9280  136.8480 C   0  0  0  0  0  3  0  0  0  0  0  0
  186.3190  178.3170  136.7940 C   0  0  0  0  0  2  0  0  0  0  0  0
  182.1360  178.2770  138.7580 N   0  0  0  0  0  0  0  0  0  0  0  0
  184.3670  177.5050  139.5350 C   0  0  1  0  0  3  0  0  0  0  0  0
  181.5100  177.9280  137.4890 C   0  0  2  0  0  3  0  0  0  0  0  0
  182.9030  176.1930  137.8380 C   0  0  2  0  0  3  0  0  0  0  0  0
  184.7140  179.1190  141.0120 C   0  0  0  0  0  1  0  0  0  0  0  0
  184.3510  177.7740  140.9050 O   0  0  0  0  0  0  0  0  0  0  0  0
  181.0770  178.3350  139.7520 C   0  0  0  0  0  2  0  0  0  0  0  0
  180.9740  179.7410  140.3100 C   0  0  0  0  0  1  0  0  0  0  0  0
  1 14  1  0  0  0  0
  2  6  2  0  0  0  0
  3 17  1  0  0  0  0
  4  1  1  0  0  0  0
  4 20  1  0  0  0  0
  6  5  2  0  0  0  0
  7 15  1  1  0  0  0
  7 11  1  0  0  0  0
  8  6  1  6  0  0  0
  8 23  1  0  0  0  0
  8 24  1  0  0  0  0
 10 21  1  6  0  0  0
 10 22  1  0  0  0  0
 12  7  1  0  0  0  0
 12  6  1  0  0  0  0
 13 16  1  0  0  0  0
 13  9  1  0  0  0  0
 14 17  2  0  0  0  0
 16 22  1  0  0  0  0
 18  1  2  0  0  0  0
 18 19  1  0  0  0  0
 19  3  2  0  0  0  0
 20 13  1  0  0  0  0
 21 27  1  0  0  0  0
 22 26  1  1  0  0  0
 23 11  1  6  0  0  0
 23 21  1  0  0  0  0
 24 14  1  6  0  0  0
 24 10  1  0  0  0  0
 26 25  1  0  0  0  0
 27 28  1  0  0  0  0
M  END
>  <MODEL>
9

>  <REMARK>
 VINA RESULT:      -3.2      2.314      5.189
  Name = 
  2 active torsions:
  status: ('A' for Active; 'I' for Inactive)
    1  A    between atoms: C_5  and  N_24
    2  A    between atoms: O_17  and  C_25
                            x       y       z     vdW  Elec       q    Type
                         _______ _______ _______ _____ _____    ______ ____

>  <TORSDO>
F 2

$$$$
