=
 OpenBabel11122410513D

 32 37  0  0  1  0  0  0  0  0999 V2000
  183.3780  178.3460  140.9130 C   0  0  1  0  0  3  0  0  0  0  0  0
  186.6080  178.3040  137.2160 C   0  0  0  0  0  3  0  0  0  0  0  0
  185.7660  177.4460  136.5070 C   0  0  0  0  0  3  0  0  0  0  0  0
  180.9870  177.5380  140.6000 C   0  0  2  0  0  3  0  0  0  0  0  0
  180.2570  176.5470  139.7840 N   0  0  2  0  0  0  0  0  0  0  0  0
  184.0790  178.8800  142.9860 C   0  0  2  0  0  3  0  0  0  0  0  0
  185.4880  179.6510  141.0630 O   0  0  0  0  0  0  0  0  0  0  0  0
  180.0340  175.2980  137.7780 C   0  0  2  0  0  3  0  0  0  0  0  0
  186.1880  178.8530  138.4290 C   0  0  0  0  0  3  0  0  0  0  0  0
  184.4410  179.1900  140.2150 C   0  0  1  0  0  3  0  0  0  0  0  0
  184.9250  178.5390  138.9480 C   0  0  0  0  0  0  0  0  0  0  0  0
  182.7070  177.2810  138.7780 C   0  0  2  0  0  3  0  0  0  0  0  0
  180.6380  174.3740  138.8090 C   0  0  0  0  0  2  0  0  0  0  0  0
  185.4890  179.0300  142.3440 C   0  0  2  0  0  3  0  0  0  0  0  0
  180.7560  175.2050  140.0770 C   0  0  0  0  0  2  0  0  0  0  0  0
  184.4970  177.1420  137.0050 C   0  0  0  0  0  3  0  0  0  0  0  0
  184.0490  177.7060  138.2080 C   0  0  0  0  0  0  0  0  0  0  0  0
  181.5970  177.3000  137.7500 C   0  0  0  0  0  2  0  0  0  0  0  0
  183.0080  179.0280  142.0750 O   0  0  0  0  0  0  0  0  0  0  0  0
  180.0390  178.6380  141.0340 C   0  0  0  0  0  1  0  0  0  0  0  0
  180.6070  175.0810  136.5220 O   0  0  0  0  0  1  0  0  0  0  0  0
  182.2270  178.1500  139.9360 C   0  0  2  0  0  3  0  0  0  0  0  0
  180.2880  176.7000  138.3140 C   0  0  2  0  0  3  0  0  0  0  0  0
  187.5340  177.8390  141.5820 C   0  0  0  0  0  2  0  0  0  0  0  0
  186.2030  177.6870  142.2900 C   0  0  1  0  0  3  0  0  0  0  0  0
  187.4850  177.7720  143.0940 C   0  0  1  0  0  3  0  0  0  0  0  0
  187.8700  176.3800  143.5520 C   0  0  0  0  0  2  0  0  0  0  0  0
  189.3530  176.2670  143.6350 C   0  0  0  0  0  0  0  0  0  0  0  0
  189.9860  176.9170  144.5050 O   0  0  0  0  0  1  0  0  0  0  0  0
  190.0330  175.4140  142.7760 O   0  0  0  0  0  0  0  0  0  0  0  0
  183.6900  179.2130  145.3140 O   0  0  0  0  0  1  0  0  0  0  0  0
  183.9320  179.8810  144.1150 C   0  0  0  0  0  2  0  0  0  0  0  0
  1 19  1  1  0  0  0
  2  9  1  0  0  0  0
  3 16  1  0  0  0  0
  3  2  2  0  0  0  0
  4 20  1  6  0  0  0
  5 15  1  6  0  0  0
  5  4  1  0  0  0  0
  6 32  1  1  0  0  0
  8 21  1  6  0  0  0
  8 23  1  0  0  0  0
  8 13  1  0  0  0  0
  9 11  2  0  0  0  0
 10 11  1  6  0  0  0
 10  1  1  0  0  0  0
 10  7  1  0  0  0  0
 12 18  1  6  0  0  0
 12 22  1  0  0  0  0
 13 15  1  0  0  0  0
 14  7  1  6  0  0  0
 14  6  1  0  0  0  0
 16 17  2  0  0  0  0
 17 12  1  0  0  0  0
 17 11  1  0  0  0  0
 18 23  1  0  0  0  0
 19  6  1  0  0  0  0
 22  4  1  0  0  0  0
 22  1  1  0  0  0  0
 23  5  1  0  0  0  0
 24 25  1  0  0  0  0
 24 26  1  0  0  0  0
 25 14  1  0  0  0  0
 25 26  1  0  0  0  0
 26 27  1  0  0  0  0
 27 28  1  0  0  0  0
 28 29  1  0  0  0  0
 30 28  2  0  0  0  0
 32 31  1  0  0  0  0
M  END
>  <MODEL>
1

>  <REMARK>
 VINA RESULT:      -6.9      0.000      0.000
  Name = 
  4 active torsions:
  status: ('A' for Active; 'I' for Inactive)
    1  A    between atoms: C_7  and  C_19
    2  A    between atoms: C_10  and  C_17
    3  A    between atoms: C_20  and  C_29
    4  A    between atoms: C_29  and  C_30
                            x       y       z     vdW  Elec       q    Type
                         _______ _______ _______ _____ _____    ______ ____

>  <TORSDO>
F 4

$$$$
=
 OpenBabel11122410513D

 32 37  0  0  1  0  0  0  0  0999 V2000
  184.2700  177.3440  137.9190 C   0  0  1  0  0  3  0  0  0  0  0  0
  189.1390  177.6650  138.4600 C   0  0  0  0  0  3  0  0  0  0  0  0
  189.2680  176.3740  137.9460 C   0  0  0  0  0  3  0  0  0  0  0  0
  183.2080  175.5490  136.4630 C   0  0  2  0  0  3  0  0  0  0  0  0
  183.4900  174.1620  136.0440 N   0  0  2  0  0  0  0  0  0  0  0  0
  182.9320  178.6690  139.1560 C   0  0  2  0  0  3  0  0  0  0  0  0
  185.3060  179.4060  138.8450 O   0  0  0  0  0  0  0  0  0  0  0  0
  185.0450  172.4410  135.5410 C   0  0  2  0  0  3  0  0  0  0  0  0
  187.8920  178.2930  138.4710 C   0  0  0  0  0  3  0  0  0  0  0  0
  185.4330  178.3330  137.9170 C   0  0  1  0  0  3  0  0  0  0  0  0
  186.7610  177.6290  137.9760 C   0  0  0  0  0  0  0  0  0  0  0  0
  185.6810  175.5570  136.9410 C   0  0  2  0  0  3  0  0  0  0  0  0
  184.5320  172.1790  136.9380 C   0  0  0  0  0  2  0  0  0  0  0  0
  184.2470  179.2190  139.7780 C   0  0  2  0  0  3  0  0  0  0  0  0
  183.5370  173.2940  137.2180 C   0  0  0  0  0  2  0  0  0  0  0  0
  188.1520  175.7100  137.4320 C   0  0  0  0  0  3  0  0  0  0  0  0
  186.8970  176.3370  137.4110 C   0  0  0  0  0  0  0  0  0  0  0  0
  185.9180  174.8240  135.6380 C   0  0  0  0  0  2  0  0  0  0  0  0
  183.0910  178.0950  137.8740 O   0  0  0  0  0  0  0  0  0  0  0  0
  182.3100  176.2180  135.4410 C   0  0  0  0  0  1  0  0  0  0  0  0
  186.4090  172.1530  135.4520 O   0  0  0  0  0  1  0  0  0  0  0  0
  184.4440  176.4220  136.7200 C   0  0  2  0  0  3  0  0  0  0  0  0
  184.7270  173.9060  135.2770 C   0  0  2  0  0  3  0  0  0  0  0  0
  186.0180  178.8610  141.4860 C   0  0  0  0  0  2  0  0  0  0  0  0
  184.7030  178.3460  140.9390 C   0  0  1  0  0  3  0  0  0  0  0  0
  184.7240  179.1750  142.2070 C   0  0  1  0  0  3  0  0  0  0  0  0
  184.5710  178.2530  143.3990 C   0  0  0  0  0  2  0  0  0  0  0  0
  183.5270  178.7840  144.3190 C   0  0  0  0  0  0  0  0  0  0  0  0
  182.3650  179.0030  143.8930 O   0  0  0  0  0  0  0  0  0  0  0  0
  183.8280  179.0030  145.6570 O   0  0  0  0  0  1  0  0  0  0  0  0
  182.5150  180.9740  138.7180 O   0  0  0  0  0  1  0  0  0  0  0  0
  181.9020  179.7800  139.0940 C   0  0  0  0  0  2  0  0  0  0  0  0
  1 19  1  6  0  0  0
  2  9  1  0  0  0  0
  3  2  2  0  0  0  0
  4 20  1  6  0  0  0
  4 22  1  0  0  0  0
  5  4  1  0  0  0  0
  5 15  1  1  0  0  0
  6 32  1  6  0  0  0
  6 14  1  0  0  0  0
  8 21  1  1  0  0  0
  8 13  1  0  0  0  0
 10  1  1  0  0  0  0
 10 11  1  1  0  0  0
 10  7  1  0  0  0  0
 11  9  2  0  0  0  0
 12 18  1  6  0  0  0
 12 17  1  0  0  0  0
 13 15  1  0  0  0  0
 14  7  1  6  0  0  0
 14 25  1  0  0  0  0
 16  3  1  0  0  0  0
 17 16  2  0  0  0  0
 17 11  1  0  0  0  0
 19  6  1  0  0  0  0
 22 12  1  0  0  0  0
 22  1  1  0  0  0  0
 23  8  1  0  0  0  0
 23 18  1  0  0  0  0
 23  5  1  0  0  0  0
 24 26  1  0  0  0  0
 25 24  1  0  0  0  0
 25 26  1  0  0  0  0
 26 27  1  0  0  0  0
 27 28  1  0  0  0  0
 28 30  1  0  0  0  0
 29 28  2  0  0  0  0
 31 32  1  0  0  0  0
M  END
>  <MODEL>
2

>  <REMARK>
 VINA RESULT:      -6.8      3.014      4.742
  Name = 
  4 active torsions:
  status: ('A' for Active; 'I' for Inactive)
    1  A    between atoms: C_7  and  C_19
    2  A    between atoms: C_10  and  C_17
    3  A    between atoms: C_20  and  C_29
    4  A    between atoms: C_29  and  C_30
                            x       y       z     vdW  Elec       q    Type
                         _______ _______ _______ _____ _____    ______ ____

>  <TORSDO>
F 4

$$$$
=
 OpenBabel11122410513D

 32 37  0  0  1  0  0  0  0  0999 V2000
  189.1370  176.8400  138.8640 C   0  0  1  0  0  3  0  0  0  0  0  0
  184.7100  178.9230  139.2760 C   0  0  0  0  0  3  0  0  0  0  0  0
  184.8960  179.0160  140.6560 C   0  0  0  0  0  3  0  0  0  0  0  0
  190.8410  176.9540  140.7480 C   0  0  2  0  0  3  0  0  0  0  0  0
  190.8490  177.0160  142.2230 N   0  0  2  0  0  0  0  0  0  0  0  0
  189.5940  175.5670  137.0630 C   0  0  2  0  0  3  0  0  0  0  0  0
  187.7290  177.2250  136.8520 O   0  0  0  0  0  0  0  0  0  0  0  0
  189.8270  177.6820  144.2600 C   0  0  2  0  0  3  0  0  0  0  0  0
  185.7510  178.4820  138.4570 C   0  0  0  0  0  3  0  0  0  0  0  0
  188.1310  177.7190  138.1260 C   0  0  1  0  0  3  0  0  0  0  0  0
  186.9850  178.1210  139.0140 C   0  0  0  0  0  0  0  0  0  0  0  0
  188.4890  177.8000  141.0550 C   0  0  2  0  0  3  0  0  0  0  0  0
  189.5310  176.2120  144.0750 C   0  0  0  0  0  2  0  0  0  0  0  0
  188.1380  175.8830  136.6150 C   0  0  2  0  0  3  0  0  0  0  0  0
  190.2070  175.8240  142.7700 C   0  0  0  0  0  2  0  0  0  0  0  0
  186.1290  178.6780  141.2200 C   0  0  0  0  0  3  0  0  0  0  0  0
  187.1930  178.2590  140.4090 C   0  0  0  0  0  0  0  0  0  0  0  0
  188.9890  178.7560  142.1160 C   0  0  0  0  0  2  0  0  0  0  0  0
  190.1470  176.5160  137.9540 O   0  0  0  0  0  0  0  0  0  0  0  0
  192.1300  177.5390  140.2060 C   0  0  0  0  0  1  0  0  0  0  0  0
  188.7210  178.3470  144.7950 O   0  0  0  0  0  1  0  0  0  0  0  0
  189.6390  177.6230  140.0690 C   0  0  2  0  0  3  0  0  0  0  0  0
  190.2080  178.1800  142.8720 C   0  0  2  0  0  3  0  0  0  0  0  0
  185.7710  175.1240  136.6680 C   0  0  0  0  0  2  0  0  0  0  0  0
  187.1560  174.9030  137.2410 C   0  0  1  0  0  3  0  0  0  0  0  0
  186.6220  173.9780  136.1660 C   0  0  1  0  0  3  0  0  0  0  0  0
  186.1660  172.6860  136.8130 C   0  0  0  0  0  2  0  0  0  0  0  0
  184.8180  172.3120  136.3010 C   0  0  0  0  0  0  0  0  0  0  0  0
  184.6260  172.1930  135.0640 O   0  0  0  0  0  0  0  0  0  0  0  0
  183.7830  172.0590  137.1910 O   0  0  0  0  0  1  0  0  0  0  0  0
  189.6950  175.2430  134.7030 O   0  0  0  0  0  1  0  0  0  0  0  0
  190.4800  175.4390  135.8390 C   0  0  0  0  0  2  0  0  0  0  0  0
  1 19  1  6  0  0  0
  1 22  1  0  0  0  0
  2  3  1  0  0  0  0
  3 16  2  0  0  0  0
  4 20  1  6  0  0  0
  4  5  1  0  0  0  0
  5 15  1  1  0  0  0
  5 23  1  0  0  0  0
  6 32  1  6  0  0  0
  6 19  1  0  0  0  0
  8 21  1  6  0  0  0
  9 11  1  0  0  0  0
  9  2  2  0  0  0  0
 10  7  1  6  0  0  0
 10  1  1  0  0  0  0
 10 11  1  0  0  0  0
 11 17  2  0  0  0  0
 12 18  1  1  0  0  0
 13  8  1  0  0  0  0
 14  7  1  1  0  0  0
 14  6  1  0  0  0  0
 14 25  1  0  0  0  0
 15 13  1  0  0  0  0
 17 12  1  0  0  0  0
 17 16  1  0  0  0  0
 18 23  1  0  0  0  0
 22  4  1  0  0  0  0
 22 12  1  0  0  0  0
 23  8  1  0  0  0  0
 24 25  1  0  0  0  0
 26 24  1  0  0  0  0
 26 27  1  0  0  0  0
 26 25  1  0  0  0  0
 28 27  1  0  0  0  0
 28 30  1  0  0  0  0
 29 28  2  0  0  0  0
 31 32  1  0  0  0  0
M  END
>  <MODEL>
3

>  <REMARK>
 VINA RESULT:      -6.8      3.908      8.500
  Name = 
  4 active torsions:
  status: ('A' for Active; 'I' for Inactive)
    1  A    between atoms: C_7  and  C_19
    2  A    between atoms: C_10  and  C_17
    3  A    between atoms: C_20  and  C_29
    4  A    between atoms: C_29  and  C_30
                            x       y       z     vdW  Elec       q    Type
                         _______ _______ _______ _____ _____    ______ ____

>  <TORSDO>
F 4

$$$$
=
 OpenBabel11122410513D

 32 37  0  0  1  0  0  0  0  0999 V2000
  187.6320  177.1190  138.7420 C   0  0  1  0  0  3  0  0  0  0  0  0
  192.5290  176.7630  138.7750 C   0  0  0  0  0  3  0  0  0  0  0  0
  192.4390  175.6290  137.9670 C   0  0  0  0  0  3  0  0  0  0  0  0
  186.2180  175.8580  137.0450 C   0  0  2  0  0  3  0  0  0  0  0  0
  186.2750  174.5910  136.2890 N   0  0  2  0  0  0  0  0  0  0  0  0
  186.5950  178.2420  140.3970 C   0  0  2  0  0  3  0  0  0  0  0  0
  189.0110  178.7680  139.9900 O   0  0  0  0  0  0  0  0  0  0  0  0
  187.5360  172.8830  135.2270 C   0  0  2  0  0  3  0  0  0  0  0  0
  191.3830  177.5030  139.0740 C   0  0  0  0  0  3  0  0  0  0  0  0
  188.9120  177.9450  138.8320 C   0  0  1  0  0  3  0  0  0  0  0  0
  190.1340  177.1060  138.5750 C   0  0  0  0  0  0  0  0  0  0  0  0
  188.7020  175.4790  137.2230 C   0  0  2  0  0  3  0  0  0  0  0  0
  187.1150  172.3490  136.5760 C   0  0  0  0  0  2  0  0  0  0  0  0
  188.0210  178.4770  140.9720 C   0  0  2  0  0  3  0  0  0  0  0  0
  186.3060  173.4640  137.2180 C   0  0  0  0  0  2  0  0  0  0  0  0
  191.2040  175.2370  137.4470 C   0  0  0  0  0  3  0  0  0  0  0  0
  190.0470  175.9830  137.7150 C   0  0  0  0  0  0  0  0  0  0  0  0
  188.7260  175.0620  135.7680 C   0  0  0  0  0  2  0  0  0  0  0  0
  186.5650  177.9820  139.0070 O   0  0  0  0  0  0  0  0  0  0  0  0
  185.3330  176.8480  136.3150 C   0  0  0  0  0  1  0  0  0  0  0  0
  188.8370  172.4780  134.9170 O   0  0  0  0  0  1  0  0  0  0  0  0
  187.5770  176.5010  137.3520 C   0  0  2  0  0  3  0  0  0  0  0  0
  187.3960  174.3950  135.3460 C   0  0  2  0  0  3  0  0  0  0  0  0
  189.8940  177.4890  142.2740 C   0  0  0  0  0  2  0  0  0  0  0  0
  188.4540  177.3050  141.8400 C   0  0  1  0  0  3  0  0  0  0  0  0
  188.7680  177.8070  143.2350 C   0  0  1  0  0  3  0  0  0  0  0  0
  188.6010  176.6650  144.2170 C   0  0  0  0  0  2  0  0  0  0  0  0
  188.6800  177.1820  145.6120 C   0  0  0  0  0  0  0  0  0  0  0  0
  189.8000  177.3590  146.1550 O   0  0  0  0  0  0  0  0  0  0  0  0
  187.5170  177.5040  146.2990 O   0  0  0  0  0  1  0  0  0  0  0  0
  184.9280  179.7520  139.6080 O   0  0  0  0  0  1  0  0  0  0  0  0
  185.7220  179.4410  140.7110 C   0  0  0  0  0  2  0  0  0  0  0  0
  1 10  1  0  0  0  0
  1 19  1  6  0  0  0
  2  9  1  0  0  0  0
  3  2  2  0  0  0  0
  4 20  1  6  0  0  0
  4 22  1  0  0  0  0
  5  4  1  0  0  0  0
  5 15  1  1  0  0  0
  6 32  1  6  0  0  0
  6 14  1  0  0  0  0
  8 21  1  1  0  0  0
  8 23  1  0  0  0  0
  8 13  1  0  0  0  0
 10 11  1  1  0  0  0
 10  7  1  0  0  0  0
 11  9  2  0  0  0  0
 12 18  1  6  0  0  0
 12 22  1  0  0  0  0
 12 17  1  0  0  0  0
 13 15  1  0  0  0  0
 14  7  1  6  0  0  0
 14 25  1  0  0  0  0
 16 17  2  0  0  0  0
 16  3  1  0  0  0  0
 17 11  1  0  0  0  0
 19  6  1  0  0  0  0
 22  1  1  0  0  0  0
 23 18  1  0  0  0  0
 23  5  1  0  0  0  0
 24 26  1  0  0  0  0
 25 24  1  0  0  0  0
 25 26  1  0  0  0  0
 26 27  1  0  0  0  0
 27 28  1  0  0  0  0
 28 29  2  0  0  0  0
 28 30  1  0  0  0  0
 31 32  1  0  0  0  0
M  END
>  <MODEL>
4

>  <REMARK>
 VINA RESULT:      -6.3      3.840      5.673
  Name = 
  4 active torsions:
  status: ('A' for Active; 'I' for Inactive)
    1  A    between atoms: C_7  and  C_19
    2  A    between atoms: C_10  and  C_17
    3  A    between atoms: C_20  and  C_29
    4  A    between atoms: C_29  and  C_30
                            x       y       z     vdW  Elec       q    Type
                         _______ _______ _______ _____ _____    ______ ____

>  <TORSDO>
F 4

$$$$
=
 OpenBabel11122410513D

 32 37  0  0  1  0  0  0  0  0999 V2000
  188.7010  176.5070  138.3950 C   0  0  1  0  0  3  0  0  0  0  0  0
  193.5540  175.9540  137.9000 C   0  0  0  0  0  3  0  0  0  0  0  0
  193.3330  174.7880  137.1660 C   0  0  0  0  0  3  0  0  0  0  0  0
  187.0600  175.2260  136.9340 C   0  0  2  0  0  3  0  0  0  0  0  0
  186.9860  173.9240  136.2420 N   0  0  2  0  0  0  0  0  0  0  0  0
  187.8980  177.7480  140.0950 C   0  0  2  0  0  3  0  0  0  0  0  0
  190.2690  178.1560  139.3960 O   0  0  0  0  0  0  0  0  0  0  0  0
  188.0580  172.1180  135.1350 C   0  0  2  0  0  3  0  0  0  0  0  0
  192.4760  176.7530  138.2870 C   0  0  0  0  0  3  0  0  0  0  0  0
  190.0110  177.2830  138.2990 C   0  0  1  0  0  3  0  0  0  0  0  0
  191.1660  176.3850  137.9510 C   0  0  0  0  0  0  0  0  0  0  0  0
  189.5330  174.7550  136.8520 C   0  0  2  0  0  3  0  0  0  0  0  0
  187.7740  171.6660  136.5480 C   0  0  0  0  0  2  0  0  0  0  0  0
  189.3880  177.9520  140.4950 C   0  0  2  0  0  3  0  0  0  0  0  0
  187.0820  172.8420  137.2180 C   0  0  0  0  0  2  0  0  0  0  0  0
  192.0340  174.4220  136.8080 C   0  0  0  0  0  3  0  0  0  0  0  0
  190.9420  175.2260  137.1650 C   0  0  0  0  0  0  0  0  0  0  0  0
  189.3770  174.2690  135.4270 C   0  0  0  0  0  2  0  0  0  0  0  0
  187.7020  177.4250  138.7330 O   0  0  0  0  0  0  0  0  0  0  0  0
  186.1330  176.2170  136.2560 C   0  0  0  0  0  1  0  0  0  0  0  0
  189.3000  171.6460  134.7030 O   0  0  0  0  0  1  0  0  0  0  0  0
  188.4670  175.8280  137.0530 C   0  0  2  0  0  3  0  0  0  0  0  0
  187.9850  173.6380  135.1910 C   0  0  2  0  0  3  0  0  0  0  0  0
  191.3370  177.0020  141.7110 C   0  0  0  0  0  2  0  0  0  0  0  0
  189.8750  176.8050  141.3690 C   0  0  1  0  0  3  0  0  0  0  0  0
  190.2690  177.3470  142.7280 C   0  0  1  0  0  3  0  0  0  0  0  0
  190.1640  176.2330  143.7490 C   0  0  0  0  0  2  0  0  0  0  0  0
  190.5090  176.7530  145.1020 C   0  0  0  0  0  0  0  0  0  0  0  0
  191.6800  176.6330  145.5420 O   0  0  0  0  0  0  0  0  0  0  0  0
  189.5460  177.4040  145.8620 O   0  0  0  0  0  1  0  0  0  0  0  0
  185.9020  179.0030  139.7470 O   0  0  0  0  0  1  0  0  0  0  0  0
  187.1100  178.9960  140.4430 C   0  0  0  0  0  2  0  0  0  0  0  0
  1 19  1  6  0  0  0
  2  9  1  0  0  0  0
  3  2  2  0  0  0  0
  4 20  1  6  0  0  0
  4 22  1  0  0  0  0
  5  4  1  0  0  0  0
  5 15  1  1  0  0  0
  6 32  1  6  0  0  0
  6 14  1  0  0  0  0
  8 21  1  1  0  0  0
  8 23  1  0  0  0  0
  8 13  1  0  0  0  0
 10 11  1  1  0  0  0
 10  1  1  0  0  0  0
 10  7  1  0  0  0  0
 11  9  2  0  0  0  0
 12 18  1  6  0  0  0
 12 22  1  0  0  0  0
 12 17  1  0  0  0  0
 13 15  1  0  0  0  0
 14  7  1  6  0  0  0
 14 25  1  0  0  0  0
 16 17  2  0  0  0  0
 16  3  1  0  0  0  0
 17 11  1  0  0  0  0
 19  6  1  0  0  0  0
 22  1  1  0  0  0  0
 23 18  1  0  0  0  0
 23  5  1  0  0  0  0
 24 26  1  0  0  0  0
 25 24  1  0  0  0  0
 25 26  1  0  0  0  0
 26 27  1  0  0  0  0
 27 28  1  0  0  0  0
 28 29  2  0  0  0  0
 28 30  1  0  0  0  0
 31 32  1  0  0  0  0
M  END
>  <MODEL>
5

>  <REMARK>
 VINA RESULT:      -5.9      4.559      6.553
  Name = 
  4 active torsions:
  status: ('A' for Active; 'I' for Inactive)
    1  A    between atoms: C_7  and  C_19
    2  A    between atoms: C_10  and  C_17
    3  A    between atoms: C_20  and  C_29
    4  A    between atoms: C_29  and  C_30
                            x       y       z     vdW  Elec       q    Type
                         _______ _______ _______ _____ _____    ______ ____

>  <TORSDO>
F 4

$$$$
=
 OpenBabel11122410513D

 32 37  0  0  1  0  0  0  0  0999 V2000
  186.8090  177.0400  138.3490 C   0  0  1  0  0  3  0  0  0  0  0  0
  191.6290  176.5740  137.5370 C   0  0  0  0  0  3  0  0  0  0  0  0
  191.3820  175.4050  136.8170 C   0  0  0  0  0  3  0  0  0  0  0  0
  185.0990  175.7310  136.9950 C   0  0  2  0  0  3  0  0  0  0  0  0
  185.0040  174.4290  136.3060 N   0  0  2  0  0  0  0  0  0  0  0  0
  186.0980  178.2640  140.1000 C   0  0  2  0  0  3  0  0  0  0  0  0
  188.4100  178.7150  139.2490 O   0  0  0  0  0  0  0  0  0  0  0  0
  186.0330  172.6440  135.1280 C   0  0  2  0  0  3  0  0  0  0  0  0
  190.5650  177.3530  137.9950 C   0  0  0  0  0  3  0  0  0  0  0  0
  188.0970  177.8390  138.1700 C   0  0  1  0  0  3  0  0  0  0  0  0
  189.2420  176.9620  137.7440 C   0  0  0  0  0  0  0  0  0  0  0  0
  187.5700  175.3050  136.7510 C   0  0  2  0  0  3  0  0  0  0  0  0
  185.8500  172.1850  136.5560 C   0  0  0  0  0  2  0  0  0  0  0  0
  187.6060  178.4940  140.4030 C   0  0  2  0  0  3  0  0  0  0  0  0
  185.1830  173.3480  137.2720 C   0  0  0  0  0  2  0  0  0  0  0  0
  190.0680  175.0160  136.5430 C   0  0  0  0  0  3  0  0  0  0  0  0
  188.9880  175.8010  136.9730 C   0  0  0  0  0  0  0  0  0  0  0  0
  187.3300  174.8180  135.3380 C   0  0  0  0  0  2  0  0  0  0  0  0
  185.8190  177.9390  138.7530 O   0  0  0  0  0  0  0  0  0  0  0  0
  184.1130  176.7060  136.3810 C   0  0  0  0  0  1  0  0  0  0  0  0
  187.2520  172.1940  134.6150 O   0  0  0  0  0  1  0  0  0  0  0  0
  186.5010  176.3580  137.0230 C   0  0  2  0  0  3  0  0  0  0  0  0
  185.9370  174.1620  135.1920 C   0  0  2  0  0  3  0  0  0  0  0  0
  189.6420  177.5920  141.5090 C   0  0  0  0  0  2  0  0  0  0  0  0
  188.1700  177.3550  141.2400 C   0  0  1  0  0  3  0  0  0  0  0  0
  188.6180  177.8980  142.5820 C   0  0  1  0  0  3  0  0  0  0  0  0
  188.5970  176.7740  143.5980 C   0  0  0  0  0  2  0  0  0  0  0  0
  188.9700  177.2990  144.9410 C   0  0  0  0  0  0  0  0  0  0  0  0
  188.3150  176.9520  145.9560 O   0  0  0  0  0  1  0  0  0  0  0  0
  190.0650  178.1420  145.0770 O   0  0  0  0  0  0  0  0  0  0  0  0
  185.3550  179.6590  141.8850 O   0  0  0  0  0  1  0  0  0  0  0  0
  185.3110  179.4970  140.5020 C   0  0  0  0  0  2  0  0  0  0  0  0
  1 19  1  6  0  0  0
  2  9  1  0  0  0  0
  3  2  2  0  0  0  0
  4 20  1  6  0  0  0
  4 22  1  0  0  0  0
  5  4  1  0  0  0  0
  5 15  1  1  0  0  0
  6 14  1  0  0  0  0
  6 32  1  6  0  0  0
  8 21  1  1  0  0  0
  8 23  1  0  0  0  0
  8 13  1  0  0  0  0
 10 11  1  1  0  0  0
 10  1  1  0  0  0  0
 10  7  1  0  0  0  0
 11  9  2  0  0  0  0
 12 18  1  6  0  0  0
 12 17  1  0  0  0  0
 12 22  1  0  0  0  0
 13 15  1  0  0  0  0
 14  7  1  6  0  0  0
 14 25  1  0  0  0  0
 16  3  1  0  0  0  0
 16 17  2  0  0  0  0
 17 11  1  0  0  0  0
 19  6  1  0  0  0  0
 22  1  1  0  0  0  0
 23 18  1  0  0  0  0
 23  5  1  0  0  0  0
 24 26  1  0  0  0  0
 25 24  1  0  0  0  0
 25 26  1  0  0  0  0
 26 27  1  0  0  0  0
 27 28  1  0  0  0  0
 28 30  2  0  0  0  0
 28 29  1  0  0  0  0
 32 31  1  0  0  0  0
M  END
>  <MODEL>
6

>  <REMARK>
 VINA RESULT:      -5.7      3.400      4.913
  Name = 
  4 active torsions:
  status: ('A' for Active; 'I' for Inactive)
    1  A    between atoms: C_7  and  C_19
    2  A    between atoms: C_10  and  C_17
    3  A    between atoms: C_20  and  C_29
    4  A    between atoms: C_29  and  C_30
                            x       y       z     vdW  Elec       q    Type
                         _______ _______ _______ _____ _____    ______ ____

>  <TORSDO>
F 4

$$$$
=
 OpenBabel11122410513D

 32 37  0  0  1  0  0  0  0  0999 V2000
  183.5430  178.0960  140.8840 C   0  0  1  0  0  3  0  0  0  0  0  0
  179.2190  179.0060  143.0230 C   0  0  0  0  0  3  0  0  0  0  0  0
  179.8510  179.0220  144.2670 C   0  0  0  0  0  3  0  0  0  0  0  0
  185.7390  178.4540  142.1170 C   0  0  2  0  0  3  0  0  0  0  0  0
  186.2470  178.3890  143.5010 N   0  0  2  0  0  0  0  0  0  0  0  0
  183.5870  177.1310  138.8490 C   0  0  2  0  0  3  0  0  0  0  0  0
  181.4760  178.3030  139.5190 O   0  0  0  0  0  0  0  0  0  0  0  0
  185.8880  178.6100  145.8370 C   0  0  2  0  0  3  0  0  0  0  0  0
  179.9740  178.9020  141.8540 C   0  0  0  0  0  3  0  0  0  0  0  0
  182.1910  178.7670  140.6600 C   0  0  1  0  0  3  0  0  0  0  0  0
  181.3710  178.8020  141.9200 C   0  0  0  0  0  0  0  0  0  0  0  0
  183.5220  178.6780  143.2930 C   0  0  2  0  0  3  0  0  0  0  0  0
  185.8430  177.1330  145.5200 C   0  0  0  0  0  2  0  0  0  0  0  0
  182.0340  177.1240  138.9480 C   0  0  2  0  0  3  0  0  0  0  0  0
  186.0850  177.0340  144.0220 C   0  0  0  0  0  2  0  0  0  0  0  0
  181.2440  178.9430  144.3440 C   0  0  0  0  0  3  0  0  0  0  0  0
  182.0200  178.8650  143.1790 C   0  0  0  0  0  0  0  0  0  0  0  0
  184.1610  179.6310  144.2800 C   0  0  0  0  0  2  0  0  0  0  0  0
  184.2160  178.1050  139.6590 O   0  0  0  0  0  0  0  0  0  0  0  0
  186.6160  179.3780  141.2940 C   0  0  0  0  0  1  0  0  0  0  0  0
  184.9300  178.9400  146.7990 O   0  0  0  0  0  1  0  0  0  0  0  0
  184.2680  178.8700  141.9760 C   0  0  2  0  0  3  0  0  0  0  0  0
  185.6560  179.3030  144.5020 C   0  0  2  0  0  3  0  0  0  0  0  0
  180.0830  176.0450  140.0470 C   0  0  0  0  0  2  0  0  0  0  0  0
  181.5460  175.8860  139.6860 C   0  0  1  0  0  3  0  0  0  0  0  0
  180.4800  175.2000  138.8550 C   0  0  1  0  0  3  0  0  0  0  0  0
  180.4310  173.7340  139.2340 C   0  0  0  0  0  2  0  0  0  0  0  0
  180.0160  172.9200  138.0580 C   0  0  0  0  0  0  0  0  0  0  0  0
  178.9310  173.1670  137.4730 O   0  0  0  0  0  0  0  0  0  0  0  0
  180.8460  171.9130  137.5830 O   0  0  0  0  0  1  0  0  0  0  0  0
  185.3210  177.7610  137.3390 O   0  0  0  0  0  1  0  0  0  0  0  0
  183.9970  177.3280  137.4020 C   0  0  0  0  0  2  0  0  0  0  0  0
  1 19  1  6  0  0  0
  1 22  1  0  0  0  0
  2  3  1  0  0  0  0
  3 16  2  0  0  0  0
  4 20  1  6  0  0  0
  4  5  1  0  0  0  0
  5 15  1  1  0  0  0
  5 23  1  0  0  0  0
  6 32  1  6  0  0  0
  6 14  1  0  0  0  0
  6 19  1  0  0  0  0
  8 21  1  1  0  0  0
  9 11  1  0  0  0  0
  9  2  2  0  0  0  0
 10  7  1  6  0  0  0
 10  1  1  0  0  0  0
 10 11  1  0  0  0  0
 11 17  2  0  0  0  0
 12 18  1  1  0  0  0
 13  8  1  0  0  0  0
 14  7  1  1  0  0  0
 14 25  1  0  0  0  0
 15 13  1  0  0  0  0
 17 12  1  0  0  0  0
 17 16  1  0  0  0  0
 18 23  1  0  0  0  0
 22  4  1  0  0  0  0
 22 12  1  0  0  0  0
 23  8  1  0  0  0  0
 25 24  1  0  0  0  0
 26 27  1  0  0  0  0
 26 25  1  0  0  0  0
 26 24  1  0  0  0  0
 28 27  1  0  0  0  0
 29 28  2  0  0  0  0
 30 28  1  0  0  0  0
 31 32  1  0  0  0  0
M  END
>  <MODEL>
7

>  <REMARK>
 VINA RESULT:      -5.7      2.669      7.713
  Name = 
  4 active torsions:
  status: ('A' for Active; 'I' for Inactive)
    1  A    between atoms: C_7  and  C_19
    2  A    between atoms: C_10  and  C_17
    3  A    between atoms: C_20  and  C_29
    4  A    between atoms: C_29  and  C_30
                            x       y       z     vdW  Elec       q    Type
                         _______ _______ _______ _____ _____    ______ ____

>  <TORSDO>
F 4

$$$$
=
 OpenBabel11122410513D

 32 37  0  0  1  0  0  0  0  0999 V2000
  184.1140  177.3210  139.0650 C   0  0  1  0  0  3  0  0  0  0  0  0
  188.3470  178.5750  136.9170 C   0  0  0  0  0  3  0  0  0  0  0  0
  188.2550  177.4440  136.1050 C   0  0  0  0  0  3  0  0  0  0  0  0
  182.5500  175.6070  138.0240 C   0  0  2  0  0  3  0  0  0  0  0  0
  182.6450  174.3990  137.1790 N   0  0  2  0  0  0  0  0  0  0  0  0
  183.6440  178.1080  141.1230 C   0  0  2  0  0  3  0  0  0  0  0  0
  185.3270  179.3740  139.7660 O   0  0  0  0  0  0  0  0  0  0  0  0
  183.7490  173.1550  135.4860 C   0  0  2  0  0  3  0  0  0  0  0  0
  187.2930  178.9140  137.7690 C   0  0  0  0  0  3  0  0  0  0  0  0
  184.9760  178.5210  138.6810 C   0  0  1  0  0  3  0  0  0  0  0  0
  186.1420  178.1150  137.8220 C   0  0  0  0  0  0  0  0  0  0  0  0
  184.8300  176.0610  137.0550 C   0  0  2  0  0  3  0  0  0  0  0  0
  184.1660  172.5640  136.8120 C   0  0  0  0  0  2  0  0  0  0  0  0
  185.0280  178.8150  141.0410 C   0  0  2  0  0  3  0  0  0  0  0  0
  183.4340  173.3800  137.8660 C   0  0  0  0  0  2  0  0  0  0  0  0
  187.1040  176.6530  136.1350 C   0  0  0  0  0  3  0  0  0  0  0  0
  186.0260  176.9930  136.9650 C   0  0  0  0  0  0  0  0  0  0  0  0
  184.3240  175.6200  135.6980 C   0  0  0  0  0  2  0  0  0  0  0  0
  183.0740  177.8010  139.8660 O   0  0  0  0  0  0  0  0  0  0  0  0
  181.1750  176.2290  137.8710 C   0  0  0  0  0  1  0  0  0  0  0  0
  184.8250  173.1820  134.5950 O   0  0  0  0  0  1  0  0  0  0  0  0
  183.6320  176.6680  137.7770 C   0  0  2  0  0  3  0  0  0  0  0  0
  183.2220  174.5430  135.8250 C   0  0  2  0  0  3  0  0  0  0  0  0
  187.4450  178.6430  141.5980 C   0  0  0  0  0  2  0  0  0  0  0  0
  186.1400  177.8800  141.4920 C   0  0  1  0  0  3  0  0  0  0  0  0
  186.6490  178.3290  142.8470 C   0  0  1  0  0  3  0  0  0  0  0  0
  187.2670  177.1420  143.5570 C   0  0  0  0  0  2  0  0  0  0  0  0
  187.4700  177.4630  144.9970 C   0  0  0  0  0  0  0  0  0  0  0  0
  188.5830  177.8920  145.3960 O   0  0  0  0  0  0  0  0  0  0  0  0
  186.4190  177.3250  145.8940 O   0  0  0  0  0  1  0  0  0  0  0  0
  183.1090  179.0470  143.2470 O   0  0  0  0  0  1  0  0  0  0  0  0
  182.6860  178.9700  141.9210 C   0  0  0  0  0  2  0  0  0  0  0  0
  1 19  1  1  0  0  0
  2  9  1  0  0  0  0
  3 16  1  0  0  0  0
  3  2  2  0  0  0  0
  4 20  1  6  0  0  0
  5 15  1  1  0  0  0
  5  4  1  0  0  0  0
  6 32  1  6  0  0  0
  8 21  1  6  0  0  0
  8 23  1  0  0  0  0
  8 13  1  0  0  0  0
  9 11  2  0  0  0  0
 10 11  1  1  0  0  0
 10  1  1  0  0  0  0
 10  7  1  0  0  0  0
 12 18  1  6  0  0  0
 12 22  1  0  0  0  0
 13 15  1  0  0  0  0
 14  7  1  6  0  0  0
 14  6  1  0  0  0  0
 14 25  1  0  0  0  0
 16 17  2  0  0  0  0
 17 12  1  0  0  0  0
 17 11  1  0  0  0  0
 18 23  1  0  0  0  0
 19  6  1  0  0  0  0
 22  4  1  0  0  0  0
 22  1  1  0  0  0  0
 23  5  1  0  0  0  0
 24 26  1  0  0  0  0
 25 24  1  0  0  0  0
 25 26  1  0  0  0  0
 26 27  1  0  0  0  0
 27 28  1  0  0  0  0
 28 29  2  0  0  0  0
 28 30  1  0  0  0  0
 32 31  1  0  0  0  0
M  END
>  <MODEL>
8

>  <REMARK>
 VINA RESULT:      -5.5      2.231      2.985
  Name = 
  4 active torsions:
  status: ('A' for Active; 'I' for Inactive)
    1  A    between atoms: C_7  and  C_19
    2  A    between atoms: C_10  and  C_17
    3  A    between atoms: C_20  and  C_29
    4  A    between atoms: C_29  and  C_30
                            x       y       z     vdW  Elec       q    Type
                         _______ _______ _______ _____ _____    ______ ____

>  <TORSDO>
F 4

$$$$
=
 OpenBabel11122410513D

 32 37  0  0  1  0  0  0  0  0999 V2000
  185.2000  178.3380  140.4490 C   0  0  1  0  0  3  0  0  0  0  0  0
  180.6450  179.0470  142.1380 C   0  0  0  0  0  3  0  0  0  0  0  0
  181.0980  178.7920  143.4330 C   0  0  0  0  0  3  0  0  0  0  0  0
  187.2110  178.3390  142.0060 C   0  0  2  0  0  3  0  0  0  0  0  0
  187.5200  177.9840  143.4050 N   0  0  2  0  0  0  0  0  0  0  0  0
  185.5010  177.7790  138.2880 C   0  0  2  0  0  3  0  0  0  0  0  0
  183.3480  178.9100  138.8910 O   0  0  0  0  0  0  0  0  0  0  0  0
  186.8460  177.7720  145.6710 C   0  0  2  0  0  3  0  0  0  0  0  0
  181.5530  179.1290  141.0810 C   0  0  0  0  0  3  0  0  0  0  0  0
  183.9090  179.1100  140.1850 C   0  0  1  0  0  3  0  0  0  0  0  0
  182.9230  178.9460  141.3090 C   0  0  0  0  0  0  0  0  0  0  0  0
  184.8590  178.4500  142.9010 C   0  0  2  0  0  3  0  0  0  0  0  0
  186.8070  176.3880  145.0670 C   0  0  0  0  0  2  0  0  0  0  0  0
  183.9500  177.8340  138.1780 C   0  0  2  0  0  3  0  0  0  0  0  0
  187.2520  176.5650  143.6240 C   0  0  0  0  0  2  0  0  0  0  0  0
  182.4640  178.6270  143.6760 C   0  0  0  0  0  3  0  0  0  0  0  0
  183.3920  178.7330  142.6300 C   0  0  0  0  0  0  0  0  0  0  0  0
  185.3790  179.1620  144.1320 C   0  0  0  0  0  2  0  0  0  0  0  0
  186.0360  178.5460  139.3490 O   0  0  0  0  0  0  0  0  0  0  0  0
  188.2170  179.3560  141.5030 C   0  0  0  0  0  1  0  0  0  0  0  0
  185.7720  177.9620  146.5440 O   0  0  0  0  0  1  0  0  0  0  0  0
  185.7850  178.8500  141.7570 C   0  0  2  0  0  3  0  0  0  0  0  0
  186.8200  178.7190  144.4790 C   0  0  2  0  0  3  0  0  0  0  0  0
  181.8220  176.5860  138.4890 C   0  0  0  0  0  2  0  0  0  0  0  0
  183.3320  176.5050  138.5880 C   0  0  1  0  0  3  0  0  0  0  0  0
  182.6160  175.9010  137.3970 C   0  0  1  0  0  3  0  0  0  0  0  0
  182.5400  174.3990  137.5810 C   0  0  0  0  0  2  0  0  0  0  0  0
  181.2320  173.8930  137.0770 C   0  0  0  0  0  0  0  0  0  0  0  0
  180.8590  174.1700  135.9090 O   0  0  0  0  0  0  0  0  0  0  0  0
  180.4430  173.0850  137.8850 O   0  0  0  0  0  1  0  0  0  0  0  0
  187.2460  179.0020  137.2190 O   0  0  0  0  0  1  0  0  0  0  0  0
  186.1140  178.2270  136.9750 C   0  0  0  0  0  2  0  0  0  0  0  0
  1 19  1  6  0  0  0
  1 22  1  0  0  0  0
  2  3  1  0  0  0  0
  3 16  2  0  0  0  0
  4 20  1  1  0  0  0
  4  5  1  0  0  0  0
  5 15  1  6  0  0  0
  5 23  1  0  0  0  0
  6 32  1  6  0  0  0
  6 19  1  0  0  0  0
  8 21  1  1  0  0  0
  9 11  1  0  0  0  0
  9  2  2  0  0  0  0
 10  7  1  6  0  0  0
 10  1  1  0  0  0  0
 10 11  1  0  0  0  0
 11 17  2  0  0  0  0
 12 18  1  1  0  0  0
 13  8  1  0  0  0  0
 14  6  1  0  0  0  0
 14 25  1  0  0  0  0
 14  7  1  1  0  0  0
 15 13  1  0  0  0  0
 17 12  1  0  0  0  0
 17 16  1  0  0  0  0
 18 23  1  0  0  0  0
 22  4  1  0  0  0  0
 22 12  1  0  0  0  0
 23  8  1  0  0  0  0
 24 25  1  0  0  0  0
 26 27  1  0  0  0  0
 26 24  1  0  0  0  0
 26 25  1  0  0  0  0
 28 27  1  0  0  0  0
 28 30  1  0  0  0  0
 29 28  2  0  0  0  0
 32 31  1  0  0  0  0
M  END
>  <MODEL>
9

>  <REMARK>
 VINA RESULT:      -5.5      2.479      7.498
  Name = 
  4 active torsions:
  status: ('A' for Active; 'I' for Inactive)
    1  A    between atoms: C_7  and  C_19
    2  A    between atoms: C_10  and  C_17
    3  A    between atoms: C_20  and  C_29
    4  A    between atoms: C_29  and  C_30
                            x       y       z     vdW  Elec       q    Type
                         _______ _______ _______ _____ _____    ______ ____

>  <TORSDO>
F 4

$$$$
