=
 OpenBabel11122412143D

 34 40  0  0  1  0  0  0  0  0999 V2000
  186.2080  178.2890  140.8730 C   0  0  2  0  0  3  0  0  0  0  0  0
  184.9860  179.2200  139.0670 C   0  0  0  0  0  2  0  0  0  0  0  0
  189.3710  178.3330  147.8860 C   0  0  0  0  0  2  0  0  0  0  0  0
  187.6290  178.0260  143.0020 C   0  0  0  0  0  0  0  0  0  0  0  0
  186.4380  177.7920  145.1580 C   0  0  0  0  0  0  0  0  0  0  0  0
  186.9280  178.6170  147.4610 C   0  0  0  0  0  2  0  0  0  0  0  0
  187.9700  178.0880  148.4360 C   0  0  0  0  0  2  0  0  0  0  0  0
  189.1750  176.7320  146.0720 C   0  0  0  0  0  2  0  0  0  0  0  0
  183.9530  179.2700  141.1810 C   0  0  2  0  0  3  0  0  0  0  0  0
  180.8980  178.3810  141.6880 C   0  0  0  0  0  2  0  0  0  0  0  0
  185.3080  177.9710  144.5330 N   0  0  0  0  0  0  0  0  0  0  0  0
  188.9910  177.8860  145.0910 C   0  0  0  0  0  2  0  0  0  0  0  0
  183.8930  178.3330  142.4250 C   0  0  1  0  0  3  0  0  0  0  0  0
  183.6400  178.5520  138.9130 C   0  0  0  0  0  2  0  0  0  0  0  0
  187.6900  177.8150  144.4220 N   0  0  0  0  0  0  0  0  0  0  0  0
  189.9420  177.1400  147.2500 N   0  0  0  0  0  2  0  0  0  0  0  0
  181.8310  177.9190  140.5560 C   0  0  2  0  0  3  0  0  0  0  0  0
  186.3200  178.1920  142.3660 C   0  0  0  0  0  0  0  0  0  0  0  0
  186.3850  177.4750  146.6210 C   0  0  0  0  0  2  0  0  0  0  0  0
  185.2210  178.2070  143.1160 C   0  0  0  0  0  0  0  0  0  0  0  0
  188.6570  178.4130  140.8790 C   0  0  0  0  0  3  0  0  0  0  0  0
  181.5360  179.3130  142.7210 C   0  0  0  0  0  2  0  0  0  0  0  0
  188.7080  178.1280  142.2850 N   0  0  0  0  0  0  0  0  0  0  0  0
  182.7730  178.7220  143.4020 C   0  0  0  0  0  2  0  0  0  0  0  0
  182.8660  178.9820  140.1320 C   0  0  1  0  0  3  0  0  0  0  0  0
  187.5220  178.5140  140.2480 N   0  0  0  0  0  0  0  0  0  0  0  0
  185.2680  179.3570  140.4950 N   0  0  1  0  0  0  0  0  0  0  0  0
  181.0230  177.5050  139.4190 N   0  0  0  0  0  2  0  0  0  0  0  0
  179.7860  178.1550  139.5400 N   0  0  0  0  0  2  0  0  0  0  0  0
  180.9200  180.5220  137.2930 C   0  0  0  0  0  2  0  0  0  0  0  0
  180.3970  178.1850  137.1870 C   0  0  0  0  0  2  0  0  0  0  0  0
  179.5100  178.7850  138.2610 C   0  0  0  0  0  3  0  0  0  0  0  0
  180.8620  179.3480  136.3430 C   0  0  0  0  0  2  0  0  0  0  0  0
  179.8490  180.2640  138.3340 C   0  0  0  0  0  2  0  0  0  0  0  0
  1 26  1  6  0  0  0
  1 18  1  0  0  0  0
  2 27  1  0  0  0  0
  3  7  1  0  0  0  0
  4 15  1  0  0  0  0
  5 19  1  0  0  0  0
  6  7  1  0  0  0  0
  8 16  1  0  0  0  0
  9 13  1  0  0  0  0
 10 22  1  0  0  0  0
 11  5  2  0  0  0  0
 12  8  1  0  0  0  0
 13 20  1  0  0  0  0
 13 24  1  0  0  0  0
 14  2  1  0  0  0  0
 14 25  1  0  0  0  0
 15 12  1  0  0  0  0
 15  5  1  0  0  0  0
 16  3  1  0  0  0  0
 17 10  1  0  0  0  0
 18  4  1  0  0  0  0
 18 20  2  0  0  0  0
 19  6  1  0  0  0  0
 20 11  1  0  0  0  0
 21 23  1  0  0  0  0
 22 24  1  0  0  0  0
 23  4  2  0  0  0  0
 25 17  1  0  0  0  0
 25  9  1  0  0  0  0
 26 21  2  0  0  0  0
 27  1  1  0  0  0  0
 27  9  1  0  0  0  0
 28 29  1  0  0  0  0
 28 17  1  0  0  0  0
 30 34  1  0  0  0  0
 31 32  1  0  0  0  0
 32 34  1  0  0  0  0
 32 29  1  0  0  0  0
 33 31  1  0  0  0  0
 33 30  1  0  0  0  0
M  END
>  <MODEL>
1

>  <REMARK>
 VINA RESULT:      -8.8      0.000      0.000
  Name = 
  3 active torsions:
  status: ('A' for Active; 'I' for Inactive)
    1  A    between atoms: C_17  and  N_28
    2  A    between atoms: N_28  and  N_29
    3  A    between atoms: N_29  and  C_32
                            x       y       z     vdW  Elec       q    Type
                         _______ _______ _______ _____ _____    ______ ____

>  <TORSDO>
F 3

$$$$
=
 OpenBabel11122412143D

 34 40  0  0  1  0  0  0  0  0999 V2000
  186.0250  178.3400  140.1030 C   0  0  2  0  0  3  0  0  0  0  0  0
  184.2990  179.5290  138.9970 C   0  0  0  0  0  2  0  0  0  0  0  0
  191.5940  177.4240  145.3330 C   0  0  0  0  0  2  0  0  0  0  0  0
  188.1150  177.7650  141.4890 C   0  0  0  0  0  0  0  0  0  0  0  0
  187.8120  177.3430  143.9080 C   0  0  0  0  0  0  0  0  0  0  0  0
  189.2060  177.8720  145.9070 C   0  0  0  0  0  2  0  0  0  0  0  0
  190.4880  177.1860  146.3560 C   0  0  0  0  0  2  0  0  0  0  0  0
  190.5860  176.0540  143.6010 C   0  0  0  0  0  2  0  0  0  0  0  0
  184.1500  179.3850  141.3410 C   0  0  2  0  0  3  0  0  0  0  0  0
  181.4470  178.5920  142.9050 C   0  0  0  0  0  2  0  0  0  0  0  0
  186.5500  177.6460  143.7850 N   0  0  0  0  0  0  0  0  0  0  0  0
  190.1480  177.3200  142.8720 C   0  0  0  0  0  2  0  0  0  0  0  0
  184.4820  178.3160  142.4250 C   0  0  1  0  0  3  0  0  0  0  0  0
  182.9410  178.9490  139.3140 C   0  0  0  0  0  2  0  0  0  0  0  0
  188.6890  177.3900  142.7520 N   0  0  0  0  0  0  0  0  0  0  0  0
  191.7740  176.2860  144.4240 N   0  0  0  0  0  2  0  0  0  0  0  0
  181.8390  178.2190  141.4660 C   0  0  2  0  0  3  0  0  0  0  0  0
  186.6830  178.0660  141.4240 C   0  0  0  0  0  0  0  0  0  0  0  0
  188.2880  176.8620  145.2450 C   0  0  0  0  0  2  0  0  0  0  0  0
  185.9550  178.0470  142.5370 C   0  0  0  0  0  0  0  0  0  0  0  0
  188.2960  178.3430  139.1770 C   0  0  0  0  0  3  0  0  0  0  0  0
  182.5080  179.3680  143.6900 C   0  0  0  0  0  2  0  0  0  0  0  0
  188.8490  177.8970  140.4240 N   0  0  0  0  0  0  0  0  0  0  0  0
  183.8520  178.6430  143.7880 C   0  0  0  0  0  2  0  0  0  0  0  0
  182.7260  179.2730  140.7710 C   0  0  1  0  0  3  0  0  0  0  0  0
  187.0200  178.5710  139.0430 N   0  0  0  0  0  0  0  0  0  0  0  0
  185.1100  179.4880  140.2120 N   0  0  1  0  0  0  0  0  0  0  0  0
  180.6270  177.9780  140.6960 N   0  0  0  0  0  2  0  0  0  0  0  0
  179.5720  178.5780  141.3970 N   0  0  0  0  0  2  0  0  0  0  0  0
  180.0830  181.4270  139.5100 C   0  0  0  0  0  2  0  0  0  0  0  0
  179.3330  179.1960  139.0580 C   0  0  0  0  0  2  0  0  0  0  0  0
  178.9330  179.5120  140.4860 C   0  0  0  0  0  3  0  0  0  0  0  0
  179.5870  180.5310  138.3990 C   0  0  0  0  0  2  0  0  0  0  0  0
  179.4180  180.9220  140.7750 C   0  0  0  0  0  2  0  0  0  0  0  0
  1 26  1  6  0  0  0
  1 27  1  0  0  0  0
  1 18  1  0  0  0  0
  2 14  1  0  0  0  0
  2 27  1  0  0  0  0
  3  7  1  0  0  0  0
  4 15  1  0  0  0  0
  5 19  1  0  0  0  0
  6  7  1  0  0  0  0
  8 16  1  0  0  0  0
  9 13  1  0  0  0  0
 10 22  1  0  0  0  0
 11  5  2  0  0  0  0
 12  8  1  0  0  0  0
 13 20  1  0  0  0  0
 13 24  1  0  0  0  0
 14 25  1  0  0  0  0
 15 12  1  0  0  0  0
 15  5  1  0  0  0  0
 16  3  1  0  0  0  0
 17 10  1  0  0  0  0
 18  4  1  0  0  0  0
 18 20  2  0  0  0  0
 19  6  1  0  0  0  0
 20 11  1  0  0  0  0
 21 23  1  0  0  0  0
 22 24  1  0  0  0  0
 23  4  2  0  0  0  0
 25  9  1  0  0  0  0
 25 17  1  0  0  0  0
 26 21  2  0  0  0  0
 27  9  1  0  0  0  0
 28 29  1  0  0  0  0
 28 17  1  0  0  0  0
 30 34  1  0  0  0  0
 31 32  1  0  0  0  0
 32 34  1  0  0  0  0
 32 29  1  0  0  0  0
 33 31  1  0  0  0  0
 33 30  1  0  0  0  0
M  END
>  <MODEL>
2

>  <REMARK>
 VINA RESULT:      -8.7      1.542      1.986
  Name = 
  3 active torsions:
  status: ('A' for Active; 'I' for Inactive)
    1  A    between atoms: C_17  and  N_28
    2  A    between atoms: N_28  and  N_29
    3  A    between atoms: N_29  and  C_32
                            x       y       z     vdW  Elec       q    Type
                         _______ _______ _______ _____ _____    ______ ____

>  <TORSDO>
F 3

$$$$
=
 OpenBabel11122412143D

 34 40  0  0  1  0  0  0  0  0999 V2000
  186.2190  178.2860  141.0590 C   0  0  2  0  0  3  0  0  0  0  0  0
  184.9650  179.2130  139.2740 C   0  0  0  0  0  2  0  0  0  0  0  0
  189.5170  178.3490  148.0100 C   0  0  0  0  0  2  0  0  0  0  0  0
  187.6790  178.0270  143.1610 C   0  0  0  0  0  0  0  0  0  0  0  0
  186.5300  177.8060  145.3410 C   0  0  0  0  0  0  0  0  0  0  0  0
  187.0670  178.6390  147.6300 C   0  0  0  0  0  2  0  0  0  0  0  0
  188.1260  178.1110  148.5870 C   0  0  0  0  0  2  0  0  0  0  0  0
  189.2810  176.7410  146.2070 C   0  0  0  0  0  2  0  0  0  0  0  0
  183.9730  179.2750  141.4070 C   0  0  2  0  0  3  0  0  0  0  0  0
  180.9260  178.3980  141.9770 C   0  0  0  0  0  2  0  0  0  0  0  0
  185.3890  177.9860  144.7370 N   0  0  0  0  0  0  0  0  0  0  0  0
  189.0820  177.8910  145.2250 C   0  0  0  0  0  2  0  0  0  0  0  0
  183.9340  178.3430  142.6560 C   0  0  1  0  0  3  0  0  0  0  0  0
  183.6140  178.5480  139.1480 C   0  0  0  0  0  2  0  0  0  0  0  0
  187.7670  177.8220  144.5810 N   0  0  0  0  0  0  0  0  0  0  0  0
  190.0720  177.1520  147.3680 N   0  0  0  0  0  2  0  0  0  0  0  0
  181.8350  177.9270  140.8290 C   0  0  2  0  0  3  0  0  0  0  0  0
  186.3590  178.1950  142.5510 C   0  0  0  0  0  0  0  0  0  0  0  0
  186.5040  177.4950  146.8060 C   0  0  0  0  0  2  0  0  0  0  0  0
  185.2750  178.2160  143.3210 C   0  0  0  0  0  0  0  0  0  0  0  0
  188.6680  178.4020  141.0180 C   0  0  0  0  0  3  0  0  0  0  0  0
  181.5860  179.3320  142.9930 C   0  0  0  0  0  2  0  0  0  0  0  0
  188.7450  178.1230  142.4240 N   0  0  0  0  0  0  0  0  0  0  0  0
  182.8340  178.7400  143.6520 C   0  0  0  0  0  2  0  0  0  0  0  0
  182.8650  178.9860  140.3810 C   0  0  1  0  0  3  0  0  0  0  0  0
  187.5210  178.5030  140.4080 N   0  0  0  0  0  0  0  0  0  0  0  0
  185.2750  179.3550  140.6950 N   0  0  1  0  0  0  0  0  0  0  0  0
  181.0040  177.5120  139.7090 N   0  0  0  0  0  2  0  0  0  0  0  0
  180.8930  176.1160  139.7810 N   0  0  0  0  0  2  0  0  0  0  0  0
  181.7170  176.9320  136.5260 C   0  0  0  0  0  2  0  0  0  0  0  0
  182.3230  175.1840  138.0490 C   0  0  0  0  0  2  0  0  0  0  0  0
  180.9170  175.6170  138.4170 C   0  0  0  0  0  3  0  0  0  0  0  0
  182.5480  175.6750  136.6390 C   0  0  0  0  0  2  0  0  0  0  0  0
  180.5380  176.7320  137.4570 C   0  0  0  0  0  2  0  0  0  0  0  0
  1 26  1  6  0  0  0
  1 18  1  0  0  0  0
  2 27  1  0  0  0  0
  3  7  1  0  0  0  0
  4 15  1  0  0  0  0
  5 19  1  0  0  0  0
  6  7  1  0  0  0  0
  8 16  1  0  0  0  0
  9 13  1  0  0  0  0
 10 22  1  0  0  0  0
 11  5  2  0  0  0  0
 12  8  1  0  0  0  0
 13 20  1  0  0  0  0
 13 24  1  0  0  0  0
 14  2  1  0  0  0  0
 14 25  1  0  0  0  0
 15 12  1  0  0  0  0
 15  5  1  0  0  0  0
 16  3  1  0  0  0  0
 17 10  1  0  0  0  0
 18  4  1  0  0  0  0
 18 20  2  0  0  0  0
 19  6  1  0  0  0  0
 20 11  1  0  0  0  0
 21 23  1  0  0  0  0
 22 24  1  0  0  0  0
 23  4  2  0  0  0  0
 25 17  1  0  0  0  0
 25  9  1  0  0  0  0
 26 21  2  0  0  0  0
 27  1  1  0  0  0  0
 27  9  1  0  0  0  0
 28 29  1  0  0  0  0
 28 17  1  0  0  0  0
 30 33  1  0  0  0  0
 30 34  1  0  0  0  0
 31 32  1  0  0  0  0
 32 29  1  0  0  0  0
 33 31  1  0  0  0  0
 34 32  1  0  0  0  0
M  END
>  <MODEL>
3

>  <REMARK>
 VINA RESULT:      -8.5      1.160      1.500
  Name = 
  3 active torsions:
  status: ('A' for Active; 'I' for Inactive)
    1  A    between atoms: C_17  and  N_28
    2  A    between atoms: N_28  and  N_29
    3  A    between atoms: N_29  and  C_32
                            x       y       z     vdW  Elec       q    Type
                         _______ _______ _______ _____ _____    ______ ____

>  <TORSDO>
F 3

$$$$
=
 OpenBabel11122412143D

 34 40  0  0  1  0  0  0  0  0999 V2000
  183.3430  178.4170  143.5890 C   0  0  0  0  0  0  0  0  0  0  0  0
  184.8470  178.9750  145.3350 C   0  0  0  0  0  2  0  0  0  0  0  0
  179.6180  179.6280  136.9670 C   0  0  0  0  0  2  0  0  0  0  0  0
  181.7180  178.5780  141.6020 C   0  0  1  0  0  3  0  0  0  0  0  0
  182.6640  178.3980  139.3230 C   0  0  0  0  0  0  0  0  0  0  0  0
  182.1040  179.5150  137.1640 C   0  0  0  0  0  2  0  0  0  0  0  0
  180.9120  179.2430  136.2580 C   0  0  0  0  0  2  0  0  0  0  0  0
  179.7280  177.8380  138.6040 C   0  0  0  0  0  2  0  0  0  0  0  0
  185.6850  179.0920  143.1390 C   0  0  2  0  0  3  0  0  0  0  0  0
  188.5130  177.8340  142.2460 C   0  0  0  0  0  2  0  0  0  0  0  0
  183.8590  178.3490  139.8420 N   0  0  0  0  0  0  0  0  0  0  0  0
  180.1700  178.8470  139.6580 C   0  0  0  0  0  2  0  0  0  0  0  0
  185.4920  178.2880  141.8170 C   0  0  1  0  0  3  0  0  0  0  0  0
  186.0840  178.1090  145.2920 C   0  0  0  0  0  2  0  0  0  0  0  0
  181.5000  178.5240  140.1820 N   0  0  0  0  0  0  0  0  0  0  0  0
  178.9310  178.4700  137.5510 N   0  0  0  0  0  2  0  0  0  0  0  0
  187.6240  177.3960  143.4220 C   0  0  2  0  0  3  0  0  0  0  0  0
  183.0870  178.4900  142.1120 C   0  0  0  0  0  0  0  0  0  0  0  0
  182.5390  178.2280  137.8400 C   0  0  0  0  0  2  0  0  0  0  0  0
  184.1050  178.4240  141.2580 C   0  0  0  0  0  0  0  0  0  0  0  0
  180.9510  178.8880  143.8440 C   0  0  0  0  0  3  0  0  0  0  0  0
  187.9360  178.9480  141.3700 C   0  0  0  0  0  2  0  0  0  0  0  0
  180.7330  178.7590  142.4310 N   0  0  0  0  0  0  0  0  0  0  0  0
  186.5680  178.6120  140.7700 C   0  0  0  0  0  2  0  0  0  0  0  0
  186.8040  178.5470  144.0420 C   0  0  1  0  0  3  0  0  0  0  0  0
  182.1390  178.7620  144.3620 N   0  0  0  0  0  0  0  0  0  0  0  0
  184.4640  179.2960  143.9610 N   0  0  0  0  0  0  0  0  0  0  0  0
  188.4580  176.7570  144.4300 N   0  0  0  0  0  2  0  0  0  0  0  0
  189.7890  176.9130  144.0170 N   0  0  0  0  0  2  0  0  0  0  0  0
  190.2400  176.5260  147.4200 C   0  0  0  0  0  2  0  0  0  0  0  0
  191.6620  176.4380  145.4930 C   0  0  0  0  0  2  0  0  0  0  0  0
  190.5350  177.3990  145.1640 C   0  0  0  0  0  3  0  0  0  0  0  0
  191.6770  176.3260  146.9990 C   0  0  0  0  0  2  0  0  0  0  0  0
  189.6300  177.4460  146.3820 C   0  0  0  0  0  2  0  0  0  0  0  0
  1 27  1  0  0  0  0
  1 26  2  0  0  0  0
  3 16  1  0  0  0  0
  4 18  1  6  0  0  0
  4 23  1  0  0  0  0
  5 11  2  0  0  0  0
  5 15  1  0  0  0  0
  6 19  1  0  0  0  0
  7  3  1  0  0  0  0
  7  6  1  0  0  0  0
  8 12  1  0  0  0  0
  9 27  1  1  0  0  0
  9 25  1  0  0  0  0
 10 17  1  0  0  0  0
 11 20  1  0  0  0  0
 12 15  1  0  0  0  0
 13 24  1  6  0  0  0
 13  9  1  0  0  0  0
 14  2  1  0  0  0  0
 15  4  1  0  0  0  0
 16  8  1  0  0  0  0
 17 25  1  0  0  0  0
 17 28  1  1  0  0  0
 18  1  1  0  0  0  0
 19  5  1  0  0  0  0
 20 13  1  0  0  0  0
 20 18  2  0  0  0  0
 21 26  1  0  0  0  0
 22 10  1  0  0  0  0
 23 21  2  0  0  0  0
 24 22  1  0  0  0  0
 25 14  1  1  0  0  0
 27  2  1  0  0  0  0
 29 28  1  0  0  0  0
 29 32  1  0  0  0  0
 31 33  1  0  0  0  0
 32 31  1  0  0  0  0
 32 34  1  0  0  0  0
 33 30  1  0  0  0  0
 34 30  1  0  0  0  0
M  END
>  <MODEL>
4

>  <REMARK>
 VINA RESULT:      -8.0      1.632      9.357
  Name = 
  3 active torsions:
  status: ('A' for Active; 'I' for Inactive)
    1  A    between atoms: C_17  and  N_28
    2  A    between atoms: N_28  and  N_29
    3  A    between atoms: N_29  and  C_32
                            x       y       z     vdW  Elec       q    Type
                         _______ _______ _______ _____ _____    ______ ____

>  <TORSDO>
F 3

$$$$
=
 OpenBabel11122412143D

 34 40  0  0  1  0  0  0  0  0999 V2000
  183.6910  179.0360  143.4450 C   0  0  2  0  0  3  0  0  0  0  0  0
  181.4020  178.9040  142.8410 C   0  0  0  0  0  2  0  0  0  0  0  0
  190.8440  176.3140  144.2330 C   0  0  0  0  0  2  0  0  0  0  0  0
  186.0920  178.4120  144.1250 C   0  0  0  0  0  0  0  0  0  0  0  0
  187.7480  178.0730  142.3180 C   0  0  0  0  0  0  0  0  0  0  0  0
  189.6550  176.4880  142.0450 C   0  0  0  0  0  2  0  0  0  0  0  0
  191.0110  176.5360  142.7340 C   0  0  0  0  0  2  0  0  0  0  0  0
  189.7290  178.4310  144.6420 C   0  0  0  0  0  2  0  0  0  0  0  0
  182.9670  178.2940  141.1940 C   0  0  2  0  0  3  0  0  0  0  0  0
  182.8400  179.3370  138.1480 C   0  0  0  0  0  2  0  0  0  0  0  0
  186.8010  178.2490  141.4410 N   0  0  0  0  0  0  0  0  0  0  0  0
  188.3990  177.6930  144.7610 C   0  0  0  0  0  2  0  0  0  0  0  0
  184.3860  178.7730  140.7580 C   0  0  1  0  0  3  0  0  0  0  0  0
  181.1060  179.7470  141.6230 C   0  0  0  0  0  2  0  0  0  0  0  0
  187.4490  178.1380  143.7380 N   0  0  0  0  0  0  0  0  0  0  0  0
  190.8590  177.5700  144.9930 N   0  0  0  0  0  2  0  0  0  0  0  0
  182.2650  180.0250  139.3970 C   0  0  2  0  0  3  0  0  0  0  0  0
  185.0870  178.6250  143.0810 C   0  0  0  0  0  0  0  0  0  0  0  0
  189.1470  177.8990  141.8110 C   0  0  0  0  0  2  0  0  0  0  0  0
  185.4310  178.5020  141.8020 C   0  0  0  0  0  0  0  0  0  0  0  0
  184.3660  178.6170  145.7650 C   0  0  0  0  0  3  0  0  0  0  0  0
  183.6210  178.0470  138.4140 C   0  0  0  0  0  2  0  0  0  0  0  0
  185.7320  178.4180  145.3740 N   0  0  0  0  0  0  0  0  0  0  0  0
  184.7940  178.2270  139.3810 C   0  0  0  0  0  2  0  0  0  0  0  0
  181.8170  179.0400  140.4980 C   0  0  1  0  0  3  0  0  0  0  0  0
  183.4380  178.8680  144.8850 N   0  0  0  0  0  0  0  0  0  0  0  0
  182.7080  178.2750  142.6570 N   0  0  1  0  0  0  0  0  0  0  0  0
  181.1610  180.8840  138.9950 N   0  0  0  0  0  2  0  0  0  0  0  0
  181.7240  182.0070  138.3730 N   0  0  0  0  0  2  0  0  0  0  0  0
  181.0540  184.2580  135.8390 C   0  0  0  0  0  2  0  0  0  0  0  0
  180.4470  181.9870  136.3040 C   0  0  0  0  0  2  0  0  0  0  0  0
  180.6560  182.6680  137.6430 C   0  0  0  0  0  3  0  0  0  0  0  0
  180.2420  183.1010  135.3050 C   0  0  0  0  0  2  0  0  0  0  0  0
  181.0510  184.1050  137.3460 C   0  0  0  0  0  2  0  0  0  0  0  0
  1 18  1  1  0  0  0
  1 26  1  0  0  0  0
  3 16  1  0  0  0  0
  4 23  2  0  0  0  0
  5 15  1  0  0  0  0
  6  7  1  0  0  0  0
  7  3  1  0  0  0  0
  8 12  1  0  0  0  0
  8 16  1  0  0  0  0
  9 27  1  0  0  0  0
 10 22  1  0  0  0  0
 10 17  1  0  0  0  0
 11 20  1  0  0  0  0
 11  5  2  0  0  0  0
 13  9  1  0  0  0  0
 13 20  1  0  0  0  0
 14  2  1  0  0  0  0
 15  4  1  0  0  0  0
 15 12  1  0  0  0  0
 17 25  1  0  0  0  0
 18  4  1  0  0  0  0
 19  6  1  0  0  0  0
 19  5  1  0  0  0  0
 20 18  2  0  0  0  0
 22 24  1  0  0  0  0
 23 21  1  0  0  0  0
 24 13  1  0  0  0  0
 25  9  1  0  0  0  0
 25 14  1  0  0  0  0
 26 21  2  0  0  0  0
 27  2  1  0  0  0  0
 27  1  1  0  0  0  0
 28 17  1  0  0  0  0
 29 28  1  0  0  0  0
 30 34  1  0  0  0  0
 31 32  1  0  0  0  0
 32 29  1  0  0  0  0
 33 30  1  0  0  0  0
 33 31  1  0  0  0  0
 34 32  1  0  0  0  0
M  END
>  <MODEL>
5

>  <REMARK>
 VINA RESULT:      -8.0      2.098      3.957
  Name = 
  3 active torsions:
  status: ('A' for Active; 'I' for Inactive)
    1  A    between atoms: C_17  and  N_28
    2  A    between atoms: N_28  and  N_29
    3  A    between atoms: N_29  and  C_32
                            x       y       z     vdW  Elec       q    Type
                         _______ _______ _______ _____ _____    ______ ____

>  <TORSDO>
F 3

$$$$
=
 OpenBabel11122412143D

 34 40  0  0  1  0  0  0  0  0999 V2000
  183.3560  179.0030  142.8410 C   0  0  2  0  0  3  0  0  0  0  0  0
  181.0020  178.8240  142.6290 C   0  0  0  0  0  2  0  0  0  0  0  0
  190.6170  176.5900  142.0250 C   0  0  0  0  0  2  0  0  0  0  0  0
  185.8590  178.4300  143.0100 C   0  0  0  0  0  0  0  0  0  0  0  0
  187.1770  178.4020  140.9160 C   0  0  0  0  0  0  0  0  0  0  0  0
  189.0520  176.9650  140.1150 C   0  0  0  0  0  2  0  0  0  0  0  0
  190.5070  177.0010  140.5600 C   0  0  0  0  0  2  0  0  0  0  0  0
  189.5270  178.5800  142.8900 C   0  0  0  0  0  2  0  0  0  0  0  0
  182.2680  178.5030  140.6720 C   0  0  2  0  0  3  0  0  0  0  0  0
  181.5690  179.8990  137.8540 C   0  0  0  0  0  2  0  0  0  0  0  0
  186.0830  178.6320  140.2450 N   0  0  0  0  0  0  0  0  0  0  0  0
  188.2630  177.7630  143.1400 C   0  0  0  0  0  2  0  0  0  0  0  0
  183.5700  179.1060  140.0630 C   0  0  1  0  0  3  0  0  0  0  0  0
  180.4680  179.7920  141.5990 C   0  0  0  0  0  2  0  0  0  0  0  0
  187.1330  178.2780  142.3620 N   0  0  0  0  0  0  0  0  0  0  0  0
  190.7280  177.7430  142.9260 N   0  0  0  0  0  2  0  0  0  0  0  0
  181.2040  180.4000  139.2610 C   0  0  2  0  0  3  0  0  0  0  0  0
  184.6780  178.7150  142.1910 C   0  0  0  0  0  0  0  0  0  0  0  0
  188.4680  178.3650  140.1570 C   0  0  0  0  0  2  0  0  0  0  0  0
  184.7920  178.7660  140.8670 C   0  0  0  0  0  0  0  0  0  0  0  0
  184.4460  178.3420  144.9360 C   0  0  0  0  0  3  0  0  0  0  0  0
  182.4230  178.6310  137.8120 C   0  0  0  0  0  2  0  0  0  0  0  0
  185.7270  178.2650  144.2920 N   0  0  0  0  0  0  0  0  0  0  0  0
  183.7430  178.7530  138.5770 C   0  0  0  0  0  2  0  0  0  0  0  0
  180.9900  179.2660  140.2860 C   0  0  1  0  0  3  0  0  0  0  0  0
  183.3690  178.6490  144.2690 N   0  0  0  0  0  0  0  0  0  0  0  0
  182.2730  178.2920  142.1420 N   0  0  1  0  0  0  0  0  0  0  0  0
  180.0190  181.2410  139.1700 N   0  0  0  0  0  2  0  0  0  0  0  0
  179.9790  181.7480  137.8630 N   0  0  0  0  0  2  0  0  0  0  0  0
  181.1810  184.6290  136.3810 C   0  0  0  0  0  2  0  0  0  0  0  0
  179.0160  183.8060  136.9980 C   0  0  0  0  0  2  0  0  0  0  0  0
  180.0100  183.1960  137.9680 C   0  0  0  0  0  3  0  0  0  0  0  0
  179.7160  184.9990  136.3900 C   0  0  0  0  0  2  0  0  0  0  0  0
  181.3820  183.7110  137.5700 C   0  0  0  0  0  2  0  0  0  0  0  0
  1 18  1  6  0  0  0
  1 26  1  0  0  0  0
  3 16  1  0  0  0  0
  4 23  2  0  0  0  0
  5 15  1  0  0  0  0
  6 19  1  0  0  0  0
  6  7  1  0  0  0  0
  7  3  1  0  0  0  0
  8 16  1  0  0  0  0
  8 12  1  0  0  0  0
  9 27  1  0  0  0  0
 10 17  1  0  0  0  0
 11 20  1  0  0  0  0
 11  5  2  0  0  0  0
 13  9  1  0  0  0  0
 13 20  1  0  0  0  0
 14  2  1  0  0  0  0
 15  4  1  0  0  0  0
 15 12  1  0  0  0  0
 17 25  1  0  0  0  0
 18  4  1  0  0  0  0
 19  5  1  0  0  0  0
 20 18  2  0  0  0  0
 22 10  1  0  0  0  0
 22 24  1  0  0  0  0
 23 21  1  0  0  0  0
 24 13  1  0  0  0  0
 25  9  1  0  0  0  0
 25 14  1  0  0  0  0
 26 21  2  0  0  0  0
 27  2  1  0  0  0  0
 27  1  1  0  0  0  0
 28 17  1  0  0  0  0
 29 32  1  0  0  0  0
 29 28  1  0  0  0  0
 30 33  1  0  0  0  0
 30 34  1  0  0  0  0
 31 32  1  0  0  0  0
 33 31  1  0  0  0  0
 34 32  1  0  0  0  0
M  END
>  <MODEL>
6

>  <REMARK>
 VINA RESULT:      -7.9      2.203      4.542
  Name = 
  3 active torsions:
  status: ('A' for Active; 'I' for Inactive)
    1  A    between atoms: C_17  and  N_28
    2  A    between atoms: N_28  and  N_29
    3  A    between atoms: N_29  and  C_32
                            x       y       z     vdW  Elec       q    Type
                         _______ _______ _______ _____ _____    ______ ____

>  <TORSDO>
F 3

$$$$
=
 OpenBabel11122412143D

 34 40  0  0  1  0  0  0  0  0999 V2000
  187.1590  177.9240  140.8510 C   0  0  2  0  0  3  0  0  0  0  0  0
  186.2020  178.7580  138.8490 C   0  0  0  0  0  2  0  0  0  0  0  0
  189.4300  178.3740  148.1880 C   0  0  0  0  0  2  0  0  0  0  0  0
  188.2950  177.7730  143.1540 C   0  0  0  0  0  0  0  0  0  0  0  0
  186.8400  177.7220  145.1540 C   0  0  0  0  0  0  0  0  0  0  0  0
  187.0700  178.6920  147.4410 C   0  0  0  0  0  2  0  0  0  0  0  0
  187.9640  178.2060  148.5720 C   0  0  0  0  0  2  0  0  0  0  0  0
  189.4040  176.6560  146.4730 C   0  0  0  0  0  2  0  0  0  0  0  0
  184.9190  178.9830  140.8080 C   0  0  2  0  0  3  0  0  0  0  0  0
  181.7950  178.2120  140.9840 C   0  0  0  0  0  2  0  0  0  0  0  0
  185.8030  177.8860  144.3820 N   0  0  0  0  0  0  0  0  0  0  0  0
  189.3840  177.7430  145.4030 C   0  0  0  0  0  2  0  0  0  0  0  0
  184.6730  178.1370  142.0940 C   0  0  1  0  0  3  0  0  0  0  0  0
  184.8640  178.1160  138.5710 C   0  0  0  0  0  2  0  0  0  0  0  0
  188.1730  177.6600  144.5810 N   0  0  0  0  0  0  0  0  0  0  0  0
  190.0340  177.1250  147.7090 N   0  0  0  0  0  2  0  0  0  0  0  0
  182.8440  177.6470  140.0120 C   0  0  2  0  0  3  0  0  0  0  0  0
  187.0820  177.9280  142.3500 C   0  0  0  0  0  0  0  0  0  0  0  0
  186.5950  177.5090  146.6170 C   0  0  0  0  0  2  0  0  0  0  0  0
  185.9000  178.0240  142.9530 C   0  0  0  0  0  0  0  0  0  0  0  0
  189.5910  177.9830  141.1570 C   0  0  0  0  0  3  0  0  0  0  0  0
  182.3330  179.1970  142.0250 C   0  0  0  0  0  2  0  0  0  0  0  0
  189.4580  177.7960  142.5740 N   0  0  0  0  0  0  0  0  0  0  0  0
  183.4540  178.6230  142.8940 C   0  0  0  0  0  2  0  0  0  0  0  0
  183.9600  178.6510  139.6520 C   0  0  1  0  0  3  0  0  0  0  0  0
  188.5470  178.0690  140.3830 N   0  0  0  0  0  0  0  0  0  0  0  0
  186.3110  178.9870  140.2880 N   0  0  1  0  0  0  0  0  0  0  0  0
  182.1690  177.1770  138.8120 N   0  0  0  0  0  2  0  0  0  0  0  0
  182.1460  175.7760  138.8800 N   0  0  0  0  0  2  0  0  0  0  0  0
  183.2470  175.9810  135.6110 C   0  0  0  0  0  2  0  0  0  0  0  0
  182.9220  174.2090  137.1910 C   0  0  0  0  0  2  0  0  0  0  0  0
  181.9140  175.2900  137.5310 C   0  0  0  0  0  3  0  0  0  0  0  0
  183.3520  174.4820  135.7690 C   0  0  0  0  0  2  0  0  0  0  0  0
  182.1270  176.4160  136.5350 C   0  0  0  0  0  2  0  0  0  0  0  0
  1 26  1  1  0  0  0
  1 18  1  0  0  0  0
  2 27  1  0  0  0  0
  3  7  1  0  0  0  0
  4 15  1  0  0  0  0
  5 19  1  0  0  0  0
  6  7  1  0  0  0  0
  8 16  1  0  0  0  0
  9 13  1  0  0  0  0
 10 22  1  0  0  0  0
 11  5  2  0  0  0  0
 12  8  1  0  0  0  0
 13 24  1  0  0  0  0
 13 20  1  0  0  0  0
 14  2  1  0  0  0  0
 14 25  1  0  0  0  0
 15  5  1  0  0  0  0
 15 12  1  0  0  0  0
 16  3  1  0  0  0  0
 17 10  1  0  0  0  0
 18 20  2  0  0  0  0
 18  4  1  0  0  0  0
 19  6  1  0  0  0  0
 20 11  1  0  0  0  0
 21 23  1  0  0  0  0
 22 24  1  0  0  0  0
 23  4  2  0  0  0  0
 25 17  1  0  0  0  0
 25  9  1  0  0  0  0
 26 21  2  0  0  0  0
 27  9  1  0  0  0  0
 27  1  1  0  0  0  0
 28 29  1  0  0  0  0
 28 17  1  0  0  0  0
 30 33  1  0  0  0  0
 30 34  1  0  0  0  0
 31 32  1  0  0  0  0
 32 29  1  0  0  0  0
 33 31  1  0  0  0  0
 34 32  1  0  0  0  0
M  END
>  <MODEL>
7

>  <REMARK>
 VINA RESULT:      -7.9      1.746      2.148
  Name = 
  3 active torsions:
  status: ('A' for Active; 'I' for Inactive)
    1  A    between atoms: C_17  and  N_28
    2  A    between atoms: N_28  and  N_29
    3  A    between atoms: N_29  and  C_32
                            x       y       z     vdW  Elec       q    Type
                         _______ _______ _______ _____ _____    ______ ____

>  <TORSDO>
F 3

$$$$
=
 OpenBabel11122412143D

 34 40  0  0  1  0  0  0  0  0999 V2000
  191.0270  176.9080  141.6700 C   0  0  2  0  0  3  0  0  0  0  0  0
  192.6540  177.1350  139.9610 C   0  0  0  0  0  2  0  0  0  0  0  0
  185.3570  179.3780  146.2460 C   0  0  0  0  0  2  0  0  0  0  0  0
  189.3430  177.4290  143.5430 C   0  0  0  0  0  0  0  0  0  0  0  0
  186.9830  177.7990  142.8990 C   0  0  0  0  0  0  0  0  0  0  0  0
  185.2150  179.3370  143.7540 C   0  0  0  0  0  2  0  0  0  0  0  0
  184.4250  179.2180  145.0490 C   0  0  0  0  0  2  0  0  0  0  0  0
  186.5240  177.2790  145.8940 C   0  0  0  0  0  2  0  0  0  0  0  0
  190.4550  177.7710  139.4180 C   0  0  2  0  0  3  0  0  0  0  0  0
  188.9600  176.8700  136.7100 C   0  0  0  0  0  2  0  0  0  0  0  0
  187.3260  177.6910  141.6460 N   0  0  0  0  0  0  0  0  0  0  0  0
  187.7150  178.0500  145.3350 C   0  0  0  0  0  2  0  0  0  0  0  0
  189.0210  177.2710  139.7680 C   0  0  1  0  0  3  0  0  0  0  0  0
  192.2660  176.3570  138.7260 C   0  0  0  0  0  2  0  0  0  0  0  0
  187.9850  177.6790  143.9430 N   0  0  0  0  0  0  0  0  0  0  0  0
  185.7460  178.0900  146.8320 N   0  0  0  0  0  2  0  0  0  0  0  0
  190.1090  176.1440  137.4310 C   0  0  2  0  0  3  0  0  0  0  0  0
  189.6470  177.2930  142.1170 C   0  0  0  0  0  0  0  0  0  0  0  0
  185.5260  177.9540  143.2130 C   0  0  0  0  0  2  0  0  0  0  0  0
  188.6810  177.4630  141.2180 C   0  0  0  0  0  0  0  0  0  0  0  0
  191.6740  177.2030  144.0160 C   0  0  0  0  0  3  0  0  0  0  0  0
  188.4350  178.1220  137.4150 C   0  0  0  0  0  2  0  0  0  0  0  0
  190.3060  177.3780  144.4140 N   0  0  0  0  0  0  0  0  0  0  0  0
  187.9480  177.8650  138.8430 C   0  0  0  0  0  2  0  0  0  0  0  0
  191.0670  177.0920  138.1820 C   0  0  1  0  0  3  0  0  0  0  0  0
  192.0000  177.0190  142.7680 N   0  0  0  0  0  0  0  0  0  0  0  0
  191.4460  177.7330  140.5250 N   0  0  1  0  0  0  0  0  0  0  0  0
  190.8370  175.3370  136.4620 N   0  0  0  0  0  2  0  0  0  0  0  0
  191.3440  176.2180  135.4970 N   0  0  0  0  0  2  0  0  0  0  0  0
  194.6640  175.4460  136.0620 C   0  0  0  0  0  2  0  0  0  0  0  0
  192.6960  174.1970  135.5030 C   0  0  0  0  0  2  0  0  0  0  0  0
  192.5160  175.5850  134.9180 C   0  0  0  0  0  3  0  0  0  0  0  0
  194.1780  174.0480  135.7560 C   0  0  0  0  0  2  0  0  0  0  0  0
  193.7600  176.3780  135.2810 C   0  0  0  0  0  2  0  0  0  0  0  0
  1 18  1  1  0  0  0
  1 26  1  0  0  0  0
  2 27  1  0  0  0  0
  3 16  1  0  0  0  0
  4 15  1  0  0  0  0
  4 23  2  0  0  0  0
  5 19  1  0  0  0  0
  5 15  1  0  0  0  0
  6  7  1  0  0  0  0
  7  3  1  0  0  0  0
  8 16  1  0  0  0  0
  9 13  1  0  0  0  0
  9 27  1  0  0  0  0
 10 22  1  0  0  0  0
 10 17  1  0  0  0  0
 11  5  2  0  0  0  0
 12  8  1  0  0  0  0
 13 20  1  0  0  0  0
 14  2  1  0  0  0  0
 15 12  1  0  0  0  0
 17 25  1  0  0  0  0
 18  4  1  0  0  0  0
 19  6  1  0  0  0  0
 20 11  1  0  0  0  0
 20 18  2  0  0  0  0
 21 23  1  0  0  0  0
 22 24  1  0  0  0  0
 24 13  1  0  0  0  0
 25 14  1  0  0  0  0
 25  9  1  0  0  0  0
 26 21  2  0  0  0  0
 27  1  1  0  0  0  0
 28 17  1  0  0  0  0
 29 28  1  0  0  0  0
 31 33  1  0  0  0  0
 32 34  1  0  0  0  0
 32 29  1  0  0  0  0
 32 31  1  0  0  0  0
 33 30  1  0  0  0  0
 34 30  1  0  0  0  0
M  END
>  <MODEL>
8

>  <REMARK>
 VINA RESULT:      -7.8      4.208      7.931
  Name = 
  3 active torsions:
  status: ('A' for Active; 'I' for Inactive)
    1  A    between atoms: C_17  and  N_28
    2  A    between atoms: N_28  and  N_29
    3  A    between atoms: N_29  and  C_32
                            x       y       z     vdW  Elec       q    Type
                         _______ _______ _______ _____ _____    ______ ____

>  <TORSDO>
F 3

$$$$
=
 OpenBabel11122412143D

 34 40  0  0  1  0  0  0  0  0999 V2000
  189.3390  177.4810  140.6550 C   0  0  2  0  0  3  0  0  0  0  0  0
  189.4560  178.1370  138.3800 C   0  0  0  0  0  2  0  0  0  0  0  0
  188.1710  178.6280  148.1730 C   0  0  0  0  0  2  0  0  0  0  0  0
  189.3190  177.5260  143.2270 C   0  0  0  0  0  0  0  0  0  0  0  0
  187.1340  177.7880  144.3570 C   0  0  0  0  0  0  0  0  0  0  0  0
  186.4290  178.9970  146.4230 C   0  0  0  0  0  2  0  0  0  0  0  0
  186.6770  178.5910  147.8680 C   0  0  0  0  0  2  0  0  0  0  0  0
  188.7270  176.7310  146.7640 C   0  0  0  0  0  2  0  0  0  0  0  0
  187.4700  178.6580  139.5300 C   0  0  2  0  0  3  0  0  0  0  0  0
  184.5290  178.0980  138.3410 C   0  0  0  0  0  2  0  0  0  0  0  0
  186.5670  177.9250  143.1910 N   0  0  0  0  0  0  0  0  0  0  0  0
  189.2930  177.6880  145.7210 C   0  0  0  0  0  2  0  0  0  0  0  0
  186.5960  177.9800  140.6280 C   0  0  1  0  0  3  0  0  0  0  0  0
  188.3200  177.5480  137.5790 C   0  0  0  0  0  2  0  0  0  0  0  0
  188.5680  177.5840  144.4510 N   0  0  0  0  0  0  0  0  0  0  0  0
  188.7910  177.2990  148.1120 N   0  0  0  0  0  2  0  0  0  0  0  0
  185.8350  177.3650  137.9900 C   0  0  2  0  0  3  0  0  0  0  0  0
  188.6090  177.6610  141.9540 C   0  0  0  0  0  0  0  0  0  0  0  0
  186.2480  177.7580  145.5650 C   0  0  0  0  0  2  0  0  0  0  0  0
  187.2990  177.8940  141.9520 C   0  0  0  0  0  0  0  0  0  0  0  0
  191.3780  177.4320  142.0170 C   0  0  0  0  0  3  0  0  0  0  0  0
  184.6500  179.1610  139.4350 C   0  0  0  0  0  2  0  0  0  0  0  0
  190.6140  177.4150  143.2320 N   0  0  0  0  0  0  0  0  0  0  0  0
  185.2070  178.6240  140.7550 C   0  0  0  0  0  2  0  0  0  0  0  0
  187.0920  178.2540  138.0950 C   0  0  1  0  0  3  0  0  0  0  0  0
  190.7970  177.4910  140.8520 N   0  0  0  0  0  0  0  0  0  0  0  0
  188.9410  178.5210  139.6930 N   0  0  1  0  0  0  0  0  0  0  0  0
  185.7140  176.8020  136.6530 N   0  0  0  0  0  2  0  0  0  0  0  0
  184.4390  176.2240  136.5680 N   0  0  0  0  0  2  0  0  0  0  0  0
  186.4250  173.4720  137.2180 C   0  0  0  0  0  2  0  0  0  0  0  0
  184.0850  173.9630  137.3920 C   0  0  0  0  0  2  0  0  0  0  0  0
  184.6300  174.8170  136.2630 C   0  0  0  0  0  3  0  0  0  0  0  0
  185.0960  172.8590  137.5950 C   0  0  0  0  0  2  0  0  0  0  0  0
  186.1150  174.5110  136.1600 C   0  0  0  0  0  2  0  0  0  0  0  0
  1 26  1  1  0  0  0
  1 18  1  0  0  0  0
  2 27  1  0  0  0  0
  4 23  2  0  0  0  0
  4 15  1  0  0  0  0
  5 15  1  0  0  0  0
  5 19  1  0  0  0  0
  6  7  1  0  0  0  0
  7  3  1  0  0  0  0
  8 16  1  0  0  0  0
  9 27  1  0  0  0  0
  9 13  1  0  0  0  0
 10 22  1  0  0  0  0
 11  5  2  0  0  0  0
 12  8  1  0  0  0  0
 13 24  1  0  0  0  0
 13 20  1  0  0  0  0
 14 25  1  0  0  0  0
 14  2  1  0  0  0  0
 15 12  1  0  0  0  0
 16  3  1  0  0  0  0
 17 25  1  0  0  0  0
 17 10  1  0  0  0  0
 18  4  1  0  0  0  0
 19  6  1  0  0  0  0
 20 18  2  0  0  0  0
 20 11  1  0  0  0  0
 21 23  1  0  0  0  0
 22 24  1  0  0  0  0
 25  9  1  0  0  0  0
 26 21  2  0  0  0  0
 27  1  1  0  0  0  0
 28 17  1  0  0  0  0
 29 28  1  0  0  0  0
 30 33  1  0  0  0  0
 31 33  1  0  0  0  0
 32 29  1  0  0  0  0
 32 31  1  0  0  0  0
 34 32  1  0  0  0  0
 34 30  1  0  0  0  0
M  END
>  <MODEL>
9

>  <REMARK>
 VINA RESULT:      -7.6      2.851      4.264
  Name = 
  3 active torsions:
  status: ('A' for Active; 'I' for Inactive)
    1  A    between atoms: C_17  and  N_28
    2  A    between atoms: N_28  and  N_29
    3  A    between atoms: N_29  and  C_32
                            x       y       z     vdW  Elec       q    Type
                         _______ _______ _______ _____ _____    ______ ____

>  <TORSDO>
F 3

$$$$
