=
 OpenBabel11122412233D

 34 42  0  0  1  0  0  0  0  0999 V2000
  190.4440  177.2330  143.2810 C   0  0  0  0  0  0  0  0  0  0  0  0
  192.2150  177.1160  141.5770 C   0  0  0  0  0  3  0  0  0  0  0  0
  184.2760  178.9280  144.7610 C   0  0  2  0  0  0  0  0  0  0  0  0
  188.4710  177.3650  144.7230 C   0  0  0  0  0  0  0  0  0  0  0  0
  186.2950  177.7260  143.6840 C   0  0  0  0  0  0  0  0  0  0  0  0
  184.3960  179.2770  143.2910 C   0  0  2  0  0  3  0  0  0  0  0  0
  183.2320  179.8020  144.1050 C   0  0  0  0  0  2  0  0  0  0  0  0
  186.0100  178.9560  146.6150 C   0  0  0  0  0  2  0  0  0  0  0  0
  190.1870  177.4260  140.9310 C   0  0  0  0  0  0  0  0  0  0  0  0
  189.4400  176.3820  138.1720 C   0  0  0  0  0  3  0  0  0  0  0  0
  186.8880  177.7280  142.4600 N   0  0  0  0  0  0  0  0  0  0  0  0
  186.4220  177.5410  146.1970 C   0  0  0  0  0  2  0  0  0  0  0  0
  188.8020  177.5820  141.0130 C   0  0  0  0  0  0  0  0  0  0  0  0
  192.2720  177.1790  140.2210 N   0  0  0  0  0  0  0  0  0  0  0  0
  187.0780  177.5270  144.8440 C   0  0  0  0  0  0  0  0  0  0  0  0
  185.3290  179.7550  145.4980 C   0  0  0  0  0  2  0  0  0  0  0  0
  190.5180  177.4420  138.4020 C   0  0  1  0  0  3  0  0  0  0  0  0
  189.0520  177.3850  143.4440 C   0  0  1  0  0  3  0  0  0  0  0  0
  184.7940  177.8870  143.7570 C   0  0  2  0  0  3  0  0  0  0  0  0
  188.2280  177.5650  142.3000 C   0  0  0  0  0  0  0  0  0  0  0  0
  190.8000  177.0220  145.6830 C   0  0  0  0  0  3  0  0  0  0  0  0
  188.0530  176.7080  138.7590 C   0  0  0  0  0  3  0  0  0  0  0  0
  189.3250  177.1730  145.9590 C   0  0  0  0  0  3  0  0  0  0  0  0
  187.9910  177.8520  139.7780 C   0  0  0  0  0  2  0  0  0  0  0  0
  190.9920  177.3710  139.8250 C   0  0  0  0  0  0  0  0  0  0  0  0
  191.3130  177.0480  144.4530 C   0  0  0  0  0  3  0  0  0  0  0  0
  190.9480  177.2600  142.0190 N   0  0  0  0  0  0  0  0  0  0  0  0
  191.5810  177.2190  137.5240 O   0  0  0  0  0  0  0  0  0  0  0  0
  191.3010  176.0290  136.9400 N   0  0  0  0  0  2  0  0  0  0  0  0
  194.3260  175.6040  137.9930 O   0  0  0  0  0  0  0  0  0  0  0  0
  192.7960  174.1300  136.9720 C   0  0  0  0  0  2  0  0  0  0  0  0
  192.5530  175.5050  136.4200 C   0  0  2  0  0  3  0  0  0  0  0  0
  194.1250  174.2540  137.6750 C   0  0  0  0  0  2  0  0  0  0  0  0
  193.7040  176.3220  136.9590 C   0  0  0  0  0  2  0  0  0  0  0  0
  1 18  1  0  0  0  0
  1 26  2  0  0  0  0
  2 27  1  0  0  0  0
  3  7  1  1  0  0  0
  3 16  1  0  0  0  0
  4 15  2  0  0  0  0
  4 23  1  0  0  0  0
  5 15  1  0  0  0  0
  6 19  1  0  0  0  0
  6  7  1  6  0  0  0
  6  3  1  0  0  0  0
  9 13  1  0  0  0  0
  9 27  1  0  0  0  0
 10 17  1  0  0  0  0
 10 22  2  0  0  0  0
 11  5  2  0  0  0  0
 12  8  1  0  0  0  0
 13 20  2  0  0  0  0
 14  2  2  0  0  0  0
 15 12  1  0  0  0  0
 16  8  1  0  0  0  0
 17 28  1  6  0  0  0
 17 25  1  0  0  0  0
 18 20  1  1  0  0  0
 18  4  1  0  0  0  0
 19  5  1  1  0  0  0
 19  3  1  0  0  0  0
 20 11  1  0  0  0  0
 21 23  2  0  0  0  0
 22 24  1  0  0  0  0
 24 13  1  0  0  0  0
 25 14  1  0  0  0  0
 25  9  2  0  0  0  0
 26 21  1  0  0  0  0
 27  1  1  0  0  0  0
 29 28  1  0  0  0  0
 31 33  1  0  0  0  0
 32 29  1  1  0  0  0
 32 34  1  0  0  0  0
 32 31  1  0  0  0  0
 33 30  1  0  0  0  0
 34 30  1  0  0  0  0
M  END
>  <MODEL>
1

>  <REMARK>
 VINA RESULT:      -9.9      0.000      0.000
  Name = 
  3 active torsions:
  status: ('A' for Active; 'I' for Inactive)
    1  A    between atoms: C_17  and  O_28
    2  A    between atoms: O_28  and  N_29
    3  A    between atoms: N_29  and  C_32
                            x       y       z     vdW  Elec       q    Type
                         _______ _______ _______ _____ _____    ______ ____

>  <TORSDO>
F 3

$$$$
=
 OpenBabel11122412233D

 34 42  0  0  1  0  0  0  0  0999 V2000
  188.2800  177.7100  140.6510 C   0  0  0  0  0  0  0  0  0  0  0  0
  187.0390  178.4900  138.6750 C   0  0  0  0  0  3  0  0  0  0  0  0
  188.7290  177.5190  147.1990 C   0  0  2  0  0  0  0  0  0  0  0  0
  189.2340  176.9790  142.7830 C   0  0  0  0  0  0  0  0  0  0  0  0
  187.8610  177.1570  144.7910 C   0  0  0  0  0  0  0  0  0  0  0  0
  187.4580  178.3080  146.9540 C   0  0  2  0  0  3  0  0  0  0  0  0
  188.0980  178.3030  148.3260 C   0  0  0  0  0  2  0  0  0  0  0  0
  190.8680  177.3660  145.8410 C   0  0  0  0  0  2  0  0  0  0  0  0
  186.0570  178.5340  140.5890 C   0  0  0  0  0  0  0  0  0  0  0  0
  183.0300  178.2240  140.5970 C   0  0  0  0  0  3  0  0  0  0  0  0
  186.8400  177.6500  144.0400 N   0  0  0  0  0  0  0  0  0  0  0  0
  190.2110  176.2630  145.0040 C   0  0  0  0  0  2  0  0  0  0  0  0
  185.8650  178.3570  141.9600 C   0  0  0  0  0  0  0  0  0  0  0  0
  185.7900  178.9650  138.4310 N   0  0  0  0  0  0  0  0  0  0  0  0
  189.0790  176.7940  144.1700 C   0  0  0  0  0  0  0  0  0  0  0  0
  189.8650  178.2950  146.5320 C   0  0  0  0  0  2  0  0  0  0  0  0
  183.7520  179.3740  139.8920 C   0  0  1  0  0  3  0  0  0  0  0  0
  188.1630  177.5040  142.0400 C   0  0  1  0  0  3  0  0  0  0  0  0
  187.6370  176.9620  146.2730 C   0  0  2  0  0  3  0  0  0  0  0  0
  186.9470  177.8350  142.6990 C   0  0  0  0  0  0  0  0  0  0  0  0
  190.5700  176.8750  140.6230 C   0  0  0  0  0  3  0  0  0  0  0  0
  183.3560  178.0550  142.0930 C   0  0  0  0  0  3  0  0  0  0  0  0
  190.5400  176.6160  142.1080 C   0  0  0  0  0  3  0  0  0  0  0  0
  184.5900  178.8020  142.6160 C   0  0  0  0  0  2  0  0  0  0  0  0
  185.1800  178.9860  139.6390 C   0  0  0  0  0  0  0  0  0  0  0  0
  189.5310  177.3760  139.9540 C   0  0  0  0  0  3  0  0  0  0  0  0
  187.2100  178.2190  139.9860 N   0  0  0  0  0  0  0  0  0  0  0  0
  183.1050  179.6570  138.6870 O   0  0  0  0  0  0  0  0  0  0  0  0
  182.8100  180.9780  138.7560 N   0  0  0  0  0  2  0  0  0  0  0  0
  180.8980  182.3710  136.5550 O   0  0  0  0  0  0  0  0  0  0  0  0
  180.9760  180.1740  137.4030 C   0  0  0  0  0  2  0  0  0  0  0  0
  181.3840  181.1090  138.5040 C   0  0  2  0  0  3  0  0  0  0  0  0
  180.3780  181.0850  136.3600 C   0  0  0  0  0  2  0  0  0  0  0  0
  181.0960  182.4820  137.9410 C   0  0  0  0  0  2  0  0  0  0  0  0
  2 27  1  0  0  0  0
  3 16  1  6  0  0  0
  3  7  1  0  0  0  0
  4 15  2  0  0  0  0
  6  3  1  0  0  0  0
  6  7  1  1  0  0  0
  8 16  1  0  0  0  0
  9 13  1  0  0  0  0
 10 22  2  0  0  0  0
 11  5  2  0  0  0  0
 12  8  1  0  0  0  0
 13 24  1  0  0  0  0
 13 20  2  0  0  0  0
 14  2  2  0  0  0  0
 14 25  1  0  0  0  0
 15  5  1  0  0  0  0
 15 12  1  0  0  0  0
 17 28  1  6  0  0  0
 17 10  1  0  0  0  0
 18  1  1  1  0  0  0
 18 20  1  0  0  0  0
 18  4  1  0  0  0  0
 19  5  1  6  0  0  0
 19  6  1  0  0  0  0
 19  3  1  0  0  0  0
 20 11  1  0  0  0  0
 21 23  2  0  0  0  0
 22 24  1  0  0  0  0
 23  4  1  0  0  0  0
 25 17  1  0  0  0  0
 25  9  2  0  0  0  0
 26 21  1  0  0  0  0
 26  1  2  0  0  0  0
 27  9  1  0  0  0  0
 27  1  1  0  0  0  0
 28 29  1  0  0  0  0
 30 34  1  0  0  0  0
 31 32  1  0  0  0  0
 32 29  1  6  0  0  0
 33 30  1  0  0  0  0
 33 31  1  0  0  0  0
 34 32  1  0  0  0  0
M  END
>  <MODEL>
2

>  <REMARK>
 VINA RESULT:      -9.1      4.063      7.242
  Name = 
  3 active torsions:
  status: ('A' for Active; 'I' for Inactive)
    1  A    between atoms: C_17  and  O_28
    2  A    between atoms: O_28  and  N_29
    3  A    between atoms: N_29  and  C_32
                            x       y       z     vdW  Elec       q    Type
                         _______ _______ _______ _____ _____    ______ ____

>  <TORSDO>
F 3

$$$$
=
 OpenBabel11122412233D

 34 42  0  0  1  0  0  0  0  0999 V2000
  183.8920  178.6340  143.9230 C   0  0  0  0  0  0  0  0  0  0  0  0
  181.5400  178.8640  143.2400 C   0  0  0  0  0  3  0  0  0  0  0  0
  190.0420  177.1030  142.2060 C   0  0  2  0  0  0  0  0  0  0  0  0
  186.3050  178.4320  144.2820 C   0  0  0  0  0  0  0  0  0  0  0  0
  187.7630  178.3180  142.3310 C   0  0  0  0  0  0  0  0  0  0  0  0
  189.2610  176.9310  140.9180 C   0  0  2  0  0  3  0  0  0  0  0  0
  190.6640  176.3730  141.0370 C   0  0  0  0  0  2  0  0  0  0  0  0
  189.3450  176.7550  144.6210 C   0  0  0  0  0  2  0  0  0  0  0  0
  183.0470  178.7450  141.7100 C   0  0  0  0  0  0  0  0  0  0  0  0
  182.4610  180.1580  139.0790 C   0  0  0  0  0  3  0  0  0  0  0  0
  186.6770  178.4350  141.5210 N   0  0  0  0  0  0  0  0  0  0  0  0
  188.7990  178.1870  144.6280 C   0  0  0  0  0  2  0  0  0  0  0  0
  184.3150  178.6540  141.1330 C   0  0  0  0  0  0  0  0  0  0  0  0
  180.8700  178.9640  142.0630 N   0  0  0  0  0  0  0  0  0  0  0  0
  187.5980  178.3320  143.7360 C   0  0  0  0  0  0  0  0  0  0  0  0
  189.4340  176.1370  143.2220 C   0  0  0  0  0  2  0  0  0  0  0  0
  181.5980  179.0210  139.6290 C   0  0  1  0  0  3  0  0  0  0  0  0
  185.2040  178.5380  143.4150 C   0  0  1  0  0  3  0  0  0  0  0  0
  189.1310  178.2300  141.6940 C   0  0  2  0  0  3  0  0  0  0  0  0
  185.4140  178.5440  142.0090 C   0  0  0  0  0  0  0  0  0  0  0  0
  184.6730  178.5300  146.2300 C   0  0  0  0  0  3  0  0  0  0  0  0
  183.9600  179.8360  138.9240 C   0  0  0  0  0  3  0  0  0  0  0  0
  186.1100  178.4250  145.7840 C   0  0  0  0  0  3  0  0  0  0  0  0
  184.4710  178.5810  139.6410 C   0  0  0  0  0  2  0  0  0  0  0  0
  181.8260  178.8910  141.1070 C   0  0  0  0  0  0  0  0  0  0  0  0
  183.6550  178.6270  145.3750 C   0  0  0  0  0  3  0  0  0  0  0  0
  182.8680  178.7350  143.0360 N   0  0  0  0  0  0  0  0  0  0  0  0
  180.2530  179.2930  139.3670 O   0  0  0  0  0  0  0  0  0  0  0  0
  180.2040  179.5300  138.0340 N   0  0  0  0  0  2  0  0  0  0  0  0
  179.5970  182.5210  139.0960 O   0  0  0  0  0  0  0  0  0  0  0  0
  179.7480  181.6260  136.9210 C   0  0  0  0  0  2  0  0  0  0  0  0
  179.1990  180.5590  137.8220 C   0  0  2  0  0  3  0  0  0  0  0  0
  179.6370  182.8860  137.7440 C   0  0  0  0  0  2  0  0  0  0  0  0
  178.9360  181.2820  139.1240 C   0  0  0  0  0  2  0  0  0  0  0  0
  1 26  2  0  0  0  0
  3  7  1  6  0  0  0
  3 16  1  0  0  0  0
  4 23  1  0  0  0  0
  5 15  1  0  0  0  0
  6  7  1  6  0  0  0
  6 19  1  0  0  0  0
  6  3  1  0  0  0  0
  8 12  1  0  0  0  0
  9 27  1  0  0  0  0
 10 17  1  0  0  0  0
 11 20  1  0  0  0  0
 11  5  2  0  0  0  0
 13  9  1  0  0  0  0
 13 20  2  0  0  0  0
 14  2  2  0  0  0  0
 15  4  2  0  0  0  0
 15 12  1  0  0  0  0
 16  8  1  0  0  0  0
 17 28  1  1  0  0  0
 17 25  1  0  0  0  0
 18 20  1  6  0  0  0
 18  1  1  0  0  0  0
 18  4  1  0  0  0  0
 19  3  1  0  0  0  0
 19  5  1  1  0  0  0
 22 10  2  0  0  0  0
 22 24  1  0  0  0  0
 23 21  2  0  0  0  0
 24 13  1  0  0  0  0
 25  9  2  0  0  0  0
 25 14  1  0  0  0  0
 26 21  1  0  0  0  0
 27  2  1  0  0  0  0
 27  1  1  0  0  0  0
 29 28  1  0  0  0  0
 30 34  1  0  0  0  0
 31 33  1  0  0  0  0
 31 32  1  0  0  0  0
 32 29  1  1  0  0  0
 32 34  1  0  0  0  0
 33 30  1  0  0  0  0
M  END
>  <MODEL>
3

>  <REMARK>
 VINA RESULT:      -8.7      4.816      8.772
  Name = 
  3 active torsions:
  status: ('A' for Active; 'I' for Inactive)
    1  A    between atoms: C_17  and  O_28
    2  A    between atoms: O_28  and  N_29
    3  A    between atoms: N_29  and  C_32
                            x       y       z     vdW  Elec       q    Type
                         _______ _______ _______ _____ _____    ______ ____

>  <TORSDO>
F 3

$$$$
=
 OpenBabel11122412233D

 34 42  0  0  1  0  0  0  0  0999 V2000
  188.1880  177.5870  138.4670 C   0  0  0  0  0  0  0  0  0  0  0  0
  186.9490  178.6560  140.3040 C   0  0  0  0  0  3  0  0  0  0  0  0
  193.8080  174.8960  136.3980 C   0  0  2  0  0  0  0  0  0  0  0  0
  189.6200  176.4030  136.8740 C   0  0  0  0  0  0  0  0  0  0  0  0
  191.6180  175.2880  137.7150 C   0  0  0  0  0  0  0  0  0  0  0  0
  194.0980  175.2550  137.8420 C   0  0  2  0  0  3  0  0  0  0  0  0
  195.2320  174.8980  136.9040 C   0  0  0  0  0  2  0  0  0  0  0  0
  192.3080  176.0160  134.6840 C   0  0  0  0  0  2  0  0  0  0  0  0
  188.7600  177.5920  140.7690 C   0  0  0  0  0  0  0  0  0  0  0  0
  188.9570  176.3410  143.5350 C   0  0  0  0  0  3  0  0  0  0  0  0
  191.3000  175.6830  138.9760 N   0  0  0  0  0  0  0  0  0  0  0  0
  191.1330  175.2030  135.2400 C   0  0  0  0  0  2  0  0  0  0  0  0
  189.9050  176.8190  140.5710 C   0  0  0  0  0  0  0  0  0  0  0  0
  187.0910  178.7540  141.6520 N   0  0  0  0  0  0  0  0  0  0  0  0
  190.7700  175.6280  136.6360 C   0  0  0  0  0  0  0  0  0  0  0  0
  193.4560  176.1990  135.6820 C   0  0  0  0  0  2  0  0  0  0  0  0
  188.7900  177.8440  143.3070 C   0  0  1  0  0  3  0  0  0  0  0  0
  189.3270  176.8050  138.1880 C   0  0  0  0  0  0  0  0  0  0  0  0
  192.8560  174.4440  137.5160 C   0  0  2  0  0  3  0  0  0  0  0  0
  190.1930  176.4230  139.2490 C   0  0  0  0  0  0  0  0  0  0  0  0
  187.5240  177.6310  136.1220 C   0  0  0  0  0  3  0  0  0  0  0  0
  190.1580  175.6910  142.8220 C   0  0  0  0  0  3  0  0  0  0  0  0
  188.7140  176.7940  135.7250 C   0  0  0  0  0  2  0  0  0  0  0  0
  190.8280  176.5160  141.7160 C   0  0  0  0  0  2  0  0  0  0  0  0
  188.2300  178.0810  141.9340 C   0  0  0  0  0  0  0  0  0  0  0  0
  187.2830  177.9940  137.3820 C   0  0  0  0  0  3  0  0  0  0  0  0
  187.9570  177.9450  139.7580 N   0  0  0  0  0  0  0  0  0  0  0  0
  187.9320  178.3670  144.2770 O   0  0  0  0  0  0  0  0  0  0  0  0
  188.3640  177.8290  145.4440 N   0  0  0  0  0  2  0  0  0  0  0  0
  186.1240  179.2370  147.2990 O   0  0  0  0  0  0  0  0  0  0  0  0
  185.9470  177.8120  145.4300 C   0  0  0  0  0  2  0  0  0  0  0  0
  187.1830  177.4270  146.1900 C   0  0  2  0  0  3  0  0  0  0  0  0
  185.2010  178.7090  146.3860 C   0  0  0  0  0  2  0  0  0  0  0  0
  187.0920  178.2340  147.4650 C   0  0  0  0  0  2  0  0  0  0  0  0
  1 27  1  0  0  0  0
  2 14  2  0  0  0  0
  3 16  1  6  0  0  0
  3  7  1  0  0  0  0
  3 19  1  0  0  0  0
  3  6  1  0  0  0  0
  4 18  1  0  0  0  0
  5 11  2  0  0  0  0
  6  7  1  1  0  0  0
  8 12  1  0  0  0  0
  8 16  1  0  0  0  0
  9 25  2  0  0  0  0
 11 20  1  0  0  0  0
 12 15  1  0  0  0  0
 13  9  1  0  0  0  0
 13 24  1  0  0  0  0
 14 25  1  0  0  0  0
 15  4  2  0  0  0  0
 15  5  1  0  0  0  0
 17 10  1  0  0  0  0
 17 28  1  1  0  0  0
 18  1  2  0  0  0  0
 18 20  1  0  0  0  0
 19  5  1  6  0  0  0
 19  6  1  0  0  0  0
 20 13  2  0  0  0  0
 21 26  2  0  0  0  0
 22 10  2  0  0  0  0
 23 21  1  0  0  0  0
 23  4  1  0  0  0  0
 24 22  1  0  0  0  0
 25 17  1  0  0  0  0
 26  1  1  0  0  0  0
 27  2  1  0  0  0  0
 27  9  1  0  0  0  0
 28 29  1  0  0  0  0
 30 34  1  0  0  0  0
 31 32  1  0  0  0  0
 31 33  1  0  0  0  0
 32 29  1  6  0  0  0
 32 34  1  0  0  0  0
 33 30  1  0  0  0  0
M  END
>  <MODEL>
4

>  <REMARK>
 VINA RESULT:      -8.5      2.830      9.166
  Name = 
  3 active torsions:
  status: ('A' for Active; 'I' for Inactive)
    1  A    between atoms: C_17  and  O_28
    2  A    between atoms: O_28  and  N_29
    3  A    between atoms: N_29  and  C_32
                            x       y       z     vdW  Elec       q    Type
                         _______ _______ _______ _____ _____    ______ ____

>  <TORSDO>
F 3

$$$$
=
 OpenBabel11122412233D

 34 42  0  0  1  0  0  0  0  0999 V2000
  185.6330  178.4100  143.3790 C   0  0  0  0  0  0  0  0  0  0  0  0
  184.5490  178.4350  141.1700 C   0  0  0  0  0  3  0  0  0  0  0  0
  190.8780  176.7530  146.9640 C   0  0  2  0  0  0  0  0  0  0  0  0
  186.9940  178.3500  145.4120 C   0  0  0  0  0  0  0  0  0  0  0  0
  189.3820  177.9030  145.1970 C   0  0  0  0  0  0  0  0  0  0  0  0
  191.2530  176.3120  145.5630 C   0  0  2  0  0  3  0  0  0  0  0  0
  192.0550  175.8290  146.7530 C   0  0  0  0  0  2  0  0  0  0  0  0
  188.6180  176.8590  148.1150 C   0  0  0  0  0  2  0  0  0  0  0  0
  186.6650  178.0660  141.2720 C   0  0  0  0  0  0  0  0  0  0  0  0
  188.3350  178.9250  138.8780 C   0  0  0  0  0  3  0  0  0  0  0  0
  189.2390  177.8300  143.8470 N   0  0  0  0  0  0  0  0  0  0  0  0
  188.4160  178.2490  147.5030 C   0  0  0  0  0  2  0  0  0  0  0  0
  187.9350  177.9020  141.8290 C   0  0  0  0  0  0  0  0  0  0  0  0
  184.9530  178.2870  139.8820 N   0  0  0  0  0  0  0  0  0  0  0  0
  188.2580  178.1830  146.0090 C   0  0  0  0  0  0  0  0  0  0  0  0
  189.6120  175.9850  147.3440 C   0  0  0  0  0  2  0  0  0  0  0  0
  187.2120  177.8920  138.7870 C   0  0  1  0  0  3  0  0  0  0  0  0
  186.8810  178.2550  144.0150 C   0  0  1  0  0  3  0  0  0  0  0  0
  190.7630  177.7320  145.7860 C   0  0  2  0  0  3  0  0  0  0  0  0
  188.0390  177.9940  143.2320 C   0  0  0  0  0  0  0  0  0  0  0  0
  184.4890  178.7760  145.5010 C   0  0  0  0  0  3  0  0  0  0  0  0
  189.4300  178.6230  139.9190 C   0  0  0  0  0  3  0  0  0  0  0  0
  185.7780  178.6280  146.2700 C   0  0  0  0  0  3  0  0  0  0  0  0
  189.1080  177.5460  140.9620 C   0  0  0  0  0  2  0  0  0  0  0  0
  186.2850  178.0580  139.9570 C   0  0  0  0  0  0  0  0  0  0  0  0
  184.4230  178.6760  144.1730 C   0  0  0  0  0  3  0  0  0  0  0  0
  185.5860  178.3080  142.0250 N   0  0  0  0  0  0  0  0  0  0  0  0
  186.5160  178.0690  137.5880 O   0  0  0  0  0  0  0  0  0  0  0  0
  187.3300  178.8430  136.8300 N   0  0  0  0  0  2  0  0  0  0  0  0
  188.4000  176.1210  135.4570 O   0  0  0  0  0  0  0  0  0  0  0  0
  186.3030  177.1940  135.3930 C   0  0  0  0  0  2  0  0  0  0  0  0
  187.3610  178.2530  135.5010 C   0  0  2  0  0  3  0  0  0  0  0  0
  187.0760  175.9480  135.0350 C   0  0  0  0  0  2  0  0  0  0  0  0
  188.6560  177.4940  135.3170 C   0  0  0  0  0  2  0  0  0  0  0  0
  1 18  1  0  0  0  0
  1 26  2  0  0  0  0
  2 27  1  0  0  0  0
  3  7  1  1  0  0  0
  3 16  1  0  0  0  0
  4 15  2  0  0  0  0
  4 23  1  0  0  0  0
  5 15  1  0  0  0  0
  6 19  1  0  0  0  0
  6  7  1  1  0  0  0
  6  3  1  0  0  0  0
  9 13  1  0  0  0  0
  9 27  1  0  0  0  0
 10 22  2  0  0  0  0
 11  5  2  0  0  0  0
 12  8  1  0  0  0  0
 13 20  2  0  0  0  0
 14 25  1  0  0  0  0
 14  2  2  0  0  0  0
 15 12  1  0  0  0  0
 16  8  1  0  0  0  0
 17 28  1  6  0  0  0
 17 10  1  0  0  0  0
 17 25  1  0  0  0  0
 18 20  1  1  0  0  0
 18  4  1  0  0  0  0
 19  5  1  6  0  0  0
 19  3  1  0  0  0  0
 20 11  1  0  0  0  0
 21 23  2  0  0  0  0
 22 24  1  0  0  0  0
 24 13  1  0  0  0  0
 25  9  2  0  0  0  0
 26 21  1  0  0  0  0
 27  1  1  0  0  0  0
 29 28  1  0  0  0  0
 31 32  1  0  0  0  0
 32 29  1  1  0  0  0
 33 31  1  0  0  0  0
 33 30  1  0  0  0  0
 34 30  1  0  0  0  0
 34 32  1  0  0  0  0
M  END
>  <MODEL>
5

>  <REMARK>
 VINA RESULT:      -8.5      2.940      5.307
  Name = 
  3 active torsions:
  status: ('A' for Active; 'I' for Inactive)
    1  A    between atoms: C_17  and  O_28
    2  A    between atoms: O_28  and  N_29
    3  A    between atoms: N_29  and  C_32
                            x       y       z     vdW  Elec       q    Type
                         _______ _______ _______ _____ _____    ______ ____

>  <TORSDO>
F 3

$$$$
=
 OpenBabel11122412233D

 34 42  0  0  1  0  0  0  0  0999 V2000
  185.2530  178.5730  142.5180 C   0  0  0  0  0  0  0  0  0  0  0  0
  187.7050  178.4460  142.3570 C   0  0  0  0  0  3  0  0  0  0  0  0
  179.5570  179.8580  139.5170 C   0  0  2  0  0  0  0  0  0  0  0  0
  182.8130  178.6730  142.3510 C   0  0  0  0  0  0  0  0  0  0  0  0
  181.8040  178.7380  140.1320 C   0  0  0  0  0  0  0  0  0  0  0  0
  180.5880  180.0700  138.4260 C   0  0  2  0  0  3  0  0  0  0  0  0
  179.1700  180.5680  138.2400 C   0  0  0  0  0  2  0  0  0  0  0  0
  179.7040  180.2200  142.0250 C   0  0  0  0  0  2  0  0  0  0  0  0
  186.5570  178.5110  140.5390 C   0  0  0  0  0  0  0  0  0  0  0  0
  187.7520  177.1390  138.1000 C   0  0  0  0  0  3  0  0  0  0  0  0
  183.0420  178.6710  139.5750 N   0  0  0  0  0  0  0  0  0  0  0  0
  180.2950  178.8120  142.1530 C   0  0  0  0  0  2  0  0  0  0  0  0
  185.4400  178.5520  139.7030 C   0  0  0  0  0  0  0  0  0  0  0  0
  188.6150  178.3800  141.3510 N   0  0  0  0  0  0  0  0  0  0  0  0
  181.6650  178.7230  141.5390 C   0  0  0  0  0  0  0  0  0  0  0  0
  179.8920  180.8420  140.6370 C   0  0  0  0  0  2  0  0  0  0  0  0
  188.4290  178.3080  138.8180 C   0  0  1  0  0  3  0  0  0  0  0  0
  184.0780  178.6180  141.7410 C   0  0  1  0  0  3  0  0  0  0  0  0
  180.6030  178.7730  139.2160 C   0  0  2  0  0  3  0  0  0  0  0  0
  184.1750  178.6120  140.3230 C   0  0  0  0  0  0  0  0  0  0  0  0
  183.9920  178.6310  144.6040 C   0  0  0  0  0  3  0  0  0  0  0  0
  186.3100  177.3990  137.6250 C   0  0  0  0  0  3  0  0  0  0  0  0
  182.6810  178.6790  143.8590 C   0  0  0  0  0  3  0  0  0  0  0  0
  185.6040  178.6280  138.2120 C   0  0  0  0  0  2  0  0  0  0  0  0
  187.8840  178.4190  140.2130 C   0  0  0  0  0  0  0  0  0  0  0  0
  185.1730  178.5820  143.9870 C   0  0  0  0  0  3  0  0  0  0  0  0
  186.4480  178.5200  141.8720 N   0  0  0  0  0  0  0  0  0  0  0  0
  189.8090  178.0930  138.8520 O   0  0  0  0  0  0  0  0  0  0  0  0
  189.9890  176.9080  138.2210 N   0  0  0  0  0  2  0  0  0  0  0  0
  193.2150  176.7530  138.1540 O   0  0  0  0  0  0  0  0  0  0  0  0
  191.6960  177.1280  139.9160 C   0  0  0  0  0  2  0  0  0  0  0  0
  191.0420  176.2030  138.9320 C   0  0  2  0  0  3  0  0  0  0  0  0
  193.1470  177.1290  139.5020 C   0  0  0  0  0  2  0  0  0  0  0  0
  192.1530  175.8530  137.9680 C   0  0  0  0  0  2  0  0  0  0  0  0
  1 26  2  0  0  0  0
  3  7  1  6  0  0  0
  3 16  1  0  0  0  0
  4 23  1  0  0  0  0
  5 15  1  0  0  0  0
  6  7  1  6  0  0  0
  6 19  1  0  0  0  0
  6  3  1  0  0  0  0
  8 12  1  0  0  0  0
  9 27  1  0  0  0  0
 10 17  1  0  0  0  0
 11  5  2  0  0  0  0
 11 20  1  0  0  0  0
 13 20  2  0  0  0  0
 13  9  1  0  0  0  0
 14  2  2  0  0  0  0
 15 12  1  0  0  0  0
 15  4  2  0  0  0  0
 16  8  1  0  0  0  0
 17 28  1  1  0  0  0
 17 25  1  0  0  0  0
 18 20  1  6  0  0  0
 18  4  1  0  0  0  0
 18  1  1  0  0  0  0
 19  3  1  0  0  0  0
 19  5  1  1  0  0  0
 22 10  2  0  0  0  0
 22 24  1  0  0  0  0
 23 21  2  0  0  0  0
 24 13  1  0  0  0  0
 25  9  2  0  0  0  0
 25 14  1  0  0  0  0
 26 21  1  0  0  0  0
 27  2  1  0  0  0  0
 27  1  1  0  0  0  0
 29 28  1  0  0  0  0
 30 33  1  0  0  0  0
 32 29  1  6  0  0  0
 32 31  1  0  0  0  0
 33 31  1  0  0  0  0
 34 30  1  0  0  0  0
 34 32  1  0  0  0  0
M  END
>  <MODEL>
6

>  <REMARK>
 VINA RESULT:      -8.4      3.152      5.119
  Name = 
  3 active torsions:
  status: ('A' for Active; 'I' for Inactive)
    1  A    between atoms: C_17  and  O_28
    2  A    between atoms: O_28  and  N_29
    3  A    between atoms: N_29  and  C_32
                            x       y       z     vdW  Elec       q    Type
                         _______ _______ _______ _____ _____    ______ ____

>  <TORSDO>
F 3

$$$$
=
 OpenBabel11122412233D

 34 42  0  0  1  0  0  0  0  0999 V2000
  184.1740  178.5520  144.0790 C   0  0  0  0  0  0  0  0  0  0  0  0
  181.7890  178.7490  143.5070 C   0  0  0  0  0  3  0  0  0  0  0  0
  190.2570  177.1000  142.0780 C   0  0  2  0  0  0  0  0  0  0  0  0
  186.6030  178.3830  144.3250 C   0  0  0  0  0  0  0  0  0  0  0  0
  187.9700  178.2850  142.3090 C   0  0  0  0  0  0  0  0  0  0  0  0
  189.4190  176.9150  140.8290 C   0  0  2  0  0  3  0  0  0  0  0  0
  190.8330  176.3760  140.8830 C   0  0  0  0  0  2  0  0  0  0  0  0
  189.6780  176.7480  144.5240 C   0  0  0  0  0  2  0  0  0  0  0  0
  183.2250  178.6470  141.9080 C   0  0  0  0  0  0  0  0  0  0  0  0
  182.4970  180.0460  139.3060 C   0  0  0  0  0  3  0  0  0  0  0  0
  186.8460  178.3850  141.5500 N   0  0  0  0  0  0  0  0  0  0  0  0
  189.1140  178.1720  144.5550 C   0  0  0  0  0  2  0  0  0  0  0  0
  184.4660  178.5720  141.2730 C   0  0  0  0  0  0  0  0  0  0  0  0
  181.0640  178.8380  142.3620 N   0  0  0  0  0  0  0  0  0  0  0  0
  187.8710  178.2990  143.7190 C   0  0  0  0  0  0  0  0  0  0  0  0
  189.7100  176.1280  143.1240 C   0  0  0  0  0  2  0  0  0  0  0  0
  181.6770  178.8990  139.8970 C   0  0  1  0  0  3  0  0  0  0  0  0
  185.4620  178.4730  143.5110 C   0  0  1  0  0  3  0  0  0  0  0  0
  189.3080  178.2130  141.6080 C   0  0  2  0  0  3  0  0  0  0  0  0
  185.6060  178.4780  142.0970 C   0  0  0  0  0  0  0  0  0  0  0  0
  185.0640  178.4630  146.3470 C   0  0  0  0  0  3  0  0  0  0  0  0
  183.9920  179.7450  139.0810 C   0  0  0  0  0  3  0  0  0  0  0  0
  186.4800  178.3770  145.8350 C   0  0  0  0  0  3  0  0  0  0  0  0
  184.5530  178.4980  139.7750 C   0  0  0  0  0  2  0  0  0  0  0  0
  181.9750  178.7760  141.3630 C   0  0  0  0  0  0  0  0  0  0  0  0
  184.0050  178.5450  145.5410 C   0  0  0  0  0  3  0  0  0  0  0  0
  183.1080  178.6380  143.2410 N   0  0  0  0  0  0  0  0  0  0  0  0
  180.3180  179.1530  139.6980 O   0  0  0  0  0  0  0  0  0  0  0  0
  180.0360  178.5950  138.4950 N   0  0  0  0  0  2  0  0  0  0  0  0
  178.9310  175.7010  137.5800 O   0  0  0  0  0  0  0  0  0  0  0  0
  180.9890  176.7870  137.2070 C   0  0  0  0  0  2  0  0  0  0  0  0
  180.4790  177.2120  138.5530 C   0  0  2  0  0  3  0  0  0  0  0  0
  180.1230  175.6030  136.8510 C   0  0  0  0  0  2  0  0  0  0  0  0
  179.2890  176.3110  138.7920 C   0  0  0  0  0  2  0  0  0  0  0  0
  1 26  2  0  0  0  0
  3  7  1  6  0  0  0
  3 16  1  0  0  0  0
  4 23  1  0  0  0  0
  5 15  1  0  0  0  0
  6  7  1  6  0  0  0
  6 19  1  0  0  0  0
  6  3  1  0  0  0  0
  8 12  1  0  0  0  0
  9 27  1  0  0  0  0
 10 17  1  0  0  0  0
 11 20  1  0  0  0  0
 11  5  2  0  0  0  0
 13  9  1  0  0  0  0
 13 20  2  0  0  0  0
 14  2  2  0  0  0  0
 15  4  2  0  0  0  0
 15 12  1  0  0  0  0
 16  8  1  0  0  0  0
 17 28  1  1  0  0  0
 17 25  1  0  0  0  0
 18 20  1  6  0  0  0
 18  1  1  0  0  0  0
 18  4  1  0  0  0  0
 19  3  1  0  0  0  0
 19  5  1  1  0  0  0
 22 10  2  0  0  0  0
 22 24  1  0  0  0  0
 23 21  2  0  0  0  0
 24 13  1  0  0  0  0
 25  9  2  0  0  0  0
 25 14  1  0  0  0  0
 26 21  1  0  0  0  0
 27  2  1  0  0  0  0
 27  1  1  0  0  0  0
 29 28  1  0  0  0  0
 30 34  1  0  0  0  0
 31 32  1  0  0  0  0
 32 29  1  6  0  0  0
 32 34  1  0  0  0  0
 33 31  1  0  0  0  0
 33 30  1  0  0  0  0
M  END
>  <MODEL>
7

>  <REMARK>
 VINA RESULT:      -8.3      4.674      8.240
  Name = 
  3 active torsions:
  status: ('A' for Active; 'I' for Inactive)
    1  A    between atoms: C_17  and  O_28
    2  A    between atoms: O_28  and  N_29
    3  A    between atoms: N_29  and  C_32
                            x       y       z     vdW  Elec       q    Type
                         _______ _______ _______ _____ _____    ______ ____

>  <TORSDO>
F 3

$$$$
=
 OpenBabel11122412233D

 34 42  0  0  1  0  0  0  0  0999 V2000
  188.0640  177.5260  138.3580 C   0  0  0  0  0  0  0  0  0  0  0  0
  189.2740  176.7030  136.3800 C   0  0  0  0  0  3  0  0  0  0  0  0
  187.7460  177.9000  144.9050 C   0  0  2  0  0  0  0  0  0  0  0  0
  187.1450  178.3060  140.4880 C   0  0  0  0  0  0  0  0  0  0  0  0
  188.5600  178.2030  142.4710 C   0  0  0  0  0  0  0  0  0  0  0  0
  189.0210  177.1200  144.6570 C   0  0  2  0  0  3  0  0  0  0  0  0
  188.4100  177.1570  146.0420 C   0  0  0  0  0  2  0  0  0  0  0  0
  185.5780  177.9880  143.5880 C   0  0  0  0  0  2  0  0  0  0  0  0
  190.2950  176.7260  138.2730 C   0  0  0  0  0  0  0  0  0  0  0  0
  193.3180  177.0720  138.2090 C   0  0  0  0  0  3  0  0  0  0  0  0
  189.5720  177.7000  141.7140 N   0  0  0  0  0  0  0  0  0  0  0  0
  186.2040  179.0750  142.7070 C   0  0  0  0  0  2  0  0  0  0  0  0
  190.5130  176.9450  139.6350 C   0  0  0  0  0  0  0  0  0  0  0  0
  190.5240  176.2370  136.1230 N   0  0  0  0  0  0  0  0  0  0  0  0
  187.3260  178.5330  141.8650 C   0  0  0  0  0  0  0  0  0  0  0  0
  186.6070  177.0920  144.2850 C   0  0  0  0  0  2  0  0  0  0  0  0
  192.5960  175.8940  137.5530 C   0  0  1  0  0  3  0  0  0  0  0  0
  188.2070  177.7730  139.7380 C   0  0  1  0  0  3  0  0  0  0  0  0
  188.8120  178.4430  143.9410 C   0  0  2  0  0  3  0  0  0  0  0  0
  189.4400  177.4760  140.3800 C   0  0  0  0  0  0  0  0  0  0  0  0
  185.7640  178.3320  138.3530 C   0  0  0  0  0  3  0  0  0  0  0  0
  193.0200  177.2800  139.7070 C   0  0  0  0  0  3  0  0  0  0  0  0
  185.8210  178.6340  139.8300 C   0  0  0  0  0  3  0  0  0  0  0  0
  191.8070  176.5350  140.2760 C   0  0  0  0  0  2  0  0  0  0  0  0
  191.1580  176.2570  137.3190 C   0  0  0  0  0  0  0  0  0  0  0  0
  186.7950  177.8240  137.6780 C   0  0  0  0  0  3  0  0  0  0  0  0
  189.1270  177.0100  137.6860 N   0  0  0  0  0  0  0  0  0  0  0  0
  193.2220  175.5840  136.3430 O   0  0  0  0  0  0  0  0  0  0  0  0
  194.4240  176.2060  136.4090 N   0  0  0  0  0  2  0  0  0  0  0  0
  197.6410  176.0480  136.1480 O   0  0  0  0  0  0  0  0  0  0  0  0
  196.0600  174.5360  137.0240 C   0  0  0  0  0  2  0  0  0  0  0  0
  195.4130  175.2750  135.8890 C   0  0  2  0  0  3  0  0  0  0  0  0
  197.5270  174.8540  136.8720 C   0  0  0  0  0  2  0  0  0  0  0  0
  196.5510  176.0480  135.2620 C   0  0  0  0  0  2  0  0  0  0  0  0
  2 27  1  0  0  0  0
  3 16  1  6  0  0  0
  3  7  1  0  0  0  0
  4 15  2  0  0  0  0
  6  3  1  0  0  0  0
  6  7  1  1  0  0  0
  8 16  1  0  0  0  0
  9 13  1  0  0  0  0
 10 22  2  0  0  0  0
 11  5  2  0  0  0  0
 12  8  1  0  0  0  0
 13 24  1  0  0  0  0
 13 20  2  0  0  0  0
 14  2  2  0  0  0  0
 14 25  1  0  0  0  0
 15  5  1  0  0  0  0
 15 12  1  0  0  0  0
 17 28  1  6  0  0  0
 17 10  1  0  0  0  0
 18  1  1  1  0  0  0
 18 20  1  0  0  0  0
 18  4  1  0  0  0  0
 19  5  1  6  0  0  0
 19  6  1  0  0  0  0
 19  3  1  0  0  0  0
 20 11  1  0  0  0  0
 21 23  2  0  0  0  0
 22 24  1  0  0  0  0
 23  4  1  0  0  0  0
 25 17  1  0  0  0  0
 25  9  2  0  0  0  0
 26 21  1  0  0  0  0
 26  1  2  0  0  0  0
 27  9  1  0  0  0  0
 27  1  1  0  0  0  0
 28 29  1  0  0  0  0
 30 33  1  0  0  0  0
 32 29  1  1  0  0  0
 32 31  1  0  0  0  0
 33 31  1  0  0  0  0
 34 32  1  0  0  0  0
 34 30  1  0  0  0  0
M  END
>  <MODEL>
8

>  <REMARK>
 VINA RESULT:      -8.0      1.860      4.418
  Name = 
  3 active torsions:
  status: ('A' for Active; 'I' for Inactive)
    1  A    between atoms: C_17  and  O_28
    2  A    between atoms: O_28  and  N_29
    3  A    between atoms: N_29  and  C_32
                            x       y       z     vdW  Elec       q    Type
                         _______ _______ _______ _____ _____    ______ ____

>  <TORSDO>
F 3

$$$$
=
 OpenBabel11122412233D

 34 42  0  0  1  0  0  0  0  0999 V2000
  187.2080  178.1170  140.3010 C   0  0  0  0  0  0  0  0  0  0  0  0
  188.1740  177.5100  138.1210 C   0  0  0  0  0  3  0  0  0  0  0  0
  187.5550  177.6600  146.8410 C   0  0  2  0  0  0  0  0  0  0  0  0
  186.5440  178.6520  142.5950 C   0  0  0  0  0  0  0  0  0  0  0  0
  188.1400  178.2420  144.3920 C   0  0  0  0  0  0  0  0  0  0  0  0
  188.7580  176.8700  146.3670 C   0  0  2  0  0  3  0  0  0  0  0  0
  188.2880  176.7520  147.8020 C   0  0  0  0  0  2  0  0  0  0  0  0
  185.2750  177.9990  145.7780 C   0  0  0  0  0  2  0  0  0  0  0  0
  189.3760  177.2510  139.8860 C   0  0  0  0  0  0  0  0  0  0  0  0
  192.3920  177.4860  139.5510 C   0  0  0  0  0  3  0  0  0  0  0  0
  189.0450  177.8020  143.4770 N   0  0  0  0  0  0  0  0  0  0  0  0
  185.8660  179.1650  144.9780 C   0  0  0  0  0  2  0  0  0  0  0  0
  189.7380  177.2840  141.2340 C   0  0  0  0  0  0  0  0  0  0  0  0
  189.3670  177.0330  137.6800 N   0  0  0  0  0  0  0  0  0  0  0  0
  186.8710  178.6940  143.9630 C   0  0  0  0  0  0  0  0  0  0  0  0
  186.3200  176.9820  146.2470 C   0  0  0  0  0  2  0  0  0  0  0  0
  191.5500  176.4310  138.8330 C   0  0  1  0  0  3  0  0  0  0  0  0
  187.4990  178.1800  141.6790 C   0  0  1  0  0  3  0  0  0  0  0  0
  188.5470  178.2810  145.8460 C   0  0  2  0  0  3  0  0  0  0  0  0
  188.7720  177.7550  142.1470 C   0  0  0  0  0  0  0  0  0  0  0  0
  184.9630  179.0050  140.6350 C   0  0  0  0  0  3  0  0  0  0  0  0
  192.2530  177.5120  141.0860 C   0  0  0  0  0  3  0  0  0  0  0  0
  185.1800  179.1120  142.1240 C   0  0  0  0  0  3  0  0  0  0  0  0
  191.0660  176.7460  141.6820 C   0  0  0  0  0  2  0  0  0  0  0  0
  190.1170  176.8760  138.7960 C   0  0  0  0  0  0  0  0  0  0  0  0
  185.8950  178.5490  139.7980 C   0  0  0  0  0  3  0  0  0  0  0  0
  188.1720  177.6520  139.4630 N   0  0  0  0  0  0  0  0  0  0  0  0
  192.0370  176.2550  137.5360 O   0  0  0  0  0  0  0  0  0  0  0  0
  193.3820  176.3680  137.6550 N   0  0  0  0  0  2  0  0  0  0  0  0
  196.2900  175.6110  136.4650 O   0  0  0  0  0  0  0  0  0  0  0  0
  194.7460  174.3750  137.7480 C   0  0  0  0  0  2  0  0  0  0  0  0
  193.9700  175.3030  136.8590 C   0  0  2  0  0  3  0  0  0  0  0  0
  196.1420  174.4140  137.1780 C   0  0  0  0  0  2  0  0  0  0  0  0
  195.0180  175.8830  135.9360 C   0  0  0  0  0  2  0  0  0  0  0  0
  2 27  1  0  0  0  0
  3 16  1  6  0  0  0
  3  7  1  0  0  0  0
  4 15  2  0  0  0  0
  6  3  1  0  0  0  0
  6  7  1  1  0  0  0
  8 16  1  0  0  0  0
  9 13  1  0  0  0  0
 10 22  2  0  0  0  0
 11  5  2  0  0  0  0
 12  8  1  0  0  0  0
 13 24  1  0  0  0  0
 13 20  2  0  0  0  0
 14  2  2  0  0  0  0
 14 25  1  0  0  0  0
 15  5  1  0  0  0  0
 15 12  1  0  0  0  0
 17 28  1  6  0  0  0
 17 10  1  0  0  0  0
 18  1  1  1  0  0  0
 18 20  1  0  0  0  0
 18  4  1  0  0  0  0
 19  5  1  6  0  0  0
 19  6  1  0  0  0  0
 19  3  1  0  0  0  0
 20 11  1  0  0  0  0
 21 23  2  0  0  0  0
 22 24  1  0  0  0  0
 23  4  1  0  0  0  0
 25 17  1  0  0  0  0
 25  9  2  0  0  0  0
 26  1  2  0  0  0  0
 26 21  1  0  0  0  0
 27  9  1  0  0  0  0
 27  1  1  0  0  0  0
 28 29  1  0  0  0  0
 30 33  1  0  0  0  0
 32 29  1  1  0  0  0
 32 31  1  0  0  0  0
 33 31  1  0  0  0  0
 34 30  1  0  0  0  0
 34 32  1  0  0  0  0
M  END
>  <MODEL>
9

>  <REMARK>
 VINA RESULT:      -7.8      1.621      3.742
  Name = 
  3 active torsions:
  status: ('A' for Active; 'I' for Inactive)
    1  A    between atoms: C_17  and  O_28
    2  A    between atoms: O_28  and  N_29
    3  A    between atoms: N_29  and  C_32
                            x       y       z     vdW  Elec       q    Type
                         _______ _______ _______ _____ _____    ______ ____

>  <TORSDO>
F 3

$$$$
