=
 OpenBabel11122412213D

 34 40  0  0  1  0  0  0  0  0999 V2000
  187.4830  177.9230  138.5570 C   0  0  0  0  0  0  0  0  0  0  0  0
  186.1590  178.6630  140.6290 C   0  0  0  0  0  3  0  0  0  0  0  0
  192.8790  175.7900  135.4710 C   0  0  0  0  0  0  0  0  0  0  0  0
  188.8480  177.1670  136.7270 C   0  0  0  0  0  0  0  0  0  0  0  0
  191.2220  176.4560  137.2270 C   0  0  0  0  0  0  0  0  0  0  0  0
  193.5660  176.1410  137.8900 C   0  0  0  0  0  1  0  0  0  0  0  0
  194.1540  176.1520  135.0500 O   0  0  0  0  0  1  0  0  0  0  0  0
  190.7510  174.6000  134.8410 C   0  0  0  0  0  3  0  0  0  0  0  0
  188.3680  177.8740  140.8890 C   0  0  0  0  0  0  0  0  0  0  0  0
  189.3830  176.5470  143.5800 C   0  0  0  0  0  2  0  0  0  0  0  0
  190.9360  176.7110  138.6160 N   0  0  0  0  0  0  0  0  0  0  0  0
  189.8440  175.2420  135.5720 C   0  0  0  0  0  3  0  0  0  0  0  0
  189.5600  177.3850  140.4930 C   0  0  0  0  0  0  0  0  0  0  0  0
  186.5280  178.7260  142.1180 C   0  0  0  0  0  3  0  0  0  0  0  0
  190.1210  176.5730  136.1900 C   0  0  1  0  0  3  0  0  0  0  0  0
  192.1270  175.0810  134.6160 C   0  0  0  0  0  3  0  0  0  0  0  0
  187.9630  176.8950  143.1390 C   0  0  2  0  0  3  0  0  0  0  0  0
  188.6920  177.4020  138.0940 C   0  0  0  0  0  0  0  0  0  0  0  0
  192.4790  176.1320  136.8620 C   0  0  0  0  0  0  0  0  0  0  0  0
  189.7850  177.1320  139.0460 C   0  0  0  0  0  0  0  0  0  0  0  0
  186.6510  177.9790  136.3490 C   0  0  0  0  0  3  0  0  0  0  0  0
  190.2220  175.9850  142.4400 C   0  0  0  0  0  2  0  0  0  0  0  0
  187.8230  177.4650  135.8820 N   0  0  0  0  0  0  0  0  0  0  0  0
  190.6460  177.0910  141.4860 C   0  0  0  0  0  2  0  0  0  0  0  0
  187.9580  178.1730  142.2870 C   0  0  1  0  0  3  0  0  0  0  0  0
  186.4850  178.2040  137.6800 N   0  0  0  0  0  0  0  0  0  0  0  0
  187.3360  178.1550  139.9620 N   0  0  0  0  0  0  0  0  0  0  0  0
  187.1770  177.0710  144.2820 O   0  0  0  0  0  0  0  0  0  0  0  0
  187.9990  177.7570  145.1810 C   0  0  0  0  0  2  0  0  0  0  0  0
  189.3650  177.9380  148.2790 N   0  0  0  0  0  2  0  0  0  0  0  0
  187.1320  178.1590  147.4690 C   0  0  0  0  0  2  0  0  0  0  0  0
  187.8440  177.1740  146.5730 C   0  0  2  0  0  3  0  0  0  0  0  0
  188.0140  178.2850  148.6860 C   0  0  0  0  0  2  0  0  0  0  0  0
  189.2120  176.9760  147.1960 C   0  0  0  0  0  2  0  0  0  0  0  0
  1 27  1  0  0  0  0
  2 14  2  0  0  0  0
  3 19  1  0  0  0  0
  4 18  2  0  0  0  0
  5 11  1  0  0  0  0
  7  3  1  0  0  0  0
  8 12  2  0  0  0  0
  9 25  1  0  0  0  0
 11 20  2  0  0  0  0
 13  9  2  0  0  0  0
 13 24  1  0  0  0  0
 15 12  1  1  0  0  0
 15  4  1  0  0  0  0
 15  5  1  0  0  0  0
 16  8  1  0  0  0  0
 16  3  2  0  0  0  0
 17 10  1  0  0  0  0
 17 28  1  1  0  0  0
 18  1  1  0  0  0  0
 18 20  1  0  0  0  0
 19  5  2  0  0  0  0
 19  6  1  0  0  0  0
 20 13  1  0  0  0  0
 21 26  1  0  0  0  0
 22 10  1  0  0  0  0
 23 21  2  0  0  0  0
 23  4  1  0  0  0  0
 24 22  1  0  0  0  0
 25 14  1  6  0  0  0
 25 17  1  0  0  0  0
 26  1  2  0  0  0  0
 27  2  1  0  0  0  0
 27  9  1  0  0  0  0
 28 29  1  0  0  0  0
 30 33  1  0  0  0  0
 31 33  1  0  0  0  0
 32 29  1  6  0  0  0
 32 34  1  0  0  0  0
 32 31  1  0  0  0  0
 34 30  1  0  0  0  0
M  END
>  <MODEL>
1

>  <REMARK>
 VINA RESULT:      -9.5      0.000      0.000
  Name = 
  3 active torsions:
  status: ('A' for Active; 'I' for Inactive)
    1  A    between atoms: C_17  and  O_28
    2  A    between atoms: O_28  and  C_29
    3  A    between atoms: C_29  and  C_32
                            x       y       z     vdW  Elec       q    Type
                         _______ _______ _______ _____ _____    ______ ____

>  <TORSDO>
F 3

$$$$
=
 OpenBabel11122412213D

 34 40  0  0  1  0  0  0  0  0999 V2000
  191.1490  177.6060  141.9820 C   0  0  0  0  0  0  0  0  0  0  0  0
  192.9150  177.1280  140.1800 C   0  0  0  0  0  3  0  0  0  0  0  0
  185.0470  178.9070  144.0470 C   0  0  0  0  0  0  0  0  0  0  0  0
  189.3710  178.0240  143.5460 C   0  0  0  0  0  0  0  0  0  0  0  0
  187.0280  178.3040  142.6380 C   0  0  0  0  0  0  0  0  0  0  0  0
  184.9200  178.8690  141.5110 C   0  0  0  0  0  1  0  0  0  0  0  0
  184.0540  179.8800  144.0880 O   0  0  0  0  0  1  0  0  0  0  0  0
  186.2580  177.1280  145.3550 C   0  0  0  0  0  3  0  0  0  0  0  0
  190.6480  177.3320  139.5540 C   0  0  0  0  0  0  0  0  0  0  0  0
  189.4740  175.9150  136.9760 C   0  0  0  0  0  2  0  0  0  0  0  0
  187.5740  178.0350  141.3310 N   0  0  0  0  0  0  0  0  0  0  0  0
  187.4450  177.0980  144.7550 C   0  0  0  0  0  3  0  0  0  0  0  0
  189.3290  177.5280  139.7400 C   0  0  0  0  0  0  0  0  0  0  0  0
  192.8110  176.9490  138.6590 C   0  0  0  0  0  3  0  0  0  0  0  0
  187.9120  178.2030  143.8660 C   0  0  0  0  0  0  0  0  0  0  0  0
  185.2590  178.1960  145.1640 C   0  0  0  0  0  2  0  0  0  0  0  0
  190.8220  175.7190  137.6680 C   0  0  2  0  0  3  0  0  0  0  0  0
  189.7900  177.8000  142.2340 C   0  0  0  0  0  0  0  0  0  0  0  0
  185.7330  178.6630  142.7500 C   0  0  0  0  0  0  0  0  0  0  0  0
  188.8300  177.7880  141.1150 C   0  0  0  0  0  0  0  0  0  0  0  0
  191.6230  177.8780  144.2780 C   0  0  0  0  0  3  0  0  0  0  0  0
  188.3330  176.0930  137.9680 C   0  0  0  0  0  2  0  0  0  0  0  0
  190.2990  178.0630  144.5410 N   0  0  0  0  0  0  0  0  0  0  0  0
  188.3680  177.4820  138.5880 C   0  0  0  0  0  2  0  0  0  0  0  0
  191.3240  177.0440  138.2600 C   0  0  1  0  0  3  0  0  0  0  0  0
  192.0420  177.6490  143.0050 N   0  0  0  0  0  0  0  0  0  0  0  0
  191.5640  177.3730  140.6320 N   0  0  0  0  0  0  0  0  0  0  0  0
  191.7340  175.2310  136.7270 O   0  0  0  0  0  0  0  0  0  0  0  0
  192.1200  173.9810  137.2190 C   0  0  0  0  0  2  0  0  0  0  0  0
  195.1010  175.4560  136.5550 N   0  0  0  0  0  2  0  0  0  0  0  0
  194.4710  173.5980  137.9130 C   0  0  0  0  0  2  0  0  0  0  0  0
  193.5210  173.6460  136.7400 C   0  0  2  0  0  3  0  0  0  0  0  0
  195.6140  174.5030  137.5240 C   0  0  0  0  0  2  0  0  0  0  0  0
  194.0330  174.7610  135.8490 C   0  0  0  0  0  2  0  0  0  0  0  0
  1 18  2  0  0  0  0
  1 26  1  0  0  0  0
  2 27  1  0  0  0  0
  3  7  1  0  0  0  0
  3 16  1  0  0  0  0
  4 15  1  0  0  0  0
  4 23  2  0  0  0  0
  5 19  1  0  0  0  0
  5 15  2  0  0  0  0
  6 19  1  0  0  0  0
  9 13  2  0  0  0  0
  9 27  1  0  0  0  0
 10 17  1  0  0  0  0
 10 22  1  0  0  0  0
 11  5  1  0  0  0  0
 12  8  2  0  0  0  0
 13 20  1  0  0  0  0
 14  2  2  0  0  0  0
 15 12  1  0  0  0  0
 16  8  1  0  0  0  0
 17 28  1  6  0  0  0
 17 25  1  0  0  0  0
 18  4  1  0  0  0  0
 19  3  2  0  0  0  0
 20 11  2  0  0  0  0
 20 18  1  0  0  0  0
 21 23  1  0  0  0  0
 22 24  1  0  0  0  0
 24 13  1  0  0  0  0
 25 14  1  1  0  0  0
 25  9  1  0  0  0  0
 26 21  2  0  0  0  0
 27  1  1  0  0  0  0
 28 29  1  0  0  0  0
 30 33  1  0  0  0  0
 32 29  1  1  0  0  0
 32 31  1  0  0  0  0
 33 31  1  0  0  0  0
 34 30  1  0  0  0  0
 34 32  1  0  0  0  0
M  END
>  <MODEL>
2

>  <REMARK>
 VINA RESULT:      -9.2      2.307      8.875
  Name = 
  3 active torsions:
  status: ('A' for Active; 'I' for Inactive)
    1  A    between atoms: C_17  and  O_28
    2  A    between atoms: O_28  and  C_29
    3  A    between atoms: C_29  and  C_32
                            x       y       z     vdW  Elec       q    Type
                         _______ _______ _______ _____ _____    ______ ____

>  <TORSDO>
F 3

$$$$
=
 OpenBabel11122412213D

 34 40  0  0  1  0  0  0  0  0999 V2000
  188.6180  177.8620  142.0700 C   0  0  0  0  0  0  0  0  0  0  0  0
  186.6130  178.6770  140.6890 C   0  0  0  0  0  3  0  0  0  0  0  0
  191.8230  176.7290  147.6950 C   0  0  0  0  0  0  0  0  0  0  0  0
  190.3920  177.1060  143.5080 C   0  0  0  0  0  0  0  0  0  0  0  0
  190.0610  177.2940  146.0070 C   0  0  0  0  0  0  0  0  0  0  0  0
  189.6590  177.8800  148.3580 C   0  0  0  0  0  1  0  0  0  0  0  0
  192.4790  177.3360  148.7610 O   0  0  0  0  0  1  0  0  0  0  0  0
  191.8800  174.8350  146.0370 C   0  0  0  0  0  3  0  0  0  0  0  0
  186.4740  178.6820  143.0450 C   0  0  0  0  0  0  0  0  0  0  0  0
  183.7100  178.4600  144.5750 C   0  0  0  0  0  2  0  0  0  0  0  0
  188.7410  177.8010  145.7270 N   0  0  0  0  0  0  0  0  0  0  0  0
  191.2010  175.3410  145.0100 C   0  0  0  0  0  3  0  0  0  0  0  0
  186.9020  178.4890  144.3080 C   0  0  0  0  0  0  0  0  0  0  0  0
  185.2390  179.2290  141.0960 C   0  0  0  0  0  3  0  0  0  0  0  0
  190.9440  176.8050  144.8750 C   0  0  1  0  0  3  0  0  0  0  0  0
  192.3870  175.6320  147.1690 C   0  0  0  0  0  3  0  0  0  0  0  0
  184.0270  178.2400  143.0970 C   0  0  2  0  0  3  0  0  0  0  0  0
  189.1070  177.6270  143.3570 C   0  0  0  0  0  0  0  0  0  0  0  0
  190.5060  177.2810  147.2800 C   0  0  0  0  0  0  0  0  0  0  0  0
  188.2700  177.9520  144.5270 C   0  0  0  0  0  0  0  0  0  0  0  0
  190.6530  177.0960  141.1500 C   0  0  0  0  0  3  0  0  0  0  0  0
  184.7930  177.9020  145.4900 C   0  0  0  0  0  2  0  0  0  0  0  0
  191.1410  176.8560  142.3990 N   0  0  0  0  0  0  0  0  0  0  0  0
  186.0200  178.8010  145.4810 C   0  0  0  0  0  2  0  0  0  0  0  0
  185.1390  179.1930  142.6340 C   0  0  1  0  0  3  0  0  0  0  0  0
  189.3980  177.5950  140.9900 N   0  0  0  0  0  0  0  0  0  0  0  0
  187.2960  178.3920  141.9300 N   0  0  0  0  0  0  0  0  0  0  0  0
  182.8600  178.4600  142.3580 O   0  0  0  0  0  0  0  0  0  0  0  0
  181.9420  178.9690  143.2810 C   0  0  0  0  0  2  0  0  0  0  0  0
  179.6910  180.9400  141.6840 N   0  0  0  0  0  2  0  0  0  0  0  0
  180.6130  178.7950  141.1940 C   0  0  0  0  0  2  0  0  0  0  0  0
  180.5430  178.9260  142.6970 C   0  0  2  0  0  3  0  0  0  0  0  0
  179.7380  179.9050  140.6660 C   0  0  0  0  0  2  0  0  0  0  0  0
  179.8430  180.2460  142.9550 C   0  0  0  0  0  2  0  0  0  0  0  0
  1 18  1  0  0  0  0
  2 14  2  0  0  0  0
  2 27  1  0  0  0  0
  3  7  1  0  0  0  0
  4 15  1  0  0  0  0
  5 19  2  0  0  0  0
  8 16  1  0  0  0  0
  9 13  2  0  0  0  0
 10 22  1  0  0  0  0
 11  5  1  0  0  0  0
 12  8  2  0  0  0  0
 13 20  1  0  0  0  0
 13 24  1  0  0  0  0
 15 12  1  1  0  0  0
 15  5  1  0  0  0  0
 16  3  2  0  0  0  0
 17 28  1  6  0  0  0
 17 10  1  0  0  0  0
 18  4  2  0  0  0  0
 18 20  1  0  0  0  0
 19  3  1  0  0  0  0
 19  6  1  0  0  0  0
 20 11  2  0  0  0  0
 21 23  2  0  0  0  0
 23  4  1  0  0  0  0
 24 22  1  0  0  0  0
 25 14  1  6  0  0  0
 25  9  1  0  0  0  0
 25 17  1  0  0  0  0
 26 21  1  0  0  0  0
 26  1  2  0  0  0  0
 27  1  1  0  0  0  0
 27  9  1  0  0  0  0
 28 29  1  0  0  0  0
 30 34  1  0  0  0  0
 31 32  1  0  0  0  0
 32 34  1  0  0  0  0
 32 29  1  1  0  0  0
 33 31  1  0  0  0  0
 33 30  1  0  0  0  0
M  END
>  <MODEL>
3

>  <REMARK>
 VINA RESULT:      -9.2      4.280      8.065
  Name = 
  3 active torsions:
  status: ('A' for Active; 'I' for Inactive)
    1  A    between atoms: C_17  and  O_28
    2  A    between atoms: O_28  and  C_29
    3  A    between atoms: C_29  and  C_32
                            x       y       z     vdW  Elec       q    Type
                         _______ _______ _______ _____ _____    ______ ____

>  <TORSDO>
F 3

$$$$
=
 OpenBabel11122412213D

 34 40  0  0  1  0  0  0  0  0999 V2000
  187.8330  178.0650  138.5790 C   0  0  0  0  0  0  0  0  0  0  0  0
  186.2660  178.7180  140.5040 C   0  0  0  0  0  3  0  0  0  0  0  0
  193.5480  175.9930  136.0830 C   0  0  0  0  0  0  0  0  0  0  0  0
  189.4080  177.3810  136.8960 C   0  0  0  0  0  0  0  0  0  0  0  0
  191.6900  176.5960  137.6500 C   0  0  0  0  0  0  0  0  0  0  0  0
  193.9270  176.1990  138.5850 C   0  0  0  0  0  1  0  0  0  0  0  0
  194.8710  176.3500  135.8470 O   0  0  0  0  0  1  0  0  0  0  0  0
  191.5020  174.8810  135.1240 C   0  0  0  0  0  3  0  0  0  0  0  0
  188.4130  177.8720  140.9960 C   0  0  0  0  0  0  0  0  0  0  0  0
  189.0590  176.3810  143.7150 C   0  0  0  0  0  2  0  0  0  0  0  0
  191.2330  176.7820  139.0040 N   0  0  0  0  0  0  0  0  0  0  0  0
  190.5180  175.5010  135.7700 C   0  0  0  0  0  3  0  0  0  0  0  0
  189.6390  177.3810  140.7270 C   0  0  0  0  0  0  0  0  0  0  0  0
  186.4430  178.6930  142.0290 C   0  0  0  0  0  3  0  0  0  0  0  0
  190.7320  176.7910  136.4910 C   0  0  1  0  0  3  0  0  0  0  0  0
  192.9010  175.3460  135.1020 C   0  0  0  0  0  3  0  0  0  0  0  0
  187.7120  176.7820  143.1190 C   0  0  2  0  0  3  0  0  0  0  0  0
  189.0830  177.5450  138.2420 C   0  0  0  0  0  0  0  0  0  0  0  0
  192.9790  176.2670  137.4290 C   0  0  0  0  0  0  0  0  0  0  0  0
  190.0430  177.2020  139.3090 C   0  0  0  0  0  0  0  0  0  0  0  0
  187.2890  178.2570  136.2890 C   0  0  0  0  0  3  0  0  0  0  0  0
  190.0290  175.8650  142.6600 C   0  0  0  0  0  2  0  0  0  0  0  0
  188.5040  177.7450  135.9460 N   0  0  0  0  0  0  0  0  0  0  0  0
  190.5850  177.0120  141.8310 C   0  0  0  0  0  2  0  0  0  0  0  0
  187.8320  178.1030  142.3470 C   0  0  1  0  0  3  0  0  0  0  0  0
  186.9570  178.4130  137.5990 N   0  0  0  0  0  0  0  0  0  0  0  0
  187.5110  178.2230  139.9640 N   0  0  0  0  0  0  0  0  0  0  0  0
  186.7890  176.9110  144.1620 O   0  0  0  0  0  0  0  0  0  0  0  0
  187.5680  177.0830  145.3100 C   0  0  0  0  0  2  0  0  0  0  0  0
  185.0040  178.6980  146.8330 N   0  0  0  0  0  2  0  0  0  0  0  0
  187.2610  178.2610  147.4710 C   0  0  0  0  0  2  0  0  0  0  0  0
  187.2340  178.4090  145.9680 C   0  0  2  0  0  3  0  0  0  0  0  0
  185.9390  178.8160  147.9390 C   0  0  0  0  0  2  0  0  0  0  0  0
  185.8110  178.8030  145.6260 C   0  0  0  0  0  2  0  0  0  0  0  0
  1 27  1  0  0  0  0
  2 14  2  0  0  0  0
  3 19  1  0  0  0  0
  4 18  2  0  0  0  0
  5 11  1  0  0  0  0
  7  3  1  0  0  0  0
  8 12  2  0  0  0  0
  9 25  1  0  0  0  0
 11 20  2  0  0  0  0
 13  9  2  0  0  0  0
 13 24  1  0  0  0  0
 15 12  1  1  0  0  0
 15  4  1  0  0  0  0
 15  5  1  0  0  0  0
 16  8  1  0  0  0  0
 16  3  2  0  0  0  0
 17 10  1  0  0  0  0
 17 28  1  1  0  0  0
 18  1  1  0  0  0  0
 18 20  1  0  0  0  0
 19  5  2  0  0  0  0
 19  6  1  0  0  0  0
 20 13  1  0  0  0  0
 21 26  1  0  0  0  0
 22 10  1  0  0  0  0
 23 21  2  0  0  0  0
 23  4  1  0  0  0  0
 24 22  1  0  0  0  0
 25 14  1  6  0  0  0
 25 17  1  0  0  0  0
 26  1  2  0  0  0  0
 27  2  1  0  0  0  0
 27  9  1  0  0  0  0
 28 29  1  0  0  0  0
 30 33  1  0  0  0  0
 31 33  1  0  0  0  0
 32 29  1  6  0  0  0
 32 31  1  0  0  0  0
 34 32  1  0  0  0  0
 34 30  1  0  0  0  0
M  END
>  <MODEL>
4

>  <REMARK>
 VINA RESULT:      -9.1      1.093      1.292
  Name = 
  3 active torsions:
  status: ('A' for Active; 'I' for Inactive)
    1  A    between atoms: C_17  and  O_28
    2  A    between atoms: O_28  and  C_29
    3  A    between atoms: C_29  and  C_32
                            x       y       z     vdW  Elec       q    Type
                         _______ _______ _______ _____ _____    ______ ____

>  <TORSDO>
F 3

$$$$
=
 OpenBabel11122412213D

 34 40  0  0  1  0  0  0  0  0999 V2000
  187.8040  178.0980  139.9270 C   0  0  0  0  0  0  0  0  0  0  0  0
  185.7680  178.8750  138.5700 C   0  0  0  0  0  3  0  0  0  0  0  0
  191.1000  177.0400  145.5130 C   0  0  0  0  0  0  0  0  0  0  0  0
  189.6080  177.3760  141.3440 C   0  0  0  0  0  0  0  0  0  0  0  0
  189.3080  177.5700  143.8460 C   0  0  0  0  0  0  0  0  0  0  0  0
  188.9280  178.1600  146.2010 C   0  0  0  0  0  1  0  0  0  0  0  0
  191.7610  177.6620  146.5680 O   0  0  0  0  0  1  0  0  0  0  0  0
  191.1650  175.1400  143.8630 C   0  0  0  0  0  3  0  0  0  0  0  0
  185.6600  178.8890  140.9280 C   0  0  0  0  0  0  0  0  0  0  0  0
  182.9200  178.6300  142.4950 C   0  0  0  0  0  2  0  0  0  0  0  0
  187.9760  178.0550  143.5820 N   0  0  0  0  0  0  0  0  0  0  0  0
  190.4640  175.6300  142.8430 C   0  0  0  0  0  3  0  0  0  0  0  0
  186.1080  178.7080  142.1850 C   0  0  0  0  0  0  0  0  0  0  0  0
  184.3910  179.4070  138.9930 C   0  0  0  0  0  3  0  0  0  0  0  0
  190.1830  177.0900  142.7050 C   0  0  1  0  0  3  0  0  0  0  0  0
  191.6750  175.9500  144.9840 C   0  0  0  0  0  3  0  0  0  0  0  0
  183.2210  178.4090  141.0140 C   0  0  2  0  0  3  0  0  0  0  0  0
  188.3130  177.8760  141.2080 C   0  0  0  0  0  0  0  0  0  0  0  0
  189.7690  177.5700  145.1140 C   0  0  0  0  0  0  0  0  0  0  0  0
  187.4870  178.1930  142.3880 C   0  0  0  0  0  0  0  0  0  0  0  0
  189.8370  177.3590  138.9830 C   0  0  0  0  0  3  0  0  0  0  0  0
  184.0240  178.0930  143.3970 C   0  0  0  0  0  2  0  0  0  0  0  0
  190.3460  177.1320  140.2260 N   0  0  0  0  0  0  0  0  0  0  0  0
  185.2370  179.0110  143.3690 C   0  0  0  0  0  2  0  0  0  0  0  0
  184.3110  179.3770  140.5320 C   0  0  1  0  0  3  0  0  0  0  0  0
  188.5720  177.8380  138.8370 N   0  0  0  0  0  0  0  0  0  0  0  0
  186.4720  178.6060  139.8030 N   0  0  0  0  0  0  0  0  0  0  0  0
  182.0410  178.6060  140.2900 O   0  0  0  0  0  0  0  0  0  0  0  0
  181.0440  177.9980  141.0570 C   0  0  0  0  0  2  0  0  0  0  0  0
  179.6050  180.8790  142.1220 N   0  0  0  0  0  2  0  0  0  0  0  0
  179.9210  179.9190  139.9610 C   0  0  0  0  0  2  0  0  0  0  0  0
  179.7500  178.7840  140.9410 C   0  0  2  0  0  3  0  0  0  0  0  0
  179.4510  181.1460  140.7020 C   0  0  0  0  0  2  0  0  0  0  0  0
  179.4340  179.4400  142.2700 C   0  0  0  0  0  2  0  0  0  0  0  0
  1 18  1  0  0  0  0
  2 14  2  0  0  0  0
  2 27  1  0  0  0  0
  3  7  1  0  0  0  0
  4 15  1  0  0  0  0
  5 19  2  0  0  0  0
  8 16  1  0  0  0  0
  9 13  2  0  0  0  0
 10 22  1  0  0  0  0
 11  5  1  0  0  0  0
 12  8  2  0  0  0  0
 13 20  1  0  0  0  0
 13 24  1  0  0  0  0
 15 12  1  1  0  0  0
 15  5  1  0  0  0  0
 16  3  2  0  0  0  0
 17 28  1  6  0  0  0
 17 10  1  0  0  0  0
 18  4  2  0  0  0  0
 18 20  1  0  0  0  0
 19  3  1  0  0  0  0
 19  6  1  0  0  0  0
 20 11  2  0  0  0  0
 21 23  2  0  0  0  0
 23  4  1  0  0  0  0
 24 22  1  0  0  0  0
 25 14  1  6  0  0  0
 25  9  1  0  0  0  0
 25 17  1  0  0  0  0
 26 21  1  0  0  0  0
 26  1  2  0  0  0  0
 27  1  1  0  0  0  0
 27  9  1  0  0  0  0
 28 29  1  0  0  0  0
 30 34  1  0  0  0  0
 31 33  1  0  0  0  0
 31 32  1  0  0  0  0
 32 29  1  1  0  0  0
 32 34  1  0  0  0  0
 33 30  1  0  0  0  0
M  END
>  <MODEL>
5

>  <REMARK>
 VINA RESULT:      -8.9      3.633      7.363
  Name = 
  3 active torsions:
  status: ('A' for Active; 'I' for Inactive)
    1  A    between atoms: C_17  and  O_28
    2  A    between atoms: O_28  and  C_29
    3  A    between atoms: C_29  and  C_32
                            x       y       z     vdW  Elec       q    Type
                         _______ _______ _______ _____ _____    ______ ____

>  <TORSDO>
F 3

$$$$
=
 OpenBabel11122412213D

 34 40  0  0  1  0  0  0  0  0999 V2000
  183.1520  178.6370  141.2770 C   0  0  0  0  0  0  0  0  0  0  0  0
  183.0300  178.9810  143.8190 C   0  0  0  0  0  3  0  0  0  0  0  0
  186.3490  177.8980  135.5830 C   0  0  0  0  0  0  0  0  0  0  0  0
  183.4390  178.2770  138.9170 C   0  0  0  0  0  0  0  0  0  0  0  0
  185.7950  178.1050  138.0170 C   0  0  0  0  0  0  0  0  0  0  0  0
  188.1450  178.3060  137.3300 C   0  0  0  0  0  1  0  0  0  0  0  0
  187.1190  178.5540  134.6290 O   0  0  0  0  0  1  0  0  0  0  0  0
  184.4560  176.2800  135.9600 C   0  0  0  0  0  3  0  0  0  0  0  0
  185.1350  178.7040  142.7890 C   0  0  0  0  0  0  0  0  0  0  0  0
  187.6370  177.5430  144.3450 C   0  0  0  0  0  2  0  0  0  0  0  0
  186.2540  178.2380  139.3770 N   0  0  0  0  0  0  0  0  0  0  0  0
  183.9820  176.6730  137.1400 C   0  0  0  0  0  3  0  0  0  0  0  0
  185.9960  178.5130  141.7700 C   0  0  0  0  0  0  0  0  0  0  0  0
  184.1170  179.0710  144.8990 C   0  0  0  0  0  3  0  0  0  0  0  0
  184.3110  178.0080  137.7210 C   0  0  0  0  0  0  0  0  0  0  0  0
  185.3930  177.0690  135.1380 C   0  0  0  0  0  3  0  0  0  0  0  0
  186.1660  177.5770  144.7520 C   0  0  2  0  0  3  0  0  0  0  0  0
  183.9970  178.4210  140.1880 C   0  0  0  0  0  0  0  0  0  0  0  0
  186.6990  178.0890  137.0160 C   0  0  2  0  0  3  0  0  0  0  0  0
  185.4560  178.3700  140.3930 C   0  0  0  0  0  0  0  0  0  0  0  0
  181.2770  178.5850  139.8440 C   0  0  0  0  0  3  0  0  0  0  0  0
  187.8230  177.2280  142.8660 C   0  0  0  0  0  2  0  0  0  0  0  0
  182.0890  178.3670  138.7710 N   0  0  0  0  0  0  0  0  0  0  0  0
  187.4750  178.4370  142.0100 C   0  0  0  0  0  2  0  0  0  0  0  0
  185.4880  178.8500  144.2270 C   0  0  1  0  0  3  0  0  0  0  0  0
  181.8090  178.7160  141.0890 N   0  0  0  0  0  0  0  0  0  0  0  0
  183.7380  178.7780  142.5760 N   0  0  0  0  0  0  0  0  0  0  0  0
  186.0930  177.5270  146.1470 O   0  0  0  0  0  0  0  0  0  0  0  0
  187.1730  178.2960  146.5900 C   0  0  0  0  0  2  0  0  0  0  0  0
  190.2510  177.3400  147.6420 N   0  0  0  0  0  2  0  0  0  0  0  0
  188.5140  178.6280  148.6500 C   0  0  0  0  0  2  0  0  0  0  0  0
  187.8590  177.6040  147.7530 C   0  0  2  0  0  3  0  0  0  0  0  0
  189.9380  178.1540  148.8050 C   0  0  0  0  0  2  0  0  0  0  0  0
  188.9900  176.7380  147.2340 C   0  0  0  0  0  2  0  0  0  0  0  0
  1 27  1  0  0  0  0
  2 14  2  0  0  0  0
  3 19  1  0  0  0  0
  4 18  1  0  0  0  0
  5 11  1  0  0  0  0
  7  3  1  0  0  0  0
  8 12  2  0  0  0  0
  9 25  1  0  0  0  0
 10 17  1  0  0  0  0
 11 20  2  0  0  0  0
 12 15  1  0  0  0  0
 13 24  1  0  0  0  0
 13  9  2  0  0  0  0
 15  5  2  0  0  0  0
 15  4  1  0  0  0  0
 16  3  2  0  0  0  0
 16  8  1  0  0  0  0
 17 28  1  1  0  0  0
 18 20  1  0  0  0  0
 18  1  2  0  0  0  0
 19  6  1  6  0  0  0
 19  5  1  0  0  0  0
 20 13  1  0  0  0  0
 21 26  2  0  0  0  0
 22 10  1  0  0  0  0
 23  4  2  0  0  0  0
 23 21  1  0  0  0  0
 24 22  1  0  0  0  0
 25 17  1  0  0  0  0
 25 14  1  1  0  0  0
 26  1  1  0  0  0  0
 27  9  1  0  0  0  0
 27  2  1  0  0  0  0
 28 29  1  0  0  0  0
 30 33  1  0  0  0  0
 31 33  1  0  0  0  0
 32 29  1  6  0  0  0
 32 31  1  0  0  0  0
 34 30  1  0  0  0  0
 34 32  1  0  0  0  0
M  END
>  <MODEL>
6

>  <REMARK>
 VINA RESULT:      -8.8      3.177      4.772
  Name = 
  3 active torsions:
  status: ('A' for Active; 'I' for Inactive)
    1  A    between atoms: C_17  and  O_28
    2  A    between atoms: O_28  and  C_29
    3  A    between atoms: C_29  and  C_32
                            x       y       z     vdW  Elec       q    Type
                         _______ _______ _______ _____ _____    ______ ____

>  <TORSDO>
F 3

$$$$
=
 OpenBabel11122412213D

 34 40  0  0  1  0  0  0  0  0999 V2000
  188.3190  178.0100  140.3340 C   0  0  0  0  0  0  0  0  0  0  0  0
  188.0740  177.9650  137.7790 C   0  0  0  0  0  3  0  0  0  0  0  0
  186.0520  178.7860  146.4540 C   0  0  0  0  0  0  0  0  0  0  0  0
  188.3710  178.0510  142.7380 C   0  0  2  0  0  3  0  0  0  0  0  0
  186.2150  178.5290  143.9670 C   0  0  0  0  0  0  0  0  0  0  0  0
  184.1010  179.3370  144.9240 C   0  0  0  0  0  1  0  0  0  0  0  0
  185.5990  179.7220  147.3780 O   0  0  0  0  0  1  0  0  0  0  0  0
  187.4980  176.7540  146.1030 C   0  0  0  0  0  3  0  0  0  0  0  0
  186.1610  178.3040  139.1190 C   0  0  0  0  0  0  0  0  0  0  0  0
  183.2520  177.5220  138.1400 C   0  0  0  0  0  2  0  0  0  0  0  0
  185.5670  178.5710  142.6800 N   0  0  0  0  0  0  0  0  0  0  0  0
  187.8320  176.8660  144.8200 C   0  0  0  0  0  3  0  0  0  0  0  0
  185.4650  178.4500  140.2630 C   0  0  0  0  0  0  0  0  0  0  0  0
  186.8580  178.1430  136.8580 C   0  0  0  0  0  3  0  0  0  0  0  0
  187.6790  178.1480  144.0700 C   0  0  0  0  0  0  0  0  0  0  0  0
  186.8870  177.8360  146.8980 C   0  0  0  0  0  3  0  0  0  0  0  0
  184.6110  177.1730  137.5360 C   0  0  2  0  0  3  0  0  0  0  0  0
  187.6450  178.1380  141.5500 C   0  0  0  0  0  0  0  0  0  0  0  0
  185.5090  178.8510  145.0710 C   0  0  0  0  0  0  0  0  0  0  0  0
  186.1910  178.3830  141.5570 C   0  0  0  0  0  0  0  0  0  0  0  0
  190.3620  177.7420  141.4860 C   0  0  0  0  0  3  0  0  0  0  0  0
  183.2620  177.4630  139.6620 C   0  0  0  0  0  2  0  0  0  0  0  0
  189.7180  177.8590  142.6800 N   0  0  0  0  0  0  0  0  0  0  0  0
  183.9810  178.6700  140.2440 C   0  0  0  0  0  2  0  0  0  0  0  0
  185.6060  178.3250  137.7380 C   0  0  1  0  0  3  0  0  0  0  0  0
  189.6640  177.8160  140.3210 N   0  0  0  0  0  0  0  0  0  0  0  0
  187.5610  178.0960  139.1230 N   0  0  0  0  0  0  0  0  0  0  0  0
  184.4350  176.9170  136.1720 O   0  0  0  0  0  0  0  0  0  0  0  0
  184.1320  175.5550  136.1000 C   0  0  0  0  0  2  0  0  0  0  0  0
  184.9160  172.3560  136.9100 N   0  0  0  0  0  2  0  0  0  0  0  0
  186.1470  174.1240  135.8850 C   0  0  0  0  0  2  0  0  0  0  0  0
  185.1750  174.7510  136.8550 C   0  0  2  0  0  3  0  0  0  0  0  0
  186.1760  172.6620  136.2550 C   0  0  0  0  0  2  0  0  0  0  0  0
  184.5050  173.5910  137.5650 C   0  0  0  0  0  2  0  0  0  0  0  0
  1 18  1  0  0  0  0
  2 27  1  0  0  0  0
  3 16  1  0  0  0  0
  3  7  1  0  0  0  0
  4 18  1  6  0  0  0
  4 15  1  0  0  0  0
  5 15  1  0  0  0  0
  5 19  1  0  0  0  0
  6 19  1  0  0  0  0
  8 16  2  0  0  0  0
  9 27  1  0  0  0  0
  9 13  2  0  0  0  0
 10 22  1  0  0  0  0
 11  5  2  0  0  0  0
 12  8  1  0  0  0  0
 13 20  1  0  0  0  0
 14  2  2  0  0  0  0
 15 12  2  0  0  0  0
 17 28  1  6  0  0  0
 17 25  1  0  0  0  0
 17 10  1  0  0  0  0
 18 20  2  0  0  0  0
 19  3  2  0  0  0  0
 20 11  1  0  0  0  0
 21 23  2  0  0  0  0
 22 24  1  0  0  0  0
 23  4  1  0  0  0  0
 24 13  1  0  0  0  0
 25 14  1  6  0  0  0
 25  9  1  0  0  0  0
 26  1  2  0  0  0  0
 26 21  1  0  0  0  0
 27  1  1  0  0  0  0
 29 28  1  0  0  0  0
 30 34  1  0  0  0  0
 31 33  1  0  0  0  0
 31 32  1  0  0  0  0
 32 29  1  6  0  0  0
 32 34  1  0  0  0  0
 33 30  1  0  0  0  0
M  END
>  <MODEL>
7

>  <REMARK>
 VINA RESULT:      -8.6      3.331      8.954
  Name = 
  3 active torsions:
  status: ('A' for Active; 'I' for Inactive)
    1  A    between atoms: C_17  and  O_28
    2  A    between atoms: O_28  and  C_29
    3  A    between atoms: C_29  and  C_32
                            x       y       z     vdW  Elec       q    Type
                         _______ _______ _______ _____ _____    ______ ____

>  <TORSDO>
F 3

$$$$
=
 OpenBabel11122412213D

 34 40  0  0  1  0  0  0  0  0999 V2000
  187.9170  177.9320  139.7550 C   0  0  0  0  0  0  0  0  0  0  0  0
  185.9090  178.6820  138.3430 C   0  0  0  0  0  3  0  0  0  0  0  0
  191.1300  177.0450  145.4190 C   0  0  0  0  0  0  0  0  0  0  0  0
  189.6950  177.2420  141.2210 C   0  0  0  0  0  0  0  0  0  0  0  0
  189.3660  177.5330  143.7100 C   0  0  0  0  0  0  0  0  0  0  0  0
  188.9630  178.2160  146.0360 C   0  0  0  0  0  1  0  0  0  0  0  0
  191.7850  177.6980  146.4580 O   0  0  0  0  0  1  0  0  0  0  0  0
  191.1920  175.0830  143.8420 C   0  0  0  0  0  3  0  0  0  0  0  0
  185.7710  178.7850  140.6970 C   0  0  0  0  0  0  0  0  0  0  0  0
  183.0090  178.6170  142.2370 C   0  0  0  0  0  2  0  0  0  0  0  0
  188.0430  178.0230  143.4110 N   0  0  0  0  0  0  0  0  0  0  0  0
  190.5100  175.5430  142.7950 C   0  0  0  0  0  3  0  0  0  0  0  0
  186.2010  178.6460  141.9670 C   0  0  0  0  0  0  0  0  0  0  0  0
  184.5330  179.2450  138.7280 C   0  0  0  0  0  3  0  0  0  0  0  0
  190.2480  177.0000  142.5990 C   0  0  1  0  0  3  0  0  0  0  0  0
  191.6980  175.9290  144.9390 C   0  0  0  0  0  3  0  0  0  0  0  0
  183.3260  178.3370  140.7700 C   0  0  2  0  0  3  0  0  0  0  0  0
  188.4080  177.7520  141.0500 C   0  0  0  0  0  0  0  0  0  0  0  0
  189.8110  177.5750  144.9830 C   0  0  0  0  0  0  0  0  0  0  0  0
  187.5710  178.1230  142.2060 C   0  0  0  0  0  0  0  0  0  0  0  0
  189.9530  177.1340  138.8660 C   0  0  0  0  0  3  0  0  0  0  0  0
  184.0940  178.1020  143.1730 C   0  0  0  0  0  2  0  0  0  0  0  0
  190.4440  176.9480  140.1230 N   0  0  0  0  0  0  0  0  0  0  0  0
  185.3190  179.0030  143.1270 C   0  0  0  0  0  2  0  0  0  0  0  0
  184.4340  179.2740  140.2670 C   0  0  1  0  0  3  0  0  0  0  0  0
  188.6960  177.6220  138.6860 N   0  0  0  0  0  0  0  0  0  0  0  0
  186.5930  178.4510  139.5940 N   0  0  0  0  0  0  0  0  0  0  0  0
  182.1580  178.5220  140.0230 O   0  0  0  0  0  0  0  0  0  0  0  0
  181.1170  178.3780  140.9450 C   0  0  0  0  0  2  0  0  0  0  0  0
  180.3950  175.7940  138.8700 N   0  0  0  0  0  2  0  0  0  0  0  0
  179.6020  176.4160  141.0320 C   0  0  0  0  0  2  0  0  0  0  0  0
  179.9360  177.6870  140.2890 C   0  0  2  0  0  3  0  0  0  0  0  0
  179.5600  175.3450  139.9710 C   0  0  0  0  0  2  0  0  0  0  0  0
  180.3170  177.2490  138.8890 C   0  0  0  0  0  2  0  0  0  0  0  0
  1 18  1  0  0  0  0
  2 14  2  0  0  0  0
  2 27  1  0  0  0  0
  3  7  1  0  0  0  0
  4 15  1  0  0  0  0
  5 19  2  0  0  0  0
  8 16  1  0  0  0  0
  9 13  2  0  0  0  0
 10 22  1  0  0  0  0
 11  5  1  0  0  0  0
 12  8  2  0  0  0  0
 13 20  1  0  0  0  0
 13 24  1  0  0  0  0
 15 12  1  1  0  0  0
 15  5  1  0  0  0  0
 16  3  2  0  0  0  0
 17 28  1  6  0  0  0
 17 10  1  0  0  0  0
 18  4  2  0  0  0  0
 18 20  1  0  0  0  0
 19  3  1  0  0  0  0
 19  6  1  0  0  0  0
 20 11  2  0  0  0  0
 21 23  2  0  0  0  0
 23  4  1  0  0  0  0
 24 22  1  0  0  0  0
 25 14  1  6  0  0  0
 25  9  1  0  0  0  0
 25 17  1  0  0  0  0
 26 21  1  0  0  0  0
 26  1  2  0  0  0  0
 27  1  1  0  0  0  0
 27  9  1  0  0  0  0
 28 29  1  0  0  0  0
 30 34  1  0  0  0  0
 30 33  1  0  0  0  0
 32 29  1  1  0  0  0
 32 31  1  0  0  0  0
 33 31  1  0  0  0  0
 34 32  1  0  0  0  0
M  END
>  <MODEL>
8

>  <REMARK>
 VINA RESULT:      -8.5      3.495      7.428
  Name = 
  3 active torsions:
  status: ('A' for Active; 'I' for Inactive)
    1  A    between atoms: C_17  and  O_28
    2  A    between atoms: O_28  and  C_29
    3  A    between atoms: C_29  and  C_32
                            x       y       z     vdW  Elec       q    Type
                         _______ _______ _______ _____ _____    ______ ____

>  <TORSDO>
F 3

$$$$
=
 OpenBabel11122412213D

 34 40  0  0  1  0  0  0  0  0999 V2000
  189.4210  177.7550  139.8090 C   0  0  0  0  0  0  0  0  0  0  0  0
  189.8940  177.6550  137.2870 C   0  0  0  0  0  3  0  0  0  0  0  0
  185.5580  178.6870  145.0430 C   0  0  0  0  0  0  0  0  0  0  0  0
  188.8050  177.8490  142.1310 C   0  0  2  0  0  3  0  0  0  0  0  0
  186.4000  178.3730  142.7050 C   0  0  0  0  0  0  0  0  0  0  0  0
  184.1160  179.2210  143.0220 C   0  0  0  0  0  1  0  0  0  0  0  0
  184.8800  179.6470  145.7870 O   0  0  0  0  0  1  0  0  0  0  0  0
  187.0140  176.6350  145.1460 C   0  0  0  0  0  3  0  0  0  0  0  0
  187.6890  178.0410  138.0370 C   0  0  0  0  0  0  0  0  0  0  0  0
  185.1550  177.2630  136.3040 C   0  0  0  0  0  2  0  0  0  0  0  0
  186.1350  178.3930  141.2880 N   0  0  0  0  0  0  0  0  0  0  0  0
  187.6930  176.7160  144.0040 C   0  0  0  0  0  3  0  0  0  0  0  0
  186.7050  178.2190  138.9400 C   0  0  0  0  0  0  0  0  0  0  0  0
  188.9840  177.8240  136.0620 C   0  0  0  0  0  3  0  0  0  0  0  0
  187.7720  177.9820  143.2170 C   0  0  0  0  0  0  0  0  0  0  0  0
  186.2230  177.7390  145.7200 C   0  0  0  0  0  3  0  0  0  0  0  0
  186.6220  176.8890  136.1080 C   0  0  2  0  0  3  0  0  0  0  0  0
  188.4390  177.9160  140.7870 C   0  0  0  0  0  0  0  0  0  0  0  0
  185.4200  178.7260  143.5630 C   0  0  0  0  0  0  0  0  0  0  0  0
  187.0430  178.1740  140.3860 C   0  0  0  0  0  0  0  0  0  0  0  0
  191.0610  177.4950  141.4870 C   0  0  0  0  0  3  0  0  0  0  0  0
  184.7410  177.2370  137.7700 C   0  0  0  0  0  2  0  0  0  0  0  0
  190.1120  177.6440  142.4540 N   0  0  0  0  0  0  0  0  0  0  0  0
  185.2880  178.4510  138.5060 C   0  0  0  0  0  2  0  0  0  0  0  0
  187.5390  178.0370  136.5570 C   0  0  1  0  0  3  0  0  0  0  0  0
  190.7140  177.5490  140.1730 N   0  0  0  0  0  0  0  0  0  0  0  0
  189.0300  177.8210  138.4340 N   0  0  0  0  0  0  0  0  0  0  0  0
  186.8280  176.6040  134.7540 O   0  0  0  0  0  0  0  0  0  0  0  0
  186.6210  175.2270  134.6420 C   0  0  0  0  0  2  0  0  0  0  0  0
  187.5480  172.0880  135.5320 N   0  0  0  0  0  2  0  0  0  0  0  0
  188.7790  174.0790  135.0690 C   0  0  0  0  0  2  0  0  0  0  0  0
  187.4580  174.4920  135.6740 C   0  0  2  0  0  3  0  0  0  0  0  0
  188.8960  172.6040  135.3630 C   0  0  0  0  0  2  0  0  0  0  0  0
  186.7680  173.1990  136.0600 C   0  0  0  0  0  2  0  0  0  0  0  0
  1 26  2  0  0  0  0
  1 18  1  0  0  0  0
  2 27  1  0  0  0  0
  3 16  1  0  0  0  0
  3  7  1  0  0  0  0
  4 18  1  6  0  0  0
  4 23  1  0  0  0  0
  4 15  1  0  0  0  0
  5 15  1  0  0  0  0
  5 19  1  0  0  0  0
  6 19  1  0  0  0  0
  8 16  2  0  0  0  0
  9 27  1  0  0  0  0
  9 13  2  0  0  0  0
 10 22  1  0  0  0  0
 11  5  2  0  0  0  0
 12  8  1  0  0  0  0
 13 20  1  0  0  0  0
 14  2  2  0  0  0  0
 15 12  2  0  0  0  0
 17 28  1  6  0  0  0
 17 10  1  0  0  0  0
 17 25  1  0  0  0  0
 19  3  2  0  0  0  0
 20 18  2  0  0  0  0
 20 11  1  0  0  0  0
 21 23  2  0  0  0  0
 22 24  1  0  0  0  0
 24 13  1  0  0  0  0
 25 14  1  6  0  0  0
 25  9  1  0  0  0  0
 26 21  1  0  0  0  0
 27  1  1  0  0  0  0
 29 28  1  0  0  0  0
 30 34  1  0  0  0  0
 31 33  1  0  0  0  0
 31 32  1  0  0  0  0
 32 29  1  6  0  0  0
 32 34  1  0  0  0  0
 33 30  1  0  0  0  0
M  END
>  <MODEL>
9

>  <REMARK>
 VINA RESULT:      -8.5      2.640      8.891
  Name = 
  3 active torsions:
  status: ('A' for Active; 'I' for Inactive)
    1  A    between atoms: C_17  and  O_28
    2  A    between atoms: O_28  and  C_29
    3  A    between atoms: C_29  and  C_32
                            x       y       z     vdW  Elec       q    Type
                         _______ _______ _______ _____ _____    ______ ____

>  <TORSDO>
F 3

$$$$
