=
 OpenBabel11122410213D

 30 35  0  0  1  0  0  0  0  0999 V2000
  185.9250  178.3920  142.7020 C   0  0  0  0  0  0  0  0  0  0  0  0
  186.7340  178.2370  145.0490 C   0  0  0  0  0  0  0  0  0  0  0  0
  181.9470  178.7620  143.9720 N   0  0  0  0  0  2  0  0  0  0  0  0
  184.8480  178.5140  141.7890 C   0  0  0  0  0  0  0  0  0  0  0  0
  187.2260  178.2670  142.2030 O   0  0  0  0  0  0  0  0  0  0  0  0
  186.7400  178.2870  138.6860 O   0  0  0  0  0  0  0  0  0  0  0  0
  183.0180  177.3380  139.5640 C   0  0  1  0  0  3  0  0  0  0  0  0
  186.4790  178.4280  139.9120 C   0  0  0  0  0  0  0  0  0  0  0  0
  181.9940  177.5580  140.6940 C   0  0  2  0  0  3  0  0  0  0  0  0
  181.2100  178.8580  142.7170 C   0  0  1  0  0  3  0  0  0  0  0  0
  187.5950  178.6670  140.8860 C   0  0  2  0  0  3  0  0  0  0  0  0
  185.1140  178.4560  140.3660 N   0  0  0  0  0  0  0  0  0  0  0  0
  186.4460  178.2290  146.4180 C   0  0  0  0  0  3  0  0  0  0  0  0
  180.7110  177.6900  139.9520 C   0  0  0  0  0  3  0  0  0  0  0  0
  182.1740  177.1480  138.3080 C   0  0  0  0  0  2  0  0  0  0  0  0
  188.0610  178.1110  144.6560 O   0  0  0  0  0  1  0  0  0  0  0  0
  183.3190  178.6270  143.6590 C   0  0  0  0  0  0  0  0  0  0  0  0
  185.1320  178.3530  146.8690 C   0  0  0  0  0  3  0  0  0  0  0  0
  185.6870  178.3710  144.1040 C   0  0  0  0  0  0  0  0  0  0  0  0
  183.5490  178.6290  142.3120 C   0  0  0  0  0  0  0  0  0  0  0  0
  180.4890  180.1900  142.6510 C   0  0  0  0  0  1  0  0  0  0  0  0
  182.2550  178.7770  141.5830 C   0  0  1  0  0  3  0  0  0  0  0  0
  180.8310  177.4650  138.7020 N   0  0  0  0  0  0  0  0  0  0  0  0
  183.4990  179.8430  139.0910 C   0  0  0  0  0  1  0  0  0  0  0  0
  184.0890  178.4870  145.9560 C   0  0  0  0  0  3  0  0  0  0  0  0
  184.3550  178.4960  144.5820 C   0  0  0  0  0  0  0  0  0  0  0  0
  184.0620  178.4480  139.3450 C   0  0  2  0  0  3  0  0  0  0  0  0
  188.7970  177.9520  140.4780 N   0  0  0  0  0  2  0  0  0  0  0  0
  190.7090  177.1240  141.7300 C   0  0  0  0  0  1  0  0  0  0  0  0
  189.2000  177.1010  141.5860 C   0  0  0  0  0  2  0  0  0  0  0  0
  1 19  1  0  0  0  0
  2 13  1  0  0  0  0
  4 20  1  0  0  0  0
  4  1  2  0  0  0  0
  5  1  1  0  0  0  0
  6  8  2  0  0  0  0
  7 15  1  6  0  0  0
  7  9  1  0  0  0  0
  8 12  1  0  0  0  0
  8 11  1  0  0  0  0
  9 14  1  6  0  0  0
  9 22  1  0  0  0  0
 10 21  1  1  0  0  0
 10  3  1  0  0  0  0
 11 28  1  6  0  0  0
 11  5  1  0  0  0  0
 12  4  1  0  0  0  0
 13 18  2  0  0  0  0
 15 23  1  0  0  0  0
 16  2  1  0  0  0  0
 17  3  1  0  0  0  0
 17 26  1  0  0  0  0
 19 26  1  0  0  0  0
 19  2  2  0  0  0  0
 20 17  2  0  0  0  0
 22 20  1  1  0  0  0
 22 10  1  0  0  0  0
 23 14  2  0  0  0  0
 25 18  1  0  0  0  0
 26 25  2  0  0  0  0
 27 24  1  1  0  0  0
 27  7  1  0  0  0  0
 27 12  1  0  0  0  0
 28 30  1  0  0  0  0
 30 29  1  0  0  0  0
M  END
>  <MODEL>
1

>  <REMARK>
 VINA RESULT:      -9.0      0.000      0.000
  Name = 
  2 active torsions:
  status: ('A' for Active; 'I' for Inactive)
    1  A    between atoms: C_11  and  N_28
    2  A    between atoms: N_28  and  C_30
                            x       y       z     vdW  Elec       q    Type
                         _______ _______ _______ _____ _____    ______ ____

>  <TORSDO>
F 2

$$$$
=
 OpenBabel11122410213D

 30 35  0  0  1  0  0  0  0  0999 V2000
  186.1700  178.2930  142.1820 C   0  0  0  0  0  0  0  0  0  0  0  0
  183.7820  178.9370  142.4520 C   0  0  0  0  0  0  0  0  0  0  0  0
  186.6650  177.9350  146.3290 N   0  0  0  0  0  2  0  0  0  0  0  0
  187.4100  177.9380  142.7670 C   0  0  0  0  0  0  0  0  0  0  0  0
  186.0820  178.3990  140.7890 O   0  0  0  0  0  0  0  0  0  0  0  0
  189.3930  177.6860  139.7230 O   0  0  0  0  0  0  0  0  0  0  0  0
  190.3850  178.5620  143.4350 C   0  0  1  0  0  3  0  0  0  0  0  0
  188.3930  177.7640  140.4880 C   0  0  0  0  0  0  0  0  0  0  0  0
  189.7780  178.5000  144.8490 C   0  0  2  0  0  3  0  0  0  0  0  0
  188.0690  177.5610  146.4600 C   0  0  1  0  0  3  0  0  0  0  0  0
  187.0110  177.7790  139.9030 C   0  0  2  0  0  3  0  0  0  0  0  0
  188.5660  177.7410  141.9160 N   0  0  0  0  0  0  0  0  0  0  0  0
  182.6960  179.1860  143.2980 C   0  0  0  0  0  3  0  0  0  0  0  0
  190.9530  178.1540  145.6950 C   0  0  0  0  0  3  0  0  0  0  0  0
  191.8910  178.4600  143.6540 C   0  0  0  0  0  2  0  0  0  0  0  0
  183.5900  179.0640  141.0810 O   0  0  0  0  0  1  0  0  0  0  0  0
  186.3850  178.0900  144.9520 C   0  0  0  0  0  0  0  0  0  0  0  0
  182.8310  179.0720  144.6810 C   0  0  0  0  0  3  0  0  0  0  0  0
  185.0360  178.5650  142.9960 C   0  0  0  0  0  0  0  0  0  0  0  0
  187.4780  177.8470  144.1680 C   0  0  0  0  0  0  0  0  0  0  0  0
  188.1730  176.2000  147.1210 C   0  0  0  0  0  1  0  0  0  0  0  0
  188.6430  177.4880  145.0280 C   0  0  1  0  0  3  0  0  0  0  0  0
  192.0510  178.1460  145.0450 N   0  0  0  0  0  0  0  0  0  0  0  0
  190.1080  176.0460  142.8680 C   0  0  0  0  0  1  0  0  0  0  0  0
  184.0560  178.7070  145.2360 C   0  0  0  0  0  3  0  0  0  0  0  0
  185.1550  178.4540  144.4080 C   0  0  0  0  0  0  0  0  0  0  0  0
  189.9180  177.4940  142.4290 C   0  0  2  0  0  3  0  0  0  0  0  0
  187.0010  178.4740  138.6230 N   0  0  0  0  0  2  0  0  0  0  0  0
  186.8500  176.5210  137.1840 C   0  0  0  0  0  1  0  0  0  0  0  0
  186.1240  177.7350  137.7290 C   0  0  0  0  0  2  0  0  0  0  0  0
  1  4  2  0  0  0  0
  1 19  1  0  0  0  0
  2 19  2  0  0  0  0
  2 13  1  0  0  0  0
  3 10  1  0  0  0  0
  4 20  1  0  0  0  0
  5  1  1  0  0  0  0
  6  8  2  0  0  0  0
  7 15  1  1  0  0  0
  7  9  1  0  0  0  0
  8 12  1  0  0  0  0
  9 22  1  0  0  0  0
  9 14  1  1  0  0  0
 10 21  1  6  0  0  0
 11 28  1  6  0  0  0
 11  8  1  0  0  0  0
 11  5  1  0  0  0  0
 12 27  1  0  0  0  0
 12  4  1  0  0  0  0
 13 18  2  0  0  0  0
 15 23  1  0  0  0  0
 16  2  1  0  0  0  0
 17  3  1  0  0  0  0
 18 25  1  0  0  0  0
 19 26  1  0  0  0  0
 20 17  2  0  0  0  0
 22 20  1  6  0  0  0
 22 10  1  0  0  0  0
 23 14  2  0  0  0  0
 26 17  1  0  0  0  0
 26 25  2  0  0  0  0
 27 24  1  1  0  0  0
 27  7  1  0  0  0  0
 29 30  1  0  0  0  0
 30 28  1  0  0  0  0
M  END
>  <MODEL>
2

>  <REMARK>
 VINA RESULT:      -8.7      2.607      6.229
  Name = 
  2 active torsions:
  status: ('A' for Active; 'I' for Inactive)
    1  A    between atoms: C_11  and  N_28
    2  A    between atoms: N_28  and  C_30
                            x       y       z     vdW  Elec       q    Type
                         _______ _______ _______ _____ _____    ______ ____

>  <TORSDO>
F 2

$$$$
=
 OpenBabel11122410213D

 30 35  0  0  1  0  0  0  0  0999 V2000
  189.2920  177.3130  143.7020 C   0  0  0  0  0  0  0  0  0  0  0  0
  191.2520  176.2740  144.8290 C   0  0  0  0  0  0  0  0  0  0  0  0
  187.4210  178.0530  147.3790 N   0  0  0  0  0  2  0  0  0  0  0  0
  188.0180  177.9260  143.7920 C   0  0  0  0  0  0  0  0  0  0  0  0
  189.8510  177.0930  142.4380 O   0  0  0  0  0  0  0  0  0  0  0  0
  187.3460  178.3070  140.2330 O   0  0  0  0  0  0  0  0  0  0  0  0
  184.9410  177.8930  143.3260 C   0  0  1  0  0  3  0  0  0  0  0  0
  187.9710  178.1070  141.3110 C   0  0  0  0  0  0  0  0  0  0  0  0
  185.0000  177.9480  144.8650 C   0  0  2  0  0  3  0  0  0  0  0  0
  186.1640  178.6810  146.9870 C   0  0  1  0  0  3  0  0  0  0  0  0
  189.4400  177.8030  141.2730 C   0  0  2  0  0  3  0  0  0  0  0  0
  187.3050  178.2640  142.5770 N   0  0  0  0  0  0  0  0  0  0  0  0
  191.8920  175.8970  146.0130 C   0  0  0  0  0  3  0  0  0  0  0  0
  183.6900  178.5590  145.2210 C   0  0  0  0  0  3  0  0  0  0  0  0
  183.5070  178.2780  142.9790 C   0  0  0  0  0  2  0  0  0  0  0  0
  191.8940  176.0160  143.6230 O   0  0  0  0  0  1  0  0  0  0  0  0
  188.1410  177.7510  146.2010 C   0  0  0  0  0  0  0  0  0  0  0  0
  191.2950  176.1330  147.2510 C   0  0  0  0  0  3  0  0  0  0  0  0
  189.9830  176.9020  144.8750 C   0  0  0  0  0  0  0  0  0  0  0  0
  187.4710  178.1290  145.0710 C   0  0  0  0  0  0  0  0  0  0  0  0
  186.0950  180.0820  147.5620 C   0  0  0  0  0  1  0  0  0  0  0  0
  186.1680  178.7520  145.4450 C   0  0  1  0  0  3  0  0  0  0  0  0
  182.9220  178.7170  144.2140 N   0  0  0  0  0  0  0  0  0  0  0  0
  185.8830  180.2720  142.8950 C   0  0  0  0  0  1  0  0  0  0  0  0
  190.0480  176.7510  147.3190 C   0  0  0  0  0  3  0  0  0  0  0  0
  189.3890  177.1350  146.1460 C   0  0  0  0  0  0  0  0  0  0  0  0
  185.9340  178.7850  142.5590 C   0  0  2  0  0  3  0  0  0  0  0  0
  189.7740  177.0260  140.0860 N   0  0  0  0  0  2  0  0  0  0  0  0
  191.5940  176.4550  138.5790 C   0  0  0  0  0  1  0  0  0  0  0  0
  191.2070  177.1460  139.8720 C   0  0  0  0  0  2  0  0  0  0  0  0
  1  4  2  0  0  0  0
  1 19  1  0  0  0  0
  2 19  2  0  0  0  0
  2 13  1  0  0  0  0
  4 20  1  0  0  0  0
  5  1  1  0  0  0  0
  6  8  2  0  0  0  0
  7 15  1  6  0  0  0
  7  9  1  0  0  0  0
  8 12  1  0  0  0  0
  9 14  1  6  0  0  0
  9 22  1  0  0  0  0
 10  3  1  0  0  0  0
 10 21  1  1  0  0  0
 11 28  1  6  0  0  0
 11  8  1  0  0  0  0
 11  5  1  0  0  0  0
 12  4  1  0  0  0  0
 13 18  2  0  0  0  0
 15 23  1  0  0  0  0
 16  2  1  0  0  0  0
 17  3  1  0  0  0  0
 18 25  1  0  0  0  0
 19 26  1  0  0  0  0
 20 17  2  0  0  0  0
 22 20  1  6  0  0  0
 22 10  1  0  0  0  0
 23 14  2  0  0  0  0
 26 17  1  0  0  0  0
 26 25  2  0  0  0  0
 27 12  1  0  0  0  0
 27 24  1  1  0  0  0
 27  7  1  0  0  0  0
 29 30  1  0  0  0  0
 30 28  1  0  0  0  0
M  END
>  <MODEL>
3

>  <REMARK>
 VINA RESULT:      -8.7      2.708      4.808
  Name = 
  2 active torsions:
  status: ('A' for Active; 'I' for Inactive)
    1  A    between atoms: C_11  and  N_28
    2  A    between atoms: N_28  and  C_30
                            x       y       z     vdW  Elec       q    Type
                         _______ _______ _______ _____ _____    ______ ____

>  <TORSDO>
F 2

$$$$
=
 OpenBabel11122410213D

 30 35  0  0  1  0  0  0  0  0999 V2000
  185.3890  178.3690  142.0750 C   0  0  0  0  0  0  0  0  0  0  0  0
  186.4950  178.2190  144.2990 C   0  0  0  0  0  0  0  0  0  0  0  0
  181.6340  178.9350  143.8500 N   0  0  0  0  0  2  0  0  0  0  0  0
  184.2070  178.5230  141.3100 C   0  0  0  0  0  0  0  0  0  0  0  0
  186.6070  178.1790  141.4130 O   0  0  0  0  0  0  0  0  0  0  0  0
  185.6590  178.1600  137.9900 O   0  0  0  0  0  0  0  0  0  0  0  0
  182.0510  177.3900  139.3730 C   0  0  1  0  0  3  0  0  0  0  0  0
  185.5690  178.3330  139.2360 C   0  0  0  0  0  0  0  0  0  0  0  0
  181.1960  177.6740  140.6230 C   0  0  2  0  0  3  0  0  0  0  0  0
  180.7410  179.0420  142.7010 C   0  0  1  0  0  3  0  0  0  0  0  0
  186.8140  178.5400  140.0490 C   0  0  2  0  0  3  0  0  0  0  0  0
  184.2790  178.4290  139.8660 N   0  0  0  0  0  0  0  0  0  0  0  0
  186.3910  178.2470  145.6930 C   0  0  0  0  0  3  0  0  0  0  0  0
  179.8320  177.8500  140.0540 C   0  0  0  0  0  3  0  0  0  0  0  0
  181.0400  177.2170  138.2430 C   0  0  0  0  0  2  0  0  0  0  0  0
  187.7520  178.0280  143.7370 O   0  0  0  0  0  1  0  0  0  0  0  0
  182.9450  178.7340  143.3620 C   0  0  0  0  0  0  0  0  0  0  0  0
  185.1550  178.4360  146.3110 C   0  0  0  0  0  3  0  0  0  0  0  0
  185.3390  178.3820  143.4970 C   0  0  0  0  0  0  0  0  0  0  0  0
  182.9940  178.7040  141.9970 C   0  0  0  0  0  0  0  0  0  0  0  0
  180.0730  180.4030  142.7010 C   0  0  0  0  0  1  0  0  0  0  0  0
  181.6220  178.8960  141.4410 C   0  0  1  0  0  3  0  0  0  0  0  0
  179.7760  177.5990  138.8040 N   0  0  0  0  0  0  0  0  0  0  0  0
  182.5680  179.8630  138.7840 C   0  0  0  0  0  1  0  0  0  0  0  0
  184.0060  178.6000  145.5400 C   0  0  0  0  0  3  0  0  0  0  0  0
  184.0880  178.5740  144.1440 C   0  0  0  0  0  0  0  0  0  0  0  0
  183.1010  178.4500  138.9930 C   0  0  2  0  0  3  0  0  0  0  0  0
  187.9200  177.7660  139.5030 N   0  0  0  0  0  2  0  0  0  0  0  0
  189.0580  178.8380  137.6410 C   0  0  0  0  0  1  0  0  0  0  0  0
  188.9770  178.7000  139.1490 C   0  0  0  0  0  2  0  0  0  0  0  0
  1 19  1  0  0  0  0
  2 13  1  0  0  0  0
  4 20  1  0  0  0  0
  4  1  2  0  0  0  0
  5  1  1  0  0  0  0
  6  8  2  0  0  0  0
  7 15  1  6  0  0  0
  7  9  1  0  0  0  0
  8 12  1  0  0  0  0
  8 11  1  0  0  0  0
  9 14  1  6  0  0  0
  9 22  1  0  0  0  0
 10 21  1  6  0  0  0
 10  3  1  0  0  0  0
 11 28  1  6  0  0  0
 11  5  1  0  0  0  0
 12  4  1  0  0  0  0
 13 18  2  0  0  0  0
 15 23  1  0  0  0  0
 16  2  1  0  0  0  0
 17  3  1  0  0  0  0
 17 26  1  0  0  0  0
 19 26  1  0  0  0  0
 19  2  2  0  0  0  0
 20 17  2  0  0  0  0
 22 20  1  1  0  0  0
 22 10  1  0  0  0  0
 23 14  2  0  0  0  0
 25 18  1  0  0  0  0
 26 25  2  0  0  0  0
 27 24  1  1  0  0  0
 27  7  1  0  0  0  0
 27 12  1  0  0  0  0
 29 30  1  0  0  0  0
 30 28  1  0  0  0  0
M  END
>  <MODEL>
4

>  <REMARK>
 VINA RESULT:      -8.4      1.159      1.319
  Name = 
  2 active torsions:
  status: ('A' for Active; 'I' for Inactive)
    1  A    between atoms: C_11  and  N_28
    2  A    between atoms: N_28  and  C_30
                            x       y       z     vdW  Elec       q    Type
                         _______ _______ _______ _____ _____    ______ ____

>  <TORSDO>
F 2

$$$$
=
 OpenBabel11122410213D

 30 35  0  0  1  0  0  0  0  0999 V2000
  186.8980  178.2080  142.2130 C   0  0  0  0  0  0  0  0  0  0  0  0
  188.0420  177.9030  144.4010 C   0  0  0  0  0  0  0  0  0  0  0  0
  183.1490  178.4480  144.0720 N   0  0  0  0  0  2  0  0  0  0  0  0
  185.6990  178.3790  141.4780 C   0  0  0  0  0  0  0  0  0  0  0  0
  188.1130  178.1310  141.5220 O   0  0  0  0  0  0  0  0  0  0  0  0
  187.1170  178.3840  138.1230 O   0  0  0  0  0  0  0  0  0  0  0  0
  183.5650  177.3370  139.4680 C   0  0  1  0  0  3  0  0  0  0  0  0
  187.0380  178.4390  139.3810 C   0  0  0  0  0  0  0  0  0  0  0  0
  182.7170  177.4680  140.7480 C   0  0  2  0  0  3  0  0  0  0  0  0
  182.2360  178.6200  142.9480 C   0  0  1  0  0  3  0  0  0  0  0  0
  188.2850  178.6240  140.1960 C   0  0  2  0  0  3  0  0  0  0  0  0
  185.7540  178.4210  140.0300 N   0  0  0  0  0  0  0  0  0  0  0  0
  187.9580  177.7990  145.7930 C   0  0  0  0  0  3  0  0  0  0  0  0
  181.3390  177.6370  140.2120 C   0  0  0  0  0  3  0  0  0  0  0  0
  182.5460  177.2240  138.3380 C   0  0  0  0  0  2  0  0  0  0  0  0
  189.2980  177.8190  143.8100 O   0  0  0  0  0  1  0  0  0  0  0  0
  184.4600  178.3490  143.5540 C   0  0  0  0  0  0  0  0  0  0  0  0
  186.7240  177.8780  146.4390 C   0  0  0  0  0  3  0  0  0  0  0  0
  186.8680  178.0890  143.6300 C   0  0  0  0  0  0  0  0  0  0  0  0
  184.4900  178.4450  142.1910 C   0  0  0  0  0  0  0  0  0  0  0  0
  181.5110  179.9460  143.0800 C   0  0  0  0  0  1  0  0  0  0  0  0
  183.1040  178.6280  141.6700 C   0  0  1  0  0  3  0  0  0  0  0  0
  181.2750  177.4980  138.9450 N   0  0  0  0  0  0  0  0  0  0  0  0
  183.9690  179.8730  139.1030 C   0  0  0  0  0  1  0  0  0  0  0  0
  185.5580  178.0620  145.6990 C   0  0  0  0  0  3  0  0  0  0  0  0
  185.6200  178.1670  144.3050 C   0  0  0  0  0  0  0  0  0  0  0  0
  184.5640  178.4710  139.1750 C   0  0  2  0  0  3  0  0  0  0  0  0
  189.4140  177.9510  139.5690 N   0  0  0  0  0  2  0  0  0  0  0  0
  191.5210  177.5030  140.6960 C   0  0  0  0  0  1  0  0  0  0  0  0
  190.0550  177.1300  140.5830 C   0  0  0  0  0  2  0  0  0  0  0  0
  1 19  1  0  0  0  0
  2 13  1  0  0  0  0
  4 20  1  0  0  0  0
  4  1  2  0  0  0  0
  5  1  1  0  0  0  0
  6  8  2  0  0  0  0
  7 15  1  6  0  0  0
  7  9  1  0  0  0  0
  8 12  1  0  0  0  0
  8 11  1  0  0  0  0
  9 14  1  6  0  0  0
  9 22  1  0  0  0  0
 10 21  1  1  0  0  0
 10  3  1  0  0  0  0
 11 28  1  6  0  0  0
 11  5  1  0  0  0  0
 12  4  1  0  0  0  0
 13 18  2  0  0  0  0
 15 23  1  0  0  0  0
 16  2  1  0  0  0  0
 17  3  1  0  0  0  0
 17 26  1  0  0  0  0
 19 26  1  0  0  0  0
 19  2  2  0  0  0  0
 20 17  2  0  0  0  0
 22 20  1  1  0  0  0
 22 10  1  0  0  0  0
 23 14  2  0  0  0  0
 25 18  1  0  0  0  0
 26 25  2  0  0  0  0
 27 24  1  1  0  0  0
 27  7  1  0  0  0  0
 27 12  1  0  0  0  0
 28 30  1  0  0  0  0
 30 29  1  0  0  0  0
M  END
>  <MODEL>
5

>  <REMARK>
 VINA RESULT:      -8.2      0.984      1.099
  Name = 
  2 active torsions:
  status: ('A' for Active; 'I' for Inactive)
    1  A    between atoms: C_11  and  N_28
    2  A    between atoms: N_28  and  C_30
                            x       y       z     vdW  Elec       q    Type
                         _______ _______ _______ _____ _____    ______ ____

>  <TORSDO>
F 2

$$$$
=
 OpenBabel11122410213D

 30 35  0  0  1  0  0  0  0  0999 V2000
  187.2010  178.2100  140.4550 C   0  0  0  0  0  0  0  0  0  0  0  0
  184.9760  178.9990  139.6700 C   0  0  0  0  0  0  0  0  0  0  0  0
  185.9140  178.1830  144.4450 N   0  0  0  0  0  2  0  0  0  0  0  0
  188.0560  177.8420  141.5230 C   0  0  0  0  0  0  0  0  0  0  0  0
  187.7030  178.2010  139.1490 O   0  0  0  0  0  0  0  0  0  0  0  0
  191.0880  177.2260  139.6010 O   0  0  0  0  0  0  0  0  0  0  0  0
  190.5330  178.3630  143.3330 C   0  0  1  0  0  3  0  0  0  0  0  0
  189.8720  177.4210  139.8740 C   0  0  0  0  0  0  0  0  0  0  0  0
  189.3950  178.4540  144.3670 C   0  0  2  0  0  3  0  0  0  0  0  0
  187.1020  177.7480  145.1690 C   0  0  1  0  0  3  0  0  0  0  0  0
  188.8590  177.4600  138.7670 C   0  0  2  0  0  3  0  0  0  0  0  0
  189.4390  177.5120  141.2430 N   0  0  0  0  0  0  0  0  0  0  0  0
  183.6640  179.3770  139.9710 C   0  0  0  0  0  3  0  0  0  0  0  0
  190.0840  178.1200  145.6430 C   0  0  0  0  0  3  0  0  0  0  0  0
  191.8010  178.2010  144.1650 C   0  0  0  0  0  2  0  0  0  0  0  0
  185.3770  179.0190  138.3380 O   0  0  0  0  0  1  0  0  0  0  0  0
  186.2390  178.2340  143.0700 C   0  0  0  0  0  0  0  0  0  0  0  0
  183.2070  179.3750  141.2890 C   0  0  0  0  0  3  0  0  0  0  0  0
  185.8590  178.6110  140.7060 C   0  0  0  0  0  0  0  0  0  0  0  0
  187.5330  177.8670  142.8270 C   0  0  0  0  0  0  0  0  0  0  0  0
  186.8110  176.4450  145.8890 C   0  0  0  0  0  1  0  0  0  0  0  0
  188.2070  177.5220  144.1130 C   0  0  1  0  0  3  0  0  0  0  0  0
  191.3480  177.9980  145.5110 N   0  0  0  0  0  0  0  0  0  0  0  0
  190.3050  175.8250  142.8440 C   0  0  0  0  0  1  0  0  0  0  0  0
  184.0600  178.9940  142.3230 C   0  0  0  0  0  3  0  0  0  0  0  0
  185.3770  178.6150  142.0440 C   0  0  0  0  0  0  0  0  0  0  0  0
  190.4340  177.2390  142.2860 C   0  0  2  0  0  3  0  0  0  0  0  0
  189.4350  178.0420  137.5620 N   0  0  0  0  0  2  0  0  0  0  0  0
  187.8730  177.8630  135.7080 C   0  0  0  0  0  1  0  0  0  0  0  0
  188.3670  178.7270  136.8520 C   0  0  0  0  0  2  0  0  0  0  0  0
  1 19  2  0  0  0  0
  1  4  1  0  0  0  0
  2 13  2  0  0  0  0
  2 19  1  0  0  0  0
  3 10  1  0  0  0  0
  4 20  2  0  0  0  0
  5  1  1  0  0  0  0
  6  8  2  0  0  0  0
  7 15  1  1  0  0  0
  7  9  1  0  0  0  0
  8 12  1  0  0  0  0
  9 14  1  1  0  0  0
 10 21  1  6  0  0  0
 11 28  1  6  0  0  0
 11  5  1  0  0  0  0
 11  8  1  0  0  0  0
 12  4  1  0  0  0  0
 12 27  1  0  0  0  0
 13 18  1  0  0  0  0
 15 23  1  0  0  0  0
 16  2  1  0  0  0  0
 17  3  1  0  0  0  0
 18 25  2  0  0  0  0
 19 26  1  0  0  0  0
 20 17  1  0  0  0  0
 22 20  1  6  0  0  0
 22  9  1  0  0  0  0
 22 10  1  0  0  0  0
 23 14  2  0  0  0  0
 26 25  1  0  0  0  0
 26 17  2  0  0  0  0
 27 24  1  1  0  0  0
 27  7  1  0  0  0  0
 29 30  1  0  0  0  0
 30 28  1  0  0  0  0
M  END
>  <MODEL>
6

>  <REMARK>
 VINA RESULT:      -8.0      2.707      6.412
  Name = 
  2 active torsions:
  status: ('A' for Active; 'I' for Inactive)
    1  A    between atoms: C_11  and  N_28
    2  A    between atoms: N_28  and  C_30
                            x       y       z     vdW  Elec       q    Type
                         _______ _______ _______ _____ _____    ______ ____

>  <TORSDO>
F 2

$$$$
=
 OpenBabel11122410213D

 30 35  0  0  1  0  0  0  0  0999 V2000
  187.2570  178.0660  141.6960 C   0  0  0  0  0  0  0  0  0  0  0  0
  186.6730  178.1480  144.1130 C   0  0  0  0  0  0  0  0  0  0  0  0
  183.3210  178.9920  140.5920 N   0  0  0  0  0  2  0  0  0  0  0  0
  186.8560  178.1700  140.3410 C   0  0  0  0  0  0  0  0  0  0  0  0
  188.5880  177.7480  141.9870 O   0  0  0  0  0  0  0  0  0  0  0  0
  190.0370  177.3450  138.7700 O   0  0  0  0  0  0  0  0  0  0  0  0
  186.3160  176.8920  137.5550 C   0  0  1  0  0  3  0  0  0  0  0  0
  189.1950  177.6740  139.6500 C   0  0  0  0  0  0  0  0  0  0  0  0
  184.9000  177.3610  137.9380 C   0  0  2  0  0  3  0  0  0  0  0  0
  183.3800  178.9910  139.1340 C   0  0  1  0  0  3  0  0  0  0  0  0
  189.6520  177.9310  141.0560 C   0  0  2  0  0  3  0  0  0  0  0  0
  187.8190  177.8960  139.2930 N   0  0  0  0  0  0  0  0  0  0  0  0
  185.7110  178.3510  145.1070 C   0  0  0  0  0  3  0  0  0  0  0  0
  184.2380  177.5180  136.6140 C   0  0  0  0  0  3  0  0  0  0  0  0
  186.2430  176.6200  136.0560 C   0  0  0  0  0  2  0  0  0  0  0  0
  187.9710  177.8410  144.5070 O   0  0  0  0  0  1  0  0  0  0  0  0
  184.6110  178.6820  141.0780 C   0  0  0  0  0  0  0  0  0  0  0  0
  184.3940  178.6630  144.7690 C   0  0  0  0  0  3  0  0  0  0  0  0
  186.3170  178.2560  142.7460 C   0  0  0  0  0  0  0  0  0  0  0  0
  185.5130  178.4810  140.0710 C   0  0  0  0  0  0  0  0  0  0  0  0
  183.0170  180.3660  138.6090 C   0  0  0  0  0  1  0  0  0  0  0  0
  184.8380  178.6570  138.7510 C   0  0  1  0  0  3  0  0  0  0  0  0
  184.9620  177.1170  135.6430 N   0  0  0  0  0  0  0  0  0  0  0  0
  187.3550  179.2520  137.2670 C   0  0  0  0  0  1  0  0  0  0  0  0
  184.0240  178.7750  143.4300 C   0  0  0  0  0  3  0  0  0  0  0  0
  184.9700  178.5740  142.4200 C   0  0  0  0  0  0  0  0  0  0  0  0
  187.4760  177.8550  137.8680 C   0  0  2  0  0  3  0  0  0  0  0  0
  190.7610  177.0530  141.4060 N   0  0  0  0  0  2  0  0  0  0  0  0
  191.3310  176.1380  143.5850 C   0  0  0  0  0  1  0  0  0  0  0  0
  190.3050  176.1710  142.4680 C   0  0  0  0  0  2  0  0  0  0  0  0
  1  5  1  0  0  0  0
  1 19  1  0  0  0  0
  2 16  1  0  0  0  0
  2 13  1  0  0  0  0
  3 17  1  0  0  0  0
  4  1  2  0  0  0  0
  6  8  2  0  0  0  0
  7 15  1  6  0  0  0
  7 27  1  0  0  0  0
  7  9  1  0  0  0  0
  8 11  1  0  0  0  0
  9 14  1  6  0  0  0
  9 22  1  0  0  0  0
 10 21  1  1  0  0  0
 10  3  1  0  0  0  0
 11 28  1  1  0  0  0
 11  5  1  0  0  0  0
 12  8  1  0  0  0  0
 12  4  1  0  0  0  0
 17 26  1  0  0  0  0
 18 13  2  0  0  0  0
 19  2  2  0  0  0  0
 20  4  1  0  0  0  0
 20 17  2  0  0  0  0
 22 10  1  0  0  0  0
 22 20  1  1  0  0  0
 23 15  1  0  0  0  0
 23 14  2  0  0  0  0
 25 18  1  0  0  0  0
 26 19  1  0  0  0  0
 26 25  2  0  0  0  0
 27 24  1  1  0  0  0
 27 12  1  0  0  0  0
 28 30  1  0  0  0  0
 30 29  1  0  0  0  0
M  END
>  <MODEL>
7

>  <REMARK>
 VINA RESULT:      -7.8      2.009      3.171
  Name = 
  2 active torsions:
  status: ('A' for Active; 'I' for Inactive)
    1  A    between atoms: C_11  and  N_28
    2  A    between atoms: N_28  and  C_30
                            x       y       z     vdW  Elec       q    Type
                         _______ _______ _______ _____ _____    ______ ____

>  <TORSDO>
F 2

$$$$
=
 OpenBabel11122410213D

 30 35  0  0  1  0  0  0  0  0999 V2000
  185.7960  178.4660  142.9690 C   0  0  0  0  0  0  0  0  0  0  0  0
  185.3760  178.5090  140.5170 C   0  0  0  0  0  0  0  0  0  0  0  0
  189.9250  178.0570  142.3740 N   0  0  0  0  0  2  0  0  0  0  0  0
  186.7090  178.3570  144.0480 C   0  0  0  0  0  0  0  0  0  0  0  0
  184.4300  178.5940  143.2450 O   0  0  0  0  0  0  0  0  0  0  0  0
  184.3180  178.4660  146.7920 O   0  0  0  0  0  0  0  0  0  0  0  0
  187.8790  176.8090  146.4800 C   0  0  1  0  0  3  0  0  0  0  0  0
  184.8020  178.5700  145.6320 C   0  0  0  0  0  0  0  0  0  0  0  0
  189.1000  176.8370  145.5400 C   0  0  2  0  0  3  0  0  0  0  0  0
  190.4470  177.9860  143.7340 C   0  0  1  0  0  3  0  0  0  0  0  0
  183.9310  179.0400  144.5040 C   0  0  2  0  0  3  0  0  0  0  0  0
  186.2030  178.3330  145.4050 N   0  0  0  0  0  0  0  0  0  0  0  0
  185.8810  178.4630  139.2140 C   0  0  0  0  0  3  0  0  0  0  0  0
  190.2430  176.7020  146.4840 C   0  0  0  0  0  3  0  0  0  0  0  0
  188.4490  176.4380  147.8450 C   0  0  0  0  0  2  0  0  0  0  0  0
  184.0020  178.6430  140.6860 O   0  0  0  0  0  1  0  0  0  0  0  0
  188.5210  178.1920  142.4550 C   0  0  0  0  0  0  0  0  0  0  0  0
  187.2510  178.3310  138.9860 C   0  0  0  0  0  3  0  0  0  0  0  0
  186.2560  178.4180  141.6240 C   0  0  0  0  0  0  0  0  0  0  0  0
  188.0740  178.2200  143.7460 C   0  0  0  0  0  0  0  0  0  0  0  0
  191.3920  179.1470  143.9780 C   0  0  0  0  0  1  0  0  0  0  0  0
  189.2320  178.0970  144.6800 C   0  0  1  0  0  3  0  0  0  0  0  0
  189.8740  176.4860  147.6870 N   0  0  0  0  0  0  0  0  0  0  0  0
  187.8190  179.3520  146.9870 C   0  0  0  0  0  1  0  0  0  0  0  0
  188.1330  178.2410  140.0610 C   0  0  0  0  0  3  0  0  0  0  0  0
  187.6480  178.2820  141.3720 C   0  0  0  0  0  0  0  0  0  0  0  0
  187.0480  178.1010  146.5810 C   0  0  2  0  0  3  0  0  0  0  0  0
  182.5630  178.5730  144.6790 N   0  0  0  0  0  2  0  0  0  0  0  0
  180.3250  178.7760  143.7540 C   0  0  0  0  0  1  0  0  0  0  0  0
  181.8070  178.9760  143.5040 C   0  0  0  0  0  2  0  0  0  0  0  0
  1  5  1  0  0  0  0
  1  4  1  0  0  0  0
  2 16  1  0  0  0  0
  2 19  1  0  0  0  0
  3 17  1  0  0  0  0
  3 10  1  0  0  0  0
  4 12  1  0  0  0  0
  5 11  1  0  0  0  0
  7 27  1  0  0  0  0
  7 15  1  1  0  0  0
  8  6  2  0  0  0  0
  9  7  1  0  0  0  0
  9 14  1  1  0  0  0
 10 21  1  1  0  0  0
 10 22  1  0  0  0  0
 11 28  1  1  0  0  0
 11  8  1  0  0  0  0
 12  8  1  0  0  0  0
 12 27  1  0  0  0  0
 13  2  2  0  0  0  0
 14 23  2  0  0  0  0
 17 20  1  0  0  0  0
 18 13  1  0  0  0  0
 18 25  2  0  0  0  0
 19  1  2  0  0  0  0
 20  4  2  0  0  0  0
 22 20  1  6  0  0  0
 22  9  1  0  0  0  0
 23 15  1  0  0  0  0
 25 26  1  0  0  0  0
 26 19  1  0  0  0  0
 26 17  2  0  0  0  0
 27 24  1  6  0  0  0
 30 29  1  0  0  0  0
 30 28  1  0  0  0  0
M  END
>  <MODEL>
8

>  <REMARK>
 VINA RESULT:      -7.4      2.589      7.676
  Name = 
  2 active torsions:
  status: ('A' for Active; 'I' for Inactive)
    1  A    between atoms: C_11  and  N_28
    2  A    between atoms: N_28  and  C_30
                            x       y       z     vdW  Elec       q    Type
                         _______ _______ _______ _____ _____    ______ ____

>  <TORSDO>
F 2

$$$$
=
 OpenBabel11122410213D

 30 35  0  0  1  0  0  0  0  0999 V2000
  188.1700  177.9690  141.4070 C   0  0  0  0  0  0  0  0  0  0  0  0
  189.4980  177.9160  143.5110 C   0  0  0  0  0  0  0  0  0  0  0  0
  191.2590  176.1070  139.2710 N   0  0  0  0  0  2  0  0  0  0  0  0
  188.0700  177.6890  140.0220 C   0  0  0  0  0  0  0  0  0  0  0  0
  187.1000  178.5990  142.0520 O   0  0  0  0  0  0  0  0  0  0  0  0
  184.7700  179.1080  139.4210 O   0  0  0  0  0  0  0  0  0  0  0  0
  187.8880  178.6270  137.0610 C   0  0  1  0  0  3  0  0  0  0  0  0
  185.7770  178.6550  140.0320 C   0  0  0  0  0  0  0  0  0  0  0  0
  189.2330  177.8760  137.0440 C   0  0  2  0  0  3  0  0  0  0  0  0
  190.7200  176.0260  137.9190 C   0  0  1  0  0  3  0  0  0  0  0  0
  185.7730  178.6010  141.5310 C   0  0  2  0  0  3  0  0  0  0  0  0
  186.8850  178.1040  139.2980 N   0  0  0  0  0  0  0  0  0  0  0  0
  190.6780  177.5660  144.1750 C   0  0  0  0  0  3  0  0  0  0  0  0
  189.3740  177.4860  135.6140 C   0  0  0  0  0  3  0  0  0  0  0  0
  187.5090  178.7760  135.5900 C   0  0  0  0  0  2  0  0  0  0  0  0
  188.4900  178.5340  144.2430 O   0  0  0  0  0  1  0  0  0  0  0  0
  190.2900  176.7320  140.0880 C   0  0  0  0  0  0  0  0  0  0  0  0
  191.7210  176.9420  143.4900 C   0  0  0  0  0  3  0  0  0  0  0  0
  189.3510  177.6410  142.1290 C   0  0  0  0  0  0  0  0  0  0  0  0
  189.1610  177.0650  139.3930 C   0  0  0  0  0  0  0  0  0  0  0  0
  190.6150  174.5730  137.4990 C   0  0  0  0  0  1  0  0  0  0  0  0
  189.3110  176.6560  137.9660 C   0  0  1  0  0  3  0  0  0  0  0  0
  188.4590  177.9760  134.8710 N   0  0  0  0  0  0  0  0  0  0  0  0
  186.3790  176.5490  137.4320 C   0  0  0  0  0  1  0  0  0  0  0  0
  191.5960  176.6620  142.1310 C   0  0  0  0  0  3  0  0  0  0  0  0
  190.4250  177.0060  141.4470 C   0  0  0  0  0  0  0  0  0  0  0  0
  186.7360  177.9730  137.8450 C   0  0  2  0  0  3  0  0  0  0  0  0
  185.0340  179.7280  142.0860 N   0  0  0  0  0  2  0  0  0  0  0  0
  183.7110  178.6730  143.8310 C   0  0  0  0  0  1  0  0  0  0  0  0
  184.9290  179.5210  143.5210 C   0  0  0  0  0  2  0  0  0  0  0  0
  1  5  1  0  0  0  0
  1 19  1  0  0  0  0
  2 13  1  0  0  0  0
  2 16  1  0  0  0  0
  3 17  1  0  0  0  0
  4  1  2  0  0  0  0
  6  8  2  0  0  0  0
  7 15  1  6  0  0  0
  7 27  1  0  0  0  0
  8 11  1  0  0  0  0
  9 14  1  6  0  0  0
  9  7  1  0  0  0  0
  9 22  1  0  0  0  0
 10 21  1  1  0  0  0
 10 22  1  0  0  0  0
 10  3  1  0  0  0  0
 11  5  1  0  0  0  0
 11 28  1  1  0  0  0
 12  4  1  0  0  0  0
 12  8  1  0  0  0  0
 17 26  1  0  0  0  0
 18 13  2  0  0  0  0
 19  2  2  0  0  0  0
 20  4  1  0  0  0  0
 20 17  2  0  0  0  0
 22 20  1  1  0  0  0
 23 15  1  0  0  0  0
 23 14  2  0  0  0  0
 25 18  1  0  0  0  0
 26 19  1  0  0  0  0
 26 25  2  0  0  0  0
 27 24  1  1  0  0  0
 27 12  1  0  0  0  0
 28 30  1  0  0  0  0
 30 29  1  0  0  0  0
M  END
>  <MODEL>
9

>  <REMARK>
 VINA RESULT:      -7.3      2.771      6.526
  Name = 
  2 active torsions:
  status: ('A' for Active; 'I' for Inactive)
    1  A    between atoms: C_11  and  N_28
    2  A    between atoms: N_28  and  C_30
                            x       y       z     vdW  Elec       q    Type
                         _______ _______ _______ _____ _____    ______ ____

>  <TORSDO>
F 2

$$$$
