=
 OpenBabel11122410283D

 30 35  0  0  1  0  0  0  0  0999 V2000
  185.9750  178.3830  141.9300 C   0  0  0  0  0  0  0  0  0  0  0  0
  183.5000  178.8960  141.9010 C   0  0  0  0  0  0  0  0  0  0  0  0
  185.8860  177.9780  145.9800 N   0  0  0  0  0  0  0  0  0  0  0  0
  187.1420  178.0100  142.6680 C   0  0  0  0  0  0  0  0  0  0  0  0
  186.1050  178.5680  140.5530 C   0  0  0  0  0  3  0  0  0  0  0  0
  189.5050  177.7330  140.0330 O   0  0  0  0  0  0  0  0  0  0  0  0
  190.0510  177.9630  143.7580 C   0  0  1  0  0  3  0  0  0  0  0  0
  188.4160  177.9430  140.6370 C   0  0  0  0  0  0  0  0  0  0  0  0
  189.3510  177.6890  144.9900 N   0  0  0  0  0  0  0  0  0  0  0  0
  187.1800  177.7580  146.2720 C   0  0  0  0  0  0  0  0  0  0  0  0
  187.3150  178.3730  139.9010 C   0  0  0  0  0  0  0  0  0  0  0  0
  188.3220  177.7380  141.9920 N   0  0  0  0  0  0  0  0  0  0  0  0
  182.3090  179.0400  142.6170 C   0  0  0  0  0  3  0  0  0  0  0  0
  190.2400  177.3280  146.0770 C   0  0  0  0  0  2  0  0  0  0  0  0
  191.5040  177.6100  144.0200 C   0  0  0  0  0  2  0  0  0  0  0  0
  183.4410  179.0920  140.4900 N   0  0  0  0  0  1  0  0  0  0  0  0
  185.7920  178.0860  144.6620 N   0  0  0  0  0  0  0  0  0  0  0  0
  182.2790  178.8620  143.9960 C   0  0  0  0  0  3  0  0  0  0  0  0
  184.7120  178.5580  142.5790 C   0  0  0  0  0  0  0  0  0  0  0  0
  186.9970  177.9270  144.0770 C   0  0  0  0  0  0  0  0  0  0  0  0
  187.6900  177.6430  147.6670 C   0  0  0  0  0  1  0  0  0  0  0  0
  187.9230  177.7350  145.0990 C   0  0  0  0  0  0  0  0  0  0  0  0
  191.6450  177.4900  145.5300 C   0  0  0  0  0  2  0  0  0  0  0  0
  189.2410  175.6530  142.9730 C   0  0  0  0  0  1  0  0  0  0  0  0
  183.4460  178.5370  144.6770 C   0  0  0  0  0  3  0  0  0  0  0  0
  184.6550  178.3810  143.9860 C   0  0  0  0  0  0  0  0  0  0  0  0
  189.4930  177.1190  142.6240 C   0  0  2  0  0  3  0  0  0  0  0  0
  187.4390  178.5810  138.5220 O   0  0  0  0  0  0  0  0  0  0  0  0
  187.3230  176.5010  137.3370 C   0  0  0  0  0  1  0  0  0  0  0  0
  186.6830  177.8550  137.5630 C   0  0  0  0  0  2  0  0  0  0  0  0
  1 19  1  0  0  0  0
  1  4  2  0  0  0  0
  2 19  2  0  0  0  0
  2 13  1  0  0  0  0
  3 10  2  0  0  0  0
  4 20  1  0  0  0  0
  5  1  1  0  0  0  0
  6  8  2  0  0  0  0
  7 15  1  1  0  0  0
  7  9  1  0  0  0  0
  8 12  1  0  0  0  0
  9 22  1  0  0  0  0
  9 14  1  0  0  0  0
 10 21  1  0  0  0  0
 11  5  2  0  0  0  0
 11  8  1  0  0  0  0
 12 27  1  0  0  0  0
 12  4  1  0  0  0  0
 13 18  2  0  0  0  0
 15 23  1  0  0  0  0
 16  2  1  0  0  0  0
 17  3  1  0  0  0  0
 18 25  1  0  0  0  0
 19 26  1  0  0  0  0
 20 17  1  0  0  0  0
 20 22  2  0  0  0  0
 22 10  1  0  0  0  0
 23 14  1  0  0  0  0
 26 17  1  0  0  0  0
 26 25  2  0  0  0  0
 27 24  1  1  0  0  0
 27  7  1  0  0  0  0
 28 11  1  0  0  0  0
 29 30  1  0  0  0  0
 30 28  1  0  0  0  0
M  END
>  <MODEL>
1

>  <REMARK>
 VINA RESULT:     -10.3      0.000      0.000
  Name = 
  2 active torsions:
  status: ('A' for Active; 'I' for Inactive)
    1  A    between atoms: C_11  and  O_28
    2  A    between atoms: O_28  and  C_30
                            x       y       z     vdW  Elec       q    Type
                         _______ _______ _______ _____ _____    ______ ____

>  <TORSDO>
F 2

$$$$
=
 OpenBabel11122410283D

 30 35  0  0  1  0  0  0  0  0999 V2000
  187.1970  178.2300  140.8900 C   0  0  0  0  0  0  0  0  0  0  0  0
  184.8970  178.8230  140.0250 C   0  0  0  0  0  0  0  0  0  0  0  0
  185.7440  177.9520  144.6830 N   0  0  0  0  0  0  0  0  0  0  0  0
  188.0340  177.8420  141.9820 C   0  0  0  0  0  0  0  0  0  0  0  0
  187.7860  178.3690  139.6330 C   0  0  0  0  0  3  0  0  0  0  0  0
  191.1280  177.4070  140.2950 O   0  0  0  0  0  0  0  0  0  0  0  0
  190.4090  177.7330  143.9840 C   0  0  1  0  0  3  0  0  0  0  0  0
  189.9090  177.6720  140.4960 C   0  0  0  0  0  0  0  0  0  0  0  0
  189.3270  177.5190  144.9150 N   0  0  0  0  0  0  0  0  0  0  0  0
  186.8570  177.6980  145.3950 C   0  0  0  0  0  0  0  0  0  0  0  0
  189.1360  178.1150  139.4270 C   0  0  0  0  0  0  0  0  0  0  0  0
  189.3600  177.5110  141.7450 N   0  0  0  0  0  0  0  0  0  0  0  0
  183.5430  179.0280  140.2980 C   0  0  0  0  0  3  0  0  0  0  0  0
  189.7860  177.1630  146.2430 C   0  0  0  0  0  2  0  0  0  0  0  0
  191.6750  177.3400  144.7220 C   0  0  0  0  0  2  0  0  0  0  0  0
  185.3200  178.9780  138.6720 N   0  0  0  0  0  1  0  0  0  0  0  0
  186.1010  178.0230  143.4080 N   0  0  0  0  0  0  0  0  0  0  0  0
  183.0470  178.8930  141.5910 C   0  0  0  0  0  3  0  0  0  0  0  0
  185.7980  178.4670  141.0760 C   0  0  0  0  0  0  0  0  0  0  0  0
  187.4240  177.8070  143.2630 C   0  0  0  0  0  0  0  0  0  0  0  0
  186.8670  177.6090  146.8810 C   0  0  0  0  0  1  0  0  0  0  0  0
  187.9480  177.6160  144.5390 C   0  0  0  0  0  0  0  0  0  0  0  0
  191.2980  177.2620  146.1950 C   0  0  0  0  0  2  0  0  0  0  0  0
  189.8130  175.4280  143.0130 C   0  0  0  0  0  1  0  0  0  0  0  0
  183.9050  178.5510  142.6290 C   0  0  0  0  0  3  0  0  0  0  0  0
  185.2680  178.3350  142.3850 C   0  0  0  0  0  0  0  0  0  0  0  0
  190.2260  176.8740  142.7430 C   0  0  2  0  0  3  0  0  0  0  0  0
  189.7220  178.2770  138.1650 O   0  0  0  0  0  0  0  0  0  0  0  0
  189.0210  177.8700  135.9100 C   0  0  0  0  0  1  0  0  0  0  0  0
  189.0300  178.8500  137.0640 C   0  0  0  0  0  2  0  0  0  0  0  0
  1 19  1  0  0  0  0
  1  4  2  0  0  0  0
  2 13  2  0  0  0  0
  2 19  1  0  0  0  0
  3 10  2  0  0  0  0
  4 20  1  0  0  0  0
  5  1  1  0  0  0  0
  6  8  2  0  0  0  0
  7 15  1  1  0  0  0
  7  9  1  0  0  0  0
  8 12  1  0  0  0  0
  9 14  1  0  0  0  0
 10 21  1  0  0  0  0
 11  5  2  0  0  0  0
 11  8  1  0  0  0  0
 12  4  1  0  0  0  0
 12 27  1  0  0  0  0
 13 18  1  0  0  0  0
 15 23  1  0  0  0  0
 16  2  1  0  0  0  0
 17  3  1  0  0  0  0
 18 25  2  0  0  0  0
 19 26  2  0  0  0  0
 20 17  1  0  0  0  0
 20 22  2  0  0  0  0
 22  9  1  0  0  0  0
 22 10  1  0  0  0  0
 23 14  1  0  0  0  0
 26 25  1  0  0  0  0
 26 17  1  0  0  0  0
 27 24  1  1  0  0  0
 27  7  1  0  0  0  0
 28 11  1  0  0  0  0
 29 30  1  0  0  0  0
 30 28  1  0  0  0  0
M  END
>  <MODEL>
2

>  <REMARK>
 VINA RESULT:      -9.7      1.335      1.657
  Name = 
  2 active torsions:
  status: ('A' for Active; 'I' for Inactive)
    1  A    between atoms: C_11  and  O_28
    2  A    between atoms: O_28  and  C_30
                            x       y       z     vdW  Elec       q    Type
                         _______ _______ _______ _____ _____    ______ ____

>  <TORSDO>
F 2

$$$$
=
 OpenBabel11122410283D

 30 35  0  0  1  0  0  0  0  0999 V2000
  186.7180  177.9450  144.6190 C   0  0  0  0  0  0  0  0  0  0  0  0
  184.2610  178.4540  144.9160 C   0  0  0  0  0  0  0  0  0  0  0  0
  186.4270  178.6610  140.6220 N   0  0  0  0  0  0  0  0  0  0  0  0
  187.8630  177.8800  143.7650 C   0  0  0  0  0  0  0  0  0  0  0  0
  186.8890  177.6190  145.9650 C   0  0  0  0  0  3  0  0  0  0  0  0
  190.3700  176.9970  146.1180 O   0  0  0  0  0  0  0  0  0  0  0  0
  190.4320  176.8540  142.3490 C   0  0  1  0  0  3  0  0  0  0  0  0
  189.2380  177.2820  145.6360 C   0  0  0  0  0  0  0  0  0  0  0  0
  189.7910  177.4770  141.2160 N   0  0  0  0  0  0  0  0  0  0  0  0
  187.6670  178.3720  140.1900 C   0  0  0  0  0  0  0  0  0  0  0  0
  188.1300  177.2690  146.4800 C   0  0  0  0  0  0  0  0  0  0  0  0
  189.1100  177.6110  144.3090 N   0  0  0  0  0  0  0  0  0  0  0  0
  183.0520  178.8490  144.3370 C   0  0  0  0  0  3  0  0  0  0  0  0
  190.6460  177.5380  140.0460 C   0  0  0  0  0  2  0  0  0  0  0  0
  191.8740  176.6220  141.9340 C   0  0  0  0  0  2  0  0  0  0  0  0
  184.2570  178.1900  146.3170 N   0  0  0  0  0  1  0  0  0  0  0  0
  186.4200  178.4980  141.9370 N   0  0  0  0  0  0  0  0  0  0  0  0
  182.9690  179.1290  142.9770 C   0  0  0  0  0  3  0  0  0  0  0  0
  185.4370  178.3350  144.1140 C   0  0  0  0  0  0  0  0  0  0  0  0
  187.6350  178.1220  142.3850 C   0  0  0  0  0  0  0  0  0  0  0  0
  188.0490  178.3820  138.7510 C   0  0  0  0  0  1  0  0  0  0  0  0
  188.4620  178.0080  141.2700 C   0  0  0  0  0  0  0  0  0  0  0  0
  191.9110  176.7920  140.4220 C   0  0  0  0  0  2  0  0  0  0  0  0
  190.6960  179.2290  143.2990 C   0  0  0  0  0  1  0  0  0  0  0  0
  184.1000  179.0160  142.1780 C   0  0  0  0  0  3  0  0  0  0  0  0
  185.3270  178.6270  142.7300 C   0  0  0  0  0  0  0  0  0  0  0  0
  190.3670  177.7610  143.5670 C   0  0  2  0  0  3  0  0  0  0  0  0
  188.2870  176.9230  147.8280 O   0  0  0  0  0  0  0  0  0  0  0  0
  189.5140  178.6380  148.9660 C   0  0  0  0  0  1  0  0  0  0  0  0
  188.2090  177.8750  148.8790 C   0  0  0  0  0  2  0  0  0  0  0  0
  1  5  1  0  0  0  0
  2 16  1  0  0  0  0
  3 17  1  0  0  0  0
  4 12  1  0  0  0  0
  4  1  2  0  0  0  0
  5 11  2  0  0  0  0
  7 15  1  6  0  0  0
  7 27  1  0  0  0  0
  8  6  2  0  0  0  0
  8 11  1  0  0  0  0
  9 22  1  0  0  0  0
  9  7  1  0  0  0  0
 10  3  2  0  0  0  0
 10 22  1  0  0  0  0
 11 28  1  0  0  0  0
 12  8  1  0  0  0  0
 13  2  1  0  0  0  0
 14 23  1  0  0  0  0
 14  9  1  0  0  0  0
 17 20  1  0  0  0  0
 17 26  1  0  0  0  0
 18 13  2  0  0  0  0
 19  1  1  0  0  0  0
 19  2  2  0  0  0  0
 20  4  1  0  0  0  0
 21 10  1  0  0  0  0
 22 20  2  0  0  0  0
 23 15  1  0  0  0  0
 25 26  2  0  0  0  0
 25 18  1  0  0  0  0
 26 19  1  0  0  0  0
 27 24  1  6  0  0  0
 27 12  1  0  0  0  0
 28 30  1  0  0  0  0
 30 29  1  0  0  0  0
M  END
>  <MODEL>
3

>  <REMARK>
 VINA RESULT:      -9.3      2.322      5.356
  Name = 
  2 active torsions:
  status: ('A' for Active; 'I' for Inactive)
    1  A    between atoms: C_11  and  O_28
    2  A    between atoms: O_28  and  C_30
                            x       y       z     vdW  Elec       q    Type
                         _______ _______ _______ _____ _____    ______ ____

>  <TORSDO>
F 2

$$$$
=
 OpenBabel11122410283D

 30 35  0  0  1  0  0  0  0  0999 V2000
  189.2650  177.0850  143.4370 C   0  0  0  0  0  0  0  0  0  0  0  0
  191.1900  176.3990  144.9240 C   0  0  0  0  0  0  0  0  0  0  0  0
  186.9470  177.8160  146.7030 N   0  0  0  0  0  0  0  0  0  0  0  0
  187.9370  177.5980  143.3080 C   0  0  0  0  0  0  0  0  0  0  0  0
  189.9690  176.7970  142.2680 C   0  0  0  0  0  3  0  0  0  0  0  0
  187.6760  177.8230  139.7750 O   0  0  0  0  0  0  0  0  0  0  0  0
  184.9810  177.9400  142.4120 C   0  0  1  0  0  3  0  0  0  0  0  0
  188.1530  177.5870  140.9200 C   0  0  0  0  0  0  0  0  0  0  0  0
  184.8250  178.2650  143.8090 N   0  0  0  0  0  0  0  0  0  0  0  0
  185.7690  178.1500  146.1460 C   0  0  0  0  0  0  0  0  0  0  0  0
  189.4220  177.0220  141.0110 C   0  0  0  0  0  0  0  0  0  0  0  0
  187.4360  177.8970  142.0500 N   0  0  0  0  0  0  0  0  0  0  0  0
  191.6880  176.2310  146.2180 C   0  0  0  0  0  3  0  0  0  0  0  0
  183.5060  178.7760  144.1280 C   0  0  0  0  0  2  0  0  0  0  0  0
  183.7100  178.4150  141.7320 C   0  0  0  0  0  2  0  0  0  0  0  0
  192.0630  176.0830  143.8430 N   0  0  0  0  0  1  0  0  0  0  0  0
  187.8000  177.5930  145.7140 N   0  0  0  0  0  0  0  0  0  0  0  0
  190.9030  176.5190  147.3290 C   0  0  0  0  0  3  0  0  0  0  0  0
  189.8580  176.8750  144.7220 C   0  0  0  0  0  0  0  0  0  0  0  0
  187.2140  177.7870  144.5150 C   0  0  0  0  0  0  0  0  0  0  0  0
  184.5400  178.4150  146.9440 C   0  0  0  0  0  1  0  0  0  0  0  0
  185.8870  178.1270  144.7620 C   0  0  0  0  0  0  0  0  0  0  0  0
  182.7040  178.6690  142.8450 C   0  0  0  0  0  2  0  0  0  0  0  0
  186.3390  180.1150  142.2240 C   0  0  0  0  0  1  0  0  0  0  0  0
  189.6040  176.9810  147.1570 C   0  0  0  0  0  3  0  0  0  0  0  0
  189.0770  177.1630  145.8710 C   0  0  0  0  0  0  0  0  0  0  0  0
  186.1940  178.6460  141.8290 C   0  0  2  0  0  3  0  0  0  0  0  0
  190.1300  176.7100  139.8440 O   0  0  0  0  0  0  0  0  0  0  0  0
  192.0420  176.3700  138.4390 C   0  0  0  0  0  1  0  0  0  0  0  0
  191.4730  177.1200  139.6260 C   0  0  0  0  0  2  0  0  0  0  0  0
  1 19  1  0  0  0  0
  2 13  1  0  0  0  0
  4  1  2  0  0  0  0
  4 20  1  0  0  0  0
  5  1  1  0  0  0  0
  6  8  2  0  0  0  0
  7 15  1  6  0  0  0
  7  9  1  0  0  0  0
  8 11  1  0  0  0  0
  8 12  1  0  0  0  0
  9 14  1  0  0  0  0
  9 22  1  0  0  0  0
 10  3  2  0  0  0  0
 10 21  1  0  0  0  0
 11  5  2  0  0  0  0
 12  4  1  0  0  0  0
 13 18  2  0  0  0  0
 15 23  1  0  0  0  0
 16  2  1  0  0  0  0
 17 26  1  0  0  0  0
 17  3  1  0  0  0  0
 19  2  2  0  0  0  0
 19 26  1  0  0  0  0
 20 22  2  0  0  0  0
 20 17  1  0  0  0  0
 22 10  1  0  0  0  0
 23 14  1  0  0  0  0
 25 18  1  0  0  0  0
 26 25  2  0  0  0  0
 27 12  1  0  0  0  0
 27 24  1  1  0  0  0
 27  7  1  0  0  0  0
 28 11  1  0  0  0  0
 29 30  1  0  0  0  0
 30 28  1  0  0  0  0
M  END
>  <MODEL>
4

>  <REMARK>
 VINA RESULT:      -8.9      1.686      5.509
  Name = 
  2 active torsions:
  status: ('A' for Active; 'I' for Inactive)
    1  A    between atoms: C_11  and  O_28
    2  A    between atoms: O_28  and  C_30
                            x       y       z     vdW  Elec       q    Type
                         _______ _______ _______ _____ _____    ______ ____

>  <TORSDO>
F 2

$$$$
=
 OpenBabel11122410283D

 30 35  0  0  1  0  0  0  0  0999 V2000
  187.4690  177.6700  143.3400 C   0  0  0  0  0  0  0  0  0  0  0  0
  186.2460  178.0280  145.5230 C   0  0  0  0  0  0  0  0  0  0  0  0
  184.2710  179.1000  141.2660 N   0  0  0  0  0  0  0  0  0  0  0  0
  187.5040  177.8040  141.9170 C   0  0  0  0  0  0  0  0  0  0  0  0
  188.5800  177.1080  143.9700 C   0  0  0  0  0  3  0  0  0  0  0  0
  190.7700  176.5910  141.2380 O   0  0  0  0  0  0  0  0  0  0  0  0
  187.8610  177.1480  138.9010 C   0  0  1  0  0  3  0  0  0  0  0  0
  189.7320  176.9200  141.8780 C   0  0  0  0  0  0  0  0  0  0  0  0
  186.6620  177.9460  138.8110 N   0  0  0  0  0  0  0  0  0  0  0  0
  184.6660  178.9390  139.9900 C   0  0  0  0  0  0  0  0  0  0  0  0
  189.7030  176.7120  143.2540 C   0  0  0  0  0  0  0  0  0  0  0  0
  188.6620  177.4830  141.2260 N   0  0  0  0  0  0  0  0  0  0  0  0
  185.0990  178.4800  146.1810 C   0  0  0  0  0  3  0  0  0  0  0  0
  186.2880  178.2520  137.4440 C   0  0  0  0  0  2  0  0  0  0  0  0
  188.4000  177.0480  137.4850 C   0  0  0  0  0  2  0  0  0  0  0  0
  187.3000  177.5110  146.3310 N   0  0  0  0  0  1  0  0  0  0  0  0
  185.2690  178.6970  142.0390 N   0  0  0  0  0  0  0  0  0  0  0  0
  184.0260  179.0030  145.4670 C   0  0  0  0  0  3  0  0  0  0  0  0
  186.3340  178.1000  144.0980 C   0  0  0  0  0  0  0  0  0  0  0  0
  186.3200  178.2880  141.3010 C   0  0  0  0  0  0  0  0  0  0  0  0
  183.7840  179.2280  138.8250 C   0  0  0  0  0  1  0  0  0  0  0  0
  185.9500  178.4110  139.9640 C   0  0  0  0  0  0  0  0  0  0  0  0
  187.2690  177.4940  136.5700 C   0  0  0  0  0  2  0  0  0  0  0  0
  189.0560  179.3150  139.6000 C   0  0  0  0  0  1  0  0  0  0  0  0
  184.0890  179.0790  144.0810 C   0  0  0  0  0  3  0  0  0  0  0  0
  185.2270  178.6390  143.3940 C   0  0  0  0  0  0  0  0  0  0  0  0
  188.8800  177.8120  139.8130 C   0  0  2  0  0  3  0  0  0  0  0  0
  190.8040  176.1300  143.8940 O   0  0  0  0  0  0  0  0  0  0  0  0
  191.5330  176.3780  146.1630 C   0  0  0  0  0  1  0  0  0  0  0  0
  191.6810  176.8650  144.7370 C   0  0  0  0  0  2  0  0  0  0  0  0
  1  5  1  0  0  0  0
  1 19  1  0  0  0  0
  2 13  1  0  0  0  0
  2 16  1  0  0  0  0
  3 17  1  0  0  0  0
  4  1  2  0  0  0  0
  6  8  2  0  0  0  0
  7 15  1  6  0  0  0
  7 27  1  0  0  0  0
  8 11  1  0  0  0  0
  9  7  1  0  0  0  0
  9 22  1  0  0  0  0
 10  3  2  0  0  0  0
 11 28  1  0  0  0  0
 11  5  2  0  0  0  0
 12  8  1  0  0  0  0
 12  4  1  0  0  0  0
 14  9  1  0  0  0  0
 17 26  1  0  0  0  0
 18 13  2  0  0  0  0
 19  2  2  0  0  0  0
 20  4  1  0  0  0  0
 20 17  1  0  0  0  0
 21 10  1  0  0  0  0
 22 10  1  0  0  0  0
 22 20  2  0  0  0  0
 23 14  1  0  0  0  0
 23 15  1  0  0  0  0
 25 18  1  0  0  0  0
 26 25  2  0  0  0  0
 26 19  1  0  0  0  0
 27 24  1  1  0  0  0
 27 12  1  0  0  0  0
 28 30  1  0  0  0  0
 30 29  1  0  0  0  0
M  END
>  <MODEL>
5

>  <REMARK>
 VINA RESULT:      -8.6      1.697      5.617
  Name = 
  2 active torsions:
  status: ('A' for Active; 'I' for Inactive)
    1  A    between atoms: C_11  and  O_28
    2  A    between atoms: O_28  and  C_30
                            x       y       z     vdW  Elec       q    Type
                         _______ _______ _______ _____ _____    ______ ____

>  <TORSDO>
F 2

$$$$
=
 OpenBabel11122410283D

 30 35  0  0  1  0  0  0  0  0999 V2000
  187.6930  177.6470  144.8430 C   0  0  0  0  0  0  0  0  0  0  0  0
  185.5600  178.2200  146.0710 C   0  0  0  0  0  0  0  0  0  0  0  0
  185.9800  178.6820  141.2980 N   0  0  0  0  0  0  0  0  0  0  0  0
  188.4310  177.6070  143.6190 C   0  0  0  0  0  0  0  0  0  0  0  0
  188.3320  177.2110  146.0040 C   0  0  0  0  0  3  0  0  0  0  0  0
  191.5730  176.4510  144.8010 O   0  0  0  0  0  0  0  0  0  0  0  0
  190.2180  176.6010  141.2830 C   0  0  1  0  0  3  0  0  0  0  0  0
  190.3630  176.8140  144.7970 C   0  0  0  0  0  0  0  0  0  0  0  0
  189.2420  177.3330  140.5130 N   0  0  0  0  0  0  0  0  0  0  0  0
  186.9500  178.3830  140.4160 C   0  0  0  0  0  0  0  0  0  0  0  0
  189.6510  176.7760  145.9930 C   0  0  0  0  0  0  0  0  0  0  0  0
  189.7710  177.2500  143.6370 N   0  0  0  0  0  0  0  0  0  0  0  0
  184.2500  178.7030  146.0140 C   0  0  0  0  0  3  0  0  0  0  0  0
  189.6010  177.4540  139.1140 C   0  0  0  0  0  2  0  0  0  0  0  0
  191.3830  176.3490  140.3440 C   0  0  0  0  0  2  0  0  0  0  0  0
  186.0620  177.8480  147.3530 N   0  0  0  0  0  1  0  0  0  0  0  0
  186.4530  178.4180  142.5070 N   0  0  0  0  0  0  0  0  0  0  0  0
  183.6850  179.0910  144.8040 C   0  0  0  0  0  3  0  0  0  0  0  0
  186.3440  178.1210  144.8800 C   0  0  0  0  0  0  0  0  0  0  0  0
  187.7210  177.9630  142.4430 C   0  0  0  0  0  0  0  0  0  0  0  0
  186.7680  178.4910  138.9410 C   0  0  0  0  0  1  0  0  0  0  0  0
  188.0640  177.9070  141.0950 C   0  0  0  0  0  0  0  0  0  0  0  0
  190.8650  176.6350  138.9420 C   0  0  0  0  0  2  0  0  0  0  0  0
  190.9650  178.8830  142.2020 C   0  0  0  0  0  1  0  0  0  0  0  0
  184.4270  179.0000  143.6330 C   0  0  0  0  0  3  0  0  0  0  0  0
  185.7450  178.5240  143.6590 C   0  0  0  0  0  0  0  0  0  0  0  0
  190.6680  177.4120  142.4880 C   0  0  2  0  0  3  0  0  0  0  0  0
  190.2760  176.3200  147.1610 O   0  0  0  0  0  0  0  0  0  0  0  0
  192.4730  175.8370  147.9850 C   0  0  0  0  0  1  0  0  0  0  0  0
  191.4550  176.9160  147.6840 C   0  0  0  0  0  2  0  0  0  0  0  0
  1 19  1  0  0  0  0
  1  5  1  0  0  0  0
  2 16  1  0  0  0  0
  3 17  1  0  0  0  0
  4 12  1  0  0  0  0
  4  1  2  0  0  0  0
  7 15  1  6  0  0  0
  7 27  1  0  0  0  0
  8  6  2  0  0  0  0
  8 11  1  0  0  0  0
  9 22  1  0  0  0  0
  9  7  1  0  0  0  0
 10 22  1  0  0  0  0
 10  3  2  0  0  0  0
 11  5  2  0  0  0  0
 11 28  1  0  0  0  0
 12  8  1  0  0  0  0
 13  2  1  0  0  0  0
 14  9  1  0  0  0  0
 17 26  1  0  0  0  0
 18 13  2  0  0  0  0
 19  2  2  0  0  0  0
 20 17  1  0  0  0  0
 20  4  1  0  0  0  0
 21 10  1  0  0  0  0
 22 20  2  0  0  0  0
 23 14  1  0  0  0  0
 23 15  1  0  0  0  0
 25 26  2  0  0  0  0
 25 18  1  0  0  0  0
 26 19  1  0  0  0  0
 27 24  1  6  0  0  0
 27 12  1  0  0  0  0
 28 30  1  0  0  0  0
 30 29  1  0  0  0  0
M  END
>  <MODEL>
6

>  <REMARK>
 VINA RESULT:      -8.2      2.335      5.555
  Name = 
  2 active torsions:
  status: ('A' for Active; 'I' for Inactive)
    1  A    between atoms: C_11  and  O_28
    2  A    between atoms: O_28  and  C_30
                            x       y       z     vdW  Elec       q    Type
                         _______ _______ _______ _____ _____    ______ ____

>  <TORSDO>
F 2

$$$$
=
 OpenBabel11122410283D

 30 35  0  0  1  0  0  0  0  0999 V2000
  185.8670  178.4050  142.3170 C   0  0  0  0  0  0  0  0  0  0  0  0
  186.5750  178.3450  144.7420 C   0  0  0  0  0  0  0  0  0  0  0  0
  181.9650  178.7560  143.4220 N   0  0  0  0  0  0  0  0  0  0  0  0
  184.8280  178.5500  141.3450 C   0  0  0  0  0  0  0  0  0  0  0  0
  187.1710  178.2210  141.8550 C   0  0  0  0  0  3  0  0  0  0  0  0
  186.7300  178.4410  138.3500 O   0  0  0  0  0  0  0  0  0  0  0  0
  183.0130  178.0580  138.8710 C   0  0  1  0  0  3  0  0  0  0  0  0
  186.4450  178.4190  139.5800 C   0  0  0  0  0  0  0  0  0  0  0  0
  181.9930  178.4350  139.8200 N   0  0  0  0  0  0  0  0  0  0  0  0
  181.3310  178.7360  142.2360 C   0  0  0  0  0  0  0  0  0  0  0  0
  187.4700  178.2060  140.4990 C   0  0  0  0  0  0  0  0  0  0  0  0
  185.1520  178.6180  139.9990 N   0  0  0  0  0  0  0  0  0  0  0  0
  186.2060  178.4050  146.0880 C   0  0  0  0  0  3  0  0  0  0  0  0
  180.6910  178.6130  139.2090 C   0  0  0  0  0  2  0  0  0  0  0  0
  182.3590  178.1410  137.5040 C   0  0  0  0  0  2  0  0  0  0  0  0
  187.9620  178.1840  144.4530 N   0  0  0  0  0  1  0  0  0  0  0  0
  183.2650  178.6870  143.1740 N   0  0  0  0  0  0  0  0  0  0  0  0
  184.8750  178.5640  146.4580 C   0  0  0  0  0  3  0  0  0  0  0  0
  185.5840  178.4480  143.7190 C   0  0  0  0  0  0  0  0  0  0  0  0
  183.5030  178.6360  141.8480 C   0  0  0  0  0  0  0  0  0  0  0  0
  179.8470  178.7360  142.1080 C   0  0  0  0  0  1  0  0  0  0  0  0
  182.2650  178.6430  141.2120 C   0  0  0  0  0  0  0  0  0  0  0  0
  180.8600  178.2100  137.7570 C   0  0  0  0  0  2  0  0  0  0  0  0
  183.8360  180.4880  139.0390 C   0  0  0  0  0  1  0  0  0  0  0  0
  183.8930  178.6640  145.4790 C   0  0  0  0  0  3  0  0  0  0  0  0
  184.2330  178.6110  144.1210 C   0  0  0  0  0  0  0  0  0  0  0  0
  184.1980  179.0060  138.9540 C   0  0  2  0  0  3  0  0  0  0  0  0
  188.7790  178.0000  140.0460 O   0  0  0  0  0  0  0  0  0  0  0  0
  190.9750  177.0430  139.9680 C   0  0  0  0  0  1  0  0  0  0  0  0
  189.7750  177.3640  140.8350 C   0  0  0  0  0  2  0  0  0  0  0  0
  1 19  1  0  0  0  0
  2 13  1  0  0  0  0
  4 20  1  0  0  0  0
  4  1  2  0  0  0  0
  5  1  1  0  0  0  0
  6  8  2  0  0  0  0
  7 15  1  6  0  0  0
  7 27  1  0  0  0  0
  7  9  1  0  0  0  0
  8 12  1  0  0  0  0
  8 11  1  0  0  0  0
  9 22  1  0  0  0  0
 10  3  2  0  0  0  0
 11  5  2  0  0  0  0
 12  4  1  0  0  0  0
 13 18  2  0  0  0  0
 14  9  1  0  0  0  0
 15 23  1  0  0  0  0
 16  2  1  0  0  0  0
 17  3  1  0  0  0  0
 17 26  1  0  0  0  0
 19 26  1  0  0  0  0
 19  2  2  0  0  0  0
 20 17  1  0  0  0  0
 21 10  1  0  0  0  0
 22 20  2  0  0  0  0
 22 10  1  0  0  0  0
 23 14  1  0  0  0  0
 25 18  1  0  0  0  0
 26 25  2  0  0  0  0
 27 24  1  1  0  0  0
 27 12  1  0  0  0  0
 28 11  1  0  0  0  0
 28 30  1  0  0  0  0
 29 30  1  0  0  0  0
M  END
>  <MODEL>
7

>  <REMARK>
 VINA RESULT:      -8.2      2.209      6.164
  Name = 
  2 active torsions:
  status: ('A' for Active; 'I' for Inactive)
    1  A    between atoms: C_11  and  O_28
    2  A    between atoms: O_28  and  C_30
                            x       y       z     vdW  Elec       q    Type
                         _______ _______ _______ _____ _____    ______ ____

>  <TORSDO>
F 2

$$$$
=
 OpenBabel11122410283D

 30 35  0  0  1  0  0  0  0  0999 V2000
  188.3600  177.5430  144.4680 C   0  0  0  0  0  0  0  0  0  0  0  0
  189.4730  177.4050  146.7330 C   0  0  0  0  0  0  0  0  0  0  0  0
  184.8650  178.6950  146.2080 N   0  0  0  0  0  0  0  0  0  0  0  0
  187.2090  177.8690  143.6840 C   0  0  0  0  0  0  0  0  0  0  0  0
  189.4980  177.0910  143.7990 C   0  0  0  0  0  3  0  0  0  0  0  0
  188.4770  177.3050  140.4160 O   0  0  0  0  0  0  0  0  0  0  0  0
  184.9140  177.6860  141.5970 C   0  0  1  0  0  3  0  0  0  0  0  0
  188.4230  177.3720  141.6770 C   0  0  0  0  0  0  0  0  0  0  0  0
  184.1750  178.2830  142.6830 N   0  0  0  0  0  0  0  0  0  0  0  0
  184.0340  178.7720  145.1540 C   0  0  0  0  0  0  0  0  0  0  0  0
  189.5370  176.9820  142.4150 C   0  0  0  0  0  0  0  0  0  0  0  0
  187.2900  177.8350  142.3000 N   0  0  0  0  0  0  0  0  0  0  0  0
  189.3740  177.5730  148.1160 C   0  0  0  0  0  3  0  0  0  0  0  0
  182.8420  178.7020  142.2970 C   0  0  0  0  0  2  0  0  0  0  0  0
  184.0510  177.8630  140.3610 C   0  0  0  0  0  2  0  0  0  0  0  0
  190.7270  176.9630  146.2180 N   0  0  0  0  0  1  0  0  0  0  0  0
  186.0600  178.3620  145.7440 N   0  0  0  0  0  0  0  0  0  0  0  0
  188.1870  178.0040  148.7000 C   0  0  0  0  0  3  0  0  0  0  0  0
  188.3500  177.6790  145.8920 C   0  0  0  0  0  0  0  0  0  0  0  0
  186.0390  178.2300  144.4020 C   0  0  0  0  0  0  0  0  0  0  0  0
  182.5800  179.0650  145.2850 C   0  0  0  0  0  1  0  0  0  0  0  0
  184.7310  178.4680  143.9910 C   0  0  0  0  0  0  0  0  0  0  0  0
  182.6640  178.2360  140.8650 C   0  0  0  0  0  2  0  0  0  0  0  0
  186.2050  179.9050  141.4700 C   0  0  0  0  0  1  0  0  0  0  0  0
  187.0820  178.2730  147.9020 C   0  0  0  0  0  3  0  0  0  0  0  0
  187.1520  178.1180  146.5110 C   0  0  0  0  0  0  0  0  0  0  0  0
  186.2540  178.3800  141.4150 C   0  0  2  0  0  3  0  0  0  0  0  0
  190.6770  176.5070  141.7550 O   0  0  0  0  0  0  0  0  0  0  0  0
  192.1820  177.4570  140.1500 C   0  0  0  0  0  1  0  0  0  0  0  0
  191.8640  177.2770  141.6200 C   0  0  0  0  0  2  0  0  0  0  0  0
  1 19  1  0  0  0  0
  2 13  1  0  0  0  0
  4 20  1  0  0  0  0
  4  1  2  0  0  0  0
  5  1  1  0  0  0  0
  6  8  2  0  0  0  0
  7 15  1  6  0  0  0
  7  9  1  0  0  0  0
  8 12  1  0  0  0  0
  8 11  1  0  0  0  0
  9 22  1  0  0  0  0
 10 21  1  0  0  0  0
 10  3  2  0  0  0  0
 11  5  2  0  0  0  0
 12  4  1  0  0  0  0
 13 18  2  0  0  0  0
 14  9  1  0  0  0  0
 15 23  1  0  0  0  0
 16  2  1  0  0  0  0
 17  3  1  0  0  0  0
 17 26  1  0  0  0  0
 19 26  1  0  0  0  0
 19  2  2  0  0  0  0
 20 17  1  0  0  0  0
 22 20  2  0  0  0  0
 22 10  1  0  0  0  0
 23 14  1  0  0  0  0
 25 18  1  0  0  0  0
 26 25  2  0  0  0  0
 27 24  1  1  0  0  0
 27  7  1  0  0  0  0
 27 12  1  0  0  0  0
 28 11  1  0  0  0  0
 29 30  1  0  0  0  0
 30 28  1  0  0  0  0
M  END
>  <MODEL>
8

>  <REMARK>
 VINA RESULT:      -8.0      1.682      5.541
  Name = 
  2 active torsions:
  status: ('A' for Active; 'I' for Inactive)
    1  A    between atoms: C_11  and  O_28
    2  A    between atoms: O_28  and  C_30
                            x       y       z     vdW  Elec       q    Type
                         _______ _______ _______ _____ _____    ______ ____

>  <TORSDO>
F 2

$$$$
=
 OpenBabel11122410283D

 30 35  0  0  1  0  0  0  0  0999 V2000
  186.2030  178.1570  143.0590 C   0  0  0  0  0  0  0  0  0  0  0  0
  183.8100  178.6340  142.3980 C   0  0  0  0  0  0  0  0  0  0  0  0
  187.3960  178.5550  139.1870 N   0  0  0  0  0  0  0  0  0  0  0  0
  187.5800  178.0510  142.6890 C   0  0  0  0  0  0  0  0  0  0  0  0
  185.8680  177.9390  144.3960 C   0  0  0  0  0  3  0  0  0  0  0  0
  189.0470  177.4050  145.8570 O   0  0  0  0  0  0  0  0  0  0  0  0
  190.4800  176.9740  142.3930 C   0  0  1  0  0  3  0  0  0  0  0  0
  188.1720  177.6280  144.9740 C   0  0  0  0  0  0  0  0  0  0  0  0
  190.3020  177.4940  141.0590 N   0  0  0  0  0  0  0  0  0  0  0  0
  188.7060  178.2610  139.2620 C   0  0  0  0  0  0  0  0  0  0  0  0
  186.8320  177.6560  145.3540 C   0  0  0  0  0  0  0  0  0  0  0  0
  188.5400  177.8510  143.6690 N   0  0  0  0  0  0  0  0  0  0  0  0
  182.9000  178.9560  141.3890 C   0  0  0  0  0  3  0  0  0  0  0  0
  191.5250  177.4830  140.2800 C   0  0  0  0  0  2  0  0  0  0  0  0
  191.9720  176.7420  142.5520 C   0  0  0  0  0  2  0  0  0  0  0  0
  183.2940  178.4790  143.7180 N   0  0  0  0  0  1  0  0  0  0  0  0
  186.9080  178.4950  140.4180 N   0  0  0  0  0  0  0  0  0  0  0  0
  183.3210  179.1290  140.0750 C   0  0  0  0  0  3  0  0  0  0  0  0
  185.1980  178.4780  142.0920 C   0  0  0  0  0  0  0  0  0  0  0  0
  187.8730  178.1800  141.3060 C   0  0  0  0  0  0  0  0  0  0  0  0
  189.5880  178.1680  138.0650 C   0  0  0  0  0  1  0  0  0  0  0  0
  189.0480  177.9990  140.5820 C   0  0  0  0  0  0  0  0  0  0  0  0
  192.5590  176.7950  141.1500 C   0  0  0  0  0  2  0  0  0  0  0  0
  190.3980  179.4200  143.1810 C   0  0  0  0  0  1  0  0  0  0  0  0
  184.6650  178.9790  139.7540 C   0  0  0  0  0  3  0  0  0  0  0  0
  185.6030  178.6600  140.7450 C   0  0  0  0  0  0  0  0  0  0  0  0
  189.9820  177.9700  143.4280 C   0  0  2  0  0  3  0  0  0  0  0  0
  186.4830  177.4190  146.6890 O   0  0  0  0  0  0  0  0  0  0  0  0
  186.0240  179.6780  147.3420 C   0  0  0  0  0  1  0  0  0  0  0  0
  185.5650  178.2370  147.4000 C   0  0  0  0  0  2  0  0  0  0  0  0
  1  5  1  0  0  0  0
  2 16  1  0  0  0  0
  3 10  2  0  0  0  0
  3 17  1  0  0  0  0
  4  1  2  0  0  0  0
  4 12  1  0  0  0  0
  5 11  2  0  0  0  0
  7 15  1  1  0  0  0
  7 27  1  0  0  0  0
  8 11  1  0  0  0  0
  8  6  2  0  0  0  0
  9  7  1  0  0  0  0
 10 22  1  0  0  0  0
 11 28  1  0  0  0  0
 12  8  1  0  0  0  0
 13  2  2  0  0  0  0
 14  9  1  0  0  0  0
 14 23  1  0  0  0  0
 17 26  1  0  0  0  0
 17 20  1  0  0  0  0
 18 13  1  0  0  0  0
 19  2  1  0  0  0  0
 19  1  1  0  0  0  0
 20  4  1  0  0  0  0
 21 10  1  0  0  0  0
 22  9  1  0  0  0  0
 22 20  2  0  0  0  0
 23 15  1  0  0  0  0
 25 18  2  0  0  0  0
 25 26  1  0  0  0  0
 26 19  2  0  0  0  0
 27 24  1  6  0  0  0
 27 12  1  0  0  0  0
 28 30  1  0  0  0  0
 29 30  1  0  0  0  0
M  END
>  <MODEL>
9

>  <REMARK>
 VINA RESULT:      -7.9      2.515      5.137
  Name = 
  2 active torsions:
  status: ('A' for Active; 'I' for Inactive)
    1  A    between atoms: C_11  and  O_28
    2  A    between atoms: O_28  and  C_30
                            x       y       z     vdW  Elec       q    Type
                         _______ _______ _______ _____ _____    ______ ____

>  <TORSDO>
F 2

$$$$
