=
 OpenBabel11122410423D

 32 37  0  0  1  0  0  0  0  0999 V2000
  181.5740  178.0680  138.2420 C   0  0  0  0  0  2  0  0  0  0  0  0
  184.9240  178.9130  142.1460 C   0  0  1  0  0  3  0  0  0  0  0  0
  188.7880  177.3190  139.3780 C   0  0  0  0  0  2  0  0  0  0  0  0
  189.6000  177.6200  140.4820 O   0  0  0  0  0  0  0  0  0  0  0  0
  185.2700  178.7960  144.6280 C   0  0  0  0  0  0  0  0  0  0  0  0
  186.0650  178.4440  145.7050 C   0  0  0  0  0  0  0  0  0  0  0  0
  182.9420  178.2460  140.7720 C   0  0  1  0  0  3  0  0  0  0  0  0
  184.9280  179.4380  139.7290 C   0  0  0  0  0  2  0  0  0  0  0  0
  187.8650  177.6560  146.7500 C   0  0  0  0  0  0  0  0  0  0  0  0
  182.8930  178.8590  138.3020 C   0  0  2  0  0  3  0  0  0  0  0  0
  187.5800  178.2540  139.3680 C   0  0  0  0  0  2  0  0  0  0  0  0
  185.6870  179.0200  140.9010 N   0  0  0  0  0  0  0  0  0  0  0  0
  186.9520  178.3540  140.7410 C   0  0  0  0  0  0  0  0  0  0  0  0
  187.0650  178.0570  143.1490 N   0  0  0  0  0  0  0  0  0  0  0  0
  186.9700  178.0290  147.6970 N   0  0  0  0  0  0  0  0  0  0  0  0
  181.5990  176.8160  139.1160 C   0  0  0  0  0  2  0  0  0  0  0  0
  183.7810  178.4510  139.4940 C   0  0  2  0  0  3  0  0  0  0  0  0
  185.8650  178.5120  147.0680 C   0  0  0  0  0  3  0  0  0  0  0  0
  181.8530  177.1810  140.5830 C   0  0  0  0  0  2  0  0  0  0  0  0
  188.9120  177.1450  141.6130 C   0  0  0  0  0  2  0  0  0  0  0  0
  187.6120  177.8970  141.8220 C   0  0  0  0  0  0  0  0  0  0  0  0
  187.8480  177.7060  144.2200 C   0  0  0  0  0  3  0  0  0  0  0  0
  183.8240  177.8690  141.9630 C   0  0  0  0  0  2  0  0  0  0  0  0
  184.0020  179.3320  144.8270 O   0  0  0  0  0  1  0  0  0  0  0  0
  189.2020  177.0780  147.0570 C   0  0  0  0  0  1  0  0  0  0  0  0
  185.7930  178.5850  143.3290 C   0  0  0  0  0  0  0  0  0  0  0  0
  187.3560  177.8910  145.5000 C   0  0  0  0  0  0  0  0  0  0  0  0
  182.6000  180.2260  138.3390 O   0  0  0  0  0  0  0  0  0  0  0  0
  181.2280  180.3070  138.0900 C   0  0  0  0  0  2  0  0  0  0  0  0
  180.7040  181.5950  138.6180 C   0  0  0  0  0  0  0  0  0  0  0  0
  180.9830  182.7820  137.9540 O   0  0  0  0  0  0  0  0  0  0  0  0
  180.0390  181.6140  139.6870 O   0  0  0  0  0  1  0  0  0  0  0  0
  1 10  1  0  0  0  0
  1 16  1  0  0  0  0
  2 23  1  6  0  0  0
  2 26  1  0  0  0  0
  3  4  1  0  0  0  0
  4 20  1  0  0  0  0
  5 24  1  0  0  0  0
  5  6  1  0  0  0  0
  6 18  2  0  0  0  0
  7 19  1  6  0  0  0
  7 23  1  0  0  0  0
  8 12  1  0  0  0  0
  9 25  1  0  0  0  0
  9 15  2  0  0  0  0
 10 28  1  1  0  0  0
 10 17  1  0  0  0  0
 11  3  1  0  0  0  0
 11 13  1  0  0  0  0
 12  2  1  0  0  0  0
 13 12  1  0  0  0  0
 13 21  2  0  0  0  0
 14 26  1  0  0  0  0
 14 22  1  0  0  0  0
 16 19  1  0  0  0  0
 17  8  1  1  0  0  0
 17  7  1  0  0  0  0
 18 15  1  0  0  0  0
 20 21  1  0  0  0  0
 21 14  1  0  0  0  0
 22 27  2  0  0  0  0
 26  5  2  0  0  0  0
 27  6  1  0  0  0  0
 27  9  1  0  0  0  0
 29 28  1  0  0  0  0
 29 30  1  0  0  0  0
 30 32  1  0  0  0  0
 31 30  2  0  0  0  0
M  END
>  <MODEL>
1

>  <REMARK>
 VINA RESULT:      -8.5      0.000      0.000
  Name = 
  3 active torsions:
  status: ('A' for Active; 'I' for Inactive)
    1  A    between atoms: C_10  and  O_20
    2  A    between atoms: O_20  and  C_29
    3  A    between atoms: C_29  and  C_30
                            x       y       z     vdW  Elec       q    Type
                         _______ _______ _______ _____ _____    ______ ____

>  <TORSDO>
F 3

$$$$
=
 OpenBabel11122410423D

 32 37  0  0  1  0  0  0  0  0999 V2000
  192.9030  174.6400  136.8200 C   0  0  0  0  0  2  0  0  0  0  0  0
  189.5150  177.5970  139.4570 C   0  0  1  0  0  3  0  0  0  0  0  0
  191.5670  176.3040  143.8450 C   0  0  0  0  0  2  0  0  0  0  0  0
  190.6300  177.1600  144.4440 O   0  0  0  0  0  0  0  0  0  0  0  0
  187.1400  178.3980  139.5840 C   0  0  0  0  0  0  0  0  0  0  0  0
  186.0070  178.6490  140.3380 C   0  0  0  0  0  0  0  0  0  0  0  0
  190.5830  176.0030  137.8510 C   0  0  1  0  0  3  0  0  0  0  0  0
  191.9660  177.2820  139.5550 C   0  0  0  0  0  2  0  0  0  0  0  0
  184.7520  178.7710  142.1730 C   0  0  0  0  0  0  0  0  0  0  0  0
  193.1130  175.7350  137.8810 C   0  0  2  0  0  3  0  0  0  0  0  0
  191.8970  176.8170  142.4430 C   0  0  0  0  0  2  0  0  0  0  0  0
  190.7190  177.4950  140.2810 N   0  0  0  0  0  0  0  0  0  0  0  0
  190.6410  177.1850  141.6840 C   0  0  0  0  0  0  0  0  0  0  0  0
  188.2760  177.7350  141.6410 N   0  0  0  0  0  0  0  0  0  0  0  0
  183.9900  179.1740  141.1260 N   0  0  0  0  0  0  0  0  0  0  0  0
  191.6550  173.8000  137.0830 C   0  0  0  0  0  2  0  0  0  0  0  0
  191.8520  175.9990  138.7260 C   0  0  2  0  0  3  0  0  0  0  0  0
  184.7480  179.1020  139.9990 C   0  0  0  0  0  3  0  0  0  0  0  0
  190.3990  174.6800  137.0940 C   0  0  0  0  0  2  0  0  0  0  0  0
  189.4050  176.9120  143.7970 C   0  0  0  0  0  2  0  0  0  0  0  0
  189.4680  177.3060  142.3340 C   0  0  0  0  0  0  0  0  0  0  0  0
  187.1480  177.9820  142.3830 C   0  0  0  0  0  3  0  0  0  0  0  0
  189.3330  176.2920  138.6840 C   0  0  0  0  0  2  0  0  0  0  0  0
  187.1380  178.6020  138.2080 O   0  0  0  0  0  1  0  0  0  0  0  0
  184.2650  178.7130  143.5780 C   0  0  0  0  0  1  0  0  0  0  0  0
  188.2890  177.9250  140.2650 C   0  0  0  0  0  0  0  0  0  0  0  0
  186.0090  178.4350  141.7410 C   0  0  0  0  0  0  0  0  0  0  0  0
  193.5450  176.9040  137.2450 O   0  0  0  0  0  0  0  0  0  0  0  0
  193.9450  176.4940  135.9720 C   0  0  0  0  0  2  0  0  0  0  0  0
  195.3010  177.0310  135.6810 C   0  0  0  0  0  0  0  0  0  0  0  0
  196.4140  176.2100  135.8110 O   0  0  0  0  0  1  0  0  0  0  0  0
  195.4460  178.2380  135.3560 O   0  0  0  0  0  0  0  0  0  0  0  0
  1 16  1  0  0  0  0
  1 10  1  0  0  0  0
  2 23  1  1  0  0  0
  2 26  1  0  0  0  0
  2 12  1  0  0  0  0
  3  4  1  0  0  0  0
  5 26  2  0  0  0  0
  5  6  1  0  0  0  0
  6 27  1  0  0  0  0
  7 19  1  1  0  0  0
  7 23  1  0  0  0  0
  7 17  1  0  0  0  0
  8 12  1  0  0  0  0
  9 25  1  0  0  0  0
 10 28  1  6  0  0  0
 10 17  1  0  0  0  0
 11  3  1  0  0  0  0
 12 13  1  0  0  0  0
 13 21  2  0  0  0  0
 13 11  1  0  0  0  0
 14 21  1  0  0  0  0
 14 22  1  0  0  0  0
 15  9  2  0  0  0  0
 16 19  1  0  0  0  0
 17  8  1  6  0  0  0
 18  6  2  0  0  0  0
 18 15  1  0  0  0  0
 20  4  1  0  0  0  0
 21 20  1  0  0  0  0
 24  5  1  0  0  0  0
 26 14  1  0  0  0  0
 27  9  1  0  0  0  0
 27 22  2  0  0  0  0
 29 28  1  0  0  0  0
 30 31  1  0  0  0  0
 30 29  1  0  0  0  0
 32 30  2  0  0  0  0
M  END
>  <MODEL>
2

>  <REMARK>
 VINA RESULT:      -8.3      3.847      8.477
  Name = 
  3 active torsions:
  status: ('A' for Active; 'I' for Inactive)
    1  A    between atoms: C_10  and  O_20
    2  A    between atoms: O_20  and  C_29
    3  A    between atoms: C_29  and  C_30
                            x       y       z     vdW  Elec       q    Type
                         _______ _______ _______ _____ _____    ______ ____

>  <TORSDO>
F 3

$$$$
=
 OpenBabel11122410423D

 32 37  0  0  1  0  0  0  0  0999 V2000
  179.4380  181.2070  138.5820 C   0  0  0  0  0  2  0  0  0  0  0  0
  183.8320  178.6480  139.7330 C   0  0  1  0  0  3  0  0  0  0  0  0
  183.0580  179.2210  144.6530 C   0  0  0  0  0  2  0  0  0  0  0  0
  184.2380  178.4860  144.8430 O   0  0  0  0  0  0  0  0  0  0  0  0
  186.2180  178.2450  139.0680 C   0  0  0  0  0  0  0  0  0  0  0  0
  187.5490  178.1240  139.4250 C   0  0  0  0  0  0  0  0  0  0  0  0
  182.1230  180.1680  138.7190 C   0  0  1  0  0  3  0  0  0  0  0  0
  181.5070  178.5430  140.5710 C   0  0  0  0  0  2  0  0  0  0  0  0
  189.3060  178.0640  140.7890 C   0  0  0  0  0  0  0  0  0  0  0  0
  179.7090  180.0090  139.5100 C   0  0  2  0  0  3  0  0  0  0  0  0
  182.3880  178.7760  143.3520 C   0  0  0  0  0  2  0  0  0  0  0  0
  182.9330  178.4810  140.8750 N   0  0  0  0  0  0  0  0  0  0  0  0
  183.3920  178.6840  142.2230 C   0  0  0  0  0  0  0  0  0  0  0  0
  185.6830  178.5400  141.4310 N   0  0  0  0  0  0  0  0  0  0  0  0
  189.7610  177.8790  139.5250 N   0  0  0  0  0  0  0  0  0  0  0  0
  180.5820  182.2170  138.5780 C   0  0  0  0  0  2  0  0  0  0  0  0
  181.1910  179.8900  139.9160 C   0  0  2  0  0  3  0  0  0  0  0  0
  188.6940  177.9150  138.6830 C   0  0  0  0  0  3  0  0  0  0  0  0
  181.8880  181.5600  138.1160 C   0  0  0  0  0  2  0  0  0  0  0  0
  185.1630  178.9850  143.9070 C   0  0  0  0  0  2  0  0  0  0  0  0
  184.7120  178.7080  142.4870 C   0  0  0  0  0  0  0  0  0  0  0  0
  187.0060  178.4240  141.7790 C   0  0  0  0  0  3  0  0  0  0  0  0
  183.5930  180.0240  139.1120 C   0  0  0  0  0  2  0  0  0  0  0  0
  185.8280  178.1560  137.7350 O   0  0  0  0  0  1  0  0  0  0  0  0
  190.1860  178.0870  141.9900 C   0  0  0  0  0  1  0  0  0  0  0  0
  185.2780  178.4640  140.1050 C   0  0  0  0  0  0  0  0  0  0  0  0
  187.9450  178.2200  140.7840 C   0  0  0  0  0  0  0  0  0  0  0  0
  179.2650  178.8410  138.8820 O   0  0  0  0  0  0  0  0  0  0  0  0
  178.9310  179.2340  137.5840 C   0  0  0  0  0  2  0  0  0  0  0  0
  179.6430  178.3710  136.6050 C   0  0  0  0  0  0  0  0  0  0  0  0
  180.5330  177.4030  137.0510 O   0  0  0  0  0  1  0  0  0  0  0  0
  179.4690  178.5420  135.3700 O   0  0  0  0  0  0  0  0  0  0  0  0
  1 10  1  0  0  0  0
  2 23  1  1  0  0  0
  2 26  1  0  0  0  0
  2 12  1  0  0  0  0
  3  4  1  0  0  0  0
  5  6  1  0  0  0  0
  5 26  2  0  0  0  0
  6 27  1  0  0  0  0
  7 19  1  1  0  0  0
  7 23  1  0  0  0  0
  7 17  1  0  0  0  0
  8 12  1  0  0  0  0
  9 25  1  0  0  0  0
 10 28  1  6  0  0  0
 10 17  1  0  0  0  0
 11  3  1  0  0  0  0
 12 13  1  0  0  0  0
 13 21  2  0  0  0  0
 13 11  1  0  0  0  0
 14 22  1  0  0  0  0
 14 21  1  0  0  0  0
 15  9  2  0  0  0  0
 16  1  1  0  0  0  0
 17  8  1  6  0  0  0
 18  6  2  0  0  0  0
 18 15  1  0  0  0  0
 19 16  1  0  0  0  0
 20  4  1  0  0  0  0
 21 20  1  0  0  0  0
 24  5  1  0  0  0  0
 26 14  1  0  0  0  0
 27  9  1  0  0  0  0
 27 22  2  0  0  0  0
 29 28  1  0  0  0  0
 30 31  1  0  0  0  0
 30 29  1  0  0  0  0
 32 30  2  0  0  0  0
M  END
>  <MODEL>
3

>  <REMARK>
 VINA RESULT:      -6.3      2.580      5.099
  Name = 
  3 active torsions:
  status: ('A' for Active; 'I' for Inactive)
    1  A    between atoms: C_10  and  O_20
    2  A    between atoms: O_20  and  C_29
    3  A    between atoms: C_29  and  C_30
                            x       y       z     vdW  Elec       q    Type
                         _______ _______ _______ _____ _____    ______ ____

>  <TORSDO>
F 3

$$$$
=
 OpenBabel11122410423D

 32 37  0  0  1  0  0  0  0  0999 V2000
  180.4080  180.6460  138.5920 C   0  0  0  0  0  2  0  0  0  0  0  0
  184.7290  178.2870  140.3080 C   0  0  1  0  0  3  0  0  0  0  0  0
  183.4290  179.0480  145.0890 C   0  0  0  0  0  2  0  0  0  0  0  0
  184.6040  178.3620  145.4340 O   0  0  0  0  0  0  0  0  0  0  0  0
  187.1810  177.9340  139.9110 C   0  0  0  0  0  0  0  0  0  0  0  0
  188.4710  177.8730  140.4090 C   0  0  0  0  0  0  0  0  0  0  0  0
  183.0920  179.7040  139.0530 C   0  0  1  0  0  3  0  0  0  0  0  0
  182.3330  178.1420  140.9060 C   0  0  0  0  0  2  0  0  0  0  0  0
  190.0770  177.9300  141.9480 C   0  0  0  0  0  0  0  0  0  0  0  0
  180.6140  179.5000  139.5980 C   0  0  2  0  0  3  0  0  0  0  0  0
  182.9130  178.5250  143.7490 C   0  0  0  0  0  2  0  0  0  0  0  0
  183.7200  178.1410  141.3580 N   0  0  0  0  0  0  0  0  0  0  0  0
  184.0300  178.4170  142.7350 C   0  0  0  0  0  0  0  0  0  0  0  0
  186.3950  178.3140  142.1900 N   0  0  0  0  0  0  0  0  0  0  0  0
  190.6660  177.7060  140.7480 N   0  0  0  0  0  0  0  0  0  0  0  0
  181.5180  181.6930  138.6590 C   0  0  0  0  0  2  0  0  0  0  0  0
  182.0490  179.4480  140.1590 C   0  0  2  0  0  3  0  0  0  0  0  0
  189.6920  177.6700  139.7990 C   0  0  0  0  0  3  0  0  0  0  0  0
  182.8820  181.0600  138.3640 C   0  0  0  0  0  2  0  0  0  0  0  0
  185.6070  178.8500  144.5770 C   0  0  0  0  0  2  0  0  0  0  0  0
  185.3140  178.4960  143.1320 C   0  0  0  0  0  0  0  0  0  0  0  0
  187.6770  178.2570  142.6780 C   0  0  0  0  0  3  0  0  0  0  0  0
  184.5170  179.6250  139.6020 C   0  0  0  0  0  2  0  0  0  0  0  0
  186.9350  177.7750  138.5510 O   0  0  0  0  0  1  0  0  0  0  0  0
  190.8260  178.0340  143.2300 C   0  0  0  0  0  1  0  0  0  0  0  0
  186.1320  178.1670  140.8350 C   0  0  0  0  0  0  0  0  0  0  0  0
  188.7200  178.0410  141.7960 C   0  0  0  0  0  0  0  0  0  0  0  0
  180.2720  178.2910  138.9830 O   0  0  0  0  0  0  0  0  0  0  0  0
  178.9940  177.9940  139.4590 C   0  0  0  0  0  2  0  0  0  0  0  0
  179.0830  176.9220  140.4870 C   0  0  0  0  0  0  0  0  0  0  0  0
  179.2040  175.5950  140.0970 O   0  0  0  0  0  0  0  0  0  0  0  0
  179.0110  177.2130  141.7090 O   0  0  0  0  0  1  0  0  0  0  0  0
  1 16  1  0  0  0  0
  1 10  1  0  0  0  0
  2 23  1  1  0  0  0
  2 26  1  0  0  0  0
  2 12  1  0  0  0  0
  3  4  1  0  0  0  0
  5  6  1  0  0  0  0
  5 26  2  0  0  0  0
  6 27  1  0  0  0  0
  7 19  1  1  0  0  0
  7 23  1  0  0  0  0
  7 17  1  0  0  0  0
  8 12  1  0  0  0  0
  9 25  1  0  0  0  0
 10 28  1  6  0  0  0
 10 17  1  0  0  0  0
 11  3  1  0  0  0  0
 12 13  1  0  0  0  0
 13 21  2  0  0  0  0
 13 11  1  0  0  0  0
 14 22  1  0  0  0  0
 14 21  1  0  0  0  0
 15  9  2  0  0  0  0
 17  8  1  6  0  0  0
 18  6  2  0  0  0  0
 18 15  1  0  0  0  0
 19 16  1  0  0  0  0
 20  4  1  0  0  0  0
 21 20  1  0  0  0  0
 24  5  1  0  0  0  0
 26 14  1  0  0  0  0
 27  9  1  0  0  0  0
 27 22  2  0  0  0  0
 28 29  1  0  0  0  0
 29 30  1  0  0  0  0
 30 32  1  0  0  0  0
 31 30  2  0  0  0  0
M  END
>  <MODEL>
4

>  <REMARK>
 VINA RESULT:      -6.0      2.253      4.819
  Name = 
  3 active torsions:
  status: ('A' for Active; 'I' for Inactive)
    1  A    between atoms: C_10  and  O_20
    2  A    between atoms: O_20  and  C_29
    3  A    between atoms: C_29  and  C_30
                            x       y       z     vdW  Elec       q    Type
                         _______ _______ _______ _____ _____    ______ ____

>  <TORSDO>
F 3

$$$$
=
 OpenBabel11122410423D

 32 37  0  0  1  0  0  0  0  0999 V2000
  180.8020  179.3750  139.5370 C   0  0  0  0  0  2  0  0  0  0  0  0
  185.1420  177.5540  137.2960 C   0  0  1  0  0  3  0  0  0  0  0  0
  183.0840  173.0310  136.6330 C   0  0  0  0  0  2  0  0  0  0  0  0
  184.2880  172.6620  136.0130 O   0  0  0  0  0  0  0  0  0  0  0  0
  187.6510  177.5900  137.3270 C   0  0  0  0  0  0  0  0  0  0  0  0
  188.8520  176.9060  137.2790 C   0  0  0  0  0  0  0  0  0  0  0  0
  183.5050  178.6950  138.8050 C   0  0  1  0  0  3  0  0  0  0  0  0
  182.7350  177.4340  136.7390 C   0  0  0  0  0  2  0  0  0  0  0  0
  190.1990  175.1430  137.1060 C   0  0  0  0  0  0  0  0  0  0  0  0
  181.0330  178.6550  138.1970 C   0  0  2  0  0  3  0  0  0  0  0  0
  182.8450  174.5260  136.4260 C   0  0  0  0  0  2  0  0  0  0  0  0
  184.0290  176.7620  136.7710 N   0  0  0  0  0  0  0  0  0  0  0  0
  184.0970  175.3260  136.7090 C   0  0  0  0  0  0  0  0  0  0  0  0
  186.5030  175.4600  137.0100 N   0  0  0  0  0  0  0  0  0  0  0  0
  190.9780  176.2400  137.2700 N   0  0  0  0  0  0  0  0  0  0  0  0
  181.7220  178.8670  140.6440 C   0  0  0  0  0  2  0  0  0  0  0  0
  182.3670  177.8820  138.1560 C   0  0  2  0  0  3  0  0  0  0  0  0
  190.1640  177.3240  137.3770 C   0  0  0  0  0  3  0  0  0  0  0  0
  183.1930  179.0630  140.2620 C   0  0  0  0  0  2  0  0  0  0  0  0
  185.3170  173.1890  136.8140 C   0  0  0  0  0  2  0  0  0  0  0  0
  185.2860  174.7050  136.8210 C   0  0  0  0  0  0  0  0  0  0  0  0
  187.6980  174.7840  136.9670 C   0  0  0  0  0  3  0  0  0  0  0  0
  184.8340  177.9420  138.7410 C   0  0  0  0  0  2  0  0  0  0  0  0
  187.6250  178.9700  137.5040 O   0  0  0  0  0  1  0  0  0  0  0  0
  190.7360  173.7630  136.9520 C   0  0  0  0  0  1  0  0  0  0  0  0
  186.4590  176.8350  137.1950 C   0  0  0  0  0  0  0  0  0  0  0  0
  188.8760  175.4980  137.1050 C   0  0  0  0  0  0  0  0  0  0  0  0
  180.9660  179.5930  137.1610 O   0  0  0  0  0  0  0  0  0  0  0  0
  180.4480  180.7470  137.7530 C   0  0  0  0  0  2  0  0  0  0  0  0
  180.6990  181.9150  136.8670 C   0  0  0  0  0  0  0  0  0  0  0  0
  180.9860  183.1560  137.4200 O   0  0  0  0  0  1  0  0  0  0  0  0
  180.6150  181.7880  135.6180 O   0  0  0  0  0  0  0  0  0  0  0  0
  1 16  1  0  0  0  0
  2 23  1  1  0  0  0
  4  3  1  0  0  0  0
  4 20  1  0  0  0  0
  5 24  1  0  0  0  0
  6  5  1  0  0  0  0
  6 18  2  0  0  0  0
  7 23  1  1  0  0  0
  7 19  1  0  0  0  0
  8 12  1  0  0  0  0
  9 15  2  0  0  0  0
 10 28  1  6  0  0  0
 10  1  1  0  0  0  0
 11  3  1  0  0  0  0
 11 13  1  0  0  0  0
 12  2  1  0  0  0  0
 13 12  1  0  0  0  0
 13 21  2  0  0  0  0
 14 26  1  0  0  0  0
 15 18  1  0  0  0  0
 17  8  1  6  0  0  0
 17 10  1  0  0  0  0
 17  7  1  0  0  0  0
 19 16  1  0  0  0  0
 20 21  1  0  0  0  0
 21 14  1  0  0  0  0
 22 14  1  0  0  0  0
 22 27  2  0  0  0  0
 25  9  1  0  0  0  0
 26  2  1  0  0  0  0
 26  5  2  0  0  0  0
 27  9  1  0  0  0  0
 27  6  1  0  0  0  0
 28 29  1  0  0  0  0
 30 31  1  0  0  0  0
 30 29  1  0  0  0  0
 32 30  2  0  0  0  0
M  END
>  <MODEL>
5

>  <REMARK>
 VINA RESULT:      -5.6      4.789      6.450
  Name = 
  3 active torsions:
  status: ('A' for Active; 'I' for Inactive)
    1  A    between atoms: C_10  and  O_20
    2  A    between atoms: O_20  and  C_29
    3  A    between atoms: C_29  and  C_30
                            x       y       z     vdW  Elec       q    Type
                         _______ _______ _______ _____ _____    ______ ____

>  <TORSDO>
F 3

$$$$
=
 OpenBabel11122410423D

 32 37  0  0  1  0  0  0  0  0999 V2000
  180.0040  178.0920  138.3880 C   0  0  0  0  0  2  0  0  0  0  0  0
  184.3550  178.8360  141.1610 C   0  0  1  0  0  3  0  0  0  0  0  0
  187.2050  178.5800  137.0450 C   0  0  0  0  0  2  0  0  0  0  0  0
  188.3020  178.8240  137.8870 O   0  0  0  0  0  0  0  0  0  0  0  0
  185.5410  178.3280  143.3140 C   0  0  0  0  0  0  0  0  0  0  0  0
  186.6930  177.9460  143.9770 C   0  0  0  0  0  0  0  0  0  0  0  0
  182.1220  178.0610  140.3420 C   0  0  1  0  0  3  0  0  0  0  0  0
  183.4660  179.7940  139.0610 C   0  0  0  0  0  2  0  0  0  0  0  0
  188.8260  177.3470  144.1990 C   0  0  0  0  0  0  0  0  0  0  0  0
  181.1550  179.1020  138.2300 C   0  0  2  0  0  3  0  0  0  0  0  0
  185.9600  179.2440  137.6320 C   0  0  0  0  0  2  0  0  0  0  0  0
  184.6270  179.3220  139.8080 N   0  0  0  0  0  0  0  0  0  0  0  0
  185.8330  178.9600  139.1130 C   0  0  0  0  0  0  0  0  0  0  0  0
  186.7980  178.2470  141.2240 N   0  0  0  0  0  0  0  0  0  0  0  0
  188.2690  177.3530  145.4350 N   0  0  0  0  0  0  0  0  0  0  0  0
  180.4820  176.7290  138.8830 C   0  0  0  0  0  2  0  0  0  0  0  0
  182.4400  178.6620  138.9580 C   0  0  2  0  0  3  0  0  0  0  0  0
  186.9650  177.7170  145.3100 C   0  0  0  0  0  3  0  0  0  0  0  0
  181.1750  176.8570  140.2440 C   0  0  0  0  0  2  0  0  0  0  0  0
  188.1070  178.0200  139.0240 C   0  0  0  0  0  2  0  0  0  0  0  0
  186.8740  178.4480  139.7950 C   0  0  0  0  0  0  0  0  0  0  0  0
  187.9380  177.8630  141.8860 C   0  0  0  0  0  3  0  0  0  0  0  0
  183.3970  177.6490  141.0780 C   0  0  0  0  0  2  0  0  0  0  0  0
  184.3610  178.5580  144.0140 O   0  0  0  0  0  1  0  0  0  0  0  0
  190.2470  176.9970  143.9320 C   0  0  0  0  0  1  0  0  0  0  0  0
  185.6100  178.4710  141.9060 C   0  0  0  0  0  0  0  0  0  0  0  0
  187.8940  177.7060  143.2600 C   0  0  0  0  0  0  0  0  0  0  0  0
  180.7250  180.3530  138.6840 O   0  0  0  0  0  0  0  0  0  0  0  0
  179.7410  180.7470  137.7750 C   0  0  0  0  0  2  0  0  0  0  0  0
  180.2940  180.7050  136.3950 C   0  0  0  0  0  0  0  0  0  0  0  0
  181.3000  181.5860  136.0230 O   0  0  0  0  0  1  0  0  0  0  0  0
  179.8240  179.8960  135.5530 O   0  0  0  0  0  0  0  0  0  0  0  0
  1 16  1  0  0  0  0
  2 23  1  6  0  0  0
  2 26  1  0  0  0  0
  3 11  1  0  0  0  0
  3  4  1  0  0  0  0
  4 20  1  0  0  0  0
  5  6  1  0  0  0  0
  5 24  1  0  0  0  0
  6 18  2  0  0  0  0
  7 19  1  6  0  0  0
  7 23  1  0  0  0  0
  8 12  1  0  0  0  0
  9 15  2  0  0  0  0
 10  1  1  0  0  0  0
 10 28  1  1  0  0  0
 10 17  1  0  0  0  0
 11 13  1  0  0  0  0
 12  2  1  0  0  0  0
 13 21  2  0  0  0  0
 13 12  1  0  0  0  0
 14 22  1  0  0  0  0
 14 26  1  0  0  0  0
 16 19  1  0  0  0  0
 17  8  1  1  0  0  0
 17  7  1  0  0  0  0
 18 15  1  0  0  0  0
 20 21  1  0  0  0  0
 21 14  1  0  0  0  0
 22 27  2  0  0  0  0
 25  9  1  0  0  0  0
 26  5  2  0  0  0  0
 27  6  1  0  0  0  0
 27  9  1  0  0  0  0
 29 28  1  0  0  0  0
 30 29  1  0  0  0  0
 31 30  1  0  0  0  0
 32 30  2  0  0  0  0
M  END
>  <MODEL>
6

>  <REMARK>
 VINA RESULT:      -5.5      1.663      2.188
  Name = 
  3 active torsions:
  status: ('A' for Active; 'I' for Inactive)
    1  A    between atoms: C_10  and  O_20
    2  A    between atoms: O_20  and  C_29
    3  A    between atoms: C_29  and  C_30
                            x       y       z     vdW  Elec       q    Type
                         _______ _______ _______ _____ _____    ______ ____

>  <TORSDO>
F 3

$$$$
