=
 OpenBabel11122411103D

 31 35  0  0  1  0  0  0  0  0999 V2000
  185.7440  178.0380  142.9760 C   0  0  0  0  0  0  0  0  0  0  0  0
  189.4360  177.4510  143.5210 C   0  0  0  0  0  0  0  0  0  0  0  0
  189.8260  177.2980  144.8630 C   0  0  0  0  0  0  0  0  0  0  0  0
  189.3280  177.0270  138.2290 O   0  0  0  0  0  0  0  0  0  0  0  0
  190.1930  176.2360  138.6940 C   0  0  0  0  0  0  0  0  0  0  0  0
  189.4850  177.6820  147.2380 C   0  0  0  0  0  0  0  0  0  0  0  0
  188.1610  178.1610  143.1420 C   0  0  2  0  0  3  0  0  0  0  0  0
  185.8130  179.0940  142.0660 O   0  0  0  0  0  0  0  0  0  0  0  0
  189.0750  177.8500  145.9130 C   0  0  0  0  0  3  0  0  0  0  0  0
  189.8370  177.0320  141.1000 C   0  0  0  0  0  0  0  0  0  0  0  0
  184.6670  177.7870  143.5740 O   0  0  0  0  0  0  0  0  0  0  0  0
  191.7480  176.0140  144.1280 C   0  0  0  0  0  3  0  0  0  0  0  0
  188.5410  178.3740  148.5380 Cl  0  0  0  0  0  0  0  0  0  0  0  0
  188.8980  177.8730  140.7740 N   0  0  0  0  0  0  0  0  0  0  0  0
  190.2300  176.8760  142.5120 C   0  0  0  0  0  0  0  0  0  0  0  0
  190.4690  176.2170  140.1030 N   0  0  0  0  0  2  0  0  0  0  0  0
  186.9620  177.2300  143.2560 C   0  0  0  0  0  2  0  0  0  0  0  0
  190.6480  176.9620  147.5270 C   0  0  0  0  0  3  0  0  0  0  0  0
  188.2580  178.7810  141.7290 C   0  0  1  0  0  3  0  0  0  0  0  0
  186.9050  179.2430  141.1550 C   0  0  0  0  0  2  0  0  0  0  0  0
  191.3510  176.1760  142.8380 N   0  0  0  0  0  0  0  0  0  0  0  0
  190.9990  176.5710  145.1640 C   0  0  0  0  0  0  0  0  0  0  0  0
  191.4050  176.4060  146.4920 C   0  0  0  0  0  3  0  0  0  0  0  0
  192.2540  173.5300  136.0720 C   0  0  0  0  0  0  0  0  0  0  0  0
  190.2430  174.2520  137.2020 C   0  0  0  0  0  3  0  0  0  0  0  0
  193.0470  176.5210  138.0650 O   0  0  0  0  0  1  0  0  0  0  0  0
  192.9500  172.5840  135.1620 C   0  0  0  0  0  1  0  0  0  0  0  0
  190.8960  173.3620  136.3470 C   0  0  0  0  0  3  0  0  0  0  0  0
  192.3090  175.4830  137.5090 C   0  0  0  0  0  0  0  0  0  0  0  0
  190.9330  175.3210  137.7950 C   0  0  0  0  0  0  0  0  0  0  0  0
  192.9570  174.5870  136.6520 C   0  0  0  0  0  3  0  0  0  0  0  0
  1 17  1  0  0  0  0
  1 11  2  0  0  0  0
  2  3  1  0  0  0  0
  3 22  2  0  0  0  0
  3  9  1  0  0  0  0
  4  5  2  0  0  0  0
  5 16  1  0  0  0  0
  6 18  1  0  0  0  0
  6 13  1  0  0  0  0
  7 17  1  6  0  0  0
  7  2  1  0  0  0  0
  8  1  1  0  0  0  0
  9  6  2  0  0  0  0
 10 15  1  0  0  0  0
 12 22  1  0  0  0  0
 14 10  2  0  0  0  0
 14 19  1  0  0  0  0
 15 21  1  0  0  0  0
 15  2  2  0  0  0  0
 16 10  1  0  0  0  0
 19 20  1  6  0  0  0
 19  7  1  0  0  0  0
 20  8  1  0  0  0  0
 21 12  2  0  0  0  0
 22 23  1  0  0  0  0
 23 18  2  0  0  0  0
 24 28  2  0  0  0  0
 24 31  1  0  0  0  0
 25 30  2  0  0  0  0
 27 24  1  0  0  0  0
 28 25  1  0  0  0  0
 29 30  1  0  0  0  0
 29 26  1  0  0  0  0
 30  5  1  0  0  0  0
 31 29  2  0  0  0  0
M  END
>  <MODEL>
1

>  <REMARK>
 VINA RESULT:     -10.1      0.000      0.000
  Name = 
  1 active torsions:
  status: ('A' for Active; 'I' for Inactive)
    1  A    between atoms: C_5  and  C_30
                            x       y       z     vdW  Elec       q    Type
                         _______ _______ _______ _____ _____    ______ ____

>  <TORSDO>
F 1

$$$$
=
 OpenBabel11122411103D

 31 35  0  0  1  0  0  0  0  0999 V2000
  191.3710  175.8760  143.9170 C   0  0  0  0  0  0  0  0  0  0  0  0
  189.7680  177.4550  140.8830 C   0  0  0  0  0  0  0  0  0  0  0  0
  190.3660  177.1290  139.6520 C   0  0  0  0  0  0  0  0  0  0  0  0
  186.1450  178.8310  144.5110 O   0  0  0  0  0  0  0  0  0  0  0  0
  185.5700  178.6100  143.4110 C   0  0  0  0  0  0  0  0  0  0  0  0
  192.2820  176.4220  138.3350 C   0  0  0  0  0  0  0  0  0  0  0  0
  190.5220  177.3440  142.1840 C   0  0  2  0  0  3  0  0  0  0  0  0
  191.4280  176.9920  144.7520 O   0  0  0  0  0  0  0  0  0  0  0  0
  191.7130  176.7410  139.5710 C   0  0  0  0  0  3  0  0  0  0  0  0
  187.7740  178.1870  142.1820 C   0  0  0  0  0  0  0  0  0  0  0  0
  192.0560  174.8540  144.1780 O   0  0  0  0  0  0  0  0  0  0  0  0
  188.2560  177.5710  138.5420 C   0  0  0  0  0  3  0  0  0  0  0  0
  193.9620  175.9390  138.2470 Cl  0  0  0  0  0  0  0  0  0  0  0  0
  188.5020  178.3540  143.2480 N   0  0  0  0  0  0  0  0  0  0  0  0
  188.4140  177.8370  140.9000 C   0  0  0  0  0  0  0  0  0  0  0  0
  186.3460  178.2930  142.2440 N   0  0  0  0  0  2  0  0  0  0  0  0
  190.5150  175.9120  142.7000 C   0  0  0  0  0  2  0  0  0  0  0  0
  191.5130  176.4880  137.1700 C   0  0  0  0  0  3  0  0  0  0  0  0
  189.9660  178.3250  143.2430 C   0  0  1  0  0  3  0  0  0  0  0  0
  190.4700  178.0510  144.6720 C   0  0  0  0  0  2  0  0  0  0  0  0
  187.6990  177.8810  139.7430 N   0  0  0  0  0  0  0  0  0  0  0  0
  189.5960  177.1920  138.4700 C   0  0  0  0  0  0  0  0  0  0  0  0
  190.1710  176.8720  137.2360 C   0  0  0  0  0  3  0  0  0  0  0  0
  181.2980  178.7850  143.0120 C   0  0  0  0  0  0  0  0  0  0  0  0
  183.5000  178.5510  142.0420 C   0  0  0  0  0  3  0  0  0  0  0  0
  183.7890  178.9860  145.7140 O   0  0  0  0  0  1  0  0  0  0  0  0
  179.8220  178.8430  142.8540 C   0  0  0  0  0  1  0  0  0  0  0  0
  182.1120  178.6050  141.8930 C   0  0  0  0  0  3  0  0  0  0  0  0
  183.2600  178.8570  144.4360 C   0  0  0  0  0  0  0  0  0  0  0  0
  184.0940  178.6750  143.3080 C   0  0  0  0  0  0  0  0  0  0  0  0
  181.8710  178.9110  144.2780 C   0  0  0  0  0  3  0  0  0  0  0  0
  1 11  2  0  0  0  0
  1  8  1  0  0  0  0
  2 15  1  0  0  0  0
  2  7  1  0  0  0  0
  3  2  2  0  0  0  0
  5  4  2  0  0  0  0
  6  9  2  0  0  0  0
  7 17  1  1  0  0  0
  7 19  1  0  0  0  0
  9  3  1  0  0  0  0
 10 16  1  0  0  0  0
 10 14  2  0  0  0  0
 12 21  1  0  0  0  0
 13  6  1  0  0  0  0
 15 10  1  0  0  0  0
 16  5  1  0  0  0  0
 17  1  1  0  0  0  0
 18 23  2  0  0  0  0
 18  6  1  0  0  0  0
 19 14  1  0  0  0  0
 19 20  1  1  0  0  0
 20  8  1  0  0  0  0
 21 15  2  0  0  0  0
 22 12  2  0  0  0  0
 22  3  1  0  0  0  0
 23 22  1  0  0  0  0
 24 31  1  0  0  0  0
 25 30  2  0  0  0  0
 27 24  1  0  0  0  0
 28 25  1  0  0  0  0
 28 24  2  0  0  0  0
 29 26  1  0  0  0  0
 30  5  1  0  0  0  0
 30 29  1  0  0  0  0
 31 29  2  0  0  0  0
M  END
>  <MODEL>
2

>  <REMARK>
 VINA RESULT:      -9.8      3.527      8.505
  Name = 
  1 active torsions:
  status: ('A' for Active; 'I' for Inactive)
    1  A    between atoms: C_5  and  C_30
                            x       y       z     vdW  Elec       q    Type
                         _______ _______ _______ _____ _____    ______ ____

>  <TORSDO>
F 1

$$$$
=
 OpenBabel11122411103D

 31 35  0  0  1  0  0  0  0  0999 V2000
  186.6630  178.1980  137.6470 C   0  0  0  0  0  0  0  0  0  0  0  0
  188.8450  177.5030  140.6510 C   0  0  0  0  0  0  0  0  0  0  0  0
  188.1780  177.5100  141.8900 C   0  0  0  0  0  0  0  0  0  0  0  0
  192.3590  176.3850  136.8310 O   0  0  0  0  0  0  0  0  0  0  0  0
  192.5540  175.6200  137.8150 C   0  0  0  0  0  0  0  0  0  0  0  0
  186.3490  178.2240  143.3210 C   0  0  0  0  0  0  0  0  0  0  0  0
  188.2880  178.2200  139.4480 C   0  0  2  0  0  3  0  0  0  0  0  0
  187.4750  179.1190  136.9830 O   0  0  0  0  0  0  0  0  0  0  0  0
  186.9910  178.2340  142.0800 C   0  0  0  0  0  3  0  0  0  0  0  0
  190.7450  176.7460  139.2320 C   0  0  0  0  0  0  0  0  0  0  0  0
  185.4500  178.0840  137.3350 O   0  0  0  0  0  0  0  0  0  0  0  0
  189.8900  176.0450  142.7870 C   0  0  0  0  0  3  0  0  0  0  0  0
  184.8690  179.1300  143.5450 Cl  0  0  0  0  0  0  0  0  0  0  0  0
  190.4080  177.5820  138.2930 N   0  0  0  0  0  0  0  0  0  0  0  0
  190.0320  176.7590  140.5230 C   0  0  0  0  0  0  0  0  0  0  0  0
  191.7770  175.7750  139.0130 N   0  0  0  0  0  2  0  0  0  0  0  0
  187.2350  177.3740  138.7460 C   0  0  0  0  0  2  0  0  0  0  0  0
  186.8860  177.4910  144.3830 C   0  0  0  0  0  3  0  0  0  0  0  0
  189.4110  178.6410  138.4710 C   0  0  1  0  0  3  0  0  0  0  0  0
  188.9010  179.0900  137.0890 C   0  0  0  0  0  2  0  0  0  0  0  0
  190.5160  176.0530  141.5810 N   0  0  0  0  0  0  0  0  0  0  0  0
  188.7140  176.7720  142.9680 C   0  0  0  0  0  0  0  0  0  0  0  0
  188.0680  176.7650  144.2080 C   0  0  0  0  0  3  0  0  0  0  0  0
  195.4810  172.4890  137.5480 C   0  0  0  0  0  0  0  0  0  0  0  0
  193.3720  173.4670  136.8880 C   0  0  0  0  0  3  0  0  0  0  0  0
  195.0370  175.6500  139.3810 O   0  0  0  0  0  1  0  0  0  0  0  0
  196.4830  171.3970  137.4430 C   0  0  0  0  0  1  0  0  0  0  0  0
  194.3130  172.4400  136.7880 C   0  0  0  0  0  3  0  0  0  0  0  0
  194.7710  174.5980  138.5130 C   0  0  0  0  0  0  0  0  0  0  0  0
  193.5830  174.5570  137.7470 C   0  0  0  0  0  0  0  0  0  0  0  0
  195.7090  173.5650  138.4080 C   0  0  0  0  0  3  0  0  0  0  0  0
  1 17  1  0  0  0  0
  2  3  1  0  0  0  0
  3  9  2  0  0  0  0
  3 22  1  0  0  0  0
  4  5  2  0  0  0  0
  5 16  1  0  0  0  0
  6 13  1  0  0  0  0
  6 18  2  0  0  0  0
  7 17  1  6  0  0  0
  7  2  1  0  0  0  0
  8 20  1  0  0  0  0
  8  1  1  0  0  0  0
  9  6  1  0  0  0  0
 10 15  1  0  0  0  0
 11  1  2  0  0  0  0
 12 22  1  0  0  0  0
 14 19  1  0  0  0  0
 14 10  2  0  0  0  0
 15  2  2  0  0  0  0
 15 21  1  0  0  0  0
 16 10  1  0  0  0  0
 19 20  1  6  0  0  0
 19  7  1  0  0  0  0
 21 12  2  0  0  0  0
 22 23  2  0  0  0  0
 23 18  1  0  0  0  0
 24 31  1  0  0  0  0
 25 30  2  0  0  0  0
 27 24  1  0  0  0  0
 28 25  1  0  0  0  0
 28 24  2  0  0  0  0
 29 26  1  0  0  0  0
 30  5  1  0  0  0  0
 30 29  1  0  0  0  0
 31 29  2  0  0  0  0
M  END
>  <MODEL>
3

>  <REMARK>
 VINA RESULT:      -9.5      2.706      3.828
  Name = 
  1 active torsions:
  status: ('A' for Active; 'I' for Inactive)
    1  A    between atoms: C_5  and  C_30
                            x       y       z     vdW  Elec       q    Type
                         _______ _______ _______ _____ _____    ______ ____

>  <TORSDO>
F 1

$$$$
=
 OpenBabel11122411103D

 31 35  0  0  1  0  0  0  0  0999 V2000
  191.3540  175.9500  143.8380 C   0  0  0  0  0  0  0  0  0  0  0  0
  189.7210  177.4570  140.7840 C   0  0  0  0  0  0  0  0  0  0  0  0
  190.3210  177.1210  139.5570 C   0  0  0  0  0  0  0  0  0  0  0  0
  186.0850  178.8340  144.3990 O   0  0  0  0  0  0  0  0  0  0  0  0
  185.5110  178.5870  143.3030 C   0  0  0  0  0  0  0  0  0  0  0  0
  192.2440  176.4240  138.2460 C   0  0  0  0  0  0  0  0  0  0  0  0
  190.4780  177.3780  142.0840 C   0  0  2  0  0  3  0  0  0  0  0  0
  191.3960  177.0800  144.6560 O   0  0  0  0  0  0  0  0  0  0  0  0
  191.6730  176.7530  139.4780 C   0  0  0  0  0  3  0  0  0  0  0  0
  187.7190  178.1780  142.0760 C   0  0  0  0  0  0  0  0  0  0  0  0
  192.0550  174.9430  144.1130 O   0  0  0  0  0  0  0  0  0  0  0  0
  188.2010  177.5130  138.4450 C   0  0  0  0  0  3  0  0  0  0  0  0
  193.9310  175.9650  138.1610 Cl  0  0  0  0  0  0  0  0  0  0  0  0
  188.4460  178.3730  143.1380 N   0  0  0  0  0  0  0  0  0  0  0  0
  188.3610  177.8190  140.7980 C   0  0  0  0  0  0  0  0  0  0  0  0
  186.2890  178.2640  142.1400 N   0  0  0  0  0  2  0  0  0  0  0  0
  190.4950  175.9540  142.6220 C   0  0  0  0  0  2  0  0  0  0  0  0
  191.4710  176.4590  137.0820 C   0  0  0  0  0  3  0  0  0  0  0  0
  189.9110  178.3660  143.1290 C   0  0  1  0  0  3  0  0  0  0  0  0
  190.4210  178.1220  144.5620 C   0  0  0  0  0  2  0  0  0  0  0  0
  187.6430  177.8330  139.6420 N   0  0  0  0  0  0  0  0  0  0  0  0
  189.5470  177.1540  138.3750 C   0  0  0  0  0  0  0  0  0  0  0  0
  190.1240  176.8240  137.1450 C   0  0  0  0  0  3  0  0  0  0  0  0
  181.2220  178.7090  143.1150 C   0  0  0  0  0  0  0  0  0  0  0  0
  183.2780  178.6700  144.3860 C   0  0  0  0  0  3  0  0  0  0  0  0
  184.0470  178.5870  140.7580 O   0  0  0  0  0  1  0  0  0  0  0  0
  179.7380  178.7520  143.0690 C   0  0  0  0  0  1  0  0  0  0  0  0
  181.8830  178.7100  144.3430 C   0  0  0  0  0  3  0  0  0  0  0  0
  183.3550  178.6280  141.9620 C   0  0  0  0  0  0  0  0  0  0  0  0
  184.0340  178.6280  143.2030 C   0  0  0  0  0  0  0  0  0  0  0  0
  181.9570  178.6680  141.9290 C   0  0  0  0  0  3  0  0  0  0  0  0
  1 11  2  0  0  0  0
  1  8  1  0  0  0  0
  2 15  1  0  0  0  0
  2  7  1  0  0  0  0
  3  2  2  0  0  0  0
  5  4  2  0  0  0  0
  6  9  2  0  0  0  0
  7 17  1  1  0  0  0
  7 19  1  0  0  0  0
  9  3  1  0  0  0  0
 10 16  1  0  0  0  0
 10 14  2  0  0  0  0
 12 21  1  0  0  0  0
 13  6  1  0  0  0  0
 15 10  1  0  0  0  0
 16  5  1  0  0  0  0
 17  1  1  0  0  0  0
 18 23  2  0  0  0  0
 18  6  1  0  0  0  0
 19 14  1  0  0  0  0
 19 20  1  1  0  0  0
 20  8  1  0  0  0  0
 21 15  2  0  0  0  0
 22 12  2  0  0  0  0
 22  3  1  0  0  0  0
 23 22  1  0  0  0  0
 24 28  1  0  0  0  0
 26 29  1  0  0  0  0
 27 24  1  0  0  0  0
 28 25  2  0  0  0  0
 29 30  2  0  0  0  0
 30  5  1  0  0  0  0
 30 25  1  0  0  0  0
 31 29  1  0  0  0  0
 31 24  2  0  0  0  0
M  END
>  <MODEL>
4

>  <REMARK>
 VINA RESULT:      -9.2      3.527      8.427
  Name = 
  1 active torsions:
  status: ('A' for Active; 'I' for Inactive)
    1  A    between atoms: C_5  and  C_30
                            x       y       z     vdW  Elec       q    Type
                         _______ _______ _______ _____ _____    ______ ____

>  <TORSDO>
F 1

$$$$
=
 OpenBabel11122411103D

 31 35  0  0  1  0  0  0  0  0999 V2000
  179.6300  181.6330  140.2020 C   0  0  0  0  0  0  0  0  0  0  0  0
  181.6520  178.5910  139.2400 C   0  0  0  0  0  0  0  0  0  0  0  0
  181.6720  178.2960  137.8650 C   0  0  0  0  0  0  0  0  0  0  0  0
  183.1030  178.9410  144.3350 O   0  0  0  0  0  0  0  0  0  0  0  0
  184.0750  178.5170  143.6530 C   0  0  0  0  0  0  0  0  0  0  0  0
  180.6800  178.4000  135.6490 C   0  0  0  0  0  0  0  0  0  0  0  0
  180.5520  179.4160  139.8580 C   0  0  2  0  0  3  0  0  0  0  0  0
  178.9330  181.1090  141.2920 O   0  0  0  0  0  0  0  0  0  0  0  0
  180.6360  178.7060  137.0120 C   0  0  0  0  0  3  0  0  0  0  0  0
  182.7110  178.4490  141.4890 C   0  0  0  0  0  0  0  0  0  0  0  0
  179.2460  182.7010  139.6610 O   0  0  0  0  0  0  0  0  0  0  0  0
  183.7950  177.1630  138.1680 C   0  0  0  0  0  3  0  0  0  0  0  0
  179.3830  178.9180  134.5950 Cl  0  0  0  0  0  0  0  0  0  0  0  0
  181.6330  178.9150  142.0520 N   0  0  0  0  0  0  0  0  0  0  0  0
  182.7200  178.1520  140.0450 C   0  0  0  0  0  0  0  0  0  0  0  0
  183.9130  178.2620  142.2480 N   0  0  0  0  0  2  0  0  0  0  0  0
  180.8120  180.9040  139.6670 C   0  0  0  0  0  2  0  0  0  0  0  0
  181.7590  177.6800  135.1260 C   0  0  0  0  0  3  0  0  0  0  0  0
  180.3560  179.0690  141.3510 C   0  0  1  0  0  3  0  0  0  0  0  0
  179.4800  180.0770  142.1180 C   0  0  0  0  0  2  0  0  0  0  0  0
  183.7540  177.4600  139.4930 N   0  0  0  0  0  0  0  0  0  0  0  0
  182.7580  177.5700  137.3280 C   0  0  0  0  0  0  0  0  0  0  0  0
  182.7970  177.2650  135.9640 C   0  0  0  0  0  3  0  0  0  0  0  0
  187.9280  177.7920  145.4050 C   0  0  0  0  0  0  0  0  0  0  0  0
  186.4490  177.8070  143.4940 C   0  0  0  0  0  3  0  0  0  0  0  0
  184.6180  178.9690  146.5030 O   0  0  0  0  0  1  0  0  0  0  0  0
  189.2680  177.5360  145.9940 C   0  0  0  0  0  1  0  0  0  0  0  0
  187.7080  177.5660  144.0460 C   0  0  0  0  0  3  0  0  0  0  0  0
  185.6240  178.5040  145.6650 C   0  0  0  0  0  0  0  0  0  0  0  0
  185.3910  178.2770  144.2880 C   0  0  0  0  0  0  0  0  0  0  0  0
  186.8890  178.2600  146.2110 C   0  0  0  0  0  3  0  0  0  0  0  0
  1  8  1  0  0  0  0
  2  7  1  0  0  0  0
  2 15  1  0  0  0  0
  3  2  2  0  0  0  0
  5 30  1  0  0  0  0
  5  4  2  0  0  0  0
  6  9  2  0  0  0  0
  7 17  1  1  0  0  0
  7 19  1  0  0  0  0
  8 20  1  0  0  0  0
  9  3  1  0  0  0  0
 10 14  2  0  0  0  0
 10 16  1  0  0  0  0
 11  1  2  0  0  0  0
 12 21  1  0  0  0  0
 13  6  1  0  0  0  0
 15 10  1  0  0  0  0
 16  5  1  0  0  0  0
 17  1  1  0  0  0  0
 18  6  1  0  0  0  0
 18 23  2  0  0  0  0
 19 14  1  0  0  0  0
 19 20  1  1  0  0  0
 21 15  2  0  0  0  0
 22  3  1  0  0  0  0
 22 12  2  0  0  0  0
 23 22  1  0  0  0  0
 24 27  1  0  0  0  0
 24 31  1  0  0  0  0
 25 28  1  0  0  0  0
 25 30  2  0  0  0  0
 28 24  2  0  0  0  0
 29 31  2  0  0  0  0
 29 26  1  0  0  0  0
 30 29  1  0  0  0  0
M  END
>  <MODEL>
5

>  <REMARK>
 VINA RESULT:      -8.5      6.476     10.298
  Name = 
  1 active torsions:
  status: ('A' for Active; 'I' for Inactive)
    1  A    between atoms: C_5  and  C_30
                            x       y       z     vdW  Elec       q    Type
                         _______ _______ _______ _____ _____    ______ ____

>  <TORSDO>
F 1

$$$$
=
 OpenBabel11122411103D

 31 35  0  0  1  0  0  0  0  0999 V2000
  184.9390  176.5840  136.7790 C   0  0  0  0  0  0  0  0  0  0  0  0
  183.1010  178.4950  139.4690 C   0  0  0  0  0  0  0  0  0  0  0  0
  181.7110  178.6070  139.2810 C   0  0  0  0  0  0  0  0  0  0  0  0
  187.8550  178.1840  141.8120 O   0  0  0  0  0  0  0  0  0  0  0  0
  186.9520  178.1250  142.6910 C   0  0  0  0  0  0  0  0  0  0  0  0
  179.7520  178.6460  137.8450 C   0  0  0  0  0  0  0  0  0  0  0  0
  184.0370  178.2270  138.3190 C   0  0  2  0  0  3  0  0  0  0  0  0
  186.0130  177.4520  136.5760 O   0  0  0  0  0  0  0  0  0  0  0  0
  181.1360  178.5320  138.0030 C   0  0  0  0  0  3  0  0  0  0  0  0
  185.0730  178.4690  140.9880 C   0  0  0  0  0  0  0  0  0  0  0  0
  184.6780  175.6910  135.9330 O   0  0  0  0  0  0  0  0  0  0  0  0
  181.4370  178.8680  141.6770 C   0  0  0  0  0  3  0  0  0  0  0  0
  179.0460  178.5500  136.2460 Cl  0  0  0  0  0  0  0  0  0  0  0  0
  185.8860  178.5160  139.9720 N   0  0  0  0  0  0  0  0  0  0  0  0
  183.6190  178.5790  140.7750 C   0  0  0  0  0  0  0  0  0  0  0  0
  185.5720  178.2660  142.3170 N   0  0  0  0  0  2  0  0  0  0  0  0
  184.0860  176.7410  137.9890 C   0  0  0  0  0  2  0  0  0  0  0  0
  178.9310  178.8360  138.9600 C   0  0  0  0  0  3  0  0  0  0  0  0
  185.4510  178.7860  138.5990 C   0  0  1  0  0  3  0  0  0  0  0  0
  186.5280  178.2810  137.6210 C   0  0  0  0  0  2  0  0  0  0  0  0
  182.7820  178.7570  141.8340 N   0  0  0  0  0  0  0  0  0  0  0  0
  180.8740  178.7980  140.4030 C   0  0  0  0  0  0  0  0  0  0  0  0
  179.4900  178.9120  140.2380 C   0  0  0  0  0  3  0  0  0  0  0  0
  187.8700  177.5320  146.8440 C   0  0  0  0  0  0  0  0  0  0  0  0
  186.3080  178.0980  145.0880 C   0  0  0  0  0  3  0  0  0  0  0  0
  189.6230  177.3290  143.6140 O   0  0  0  0  0  1  0  0  0  0  0  0
  188.1690  177.3310  148.2860 C   0  0  0  0  0  1  0  0  0  0  0  0
  186.5880  177.9090  146.4430 C   0  0  0  0  0  3  0  0  0  0  0  0
  188.5980  177.5290  144.5310 C   0  0  0  0  0  0  0  0  0  0  0  0
  187.3020  177.9130  144.1140 C   0  0  0  0  0  0  0  0  0  0  0  0
  188.8710  177.3420  145.8900 C   0  0  0  0  0  3  0  0  0  0  0  0
  1 17  1  0  0  0  0
  2 15  1  0  0  0  0
  3  2  2  0  0  0  0
  3 22  1  0  0  0  0
  4  5  2  0  0  0  0
  5 30  1  0  0  0  0
  6  9  2  0  0  0  0
  6 18  1  0  0  0  0
  7 17  1  1  0  0  0
  7 19  1  0  0  0  0
  7  2  1  0  0  0  0
  8  1  1  0  0  0  0
  8 20  1  0  0  0  0
  9  3  1  0  0  0  0
 10 16  1  0  0  0  0
 11  1  2  0  0  0  0
 12 21  1  0  0  0  0
 13  6  1  0  0  0  0
 14 10  2  0  0  0  0
 15 10  1  0  0  0  0
 15 21  2  0  0  0  0
 16  5  1  0  0  0  0
 18 23  2  0  0  0  0
 19 20  1  6  0  0  0
 19 14  1  0  0  0  0
 22 12  2  0  0  0  0
 23 22  1  0  0  0  0
 24 27  1  0  0  0  0
 25 28  2  0  0  0  0
 26 29  1  0  0  0  0
 28 24  1  0  0  0  0
 29 31  1  0  0  0  0
 30 29  2  0  0  0  0
 30 25  1  0  0  0  0
 31 24  2  0  0  0  0
M  END
>  <MODEL>
6

>  <REMARK>
 VINA RESULT:      -8.5      5.134      9.388
  Name = 
  1 active torsions:
  status: ('A' for Active; 'I' for Inactive)
    1  A    between atoms: C_5  and  C_30
                            x       y       z     vdW  Elec       q    Type
                         _______ _______ _______ _____ _____    ______ ____

>  <TORSDO>
F 1

$$$$
=
 OpenBabel11122411103D

 31 35  0  0  1  0  0  0  0  0999 V2000
  191.1070  176.1420  143.4770 C   0  0  0  0  0  0  0  0  0  0  0  0
  190.0630  177.3510  140.0540 C   0  0  0  0  0  0  0  0  0  0  0  0
  190.8380  176.8650  138.9860 C   0  0  0  0  0  0  0  0  0  0  0  0
  185.9580  179.2240  142.8520 O   0  0  0  0  0  0  0  0  0  0  0  0
  185.5590  178.8740  141.7080 C   0  0  0  0  0  0  0  0  0  0  0  0
  192.9140  175.9710  138.0930 C   0  0  0  0  0  0  0  0  0  0  0  0
  190.5960  177.3940  141.4640 C   0  0  2  0  0  3  0  0  0  0  0  0
  191.0690  177.3540  144.1690 O   0  0  0  0  0  0  0  0  0  0  0  0
  192.1670  176.4500  139.1720 C   0  0  0  0  0  3  0  0  0  0  0  0
  187.9150  178.2680  140.9130 C   0  0  0  0  0  0  0  0  0  0  0  0
  191.7070  175.1520  143.9690 O   0  0  0  0  0  0  0  0  0  0  0  0
  188.9480  177.1940  137.5020 C   0  0  0  0  0  3  0  0  0  0  0  0
  194.5690  175.4570  138.3380 Cl  0  0  0  0  0  0  0  0  0  0  0  0
  188.4680  178.5580  142.0560 N   0  0  0  0  0  0  0  0  0  0  0  0
  188.7380  177.7520  139.8050 C   0  0  0  0  0  0  0  0  0  0  0  0
  186.4990  178.4030  140.7290 N   0  0  0  0  0  2  0  0  0  0  0  0
  190.4580  176.0380  142.1420 C   0  0  0  0  0  2  0  0  0  0  0  0
  192.3430  175.9010  136.8190 C   0  0  0  0  0  3  0  0  0  0  0  0
  189.9130  178.5070  142.2910 C   0  0  1  0  0  3  0  0  0  0  0  0
  190.1730  178.4080  143.8060 C   0  0  0  0  0  2  0  0  0  0  0  0
  188.2190  177.6600  138.5500 N   0  0  0  0  0  0  0  0  0  0  0  0
  190.2690  176.7900  137.6950 C   0  0  0  0  0  0  0  0  0  0  0  0
  191.0210  176.3100  136.6190 C   0  0  0  0  0  3  0  0  0  0  0  0
  181.3670  179.0530  140.7920 C   0  0  0  0  0  0  0  0  0  0  0  0
  183.1730  178.5760  142.3260 C   0  0  0  0  0  3  0  0  0  0  0  0
  184.5550  179.7580  139.0940 O   0  0  0  0  0  1  0  0  0  0  0  0
  179.9120  179.1090  140.4930 C   0  0  0  0  0  1  0  0  0  0  0  0
  181.8060  178.6280  142.0460 C   0  0  0  0  0  3  0  0  0  0  0  0
  183.6660  179.3780  140.0910 C   0  0  0  0  0  0  0  0  0  0  0  0
  184.1210  178.9470  141.3590 C   0  0  0  0  0  0  0  0  0  0  0  0
  182.2950  179.4270  139.8180 C   0  0  0  0  0  3  0  0  0  0  0  0
  1 11  2  0  0  0  0
  1  8  1  0  0  0  0
  2  7  1  0  0  0  0
  3  9  1  0  0  0  0
  3  2  2  0  0  0  0
  5  4  2  0  0  0  0
  6 13  1  0  0  0  0
  6  9  2  0  0  0  0
  7 17  1  1  0  0  0
  7 19  1  0  0  0  0
 10 14  2  0  0  0  0
 12 22  2  0  0  0  0
 12 21  1  0  0  0  0
 14 19  1  0  0  0  0
 15  2  1  0  0  0  0
 15 10  1  0  0  0  0
 16 10  1  0  0  0  0
 16  5  1  0  0  0  0
 17  1  1  0  0  0  0
 18  6  1  0  0  0  0
 19 20  1  1  0  0  0
 20  8  1  0  0  0  0
 21 15  2  0  0  0  0
 22  3  1  0  0  0  0
 23 18  2  0  0  0  0
 23 22  1  0  0  0  0
 24 28  1  0  0  0  0
 26 29  1  0  0  0  0
 27 24  1  0  0  0  0
 28 25  2  0  0  0  0
 29 30  2  0  0  0  0
 30  5  1  0  0  0  0
 30 25  1  0  0  0  0
 31 29  1  0  0  0  0
 31 24  2  0  0  0  0
M  END
>  <MODEL>
7

>  <REMARK>
 VINA RESULT:      -8.0      3.626      8.116
  Name = 
  1 active torsions:
  status: ('A' for Active; 'I' for Inactive)
    1  A    between atoms: C_5  and  C_30
                            x       y       z     vdW  Elec       q    Type
                         _______ _______ _______ _____ _____    ______ ____

>  <TORSDO>
F 1

$$$$
=
 OpenBabel11122411103D

 31 35  0  0  1  0  0  0  0  0999 V2000
  187.0730  176.5030  136.4380 C   0  0  0  0  0  0  0  0  0  0  0  0
  185.4870  178.4490  139.2600 C   0  0  0  0  0  0  0  0  0  0  0  0
  184.0980  178.6410  139.1490 C   0  0  0  0  0  0  0  0  0  0  0  0
  190.3320  177.8230  141.3400 O   0  0  0  0  0  0  0  0  0  0  0  0
  189.4740  177.7940  142.2650 C   0  0  0  0  0  0  0  0  0  0  0  0
  182.0720  178.8200  137.8200 C   0  0  0  0  0  0  0  0  0  0  0  0
  186.3460  178.1570  138.0570 C   0  0  2  0  0  3  0  0  0  0  0  0
  188.1820  177.3150  136.1960 O   0  0  0  0  0  0  0  0  0  0  0  0
  183.4530  178.6270  137.9020 C   0  0  0  0  0  3  0  0  0  0  0  0
  187.5320  178.2800  140.6710 C   0  0  0  0  0  0  0  0  0  0  0  0
  186.7190  175.6450  135.5890 O   0  0  0  0  0  0  0  0  0  0  0  0
  183.9640  178.8620  141.5610 C   0  0  0  0  0  3  0  0  0  0  0  0
  181.2800  178.8000  136.2600 Cl  0  0  0  0  0  0  0  0  0  0  0  0
  188.2910  178.3060  139.6140 N   0  0  0  0  0  0  0  0  0  0  0  0
  186.0760  178.4750  140.5380 C   0  0  0  0  0  0  0  0  0  0  0  0
  188.0870  178.0190  141.9670 N   0  0  0  0  0  2  0  0  0  0  0  0
  186.2940  176.6790  137.6950 C   0  0  0  0  0  2  0  0  0  0  0  0
  181.3220  179.0290  138.9810 C   0  0  0  0  0  3  0  0  0  0  0  0
  187.8010  178.6310  138.2720 C   0  0  1  0  0  3  0  0  0  0  0  0
  188.7960  178.0900  137.2280 C   0  0  0  0  0  2  0  0  0  0  0  0
  185.3070  178.6740  141.6430 N   0  0  0  0  0  0  0  0  0  0  0  0
  183.3320  178.8520  140.3170 C   0  0  0  0  0  0  0  0  0  0  0  0
  181.9500  179.0450  140.2290 C   0  0  0  0  0  3  0  0  0  0  0  0
  190.7620  177.0210  146.2870 C   0  0  0  0  0  0  0  0  0  0  0  0
  191.2430  177.3050  143.9360 C   0  0  0  0  0  3  0  0  0  0  0  0
  187.6040  177.7130  144.5280 O   0  0  0  0  0  1  0  0  0  0  0  0
  191.2270  176.7530  147.6730 C   0  0  0  0  0  1  0  0  0  0  0  0
  191.6800  177.0520  145.2380 C   0  0  0  0  0  3  0  0  0  0  0  0
  188.9620  177.4980  144.7340 C   0  0  0  0  0  0  0  0  0  0  0  0
  189.8850  177.5300  143.6630 C   0  0  0  0  0  0  0  0  0  0  0  0
  189.4080  177.2430  146.0360 C   0  0  0  0  0  3  0  0  0  0  0  0
  1 17  1  0  0  0  0
  2 15  1  0  0  0  0
  3  2  2  0  0  0  0
  3 22  1  0  0  0  0
  4  5  2  0  0  0  0
  5 30  1  0  0  0  0
  6  9  2  0  0  0  0
  6 18  1  0  0  0  0
  7 17  1  1  0  0  0
  7 19  1  0  0  0  0
  7  2  1  0  0  0  0
  8  1  1  0  0  0  0
  8 20  1  0  0  0  0
  9  3  1  0  0  0  0
 10 16  1  0  0  0  0
 11  1  2  0  0  0  0
 12 21  1  0  0  0  0
 13  6  1  0  0  0  0
 14 10  2  0  0  0  0
 15 10  1  0  0  0  0
 15 21  2  0  0  0  0
 16  5  1  0  0  0  0
 18 23  2  0  0  0  0
 19 20  1  6  0  0  0
 19 14  1  0  0  0  0
 22 12  2  0  0  0  0
 23 22  1  0  0  0  0
 24 27  1  0  0  0  0
 25 28  1  0  0  0  0
 26 29  1  0  0  0  0
 28 24  2  0  0  0  0
 29 31  2  0  0  0  0
 30 25  2  0  0  0  0
 30 29  1  0  0  0  0
 31 24  1  0  0  0  0
M  END
>  <MODEL>
8

>  <REMARK>
 VINA RESULT:      -8.0      4.015      8.260
  Name = 
  1 active torsions:
  status: ('A' for Active; 'I' for Inactive)
    1  A    between atoms: C_5  and  C_30
                            x       y       z     vdW  Elec       q    Type
                         _______ _______ _______ _____ _____    ______ ____

>  <TORSDO>
F 1

$$$$
=
 OpenBabel11122411103D

 31 35  0  0  1  0  0  0  0  0999 V2000
  190.9420  178.1720  142.6120 C   0  0  0  0  0  0  0  0  0  0  0  0
  187.8580  177.7500  144.7510 C   0  0  0  0  0  0  0  0  0  0  0  0
  188.0680  177.8780  146.1360 C   0  0  0  0  0  0  0  0  0  0  0  0
  185.5220  177.8390  139.9840 O   0  0  0  0  0  0  0  0  0  0  0  0
  184.7660  178.3890  140.8300 C   0  0  0  0  0  0  0  0  0  0  0  0
  189.5020  177.7600  148.0930 C   0  0  0  0  0  0  0  0  0  0  0  0
  188.9800  177.3970  143.8090 C   0  0  2  0  0  3  0  0  0  0  0  0
  190.7790  177.0800  141.7580 O   0  0  0  0  0  0  0  0  0  0  0  0
  189.3210  177.6250  146.7150 C   0  0  0  0  0  3  0  0  0  0  0  0
  186.3410  177.8820  142.7810 C   0  0  0  0  0  0  0  0  0  0  0  0
  192.0570  178.7490  142.6940 O   0  0  0  0  0  0  0  0  0  0  0  0
  185.7460  178.5290  146.3990 C   0  0  0  0  0  3  0  0  0  0  0  0
  191.0710  177.4430  148.8030 Cl  0  0  0  0  0  0  0  0  0  0  0  0
  187.2360  177.3140  142.0250 N   0  0  0  0  0  0  0  0  0  0  0  0
  186.5780  178.0160  144.2300 C   0  0  0  0  0  0  0  0  0  0  0  0
  185.1400  178.4230  142.2160 N   0  0  0  0  0  2  0  0  0  0  0  0
  189.7980  178.6290  143.4470 C   0  0  0  0  0  2  0  0  0  0  0  0
  188.4340  178.1480  148.9070 C   0  0  0  0  0  3  0  0  0  0  0  0
  188.4520  176.6830  142.5440 C   0  0  1  0  0  3  0  0  0  0  0  0
  189.4870  176.5760  141.4080 C   0  0  0  0  0  2  0  0  0  0  0  0
  185.5680  178.3990  145.0580 N   0  0  0  0  0  0  0  0  0  0  0  0
  186.9930  178.2700  146.9660 C   0  0  0  0  0  0  0  0  0  0  0  0
  187.1800  178.4030  148.3450 C   0  0  0  0  0  3  0  0  0  0  0  0
  181.0070  180.1130  139.6700 C   0  0  0  0  0  0  0  0  0  0  0  0
  182.3010  178.6010  141.0420 C   0  0  0  0  0  3  0  0  0  0  0  0
  184.5500  180.4180  138.7180 O   0  0  0  0  0  1  0  0  0  0  0  0
  179.6980  180.6980  139.2820 C   0  0  0  0  0  1  0  0  0  0  0  0
  181.0700  179.1510  140.6780 C   0  0  0  0  0  3  0  0  0  0  0  0
  183.4120  179.9790  139.3850 C   0  0  0  0  0  0  0  0  0  0  0  0
  183.4860  179.0030  140.4060 C   0  0  0  0  0  0  0  0  0  0  0  0
  182.1750  180.5250  139.0260 C   0  0  0  0  0  3  0  0  0  0  0  0
  1 11  2  0  0  0  0
  1 17  1  0  0  0  0
  2  3  1  0  0  0  0
  3  9  2  0  0  0  0
  3 22  1  0  0  0  0
  4  5  2  0  0  0  0
  5 16  1  0  0  0  0
  6 13  1  0  0  0  0
  6 18  2  0  0  0  0
  7 17  1  6  0  0  0
  7  2  1  0  0  0  0
  8  1  1  0  0  0  0
  9  6  1  0  0  0  0
 10 15  1  0  0  0  0
 12 22  1  0  0  0  0
 14 19  1  0  0  0  0
 14 10  2  0  0  0  0
 15  2  2  0  0  0  0
 15 21  1  0  0  0  0
 16 10  1  0  0  0  0
 19 20  1  6  0  0  0
 19  7  1  0  0  0  0
 20  8  1  0  0  0  0
 21 12  2  0  0  0  0
 22 23  2  0  0  0  0
 23 18  1  0  0  0  0
 24 28  1  0  0  0  0
 26 29  1  0  0  0  0
 27 24  1  0  0  0  0
 28 25  2  0  0  0  0
 29 30  2  0  0  0  0
 30  5  1  0  0  0  0
 30 25  1  0  0  0  0
 31 29  1  0  0  0  0
 31 24  2  0  0  0  0
M  END
>  <MODEL>
9

>  <REMARK>
 VINA RESULT:      -7.8      3.600      7.072
  Name = 
  1 active torsions:
  status: ('A' for Active; 'I' for Inactive)
    1  A    between atoms: C_5  and  C_30
                            x       y       z     vdW  Elec       q    Type
                         _______ _______ _______ _____ _____    ______ ____

>  <TORSDO>
F 1

$$$$
