=
 OpenBabel11122410513D

 32 37  0  0  1  0  0  0  0  0999 V2000
  189.3020  177.9370  146.5830 C   0  0  0  0  0  2  0  0  0  0  0  0
  187.9590  178.1280  141.7580 C   0  0  2  0  0  3  0  0  0  0  0  0
  191.2770  176.9140  138.3070 C   0  0  0  0  0  3  0  0  0  0  0  0
  190.2730  176.8820  137.3420 C   0  0  0  0  0  3  0  0  0  0  0  0
  185.5900  178.6330  140.9450 C   0  0  2  0  0  3  0  0  0  0  0  0
  184.9350  179.2390  139.7030 C   0  0  2  0  0  3  0  0  0  0  0  0
  188.6020  176.7390  143.8100 C   0  0  1  0  0  3  0  0  0  0  0  0
  190.4330  177.7530  142.3670 C   0  0  0  0  0  2  0  0  0  0  0  0
  183.9630  178.1460  137.7190 C   0  0  2  0  0  3  0  0  0  0  0  0
  190.8910  177.4480  144.8260 C   0  0  0  0  0  2  0  0  0  0  0  0
  190.9670  177.2530  139.6230 C   0  0  0  0  0  3  0  0  0  0  0  0
  189.3720  177.8580  141.2930 C   0  0  0  0  0  0  0  0  0  0  0  0
  189.6490  177.5710  140.0040 C   0  0  0  0  0  0  0  0  0  0  0  0
  187.3560  177.8650  139.3180 C   0  0  0  0  0  0  0  0  0  0  0  0
  182.9190  178.6640  138.6570 C   0  0  0  0  0  2  0  0  0  0  0  0
  187.9910  177.7210  145.8130 C   0  0  0  0  0  2  0  0  0  0  0  0
  189.8150  177.7170  143.7650 C   0  0  2  0  0  3  0  0  0  0  0  0
  183.4420  179.2360  139.7470 C   0  0  0  0  0  2  0  0  0  0  0  0
  188.0280  176.5140  145.0870 O   0  0  0  0  0  0  0  0  0  0  0  0
  190.3480  177.0190  146.1200 N   0  0  0  0  0  0  0  0  0  0  0  0
  188.9610  177.1950  137.6960 C   0  0  0  0  0  3  0  0  0  0  0  0
  188.6280  177.5470  139.0150 C   0  0  0  0  0  0  0  0  0  0  0  0
  186.3270  177.7910  138.3180 N   0  0  0  0  0  0  0  0  0  0  0  0
  187.5160  177.0570  142.7640 C   0  0  0  0  0  2  0  0  0  0  0  0
  185.4990  179.6410  142.0840 C   0  0  0  0  0  1  0  0  0  0  0  0
  183.7380  176.6590  137.5060 C   0  0  0  0  0  1  0  0  0  0  0  0
  186.9950  178.2690  140.6590 N   0  0  0  0  0  0  0  0  0  0  0  0
  185.1930  178.3860  138.5180 C   0  0  0  0  0  0  0  0  0  0  0  0
  191.4410  177.0960  147.0750 C   0  0  0  0  0  2  0  0  0  0  0  0
  191.8860  175.7000  147.4760 C   0  0  2  0  0  3  0  0  0  0  0  0
  192.9450  175.8000  148.5520 C   0  0  0  0  0  1  0  0  0  0  0  0
  192.4140  175.0360  146.3680 O   0  0  0  0  0  1  0  0  0  0  0  0
  2 24  1  1  0  0  0
  3 11  2  0  0  0  0
  4 21  2  0  0  0  0
  4  3  1  0  0  0  0
  5 25  1  1  0  0  0
  6 18  1  1  0  0  0
  6  5  1  0  0  0  0
  7 24  1  6  0  0  0
  7 19  1  0  0  0  0
  9 26  1  1  0  0  0
  9 28  1  0  0  0  0
  9 15  1  0  0  0  0
 10 20  1  0  0  0  0
 11 13  1  0  0  0  0
 12  2  1  0  0  0  0
 12  8  1  0  0  0  0
 13 12  2  0  0  0  0
 14 27  1  0  0  0  0
 15 18  1  0  0  0  0
 16  1  1  0  0  0  0
 17  8  1  6  0  0  0
 17  7  1  0  0  0  0
 17 10  1  0  0  0  0
 19 16  1  0  0  0  0
 20  1  1  0  0  0  0
 20 29  1  0  0  0  0
 21 22  1  0  0  0  0
 22 14  2  0  0  0  0
 22 13  1  0  0  0  0
 23 28  2  0  0  0  0
 23 14  1  0  0  0  0
 27  5  1  0  0  0  0
 27  2  1  0  0  0  0
 28  6  1  0  0  0  0
 29 30  1  0  0  0  0
 30 31  1  1  0  0  0
 32 30  1  0  0  0  0
M  END
>  <MODEL>
1

>  <REMARK>
 VINA RESULT:      -8.8      0.000      0.000
  Name = 
  2 active torsions:
  status: ('A' for Active; 'I' for Inactive)
    1  A    between atoms: N_20  and  C_29
    2  A    between atoms: C_29  and  C_30
                            x       y       z     vdW  Elec       q    Type
                         _______ _______ _______ _____ _____    ______ ____

>  <TORSDO>
F 2

$$$$
=
 OpenBabel11122410513D

 32 37  0  0  1  0  0  0  0  0999 V2000
  191.0190  177.0940  137.3410 C   0  0  0  0  0  2  0  0  0  0  0  0
  189.0590  177.8410  141.8930 C   0  0  2  0  0  3  0  0  0  0  0  0
  184.2350  178.8310  142.2810 C   0  0  0  0  0  3  0  0  0  0  0  0
  184.2970  178.6320  143.6580 C   0  0  0  0  0  3  0  0  0  0  0  0
  190.3500  177.5570  144.0790 C   0  0  2  0  0  3  0  0  0  0  0  0
  190.2960  178.1260  145.4970 C   0  0  2  0  0  3  0  0  0  0  0  0
  189.2670  176.3830  139.7990 C   0  0  1  0  0  3  0  0  0  0  0  0
  187.6300  178.3280  139.8070 C   0  0  0  0  0  2  0  0  0  0  0  0
  189.2490  177.2250  147.5380 C   0  0  2  0  0  3  0  0  0  0  0  0
  188.6870  177.6740  137.6150 C   0  0  0  0  0  2  0  0  0  0  0  0
  185.3900  178.7140  141.5080 C   0  0  0  0  0  3  0  0  0  0  0  0
  187.7240  178.2540  141.3150 C   0  0  0  0  0  0  0  0  0  0  0  0
  186.6310  178.3990  142.0930 C   0  0  0  0  0  0  0  0  0  0  0  0
  187.8570  177.9270  144.1150 C   0  0  0  0  0  0  0  0  0  0  0  0
  190.7370  177.0680  147.5410 C   0  0  0  0  0  2  0  0  0  0  0  0
  191.3220  176.5670  138.7530 C   0  0  0  0  0  2  0  0  0  0  0  0
  188.8710  177.7370  139.1370 C   0  0  2  0  0  3  0  0  0  0  0  0
  191.3060  177.5340  146.4240 C   0  0  0  0  0  2  0  0  0  0  0  0
  190.3230  175.6690  139.1770 O   0  0  0  0  0  0  0  0  0  0  0  0
  189.6420  176.7860  136.9430 N   0  0  0  0  0  0  0  0  0  0  0  0
  185.5160  178.3210  144.2600 C   0  0  0  0  0  3  0  0  0  0  0  0
  186.6930  178.2060  143.5000 C   0  0  0  0  0  0  0  0  0  0  0  0
  187.8960  177.6890  145.5310 N   0  0  0  0  0  0  0  0  0  0  0  0
  189.4880  176.4830  141.3200 C   0  0  0  0  0  2  0  0  0  0  0  0
  191.5480  178.1630  143.3570 C   0  0  0  0  0  1  0  0  0  0  0  0
  188.6110  175.8580  147.7170 C   0  0  0  0  0  1  0  0  0  0  0  0
  189.0890  177.8430  143.3610 N   0  0  0  0  0  0  0  0  0  0  0  0
  189.0290  177.7340  146.1600 C   0  0  0  0  0  0  0  0  0  0  0  0
  189.5350  177.0610  135.5200 C   0  0  0  0  0  2  0  0  0  0  0  0
  188.9080  175.8780  134.8020 C   0  0  2  0  0  3  0  0  0  0  0  0
  187.4250  176.1230  134.6320 C   0  0  0  0  0  1  0  0  0  0  0  0
  189.1010  174.7160  135.5480 O   0  0  0  0  0  1  0  0  0  0  0  0
  1 16  1  0  0  0  0
  2 24  1  1  0  0  0
  2 27  1  0  0  0  0
  3  4  1  0  0  0  0
  4 21  2  0  0  0  0
  5 25  1  6  0  0  0
  5  6  1  0  0  0  0
  6 28  1  0  0  0  0
  6 18  1  1  0  0  0
  7 24  1  1  0  0  0
  8 12  1  0  0  0  0
  9 15  1  0  0  0  0
  9 26  1  6  0  0  0
 11 13  1  0  0  0  0
 11  3  2  0  0  0  0
 12  2  1  0  0  0  0
 12 13  2  0  0  0  0
 13 22  1  0  0  0  0
 14 23  1  0  0  0  0
 16 19  1  0  0  0  0
 17 10  1  6  0  0  0
 17  7  1  0  0  0  0
 17  8  1  0  0  0  0
 18 15  1  0  0  0  0
 19  7  1  0  0  0  0
 20  1  1  0  0  0  0
 20 10  1  0  0  0  0
 22 14  2  0  0  0  0
 22 21  1  0  0  0  0
 23 28  2  0  0  0  0
 27  5  1  0  0  0  0
 27 14  1  0  0  0  0
 28  9  1  0  0  0  0
 29 20  1  0  0  0  0
 30 31  1  1  0  0  0
 30 29  1  0  0  0  0
 30 32  1  0  0  0  0
M  END
>  <MODEL>
2

>  <REMARK>
 VINA RESULT:      -8.3      2.698      8.184
  Name = 
  2 active torsions:
  status: ('A' for Active; 'I' for Inactive)
    1  A    between atoms: N_20  and  C_29
    2  A    between atoms: C_29  and  C_30
                            x       y       z     vdW  Elec       q    Type
                         _______ _______ _______ _____ _____    ______ ____

>  <TORSDO>
F 2

$$$$
=
 OpenBabel11122410513D

 32 37  0  0  1  0  0  0  0  0999 V2000
  188.6630  177.4210  137.2810 C   0  0  0  0  0  2  0  0  0  0  0  0
  188.1860  177.3010  142.2690 C   0  0  2  0  0  3  0  0  0  0  0  0
  192.0650  175.9340  145.0050 C   0  0  0  0  0  3  0  0  0  0  0  0
  191.4190  176.3780  146.1560 C   0  0  0  0  0  3  0  0  0  0  0  0
  186.1120  178.0890  143.5340 C   0  0  2  0  0  3  0  0  0  0  0  0
  185.4190  177.7760  144.8620 C   0  0  2  0  0  3  0  0  0  0  0  0
  189.2000  178.3810  140.1810 C   0  0  1  0  0  3  0  0  0  0  0  0
  190.3020  176.3190  141.1780 C   0  0  0  0  0  2  0  0  0  0  0  0
  185.5610  178.9180  147.0410 C   0  0  2  0  0  3  0  0  0  0  0  0
  190.4830  176.6750  138.6900 C   0  0  0  0  0  2  0  0  0  0  0  0
  191.4250  176.0250  143.7690 C   0  0  0  0  0  3  0  0  0  0  0  0
  189.5480  176.6650  142.4430 C   0  0  0  0  0  0  0  0  0  0  0  0
  190.1260  176.5560  143.6570 C   0  0  0  0  0  0  0  0  0  0  0  0
  188.2150  177.4930  144.7890 C   0  0  0  0  0  0  0  0  0  0  0  0
  184.2830  179.2150  146.3200 C   0  0  0  0  0  2  0  0  0  0  0  0
  187.8460  178.2140  138.3120 C   0  0  0  0  0  2  0  0  0  0  0  0
  189.6190  176.8990  139.9390 C   0  0  2  0  0  3  0  0  0  0  0  0
  184.2140  178.6170  145.1260 C   0  0  0  0  0  2  0  0  0  0  0  0
  188.6780  179.0730  139.0580 O   0  0  0  0  0  0  0  0  0  0  0  0
  190.1010  177.5200  137.5520 N   0  0  0  0  0  0  0  0  0  0  0  0
  190.1310  176.9060  146.0700 C   0  0  0  0  0  3  0  0  0  0  0  0
  189.4660  176.9980  144.8350 C   0  0  0  0  0  0  0  0  0  0  0  0
  187.5770  177.9790  145.9810 N   0  0  0  0  0  0  0  0  0  0  0  0
  188.2980  178.5720  141.4150 C   0  0  0  0  0  2  0  0  0  0  0  0
  185.2890  177.4840  142.4020 C   0  0  0  0  0  1  0  0  0  0  0  0
  186.2670  180.2270  147.3490 C   0  0  0  0  0  1  0  0  0  0  0  0
  187.4930  177.5610  143.5370 N   0  0  0  0  0  0  0  0  0  0  0  0
  186.2930  178.1540  145.9980 C   0  0  0  0  0  0  0  0  0  0  0  0
  190.7940  176.9880  136.3900 C   0  0  0  0  0  2  0  0  0  0  0  0
  191.6440  175.7940  136.7880 C   0  0  2  0  0  3  0  0  0  0  0  0
  193.0750  176.0300  136.3550 C   0  0  0  0  0  1  0  0  0  0  0  0
  191.1590  174.6410  136.1690 O   0  0  0  0  0  1  0  0  0  0  0  0
  1 20  1  0  0  0  0
  1 16  1  0  0  0  0
  2 24  1  1  0  0  0
  2 12  1  0  0  0  0
  2 27  1  0  0  0  0
  3  4  1  0  0  0  0
  5 25  1  6  0  0  0
  5 27  1  0  0  0  0
  5  6  1  0  0  0  0
  6 18  1  1  0  0  0
  6 28  1  0  0  0  0
  7 24  1  1  0  0  0
  8 12  1  0  0  0  0
  9 26  1  6  0  0  0
 11  3  2  0  0  0  0
 12 13  2  0  0  0  0
 13 11  1  0  0  0  0
 13 22  1  0  0  0  0
 14 22  2  0  0  0  0
 14 23  1  0  0  0  0
 15  9  1  0  0  0  0
 16 19  1  0  0  0  0
 17 10  1  6  0  0  0
 17  7  1  0  0  0  0
 17  8  1  0  0  0  0
 18 15  1  0  0  0  0
 19  7  1  0  0  0  0
 20 10  1  0  0  0  0
 21  4  2  0  0  0  0
 22 21  1  0  0  0  0
 23 28  2  0  0  0  0
 27 14  1  0  0  0  0
 28  9  1  0  0  0  0
 29 30  1  0  0  0  0
 29 20  1  0  0  0  0
 30 31  1  6  0  0  0
 32 30  1  0  0  0  0
M  END
>  <MODEL>
3

>  <REMARK>
 VINA RESULT:      -8.3      3.000      7.043
  Name = 
  2 active torsions:
  status: ('A' for Active; 'I' for Inactive)
    1  A    between atoms: N_20  and  C_29
    2  A    between atoms: C_29  and  C_30
                            x       y       z     vdW  Elec       q    Type
                         _______ _______ _______ _____ _____    ______ ____

>  <TORSDO>
F 2

$$$$
=
 OpenBabel11122410513D

 32 37  0  0  1  0  0  0  0  0999 V2000
  189.0680  177.7730  147.0170 C   0  0  0  0  0  2  0  0  0  0  0  0
  186.5640  178.3740  142.7170 C   0  0  2  0  0  3  0  0  0  0  0  0
  189.0450  178.1140  138.4530 C   0  0  0  0  0  3  0  0  0  0  0  0
  187.8440  178.0560  137.7500 C   0  0  0  0  0  3  0  0  0  0  0  0
  184.0270  178.6210  142.5540 C   0  0  2  0  0  3  0  0  0  0  0  0
  183.0210  179.2760  141.6060 C   0  0  2  0  0  3  0  0  0  0  0  0
  187.8470  176.8460  144.3210 C   0  0  1  0  0  3  0  0  0  0  0  0
  189.1380  178.2960  142.6790 C   0  0  0  0  0  2  0  0  0  0  0  0
  181.7210  178.3120  139.7470 C   0  0  2  0  0  3  0  0  0  0  0  0
  190.2200  177.7520  144.8890 C   0  0  0  0  0  2  0  0  0  0  0  0
  189.0320  178.2340  139.8430 C   0  0  0  0  0  3  0  0  0  0  0  0
  187.8410  178.3780  141.9050 C   0  0  0  0  0  0  0  0  0  0  0  0
  187.8220  178.3010  140.5580 C   0  0  0  0  0  0  0  0  0  0  0  0
  185.4130  178.3360  140.4670 C   0  0  0  0  0  0  0  0  0  0  0  0
  180.8880  178.5460  140.9680 C   0  0  0  0  0  2  0  0  0  0  0  0
  187.6400  177.4650  146.5400 C   0  0  0  0  0  2  0  0  0  0  0  0
  188.8920  177.9910  144.1580 C   0  0  2  0  0  3  0  0  0  0  0  0
  181.5950  179.0460  141.9860 C   0  0  0  0  0  2  0  0  0  0  0  0
  187.6350  176.3790  145.6430 O   0  0  0  0  0  0  0  0  0  0  0  0
  190.0640  177.0870  146.1880 N   0  0  0  0  0  0  0  0  0  0  0  0
  186.6330  178.1240  138.4370 C   0  0  0  0  0  3  0  0  0  0  0  0
  186.5980  178.2520  139.8360 C   0  0  0  0  0  0  0  0  0  0  0  0
  184.1840  178.2390  139.7290 N   0  0  0  0  0  0  0  0  0  0  0  0
  186.5080  177.1300  143.6140 C   0  0  0  0  0  2  0  0  0  0  0  0
  184.1050  179.4520  143.8290 C   0  0  0  0  0  1  0  0  0  0  0  0
  181.6210  176.8480  139.3570 C   0  0  0  0  0  1  0  0  0  0  0  0
  185.3500  178.5090  141.9020 N   0  0  0  0  0  0  0  0  0  0  0  0
  183.0740  178.6290  140.2730 C   0  0  0  0  0  0  0  0  0  0  0  0
  191.3430  177.2030  146.8690 C   0  0  0  0  0  2  0  0  0  0  0  0
  191.8150  175.8360  147.3360 C   0  0  2  0  0  3  0  0  0  0  0  0
  192.8050  176.0060  148.4670 C   0  0  0  0  0  1  0  0  0  0  0  0
  192.4310  175.1630  146.2810 O   0  0  0  0  0  1  0  0  0  0  0  0
  2 24  1  6  0  0  0
  3 11  2  0  0  0  0
  4 21  2  0  0  0  0
  4  3  1  0  0  0  0
  5 25  1  1  0  0  0
  6 18  1  1  0  0  0
  6  5  1  0  0  0  0
  7 24  1  1  0  0  0
  7 19  1  0  0  0  0
  9 26  1  1  0  0  0
  9 28  1  0  0  0  0
  9 15  1  0  0  0  0
 10 20  1  0  0  0  0
 11 13  1  0  0  0  0
 12  8  1  0  0  0  0
 12  2  1  0  0  0  0
 13 12  2  0  0  0  0
 14 27  1  0  0  0  0
 15 18  1  0  0  0  0
 16  1  1  0  0  0  0
 17  8  1  6  0  0  0
 17  7  1  0  0  0  0
 17 10  1  0  0  0  0
 19 16  1  0  0  0  0
 20 29  1  0  0  0  0
 20  1  1  0  0  0  0
 21 22  1  0  0  0  0
 22 14  2  0  0  0  0
 22 13  1  0  0  0  0
 23 28  2  0  0  0  0
 23 14  1  0  0  0  0
 27  5  1  0  0  0  0
 27  2  1  0  0  0  0
 28  6  1  0  0  0  0
 29 30  1  0  0  0  0
 30 31  1  1  0  0  0
 32 30  1  0  0  0  0
M  END
>  <MODEL>
4

>  <REMARK>
 VINA RESULT:      -8.2      1.454      1.979
  Name = 
  2 active torsions:
  status: ('A' for Active; 'I' for Inactive)
    1  A    between atoms: N_20  and  C_29
    2  A    between atoms: C_29  and  C_30
                            x       y       z     vdW  Elec       q    Type
                         _______ _______ _______ _____ _____    ______ ____

>  <TORSDO>
F 2

$$$$
=
 OpenBabel11122410513D

 32 37  0  0  1  0  0  0  0  0999 V2000
  188.6880  177.2200  142.1060 C   0  0  0  0  0  2  0  0  0  0  0  0
  184.0680  178.0870  140.3670 C   0  0  2  0  0  3  0  0  0  0  0  0
  180.5800  179.6100  143.5160 C   0  0  0  0  0  3  0  0  0  0  0  0
  179.7430  179.9240  142.4490 C   0  0  0  0  0  3  0  0  0  0  0  0
  183.4180  177.9810  137.9000 C   0  0  2  0  0  3  0  0  0  0  0  0
  182.1580  177.6900  137.0820 C   0  0  2  0  0  3  0  0  0  0  0  0
  186.2630  178.9890  141.3270 C   0  0  1  0  0  3  0  0  0  0  0  0
  184.4840  178.0960  142.9090 C   0  0  0  0  0  2  0  0  0  0  0  0
  180.5130  179.2320  136.0860 C   0  0  2  0  0  3  0  0  0  0  0  0
  186.8990  177.8790  143.5940 C   0  0  0  0  0  2  0  0  0  0  0  0
  181.8380  179.0570  143.2750 C   0  0  0  0  0  3  0  0  0  0  0  0
  183.5200  178.3020  141.7610 C   0  0  0  0  0  0  0  0  0  0  0  0
  182.2840  178.8020  141.9650 C   0  0  0  0  0  0  0  0  0  0  0  0
  181.7890  178.8700  139.6060 C   0  0  0  0  0  0  0  0  0  0  0  0
  181.4410  178.6480  135.0670 C   0  0  0  0  0  2  0  0  0  0  0  0
  188.1050  177.7050  140.7700 C   0  0  0  0  0  2  0  0  0  0  0  0
  185.9200  177.9240  142.4130 C   0  0  2  0  0  3  0  0  0  0  0  0
  182.3500  177.8300  135.6080 C   0  0  0  0  0  2  0  0  0  0  0  0
  187.6110  179.0200  140.8870 O   0  0  0  0  0  0  0  0  0  0  0  0
  188.2970  178.1030  143.2090 N   0  0  0  0  0  0  0  0  0  0  0  0
  180.1630  179.6790  141.1410 C   0  0  0  0  0  3  0  0  0  0  0  0
  181.4230  179.1150  140.8780 C   0  0  0  0  0  0  0  0  0  0  0  0
  180.9270  179.2330  138.5150 N   0  0  0  0  0  0  0  0  0  0  0  0
  185.2910  178.9840  140.1320 C   0  0  0  0  0  2  0  0  0  0  0  0
  184.3580  176.7870  137.7850 C   0  0  0  0  0  1  0  0  0  0  0  0
  180.5970  180.7470  136.0160 C   0  0  0  0  0  1  0  0  0  0  0  0
  183.0630  178.2540  139.3100 N   0  0  0  0  0  0  0  0  0  0  0  0
  181.1270  178.7250  137.3400 C   0  0  0  0  0  0  0  0  0  0  0  0
  189.1080  177.7380  144.3590 C   0  0  0  0  0  2  0  0  0  0  0  0
  190.5800  177.9660  144.0560 C   0  0  2  0  0  3  0  0  0  0  0  0
  191.4210  177.3010  145.1240 C   0  0  0  0  0  1  0  0  0  0  0  0
  190.8530  179.3340  144.0380 O   0  0  0  0  0  1  0  0  0  0  0  0
  1 20  1  0  0  0  0
  2 24  1  6  0  0  0
  2 12  1  0  0  0  0
  4  3  1  0  0  0  0
  5 25  1  1  0  0  0
  5 27  1  0  0  0  0
  6 18  1  6  0  0  0
  6 28  1  0  0  0  0
  6  5  1  0  0  0  0
  7 24  1  6  0  0  0
  7 17  1  0  0  0  0
  9 26  1  1  0  0  0
  9 28  1  0  0  0  0
 11  3  2  0  0  0  0
 12 13  2  0  0  0  0
 12  8  1  0  0  0  0
 13 11  1  0  0  0  0
 14 22  2  0  0  0  0
 15 18  1  0  0  0  0
 15  9  1  0  0  0  0
 16 19  1  0  0  0  0
 16  1  1  0  0  0  0
 17  8  1  1  0  0  0
 17 10  1  0  0  0  0
 19  7  1  0  0  0  0
 20 10  1  0  0  0  0
 20 29  1  0  0  0  0
 21  4  2  0  0  0  0
 22 21  1  0  0  0  0
 22 13  1  0  0  0  0
 23 14  1  0  0  0  0
 27 14  1  0  0  0  0
 27  2  1  0  0  0  0
 28 23  2  0  0  0  0
 30 29  1  0  0  0  0
 30 31  1  1  0  0  0
 32 30  1  0  0  0  0
M  END
>  <MODEL>
5

>  <REMARK>
 VINA RESULT:      -8.2      2.847      6.018
  Name = 
  2 active torsions:
  status: ('A' for Active; 'I' for Inactive)
    1  A    between atoms: N_20  and  C_29
    2  A    between atoms: C_29  and  C_30
                            x       y       z     vdW  Elec       q    Type
                         _______ _______ _______ _____ _____    ______ ____

>  <TORSDO>
F 2

$$$$
=
 OpenBabel11122410513D

 32 37  0  0  1  0  0  0  0  0999 V2000
  181.0310  178.7630  143.6220 C   0  0  0  0  0  2  0  0  0  0  0  0
  185.8860  178.0730  142.5840 C   0  0  2  0  0  3  0  0  0  0  0  0
  187.4140  178.5250  137.9080 C   0  0  0  0  0  3  0  0  0  0  0  0
  188.7400  178.5230  138.3340 C   0  0  0  0  0  3  0  0  0  0  0  0
  187.6910  177.6850  144.3480 C   0  0  2  0  0  3  0  0  0  0  0  0
  189.0500  176.9860  144.4300 C   0  0  2  0  0  3  0  0  0  0  0  0
  183.8800  179.6520  142.7780 C   0  0  1  0  0  3  0  0  0  0  0  0
  184.1990  178.2980  140.6500 C   0  0  0  0  0  2  0  0  0  0  0  0
  191.3280  177.8970  144.2040 C   0  0  2  0  0  3  0  0  0  0  0  0
  181.8480  178.8740  141.3480 C   0  0  0  0  0  2  0  0  0  0  0  0
  186.3840  178.3880  138.8390 C   0  0  0  0  0  3  0  0  0  0  0  0
  185.6390  178.1510  141.0930 C   0  0  0  0  0  0  0  0  0  0  0  0
  186.6570  178.2430  140.2120 C   0  0  0  0  0  0  0  0  0  0  0  0
  188.3300  178.0730  141.9400 C   0  0  0  0  0  0  0  0  0  0  0  0
  190.9680  177.6020  145.6260 C   0  0  0  0  0  2  0  0  0  0  0  0
  182.3470  178.9950  144.3810 C   0  0  0  0  0  2  0  0  0  0  0  0
  183.2710  178.5700  141.8340 C   0  0  2  0  0  3  0  0  0  0  0  0
  189.7230  177.1300  145.7550 C   0  0  0  0  0  2  0  0  0  0  0  0
  183.0500  180.0900  143.8410 O   0  0  0  0  0  0  0  0  0  0  0  0
  181.0040  179.5140  142.3630 N   0  0  0  0  0  0  0  0  0  0  0  0
  189.0340  178.3790  139.6900 C   0  0  0  0  0  3  0  0  0  0  0  0
  188.0110  178.2320  140.6420 C   0  0  0  0  0  0  0  0  0  0  0  0
  189.7010  178.1100  142.3660 N   0  0  0  0  0  0  0  0  0  0  0  0
  185.2910  179.3010  143.2860 C   0  0  0  0  0  2  0  0  0  0  0  0
  186.6650  176.8450  145.0990 C   0  0  0  0  0  1  0  0  0  0  0  0
  191.7270  179.3580  144.0920 C   0  0  0  0  0  1  0  0  0  0  0  0
  187.2980  177.8800  142.9350 N   0  0  0  0  0  0  0  0  0  0  0  0
  190.0250  177.6510  143.5340 C   0  0  0  0  0  0  0  0  0  0  0  0
  179.6400  179.4620  141.8620 C   0  0  0  0  0  2  0  0  0  0  0  0
  179.6360  179.5370  140.3440 C   0  0  2  0  0  3  0  0  0  0  0  0
  178.9740  180.8250  139.9070 C   0  0  0  0  0  1  0  0  0  0  0  0
  178.9310  178.4540  139.8190 O   0  0  0  0  0  1  0  0  0  0  0  0
  1 16  1  0  0  0  0
  2 27  1  0  0  0  0
  2 24  1  1  0  0  0
  3  4  1  0  0  0  0
  3 11  2  0  0  0  0
  4 21  2  0  0  0  0
  5  6  1  0  0  0  0
  5 25  1  1  0  0  0
  6 18  1  1  0  0  0
  7 24  1  1  0  0  0
  7 19  1  0  0  0  0
  8 12  1  0  0  0  0
  9 26  1  1  0  0  0
  9 15  1  0  0  0  0
 10 17  1  0  0  0  0
 10 20  1  0  0  0  0
 11 13  1  0  0  0  0
 12  2  1  0  0  0  0
 13 22  1  0  0  0  0
 13 12  2  0  0  0  0
 14 23  1  0  0  0  0
 14 27  1  0  0  0  0
 15 18  1  0  0  0  0
 17  8  1  6  0  0  0
 17  7  1  0  0  0  0
 19 16  1  0  0  0  0
 20  1  1  0  0  0  0
 21 22  1  0  0  0  0
 22 14  2  0  0  0  0
 23 28  2  0  0  0  0
 27  5  1  0  0  0  0
 28  9  1  0  0  0  0
 28  6  1  0  0  0  0
 29 20  1  0  0  0  0
 30 31  1  1  0  0  0
 30 29  1  0  0  0  0
 32 30  1  0  0  0  0
M  END
>  <MODEL>
6

>  <REMARK>
 VINA RESULT:      -8.1      3.280      8.035
  Name = 
  2 active torsions:
  status: ('A' for Active; 'I' for Inactive)
    1  A    between atoms: N_20  and  C_29
    2  A    between atoms: C_29  and  C_30
                            x       y       z     vdW  Elec       q    Type
                         _______ _______ _______ _____ _____    ______ ____

>  <TORSDO>
F 2

$$$$
=
 OpenBabel11122410513D

 32 37  0  0  1  0  0  0  0  0999 V2000
  189.3190  178.2330  145.7220 C   0  0  0  0  0  2  0  0  0  0  0  0
  185.4900  178.5850  142.5070 C   0  0  2  0  0  3  0  0  0  0  0  0
  186.3880  178.1540  137.6690 C   0  0  0  0  0  3  0  0  0  0  0  0
  185.0230  178.0440  137.4180 C   0  0  0  0  0  3  0  0  0  0  0  0
  183.0410  178.7850  143.2060 C   0  0  2  0  0  3  0  0  0  0  0  0
  181.7540  179.3780  142.6290 C   0  0  2  0  0  3  0  0  0  0  0  0
  187.2870  177.1570  143.6410 C   0  0  1  0  0  3  0  0  0  0  0  0
  187.9010  178.5440  141.6010 C   0  0  0  0  0  2  0  0  0  0  0  0
  179.9320  178.3040  141.3640 C   0  0  2  0  0  3  0  0  0  0  0  0
  189.6830  178.1260  143.3330 C   0  0  0  0  0  2  0  0  0  0  0  0
  186.8430  178.3420  138.9740 C   0  0  0  0  0  3  0  0  0  0  0  0
  186.4160  178.5690  141.3110 C   0  0  0  0  0  0  0  0  0  0  0  0
  185.9440  178.4260  140.0550 C   0  0  0  0  0  0  0  0  0  0  0  0
  183.6470  178.4190  140.7860 C   0  0  0  0  0  0  0  0  0  0  0  0
  179.5540  178.5850  142.7840 C   0  0  0  0  0  2  0  0  0  0  0  0
  187.8250  177.8800  145.7720 C   0  0  0  0  0  2  0  0  0  0  0  0
  188.1790  178.3080  143.0860 C   0  0  2  0  0  3  0  0  0  0  0  0
  180.5490  179.1440  143.4810 C   0  0  0  0  0  2  0  0  0  0  0  0
  187.5490  176.7520  144.9750 O   0  0  0  0  0  0  0  0  0  0  0  0
  189.9970  177.5220  144.6330 N   0  0  0  0  0  0  0  0  0  0  0  0
  184.1140  178.1260  138.4730 C   0  0  0  0  0  3  0  0  0  0  0  0
  184.5510  178.3220  139.7940 C   0  0  0  0  0  0  0  0  0  0  0  0
  182.2450  178.2670  140.5130 N   0  0  0  0  0  0  0  0  0  0  0  0
  185.7790  177.3850  143.4200 C   0  0  0  0  0  2  0  0  0  0  0  0
  183.5210  179.6780  144.3430 C   0  0  0  0  0  1  0  0  0  0  0  0
  179.7510  176.8210  141.0910 C   0  0  0  0  0  1  0  0  0  0  0  0
  184.0680  178.6610  142.1480 N   0  0  0  0  0  0  0  0  0  0  0  0
  181.3720  178.6660  141.3860 C   0  0  0  0  0  0  0  0  0  0  0  0
  191.4270  177.6910  144.8350 C   0  0  0  0  0  2  0  0  0  0  0  0
  192.0550  176.3750  145.2580 C   0  0  2  0  0  3  0  0  0  0  0  0
  191.6800  175.2970  144.2650 C   0  0  0  0  0  1  0  0  0  0  0  0
  191.5940  176.0160  146.5250 O   0  0  0  0  0  1  0  0  0  0  0  0
  1 16  1  0  0  0  0
  2 24  1  6  0  0  0
  3 11  2  0  0  0  0
  4  3  1  0  0  0  0
  4 21  2  0  0  0  0
  5 25  1  1  0  0  0
  6  5  1  0  0  0  0
  6 18  1  1  0  0  0
  7 24  1  1  0  0  0
  7 19  1  0  0  0  0
  9 26  1  1  0  0  0
  9 28  1  0  0  0  0
  9 15  1  0  0  0  0
 10 20  1  0  0  0  0
 11 13  1  0  0  0  0
 12  8  1  0  0  0  0
 12  2  1  0  0  0  0
 13 12  2  0  0  0  0
 14 27  1  0  0  0  0
 15 18  1  0  0  0  0
 17  8  1  6  0  0  0
 17 10  1  0  0  0  0
 17  7  1  0  0  0  0
 19 16  1  0  0  0  0
 20 29  1  0  0  0  0
 20  1  1  0  0  0  0
 21 22  1  0  0  0  0
 22 13  1  0  0  0  0
 22 14  2  0  0  0  0
 23 14  1  0  0  0  0
 23 28  2  0  0  0  0
 27  2  1  0  0  0  0
 27  5  1  0  0  0  0
 28  6  1  0  0  0  0
 29 30  1  0  0  0  0
 30 31  1  6  0  0  0
 30 32  1  0  0  0  0
M  END
>  <MODEL>
7

>  <REMARK>
 VINA RESULT:      -8.0      2.383      3.640
  Name = 
  2 active torsions:
  status: ('A' for Active; 'I' for Inactive)
    1  A    between atoms: N_20  and  C_29
    2  A    between atoms: C_29  and  C_30
                            x       y       z     vdW  Elec       q    Type
                         _______ _______ _______ _____ _____    ______ ____

>  <TORSDO>
F 2

$$$$
=
 OpenBabel11122410513D

 32 37  0  0  1  0  0  0  0  0999 V2000
  190.4130  176.8920  140.5690 C   0  0  0  0  0  2  0  0  0  0  0  0
  185.5090  177.8780  140.8930 C   0  0  2  0  0  3  0  0  0  0  0  0
  183.5580  178.8540  145.3240 C   0  0  0  0  0  3  0  0  0  0  0  0
  182.3840  179.2940  144.7190 C   0  0  0  0  0  3  0  0  0  0  0  0
  183.9530  178.1040  138.8790 C   0  0  2  0  0  3  0  0  0  0  0  0
  182.4660  177.8990  138.5810 C   0  0  2  0  0  3  0  0  0  0  0  0
  187.9320  178.6910  141.0450 C   0  0  1  0  0  3  0  0  0  0  0  0
  186.8750  177.5400  143.0500 C   0  0  0  0  0  2  0  0  0  0  0  0
  180.6140  179.5240  138.5240 C   0  0  2  0  0  3  0  0  0  0  0  0
  189.3590  177.2900  142.7100 C   0  0  0  0  0  2  0  0  0  0  0  0
  184.6070  178.3730  144.5410 C   0  0  0  0  0  3  0  0  0  0  0  0
  185.5490  177.8810  142.4050 C   0  0  0  0  0  0  0  0  0  0  0  0
  184.5040  178.3160  143.1380 C   0  0  0  0  0  0  0  0  0  0  0  0
  183.1390  178.7030  141.1890 C   0  0  0  0  0  0  0  0  0  0  0  0
  181.0570  179.1130  137.1550 C   0  0  0  0  0  2  0  0  0  0  0  0
  189.3740  177.5460  139.6450 C   0  0  0  0  0  2  0  0  0  0  0  0
  188.0020  177.4760  142.0180 C   0  0  2  0  0  3  0  0  0  0  0  0
  182.0790  178.2510  137.1820 C   0  0  0  0  0  2  0  0  0  0  0  0
  189.0050  178.8180  140.1260 O   0  0  0  0  0  0  0  0  0  0  0  0
  190.5060  177.6010  141.8490 N   0  0  0  0  0  0  0  0  0  0  0  0
  182.2580  179.2460  143.3300 C   0  0  0  0  0  3  0  0  0  0  0  0
  183.3000  178.7570  142.5240 C   0  0  0  0  0  0  0  0  0  0  0  0
  181.9340  179.1940  140.5790 N   0  0  0  0  0  0  0  0  0  0  0  0
  186.5740  178.8300  140.3300 C   0  0  0  0  0  2  0  0  0  0  0  0
  184.7380  176.9620  138.2450 C   0  0  0  0  0  1  0  0  0  0  0  0
  180.7120  181.0350  138.6390 C   0  0  0  0  0  1  0  0  0  0  0  0
  184.1790  178.1670  140.3400 N   0  0  0  0  0  0  0  0  0  0  0  0
  181.6490  178.8610  139.3590 C   0  0  0  0  0  0  0  0  0  0  0  0
  191.6860  177.0990  142.5330 C   0  0  0  0  0  2  0  0  0  0  0  0
  191.2940  176.4520  143.8510 C   0  0  2  0  0  3  0  0  0  0  0  0
  191.6780  177.3680  144.9930 C   0  0  0  0  0  1  0  0  0  0  0  0
  191.9560  175.2330  143.9940 O   0  0  0  0  0  1  0  0  0  0  0  0
  1 20  1  0  0  0  0
  2 24  1  6  0  0  0
  2 12  1  0  0  0  0
  4  3  1  0  0  0  0
  5 25  1  1  0  0  0
  5 27  1  0  0  0  0
  6 18  1  6  0  0  0
  6  5  1  0  0  0  0
  6 28  1  0  0  0  0
  7 24  1  6  0  0  0
  7 17  1  0  0  0  0
  9 26  1  6  0  0  0
  9 28  1  0  0  0  0
 11  3  2  0  0  0  0
 12  8  1  0  0  0  0
 12 13  2  0  0  0  0
 13 11  1  0  0  0  0
 14 22  2  0  0  0  0
 15 18  1  0  0  0  0
 15  9  1  0  0  0  0
 16 19  1  0  0  0  0
 16  1  1  0  0  0  0
 17 10  1  1  0  0  0
 17  8  1  0  0  0  0
 19  7  1  0  0  0  0
 20 29  1  0  0  0  0
 20 10  1  0  0  0  0
 21  4  2  0  0  0  0
 22 13  1  0  0  0  0
 22 21  1  0  0  0  0
 23 14  1  0  0  0  0
 27  2  1  0  0  0  0
 27 14  1  0  0  0  0
 28 23  2  0  0  0  0
 29 30  1  0  0  0  0
 30 32  1  0  0  0  0
 30 31  1  1  0  0  0
M  END
>  <MODEL>
8

>  <REMARK>
 VINA RESULT:      -7.7      2.473      5.258
  Name = 
  2 active torsions:
  status: ('A' for Active; 'I' for Inactive)
    1  A    between atoms: N_20  and  C_29
    2  A    between atoms: C_29  and  C_30
                            x       y       z     vdW  Elec       q    Type
                         _______ _______ _______ _____ _____    ______ ____

>  <TORSDO>
F 2

$$$$
=
 OpenBabel11122410513D

 32 37  0  0  1  0  0  0  0  0999 V2000
  189.5310  177.7220  145.6720 C   0  0  0  0  0  2  0  0  0  0  0  0
  189.2600  177.5140  140.6720 C   0  0  2  0  0  3  0  0  0  0  0  0
  193.3230  176.3650  138.1080 C   0  0  0  0  0  3  0  0  0  0  0  0
  192.5570  176.1940  136.9570 C   0  0  0  0  0  3  0  0  0  0  0  0
  187.0980  177.7770  139.3370 C   0  0  2  0  0  3  0  0  0  0  0  0
  186.6910  178.2530  137.9420 C   0  0  2  0  0  3  0  0  0  0  0  0
  189.5310  176.3070  142.9130 C   0  0  1  0  0  3  0  0  0  0  0  0
  191.5620  177.3760  141.8190 C   0  0  0  0  0  2  0  0  0  0  0  0
  186.2480  176.9680  135.8860 C   0  0  2  0  0  3  0  0  0  0  0  0
  191.4930  177.2570  144.3350 C   0  0  0  0  0  2  0  0  0  0  0  0
  192.7120  176.7570  139.2980 C   0  0  0  0  0  3  0  0  0  0  0  0
  190.7560  177.3310  140.5400 C   0  0  0  0  0  0  0  0  0  0  0  0
  191.3250  176.9900  139.3640 C   0  0  0  0  0  0  0  0  0  0  0  0
  189.2220  177.0570  138.1860 C   0  0  0  0  0  0  0  0  0  0  0  0
  184.9920  177.4560  136.5370 C   0  0  0  0  0  2  0  0  0  0  0  0
  188.4350  177.3560  144.6590 C   0  0  0  0  0  2  0  0  0  0  0  0
  190.6580  177.3750  143.0530 C   0  0  2  0  0  3  0  0  0  0  0  0
  185.2280  178.1320  137.6670 C   0  0  0  0  0  2  0  0  0  0  0  0
  188.7080  176.1140  144.0520 O   0  0  0  0  0  0  0  0  0  0  0  0
  190.7100  176.8650  145.5130 N   0  0  0  0  0  0  0  0  0  0  0  0
  191.1820  176.4220  136.9980 C   0  0  0  0  0  3  0  0  0  0  0  0
  190.5480  176.8240  138.1860 C   0  0  0  0  0  0  0  0  0  0  0  0
  188.4430  176.8410  136.9990 N   0  0  0  0  0  0  0  0  0  0  0  0
  188.6810  176.4730  141.6390 C   0  0  0  0  0  2  0  0  0  0  0  0
  186.6950  178.8410  140.3510 C   0  0  0  0  0  1  0  0  0  0  0  0
  186.1730  175.4580  135.7430 C   0  0  0  0  0  1  0  0  0  0  0  0
  188.5530  177.5110  139.3850 N   0  0  0  0  0  0  0  0  0  0  0  0
  187.2560  177.3540  136.9070 C   0  0  0  0  0  0  0  0  0  0  0  0
  191.5610  177.0870  146.6700 C   0  0  0  0  0  2  0  0  0  0  0  0
  191.8720  175.7660  147.3530 C   0  0  2  0  0  3  0  0  0  0  0  0
  192.8540  176.0030  148.4800 C   0  0  0  0  0  1  0  0  0  0  0  0
  192.4310  174.8780  146.4330 O   0  0  0  0  0  1  0  0  0  0  0  0
  2 24  1  1  0  0  0
  3 11  2  0  0  0  0
  4 21  2  0  0  0  0
  4  3  1  0  0  0  0
  5 27  1  0  0  0  0
  5 25  1  1  0  0  0
  6 18  1  1  0  0  0
  6  5  1  0  0  0  0
  7 24  1  6  0  0  0
  7 17  1  0  0  0  0
  7 19  1  0  0  0  0
  9 26  1  1  0  0  0
  9 15  1  0  0  0  0
  9 28  1  0  0  0  0
 10 20  1  0  0  0  0
 11 13  1  0  0  0  0
 12  2  1  0  0  0  0
 12  8  1  0  0  0  0
 13 12  2  0  0  0  0
 14 27  1  0  0  0  0
 15 18  1  0  0  0  0
 16  1  1  0  0  0  0
 17  8  1  6  0  0  0
 17 10  1  0  0  0  0
 19 16  1  0  0  0  0
 20  1  1  0  0  0  0
 20 29  1  0  0  0  0
 21 22  1  0  0  0  0
 22 14  2  0  0  0  0
 22 13  1  0  0  0  0
 23 14  1  0  0  0  0
 27  2  1  0  0  0  0
 28 23  2  0  0  0  0
 28  6  1  0  0  0  0
 29 30  1  0  0  0  0
 30 31  1  1  0  0  0
 32 30  1  0  0  0  0
M  END
>  <MODEL>
9

>  <REMARK>
 VINA RESULT:      -7.7      1.478      2.017
  Name = 
  2 active torsions:
  status: ('A' for Active; 'I' for Inactive)
    1  A    between atoms: N_20  and  C_29
    2  A    between atoms: C_29  and  C_30
                            x       y       z     vdW  Elec       q    Type
                         _______ _______ _______ _____ _____    ______ ____

>  <TORSDO>
F 2

$$$$
