=
 OpenBabel11122412133D

 34 41  0  0  1  0  0  0  0  0999 V2000
  186.5610  178.3160  140.8370 C   0  0  0  0  0  0  0  0  0  0  0  0
  184.4030  178.6830  139.7810 C   0  0  0  0  0  3  0  0  0  0  0  0
  190.2190  176.7400  145.8950 C   0  0  2  0  0  3  0  0  0  0  0  0
  188.6300  177.9820  142.1140 C   0  0  0  0  0  0  0  0  0  0  0  0
  188.5470  177.8450  144.4980 C   0  0  0  0  0  0  0  0  0  0  0  0
  188.5520  177.3280  147.0780 C   0  0  0  0  0  2  0  0  0  0  0  0
  189.7450  176.3970  147.2900 C   0  0  0  0  0  2  0  0  0  0  0  0
  191.5960  178.1560  144.3800 C   0  0  0  0  0  2  0  0  0  0  0  0
  184.4700  178.5300  141.9690 C   0  0  0  0  0  0  0  0  0  0  0  0
  181.9860  178.6380  143.8730 C   0  0  0  0  0  2  0  0  0  0  0  0
  187.1660  178.0530  144.4750 C   0  0  0  0  0  3  0  0  0  0  0  0
  190.7340  177.5100  143.2740 C   0  0  0  0  0  2  0  0  0  0  0  0
  185.0800  178.3950  143.2380 C   0  0  0  0  0  0  0  0  0  0  0  0
  183.1010  178.8580  140.2240 C   0  0  0  0  0  3  0  0  0  0  0  0
  189.2800  177.8330  143.3190 N   0  0  0  0  0  0  0  0  0  0  0  0
  191.5990  177.3330  145.6860 C   0  0  0  0  0  2  0  0  0  0  0  0
  181.9980  178.9700  142.4550 N   0  0  0  0  0  0  0  0  0  0  0  0
  187.2280  178.1680  142.0730 C   0  0  0  0  0  0  0  0  0  0  0  0
  189.2310  177.8640  145.8300 C   0  0  1  0  0  3  0  0  0  0  0  0
  186.4830  178.2020  143.2690 C   0  0  0  0  0  0  0  0  0  0  0  0
  188.6750  178.1030  139.6740 C   0  0  0  0  0  3  0  0  0  0  0  0
  183.1460  179.2920  144.5840 C   0  0  0  0  0  2  0  0  0  0  0  0
  189.3360  177.9530  140.8950 C   0  0  0  0  0  3  0  0  0  0  0  0
  184.3090  178.3310  144.5300 C   0  0  0  0  0  2  0  0  0  0  0  0
  183.1430  178.7540  141.6080 C   0  0  0  0  0  0  0  0  0  0  0  0
  187.2920  178.2850  139.6430 C   0  0  0  0  0  3  0  0  0  0  0  0
  185.2120  178.4920  140.8440 N   0  0  0  0  0  0  0  0  0  0  0  0
  180.8880  179.5520  141.9310 O   0  0  0  0  0  0  0  0  0  0  0  0
  179.8020  178.8520  142.4750 C   0  0  0  0  0  2  0  0  0  0  0  0
  179.9180  178.6480  139.2350 O   0  0  0  0  0  0  0  0  0  0  0  0
  179.4940  176.9990  140.8690 C   0  0  0  0  0  2  0  0  0  0  0  0
  178.9310  178.3000  141.3600 C   0  0  2  0  0  3  0  0  0  0  0  0
  179.8100  177.2630  139.4170 C   0  0  0  0  0  2  0  0  0  0  0  0
  179.0210  179.2090  140.1560 C   0  0  0  0  0  2  0  0  0  0  0  0
  1 27  1  0  0  0  0
  1 18  1  0  0  0  0
  2 14  2  0  0  0  0
  2 27  1  0  0  0  0
  3 16  1  1  0  0  0
  3  7  1  0  0  0  0
  4 15  1  0  0  0  0
  5 19  1  0  0  0  0
  6  7  1  0  0  0  0
  8 16  1  0  0  0  0
  9 13  1  0  0  0  0
 10 22  1  0  0  0  0
 11  5  2  0  0  0  0
 12 15  1  0  0  0  0
 12  8  1  0  0  0  0
 13 20  2  0  0  0  0
 13 24  1  0  0  0  0
 14 25  1  0  0  0  0
 15  5  1  0  0  0  0
 17 10  1  0  0  0  0
 18  4  2  0  0  0  0
 18 20  1  0  0  0  0
 19  3  1  0  0  0  0
 19  6  1  1  0  0  0
 20 11  1  0  0  0  0
 21 23  2  0  0  0  0
 23  4  1  0  0  0  0
 24 22  1  0  0  0  0
 25  9  2  0  0  0  0
 25 17  1  0  0  0  0
 26 21  1  0  0  0  0
 26  1  2  0  0  0  0
 27  9  1  0  0  0  0
 28 17  1  0  0  0  0
 28 29  1  0  0  0  0
 30 33  1  0  0  0  0
 30 34  1  0  0  0  0
 31 32  1  0  0  0  0
 32 29  1  1  0  0  0
 33 31  1  0  0  0  0
 34 32  1  0  0  0  0
M  END
>  <MODEL>
1

>  <REMARK>
 VINA RESULT:      -9.9      0.000      0.000
  Name = 
  3 active torsions:
  status: ('A' for Active; 'I' for Inactive)
    1  A    between atoms: N_17  and  O_28
    2  A    between atoms: O_28  and  C_29
    3  A    between atoms: C_29  and  C_32
                            x       y       z     vdW  Elec       q    Type
                         _______ _______ _______ _____ _____    ______ ____

>  <TORSDO>
F 3

$$$$
=
 OpenBabel11122412133D

 34 41  0  0  1  0  0  0  0  0999 V2000
  185.4540  178.3520  145.1070 C   0  0  0  0  0  0  0  0  0  0  0  0
  183.0980  178.9420  145.0430 C   0  0  0  0  0  3  0  0  0  0  0  0
  191.1830  177.5170  142.2910 C   0  0  2  0  0  3  0  0  0  0  0  0
  187.8170  177.7110  144.9360 C   0  0  0  0  0  0  0  0  0  0  0  0
  188.7970  177.3440  142.7880 C   0  0  0  0  0  0  0  0  0  0  0  0
  190.0780  177.2560  140.4910 C   0  0  0  0  0  2  0  0  0  0  0  0
  191.5080  177.6820  140.8230 C   0  0  0  0  0  2  0  0  0  0  0  0
  191.1330  176.0970  144.3360 C   0  0  0  0  0  2  0  0  0  0  0  0
  184.1250  178.5840  143.1370 C   0  0  0  0  0  0  0  0  0  0  0  0
  182.8360  178.8730  140.2980 C   0  0  0  0  0  2  0  0  0  0  0  0
  187.5720  177.6040  142.1690 C   0  0  0  0  0  3  0  0  0  0  0  0
  190.2140  177.2130  144.8790 C   0  0  0  0  0  2  0  0  0  0  0  0
  185.2090  178.2340  142.2980 C   0  0  0  0  0  0  0  0  0  0  0  0
  182.1450  179.1060  144.0500 C   0  0  0  0  0  3  0  0  0  0  0  0
  188.9120  177.3760  144.1710 N   0  0  0  0  0  0  0  0  0  0  0  0
  192.0000  176.5700  143.1480 C   0  0  0  0  0  2  0  0  0  0  0  0
  182.1260  178.8730  141.5700 N   0  0  0  0  0  0  0  0  0  0  0  0
  186.5750  178.0030  144.3230 C   0  0  0  0  0  0  0  0  0  0  0  0
  189.9080  176.8150  141.9340 C   0  0  1  0  0  3  0  0  0  0  0  0
  186.4490  177.9510  142.9200 C   0  0  0  0  0  0  0  0  0  0  0  0
  186.7890  178.1190  147.1150 C   0  0  0  0  0  3  0  0  0  0  0  0
  183.8330  177.7400  140.2430 C   0  0  0  0  0  2  0  0  0  0  0  0
  187.8990  177.7760  146.3410 C   0  0  0  0  0  3  0  0  0  0  0  0
  185.1390  178.2600  140.7940 C   0  0  0  0  0  2  0  0  0  0  0  0
  182.7970  178.8860  142.8440 C   0  0  0  0  0  0  0  0  0  0  0  0
  185.5690  178.4050  146.5020 C   0  0  0  0  0  3  0  0  0  0  0  0
  184.2800  178.6240  144.4760 N   0  0  0  0  0  0  0  0  0  0  0  0
  180.7690  178.8100  141.5360 O   0  0  0  0  0  0  0  0  0  0  0  0
  180.4150  179.0060  140.1950 C   0  0  0  0  0  2  0  0  0  0  0  0
  180.5760  175.8630  139.3920 O   0  0  0  0  0  0  0  0  0  0  0  0
  179.1550  176.9990  140.8960 C   0  0  0  0  0  2  0  0  0  0  0  0
  179.4530  177.9190  139.7480 C   0  0  2  0  0  3  0  0  0  0  0  0
  179.6510  175.6540  140.4240 C   0  0  0  0  0  2  0  0  0  0  0  0
  180.1390  177.0260  138.7400 C   0  0  0  0  0  2  0  0  0  0  0  0
  1 26  1  0  0  0  0
  3  7  1  6  0  0  0
  3 16  1  0  0  0  0
  4 23  2  0  0  0  0
  5 15  1  0  0  0  0
  6  7  1  0  0  0  0
  8 12  1  0  0  0  0
  9 27  1  0  0  0  0
 10 17  1  0  0  0  0
 11  5  2  0  0  0  0
 11 20  1  0  0  0  0
 13 20  2  0  0  0  0
 13  9  1  0  0  0  0
 14  2  2  0  0  0  0
 15 12  1  0  0  0  0
 15  4  1  0  0  0  0
 16  8  1  0  0  0  0
 17 25  1  0  0  0  0
 18  4  1  0  0  0  0
 18  1  2  0  0  0  0
 19  6  1  6  0  0  0
 19  3  1  0  0  0  0
 19  5  1  0  0  0  0
 20 18  1  0  0  0  0
 22 10  1  0  0  0  0
 22 24  1  0  0  0  0
 23 21  1  0  0  0  0
 24 13  1  0  0  0  0
 25  9  2  0  0  0  0
 25 14  1  0  0  0  0
 26 21  2  0  0  0  0
 27  2  1  0  0  0  0
 27  1  1  0  0  0  0
 28 17  1  0  0  0  0
 29 28  1  0  0  0  0
 30 33  1  0  0  0  0
 32 29  1  1  0  0  0
 32 31  1  0  0  0  0
 33 31  1  0  0  0  0
 34 30  1  0  0  0  0
 34 32  1  0  0  0  0
M  END
>  <MODEL>
2

>  <REMARK>
 VINA RESULT:      -9.9      1.423      3.702
  Name = 
  3 active torsions:
  status: ('A' for Active; 'I' for Inactive)
    1  A    between atoms: N_17  and  O_28
    2  A    between atoms: O_28  and  C_29
    3  A    between atoms: C_29  and  C_32
                            x       y       z     vdW  Elec       q    Type
                         _______ _______ _______ _____ _____    ______ ____

>  <TORSDO>
F 3

$$$$
=
 OpenBabel11122412133D

 34 41  0  0  1  0  0  0  0  0999 V2000
  184.3480  178.5660  144.3490 C   0  0  0  0  0  0  0  0  0  0  0  0
  182.2210  179.0190  143.2640 C   0  0  0  0  0  3  0  0  0  0  0  0
  190.7690  178.1040  144.2990 C   0  0  2  0  0  3  0  0  0  0  0  0
  186.5850  178.0670  145.2250 C   0  0  0  0  0  0  0  0  0  0  0  0
  188.4170  177.7860  143.7170 C   0  0  0  0  0  0  0  0  0  0  0  0
  190.5680  177.8030  142.2020 C   0  0  0  0  0  2  0  0  0  0  0  0
  191.6870  178.3070  143.1140 C   0  0  0  0  0  2  0  0  0  0  0  0
  189.9220  176.6570  146.1390 C   0  0  0  0  0  2  0  0  0  0  0  0
  183.9900  178.7470  141.9950 C   0  0  0  0  0  0  0  0  0  0  0  0
  184.0420  178.9980  138.8750 C   0  0  0  0  0  2  0  0  0  0  0  0
  187.5670  177.9830  142.6260 C   0  0  0  0  0  3  0  0  0  0  0  0
  188.7950  177.7100  146.2170 C   0  0  0  0  0  2  0  0  0  0  0  0
  185.3490  178.4720  141.7120 C   0  0  0  0  0  0  0  0  0  0  0  0
  181.7830  179.1400  141.9550 C   0  0  0  0  0  3  0  0  0  0  0  0
  187.9200  177.8060  145.0140 N   0  0  0  0  0  0  0  0  0  0  0  0
  191.1890  177.1950  145.4380 C   0  0  0  0  0  2  0  0  0  0  0  0
  182.8520  178.9400  139.7140 N   0  0  0  0  0  0  0  0  0  0  0  0
  185.7160  178.2940  144.1320 C   0  0  0  0  0  0  0  0  0  0  0  0
  189.8170  177.3340  143.4350 C   0  0  1  0  0  3  0  0  0  0  0  0
  186.2120  178.2540  142.8130 C   0  0  0  0  0  0  0  0  0  0  0  0
  184.6940  178.3840  146.7390 C   0  0  0  0  0  3  0  0  0  0  0  0
  185.0280  177.9260  139.2710 C   0  0  0  0  0  2  0  0  0  0  0  0
  186.0480  178.1170  146.5270 C   0  0  0  0  0  3  0  0  0  0  0  0
  185.9350  178.5140  140.3260 C   0  0  0  0  0  2  0  0  0  0  0  0
  182.9040  178.9750  141.1530 C   0  0  0  0  0  0  0  0  0  0  0  0
  183.8450  178.6070  145.6560 C   0  0  0  0  0  3  0  0  0  0  0  0
  183.5480  178.7790  143.2690 N   0  0  0  0  0  0  0  0  0  0  0  0
  181.6500  178.7990  139.0970 O   0  0  0  0  0  0  0  0  0  0  0  0
  181.7530  179.5170  137.8990 C   0  0  0  0  0  2  0  0  0  0  0  0
  181.1550  182.7090  137.9310 O   0  0  0  0  0  0  0  0  0  0  0  0
  180.5580  181.0450  136.3670 C   0  0  0  0  0  2  0  0  0  0  0  0
  180.5480  180.4270  137.7350 C   0  0  2  0  0  3  0  0  0  0  0  0
  180.6480  182.5270  136.6360 C   0  0  0  0  0  2  0  0  0  0  0  0
  180.6840  181.6110  138.6660 C   0  0  0  0  0  2  0  0  0  0  0  0
  1 26  1  0  0  0  0
  2 27  1  0  0  0  0
  3  7  1  6  0  0  0
  3 16  1  0  0  0  0
  4 23  2  0  0  0  0
  5 15  1  0  0  0  0
  6  7  1  0  0  0  0
  8 12  1  0  0  0  0
  9 27  1  0  0  0  0
 10 22  1  0  0  0  0
 10 17  1  0  0  0  0
 11 20  1  0  0  0  0
 11  5  2  0  0  0  0
 13  9  1  0  0  0  0
 13 20  2  0  0  0  0
 14  2  2  0  0  0  0
 15  4  1  0  0  0  0
 15 12  1  0  0  0  0
 16  8  1  0  0  0  0
 17 25  1  0  0  0  0
 18  1  2  0  0  0  0
 18  4  1  0  0  0  0
 19  6  1  6  0  0  0
 19  5  1  0  0  0  0
 19  3  1  0  0  0  0
 20 18  1  0  0  0  0
 22 24  1  0  0  0  0
 23 21  1  0  0  0  0
 24 13  1  0  0  0  0
 25 14  1  0  0  0  0
 25  9  2  0  0  0  0
 26 21  2  0  0  0  0
 27  1  1  0  0  0  0
 28 17  1  0  0  0  0
 29 28  1  0  0  0  0
 30 34  1  0  0  0  0
 31 33  1  0  0  0  0
 31 32  1  0  0  0  0
 32 29  1  6  0  0  0
 32 34  1  0  0  0  0
 33 30  1  0  0  0  0
M  END
>  <MODEL>
3

>  <REMARK>
 VINA RESULT:      -9.8      2.027      4.103
  Name = 
  3 active torsions:
  status: ('A' for Active; 'I' for Inactive)
    1  A    between atoms: N_17  and  O_28
    2  A    between atoms: O_28  and  C_29
    3  A    between atoms: C_29  and  C_32
                            x       y       z     vdW  Elec       q    Type
                         _______ _______ _______ _____ _____    ______ ____

>  <TORSDO>
F 3

$$$$
=
 OpenBabel11122412133D

 34 41  0  0  1  0  0  0  0  0999 V2000
  185.1510  178.7130  142.4050 C   0  0  0  0  0  0  0  0  0  0  0  0
  184.1460  179.1330  140.2330 C   0  0  0  0  0  3  0  0  0  0  0  0
  190.2370  177.6340  146.2010 C   0  0  2  0  0  3  0  0  0  0  0  0
  186.3520  178.1940  144.4810 C   0  0  0  0  0  0  0  0  0  0  0  0
  188.6140  177.4300  144.3860 C   0  0  0  0  0  0  0  0  0  0  0  0
  191.1950  176.9230  144.4400 C   0  0  0  0  0  2  0  0  0  0  0  0
  191.6800  177.4960  145.7710 C   0  0  0  0  0  2  0  0  0  0  0  0
  188.2320  176.6920  147.3380 C   0  0  0  0  0  2  0  0  0  0  0  0
  186.2240  178.4320  140.2910 C   0  0  0  0  0  0  0  0  0  0  0  0
  188.0710  178.0200  137.7970 C   0  0  0  0  0  2  0  0  0  0  0  0
  188.5850  177.4760  142.9900 C   0  0  0  0  0  3  0  0  0  0  0  0
  187.4960  177.8410  146.6170 C   0  0  0  0  0  2  0  0  0  0  0  0
  187.4180  177.9750  140.8960 C   0  0  0  0  0  0  0  0  0  0  0  0
  184.5550  179.0190  138.9130 C   0  0  0  0  0  3  0  0  0  0  0  0
  187.4900  177.7680  145.1280 N   0  0  0  0  0  0  0  0  0  0  0  0
  189.7510  176.9470  147.4620 C   0  0  0  0  0  2  0  0  0  0  0  0
  186.6340  178.2530  137.7730 N   0  0  0  0  0  0  0  0  0  0  0  0
  186.3150  178.2710  143.0680 C   0  0  0  0  0  0  0  0  0  0  0  0
  189.8050  176.7960  145.0370 C   0  0  1  0  0  3  0  0  0  0  0  0
  187.4480  177.9080  142.3100 C   0  0  0  0  0  0  0  0  0  0  0  0
  184.0470  179.0020  144.5410 C   0  0  0  0  0  3  0  0  0  0  0  0
  188.4250  176.9640  138.8160 C   0  0  0  0  0  2  0  0  0  0  0  0
  185.1990  178.5670  145.1990 C   0  0  0  0  0  3  0  0  0  0  0  0
  188.6760  177.6700  140.1280 C   0  0  0  0  0  2  0  0  0  0  0  0
  185.8730  178.5830  138.9510 C   0  0  0  0  0  0  0  0  0  0  0  0
  184.0200  179.0740  143.1490 C   0  0  0  0  0  3  0  0  0  0  0  0
  185.1590  178.7710  141.0450 N   0  0  0  0  0  0  0  0  0  0  0  0
  185.9880  178.1030  136.5880 O   0  0  0  0  0  0  0  0  0  0  0  0
  186.3530  176.8350  136.1150 C   0  0  0  0  0  2  0  0  0  0  0  0
  183.8190  175.7600  137.8390 O   0  0  0  0  0  0  0  0  0  0  0  0
  183.9070  176.8850  135.7660 C   0  0  0  0  0  2  0  0  0  0  0  0
  185.1120  175.9960  135.8680 C   0  0  2  0  0  3  0  0  0  0  0  0
  183.0220  176.4320  136.9020 C   0  0  0  0  0  2  0  0  0  0  0  0
  184.8310  175.1460  137.0850 C   0  0  0  0  0  2  0  0  0  0  0  0
  1 18  2  0  0  0  0
  1 26  1  0  0  0  0
  2 27  1  0  0  0  0
  3  7  1  1  0  0  0
  3 16  1  0  0  0  0
  4 15  1  0  0  0  0
  4 23  2  0  0  0  0
  5 19  1  0  0  0  0
  5 15  1  0  0  0  0
  6  7  1  0  0  0  0
  8 16  1  0  0  0  0
  9 13  1  0  0  0  0
  9 27  1  0  0  0  0
 10 22  1  0  0  0  0
 11  5  2  0  0  0  0
 12  8  1  0  0  0  0
 13 20  2  0  0  0  0
 14 25  1  0  0  0  0
 14  2  2  0  0  0  0
 15 12  1  0  0  0  0
 17 10  1  0  0  0  0
 17 25  1  0  0  0  0
 18  4  1  0  0  0  0
 19  6  1  6  0  0  0
 19  3  1  0  0  0  0
 20 11  1  0  0  0  0
 20 18  1  0  0  0  0
 21 23  1  0  0  0  0
 22 24  1  0  0  0  0
 24 13  1  0  0  0  0
 25  9  2  0  0  0  0
 26 21  2  0  0  0  0
 27  1  1  0  0  0  0
 28 17  1  0  0  0  0
 29 28  1  0  0  0  0
 31 32  1  0  0  0  0
 31 33  1  0  0  0  0
 32 29  1  1  0  0  0
 32 34  1  0  0  0  0
 33 30  1  0  0  0  0
 34 30  1  0  0  0  0
M  END
>  <MODEL>
4

>  <REMARK>
 VINA RESULT:      -9.6      2.579      4.961
  Name = 
  3 active torsions:
  status: ('A' for Active; 'I' for Inactive)
    1  A    between atoms: N_17  and  O_28
    2  A    between atoms: O_28  and  C_29
    3  A    between atoms: C_29  and  C_32
                            x       y       z     vdW  Elec       q    Type
                         _______ _______ _______ _____ _____    ______ ____

>  <TORSDO>
F 3

$$$$
=
 OpenBabel11122412133D

 34 41  0  0  1  0  0  0  0  0999 V2000
  184.8150  178.4900  144.3100 C   0  0  0  0  0  0  0  0  0  0  0  0
  186.4100  178.2010  146.1200 C   0  0  0  0  0  3  0  0  0  0  0  0
  183.0740  177.9790  138.1330 C   0  0  2  0  0  3  0  0  0  0  0  0
  183.3920  178.7770  142.3310 C   0  0  0  0  0  0  0  0  0  0  0  0
  184.3330  178.5520  140.1470 C   0  0  0  0  0  0  0  0  0  0  0  0
  185.1600  177.9880  137.7130 C   0  0  0  0  0  2  0  0  0  0  0  0
  183.9200  177.4660  136.9880 C   0  0  0  0  0  2  0  0  0  0  0  0
  181.7110  179.7950  139.1540 C   0  0  0  0  0  2  0  0  0  0  0  0
  187.1410  178.0130  144.0590 C   0  0  0  0  0  0  0  0  0  0  0  0
  190.0740  177.2930  143.2330 C   0  0  0  0  0  2  0  0  0  0  0  0
  185.5950  178.3230  140.6990 C   0  0  0  0  0  3  0  0  0  0  0  0
  181.8510  178.9450  140.4350 C   0  0  0  0  0  2  0  0  0  0  0  0
  187.0500  178.0380  142.6480 C   0  0  0  0  0  0  0  0  0  0  0  0
  187.7700  177.9520  146.2110 C   0  0  0  0  0  3  0  0  0  0  0  0
  183.2380  178.8010  140.9630 N   0  0  0  0  0  0  0  0  0  0  0  0
  181.9620  178.9760  137.8680 C   0  0  0  0  0  2  0  0  0  0  0  0
  189.6210  177.6530  144.5690 N   0  0  0  0  0  0  0  0  0  0  0  0
  184.6590  178.5200  142.9070 C   0  0  0  0  0  0  0  0  0  0  0  0
  184.2480  178.7440  138.6630 C   0  0  1  0  0  3  0  0  0  0  0  0
  185.7770  178.2880  142.0810 C   0  0  0  0  0  0  0  0  0  0  0  0
  182.4570  178.9750  144.5800 C   0  0  0  0  0  3  0  0  0  0  0  0
  189.5240  178.2530  142.2060 C   0  0  0  0  0  2  0  0  0  0  0  0
  182.3000  179.0030  143.1930 C   0  0  0  0  0  3  0  0  0  0  0  0
  188.1990  177.7010  141.7350 C   0  0  0  0  0  2  0  0  0  0  0  0
  188.2310  177.8260  144.9070 C   0  0  0  0  0  0  0  0  0  0  0  0
  183.7100  178.7210  145.1390 C   0  0  0  0  0  3  0  0  0  0  0  0
  186.0510  178.2400  144.8210 N   0  0  0  0  0  0  0  0  0  0  0  0
  190.5660  177.8770  145.5190 O   0  0  0  0  0  0  0  0  0  0  0  0
  191.3250  176.7010  145.5810 C   0  0  0  0  0  2  0  0  0  0  0  0
  193.2820  176.0030  148.0780 O   0  0  0  0  0  0  0  0  0  0  0  0
  191.2160  177.1420  148.0100 C   0  0  0  0  0  2  0  0  0  0  0  0
  191.1960  176.0730  146.9570 C   0  0  2  0  0  3  0  0  0  0  0  0
  192.4310  176.8110  148.8440 C   0  0  0  0  0  2  0  0  0  0  0  0
  192.4310  175.2520  147.2530 C   0  0  0  0  0  2  0  0  0  0  0  0
  1 27  1  0  0  0  0
  1 26  1  0  0  0  0
  2 14  2  0  0  0  0
  3  7  1  6  0  0  0
  3 19  1  0  0  0  0
  4 18  1  0  0  0  0
  4 23  2  0  0  0  0
  5 11  2  0  0  0  0
  5 15  1  0  0  0  0
  7  6  1  0  0  0  0
  8 12  1  0  0  0  0
  9 27  1  0  0  0  0
  9 25  2  0  0  0  0
 10 17  1  0  0  0  0
 11 20  1  0  0  0  0
 12 15  1  0  0  0  0
 13  9  1  0  0  0  0
 15  4  1  0  0  0  0
 16  3  1  0  0  0  0
 16  8  1  0  0  0  0
 17 25  1  0  0  0  0
 17 28  1  0  0  0  0
 18  1  2  0  0  0  0
 19  6  1  6  0  0  0
 19  5  1  0  0  0  0
 20 13  2  0  0  0  0
 20 18  1  0  0  0  0
 21 26  2  0  0  0  0
 22 10  1  0  0  0  0
 23 21  1  0  0  0  0
 24 22  1  0  0  0  0
 24 13  1  0  0  0  0
 25 14  1  0  0  0  0
 27  2  1  0  0  0  0
 28 29  1  0  0  0  0
 30 33  1  0  0  0  0
 31 33  1  0  0  0  0
 32 29  1  6  0  0  0
 32 34  1  0  0  0  0
 32 31  1  0  0  0  0
 34 30  1  0  0  0  0
M  END
>  <MODEL>
5

>  <REMARK>
 VINA RESULT:      -9.4      3.440      9.206
  Name = 
  3 active torsions:
  status: ('A' for Active; 'I' for Inactive)
    1  A    between atoms: N_17  and  O_28
    2  A    between atoms: O_28  and  C_29
    3  A    between atoms: C_29  and  C_32
                            x       y       z     vdW  Elec       q    Type
                         _______ _______ _______ _____ _____    ______ ____

>  <TORSDO>
F 3

$$$$
=
 OpenBabel11122412133D

 34 41  0  0  1  0  0  0  0  0999 V2000
  184.2880  178.5830  144.2190 C   0  0  0  0  0  0  0  0  0  0  0  0
  182.1940  179.0040  143.0600 C   0  0  0  0  0  3  0  0  0  0  0  0
  190.7120  178.1950  144.3870 C   0  0  2  0  0  3  0  0  0  0  0  0
  186.5000  178.1160  145.1730 C   0  0  0  0  0  0  0  0  0  0  0  0
  188.3850  177.8460  143.7300 C   0  0  0  0  0  0  0  0  0  0  0  0
  190.5850  177.8760  142.2870 C   0  0  0  0  0  2  0  0  0  0  0  0
  191.6670  178.3990  143.2320 C   0  0  0  0  0  2  0  0  0  0  0  0
  189.8200  176.7520  146.2100 C   0  0  0  0  0  2  0  0  0  0  0  0
  184.0080  178.7420  141.8530 C   0  0  0  0  0  0  0  0  0  0  0  0
  184.1610  178.9700  138.7340 C   0  0  0  0  0  2  0  0  0  0  0  0
  187.5700  178.0240  142.6100 C   0  0  0  0  0  3  0  0  0  0  0  0
  188.6800  177.7920  146.2410 C   0  0  0  0  0  2  0  0  0  0  0  0
  185.3780  178.4810  141.6180 C   0  0  0  0  0  0  0  0  0  0  0  0
  181.7990  179.1090  141.7360 C   0  0  0  0  0  3  0  0  0  0  0  0
  187.8450  177.8690  145.0090 N   0  0  0  0  0  0  0  0  0  0  0  0
  191.1040  177.2990  145.5460 C   0  0  0  0  0  2  0  0  0  0  0  0
  182.9450  178.9040  139.5330 N   0  0  0  0  0  0  0  0  0  0  0  0
  185.6660  178.3250  144.0500 C   0  0  0  0  0  0  0  0  0  0  0  0
  189.7980  177.4070  143.4980 C   0  0  1  0  0  3  0  0  0  0  0  0
  186.2060  178.2810  142.7480 C   0  0  0  0  0  0  0  0  0  0  0  0
  184.5560  178.4240  146.6210 C   0  0  0  0  0  3  0  0  0  0  0  0
  185.1460  177.9130  139.1720 C   0  0  0  0  0  2  0  0  0  0  0  0
  185.9190  178.1700  146.4560 C   0  0  0  0  0  3  0  0  0  0  0  0
  186.0100  178.5190  140.2520 C   0  0  0  0  0  2  0  0  0  0  0  0
  182.9480  178.9510  140.9730 C   0  0  0  0  0  0  0  0  0  0  0  0
  183.7410  178.6280  145.5070 C   0  0  0  0  0  3  0  0  0  0  0  0
  183.5220  178.7780  143.1110 N   0  0  0  0  0  0  0  0  0  0  0  0
  181.7650  178.7450  138.8780 O   0  0  0  0  0  0  0  0  0  0  0  0
  181.7090  177.3900  138.5260 C   0  0  0  0  0  2  0  0  0  0  0  0
  180.2380  174.4960  138.4270 O   0  0  0  0  0  0  0  0  0  0  0  0
  180.4360  176.0650  140.1790 C   0  0  0  0  0  2  0  0  0  0  0  0
  180.3480  176.8180  138.8840 C   0  0  2  0  0  3  0  0  0  0  0  0
  180.0520  174.6530  139.8070 C   0  0  0  0  0  2  0  0  0  0  0  0
  179.9690  175.7580  137.8750 C   0  0  0  0  0  2  0  0  0  0  0  0
  1 26  1  0  0  0  0
  2 27  1  0  0  0  0
  3  7  1  6  0  0  0
  3 16  1  0  0  0  0
  4 23  2  0  0  0  0
  5 15  1  0  0  0  0
  6  7  1  0  0  0  0
  8 12  1  0  0  0  0
  9 27  1  0  0  0  0
 10 22  1  0  0  0  0
 10 17  1  0  0  0  0
 11 20  1  0  0  0  0
 11  5  2  0  0  0  0
 13  9  1  0  0  0  0
 13 20  2  0  0  0  0
 14  2  2  0  0  0  0
 15  4  1  0  0  0  0
 15 12  1  0  0  0  0
 16  8  1  0  0  0  0
 17 25  1  0  0  0  0
 18  1  2  0  0  0  0
 18  4  1  0  0  0  0
 19  6  1  6  0  0  0
 19  5  1  0  0  0  0
 19  3  1  0  0  0  0
 20 18  1  0  0  0  0
 22 24  1  0  0  0  0
 23 21  1  0  0  0  0
 24 13  1  0  0  0  0
 25 14  1  0  0  0  0
 25  9  2  0  0  0  0
 26 21  2  0  0  0  0
 27  1  1  0  0  0  0
 28 17  1  0  0  0  0
 29 28  1  0  0  0  0
 30 33  1  0  0  0  0
 32 29  1  6  0  0  0
 32 31  1  0  0  0  0
 33 31  1  0  0  0  0
 34 30  1  0  0  0  0
 34 32  1  0  0  0  0
M  END
>  <MODEL>
6

>  <REMARK>
 VINA RESULT:      -9.4      1.565      3.842
  Name = 
  3 active torsions:
  status: ('A' for Active; 'I' for Inactive)
    1  A    between atoms: N_17  and  O_28
    2  A    between atoms: O_28  and  C_29
    3  A    between atoms: C_29  and  C_32
                            x       y       z     vdW  Elec       q    Type
                         _______ _______ _______ _____ _____    ______ ____

>  <TORSDO>
F 3

$$$$
=
 OpenBabel11122412133D

 34 41  0  0  1  0  0  0  0  0999 V2000
  189.0700  177.3930  143.9160 C   0  0  0  0  0  0  0  0  0  0  0  0
  191.3530  176.8500  143.2860 C   0  0  0  0  0  3  0  0  0  0  0  0
  182.8440  178.2610  142.5270 C   0  0  2  0  0  3  0  0  0  0  0  0
  186.7260  177.9980  144.3220 C   0  0  0  0  0  0  0  0  0  0  0  0
  185.2790  178.4520  142.4760 C   0  0  0  0  0  0  0  0  0  0  0  0
  183.5060  178.6310  140.5390 C   0  0  0  0  0  2  0  0  0  0  0  0
  182.1930  178.1630  141.1650 C   0  0  0  0  0  2  0  0  0  0  0  0
  183.3500  179.5780  144.5780 C   0  0  0  0  0  2  0  0  0  0  0  0
  189.9150  177.2830  141.6860 C   0  0  0  0  0  0  0  0  0  0  0  0
  190.5230  177.1590  138.6170 C   0  0  0  0  0  2  0  0  0  0  0  0
  186.3320  178.2460  141.5820 C   0  0  0  0  0  3  0  0  0  0  0  0
  184.3760  178.4540  144.8380 C   0  0  0  0  0  2  0  0  0  0  0  0
  188.6660  177.6540  141.1360 C   0  0  0  0  0  0  0  0  0  0  0  0
  192.0550  176.7540  142.0950 C   0  0  0  0  0  3  0  0  0  0  0  0
  185.4840  178.3500  143.8450 N   0  0  0  0  0  0  0  0  0  0  0  0
  182.2380  179.1490  143.5960 C   0  0  0  0  0  2  0  0  0  0  0  0
  191.5060  177.1100  139.6910 N   0  0  0  0  0  0  0  0  0  0  0  0
  187.7970  177.7600  143.4280 C   0  0  0  0  0  0  0  0  0  0  0  0
  183.9990  179.0030  141.9270 C   0  0  1  0  0  3  0  0  0  0  0  0
  187.5990  177.8830  142.0370 C   0  0  0  0  0  0  0  0  0  0  0  0
  188.2280  177.5020  146.1850 C   0  0  0  0  0  3  0  0  0  0  0  0
  189.5330  178.2750  138.8500 C   0  0  0  0  0  2  0  0  0  0  0  0
  186.9680  177.8630  145.7030 C   0  0  0  0  0  3  0  0  0  0  0  0
  188.3910  177.7040  139.6560 C   0  0  0  0  0  2  0  0  0  0  0  0
  191.1430  177.0210  141.0830 C   0  0  0  0  0  0  0  0  0  0  0  0
  189.2770  177.2690  145.2960 C   0  0  0  0  0  3  0  0  0  0  0  0
  190.0710  177.1740  143.0210 N   0  0  0  0  0  0  0  0  0  0  0  0
  192.8180  177.1990  139.3530 O   0  0  0  0  0  0  0  0  0  0  0  0
  192.8980  176.7530  138.0270 C   0  0  0  0  0  2  0  0  0  0  0  0
  192.7990  174.0540  136.2220 O   0  0  0  0  0  0  0  0  0  0  0  0
  194.6150  175.4280  136.8420 C   0  0  0  0  0  2  0  0  0  0  0  0
  193.6260  175.4210  137.9710 C   0  0  2  0  0  3  0  0  0  0  0  0
  194.1480  174.3110  135.9400 C   0  0  0  0  0  2  0  0  0  0  0  0
  192.6510  174.3310  137.5890 C   0  0  0  0  0  2  0  0  0  0  0  0
  1 26  1  0  0  0  0
  3  7  1  6  0  0  0
  3 16  1  0  0  0  0
  4 23  2  0  0  0  0
  5 15  1  0  0  0  0
  6  7  1  0  0  0  0
  8 12  1  0  0  0  0
  9 27  1  0  0  0  0
 10 22  1  0  0  0  0
 10 17  1  0  0  0  0
 11 20  1  0  0  0  0
 11  5  2  0  0  0  0
 13  9  1  0  0  0  0
 13 20  2  0  0  0  0
 14  2  2  0  0  0  0
 15  4  1  0  0  0  0
 15 12  1  0  0  0  0
 16  8  1  0  0  0  0
 17 25  1  0  0  0  0
 18  1  2  0  0  0  0
 18  4  1  0  0  0  0
 19  6  1  6  0  0  0
 19  5  1  0  0  0  0
 19  3  1  0  0  0  0
 20 18  1  0  0  0  0
 22 24  1  0  0  0  0
 23 21  1  0  0  0  0
 24 13  1  0  0  0  0
 25  9  2  0  0  0  0
 25 14  1  0  0  0  0
 26 21  2  0  0  0  0
 27  2  1  0  0  0  0
 27  1  1  0  0  0  0
 28 17  1  0  0  0  0
 29 28  1  0  0  0  0
 30 34  1  0  0  0  0
 31 32  1  0  0  0  0
 32 29  1  6  0  0  0
 33 30  1  0  0  0  0
 33 31  1  0  0  0  0
 34 32  1  0  0  0  0
M  END
>  <MODEL>
7

>  <REMARK>
 VINA RESULT:      -9.3      4.227      9.005
  Name = 
  3 active torsions:
  status: ('A' for Active; 'I' for Inactive)
    1  A    between atoms: N_17  and  O_28
    2  A    between atoms: O_28  and  C_29
    3  A    between atoms: C_29  and  C_32
                            x       y       z     vdW  Elec       q    Type
                         _______ _______ _______ _____ _____    ______ ____

>  <TORSDO>
F 3

$$$$
=
 OpenBabel11122412133D

 34 41  0  0  1  0  0  0  0  0999 V2000
  186.4670  178.4360  140.4110 C   0  0  0  0  0  0  0  0  0  0  0  0
  186.4710  178.5350  137.9830 C   0  0  0  0  0  3  0  0  0  0  0  0
  189.4520  177.7980  146.0790 C   0  0  2  0  0  3  0  0  0  0  0  0
  186.6700  178.2170  142.8470 C   0  0  0  0  0  0  0  0  0  0  0  0
  188.6880  177.3630  143.7990 C   0  0  0  0  0  0  0  0  0  0  0  0
  190.9630  176.7760  144.9840 C   0  0  0  0  0  2  0  0  0  0  0  0
  190.9250  177.5380  146.3070 C   0  0  0  0  0  2  0  0  0  0  0  0
  187.0760  177.1290  146.3970 C   0  0  0  0  0  2  0  0  0  0  0  0
  188.2670  177.7760  138.9890 C   0  0  0  0  0  0  0  0  0  0  0  0
  190.9120  176.8960  137.5620 C   0  0  0  0  0  2  0  0  0  0  0  0
  189.2290  177.1830  142.5240 C   0  0  0  0  0  3  0  0  0  0  0  0
  186.8130  178.1720  145.2910 C   0  0  0  0  0  2  0  0  0  0  0  0
  189.0630  177.3790  140.0890 C   0  0  0  0  0  0  0  0  0  0  0  0
  187.3640  178.1940  136.9800 C   0  0  0  0  0  3  0  0  0  0  0  0
  187.4000  177.8590  143.9570 N   0  0  0  0  0  0  0  0  0  0  0  0
  188.4320  177.3430  147.1040 C   0  0  0  0  0  2  0  0  0  0  0  0
  189.6370  177.1750  136.9150 N   0  0  0  0  0  0  0  0  0  0  0  0
  187.2140  178.0640  141.5490 C   0  0  0  0  0  0  0  0  0  0  0  0
  189.4450  176.7990  144.9620 C   0  0  1  0  0  3  0  0  0  0  0  0
  188.5130  177.5420  141.3830 C   0  0  0  0  0  0  0  0  0  0  0  0
  184.6300  179.1090  141.8390 C   0  0  0  0  0  3  0  0  0  0  0  0
  190.7160  176.0070  138.7670 C   0  0  0  0  0  2  0  0  0  0  0  0
  185.3690  178.7440  142.9670 C   0  0  0  0  0  3  0  0  0  0  0  0
  190.4860  176.9060  139.9590 C   0  0  0  0  0  2  0  0  0  0  0  0
  188.5030  177.7210  137.6170 C   0  0  0  0  0  0  0  0  0  0  0  0
  185.1750  178.9560  140.5650 C   0  0  0  0  0  3  0  0  0  0  0  0
  187.0280  178.2730  139.1820 N   0  0  0  0  0  0  0  0  0  0  0  0
  189.5130  176.8590  135.6000 O   0  0  0  0  0  0  0  0  0  0  0  0
  190.1180  175.6040  135.4540 C   0  0  0  0  0  2  0  0  0  0  0  0
  187.4900  174.3600  136.9010 O   0  0  0  0  0  0  0  0  0  0  0  0
  187.7880  175.2210  134.7240 C   0  0  0  0  0  2  0  0  0  0  0  0
  189.0650  174.5550  135.1420 C   0  0  2  0  0  3  0  0  0  0  0  0
  186.7860  174.7770  135.7630 C   0  0  0  0  0  2  0  0  0  0  0  0
  188.6920  173.8260  136.4130 C   0  0  0  0  0  2  0  0  0  0  0  0
  1 26  2  0  0  0  0
  1 18  1  0  0  0  0
  2 27  1  0  0  0  0
  3  7  1  1  0  0  0
  3 16  1  0  0  0  0
  4 23  1  0  0  0  0
  4 15  1  0  0  0  0
  5 15  1  0  0  0  0
  5 19  1  0  0  0  0
  6  7  1  0  0  0  0
  8 16  1  0  0  0  0
  9 27  1  0  0  0  0
  9 13  1  0  0  0  0
 10 22  1  0  0  0  0
 11  5  2  0  0  0  0
 12  8  1  0  0  0  0
 13 20  2  0  0  0  0
 14 25  1  0  0  0  0
 14  2  2  0  0  0  0
 15 12  1  0  0  0  0
 17 10  1  0  0  0  0
 17 25  1  0  0  0  0
 18  4  2  0  0  0  0
 19  6  1  6  0  0  0
 19  3  1  0  0  0  0
 20 18  1  0  0  0  0
 20 11  1  0  0  0  0
 21 23  2  0  0  0  0
 22 24  1  0  0  0  0
 24 13  1  0  0  0  0
 25  9  2  0  0  0  0
 26 21  1  0  0  0  0
 27  1  1  0  0  0  0
 28 17  1  0  0  0  0
 29 28  1  0  0  0  0
 31 32  1  0  0  0  0
 31 33  1  0  0  0  0
 32 29  1  1  0  0  0
 32 34  1  0  0  0  0
 33 30  1  0  0  0  0
 34 30  1  0  0  0  0
M  END
>  <MODEL>
8

>  <REMARK>
 VINA RESULT:      -9.2      3.592      6.656
  Name = 
  3 active torsions:
  status: ('A' for Active; 'I' for Inactive)
    1  A    between atoms: N_17  and  O_28
    2  A    between atoms: O_28  and  C_29
    3  A    between atoms: C_29  and  C_32
                            x       y       z     vdW  Elec       q    Type
                         _______ _______ _______ _____ _____    ______ ____

>  <TORSDO>
F 3

$$$$
=
 OpenBabel11122412133D

 34 41  0  0  1  0  0  0  0  0999 V2000
  185.9130  178.4390  140.4810 C   0  0  0  0  0  0  0  0  0  0  0  0
  188.2280  178.0380  141.0990 C   0  0  0  0  0  3  0  0  0  0  0  0
  179.8310  179.9810  141.9220 C   0  0  2  0  0  3  0  0  0  0  0  0
  183.5180  178.7990  140.0860 C   0  0  0  0  0  0  0  0  0  0  0  0
  182.0050  178.8660  141.9330 C   0  0  0  0  0  0  0  0  0  0  0  0
  180.2970  179.3090  143.8860 C   0  0  0  0  0  2  0  0  0  0  0  0
  179.2660  180.2700  143.2950 C   0  0  0  0  0  2  0  0  0  0  0  0
  179.7940  178.6500  139.8180 C   0  0  0  0  0  2  0  0  0  0  0  0
  186.7330  178.1300  142.7020 C   0  0  0  0  0  0  0  0  0  0  0  0
  187.3370  177.8930  145.7650 C   0  0  0  0  0  2  0  0  0  0  0  0
  183.0550  178.6170  142.8200 C   0  0  0  0  0  3  0  0  0  0  0  0
  181.1740  179.3020  139.5850 C   0  0  0  0  0  2  0  0  0  0  0  0
  185.4360  178.2480  143.2560 C   0  0  0  0  0  0  0  0  0  0  0  0
  188.9120  177.8110  142.2830 C   0  0  0  0  0  3  0  0  0  0  0  0
  182.2350  178.9340  140.5660 N   0  0  0  0  0  0  0  0  0  0  0  0
  178.9310  179.4360  140.8300 C   0  0  0  0  0  2  0  0  0  0  0  0
  188.2650  177.6020  144.6800 N   0  0  0  0  0  0  0  0  0  0  0  0
  184.5970  178.5720  140.9730 C   0  0  0  0  0  0  0  0  0  0  0  0
  180.6100  178.8300  142.4800 C   0  0  1  0  0  3  0  0  0  0  0  0
  184.3640  178.4820  142.3610 C   0  0  0  0  0  0  0  0  0  0  0  0
  185.0970  178.7490  138.2210 C   0  0  0  0  0  3  0  0  0  0  0  0
  185.9940  177.2550  145.5060 C   0  0  0  0  0  2  0  0  0  0  0  0
  183.7950  178.8830  138.7070 C   0  0  0  0  0  3  0  0  0  0  0  0
  185.1610  178.2510  144.7360 C   0  0  0  0  0  2  0  0  0  0  0  0
  187.9660  177.8770  143.2980 C   0  0  0  0  0  0  0  0  0  0  0  0
  186.1540  178.5270  139.1040 C   0  0  0  0  0  3  0  0  0  0  0  0
  186.9200  178.2220  141.3690 N   0  0  0  0  0  0  0  0  0  0  0  0
  189.4410  177.0020  144.9970 O   0  0  0  0  0  0  0  0  0  0  0  0
  189.8410  177.5720  146.2130 C   0  0  0  0  0  2  0  0  0  0  0  0
  191.7280  175.3580  147.6570 O   0  0  0  0  0  0  0  0  0  0  0  0
  191.8220  176.2850  145.4890 C   0  0  0  0  0  2  0  0  0  0  0  0
  191.3260  177.3440  146.4300 C   0  0  2  0  0  3  0  0  0  0  0  0
  192.3280  175.1940  146.4010 C   0  0  0  0  0  2  0  0  0  0  0  0
  191.5480  176.7420  147.7980 C   0  0  0  0  0  2  0  0  0  0  0  0
  1 18  1  0  0  0  0
  1 27  1  0  0  0  0
  2 27  1  0  0  0  0
  2 14  2  0  0  0  0
  3 16  1  6  0  0  0
  3 19  1  0  0  0  0
  3  7  1  0  0  0  0
  4 15  1  0  0  0  0
  4 18  2  0  0  0  0
  5 19  1  0  0  0  0
  5 11  2  0  0  0  0
  7  6  1  0  0  0  0
  8 16  1  0  0  0  0
  9 13  1  0  0  0  0
  9 25  2  0  0  0  0
 12  8  1  0  0  0  0
 12 15  1  0  0  0  0
 13 24  1  0  0  0  0
 14 25  1  0  0  0  0
 15  5  1  0  0  0  0
 17 28  1  0  0  0  0
 17 10  1  0  0  0  0
 18 20  1  0  0  0  0
 19  6  1  1  0  0  0
 20 11  1  0  0  0  0
 20 13  2  0  0  0  0
 21 23  2  0  0  0  0
 21 26  1  0  0  0  0
 22 10  1  0  0  0  0
 23  4  1  0  0  0  0
 24 22  1  0  0  0  0
 25 17  1  0  0  0  0
 26  1  2  0  0  0  0
 27  9  1  0  0  0  0
 28 29  1  0  0  0  0
 30 34  1  0  0  0  0
 31 33  1  0  0  0  0
 31 32  1  0  0  0  0
 32 29  1  6  0  0  0
 32 34  1  0  0  0  0
 33 30  1  0  0  0  0
M  END
>  <MODEL>
9

>  <REMARK>
 VINA RESULT:      -8.9      3.030      8.617
  Name = 
  3 active torsions:
  status: ('A' for Active; 'I' for Inactive)
    1  A    between atoms: N_17  and  O_28
    2  A    between atoms: O_28  and  C_29
    3  A    between atoms: C_29  and  C_32
                            x       y       z     vdW  Elec       q    Type
                         _______ _______ _______ _____ _____    ______ ____

>  <TORSDO>
F 3

$$$$
