=
 OpenBabel11122410523D

 32 37  0  0  1  0  0  0  0  0999 V2000
  182.8950  177.3670  139.4170 C   0  0  0  0  0  2  0  0  0  0  0  0
  186.2630  178.0810  142.2800 C   0  0  2  0  0  3  0  0  0  0  0  0
  189.5600  177.2890  138.7020 C   0  0  0  0  0  3  0  0  0  0  0  0
  190.4930  176.8520  139.6440 C   0  0  0  0  0  3  0  0  0  0  0  0
  187.0030  177.8310  144.7030 C   0  0  0  0  0  0  0  0  0  0  0  0
  188.0970  177.9910  145.7170 C   0  0  1  0  0  3  0  0  0  0  0  0
  184.1240  179.2630  141.6250 C   0  0  1  0  0  3  0  0  0  0  0  0
  185.7860  178.5330  139.9670 O   0  0  0  0  0  0  0  0  0  0  0  0
  190.0210  176.6640  146.1710 C   0  0  2  0  0  3  0  0  0  0  0  0
  183.8850  179.7140  139.0660 C   0  0  0  0  0  2  0  0  0  0  0  0
  188.3490  177.8400  139.1250 C   0  0  0  0  0  3  0  0  0  0  0  0
  186.7950  178.6330  140.9430 C   0  0  2  0  0  3  0  0  0  0  0  0
  188.0500  177.9410  140.4930 C   0  0  0  0  0  0  0  0  0  0  0  0
  188.6810  177.6430  142.8830 C   0  0  0  0  0  0  0  0  0  0  0  0
  189.1710  176.6100  147.3590 N   0  0  0  0  0  2  0  0  0  0  0  0
  183.4390  177.1910  140.8380 C   0  0  0  0  0  2  0  0  0  0  0  0
  184.8310  179.5270  140.2600 C   0  0  1  0  0  3  0  0  0  0  0  0
  187.8750  177.1690  146.9710 C   0  0  0  0  0  2  0  0  0  0  0  0
  183.0920  178.2870  141.6490 O   0  0  0  0  0  0  0  0  0  0  0  0
  182.6270  178.8370  139.0650 C   0  0  1  0  0  3  0  0  0  0  0  0
  190.2150  176.9710  141.0070 C   0  0  0  0  0  3  0  0  0  0  0  0
  188.9970  177.5220  141.4430 C   0  0  0  0  0  0  0  0  0  0  0  0
  189.6290  177.3970  143.7970 C   0  0  0  0  0  3  0  0  0  0  0  0
  185.1490  179.0320  142.7380 C   0  0  0  0  0  2  0  0  0  0  0  0
  185.8140  177.6430  145.0820 O   0  0  0  0  0  0  0  0  0  0  0  0
  191.3620  177.2770  146.5320 C   0  0  0  0  0  1  0  0  0  0  0  0
  187.3270  177.9500  143.2990 N   0  0  0  0  0  0  0  0  0  0  0  0
  189.3450  177.4900  145.1970 N   0  0  0  0  0  0  0  0  0  0  0  0
  181.9420  178.9450  137.7130 C   0  0  0  0  0  2  0  0  0  0  0  0
  180.9880  180.0960  137.6790 C   0  0  0  0  0  0  0  0  0  0  0  0
  180.7850  180.8530  136.4130 C   0  0  0  0  0  1  0  0  0  0  0  0
  180.3900  180.4300  138.6890 O   0  0  0  0  0  0  0  0  0  0  0  0
  1 16  1  0  0  0  0
  2 24  1  1  0  0  0
  2 27  1  0  0  0  0
  3 11  2  0  0  0  0
  3  4  1  0  0  0  0
  4 21  2  0  0  0  0
  5 25  2  0  0  0  0
  5  6  1  0  0  0  0
  6 18  1  1  0  0  0
  7 19  1  0  0  0  0
  7 24  1  1  0  0  0
  8 17  1  0  0  0  0
  9 26  1  1  0  0  0
  9 15  1  0  0  0  0
 11 13  1  0  0  0  0
 12  8  1  6  0  0  0
 12  2  1  0  0  0  0
 13 12  1  0  0  0  0
 13 22  2  0  0  0  0
 14 27  1  0  0  0  0
 14 23  2  0  0  0  0
 16 19  1  0  0  0  0
 17 10  1  6  0  0  0
 17  7  1  0  0  0  0
 18 15  1  0  0  0  0
 20 29  1  6  0  0  0
 20 10  1  0  0  0  0
 20  1  1  0  0  0  0
 21 22  1  0  0  0  0
 22 14  1  0  0  0  0
 23 28  1  0  0  0  0
 27  5  1  0  0  0  0
 28  6  1  0  0  0  0
 28  9  1  0  0  0  0
 30 29  1  0  0  0  0
 30 32  2  0  0  0  0
 31 30  1  0  0  0  0
M  END
>  <MODEL>
1

>  <REMARK>
 VINA RESULT:      -8.2      0.000      0.000
  Name = 
  2 active torsions:
  status: ('A' for Active; 'I' for Inactive)
    1  A    between atoms: C_20  and  C_29
    2  A    between atoms: C_29  and  C_30
                            x       y       z     vdW  Elec       q    Type
                         _______ _______ _______ _____ _____    ______ ____

>  <TORSDO>
F 2

$$$$
=
 OpenBabel11122410523D

 32 37  0  0  1  0  0  0  0  0999 V2000
  191.6680  174.7200  137.7060 C   0  0  0  0  0  2  0  0  0  0  0  0
  188.9120  177.3690  140.0380 C   0  0  2  0  0  3  0  0  0  0  0  0
  191.2930  176.2780  144.2150 C   0  0  0  0  0  3  0  0  0  0  0  0
  190.1280  176.5070  144.9500 C   0  0  0  0  0  3  0  0  0  0  0  0
  186.5310  178.2570  140.1830 C   0  0  0  0  0  0  0  0  0  0  0  0
  185.5310  179.0850  140.9330 C   0  0  1  0  0  3  0  0  0  0  0  0
  190.3130  177.5650  137.9400 C   0  0  1  0  0  3  0  0  0  0  0  0
  191.2430  176.7760  140.0750 O   0  0  0  0  0  0  0  0  0  0  0  0
  184.2800  178.6270  142.9080 C   0  0  2  0  0  3  0  0  0  0  0  0
  192.8270  176.9460  138.2640 C   0  0  0  0  0  2  0  0  0  0  0  0
  191.3250  176.5790  142.8520 C   0  0  0  0  0  3  0  0  0  0  0  0
  190.2630  177.5130  140.7670 C   0  0  2  0  0  3  0  0  0  0  0  0
  190.1890  177.0900  142.2060 C   0  0  0  0  0  0  0  0  0  0  0  0
  187.8330  177.8930  142.2660 C   0  0  0  0  0  0  0  0  0  0  0  0
  183.3200  178.7780  141.8150 N   0  0  0  0  0  2  0  0  0  0  0  0
  190.2430  175.2460  137.9010 C   0  0  0  0  0  2  0  0  0  0  0  0
  191.5410  177.4930  138.8990 C   0  0  1  0  0  3  0  0  0  0  0  0
  184.0950  178.7610  140.5740 C   0  0  0  0  0  2  0  0  0  0  0  0
  190.0310  176.4170  137.1500 O   0  0  0  0  0  0  0  0  0  0  0  0
  192.6430  175.8130  137.2470 C   0  0  1  0  0  3  0  0  0  0  0  0
  189.0000  177.0380  144.3220 C   0  0  0  0  0  3  0  0  0  0  0  0
  189.0220  177.3410  142.9500 C   0  0  0  0  0  0  0  0  0  0  0  0
  186.7710  178.2830  142.9840 C   0  0  0  0  0  3  0  0  0  0  0  0
  189.0690  178.0640  138.6790 C   0  0  0  0  0  2  0  0  0  0  0  0
  186.2880  177.8940  138.9990 O   0  0  0  0  0  0  0  0  0  0  0  0
  184.0190  179.6830  143.9650 C   0  0  0  0  0  1  0  0  0  0  0  0
  187.7900  177.9340  140.8180 N   0  0  0  0  0  0  0  0  0  0  0  0
  185.6000  178.8030  142.3460 N   0  0  0  0  0  0  0  0  0  0  0  0
  193.9990  175.2120  136.9150 C   0  0  0  0  0  2  0  0  0  0  0  0
  194.6810  175.9820  135.8290 C   0  0  0  0  0  0  0  0  0  0  0  0
  193.9320  176.3420  134.5940 C   0  0  0  0  0  1  0  0  0  0  0  0
  195.8540  176.3000  135.9430 O   0  0  0  0  0  0  0  0  0  0  0  0
  1 16  1  0  0  0  0
  2 24  1  6  0  0  0
  2 12  1  0  0  0  0
  2 27  1  0  0  0  0
  3  4  1  0  0  0  0
  5 27  1  0  0  0  0
  5  6  1  0  0  0  0
  6 18  1  6  0  0  0
  6 28  1  0  0  0  0
  7 24  1  1  0  0  0
  7 17  1  0  0  0  0
  9 26  1  1  0  0  0
 11  3  2  0  0  0  0
 12  8  1  6  0  0  0
 12 13  1  0  0  0  0
 13 11  1  0  0  0  0
 13 22  2  0  0  0  0
 14 22  1  0  0  0  0
 14 23  2  0  0  0  0
 15  9  1  0  0  0  0
 17 10  1  6  0  0  0
 17  8  1  0  0  0  0
 18 15  1  0  0  0  0
 19 16  1  0  0  0  0
 19  7  1  0  0  0  0
 20 29  1  1  0  0  0
 20  1  1  0  0  0  0
 20 10  1  0  0  0  0
 21  4  2  0  0  0  0
 22 21  1  0  0  0  0
 25  5  2  0  0  0  0
 27 14  1  0  0  0  0
 28  9  1  0  0  0  0
 28 23  1  0  0  0  0
 30 32  2  0  0  0  0
 30 29  1  0  0  0  0
 31 30  1  0  0  0  0
M  END
>  <MODEL>
2

>  <REMARK>
 VINA RESULT:      -8.0      3.405      7.756
  Name = 
  2 active torsions:
  status: ('A' for Active; 'I' for Inactive)
    1  A    between atoms: C_20  and  C_29
    2  A    between atoms: C_29  and  C_30
                            x       y       z     vdW  Elec       q    Type
                         _______ _______ _______ _____ _____    ______ ____

>  <TORSDO>
F 2

$$$$
=
 OpenBabel11122410523D

 32 37  0  0  1  0  0  0  0  0999 V2000
  190.4620  175.8460  144.7700 C   0  0  0  0  0  2  0  0  0  0  0  0
  189.3780  177.4680  140.7390 C   0  0  2  0  0  3  0  0  0  0  0  0
  184.8980  178.7150  142.3730 C   0  0  0  0  0  3  0  0  0  0  0  0
  184.3780  178.5760  141.0850 C   0  0  0  0  0  3  0  0  0  0  0  0
  189.7320  177.1830  138.2350 C   0  0  0  0  0  0  0  0  0  0  0  0
  189.3850  177.6330  136.8460 C   0  0  1  0  0  3  0  0  0  0  0  0
  191.3000  177.7170  142.3660 C   0  0  1  0  0  3  0  0  0  0  0  0
  188.9560  178.0280  143.0400 O   0  0  0  0  0  0  0  0  0  0  0  0
  187.4790  177.1950  135.4860 C   0  0  2  0  0  3  0  0  0  0  0  0
  190.5850  178.4140  144.7760 C   0  0  0  0  0  2  0  0  0  0  0  0
  186.2750  178.6270  142.5810 C   0  0  0  0  0  3  0  0  0  0  0  0
  188.6320  178.3940  141.7190 C   0  0  2  0  0  3  0  0  0  0  0  0
  187.1450  178.3780  141.5070 C   0  0  0  0  0  0  0  0  0  0  0  0
  187.5480  178.0100  139.0780 C   0  0  0  0  0  0  0  0  0  0  0  0
  188.6340  176.6010  134.8140 N   0  0  0  0  0  2  0  0  0  0  0  0
  190.5700  175.7000  143.2490 C   0  0  0  0  0  2  0  0  0  0  0  0
  190.2760  178.4640  143.2740 C   0  0  1  0  0  3  0  0  0  0  0  0
  189.7310  176.6110  135.7820 C   0  0  0  0  0  2  0  0  0  0  0  0
  191.6830  176.4040  142.7530 O   0  0  0  0  0  0  0  0  0  0  0  0
  191.1780  177.0990  145.2950 C   0  0  1  0  0  3  0  0  0  0  0  0
  185.2370  178.3530  140.0070 C   0  0  0  0  0  3  0  0  0  0  0  0
  186.6250  178.2590  140.2070 C   0  0  0  0  0  0  0  0  0  0  0  0
  187.0900  178.0500  137.8200 C   0  0  0  0  0  3  0  0  0  0  0  0
  190.8740  177.7730  140.8970 C   0  0  0  0  0  2  0  0  0  0  0  0
  190.7420  176.4520  138.4260 O   0  0  0  0  0  0  0  0  0  0  0  0
  186.8590  178.2540  134.5950 C   0  0  0  0  0  1  0  0  0  0  0  0
  188.9260  177.6450  139.3430 N   0  0  0  0  0  0  0  0  0  0  0  0
  187.9580  177.7960  136.7110 N   0  0  0  0  0  0  0  0  0  0  0  0
  191.1790  177.1140  146.8150 C   0  0  0  0  0  2  0  0  0  0  0  0
  189.7880  177.2150  147.3560 C   0  0  0  0  0  0  0  0  0  0  0  0
  189.4290  178.3340  148.2710 C   0  0  0  0  0  1  0  0  0  0  0  0
  188.9520  176.3750  147.0650 O   0  0  0  0  0  0  0  0  0  0  0  0
  1 20  1  0  0  0  0
  2 24  1  6  0  0  0
  2 12  1  0  0  0  0
  3 11  1  0  0  0  0
  4  3  2  0  0  0  0
  5 25  2  0  0  0  0
  5 27  1  0  0  0  0
  6 18  1  6  0  0  0
  6  5  1  0  0  0  0
  7 24  1  6  0  0  0
  7 19  1  0  0  0  0
  7 17  1  0  0  0  0
  8 17  1  0  0  0  0
  9 26  1  6  0  0  0
  9 28  1  0  0  0  0
 10 20  1  0  0  0  0
 12 13  1  1  0  0  0
 12  8  1  0  0  0  0
 13 11  2  0  0  0  0
 14 27  1  0  0  0  0
 14 22  1  0  0  0  0
 15  9  1  0  0  0  0
 15 18  1  0  0  0  0
 16  1  1  0  0  0  0
 17 10  1  1  0  0  0
 19 16  1  0  0  0  0
 20 29  1  1  0  0  0
 21 22  2  0  0  0  0
 21  4  1  0  0  0  0
 22 13  1  0  0  0  0
 23 14  2  0  0  0  0
 27  2  1  0  0  0  0
 28  6  1  0  0  0  0
 28 23  1  0  0  0  0
 29 30  1  0  0  0  0
 30 31  1  0  0  0  0
 32 30  2  0  0  0  0
M  END
>  <MODEL>
3

>  <REMARK>
 VINA RESULT:      -8.0      3.626      8.618
  Name = 
  2 active torsions:
  status: ('A' for Active; 'I' for Inactive)
    1  A    between atoms: C_20  and  C_29
    2  A    between atoms: C_29  and  C_30
                            x       y       z     vdW  Elec       q    Type
                         _______ _______ _______ _____ _____    ______ ____

>  <TORSDO>
F 2

$$$$
=
 OpenBabel11122410523D

 32 37  0  0  1  0  0  0  0  0999 V2000
  181.9400  181.0570  138.9100 C   0  0  0  0  0  2  0  0  0  0  0  0
  185.2930  178.5820  140.5500 C   0  0  2  0  0  3  0  0  0  0  0  0
  183.4480  178.9830  145.1040 C   0  0  0  0  0  3  0  0  0  0  0  0
  184.7270  178.8400  145.6460 C   0  0  0  0  0  3  0  0  0  0  0  0
  187.7540  177.9950  140.2740 C   0  0  0  0  0  0  0  0  0  0  0  0
  188.9420  177.2370  140.7890 C   0  0  1  0  0  3  0  0  0  0  0  0
  183.6280  178.3980  138.6530 C   0  0  1  0  0  3  0  0  0  0  0  0
  182.9410  178.8690  140.9670 O   0  0  0  0  0  0  0  0  0  0  0  0
  190.4100  177.6720  142.6120 C   0  0  2  0  0  3  0  0  0  0  0  0
  181.1360  178.6610  139.3800 C   0  0  0  0  0  2  0  0  0  0  0  0
  183.2490  178.8050  143.7340 C   0  0  0  0  0  3  0  0  0  0  0  0
  184.0890  178.2030  141.4360 C   0  0  2  0  0  3  0  0  0  0  0  0
  184.3270  178.5020  142.8890 C   0  0  0  0  0  0  0  0  0  0  0  0
  186.7420  178.0030  142.5420 C   0  0  0  0  0  0  0  0  0  0  0  0
  191.2090  177.7420  141.3900 N   0  0  0  0  0  2  0  0  0  0  0  0
  183.4290  180.7010  138.8530 C   0  0  0  0  0  2  0  0  0  0  0  0
  182.5550  178.2280  139.7720 C   0  0  1  0  0  3  0  0  0  0  0  0
  190.2620  177.7720  140.2740 C   0  0  0  0  0  2  0  0  0  0  0  0
  183.6590  179.6380  137.9590 O   0  0  0  0  0  0  0  0  0  0  0  0
  181.0380  179.8940  138.4740 C   0  0  1  0  0  3  0  0  0  0  0  0
  185.8030  178.5140  144.8170 C   0  0  0  0  0  3  0  0  0  0  0  0
  185.6120  178.3350  143.4360 C   0  0  0  0  0  0  0  0  0  0  0  0
  187.9360  177.6880  143.0630 C   0  0  0  0  0  3  0  0  0  0  0  0
  185.0160  177.9970  139.1590 C   0  0  0  0  0  2  0  0  0  0  0  0
  187.7760  178.4900  139.1140 O   0  0  0  0  0  0  0  0  0  0  0  0
  190.9430  176.5670  143.5060 C   0  0  0  0  0  1  0  0  0  0  0  0
  186.5750  178.0970  141.1050 N   0  0  0  0  0  0  0  0  0  0  0  0
  189.0500  177.3800  142.2200 N   0  0  0  0  0  0  0  0  0  0  0  0
  179.5890  180.3450  138.3960 C   0  0  0  0  0  2  0  0  0  0  0  0
  179.4070  181.4040  137.3550 C   0  0  0  0  0  0  0  0  0  0  0  0
  179.8050  181.1330  135.9460 C   0  0  0  0  0  1  0  0  0  0  0  0
  178.9510  182.4940  137.6600 O   0  0  0  0  0  0  0  0  0  0  0  0
  2 24  1  6  0  0  0
  2 27  1  0  0  0  0
  2 12  1  0  0  0  0
  3  4  1  0  0  0  0
  5  6  1  0  0  0  0
  5 27  1  0  0  0  0
  6 18  1  6  0  0  0
  6 28  1  0  0  0  0
  7 24  1  1  0  0  0
  7 17  1  0  0  0  0
  9 26  1  1  0  0  0
 11  3  2  0  0  0  0
 12  8  1  6  0  0  0
 12 13  1  0  0  0  0
 13 22  2  0  0  0  0
 13 11  1  0  0  0  0
 14 23  2  0  0  0  0
 14 22  1  0  0  0  0
 15  9  1  0  0  0  0
 16  1  1  0  0  0  0
 17 10  1  6  0  0  0
 17  8  1  0  0  0  0
 18 15  1  0  0  0  0
 19  7  1  0  0  0  0
 19 16  1  0  0  0  0
 20 29  1  1  0  0  0
 20  1  1  0  0  0  0
 20 10  1  0  0  0  0
 21  4  2  0  0  0  0
 22 21  1  0  0  0  0
 25  5  2  0  0  0  0
 27 14  1  0  0  0  0
 28  9  1  0  0  0  0
 28 23  1  0  0  0  0
 30 32  2  0  0  0  0
 30 29  1  0  0  0  0
 31 30  1  0  0  0  0
M  END
>  <MODEL>
4

>  <REMARK>
 VINA RESULT:      -7.7      2.107      4.440
  Name = 
  2 active torsions:
  status: ('A' for Active; 'I' for Inactive)
    1  A    between atoms: C_20  and  C_29
    2  A    between atoms: C_29  and  C_30
                            x       y       z     vdW  Elec       q    Type
                         _______ _______ _______ _____ _____    ______ ____

>  <TORSDO>
F 2

$$$$
=
 OpenBabel11122410523D

 32 37  0  0  1  0  0  0  0  0999 V2000
  193.2180  173.5590  137.3180 C   0  0  0  0  0  2  0  0  0  0  0  0
  189.8380  176.4780  137.6580 C   0  0  2  0  0  3  0  0  0  0  0  0
  191.1460  177.5540  142.2870 C   0  0  0  0  0  3  0  0  0  0  0  0
  189.8250  177.8820  142.5960 C   0  0  0  0  0  3  0  0  0  0  0  0
  187.4560  176.9760  136.9120 C   0  0  0  0  0  0  0  0  0  0  0  0
  186.2600  177.8760  137.0080 C   0  0  1  0  0  3  0  0  0  0  0  0
  191.7090  176.0130  136.0180 C   0  0  1  0  0  3  0  0  0  0  0  0
  192.1110  176.3110  138.4260 O   0  0  0  0  0  0  0  0  0  0  0  0
  184.5790  178.0770  138.6830 C   0  0  2  0  0  3  0  0  0  0  0  0
  194.0890  175.9670  137.0870 C   0  0  0  0  0  2  0  0  0  0  0  0
  191.5050  177.2750  140.9670 C   0  0  0  0  0  3  0  0  0  0  0  0
  190.9540  177.1080  138.5140 C   0  0  2  0  0  3  0  0  0  0  0  0
  190.5430  177.3010  139.9460 C   0  0  0  0  0  0  0  0  0  0  0  0
  188.2100  177.6920  139.1670 C   0  0  0  0  0  0  0  0  0  0  0  0
  183.9170  177.6230  137.4610 N   0  0  0  0  0  2  0  0  0  0  0  0
  191.7650  173.8970  136.9700 C   0  0  0  0  0  2  0  0  0  0  0  0
  192.6600  176.5230  137.1450 C   0  0  1  0  0  3  0  0  0  0  0  0
  184.9780  177.2200  136.5370 C   0  0  0  0  0  2  0  0  0  0  0  0
  191.6910  174.6150  135.7610 O   0  0  0  0  0  0  0  0  0  0  0  0
  194.2220  174.5060  136.6440 C   0  0  1  0  0  3  0  0  0  0  0  0
  188.8650  177.9350  141.5820 C   0  0  0  0  0  3  0  0  0  0  0  0
  189.2160  177.6530  140.2510 C   0  0  0  0  0  0  0  0  0  0  0  0
  186.9840  178.1750  139.4110 C   0  0  0  0  0  3  0  0  0  0  0  0
  190.2970  176.5740  136.1970 C   0  0  0  0  0  2  0  0  0  0  0  0
  187.5360  176.1310  135.9790 O   0  0  0  0  0  0  0  0  0  0  0  0
  184.0090  179.4190  139.1030 C   0  0  0  0  0  1  0  0  0  0  0  0
  188.5300  177.1340  137.8680 N   0  0  0  0  0  0  0  0  0  0  0  0
  185.9870  178.2070  138.3860 N   0  0  0  0  0  0  0  0  0  0  0  0
  195.6460  174.0340  136.8910 C   0  0  0  0  0  2  0  0  0  0  0  0
  196.6350  174.9120  136.1920 C   0  0  0  0  0  0  0  0  0  0  0  0
  196.6790  174.9400  134.7040 C   0  0  0  0  0  1  0  0  0  0  0  0
  197.4180  175.5920  136.8360 O   0  0  0  0  0  0  0  0  0  0  0  0
  2 24  1  6  0  0  0
  2 27  1  0  0  0  0
  2 12  1  0  0  0  0
  3  4  1  0  0  0  0
  5  6  1  0  0  0  0
  5 27  1  0  0  0  0
  6 18  1  1  0  0  0
  6 28  1  0  0  0  0
  7 24  1  1  0  0  0
  7 17  1  0  0  0  0
  9 26  1  6  0  0  0
 11  3  2  0  0  0  0
 12  8  1  1  0  0  0
 12 13  1  0  0  0  0
 13 22  2  0  0  0  0
 13 11  1  0  0  0  0
 14 23  2  0  0  0  0
 14 22  1  0  0  0  0
 15  9  1  0  0  0  0
 16  1  1  0  0  0  0
 17 10  1  1  0  0  0
 17  8  1  0  0  0  0
 18 15  1  0  0  0  0
 19  7  1  0  0  0  0
 19 16  1  0  0  0  0
 20 29  1  1  0  0  0
 20 10  1  0  0  0  0
 20  1  1  0  0  0  0
 21  4  2  0  0  0  0
 22 21  1  0  0  0  0
 25  5  2  0  0  0  0
 27 14  1  0  0  0  0
 28  9  1  0  0  0  0
 28 23  1  0  0  0  0
 30 32  2  0  0  0  0
 30 29  1  0  0  0  0
 31 30  1  0  0  0  0
M  END
>  <MODEL>
5

>  <REMARK>
 VINA RESULT:      -7.3      4.761      9.582
  Name = 
  2 active torsions:
  status: ('A' for Active; 'I' for Inactive)
    1  A    between atoms: C_20  and  C_29
    2  A    between atoms: C_29  and  C_30
                            x       y       z     vdW  Elec       q    Type
                         _______ _______ _______ _____ _____    ______ ____

>  <TORSDO>
F 2

$$$$
=
 OpenBabel11122410523D

 32 37  0  0  1  0  0  0  0  0999 V2000
  190.3590  175.8910  144.2200 C   0  0  0  0  0  2  0  0  0  0  0  0
  187.3300  177.9650  141.6560 C   0  0  2  0  0  3  0  0  0  0  0  0
  184.3900  178.6350  145.5560 C   0  0  0  0  0  3  0  0  0  0  0  0
  183.2690  178.6340  144.7250 C   0  0  0  0  0  3  0  0  0  0  0  0
  186.3100  178.0550  139.3260 C   0  0  0  0  0  0  0  0  0  0  0  0
  185.2880  178.6640  138.4120 C   0  0  1  0  0  3  0  0  0  0  0  0
  189.8230  178.1330  142.0590 C   0  0  1  0  0  3  0  0  0  0  0  0
  188.1860  178.1700  143.8940 O   0  0  0  0  0  0  0  0  0  0  0  0
  182.9480  178.2750  138.1950 C   0  0  2  0  0  3  0  0  0  0  0  0
  190.4890  178.4360  144.5630 C   0  0  0  0  0  2  0  0  0  0  0  0
  185.6700  178.6230  144.9990 C   0  0  0  0  0  3  0  0  0  0  0  0
  187.2190  178.6890  143.0120 C   0  0  2  0  0  3  0  0  0  0  0  0
  185.8430  178.5900  143.6070 C   0  0  0  0  0  0  0  0  0  0  0  0
  184.9040  178.5910  141.3000 C   0  0  0  0  0  0  0  0  0  0  0  0
  183.5710  177.8680  136.9360 N   0  0  0  0  0  2  0  0  0  0  0  0
  189.6500  175.9650  142.8650 C   0  0  0  0  0  2  0  0  0  0  0  0
  189.4350  178.6690  143.4720 C   0  0  1  0  0  3  0  0  0  0  0  0
  185.0140  177.8280  137.1780 C   0  0  0  0  0  2  0  0  0  0  0  0
  190.3400  176.8120  141.9790 O   0  0  0  0  0  0  0  0  0  0  0  0
  191.2550  177.1100  144.4830 C   0  0  1  0  0  3  0  0  0  0  0  0
  183.4300  178.6270  143.3370 C   0  0  0  0  0  3  0  0  0  0  0  0
  184.7150  178.6120  142.7670 C   0  0  0  0  0  0  0  0  0  0  0  0
  183.8530  178.7690  140.4890 C   0  0  0  0  0  3  0  0  0  0  0  0
  188.6870  178.3580  141.0570 C   0  0  0  0  0  2  0  0  0  0  0  0
  187.2640  177.3840  138.8460 O   0  0  0  0  0  0  0  0  0  0  0  0
  181.9600  179.3970  137.9360 C   0  0  0  0  0  1  0  0  0  0  0  0
  186.2110  178.2980  140.7480 N   0  0  0  0  0  0  0  0  0  0  0  0
  184.0050  178.7360  139.0670 N   0  0  0  0  0  0  0  0  0  0  0  0
  192.0560  176.9170  145.7610 C   0  0  0  0  0  2  0  0  0  0  0  0
  191.2030  176.3540  146.8530 C   0  0  0  0  0  0  0  0  0  0  0  0
  190.0260  177.1230  147.3450 C   0  0  0  0  0  1  0  0  0  0  0  0
  191.4790  175.2780  147.3570 O   0  0  0  0  0  0  0  0  0  0  0  0
  1 20  1  0  0  0  0
  2 24  1  6  0  0  0
  2 12  1  0  0  0  0
  4  3  2  0  0  0  0
  5 27  1  0  0  0  0
  6 18  1  6  0  0  0
  6 28  1  0  0  0  0
  6  5  1  0  0  0  0
  7 24  1  6  0  0  0
  7 17  1  0  0  0  0
  9 26  1  6  0  0  0
  9 28  1  0  0  0  0
 11  3  1  0  0  0  0
 12 13  1  1  0  0  0
 12  8  1  0  0  0  0
 13 11  2  0  0  0  0
 14 22  1  0  0  0  0
 15 18  1  0  0  0  0
 15  9  1  0  0  0  0
 16  1  1  0  0  0  0
 17  8  1  0  0  0  0
 17 10  1  1  0  0  0
 19  7  1  0  0  0  0
 19 16  1  0  0  0  0
 20 10  1  0  0  0  0
 20 29  1  1  0  0  0
 21  4  1  0  0  0  0
 22 21  2  0  0  0  0
 22 13  1  0  0  0  0
 23 14  2  0  0  0  0
 25  5  2  0  0  0  0
 27 14  1  0  0  0  0
 27  2  1  0  0  0  0
 28 23  1  0  0  0  0
 29 30  1  0  0  0  0
 30 31  1  0  0  0  0
 30 32  2  0  0  0  0
M  END
>  <MODEL>
6

>  <REMARK>
 VINA RESULT:      -7.2      2.822      8.622
  Name = 
  2 active torsions:
  status: ('A' for Active; 'I' for Inactive)
    1  A    between atoms: C_20  and  C_29
    2  A    between atoms: C_29  and  C_30
                            x       y       z     vdW  Elec       q    Type
                         _______ _______ _______ _____ _____    ______ ____

>  <TORSDO>
F 2

$$$$
=
 OpenBabel11122410523D

 32 37  0  0  1  0  0  0  0  0999 V2000
  182.4040  177.1410  138.9310 C   0  0  0  0  0  2  0  0  0  0  0  0
  185.8740  178.1080  141.5920 C   0  0  2  0  0  3  0  0  0  0  0  0
  188.9850  177.7140  137.7880 C   0  0  0  0  0  3  0  0  0  0  0  0
  190.0150  177.3480  138.6550 C   0  0  0  0  0  3  0  0  0  0  0  0
  186.7940  177.8760  143.9540 C   0  0  0  0  0  0  0  0  0  0  0  0
  187.9330  178.1170  144.9000 C   0  0  1  0  0  3  0  0  0  0  0  0
  183.5950  179.0960  141.1090 C   0  0  1  0  0  3  0  0  0  0  0  0
  185.2040  178.5640  139.3280 O   0  0  0  0  0  0  0  0  0  0  0  0
  189.9990  176.9700  145.1920 C   0  0  2  0  0  3  0  0  0  0  0  0
  183.1450  179.5780  138.5850 C   0  0  0  0  0  2  0  0  0  0  0  0
  187.7580  178.1380  138.3040 C   0  0  0  0  0  3  0  0  0  0  0  0
  186.2620  178.7380  140.2400 C   0  0  2  0  0  3  0  0  0  0  0  0
  187.5430  178.1790  139.6900 C   0  0  0  0  0  0  0  0  0  0  0  0
  188.3570  177.8900  142.0250 C   0  0  0  0  0  0  0  0  0  0  0  0
  189.2380  176.8090  146.4300 N   0  0  0  0  0  2  0  0  0  0  0  0
  183.0560  176.9860  140.3080 C   0  0  0  0  0  2  0  0  0  0  0  0
  184.1810  179.4570  139.7090 C   0  0  1  0  0  3  0  0  0  0  0  0
  187.8730  177.2510  146.1410 C   0  0  0  0  0  2  0  0  0  0  0  0
  182.6620  178.0260  141.1720 O   0  0  0  0  0  0  0  0  0  0  0  0
  181.9770  178.5860  138.6400 C   0  0  1  0  0  3  0  0  0  0  0  0
  189.8190  177.4090  140.0370 C   0  0  0  0  0  3  0  0  0  0  0  0
  188.5870  177.8310  140.5650 C   0  0  0  0  0  0  0  0  0  0  0  0
  189.3830  177.7150  142.8690 C   0  0  0  0  0  3  0  0  0  0  0  0
  184.7090  178.9390  142.1470 C   0  0  0  0  0  2  0  0  0  0  0  0
  185.6560  177.5680  144.4030 O   0  0  0  0  0  0  0  0  0  0  0  0
  191.2970  177.7000  145.4830 C   0  0  0  0  0  1  0  0  0  0  0  0
  187.0110  178.0570  142.5360 N   0  0  0  0  0  0  0  0  0  0  0  0
  189.1850  177.7490  144.2860 N   0  0  0  0  0  0  0  0  0  0  0  0
  181.1970  178.6580  137.3370 C   0  0  0  0  0  2  0  0  0  0  0  0
  181.4880  177.4780  136.4660 C   0  0  0  0  0  0  0  0  0  0  0  0
  182.6780  177.4950  135.5700 C   0  0  0  0  0  1  0  0  0  0  0  0
  180.7460  176.5100  136.4710 O   0  0  0  0  0  0  0  0  0  0  0  0
  1 16  1  0  0  0  0
  2 24  1  1  0  0  0
  2 27  1  0  0  0  0
  3 11  2  0  0  0  0
  3  4  1  0  0  0  0
  4 21  2  0  0  0  0
  5 25  2  0  0  0  0
  5  6  1  0  0  0  0
  6 18  1  1  0  0  0
  7 19  1  0  0  0  0
  7 24  1  1  0  0  0
  8 17  1  0  0  0  0
  9 26  1  1  0  0  0
  9 15  1  0  0  0  0
 10 20  1  0  0  0  0
 11 13  1  0  0  0  0
 12  8  1  6  0  0  0
 12  2  1  0  0  0  0
 13 12  1  0  0  0  0
 13 22  2  0  0  0  0
 14 27  1  0  0  0  0
 14 23  2  0  0  0  0
 16 19  1  0  0  0  0
 17 10  1  6  0  0  0
 17  7  1  0  0  0  0
 18 15  1  0  0  0  0
 20 29  1  6  0  0  0
 20  1  1  0  0  0  0
 21 22  1  0  0  0  0
 22 14  1  0  0  0  0
 23 28  1  0  0  0  0
 27  5  1  0  0  0  0
 28  6  1  0  0  0  0
 28  9  1  0  0  0  0
 30 32  2  0  0  0  0
 30 29  1  0  0  0  0
 31 30  1  0  0  0  0
M  END
>  <MODEL>
7

>  <REMARK>
 VINA RESULT:      -7.1      1.284      1.466
  Name = 
  2 active torsions:
  status: ('A' for Active; 'I' for Inactive)
    1  A    between atoms: C_20  and  C_29
    2  A    between atoms: C_29  and  C_30
                            x       y       z     vdW  Elec       q    Type
                         _______ _______ _______ _____ _____    ______ ____

>  <TORSDO>
F 2

$$$$
=
 OpenBabel11122410523D

 32 37  0  0  1  0  0  0  0  0999 V2000
  188.7510  175.7390  137.4780 C   0  0  0  0  0  2  0  0  0  0  0  0
  185.5000  178.0180  139.5490 C   0  0  2  0  0  3  0  0  0  0  0  0
  187.9370  177.7370  143.8250 C   0  0  0  0  0  3  0  0  0  0  0  0
  186.7330  177.8070  144.5280 C   0  0  0  0  0  3  0  0  0  0  0  0
  182.9940  178.4600  139.5960 C   0  0  0  0  0  0  0  0  0  0  0  0
  181.8400  179.1490  140.2630 C   0  0  1  0  0  3  0  0  0  0  0  0
  186.8930  178.2940  137.4540 C   0  0  1  0  0  3  0  0  0  0  0  0
  187.8980  177.8700  139.6570 O   0  0  0  0  0  0  0  0  0  0  0  0
  180.6470  178.6330  142.2590 C   0  0  2  0  0  3  0  0  0  0  0  0
  189.4690  178.1790  137.8520 C   0  0  0  0  0  2  0  0  0  0  0  0
  187.9470  177.9240  142.4420 C   0  0  0  0  0  3  0  0  0  0  0  0
  186.7830  178.4690  140.2750 C   0  0  2  0  0  3  0  0  0  0  0  0
  186.7530  178.1610  141.7440 C   0  0  0  0  0  0  0  0  0  0  0  0
  184.2880  178.5170  141.7140 C   0  0  0  0  0  0  0  0  0  0  0  0
  179.7030  178.5130  141.1490 N   0  0  0  0  0  2  0  0  0  0  0  0
  187.2500  176.0070  137.6150 C   0  0  0  0  0  2  0  0  0  0  0  0
  188.0890  178.5300  138.4260 C   0  0  1  0  0  3  0  0  0  0  0  0
  180.4980  178.5360  139.9200 C   0  0  0  0  0  2  0  0  0  0  0  0
  186.8450  177.0530  136.7640 O   0  0  0  0  0  0  0  0  0  0  0  0
  189.5200  176.9520  136.9350 C   0  0  1  0  0  3  0  0  0  0  0  0
  185.5420  178.0670  143.8460 C   0  0  0  0  0  3  0  0  0  0  0  0
  185.5420  178.2530  142.4530 C   0  0  0  0  0  0  0  0  0  0  0  0
  183.1560  178.7630  142.3860 C   0  0  0  0  0  3  0  0  0  0  0  0
  185.5610  178.6140  138.1360 C   0  0  0  0  0  2  0  0  0  0  0  0
  182.8510  177.9610  138.4460 O   0  0  0  0  0  0  0  0  0  0  0  0
  180.1710  179.7070  143.2190 C   0  0  0  0  0  1  0  0  0  0  0  0
  184.2740  178.4290  140.2670 N   0  0  0  0  0  0  0  0  0  0  0  0
  181.9260  179.0030  141.6950 N   0  0  0  0  0  0  0  0  0  0  0  0
  190.9710  176.5860  136.6690 C   0  0  0  0  0  2  0  0  0  0  0  0
  191.5900  175.9250  137.8590 C   0  0  0  0  0  0  0  0  0  0  0  0
  192.2540  176.7530  138.9040 C   0  0  0  0  0  1  0  0  0  0  0  0
  191.5700  174.7100  137.9690 O   0  0  0  0  0  0  0  0  0  0  0  0
  1 16  1  0  0  0  0
  2 24  1  6  0  0  0
  2 27  1  0  0  0  0
  2 12  1  0  0  0  0
  3  4  1  0  0  0  0
  5  6  1  0  0  0  0
  5 27  1  0  0  0  0
  6 18  1  6  0  0  0
  6 28  1  0  0  0  0
  7 24  1  1  0  0  0
  7 17  1  0  0  0  0
  9 26  1  1  0  0  0
 11  3  2  0  0  0  0
 12  8  1  6  0  0  0
 12 13  1  0  0  0  0
 13 11  1  0  0  0  0
 13 22  2  0  0  0  0
 14 23  2  0  0  0  0
 14 22  1  0  0  0  0
 15  9  1  0  0  0  0
 17 10  1  6  0  0  0
 17  8  1  0  0  0  0
 18 15  1  0  0  0  0
 19  7  1  0  0  0  0
 19 16  1  0  0  0  0
 20 29  1  1  0  0  0
 20  1  1  0  0  0  0
 20 10  1  0  0  0  0
 21  4  2  0  0  0  0
 22 21  1  0  0  0  0
 25  5  2  0  0  0  0
 27 14  1  0  0  0  0
 28  9  1  0  0  0  0
 28 23  1  0  0  0  0
 29 30  1  0  0  0  0
 30 32  2  0  0  0  0
 30 31  1  0  0  0  0
M  END
>  <MODEL>
8

>  <REMARK>
 VINA RESULT:      -7.1      3.143      7.372
  Name = 
  2 active torsions:
  status: ('A' for Active; 'I' for Inactive)
    1  A    between atoms: C_20  and  C_29
    2  A    between atoms: C_29  and  C_30
                            x       y       z     vdW  Elec       q    Type
                         _______ _______ _______ _____ _____    ______ ____

>  <TORSDO>
F 2

$$$$
=
 OpenBabel11122410523D

 32 37  0  0  1  0  0  0  0  0999 V2000
  188.4560  175.6800  137.0720 C   0  0  0  0  0  2  0  0  0  0  0  0
  187.4350  177.8030  140.8800 C   0  0  2  0  0  3  0  0  0  0  0  0
  191.7060  176.3850  142.8920 C   0  0  0  0  0  3  0  0  0  0  0  0
  191.1340  176.4320  144.1650 C   0  0  0  0  0  3  0  0  0  0  0  0
  185.5240  178.4830  142.4180 C   0  0  0  0  0  0  0  0  0  0  0  0
  185.1000  179.1340  143.7020 C   0  0  1  0  0  3  0  0  0  0  0  0
  187.4620  178.3630  138.4120 C   0  0  1  0  0  3  0  0  0  0  0  0
  189.4040  177.3880  139.5630 O   0  0  0  0  0  0  0  0  0  0  0  0
  185.1300  178.3400  145.9470 C   0  0  2  0  0  3  0  0  0  0  0  0
  189.7410  177.9010  137.2300 C   0  0  0  0  0  2  0  0  0  0  0  0
  190.9900  176.8540  141.7890 C   0  0  0  0  0  3  0  0  0  0  0  0
  188.9650  177.9570  140.7740 C   0  0  2  0  0  3  0  0  0  0  0  0
  189.6880  177.3540  141.9440 C   0  0  0  0  0  0  0  0  0  0  0  0
  187.7510  177.9630  143.3860 C   0  0  0  0  0  0  0  0  0  0  0  0
  183.7300  178.5530  145.5840 N   0  0  0  0  0  2  0  0  0  0  0  0
  187.3710  176.0690  138.0810 C   0  0  0  0  0  2  0  0  0  0  0  0
  189.0140  178.2650  138.5310 C   0  0  1  0  0  3  0  0  0  0  0  0
  183.7000  178.7490  144.1340 C   0  0  0  0  0  2  0  0  0  0  0  0
  186.7890  177.3040  137.7450 O   0  0  0  0  0  0  0  0  0  0  0  0
  189.0260  176.8930  136.3230 C   0  0  1  0  0  3  0  0  0  0  0  0
  189.8480  176.9510  144.3330 C   0  0  0  0  0  3  0  0  0  0  0  0
  189.1180  177.4220  143.2280 C   0  0  0  0  0  0  0  0  0  0  0  0
  187.2560  178.1790  144.6120 C   0  0  0  0  0  3  0  0  0  0  0  0
  186.8260  178.6710  139.7710 C   0  0  0  0  0  2  0  0  0  0  0  0
  184.6720  178.2520  141.5170 O   0  0  0  0  0  0  0  0  0  0  0  0
  185.4940  179.2340  147.1180 C   0  0  0  0  0  1  0  0  0  0  0  0
  186.9230  178.1800  142.2160 N   0  0  0  0  0  0  0  0  0  0  0  0
  185.9290  178.6850  144.7930 N   0  0  0  0  0  0  0  0  0  0  0  0
  189.9780  176.4420  135.2270 C   0  0  0  0  0  2  0  0  0  0  0  0
  190.9390  175.4140  135.7330 C   0  0  0  0  0  0  0  0  0  0  0  0
  192.1080  175.8340  136.5540 C   0  0  0  0  0  1  0  0  0  0  0  0
  190.7800  174.2350  135.4610 O   0  0  0  0  0  0  0  0  0  0  0  0
  1 16  1  0  0  0  0
  2 24  1  6  0  0  0
  2 27  1  0  0  0  0
  3  4  1  0  0  0  0
  4 21  2  0  0  0  0
  5  6  1  0  0  0  0
  6 18  1  1  0  0  0
  6 28  1  0  0  0  0
  7 17  1  0  0  0  0
  7 24  1  1  0  0  0
  9 26  1  1  0  0  0
 11 13  1  0  0  0  0
 11  3  2  0  0  0  0
 12  8  1  6  0  0  0
 12  2  1  0  0  0  0
 12 13  1  0  0  0  0
 13 22  2  0  0  0  0
 14 23  2  0  0  0  0
 15  9  1  0  0  0  0
 17 10  1  6  0  0  0
 17  8  1  0  0  0  0
 18 15  1  0  0  0  0
 19 16  1  0  0  0  0
 19  7  1  0  0  0  0
 20 29  1  6  0  0  0
 20  1  1  0  0  0  0
 20 10  1  0  0  0  0
 22 14  1  0  0  0  0
 22 21  1  0  0  0  0
 23 28  1  0  0  0  0
 25  5  2  0  0  0  0
 27  5  1  0  0  0  0
 27 14  1  0  0  0  0
 28  9  1  0  0  0  0
 29 30  1  0  0  0  0
 30 31  1  0  0  0  0
 32 30  2  0  0  0  0
M  END
>  <MODEL>
9

>  <REMARK>
 VINA RESULT:      -6.9      3.077      5.716
  Name = 
  2 active torsions:
  status: ('A' for Active; 'I' for Inactive)
    1  A    between atoms: C_20  and  C_29
    2  A    between atoms: C_29  and  C_30
                            x       y       z     vdW  Elec       q    Type
                         _______ _______ _______ _____ _____    ______ ____

>  <TORSDO>
F 2

$$$$
