=
 OpenBabel11122411073D

 31 35  0  0  0  0  0  0  0  0999 V2000
  185.1930  178.5820  144.5490 C   0  0  0  0  0  0  0  0  0  0  0  0
  188.7360  177.4040  144.0430 C   0  0  0  0  0  0  0  0  0  0  0  0
  189.3330  177.3200  145.3400 C   0  0  0  0  0  0  0  0  0  0  0  0
  189.2560  177.5450  147.7740 C   0  0  0  0  0  0  0  0  0  0  0  0
  187.3890  177.8150  143.7940 C   0  0  0  0  0  0  0  0  0  0  0  0
  184.7360  178.6200  143.2330 C   0  0  0  0  0  3  0  0  0  0  0  0
  188.6420  177.6390  146.5230 C   0  0  0  0  0  3  0  0  0  0  0  0
  189.0420  177.1050  141.6150 C   0  0  0  0  0  0  0  0  0  0  0  0
  184.2840  178.9650  145.6620 C   0  0  0  0  0  1  0  0  0  0  0  0
  191.4080  176.5700  144.3290 C   0  0  0  0  0  3  0  0  0  0  0  0
  188.5440  177.8680  148.9220 O   0  0  0  0  0  1  0  0  0  0  0  0
  187.7260  177.5090  141.4000 C   0  0  0  0  0  3  0  0  0  0  0  0
  189.5490  177.0500  142.9230 C   0  0  0  0  0  0  0  0  0  0  0  0
  186.5020  178.1850  144.8230 C   0  0  0  0  0  3  0  0  0  0  0  0
  190.5820  177.1280  147.8700 C   0  0  0  0  0  3  0  0  0  0  0  0
  186.9040  177.8610  142.4620 C   0  0  0  0  0  0  0  0  0  0  0  0
  185.5910  178.2600  142.1920 C   0  0  0  0  0  3  0  0  0  0  0  0
  190.8360  176.6520  143.1060 N   0  0  0  0  0  0  0  0  0  0  0  0
  190.6800  176.8970  145.4620 C   0  0  0  0  0  0  0  0  0  0  0  0
  191.2940  176.8040  146.7160 C   0  0  0  0  0  3  0  0  0  0  0  0
  189.4920  178.5550  139.0970 O   0  0  0  0  0  0  0  0  0  0  0  0
  190.0970  177.4680  139.2920 C   0  0  0  0  0  0  0  0  0  0  0  0
  189.8940  176.7410  140.5150 N   0  0  0  0  0  2  0  0  0  0  0  0
  192.6600  175.8630  136.2330 C   0  0  0  0  0  0  0  0  0  0  0  0
  190.4790  176.5040  137.0450 C   0  0  0  0  0  3  0  0  0  0  0  0
  193.2550  177.2800  139.9370 Cl  0  0  0  0  0  0  0  0  0  0  0  0
  193.4650  175.3420  135.2300 O   0  0  0  0  0  1  0  0  0  0  0  0
  191.2860  175.9790  136.0350 C   0  0  0  0  0  3  0  0  0  0  0  0
  192.4280  176.8000  138.4610 C   0  0  0  0  0  0  0  0  0  0  0  0
  191.0260  176.9220  138.2700 C   0  0  0  0  0  0  0  0  0  0  0  0
  193.2250  176.2720  137.4410 C   0  0  0  0  0  3  0  0  0  0  0  0
  1 14  1  0  0  0  0
  1  9  1  0  0  0  0
  2  3  1  0  0  0  0
  3 19  2  0  0  0  0
  3  7  1  0  0  0  0
  4 15  1  0  0  0  0
  4 11  1  0  0  0  0
  5  2  1  0  0  0  0
  5 14  2  0  0  0  0
  6  1  2  0  0  0  0
  7  4  2  0  0  0  0
  8 13  1  0  0  0  0
 10 19  1  0  0  0  0
 12  8  2  0  0  0  0
 12 16  1  0  0  0  0
 13 18  1  0  0  0  0
 13  2  2  0  0  0  0
 16  5  1  0  0  0  0
 17 16  2  0  0  0  0
 17  6  1  0  0  0  0
 18 10  2  0  0  0  0
 19 20  1  0  0  0  0
 20 15  2  0  0  0  0
 21 22  2  0  0  0  0
 22 23  1  0  0  0  0
 23  8  1  0  0  0  0
 24 31  1  0  0  0  0
 25 30  2  0  0  0  0
 27 24  1  0  0  0  0
 28 24  2  0  0  0  0
 28 25  1  0  0  0  0
 29 26  1  0  0  0  0
 30 29  1  0  0  0  0
 30 22  1  0  0  0  0
 31 29  2  0  0  0  0
M  END
>  <MODEL>
1

>  <REMARK>
 VINA RESULT:     -11.3      0.000      0.000
  Name = 
  2 active torsions:
  status: ('A' for Active; 'I' for Inactive)
    1  A    between atoms: C_5  and  C_30
    2  A    between atoms: C_10  and  N_16
                            x       y       z     vdW  Elec       q    Type
                         _______ _______ _______ _____ _____    ______ ____

>  <TORSDO>
F 2

$$$$
=
 OpenBabel11122411073D

 31 35  0  0  0  0  0  0  0  0999 V2000
  189.3720  177.3390  147.0550 C   0  0  0  0  0  0  0  0  0  0  0  0
  188.0430  177.5720  143.5360 C   0  0  0  0  0  0  0  0  0  0  0  0
  186.7030  178.0640  143.6330 C   0  0  0  0  0  0  0  0  0  0  0  0
  184.7770  178.8530  144.9170 C   0  0  0  0  0  0  0  0  0  0  0  0
  188.9040  177.3390  144.6550 C   0  0  0  0  0  0  0  0  0  0  0  0
  190.6580  176.8560  146.8200 C   0  0  0  0  0  3  0  0  0  0  0  0
  186.0870  178.3740  144.8600 C   0  0  0  0  0  3  0  0  0  0  0  0
  189.8520  176.8110  142.0450 C   0  0  0  0  0  0  0  0  0  0  0  0
  188.9200  177.6010  148.4470 C   0  0  0  0  0  1  0  0  0  0  0  0
  186.5020  177.9670  141.2160 C   0  0  0  0  0  3  0  0  0  0  0  0
  184.2000  179.1490  146.1440 O   0  0  0  0  0  1  0  0  0  0  0  0
  190.6710  176.5920  143.1510 C   0  0  0  0  0  3  0  0  0  0  0  0
  188.5480  177.2970  142.2300 C   0  0  0  0  0  0  0  0  0  0  0  0
  188.5080  177.5760  145.9850 C   0  0  0  0  0  3  0  0  0  0  0  0
  184.0490  179.0340  143.7420 C   0  0  0  0  0  3  0  0  0  0  0  0
  190.2170  176.8480  144.4380 C   0  0  0  0  0  0  0  0  0  0  0  0
  191.0790  176.6110  145.5130 C   0  0  0  0  0  3  0  0  0  0  0  0
  187.7690  177.5020  141.1340 N   0  0  0  0  0  0  0  0  0  0  0  0
  185.9440  178.2560  142.4520 C   0  0  0  0  0  0  0  0  0  0  0  0
  184.6310  178.7360  142.5110 C   0  0  0  0  0  3  0  0  0  0  0  0
  192.2080  177.9250  140.6840 O   0  0  0  0  0  0  0  0  0  0  0  0
  191.4790  177.1050  140.0680 C   0  0  0  0  0  0  0  0  0  0  0  0
  190.3220  176.5460  140.7120 N   0  0  0  0  0  2  0  0  0  0  0  0
  192.5590  175.9220  136.0760 C   0  0  0  0  0  0  0  0  0  0  0  0
  193.1360  176.3980  138.3710 C   0  0  0  0  0  3  0  0  0  0  0  0
  189.1220  176.9540  137.8660 Cl  0  0  0  0  0  0  0  0  0  0  0  0
  192.9330  175.5370  134.7960 O   0  0  0  0  0  1  0  0  0  0  0  0
  193.5150  176.0120  137.0850 C   0  0  0  0  0  3  0  0  0  0  0  0
  190.8310  176.6060  137.6390 C   0  0  0  0  0  0  0  0  0  0  0  0
  191.7980  176.7020  138.6740 C   0  0  0  0  0  0  0  0  0  0  0  0
  191.2250  176.2180  136.3540 C   0  0  0  0  0  3  0  0  0  0  0  0
  1  9  1  0  0  0  0
  2  3  1  0  0  0  0
  2  5  1  0  0  0  0
  3  7  2  0  0  0  0
  4 11  1  0  0  0  0
  5 14  1  0  0  0  0
  6  1  1  0  0  0  0
  7  4  1  0  0  0  0
  8 13  1  0  0  0  0
  8 12  2  0  0  0  0
 10 19  1  0  0  0  0
 12 16  1  0  0  0  0
 13  2  2  0  0  0  0
 14  1  2  0  0  0  0
 15  4  2  0  0  0  0
 16  5  2  0  0  0  0
 16 17  1  0  0  0  0
 17  6  2  0  0  0  0
 18 10  2  0  0  0  0
 18 13  1  0  0  0  0
 19 20  2  0  0  0  0
 19  3  1  0  0  0  0
 20 15  1  0  0  0  0
 22 21  2  0  0  0  0
 22 23  1  0  0  0  0
 23  8  1  0  0  0  0
 24 31  2  0  0  0  0
 24 28  1  0  0  0  0
 25 30  1  0  0  0  0
 27 24  1  0  0  0  0
 28 25  2  0  0  0  0
 29 26  1  0  0  0  0
 29 30  2  0  0  0  0
 30 22  1  0  0  0  0
 31 29  1  0  0  0  0
M  END
>  <MODEL>
2

>  <REMARK>
 VINA RESULT:     -10.9      1.640      4.182
  Name = 
  2 active torsions:
  status: ('A' for Active; 'I' for Inactive)
    1  A    between atoms: C_5  and  C_30
    2  A    between atoms: C_10  and  N_16
                            x       y       z     vdW  Elec       q    Type
                         _______ _______ _______ _____ _____    ______ ____

>  <TORSDO>
F 2

$$$$
=
 OpenBabel11122411073D

 31 35  0  0  0  0  0  0  0  0999 V2000
  186.8680  177.8520  145.9090 C   0  0  0  0  0  0  0  0  0  0  0  0
  187.1560  178.1800  142.1650 C   0  0  0  0  0  0  0  0  0  0  0  0
  188.4820  177.7730  141.8160 C   0  0  0  0  0  0  0  0  0  0  0  0
  190.7140  176.9550  142.3890 C   0  0  0  0  0  0  0  0  0  0  0  0
  186.6390  178.2030  143.4990 C   0  0  0  0  0  0  0  0  0  0  0  0
  185.5540  178.2720  146.1110 C   0  0  0  0  0  3  0  0  0  0  0  0
  189.4280  177.3460  142.7660 C   0  0  0  0  0  3  0  0  0  0  0  0
  184.9780  179.0060  141.3580 C   0  0  0  0  0  0  0  0  0  0  0  0
  187.7020  177.4390  147.0680 C   0  0  0  0  0  1  0  0  0  0  0  0
  187.9900  178.2040  139.4780 C   0  0  0  0  0  3  0  0  0  0  0  0
  191.6230  176.5390  143.3530 O   0  0  0  0  0  1  0  0  0  0  0  0
  184.4990  179.0190  142.6670 C   0  0  0  0  0  3  0  0  0  0  0  0
  186.2940  178.5910  141.1040 C   0  0  0  0  0  0  0  0  0  0  0  0
  187.4010  177.8190  144.6190 C   0  0  0  0  0  3  0  0  0  0  0  0
  191.0860  176.9820  141.0470 C   0  0  0  0  0  3  0  0  0  0  0  0
  185.3050  178.6270  143.7270 C   0  0  0  0  0  0  0  0  0  0  0  0
  184.7750  178.6590  145.0210 C   0  0  0  0  0  3  0  0  0  0  0  0
  186.7380  178.5880  139.8180 N   0  0  0  0  0  0  0  0  0  0  0  0
  188.8820  177.7920  140.4560 C   0  0  0  0  0  0  0  0  0  0  0  0
  190.1710  177.4010  140.0810 C   0  0  0  0  0  3  0  0  0  0  0  0
  182.4090  177.8650  140.4970 O   0  0  0  0  0  0  0  0  0  0  0  0
  182.8890  178.8370  139.8580 C   0  0  0  0  0  0  0  0  0  0  0  0
  184.1440  179.4130  140.2600 N   0  0  0  0  0  2  0  0  0  0  0  0
  180.8070  180.6210  136.5440 C   0  0  0  0  0  0  0  0  0  0  0  0
  181.7530  180.7420  138.7620 C   0  0  0  0  0  3  0  0  0  0  0  0
  182.3630  176.9950  137.2590 Cl  0  0  0  0  0  0  0  0  0  0  0  0
  180.1340  181.2200  135.4890 O   0  0  0  0  0  1  0  0  0  0  0  0
  181.0750  181.3470  137.7030 C   0  0  0  0  0  3  0  0  0  0  0  0
  181.8980  178.6740  137.5010 C   0  0  0  0  0  0  0  0  0  0  0  0
  182.1750  179.4040  138.6860 C   0  0  0  0  0  0  0  0  0  0  0  0
  181.2170  179.2920  136.4460 C   0  0  0  0  0  3  0  0  0  0  0  0
  1  6  1  0  0  0  0
  1  9  1  0  0  0  0
  2  5  1  0  0  0  0
  3  2  1  0  0  0  0
  3  7  2  0  0  0  0
  4  7  1  0  0  0  0
  4 11  1  0  0  0  0
  5 16  2  0  0  0  0
  5 14  1  0  0  0  0
  8 12  2  0  0  0  0
 10 18  2  0  0  0  0
 10 19  1  0  0  0  0
 12 16  1  0  0  0  0
 13  8  1  0  0  0  0
 13  2  2  0  0  0  0
 14  1  2  0  0  0  0
 15  4  2  0  0  0  0
 16 17  1  0  0  0  0
 17  6  2  0  0  0  0
 18 13  1  0  0  0  0
 19  3  1  0  0  0  0
 20 19  2  0  0  0  0
 20 15  1  0  0  0  0
 22 23  1  0  0  0  0
 22 21  2  0  0  0  0
 23  8  1  0  0  0  0
 24 28  1  0  0  0  0
 26 29  1  0  0  0  0
 27 24  1  0  0  0  0
 28 25  2  0  0  0  0
 29 30  2  0  0  0  0
 30 25  1  0  0  0  0
 30 22  1  0  0  0  0
 31 24  2  0  0  0  0
 31 29  1  0  0  0  0
M  END
>  <MODEL>
3

>  <REMARK>
 VINA RESULT:     -10.8      4.624      7.254
  Name = 
  2 active torsions:
  status: ('A' for Active; 'I' for Inactive)
    1  A    between atoms: C_5  and  C_30
    2  A    between atoms: C_10  and  N_16
                            x       y       z     vdW  Elec       q    Type
                         _______ _______ _______ _____ _____    ______ ____

>  <TORSDO>
F 2

$$$$
=
 OpenBabel11122411073D

 31 35  0  0  0  0  0  0  0  0999 V2000
  187.6250  177.5400  146.3760 C   0  0  0  0  0  0  0  0  0  0  0  0
  187.3290  178.0610  142.6550 C   0  0  0  0  0  0  0  0  0  0  0  0
  188.6050  177.7420  142.0910 C   0  0  0  0  0  0  0  0  0  0  0  0
  190.9330  177.0170  142.2820 C   0  0  0  0  0  0  0  0  0  0  0  0
  187.0190  177.9920  144.0500 C   0  0  0  0  0  0  0  0  0  0  0  0
  186.3380  177.8800  146.7940 C   0  0  0  0  0  3  0  0  0  0  0  0
  189.7010  177.3210  142.8660 C   0  0  0  0  0  3  0  0  0  0  0  0
  185.0190  178.8070  142.2270 C   0  0  0  0  0  0  0  0  0  0  0  0
  188.6420  177.1180  147.3740 C   0  0  0  0  0  1  0  0  0  0  0  0
  187.7470  178.2560  139.8800 C   0  0  0  0  0  3  0  0  0  0  0  0
  191.9940  176.6050  143.0760 O   0  0  0  0  0  1  0  0  0  0  0  0
  184.7430  178.7320  143.5900 C   0  0  0  0  0  3  0  0  0  0  0  0
  186.3000  178.4750  141.7570 C   0  0  0  0  0  0  0  0  0  0  0  0
  187.9580  177.5970  145.0220 C   0  0  0  0  0  3  0  0  0  0  0  0
  191.0960  177.1280  140.9020 C   0  0  0  0  0  3  0  0  0  0  0  0
  185.7170  178.3340  144.4970 C   0  0  0  0  0  0  0  0  0  0  0  0
  185.3870  178.2760  145.8540 C   0  0  0  0  0  3  0  0  0  0  0  0
  186.5440  178.5560  140.4220 N   0  0  0  0  0  0  0  0  0  0  0  0
  188.7940  177.8470  140.6910 C   0  0  0  0  0  0  0  0  0  0  0  0
  190.0280  177.5420  140.1070 C   0  0  0  0  0  3  0  0  0  0  0  0
  183.1500  177.1290  140.6990 O   0  0  0  0  0  0  0  0  0  0  0  0
  183.1080  178.3780  140.5510 C   0  0  0  0  0  0  0  0  0  0  0  0
  184.0110  179.2200  141.2880 N   0  0  0  0  0  2  0  0  0  0  0  0
  180.3770  180.1430  137.7360 C   0  0  0  0  0  0  0  0  0  0  0  0
  182.4220  178.9670  138.2480 C   0  0  0  0  0  3  0  0  0  0  0  0
  180.4310  179.7480  141.7260 Cl  0  0  0  0  0  0  0  0  0  0  0  0
  179.5130  180.7050  136.8070 O   0  0  0  0  0  1  0  0  0  0  0  0
  181.5550  179.5310  137.3120 C   0  0  0  0  0  3  0  0  0  0  0  0
  180.9290  179.6270  140.0440 C   0  0  0  0  0  0  0  0  0  0  0  0
  182.1320  179.0020  139.6220 C   0  0  0  0  0  0  0  0  0  0  0  0
  180.0680  180.1890  139.0950 C   0  0  0  0  0  3  0  0  0  0  0  0
  1  6  1  0  0  0  0
  1  9  1  0  0  0  0
  2  5  1  0  0  0  0
  3  2  1  0  0  0  0
  3  7  2  0  0  0  0
  4  7  1  0  0  0  0
  4 11  1  0  0  0  0
  5 16  2  0  0  0  0
  5 14  1  0  0  0  0
  8 12  2  0  0  0  0
 10 18  2  0  0  0  0
 10 19  1  0  0  0  0
 12 16  1  0  0  0  0
 13  8  1  0  0  0  0
 13  2  2  0  0  0  0
 14  1  2  0  0  0  0
 15  4  2  0  0  0  0
 16 17  1  0  0  0  0
 17  6  2  0  0  0  0
 18 13  1  0  0  0  0
 19  3  1  0  0  0  0
 20 19  2  0  0  0  0
 20 15  1  0  0  0  0
 22 21  2  0  0  0  0
 22 23  1  0  0  0  0
 23  8  1  0  0  0  0
 24 31  1  0  0  0  0
 25 30  2  0  0  0  0
 27 24  1  0  0  0  0
 28 24  2  0  0  0  0
 28 25  1  0  0  0  0
 29 26  1  0  0  0  0
 30 29  1  0  0  0  0
 30 22  1  0  0  0  0
 31 29  2  0  0  0  0
M  END
>  <MODEL>
4

>  <REMARK>
 VINA RESULT:     -10.5      4.567      7.469
  Name = 
  2 active torsions:
  status: ('A' for Active; 'I' for Inactive)
    1  A    between atoms: C_5  and  C_30
    2  A    between atoms: C_10  and  N_16
                            x       y       z     vdW  Elec       q    Type
                         _______ _______ _______ _____ _____    ______ ____

>  <TORSDO>
F 2

$$$$
=
 OpenBabel11122411073D

 31 35  0  0  0  0  0  0  0  0999 V2000
  183.2270  178.9180  138.9360 C   0  0  0  0  0  0  0  0  0  0  0  0
  186.8790  178.2530  139.5900 C   0  0  0  0  0  0  0  0  0  0  0  0
  187.5120  178.1320  138.3120 C   0  0  0  0  0  0  0  0  0  0  0  0
  187.4640  178.1320  135.8670 C   0  0  0  0  0  0  0  0  0  0  0  0
  185.4850  178.5090  139.7830 C   0  0  0  0  0  0  0  0  0  0  0  0
  182.7390  179.0130  140.2380 C   0  0  0  0  0  3  0  0  0  0  0  0
  186.8130  178.2550  137.0970 C   0  0  0  0  0  3  0  0  0  0  0  0
  187.1630  178.2110  142.0380 C   0  0  0  0  0  0  0  0  0  0  0  0
  182.3040  179.0830  137.7830 C   0  0  0  0  0  1  0  0  0  0  0  0
  189.6410  177.7480  139.4120 C   0  0  0  0  0  3  0  0  0  0  0  0
  186.7440  178.2590  134.6860 O   0  0  0  0  0  1  0  0  0  0  0  0
  185.8010  178.4600  142.1990 C   0  0  0  0  0  3  0  0  0  0  0  0
  187.7030  178.1070  140.7470 C   0  0  0  0  0  0  0  0  0  0  0  0
  184.5830  178.6690  138.7150 C   0  0  0  0  0  3  0  0  0  0  0  0
  188.8340  177.8810  135.8250 C   0  0  0  0  0  3  0  0  0  0  0  0
  184.9660  178.6080  141.1000 C   0  0  0  0  0  0  0  0  0  0  0  0
  183.6080  178.8570  141.3180 C   0  0  0  0  0  3  0  0  0  0  0  0
  189.0340  177.8630  140.6160 N   0  0  0  0  0  0  0  0  0  0  0  0
  188.9040  177.8780  138.2450 C   0  0  0  0  0  0  0  0  0  0  0  0
  189.5540  177.7540  137.0130 C   0  0  0  0  0  3  0  0  0  0  0  0
  188.2000  175.7260  143.2190 O   0  0  0  0  0  0  0  0  0  0  0  0
  188.5220  176.8270  143.7360 C   0  0  0  0  0  0  0  0  0  0  0  0
  188.0280  178.0560  143.1770 N   0  0  0  0  0  2  0  0  0  0  0  0
  191.2260  176.9410  147.0790 C   0  0  0  0  0  0  0  0  0  0  0  0
  190.7810  176.6270  144.7270 C   0  0  0  0  0  3  0  0  0  0  0  0
  187.2800  177.5030  146.6380 Cl  0  0  0  0  0  0  0  0  0  0  0  0
  192.1180  176.9710  148.1410 O   0  0  0  0  0  1  0  0  0  0  0  0
  191.6810  176.6570  145.7930 C   0  0  0  0  0  3  0  0  0  0  0  0
  188.9590  177.1680  146.2380 C   0  0  0  0  0  0  0  0  0  0  0  0
  189.4120  176.8790  144.9240 C   0  0  0  0  0  0  0  0  0  0  0  0
  189.8720  177.1940  147.2980 C   0  0  0  0  0  3  0  0  0  0  0  0
  1  6  1  0  0  0  0
  2  5  2  0  0  0  0
  2 13  1  0  0  0  0
  3  2  1  0  0  0  0
  4  7  1  0  0  0  0
  5 16  1  0  0  0  0
  6 17  2  0  0  0  0
  7  3  2  0  0  0  0
  8 12  1  0  0  0  0
  8 23  1  0  0  0  0
  9  1  1  0  0  0  0
 10 18  2  0  0  0  0
 11  4  1  0  0  0  0
 13  8  2  0  0  0  0
 14  1  2  0  0  0  0
 14  5  1  0  0  0  0
 15  4  2  0  0  0  0
 15 20  1  0  0  0  0
 16 17  1  0  0  0  0
 16 12  2  0  0  0  0
 18 13  1  0  0  0  0
 19  3  1  0  0  0  0
 19 10  1  0  0  0  0
 20 19  2  0  0  0  0
 21 22  2  0  0  0  0
 22 30  1  0  0  0  0
 23 22  1  0  0  0  0
 24 31  1  0  0  0  0
 24 27  1  0  0  0  0
 25 30  2  0  0  0  0
 25 28  1  0  0  0  0
 28 24  2  0  0  0  0
 29 26  1  0  0  0  0
 29 31  2  0  0  0  0
 30 29  1  0  0  0  0
M  END
>  <MODEL>
5

>  <REMARK>
 VINA RESULT:     -10.3      3.136      7.805
  Name = 
  2 active torsions:
  status: ('A' for Active; 'I' for Inactive)
    1  A    between atoms: C_5  and  C_30
    2  A    between atoms: C_10  and  N_16
                            x       y       z     vdW  Elec       q    Type
                         _______ _______ _______ _____ _____    ______ ____

>  <TORSDO>
F 2

$$$$
=
 OpenBabel11122411073D

 31 35  0  0  0  0  0  0  0  0999 V2000
  190.2100  176.8640  142.6580 C   0  0  0  0  0  0  0  0  0  0  0  0
  186.7370  178.2530  143.1160 C   0  0  0  0  0  0  0  0  0  0  0  0
  186.4570  178.2100  144.5180 C   0  0  0  0  0  0  0  0  0  0  0  0
  187.0660  177.6970  146.8300 C   0  0  0  0  0  0  0  0  0  0  0  0
  187.9610  177.8130  142.5190 C   0  0  0  0  0  0  0  0  0  0  0  0
  190.3540  176.9610  141.2750 C   0  0  0  0  0  3  0  0  0  0  0  0
  187.3730  177.7230  145.4680 C   0  0  0  0  0  3  0  0  0  0  0  0
  185.9120  178.8490  140.8700 C   0  0  0  0  0  0  0  0  0  0  0  0
  191.3170  176.3120  143.4830 C   0  0  0  0  0  1  0  0  0  0  0  0
  184.2650  179.1670  144.1010 C   0  0  0  0  0  3  0  0  0  0  0  0
  187.9940  177.2100  147.7410 O   0  0  0  0  0  1  0  0  0  0  0  0
  187.1130  178.4130  140.3150 C   0  0  0  0  0  3  0  0  0  0  0  0
  185.7200  178.7720  142.2590 C   0  0  0  0  0  0  0  0  0  0  0  0
  189.0280  177.2850  143.2690 C   0  0  0  0  0  3  0  0  0  0  0  0
  185.8300  178.1600  147.2750 C   0  0  0  0  0  3  0  0  0  0  0  0
  188.1280  177.9020  141.1130 C   0  0  0  0  0  0  0  0  0  0  0  0
  189.3130  177.4790  140.5050 C   0  0  0  0  0  3  0  0  0  0  0  0
  184.5390  179.2030  142.7770 N   0  0  0  0  0  0  0  0  0  0  0  0
  185.2050  178.6760  144.9930 C   0  0  0  0  0  0  0  0  0  0  0  0
  184.8990  178.6490  146.3580 C   0  0  0  0  0  3  0  0  0  0  0  0
  183.4730  177.5010  139.9330 O   0  0  0  0  0  0  0  0  0  0  0  0
  183.6760  178.6970  139.5970 C   0  0  0  0  0  0  0  0  0  0  0  0
  184.8610  179.3780  140.0430 N   0  0  0  0  0  2  0  0  0  0  0  0
  180.8740  180.9270  137.2150 C   0  0  0  0  0  0  0  0  0  0  0  0
  182.3800  180.7430  139.0930 C   0  0  0  0  0  3  0  0  0  0  0  0
  182.3920  177.2200  137.0290 Cl  0  0  0  0  0  0  0  0  0  0  0  0
  179.9730  181.6680  136.4640 O   0  0  0  0  0  1  0  0  0  0  0  0
  181.4740  181.4900  138.3400 C   0  0  0  0  0  3  0  0  0  0  0  0
  182.0870  178.8570  137.5930 C   0  0  0  0  0  0  0  0  0  0  0  0
  182.7030  179.4220  138.7410 C   0  0  0  0  0  0  0  0  0  0  0  0
  181.1810  179.6170  136.8470 C   0  0  0  0  0  3  0  0  0  0  0  0
  1 14  1  0  0  0  0
  1  9  1  0  0  0  0
  2  3  1  0  0  0  0
  3 19  2  0  0  0  0
  3  7  1  0  0  0  0
  4 15  1  0  0  0  0
  4 11  1  0  0  0  0
  5  2  1  0  0  0  0
  5 14  2  0  0  0  0
  6  1  2  0  0  0  0
  7  4  2  0  0  0  0
  8 13  1  0  0  0  0
 10 19  1  0  0  0  0
 12  8  2  0  0  0  0
 12 16  1  0  0  0  0
 13 18  1  0  0  0  0
 13  2  2  0  0  0  0
 16  5  1  0  0  0  0
 17 16  2  0  0  0  0
 17  6  1  0  0  0  0
 18 10  2  0  0  0  0
 19 20  1  0  0  0  0
 20 15  2  0  0  0  0
 22 21  2  0  0  0  0
 22 23  1  0  0  0  0
 23  8  1  0  0  0  0
 24 28  1  0  0  0  0
 26 29  1  0  0  0  0
 27 24  1  0  0  0  0
 28 25  2  0  0  0  0
 29 30  2  0  0  0  0
 30 25  1  0  0  0  0
 30 22  1  0  0  0  0
 31 24  2  0  0  0  0
 31 29  1  0  0  0  0
M  END
>  <MODEL>
6

>  <REMARK>
 VINA RESULT:     -10.3      4.431      7.233
  Name = 
  2 active torsions:
  status: ('A' for Active; 'I' for Inactive)
    1  A    between atoms: C_5  and  C_30
    2  A    between atoms: C_10  and  N_16
                            x       y       z     vdW  Elec       q    Type
                         _______ _______ _______ _____ _____    ______ ____

>  <TORSDO>
F 2

$$$$
=
 OpenBabel11122411073D

 31 35  0  0  0  0  0  0  0  0999 V2000
  187.3920  178.1650  136.3120 C   0  0  0  0  0  0  0  0  0  0  0  0
  186.3370  178.3410  139.9260 C   0  0  0  0  0  0  0  0  0  0  0  0
  184.9250  178.5770  139.9320 C   0  0  0  0  0  0  0  0  0  0  0  0
  182.7880  178.9340  138.8000 C   0  0  0  0  0  0  0  0  0  0  0  0
  187.1310  178.2080  138.7430 C   0  0  0  0  0  0  0  0  0  0  0  0
  188.7610  177.9370  136.4470 C   0  0  0  0  0  3  0  0  0  0  0  0
  184.1650  178.7040  138.7560 C   0  0  0  0  0  3  0  0  0  0  0  0
  188.3720  178.0010  141.2740 C   0  0  0  0  0  0  0  0  0  0  0  0
  186.7870  178.2670  134.9580 C   0  0  0  0  0  1  0  0  0  0  0  0
  184.9450  178.5730  142.3600 C   0  0  0  0  0  3  0  0  0  0  0  0
  182.0670  179.0540  137.6190 O   0  0  0  0  0  1  0  0  0  0  0  0
  189.1230  177.8760  140.1070 C   0  0  0  0  0  3  0  0  0  0  0  0
  186.9900  178.2310  141.1900 C   0  0  0  0  0  0  0  0  0  0  0  0
  186.5910  178.2990  137.4470 C   0  0  0  0  0  3  0  0  0  0  0  0
  182.1380  179.0420  140.0280 C   0  0  0  0  0  3  0  0  0  0  0  0
  188.5260  177.9760  138.8580 C   0  0  0  0  0  0  0  0  0  0  0  0
  189.3260  177.8430  137.7190 C   0  0  0  0  0  3  0  0  0  0  0  0
  186.2790  178.3500  142.3440 N   0  0  0  0  0  0  0  0  0  0  0  0
  184.2440  178.6900  141.1700 C   0  0  0  0  0  0  0  0  0  0  0  0
  182.8640  178.9210  141.2120 C   0  0  0  0  0  3  0  0  0  0  0  0
  188.3810  175.7090  143.1160 O   0  0  0  0  0  0  0  0  0  0  0  0
  188.9800  176.7640  143.4520 C   0  0  0  0  0  0  0  0  0  0  0  0
  188.9900  177.8980  142.5690 N   0  0  0  0  0  2  0  0  0  0  0  0
  191.1550  176.9940  147.1560 C   0  0  0  0  0  0  0  0  0  0  0  0
  191.0670  176.6140  144.7730 C   0  0  0  0  0  3  0  0  0  0  0  0
  187.3150  177.5030  146.1180 Cl  0  0  0  0  0  0  0  0  0  0  0  0
  191.8800  177.0620  148.3370 O   0  0  0  0  0  1  0  0  0  0  0  0
  191.7980  176.6810  145.9590 C   0  0  0  0  0  3  0  0  0  0  0  0
  189.0370  177.1750  145.9810 C   0  0  0  0  0  0  0  0  0  0  0  0
  189.6830  176.8560  144.7570 C   0  0  0  0  0  0  0  0  0  0  0  0
  189.7820  177.2390  147.1630 C   0  0  0  0  0  3  0  0  0  0  0  0
  1  6  2  0  0  0  0
  1 14  1  0  0  0  0
  2  3  2  0  0  0  0
  2 13  1  0  0  0  0
  3 19  1  0  0  0  0
  4 15  1  0  0  0  0
  5 16  1  0  0  0  0
  5  2  1  0  0  0  0
  6 17  1  0  0  0  0
  7  4  2  0  0  0  0
  7  3  1  0  0  0  0
  8 23  1  0  0  0  0
  9  1  1  0  0  0  0
 11  4  1  0  0  0  0
 12  8  2  0  0  0  0
 13  8  1  0  0  0  0
 13 18  2  0  0  0  0
 14  5  2  0  0  0  0
 15 20  2  0  0  0  0
 16 12  1  0  0  0  0
 17 16  2  0  0  0  0
 18 10  1  0  0  0  0
 19 20  1  0  0  0  0
 19 10  2  0  0  0  0
 21 22  2  0  0  0  0
 22 30  1  0  0  0  0
 23 22  1  0  0  0  0
 24 31  1  0  0  0  0
 24 27  1  0  0  0  0
 25 28  1  0  0  0  0
 28 24  2  0  0  0  0
 29 26  1  0  0  0  0
 29 31  2  0  0  0  0
 30 25  2  0  0  0  0
 30 29  1  0  0  0  0
M  END
>  <MODEL>
7

>  <REMARK>
 VINA RESULT:     -10.0      3.326      8.105
  Name = 
  2 active torsions:
  status: ('A' for Active; 'I' for Inactive)
    1  A    between atoms: C_5  and  C_30
    2  A    between atoms: C_10  and  N_16
                            x       y       z     vdW  Elec       q    Type
                         _______ _______ _______ _____ _____    ______ ____

>  <TORSDO>
F 2

$$$$
=
 OpenBabel11122411073D

 31 35  0  0  0  0  0  0  0  0999 V2000
  186.9710  177.7560  136.2880 C   0  0  0  0  0  0  0  0  0  0  0  0
  189.4770  177.3920  139.0800 C   0  0  0  0  0  0  0  0  0  0  0  0
  190.7150  177.0070  138.4760 C   0  0  0  0  0  0  0  0  0  0  0  0
  192.0900  176.4470  136.5330 C   0  0  0  0  0  0  0  0  0  0  0  0
  188.2640  177.6340  138.3610 C   0  0  0  0  0  0  0  0  0  0  0  0
  185.8320  178.1270  137.0020 C   0  0  0  0  0  3  0  0  0  0  0  0
  190.8660  176.8230  137.0890 C   0  0  0  0  0  3  0  0  0  0  0  0
  188.2860  177.9200  141.1730 C   0  0  0  0  0  0  0  0  0  0  0  0
  186.9080  177.6190  134.8100 C   0  0  0  0  0  1  0  0  0  0  0  0
  191.7610  176.9620  140.6660 C   0  0  0  0  0  3  0  0  0  0  0  0
  192.2050  176.2750  135.1600 O   0  0  0  0  0  1  0  0  0  0  0  0
  187.1170  178.1490  140.4490 C   0  0  0  0  0  3  0  0  0  0  0  0
  189.4590  177.5450  140.4990 C   0  0  0  0  0  0  0  0  0  0  0  0
  188.1690  177.5130  136.9620 C   0  0  0  0  0  3  0  0  0  0  0  0
  193.1970  176.2440  137.3550 C   0  0  0  0  0  3  0  0  0  0  0  0
  187.0930  178.0120  139.0670 C   0  0  0  0  0  0  0  0  0  0  0  0
  185.8950  178.2540  138.3900 C   0  0  0  0  0  3  0  0  0  0  0  0
  190.5860  177.3260  141.2290 N   0  0  0  0  0  0  0  0  0  0  0  0
  191.8530  176.7950  139.2930 C   0  0  0  0  0  0  0  0  0  0  0  0
  193.0790  176.4180  138.7340 C   0  0  0  0  0  3  0  0  0  0  0  0
  187.9220  175.8410  143.2190 O   0  0  0  0  0  0  0  0  0  0  0  0
  188.1290  177.0270  143.5850 C   0  0  0  0  0  0  0  0  0  0  0  0
  188.3110  178.0620  142.6040 N   0  0  0  0  0  2  0  0  0  0  0  0
  188.4640  177.9950  147.7630 C   0  0  0  0  0  0  0  0  0  0  0  0
  189.4050  177.1630  145.7010 C   0  0  0  0  0  3  0  0  0  0  0  0
  185.5210  178.2400  145.0500 Cl  0  0  0  0  0  0  0  0  0  0  0  0
  188.5980  178.2990  149.1100 O   0  0  0  0  0  1  0  0  0  0  0  0
  189.5430  177.4680  147.0560 C   0  0  0  0  0  3  0  0  0  0  0  0
  187.0990  177.9170  145.7560 C   0  0  0  0  0  0  0  0  0  0  0  0
  188.1910  177.3780  145.0270 C   0  0  0  0  0  0  0  0  0  0  0  0
  187.2500  178.2170  147.1140 C   0  0  0  0  0  3  0  0  0  0  0  0
  1 14  2  0  0  0  0
  1  6  1  0  0  0  0
  2 13  1  0  0  0  0
  3  2  2  0  0  0  0
  3 19  1  0  0  0  0
  4  7  2  0  0  0  0
  4 15  1  0  0  0  0
  5 16  2  0  0  0  0
  5  2  1  0  0  0  0
  6 17  2  0  0  0  0
  7  3  1  0  0  0  0
  8 23  1  0  0  0  0
  9  1  1  0  0  0  0
 10 18  1  0  0  0  0
 11  4  1  0  0  0  0
 12  8  2  0  0  0  0
 13  8  1  0  0  0  0
 13 18  2  0  0  0  0
 14  5  1  0  0  0  0
 15 20  2  0  0  0  0
 16 12  1  0  0  0  0
 17 16  1  0  0  0  0
 19 10  2  0  0  0  0
 20 19  1  0  0  0  0
 21 22  2  0  0  0  0
 22 30  1  0  0  0  0
 23 22  1  0  0  0  0
 24 27  1  0  0  0  0
 25 28  1  0  0  0  0
 26 29  1  0  0  0  0
 28 24  2  0  0  0  0
 29 31  2  0  0  0  0
 30 25  2  0  0  0  0
 30 29  1  0  0  0  0
 31 24  1  0  0  0  0
M  END
>  <MODEL>
8

>  <REMARK>
 VINA RESULT:      -9.5      2.737      8.269
  Name = 
  2 active torsions:
  status: ('A' for Active; 'I' for Inactive)
    1  A    between atoms: C_5  and  C_30
    2  A    between atoms: C_10  and  N_16
                            x       y       z     vdW  Elec       q    Type
                         _______ _______ _______ _____ _____    ______ ____

>  <TORSDO>
F 2

$$$$
=
 OpenBabel11122411073D

 31 35  0  0  0  0  0  0  0  0999 V2000
  183.5650  178.9250  142.2650 C   0  0  0  0  0  0  0  0  0  0  0  0
  187.1610  177.9930  142.9010 C   0  0  0  0  0  0  0  0  0  0  0  0
  187.3130  177.8780  144.3190 C   0  0  0  0  0  0  0  0  0  0  0  0
  186.4400  177.9720  146.6020 C   0  0  0  0  0  0  0  0  0  0  0  0
  185.9380  178.3340  142.2410 C   0  0  0  0  0  0  0  0  0  0  0  0
  183.5550  179.0030  140.8730 C   0  0  0  0  0  3  0  0  0  0  0  0
  186.2560  178.0930  145.2230 C   0  0  0  0  0  3  0  0  0  0  0  0
  188.2530  177.8390  140.6970 C   0  0  0  0  0  0  0  0  0  0  0  0
  182.3220  179.1950  143.0320 C   0  0  0  0  0  1  0  0  0  0  0  0
  189.6530  177.3090  144.0150 C   0  0  0  0  0  3  0  0  0  0  0  0
  185.3750  178.1910  147.4650 O   0  0  0  0  0  1  0  0  0  0  0  0
  187.0500  178.1730  140.0790 C   0  0  0  0  0  3  0  0  0  0  0  0
  188.3140  177.7480  142.0960 C   0  0  0  0  0  0  0  0  0  0  0  0
  184.7430  178.5950  142.9370 C   0  0  0  0  0  3  0  0  0  0  0  0
  187.6920  177.6320  147.1110 C   0  0  0  0  0  3  0  0  0  0  0  0
  185.9060  178.4190  140.8260 C   0  0  0  0  0  0  0  0  0  0  0  0
  184.7250  178.7510  140.1560 C   0  0  0  0  0  3  0  0  0  0  0  0
  189.5000  177.4200  142.6750 N   0  0  0  0  0  0  0  0  0  0  0  0
  188.5770  177.5320  144.8590 C   0  0  0  0  0  0  0  0  0  0  0  0
  188.7590  177.4120  146.2410 C   0  0  0  0  0  3  0  0  0  0  0  0
  188.5470  176.1490  138.3090 O   0  0  0  0  0  0  0  0  0  0  0  0
  189.5570  176.7530  138.7570 C   0  0  0  0  0  0  0  0  0  0  0  0
  189.4380  177.5850  139.9230 N   0  0  0  0  0  2  0  0  0  0  0  0
  193.4580  176.3870  136.9830 C   0  0  0  0  0  0  0  0  0  0  0  0
  192.0280  176.7400  138.8960 C   0  0  0  0  0  3  0  0  0  0  0  0
  189.7070  176.1980  135.5800 Cl  0  0  0  0  0  0  0  0  0  0  0  0
  194.7280  176.2740  136.4360 O   0  0  0  0  0  1  0  0  0  0  0  0
  193.3060  176.6260  138.3480 C   0  0  0  0  0  3  0  0  0  0  0  0
  191.0460  176.3740  136.7060 C   0  0  0  0  0  0  0  0  0  0  0  0
  190.8790  176.6180  138.0940 C   0  0  0  0  0  0  0  0  0  0  0  0
  192.3330  176.2630  136.1690 C   0  0  0  0  0  3  0  0  0  0  0  0
  1 14  1  0  0  0  0
  1  9  1  0  0  0  0
  2  3  1  0  0  0  0
  3 19  2  0  0  0  0
  3  7  1  0  0  0  0
  4 15  1  0  0  0  0
  4 11  1  0  0  0  0
  5  2  1  0  0  0  0
  5 14  2  0  0  0  0
  6  1  2  0  0  0  0
  7  4  2  0  0  0  0
  8 13  1  0  0  0  0
 10 19  1  0  0  0  0
 12  8  2  0  0  0  0
 12 16  1  0  0  0  0
 13 18  1  0  0  0  0
 13  2  2  0  0  0  0
 16  5  1  0  0  0  0
 17 16  2  0  0  0  0
 17  6  1  0  0  0  0
 18 10  2  0  0  0  0
 19 20  1  0  0  0  0
 20 15  2  0  0  0  0
 21 22  2  0  0  0  0
 22 23  1  0  0  0  0
 23  8  1  0  0  0  0
 24 28  1  0  0  0  0
 26 29  1  0  0  0  0
 27 24  1  0  0  0  0
 28 25  2  0  0  0  0
 29 30  2  0  0  0  0
 30 22  1  0  0  0  0
 30 25  1  0  0  0  0
 31 29  1  0  0  0  0
 31 24  2  0  0  0  0
M  END
>  <MODEL>
9

>  <REMARK>
 VINA RESULT:      -9.5      1.785      2.488
  Name = 
  2 active torsions:
  status: ('A' for Active; 'I' for Inactive)
    1  A    between atoms: C_5  and  C_30
    2  A    between atoms: C_10  and  N_16
                            x       y       z     vdW  Elec       q    Type
                         _______ _______ _______ _____ _____    ______ ____

>  <TORSDO>
F 2

$$$$
