=
 OpenBabel11122411393D

 37 42  0  0  1  0  0  0  0  0999 V2000
  190.2520  177.5160  143.4100 C   0  0  0  0  0  0  0  0  0  0  0  0
  186.1140  178.0020  142.9480 C   0  0  0  0  0  0  0  0  0  0  0  0
  185.0660  179.6290  139.5660 C   0  0  0  0  0  2  0  0  0  0  0  0
  187.9660  177.8780  144.4840 C   0  0  0  0  0  0  0  0  0  0  0  0
  185.9090  178.0720  141.4600 C   0  0  1  0  0  3  0  0  0  0  0  0
  187.4430  177.8750  143.2030 C   0  0  0  0  0  0  0  0  0  0  0  0
  185.0100  179.2480  141.0560 C   0  0  2  0  0  3  0  0  0  0  0  0
  187.0620  177.9900  145.5480 C   0  0  0  0  0  3  0  0  0  0  0  0
  188.2310  177.8850  142.0420 N   0  0  0  0  0  0  0  0  0  0  0  0
  190.2660  176.0030  143.2800 C   0  0  0  0  0  1  0  0  0  0  0  0
  183.7350  178.2530  143.8340 C   0  0  0  0  0  2  0  0  0  0  0  0
  185.7200  178.0930  145.2960 N   0  0  0  0  0  0  0  0  0  0  0  0
  189.6660  178.1400  142.1240 C   0  0  0  0  0  2  0  0  0  0  0  0
  186.1950  178.2530  137.7490 C   0  0  1  0  0  3  0  0  0  0  0  0
  184.9720  178.4110  138.6530 C   0  0  0  0  0  2  0  0  0  0  0  0
  185.2140  178.1170  144.0240 C   0  0  0  0  0  0  0  0  0  0  0  0
  187.3580  178.2540  140.9340 C   0  0  1  0  0  3  0  0  0  0  0  0
  189.4590  177.9210  144.6740 C   0  0  0  0  0  2  0  0  0  0  0  0
  183.6400  179.0570  141.5410 N   0  0  0  0  0  0  0  0  0  0  0  0
  191.6800  177.9910  143.5660 C   0  0  0  0  0  1  0  0  0  0  0  0
  187.5510  178.2770  138.4700 C   0  0  0  0  0  2  0  0  0  0  0  0
  187.6180  177.3930  139.7100 C   0  0  0  0  0  2  0  0  0  0  0  0
  183.3810  179.4240  142.9250 C   0  0  0  0  0  2  0  0  0  0  0  0
  183.0550  176.9250  140.4370 C   0  0  0  0  0  3  0  0  0  0  0  0
  182.6860  178.2030  140.8860 C   0  0  0  0  0  0  0  0  0  0  0  0
  181.3550  178.6190  140.7560 C   0  0  0  0  0  3  0  0  0  0  0  0
  179.0620  178.2140  140.0180 N   0  0  0  0  0  1  0  0  0  0  0  0
  180.7880  176.5180  139.6950 C   0  0  0  0  0  3  0  0  0  0  0  0
  180.4100  177.7820  140.1550 C   0  0  0  0  0  0  0  0  0  0  0  0
  182.1100  176.0890  139.8370 C   0  0  0  0  0  3  0  0  0  0  0  0
  185.5490  174.5220  135.5240 O   0  0  0  0  0  0  0  0  0  0  0  0
  184.9080  174.7920  136.5740 C   0  0  0  0  0  0  0  0  0  0  0  0
  186.0610  177.0340  136.8970 C   0  0  0  0  0  0  0  0  0  0  0  0
  185.1370  176.0130  137.2870 N   0  0  0  0  0  2  0  0  0  0  0  0
  186.7530  176.9150  135.8480 O   0  0  0  0  0  0  0  0  0  0  0  0
  184.6190  172.6360  137.5940 N   0  0  0  0  0  1  0  0  0  0  0  0
  183.9230  173.8110  137.1030 C   0  0  0  0  0  2  0  0  0  0  0  0
  1 20  1  0  0  0  0
  1 18  1  0  0  0  0
  2  6  2  0  0  0  0
  2 16  1  0  0  0  0
  4 18  1  0  0  0  0
  4  8  2  0  0  0  0
  5  2  1  1  0  0  0
  6  4  1  0  0  0  0
  7  3  1  6  0  0  0
  7  5  1  0  0  0  0
  7 19  1  0  0  0  0
  9 13  1  0  0  0  0
  9  6  1  0  0  0  0
 10  1  1  0  0  0  0
 11 16  1  0  0  0  0
 12  8  1  0  0  0  0
 13  1  1  0  0  0  0
 14 33  1  1  0  0  0
 14 21  1  0  0  0  0
 14 15  1  0  0  0  0
 15  3  1  0  0  0  0
 16 12  2  0  0  0  0
 17 22  1  6  0  0  0
 17  5  1  0  0  0  0
 17  9  1  0  0  0  0
 19 23  1  0  0  0  0
 21 22  1  0  0  0  0
 23 11  1  0  0  0  0
 24 25  1  0  0  0  0
 25 19  1  0  0  0  0
 26 25  2  0  0  0  0
 27 29  1  0  0  0  0
 28 30  1  0  0  0  0
 28 29  2  0  0  0  0
 29 26  1  0  0  0  0
 30 24  2  0  0  0  0
 31 32  2  0  0  0  0
 32 37  1  0  0  0  0
 32 34  1  0  0  0  0
 33 34  1  0  0  0  0
 35 33  2  0  0  0  0
 37 36  1  0  0  0  0
M  END
>  <MODEL>
1

>  <REMARK>
 VINA RESULT:      -7.5      0.000      0.000
  Name = 
  3 active torsions:
  status: ('A' for Active; 'I' for Inactive)
    1  A    between atoms: C_4  and  C_37
    2  A    between atoms: C_8  and  C_18
    3  A    between atoms: N_23  and  C_30
                            x       y       z     vdW  Elec       q    Type
                         _______ _______ _______ _____ _____    ______ ____

>  <TORSDO>
F 3

$$$$
=
 OpenBabel11122411393D

 37 42  0  0  1  0  0  0  0  0999 V2000
  182.7990  178.5400  139.1840 C   0  0  0  0  0  0  0  0  0  0  0  0
  185.9400  177.0560  136.8370 C   0  0  0  0  0  0  0  0  0  0  0  0
  189.4320  178.5360  137.7280 C   0  0  0  0  0  2  0  0  0  0  0  0
  183.5890  177.5720  136.9590 C   0  0  0  0  0  0  0  0  0  0  0  0
  187.1690  177.2740  137.6760 C   0  0  1  0  0  3  0  0  0  0  0  0
  184.8600  177.5390  137.5070 C   0  0  0  0  0  0  0  0  0  0  0  0
  188.3040  177.9250  136.8770 C   0  0  2  0  0  3  0  0  0  0  0  0
  183.4320  177.0530  135.6670 C   0  0  0  0  0  3  0  0  0  0  0  0
  185.1900  178.1240  138.7390 N   0  0  0  0  0  0  0  0  0  0  0  0
  182.5530  177.2660  139.9730 C   0  0  0  0  0  1  0  0  0  0  0  0
  186.9030  175.9810  134.7340 C   0  0  0  0  0  2  0  0  0  0  0  0
  184.5130  176.5430  135.0000 N   0  0  0  0  0  0  0  0  0  0  0  0
  184.2500  179.0170  139.4090 C   0  0  0  0  0  2  0  0  0  0  0  0
  189.7140  178.2030  140.2330 C   0  0  1  0  0  3  0  0  0  0  0  0
  189.8900  177.5980  138.8400 C   0  0  0  0  0  2  0  0  0  0  0  0
  185.7710  176.5400  135.5390 C   0  0  0  0  0  0  0  0  0  0  0  0
  186.6450  178.2150  138.7940 C   0  0  1  0  0  3  0  0  0  0  0  0
  182.4870  178.2920  137.6890 C   0  0  0  0  0  2  0  0  0  0  0  0
  188.8050  177.0210  135.8370 N   0  0  0  0  0  0  0  0  0  0  0  0
  181.8570  179.6060  139.7000 C   0  0  0  0  0  1  0  0  0  0  0  0
  188.3120  178.7500  140.5390 C   0  0  0  0  0  2  0  0  0  0  0  0
  187.1750  177.8080  140.1580 C   0  0  0  0  0  2  0  0  0  0  0  0
  188.0500  176.9760  134.5940 C   0  0  0  0  0  2  0  0  0  0  0  0
  189.2830  174.7830  136.7680 C   0  0  0  0  0  3  0  0  0  0  0  0
  189.7160  175.9420  136.1050 C   0  0  0  0  0  0  0  0  0  0  0  0
  191.0360  176.0140  135.6400 C   0  0  0  0  0  3  0  0  0  0  0  0
  193.2610  175.0380  135.3940 N   0  0  0  0  0  1  0  0  0  0  0  0
  191.4870  173.8100  136.5370 C   0  0  0  0  0  3  0  0  0  0  0  0
  191.9210  174.9540  135.8620 C   0  0  0  0  0  0  0  0  0  0  0  0
  190.1680  173.7240  136.9890 C   0  0  0  0  0  3  0  0  0  0  0  0
  190.9530  175.6550  143.5890 O   0  0  0  0  0  0  0  0  0  0  0  0
  190.5090  176.8220  143.7650 C   0  0  0  0  0  0  0  0  0  0  0  0
  190.1540  177.2360  141.2820 C   0  0  0  0  0  0  0  0  0  0  0  0
  190.1150  177.6370  142.6550 N   0  0  0  0  0  2  0  0  0  0  0  0
  190.5480  176.0820  140.9550 O   0  0  0  0  0  0  0  0  0  0  0  0
  191.6950  177.1790  145.8240 N   0  0  0  0  0  1  0  0  0  0  0  0
  190.4280  177.3740  145.1430 C   0  0  0  0  0  2  0  0  0  0  0  0
  1 13  1  0  0  0  0
  1 20  1  0  0  0  0
  1 10  1  0  0  0  0
  2  6  1  0  0  0  0
  3 15  1  0  0  0  0
  4  6  2  0  0  0  0
  4 18  1  0  0  0  0
  5  2  1  6  0  0  0
  5 17  1  0  0  0  0
  6  9  1  0  0  0  0
  7  5  1  0  0  0  0
  7  3  1  1  0  0  0
  8  4  1  0  0  0  0
  9 17  1  0  0  0  0
  9 13  1  0  0  0  0
 11 16  1  0  0  0  0
 12 16  1  0  0  0  0
 12  8  2  0  0  0  0
 14 21  1  0  0  0  0
 14 33  1  1  0  0  0
 15 14  1  0  0  0  0
 16  2  2  0  0  0  0
 17 22  1  1  0  0  0
 18  1  1  0  0  0  0
 19 25  1  0  0  0  0
 19  7  1  0  0  0  0
 22 21  1  0  0  0  0
 23 11  1  0  0  0  0
 23 19  1  0  0  0  0
 24 30  1  0  0  0  0
 25 24  2  0  0  0  0
 26 29  2  0  0  0  0
 26 25  1  0  0  0  0
 27 29  1  0  0  0  0
 28 30  2  0  0  0  0
 29 28  1  0  0  0  0
 31 32  2  0  0  0  0
 32 37  1  0  0  0  0
 33 34  1  0  0  0  0
 34 32  1  0  0  0  0
 35 33  2  0  0  0  0
 37 36  1  0  0  0  0
M  END
>  <MODEL>
2

>  <REMARK>
 VINA RESULT:      -7.4      3.609      8.520
  Name = 
  3 active torsions:
  status: ('A' for Active; 'I' for Inactive)
    1  A    between atoms: C_4  and  C_37
    2  A    between atoms: C_8  and  C_18
    3  A    between atoms: N_23  and  C_30
                            x       y       z     vdW  Elec       q    Type
                         _______ _______ _______ _____ _____    ______ ____

>  <TORSDO>
F 3

$$$$
=
 OpenBabel11122411393D

 37 42  0  0  1  0  0  0  0  0999 V2000
  190.2530  177.5170  143.4290 C   0  0  0  0  0  0  0  0  0  0  0  0
  186.1190  177.9960  142.9240 C   0  0  0  0  0  0  0  0  0  0  0  0
  185.1010  179.5850  139.5160 C   0  0  0  0  0  2  0  0  0  0  0  0
  187.9570  177.8890  144.4790 C   0  0  0  0  0  0  0  0  0  0  0  0
  185.9270  178.0500  141.4340 C   0  0  1  0  0  3  0  0  0  0  0  0
  187.4450  177.8720  143.1930 C   0  0  0  0  0  0  0  0  0  0  0  0
  185.0320  179.2200  141.0100 C   0  0  2  0  0  3  0  0  0  0  0  0
  187.0440  178.0130  145.5330 C   0  0  0  0  0  3  0  0  0  0  0  0
  188.2440  177.8700  142.0390 N   0  0  0  0  0  0  0  0  0  0  0  0
  190.2690  176.0020  143.3160 C   0  0  0  0  0  1  0  0  0  0  0  0
  183.7320  178.2560  143.7870 C   0  0  0  0  0  2  0  0  0  0  0  0
  185.7040  178.1130  145.2680 N   0  0  0  0  0  0  0  0  0  0  0  0
  189.6780  178.1270  142.1310 C   0  0  0  0  0  2  0  0  0  0  0  0
  186.2460  178.1900  137.7250 C   0  0  1  0  0  3  0  0  0  0  0  0
  185.0160  178.3570  138.6160 C   0  0  0  0  0  2  0  0  0  0  0  0
  185.2100  178.1220  143.9910 C   0  0  0  0  0  0  0  0  0  0  0  0
  187.3810  178.2270  140.9190 C   0  0  1  0  0  3  0  0  0  0  0  0
  189.4480  177.9360  144.6820 C   0  0  0  0  0  2  0  0  0  0  0  0
  183.6570  179.0350  141.4840 N   0  0  0  0  0  0  0  0  0  0  0  0
  191.6800  177.9940  143.5920 C   0  0  0  0  0  1  0  0  0  0  0  0
  187.5960  178.2220  138.4570 C   0  0  0  0  0  2  0  0  0  0  0  0
  187.6520  177.3520  139.7070 C   0  0  0  0  0  2  0  0  0  0  0  0
  183.3860  179.4170  142.8620 C   0  0  0  0  0  2  0  0  0  0  0  0
  183.1100  176.9390  140.2960 C   0  0  0  0  0  3  0  0  0  0  0  0
  182.7100  178.1730  140.8310 C   0  0  0  0  0  0  0  0  0  0  0  0
  181.3570  178.5340  140.7860 C   0  0  0  0  0  3  0  0  0  0  0  0
  179.0500  178.0650  140.1370 N   0  0  0  0  0  1  0  0  0  0  0  0
  180.8290  176.4670  139.6410 C   0  0  0  0  0  3  0  0  0  0  0  0
  180.4200  177.6870  140.1870 C   0  0  0  0  0  0  0  0  0  0  0  0
  182.1730  176.0920  139.6970 C   0  0  0  0  0  3  0  0  0  0  0  0
  186.2560  174.6460  135.1310 O   0  0  0  0  0  0  0  0  0  0  0  0
  187.2880  175.3470  135.3060 C   0  0  0  0  0  0  0  0  0  0  0  0
  186.1200  176.9620  136.8850 C   0  0  0  0  0  0  0  0  0  0  0  0
  187.2610  176.5020  136.1530 N   0  0  0  0  0  2  0  0  0  0  0  0
  185.0230  176.3410  136.8300 O   0  0  0  0  0  0  0  0  0  0  0  0
  189.3280  174.0820  135.4090 N   0  0  0  0  0  1  0  0  0  0  0  0
  188.5440  174.9920  134.5940 C   0  0  0  0  0  2  0  0  0  0  0  0
  1 20  1  0  0  0  0
  1 18  1  0  0  0  0
  2  6  2  0  0  0  0
  2 16  1  0  0  0  0
  4 18  1  0  0  0  0
  4  8  2  0  0  0  0
  5  2  1  1  0  0  0
  6  4  1  0  0  0  0
  7  3  1  6  0  0  0
  7  5  1  0  0  0  0
  7 19  1  0  0  0  0
  9 13  1  0  0  0  0
  9  6  1  0  0  0  0
 10  1  1  0  0  0  0
 11 16  1  0  0  0  0
 12  8  1  0  0  0  0
 13  1  1  0  0  0  0
 14 33  1  1  0  0  0
 14 21  1  0  0  0  0
 14 15  1  0  0  0  0
 15  3  1  0  0  0  0
 16 12  2  0  0  0  0
 17 22  1  6  0  0  0
 17  5  1  0  0  0  0
 17  9  1  0  0  0  0
 19 23  1  0  0  0  0
 21 22  1  0  0  0  0
 23 11  1  0  0  0  0
 24 25  1  0  0  0  0
 25 19  1  0  0  0  0
 26 25  2  0  0  0  0
 27 29  1  0  0  0  0
 28 30  1  0  0  0  0
 28 29  2  0  0  0  0
 29 26  1  0  0  0  0
 30 24  2  0  0  0  0
 31 32  2  0  0  0  0
 32 34  1  0  0  0  0
 34 33  1  0  0  0  0
 35 33  2  0  0  0  0
 37 32  1  0  0  0  0
 37 36  1  0  0  0  0
M  END
>  <MODEL>
3

>  <REMARK>
 VINA RESULT:      -7.1      1.257      1.441
  Name = 
  3 active torsions:
  status: ('A' for Active; 'I' for Inactive)
    1  A    between atoms: C_4  and  C_37
    2  A    between atoms: C_8  and  C_18
    3  A    between atoms: N_23  and  C_30
                            x       y       z     vdW  Elec       q    Type
                         _______ _______ _______ _____ _____    ______ ____

>  <TORSDO>
F 3

$$$$
=
 OpenBabel11122411393D

 37 42  0  0  1  0  0  0  0  0999 V2000
  183.4070  171.8360  135.6580 C   0  0  0  0  0  0  0  0  0  0  0  0
  187.4250  173.0280  135.7160 C   0  0  0  0  0  0  0  0  0  0  0  0
  187.9590  176.8620  135.2760 C   0  0  0  0  0  2  0  0  0  0  0  0
  185.8540  171.2740  135.2050 C   0  0  0  0  0  0  0  0  0  0  0  0
  187.3800  174.4780  136.1120 C   0  0  1  0  0  3  0  0  0  0  0  0
  186.1540  172.5540  135.6390 C   0  0  0  0  0  0  0  0  0  0  0  0
  188.2480  175.3520  135.1990 C   0  0  2  0  0  3  0  0  0  0  0  0
  186.9280  170.4420  134.8650 C   0  0  0  0  0  3  0  0  0  0  0  0
  185.1820  173.5320  135.9020 N   0  0  0  0  0  0  0  0  0  0  0  0
  183.3050  171.4880  137.1320 C   0  0  0  0  0  1  0  0  0  0  0  0
  189.9280  172.6210  135.4340 C   0  0  0  0  0  2  0  0  0  0  0  0
  188.2120  170.9080  134.9660 N   0  0  0  0  0  0  0  0  0  0  0  0
  183.7940  173.3230  135.5020 C   0  0  0  0  0  2  0  0  0  0  0  0
  186.4830  177.9780  137.0200 C   0  0  1  0  0  3  0  0  0  0  0  0
  187.8450  177.3570  136.7140 C   0  0  0  0  0  2  0  0  0  0  0  0
  188.4970  172.1840  135.3700 C   0  0  0  0  0  0  0  0  0  0  0  0
  185.8720  174.8160  135.9620 C   0  0  1  0  0  3  0  0  0  0  0  0
  184.4180  170.8890  134.9690 C   0  0  0  0  0  2  0  0  0  0  0  0
  189.6710  175.0390  135.3620 N   0  0  0  0  0  0  0  0  0  0  0  0
  182.0460  171.6270  135.0270 C   0  0  0  0  0  1  0  0  0  0  0  0
  185.2690  177.1090  136.6570 C   0  0  0  0  0  2  0  0  0  0  0  0
  185.3730  175.6610  137.1210 C   0  0  0  0  0  2  0  0  0  0  0  0
  190.1740  173.8900  134.6250 C   0  0  0  0  0  2  0  0  0  0  0  0
  189.9440  175.5650  137.7610 C   0  0  0  0  0  3  0  0  0  0  0  0
  190.4630  175.5300  136.4570 C   0  0  0  0  0  0  0  0  0  0  0  0
  191.7920  175.9140  136.2360 C   0  0  0  0  0  3  0  0  0  0  0  0
  193.9310  176.7530  137.0670 N   0  0  0  0  0  1  0  0  0  0  0  0
  192.0560  176.4050  138.5930 C   0  0  0  0  0  3  0  0  0  0  0  0
  192.5840  176.3570  137.3000 C   0  0  0  0  0  0  0  0  0  0  0  0
  190.7370  176.0080  138.8230 C   0  0  0  0  0  3  0  0  0  0  0  0
  186.6540  179.1050  141.2610 O   0  0  0  0  0  0  0  0  0  0  0  0
  187.6210  178.5440  140.6810 C   0  0  0  0  0  0  0  0  0  0  0  0
  186.4190  178.4210  138.4450 C   0  0  0  0  0  0  0  0  0  0  0  0
  187.5420  178.1810  139.2970 N   0  0  0  0  0  2  0  0  0  0  0  0
  185.3870  179.0030  138.8810 O   0  0  0  0  0  0  0  0  0  0  0  0
  188.6950  176.9320  142.1030 N   0  0  0  0  0  1  0  0  0  0  0  0
  188.8500  178.2210  141.4520 C   0  0  0  0  0  2  0  0  0  0  0  0
  1 10  1  0  0  0  0
  3 15  1  0  0  0  0
  4  6  2  0  0  0  0
  5  2  1  6  0  0  0
  6  2  1  0  0  0  0
  6  9  1  0  0  0  0
  7  3  1  1  0  0  0
  7 19  1  0  0  0  0
  7  5  1  0  0  0  0
  8 12  2  0  0  0  0
  8  4  1  0  0  0  0
  9 17  1  0  0  0  0
 12 16  1  0  0  0  0
 13  1  1  0  0  0  0
 13  9  1  0  0  0  0
 14 33  1  1  0  0  0
 15 14  1  0  0  0  0
 16 11  1  0  0  0  0
 16  2  2  0  0  0  0
 17  5  1  0  0  0  0
 17 22  1  1  0  0  0
 18  4  1  0  0  0  0
 18  1  1  0  0  0  0
 19 25  1  0  0  0  0
 20  1  1  0  0  0  0
 21 14  1  0  0  0  0
 21 22  1  0  0  0  0
 23 19  1  0  0  0  0
 23 11  1  0  0  0  0
 24 30  1  0  0  0  0
 25 24  2  0  0  0  0
 26 25  1  0  0  0  0
 26 29  2  0  0  0  0
 27 29  1  0  0  0  0
 28 30  2  0  0  0  0
 29 28  1  0  0  0  0
 32 31  2  0  0  0  0
 32 37  1  0  0  0  0
 33 35  2  0  0  0  0
 33 34  1  0  0  0  0
 34 32  1  0  0  0  0
 37 36  1  0  0  0  0
M  END
>  <MODEL>
4

>  <REMARK>
 VINA RESULT:      -7.0      3.708      9.383
  Name = 
  3 active torsions:
  status: ('A' for Active; 'I' for Inactive)
    1  A    between atoms: C_4  and  C_37
    2  A    between atoms: C_8  and  C_18
    3  A    between atoms: N_23  and  C_30
                            x       y       z     vdW  Elec       q    Type
                         _______ _______ _______ _____ _____    ______ ____

>  <TORSDO>
F 3

$$$$
=
 OpenBabel11122411393D

 37 42  0  0  1  0  0  0  0  0999 V2000
  179.8780  178.6700  143.2570 C   0  0  0  0  0  0  0  0  0  0  0  0
  181.6880  177.4480  139.6780 C   0  0  0  0  0  0  0  0  0  0  0  0
  185.0730  179.2190  138.9170 C   0  0  0  0  0  2  0  0  0  0  0  0
  179.6260  177.7650  140.8840 C   0  0  0  0  0  0  0  0  0  0  0  0
  183.1440  177.7710  139.8660 C   0  0  1  0  0  3  0  0  0  0  0  0
  181.0040  177.8410  140.7860 C   0  0  0  0  0  0  0  0  0  0  0  0
  183.7300  178.5120  138.6580 C   0  0  2  0  0  3  0  0  0  0  0  0
  178.9310  177.2310  139.7920 C   0  0  0  0  0  3  0  0  0  0  0  0
  181.8190  178.4560  141.7480 N   0  0  0  0  0  0  0  0  0  0  0  0
  180.1220  177.3830  144.0250 C   0  0  0  0  0  1  0  0  0  0  0  0
  181.6520  176.4510  137.3300 C   0  0  0  0  0  2  0  0  0  0  0  0
  179.6180  176.8110  138.6850 N   0  0  0  0  0  0  0  0  0  0  0  0
  181.2290  179.2690  142.8070 C   0  0  0  0  0  2  0  0  0  0  0  0
  186.5030  178.9190  140.9990 C   0  0  1  0  0  3  0  0  0  0  0  0
  186.0620  178.3270  139.6600 C   0  0  0  0  0  2  0  0  0  0  0  0
  180.9790  176.9150  138.5850 C   0  0  0  0  0  0  0  0  0  0  0  0
  183.1240  178.6690  141.1320 C   0  0  1  0  0  3  0  0  0  0  0  0
  178.9320  178.3920  142.0650 C   0  0  0  0  0  2  0  0  0  0  0  0
  183.7630  177.6510  137.4720 N   0  0  0  0  0  0  0  0  0  0  0  0
  179.2030  179.6560  144.1860 C   0  0  0  0  0  1  0  0  0  0  0  0
  185.3620  179.3470  141.9340 C   0  0  0  0  0  2  0  0  0  0  0  0
  184.2530  178.3120  142.0850 C   0  0  0  0  0  2  0  0  0  0  0  0
  182.5250  177.5380  136.7150 C   0  0  0  0  0  2  0  0  0  0  0  0
  186.0040  176.9920  136.6690 C   0  0  0  0  0  3  0  0  0  0  0  0
  184.7740  176.6530  137.2540 C   0  0  0  0  0  0  0  0  0  0  0  0
  184.5600  175.3390  137.6910 C   0  0  0  0  0  3  0  0  0  0  0  0
  185.3250  173.0350  137.9560 N   0  0  0  0  0  1  0  0  0  0  0  0
  186.7680  174.7100  136.9200 C   0  0  0  0  0  3  0  0  0  0  0  0
  185.5520  174.3680  137.5180 C   0  0  0  0  0  0  0  0  0  0  0  0
  186.9950  176.0210  136.4970 C   0  0  0  0  0  3  0  0  0  0  0  0
  189.1490  176.3580  143.3910 O   0  0  0  0  0  0  0  0  0  0  0  0
  188.2890  177.1100  143.9220 C   0  0  0  0  0  0  0  0  0  0  0  0
  187.4480  177.9960  141.6930 C   0  0  0  0  0  0  0  0  0  0  0  0
  187.4390  177.9400  143.1230 N   0  0  0  0  0  2  0  0  0  0  0  0
  188.2380  177.2750  141.0220 O   0  0  0  0  0  0  0  0  0  0  0  0
  186.9630  177.8610  145.7800 N   0  0  0  0  0  1  0  0  0  0  0  0
  188.1790  177.1630  145.4040 C   0  0  0  0  0  2  0  0  0  0  0  0
  1 10  1  0  0  0  0
  1 20  1  0  0  0  0
  2  6  1  0  0  0  0
  3 15  1  0  0  0  0
  4 18  1  0  0  0  0
  5  2  1  6  0  0  0
  5 17  1  0  0  0  0
  6  4  2  0  0  0  0
  6  9  1  0  0  0  0
  7  3  1  1  0  0  0
  7  5  1  0  0  0  0
  8  4  1  0  0  0  0
  9 13  1  0  0  0  0
 11 16  1  0  0  0  0
 12  8  2  0  0  0  0
 13  1  1  0  0  0  0
 14 33  1  1  0  0  0
 14 21  1  0  0  0  0
 15 14  1  0  0  0  0
 16 12  1  0  0  0  0
 16  2  2  0  0  0  0
 17  9  1  0  0  0  0
 17 22  1  1  0  0  0
 18  1  1  0  0  0  0
 19  7  1  0  0  0  0
 21 22  1  0  0  0  0
 23 11  1  0  0  0  0
 23 19  1  0  0  0  0
 24 25  1  0  0  0  0
 25 19  1  0  0  0  0
 25 26  2  0  0  0  0
 28 29  2  0  0  0  0
 29 26  1  0  0  0  0
 29 27  1  0  0  0  0
 30 24  2  0  0  0  0
 30 28  1  0  0  0  0
 31 32  2  0  0  0  0
 32 37  1  0  0  0  0
 33 34  1  0  0  0  0
 34 32  1  0  0  0  0
 35 33  2  0  0  0  0
 37 36  1  0  0  0  0
M  END
>  <MODEL>
5

>  <REMARK>
 VINA RESULT:      -6.9      2.372      7.185
  Name = 
  3 active torsions:
  status: ('A' for Active; 'I' for Inactive)
    1  A    between atoms: C_4  and  C_37
    2  A    between atoms: C_8  and  C_18
    3  A    between atoms: N_23  and  C_30
                            x       y       z     vdW  Elec       q    Type
                         _______ _______ _______ _____ _____    ______ ____

>  <TORSDO>
F 3

$$$$
=
 OpenBabel11122411393D

 37 42  0  0  1  0  0  0  0  0999 V2000
  185.6700  178.6290  145.3970 C   0  0  0  0  0  0  0  0  0  0  0  0
  183.5280  178.3720  141.8030 C   0  0  0  0  0  0  0  0  0  0  0  0
  185.5290  179.5340  138.6680 C   0  0  0  0  0  2  0  0  0  0  0  0
  183.4220  178.6810  144.1900 C   0  0  0  0  0  0  0  0  0  0  0  0
  184.5890  178.2920  140.7400 C   0  0  1  0  0  3  0  0  0  0  0  0
  184.1300  178.4910  143.0160 C   0  0  0  0  0  0  0  0  0  0  0  0
  184.3220  179.2650  139.5840 C   0  0  2  0  0  3  0  0  0  0  0  0
  182.0250  178.7200  144.1000 C   0  0  0  0  0  3  0  0  0  0  0  0
  185.5300  178.5450  142.9350 N   0  0  0  0  0  0  0  0  0  0  0  0
  185.8440  177.1350  145.6050 C   0  0  0  0  0  1  0  0  0  0  0  0
  181.3790  178.2850  140.4310 C   0  0  0  0  0  2  0  0  0  0  0  0
  181.4150  178.5750  142.8830 N   0  0  0  0  0  0  0  0  0  0  0  0
  186.3170  179.0450  144.0580 C   0  0  0  0  0  2  0  0  0  0  0  0
  187.7140  178.2330  138.7110 C   0  0  1  0  0  3  0  0  0  0  0  0
  186.2500  178.2510  138.2690 C   0  0  0  0  0  2  0  0  0  0  0  0
  182.1240  178.4160  141.7230 C   0  0  0  0  0  0  0  0  0  0  0  0
  185.8730  178.6760  141.5240 C   0  0  1  0  0  3  0  0  0  0  0  0
  184.1670  178.9910  145.4620 C   0  0  0  0  0  2  0  0  0  0  0  0
  183.1180  178.8830  138.8390 N   0  0  0  0  0  0  0  0  0  0  0  0
  186.3850  179.3500  146.5200 C   0  0  0  0  0  1  0  0  0  0  0  0
  187.9540  178.5420  140.1970 C   0  0  0  0  0  2  0  0  0  0  0  0
  187.0420  177.7800  141.1510 C   0  0  0  0  0  2  0  0  0  0  0  0
  181.8430  179.3060  139.3980 C   0  0  0  0  0  2  0  0  0  0  0  0
  182.8350  178.1130  136.5080 C   0  0  0  0  0  3  0  0  0  0  0  0
  183.1020  177.8330  137.8580 C   0  0  0  0  0  0  0  0  0  0  0  0
  183.4260  176.5230  138.2350 C   0  0  0  0  0  3  0  0  0  0  0  0
  183.7720  174.1710  137.6750 N   0  0  0  0  0  1  0  0  0  0  0  0
  183.1670  175.7830  135.9440 C   0  0  0  0  0  3  0  0  0  0  0  0
  183.4510  175.5000  137.2830 C   0  0  0  0  0  0  0  0  0  0  0  0
  182.8600  177.0900  135.5570 C   0  0  0  0  0  3  0  0  0  0  0  0
  189.9800  174.6400  137.5970 O   0  0  0  0  0  0  0  0  0  0  0  0
  190.5490  175.6930  137.9910 C   0  0  0  0  0  0  0  0  0  0  0  0
  188.3630  176.9480  138.3180 C   0  0  0  0  0  0  0  0  0  0  0  0
  189.7910  176.8550  138.3460 N   0  0  0  0  0  2  0  0  0  0  0  0
  187.6560  175.9610  137.9720 O   0  0  0  0  0  0  0  0  0  0  0  0
  192.5860  174.4820  137.5900 N   0  0  0  0  0  1  0  0  0  0  0  0
  192.0340  175.7420  138.0550 C   0  0  0  0  0  2  0  0  0  0  0  0
  1 18  1  0  0  0  0
  1 10  1  0  0  0  0
  1 20  1  0  0  0  0
  2  6  1  0  0  0  0
  4 18  1  0  0  0  0
  5 17  1  0  0  0  0
  5  2  1  1  0  0  0
  6  4  2  0  0  0  0
  7  3  1  6  0  0  0
  7  5  1  0  0  0  0
  8  4  1  0  0  0  0
  9  6  1  0  0  0  0
  9 13  1  0  0  0  0
 11 16  1  0  0  0  0
 12  8  2  0  0  0  0
 13  1  1  0  0  0  0
 14 33  1  1  0  0  0
 14 21  1  0  0  0  0
 15  3  1  0  0  0  0
 15 14  1  0  0  0  0
 16  2  2  0  0  0  0
 16 12  1  0  0  0  0
 17 22  1  6  0  0  0
 17  9  1  0  0  0  0
 19 23  1  0  0  0  0
 19  7  1  0  0  0  0
 21 22  1  0  0  0  0
 23 11  1  0  0  0  0
 24 25  1  0  0  0  0
 25 26  2  0  0  0  0
 25 19  1  0  0  0  0
 28 29  2  0  0  0  0
 29 27  1  0  0  0  0
 29 26  1  0  0  0  0
 30 28  1  0  0  0  0
 30 24  2  0  0  0  0
 31 32  2  0  0  0  0
 32 37  1  0  0  0  0
 32 34  1  0  0  0  0
 33 34  1  0  0  0  0
 35 33  2  0  0  0  0
 36 37  1  0  0  0  0
M  END
>  <MODEL>
6

>  <REMARK>
 VINA RESULT:      -6.4      2.450      4.330
  Name = 
  3 active torsions:
  status: ('A' for Active; 'I' for Inactive)
    1  A    between atoms: C_4  and  C_37
    2  A    between atoms: C_8  and  C_18
    3  A    between atoms: N_23  and  C_30
                            x       y       z     vdW  Elec       q    Type
                         _______ _______ _______ _____ _____    ______ ____

>  <TORSDO>
F 3

$$$$
=
 OpenBabel11122411393D

 37 42  0  0  1  0  0  0  0  0999 V2000
  190.9050  177.4490  143.2980 C   0  0  0  0  0  0  0  0  0  0  0  0
  187.9140  177.6960  140.3710 C   0  0  0  0  0  0  0  0  0  0  0  0
  189.2650  178.1470  136.7440 C   0  0  0  0  0  2  0  0  0  0  0  0
  188.5180  178.0960  142.6690 C   0  0  0  0  0  0  0  0  0  0  0  0
  188.6020  177.2860  139.0980 C   0  0  1  0  0  3  0  0  0  0  0  0
  188.8190  177.6770  141.3840 C   0  0  0  0  0  0  0  0  0  0  0  0
  188.3110  178.2580  137.9470 C   0  0  2  0  0  3  0  0  0  0  0  0
  187.2080  178.5250  142.9150 C   0  0  0  0  0  3  0  0  0  0  0  0
  190.1130  177.3310  140.9640 N   0  0  0  0  0  0  0  0  0  0  0  0
  190.7240  175.9730  143.6090 C   0  0  0  0  0  1  0  0  0  0  0  0
  185.5390  178.1760  139.5730 C   0  0  0  0  0  2  0  0  0  0  0  0
  186.2860  178.5210  141.9020 N   0  0  0  0  0  0  0  0  0  0  0  0
  191.2680  177.6230  141.8070 C   0  0  0  0  0  2  0  0  0  0  0  0
  190.9600  176.2840  136.3930 C   0  0  1  0  0  3  0  0  0  0  0  0
  189.4910  176.7000  136.3170 C   0  0  0  0  0  2  0  0  0  0  0  0
  186.6010  178.1320  140.6280 C   0  0  0  0  0  0  0  0  0  0  0  0
  190.0990  177.3150  139.5060 C   0  0  1  0  0  3  0  0  0  0  0  0
  189.6220  178.2220  143.6850 C   0  0  0  0  0  2  0  0  0  0  0  0
  186.8990  178.2080  137.5570 N   0  0  0  0  0  0  0  0  0  0  0  0
  192.0520  177.9720  144.1350 C   0  0  0  0  0  1  0  0  0  0  0  0
  191.6510  176.5570  137.7370 C   0  0  0  0  0  2  0  0  0  0  0  0
  190.8500  176.1140  138.9560 C   0  0  0  0  0  2  0  0  0  0  0  0
  185.9720  178.9920  138.3600 C   0  0  0  0  0  2  0  0  0  0  0  0
  185.9340  177.4560  135.4100 C   0  0  0  0  0  3  0  0  0  0  0  0
  186.3500  177.1760  136.7210 C   0  0  0  0  0  0  0  0  0  0  0  0
  186.2940  175.8570  137.1920 C   0  0  0  0  0  3  0  0  0  0  0  0
  185.7350  173.5020  136.8620 N   0  0  0  0  0  1  0  0  0  0  0  0
  185.3690  175.1270  135.0760 C   0  0  0  0  0  3  0  0  0  0  0  0
  185.7980  174.8370  136.3740 C   0  0  0  0  0  0  0  0  0  0  0  0
  185.4390  176.4360  134.5940 C   0  0  0  0  0  3  0  0  0  0  0  0
  191.8060  172.1020  135.3520 O   0  0  0  0  0  0  0  0  0  0  0  0
  192.6220  172.8050  136.0060 C   0  0  0  0  0  0  0  0  0  0  0  0
  191.1200  174.8550  135.9880 C   0  0  0  0  0  0  0  0  0  0  0  0
  192.3270  174.1680  136.3310 N   0  0  0  0  0  2  0  0  0  0  0  0
  190.1970  174.2680  135.3580 O   0  0  0  0  0  0  0  0  0  0  0  0
  194.7650  173.2550  136.9950 N   0  0  0  0  0  1  0  0  0  0  0  0
  193.9270  172.2210  136.4160 C   0  0  0  0  0  2  0  0  0  0  0  0
  1 10  1  0  0  0  0
  1 18  1  0  0  0  0
  1 20  1  0  0  0  0
  2 16  2  0  0  0  0
  2  6  1  0  0  0  0
  4  8  1  0  0  0  0
  4 18  1  0  0  0  0
  5 17  1  0  0  0  0
  5  2  1  1  0  0  0
  6  4  2  0  0  0  0
  7  3  1  6  0  0  0
  7  5  1  0  0  0  0
  9  6  1  0  0  0  0
  9 13  1  0  0  0  0
 11 16  1  0  0  0  0
 12  8  2  0  0  0  0
 13  1  1  0  0  0  0
 14 33  1  1  0  0  0
 14 21  1  0  0  0  0
 15 14  1  0  0  0  0
 15  3  1  0  0  0  0
 16 12  1  0  0  0  0
 17 22  1  1  0  0  0
 17  9  1  0  0  0  0
 19  7  1  0  0  0  0
 19 23  1  0  0  0  0
 21 22  1  0  0  0  0
 23 11  1  0  0  0  0
 24 25  1  0  0  0  0
 25 26  2  0  0  0  0
 25 19  1  0  0  0  0
 28 29  2  0  0  0  0
 29 27  1  0  0  0  0
 29 26  1  0  0  0  0
 30 28  1  0  0  0  0
 30 24  2  0  0  0  0
 31 32  2  0  0  0  0
 32 34  1  0  0  0  0
 32 37  1  0  0  0  0
 33 34  1  0  0  0  0
 35 33  2  0  0  0  0
 37 36  1  0  0  0  0
M  END
>  <MODEL>
7

>  <REMARK>
 VINA RESULT:      -6.3      3.670      5.316
  Name = 
  3 active torsions:
  status: ('A' for Active; 'I' for Inactive)
    1  A    between atoms: C_4  and  C_37
    2  A    between atoms: C_8  and  C_18
    3  A    between atoms: N_23  and  C_30
                            x       y       z     vdW  Elec       q    Type
                         _______ _______ _______ _____ _____    ______ ____

>  <TORSDO>
F 3

$$$$
=
 OpenBabel11122411393D

 37 42  0  0  1  0  0  0  0  0999 V2000
  180.4450  179.1260  141.9710 C   0  0  0  0  0  0  0  0  0  0  0  0
  181.2900  175.9850  139.3270 C   0  0  0  0  0  0  0  0  0  0  0  0
  183.5170  177.0050  136.2970 C   0  0  0  0  0  2  0  0  0  0  0  0
  179.7370  176.9110  140.9200 C   0  0  0  0  0  0  0  0  0  0  0  0
  182.5510  176.4120  138.6290 C   0  0  1  0  0  3  0  0  0  0  0  0
  180.9130  176.9630  140.1920 C   0  0  0  0  0  0  0  0  0  0  0  0
  182.4540  176.2410  137.1080 C   0  0  2  0  0  3  0  0  0  0  0  0
  178.9310  175.7770  140.7600 C   0  0  0  0  0  3  0  0  0  0  0  0
  181.7600  178.0820  140.1630 N   0  0  0  0  0  0  0  0  0  0  0  0
  181.3120  178.6310  143.1150 C   0  0  0  0  0  1  0  0  0  0  0  0
  180.8130  173.7230  138.2470 C   0  0  0  0  0  2  0  0  0  0  0  0
  179.3190  174.7780  139.9080 N   0  0  0  0  0  0  0  0  0  0  0  0
  181.3200  179.3580  140.7190 C   0  0  0  0  0  2  0  0  0  0  0  0
  185.5580  178.1540  137.2860 C   0  0  1  0  0  3  0  0  0  0  0  0
  184.9180  176.8290  136.8720 C   0  0  0  0  0  2  0  0  0  0  0  0
  180.4710  174.8510  139.1720 C   0  0  0  0  0  0  0  0  0  0  0  0
  182.6610  177.9080  139.0290 C   0  0  1  0  0  3  0  0  0  0  0  0
  179.3020  178.1160  141.7110 C   0  0  0  0  0  2  0  0  0  0  0  0
  182.3690  174.8250  136.7380 N   0  0  0  0  0  0  0  0  0  0  0  0
  179.8330  180.4490  142.3790 C   0  0  0  0  0  1  0  0  0  0  0  0
  184.7070  179.0320  138.2160 C   0  0  0  0  0  2  0  0  0  0  0  0
  184.0880  178.2840  139.3910 C   0  0  0  0  0  2  0  0  0  0  0  0
  181.0550  174.2060  136.8220 C   0  0  0  0  0  2  0  0  0  0  0  0
  184.5120  174.0230  137.6710 C   0  0  0  0  0  3  0  0  0  0  0  0
  183.5140  173.9570  136.6860 C   0  0  0  0  0  0  0  0  0  0  0  0
  183.6050  172.9850  135.6800 C   0  0  0  0  0  3  0  0  0  0  0  0
  184.7840  171.1330  134.6120 N   0  0  0  0  0  1  0  0  0  0  0  0
  185.6930  172.1930  136.6160 C   0  0  0  0  0  3  0  0  0  0  0  0
  184.6950  172.1110  135.6410 C   0  0  0  0  0  0  0  0  0  0  0  0
  185.6010  173.1480  137.6310 C   0  0  0  0  0  3  0  0  0  0  0  0
  189.4140  177.6370  139.3240 O   0  0  0  0  0  0  0  0  0  0  0  0
  188.3940  178.0700  139.9250 C   0  0  0  0  0  0  0  0  0  0  0  0
  186.9160  177.9210  137.8630 C   0  0  0  0  0  0  0  0  0  0  0  0
  187.1480  178.2350  139.2400 N   0  0  0  0  0  2  0  0  0  0  0  0
  187.8380  177.4500  137.1420 O   0  0  0  0  0  0  0  0  0  0  0  0
  187.1710  178.4870  141.9510 N   0  0  0  0  0  1  0  0  0  0  0  0
  188.4960  178.4510  141.3590 C   0  0  0  0  0  2  0  0  0  0  0  0
  1 20  1  0  0  0  0
  1 10  1  0  0  0  0
  2  6  1  0  0  0  0
  3 15  1  0  0  0  0
  4 18  1  0  0  0  0
  5 17  1  0  0  0  0
  5  2  1  1  0  0  0
  6  4  2  0  0  0  0
  7  3  1  6  0  0  0
  7  5  1  0  0  0  0
  8  4  1  0  0  0  0
  9  6  1  0  0  0  0
  9 13  1  0  0  0  0
 11 16  1  0  0  0  0
 12  8  2  0  0  0  0
 13  1  1  0  0  0  0
 14 33  1  1  0  0  0
 14 21  1  0  0  0  0
 15 14  1  0  0  0  0
 16  2  2  0  0  0  0
 16 12  1  0  0  0  0
 17 22  1  1  0  0  0
 17  9  1  0  0  0  0
 18  1  1  0  0  0  0
 19 23  1  0  0  0  0
 19  7  1  0  0  0  0
 21 22  1  0  0  0  0
 23 11  1  0  0  0  0
 25 19  1  0  0  0  0
 25 24  2  0  0  0  0
 26 25  1  0  0  0  0
 27 29  1  0  0  0  0
 28 30  2  0  0  0  0
 29 26  2  0  0  0  0
 29 28  1  0  0  0  0
 30 24  1  0  0  0  0
 31 32  2  0  0  0  0
 32 37  1  0  0  0  0
 33 34  1  0  0  0  0
 34 32  1  0  0  0  0
 35 33  2  0  0  0  0
 37 36  1  0  0  0  0
M  END
>  <MODEL>
8

>  <REMARK>
 VINA RESULT:      -6.3      2.445      7.095
  Name = 
  3 active torsions:
  status: ('A' for Active; 'I' for Inactive)
    1  A    between atoms: C_4  and  C_37
    2  A    between atoms: C_8  and  C_18
    3  A    between atoms: N_23  and  C_30
                            x       y       z     vdW  Elec       q    Type
                         _______ _______ _______ _____ _____    ______ ____

>  <TORSDO>
F 3

$$$$
=
 OpenBabel11122411393D

 37 42  0  0  1  0  0  0  0  0999 V2000
  181.3380  178.9270  139.9620 C   0  0  0  0  0  0  0  0  0  0  0  0
  184.2980  177.3750  137.4320 C   0  0  0  0  0  0  0  0  0  0  0  0
  187.8610  178.8170  138.0720 C   0  0  0  0  0  2  0  0  0  0  0  0
  181.9680  177.9240  137.7010 C   0  0  0  0  0  0  0  0  0  0  0  0
  185.5820  177.5850  138.1850 C   0  0  1  0  0  3  0  0  0  0  0  0
  183.2710  177.8800  138.1650 C   0  0  0  0  0  0  0  0  0  0  0  0
  186.6710  178.2120  137.3050 C   0  0  2  0  0  3  0  0  0  0  0  0
  181.7180  177.3930  136.4290 C   0  0  0  0  0  3  0  0  0  0  0  0
  183.6890  178.4740  139.3650 N   0  0  0  0  0  0  0  0  0  0  0  0
  181.1290  177.6650  140.7810 C   0  0  0  0  0  1  0  0  0  0  0  0
  185.1070  176.2630  135.2820 C   0  0  0  0  0  2  0  0  0  0  0  0
  182.7470  176.8610  135.6980 N   0  0  0  0  0  0  0  0  0  0  0  0
  182.8070  179.3870  140.0850 C   0  0  0  0  0  2  0  0  0  0  0  0
  188.3030  178.5080  140.5570 C   0  0  1  0  0  3  0  0  0  0  0  0
  188.3790  177.8860  139.1630 C   0  0  0  0  0  2  0  0  0  0  0  0
  184.0370  176.8460  136.1540 C   0  0  0  0  0  0  0  0  0  0  0  0
  185.1450  178.5460  139.3240 C   0  0  1  0  0  3  0  0  0  0  0  0
  180.9250  178.6670  138.4940 C   0  0  0  0  0  2  0  0  0  0  0  0
  187.0910  177.2900  136.2450 N   0  0  0  0  0  0  0  0  0  0  0  0
  180.4460  180.0120  140.5260 C   0  0  0  0  0  1  0  0  0  0  0  0
  186.9310  179.0770  140.9480 C   0  0  0  0  0  2  0  0  0  0  0  0
  185.7600  178.1470  140.6540 C   0  0  0  0  0  2  0  0  0  0  0  0
  186.2540  177.2410  135.0550 C   0  0  0  0  0  2  0  0  0  0  0  0
  187.6020  175.0600  137.1770 C   0  0  0  0  0  3  0  0  0  0  0  0
  188.0030  176.2020  136.4650 C   0  0  0  0  0  0  0  0  0  0  0  0
  189.2870  176.2460  135.9060 C   0  0  0  0  0  3  0  0  0  0  0  0
  191.4760  175.2330  135.5190 N   0  0  0  0  0  1  0  0  0  0  0  0
  189.7700  174.0500  136.8050 C   0  0  0  0  0  3  0  0  0  0  0  0
  190.1710  175.1770  136.0820 C   0  0  0  0  0  0  0  0  0  0  0  0
  188.4860  173.9910  137.3510 C   0  0  0  0  0  3  0  0  0  0  0  0
  189.7120  175.9760  143.8580 O   0  0  0  0  0  0  0  0  0  0  0  0
  189.2580  177.1350  144.0530 C   0  0  0  0  0  0  0  0  0  0  0  0
  188.7990  177.5470  141.5870 C   0  0  0  0  0  0  0  0  0  0  0  0
  188.8080  177.9460  142.9610 N   0  0  0  0  0  2  0  0  0  0  0  0
  189.1970  176.4000  141.2430 O   0  0  0  0  0  0  0  0  0  0  0  0
  187.8790  177.5720  145.9720 N   0  0  0  0  0  1  0  0  0  0  0  0
  189.2230  177.6850  145.4340 C   0  0  0  0  0  2  0  0  0  0  0  0
  1 13  1  0  0  0  0
  1 20  1  0  0  0  0
  1 10  1  0  0  0  0
  2  6  1  0  0  0  0
  3 15  1  0  0  0  0
  4  6  2  0  0  0  0
  4 18  1  0  0  0  0
  5  2  1  6  0  0  0
  5 17  1  0  0  0  0
  6  9  1  0  0  0  0
  7  3  1  1  0  0  0
  7  5  1  0  0  0  0
  8  4  1  0  0  0  0
  9 13  1  0  0  0  0
 11 16  1  0  0  0  0
 12 16  1  0  0  0  0
 12  8  2  0  0  0  0
 14 21  1  0  0  0  0
 14 33  1  1  0  0  0
 15 14  1  0  0  0  0
 16  2  2  0  0  0  0
 17  9  1  0  0  0  0
 17 22  1  1  0  0  0
 18  1  1  0  0  0  0
 19 25  1  0  0  0  0
 19  7  1  0  0  0  0
 22 21  1  0  0  0  0
 23 11  1  0  0  0  0
 23 19  1  0  0  0  0
 24 30  1  0  0  0  0
 25 24  2  0  0  0  0
 26 29  2  0  0  0  0
 26 25  1  0  0  0  0
 27 29  1  0  0  0  0
 28 30  2  0  0  0  0
 29 28  1  0  0  0  0
 31 32  2  0  0  0  0
 32 37  1  0  0  0  0
 33 34  1  0  0  0  0
 34 32  1  0  0  0  0
 35 33  2  0  0  0  0
 37 36  1  0  0  0  0
M  END
>  <MODEL>
9

>  <REMARK>
 VINA RESULT:      -5.9      2.935      7.996
  Name = 
  3 active torsions:
  status: ('A' for Active; 'I' for Inactive)
    1  A    between atoms: C_4  and  C_37
    2  A    between atoms: C_8  and  C_18
    3  A    between atoms: N_23  and  C_30
                            x       y       z     vdW  Elec       q    Type
                         _______ _______ _______ _____ _____    ______ ____

>  <TORSDO>
F 3

$$$$
