=
 OpenBabel11122411573D

 28 32  0  0  1  0  0  0  0  0999 V2000
  182.7370  177.4570  138.0610 C   0  0  0  0  0  0  0  0  0  0  0  0
  185.2940  173.0220  137.9710 C   0  0  0  0  0  1  0  0  0  0  0  0
  187.0680  179.3930  137.1140 O   0  0  0  0  0  0  0  0  0  0  0  0
  182.2650  178.2430  135.4140 C   0  0  0  0  0  3  0  0  0  0  0  0
  187.1060  177.3250  135.8710 C   0  0  1  0  0  3  0  0  0  0  0  0
  183.0260  177.0990  139.4870 C   0  0  0  0  0  2  0  0  0  0  0  0
  183.2270  172.6530  136.7110 C   0  0  0  0  0  1  0  0  0  0  0  0
  184.6340  173.2060  136.5990 C   0  0  0  0  0  0  0  0  0  0  0  0
  186.5670  173.0450  135.3890 C   0  0  1  0  0  3  0  0  0  0  0  0
  184.5090  174.6890  136.1500 C   0  0  2  0  0  3  0  0  0  0  0  0
  184.5640  179.7790  138.6640 O   0  0  0  0  0  1  0  0  0  0  0  0
  185.8290  176.1210  137.6220 C   0  0  1  0  0  3  0  0  0  0  0  0
  186.3940  174.1930  134.5990 O   0  0  0  0  0  0  0  0  0  0  0  0
  185.3190  172.4390  135.6300 O   0  0  0  0  0  0  0  0  0  0  0  0
  184.8520  178.9220  139.7300 C   0  0  2  0  0  3  0  0  0  0  0  0
  183.4150  176.8070  137.0100 C   0  0  0  0  0  0  0  0  0  0  0  0
  186.7120  178.1890  137.0040 C   0  0  0  0  0  0  0  0  0  0  0  0
  187.4710  172.0680  134.6680 C   0  0  0  0  0  1  0  0  0  0  0  0
  185.9710  177.9310  139.3970 C   0  0  0  0  0  2  0  0  0  0  0  0
  183.1830  177.2270  135.6890 C   0  0  0  0  0  3  0  0  0  0  0  0
  181.8040  178.4630  137.7770 C   0  0  0  0  0  3  0  0  0  0  0  0
  181.5690  178.8540  136.4580 C   0  0  0  0  0  3  0  0  0  0  0  0
  183.5810  178.2780  140.2930 C   0  0  0  0  0  2  0  0  0  0  0  0
  186.6470  175.9220  136.3370 C   0  0  1  0  0  3  0  0  0  0  0  0
  185.9520  177.5200  137.9960 N   0  0  0  0  0  0  0  0  0  0  0  0
  185.7310  175.1780  135.3650 C   0  0  2  0  0  3  0  0  0  0  0  0
  186.4370  177.8210  134.5940 C   0  0  0  0  0  1  0  0  0  0  0  0
  184.3850  175.6780  137.3120 C   0  0  1  0  0  3  0  0  0  0  0  0
  1  6  1  0  0  0  0
  4 20  2  0  0  0  0
  4 22  1  0  0  0  0
  5 27  1  6  0  0  0
  5 24  1  0  0  0  0
  5 17  1  0  0  0  0
  6 23  1  0  0  0  0
  8  7  1  0  0  0  0
  8  2  1  0  0  0  0
  9 18  1  6  0  0  0
  9 14  1  0  0  0  0
 10  8  1  1  0  0  0
 10 28  1  0  0  0  0
 12 25  1  6  0  0  0
 13 26  1  0  0  0  0
 13  9  1  0  0  0  0
 14  8  1  0  0  0  0
 15 11  1  6  0  0  0
 15 23  1  0  0  0  0
 16 28  1  0  0  0  0
 16  1  2  0  0  0  0
 17  3  2  0  0  0  0
 17 25  1  0  0  0  0
 19 15  1  0  0  0  0
 20 16  1  0  0  0  0
 21  1  1  0  0  0  0
 22 21  2  0  0  0  0
 24 12  1  0  0  0  0
 25 19  1  0  0  0  0
 26 10  1  0  0  0  0
 26 24  1  0  0  0  0
 28 12  1  0  0  0  0
M  END
>  <MODEL>
1

>  <REMARK>
 VINA RESULT:      -4.8      0.000      0.000
  Name = 
  0 active torsions:
  status: ('A' for Active; 'I' for Inactive)
                            x       y       z     vdW  Elec       q    Type
                         _______ _______ _______ _____ _____    ______ ____

>  <TORSDO>
F 0

$$$$
=
 OpenBabel11122411573D

 28 32  0  0  1  0  0  0  0  0999 V2000
  181.4810  177.6390  136.0150 C   0  0  0  0  0  0  0  0  0  0  0  0
  186.1050  176.6060  137.9540 C   0  0  0  0  0  1  0  0  0  0  0  0
  179.9490  176.7400  140.5150 O   0  0  0  0  0  0  0  0  0  0  0  0
  180.7960  180.2550  136.7450 C   0  0  0  0  0  3  0  0  0  0  0  0
  182.0750  177.8290  140.8640 C   0  0  1  0  0  3  0  0  0  0  0  0
  181.7870  176.2160  135.6590 C   0  0  0  0  0  2  0  0  0  0  0  0
  186.3710  178.6000  136.5600 C   0  0  0  0  0  1  0  0  0  0  0  0
  185.9390  178.1290  137.9340 C   0  0  0  0  0  0  0  0  0  0  0  0
  186.3160  178.4310  140.1690 C   0  0  1  0  0  3  0  0  0  0  0  0
  184.4760  178.6100  138.1450 C   0  0  2  0  0  3  0  0  0  0  0  0
  179.2850  176.3670  137.6440 O   0  0  0  0  0  1  0  0  0  0  0  0
  183.0810  176.7450  138.8740 C   0  0  1  0  0  3  0  0  0  0  0  0
  185.2000  179.2380  140.4440 O   0  0  0  0  0  0  0  0  0  0  0  0
  186.8080  178.7190  138.8810 O   0  0  0  0  0  0  0  0  0  0  0  0
  180.1060  175.2660  137.3880 C   0  0  2  0  0  3  0  0  0  0  0  0
  182.2350  178.3070  137.0000 C   0  0  0  0  0  0  0  0  0  0  0  0
  181.1240  176.9710  140.1230 C   0  0  0  0  0  0  0  0  0  0  0  0
  187.3980  178.7020  141.1930 C   0  0  0  0  0  1  0  0  0  0  0  0
  181.2000  175.0940  138.4470 C   0  0  0  0  0  2  0  0  0  0  0  0
  181.8670  179.6120  137.3690 C   0  0  0  0  0  3  0  0  0  0  0  0
  180.4180  178.2960  135.3790 C   0  0  0  0  0  3  0  0  0  0  0  0
  180.0780  179.6000  135.7440 C   0  0  0  0  0  3  0  0  0  0  0  0
  180.6170  175.2690  135.9430 C   0  0  0  0  0  2  0  0  0  0  0  0
  183.4100  177.5740  140.1240 C   0  0  1  0  0  3  0  0  0  0  0  0
  181.6790  176.3720  138.9640 N   0  0  0  0  0  0  0  0  0  0  0  0
  184.1270  178.8280  139.6220 C   0  0  2  0  0  3  0  0  0  0  0  0
  181.5930  179.2750  140.8270 C   0  0  0  0  0  1  0  0  0  0  0  0
  183.4220  177.6170  137.6490 C   0  0  1  0  0  3  0  0  0  0  0  0
  1 16  1  0  0  0  0
  4 20  1  0  0  0  0
  5 27  1  6  0  0  0
  6 23  1  0  0  0  0
  6  1  1  0  0  0  0
  7  8  1  0  0  0  0
  8  2  1  0  0  0  0
  8 14  1  0  0  0  0
  9 13  1  0  0  0  0
  9 18  1  1  0  0  0
 10  8  1  1  0  0  0
 10 26  1  0  0  0  0
 12 25  1  1  0  0  0
 12 24  1  0  0  0  0
 14  9  1  0  0  0  0
 15 11  1  1  0  0  0
 15 19  1  0  0  0  0
 16 20  2  0  0  0  0
 16 28  1  0  0  0  0
 17  3  2  0  0  0  0
 17  5  1  0  0  0  0
 19 25  1  0  0  0  0
 21 22  1  0  0  0  0
 21  1  2  0  0  0  0
 22  4  2  0  0  0  0
 23 15  1  0  0  0  0
 24  5  1  0  0  0  0
 25 17  1  0  0  0  0
 26 24  1  0  0  0  0
 26 13  1  0  0  0  0
 28 10  1  0  0  0  0
 28 12  1  0  0  0  0
M  END
>  <MODEL>
2

>  <REMARK>
 VINA RESULT:      -4.7      3.039      5.627
  Name = 
  0 active torsions:
  status: ('A' for Active; 'I' for Inactive)
                            x       y       z     vdW  Elec       q    Type
                         _______ _______ _______ _____ _____    ______ ____

>  <TORSDO>
F 0

$$$$
=
 OpenBabel11122411573D

 28 32  0  0  1  0  0  0  0  0999 V2000
  180.8810  176.1160  136.1060 C   0  0  0  0  0  0  0  0  0  0  0  0
  185.7520  175.0340  137.2530 C   0  0  0  0  0  1  0  0  0  0  0  0
  180.7930  178.0480  140.5400 O   0  0  0  0  0  0  0  0  0  0  0  0
  180.7390  178.8160  135.3730 C   0  0  0  0  0  3  0  0  0  0  0  0
  183.0180  178.5640  139.7580 C   0  0  1  0  0  3  0  0  0  0  0  0
  180.9090  174.6860  136.5510 C   0  0  0  0  0  2  0  0  0  0  0  0
  185.7590  175.9030  134.9650 C   0  0  0  0  0  1  0  0  0  0  0  0
  185.7460  176.3220  136.4210 C   0  0  0  0  0  0  0  0  0  0  0  0
  186.8490  177.5990  137.9630 C   0  0  1  0  0  3  0  0  0  0  0  0
  184.4850  177.2070  136.6320 C   0  0  2  0  0  3  0  0  0  0  0  0
  179.2070  176.4660  138.5880 O   0  0  0  0  0  1  0  0  0  0  0  0
  183.2150  176.4050  138.5560 C   0  0  1  0  0  3  0  0  0  0  0  0
  185.9700  178.6930  137.9700 O   0  0  0  0  0  0  0  0  0  0  0  0
  186.9280  177.0570  136.6650 O   0  0  0  0  0  0  0  0  0  0  0  0
  179.7860  175.2170  138.8250 C   0  0  2  0  0  3  0  0  0  0  0  0
  181.9770  176.9650  136.3610 C   0  0  0  0  0  0  0  0  0  0  0  0
  181.7970  177.7330  139.8470 C   0  0  0  0  0  0  0  0  0  0  0  0
  188.2250  178.0550  138.4020 C   0  0  0  0  0  1  0  0  0  0  0  0
  181.1380  175.3230  139.5370 C   0  0  0  0  0  2  0  0  0  0  0  0
  181.8830  178.3220  136.0050 C   0  0  0  0  0  3  0  0  0  0  0  0
  179.7450  176.6150  135.4550 C   0  0  0  0  0  3  0  0  0  0  0  0
  179.6750  177.9600  135.0900 C   0  0  0  0  0  3  0  0  0  0  0  0
  179.8030  174.3570  137.5570 C   0  0  0  0  0  2  0  0  0  0  0  0
  184.0120  177.6320  139.0240 C   0  0  1  0  0  3  0  0  0  0  0  0
  181.8860  176.5110  139.1350 N   0  0  0  0  0  0  0  0  0  0  0  0
  184.6540  178.2220  137.7680 C   0  0  2  0  0  3  0  0  0  0  0  0
  182.7000  179.8610  139.0230 C   0  0  0  0  0  1  0  0  0  0  0  0
  183.2320  176.4150  137.0140 C   0  0  1  0  0  3  0  0  0  0  0  0
  1 16  1  0  0  0  0
  1  6  1  0  0  0  0
  4 20  1  0  0  0  0
  5 27  1  6  0  0  0
  5 17  1  0  0  0  0
  6 23  1  0  0  0  0
  7  8  1  0  0  0  0
  8 14  1  0  0  0  0
  8  2  1  0  0  0  0
  9 13  1  0  0  0  0
  9 18  1  6  0  0  0
 10  8  1  1  0  0  0
 10 28  1  0  0  0  0
 10 26  1  0  0  0  0
 12 24  1  0  0  0  0
 12 25  1  6  0  0  0
 14  9  1  0  0  0  0
 15 11  1  6  0  0  0
 15 19  1  0  0  0  0
 16 28  1  0  0  0  0
 17  3  2  0  0  0  0
 20 16  2  0  0  0  0
 21  1  2  0  0  0  0
 22  4  2  0  0  0  0
 22 21  1  0  0  0  0
 23 15  1  0  0  0  0
 24  5  1  0  0  0  0
 25 19  1  0  0  0  0
 25 17  1  0  0  0  0
 26 13  1  0  0  0  0
 26 24  1  0  0  0  0
 28 12  1  0  0  0  0
M  END
>  <MODEL>
3

>  <REMARK>
 VINA RESULT:      -4.5      2.562      4.621
  Name = 
  0 active torsions:
  status: ('A' for Active; 'I' for Inactive)
                            x       y       z     vdW  Elec       q    Type
                         _______ _______ _______ _____ _____    ______ ____

>  <TORSDO>
F 0

$$$$
=
 OpenBabel11122411573D

 28 32  0  0  1  0  0  0  0  0999 V2000
  180.2700  178.9300  137.1080 C   0  0  0  0  0  0  0  0  0  0  0  0
  180.4470  173.9970  138.4690 C   0  0  0  0  0  1  0  0  0  0  0  0
  184.8890  178.9710  138.5470 O   0  0  0  0  0  0  0  0  0  0  0  0
  181.4800  179.1820  134.5940 C   0  0  0  0  0  3  0  0  0  0  0  0
  184.6410  176.7860  137.5530 C   0  0  1  0  0  3  0  0  0  0  0  0
  179.6720  178.8420  138.4790 C   0  0  0  0  0  2  0  0  0  0  0  0
  179.2820  174.0780  136.3180 C   0  0  0  0  0  1  0  0  0  0  0  0
  180.6580  174.0680  136.9530 C   0  0  0  0  0  0  0  0  0  0  0  0
  182.6630  172.9710  136.9470 C   0  0  1  0  0  3  0  0  0  0  0  0
  181.3920  175.3540  136.4750 C   0  0  2  0  0  3  0  0  0  0  0  0
  182.3730  180.5510  138.5360 O   0  0  0  0  0  1  0  0  0  0  0  0
  182.3200  176.5460  138.3920 C   0  0  1  0  0  3  0  0  0  0  0  0
  183.3810  173.8870  136.1610 O   0  0  0  0  0  0  0  0  0  0  0  0
  181.3280  172.9070  136.5060 O   0  0  0  0  0  0  0  0  0  0  0  0
  181.7370  179.9250  139.6110 C   0  0  2  0  0  3  0  0  0  0  0  0
  181.0210  177.8580  136.5860 C   0  0  0  0  0  0  0  0  0  0  0  0
  184.1610  177.9750  138.2900 C   0  0  0  0  0  0  0  0  0  0  0  0
  183.2990  171.6010  136.8310 C   0  0  0  0  0  1  0  0  0  0  0  0
  182.3490  178.5600  139.9380 C   0  0  0  0  0  2  0  0  0  0  0  0
  181.6390  178.0070  135.3320 C   0  0  0  0  0  3  0  0  0  0  0  0
  180.0990  180.0990  136.3540 C   0  0  0  0  0  3  0  0  0  0  0  0
  180.7020  180.2240  135.1010 C   0  0  0  0  0  3  0  0  0  0  0  0
  180.2150  179.9110  139.4320 C   0  0  0  0  0  2  0  0  0  0  0  0
  183.4790  175.7800  137.7360 C   0  0  1  0  0  3  0  0  0  0  0  0
  182.8230  177.8630  138.7460 N   0  0  0  0  0  0  0  0  0  0  0  0
  182.9160  175.1900  136.4420 C   0  0  2  0  0  3  0  0  0  0  0  0
  184.9310  177.1660  136.1050 C   0  0  0  0  0  1  0  0  0  0  0  0
  181.1600  176.5690  137.3760 C   0  0  1  0  0  3  0  0  0  0  0  0
  1  6  1  0  0  0  0
  4 22  2  0  0  0  0
  4 20  1  0  0  0  0
  5 27  1  6  0  0  0
  5 24  1  0  0  0  0
  5 17  1  0  0  0  0
  6 23  1  0  0  0  0
  7  8  1  0  0  0  0
  8  2  1  0  0  0  0
  9 18  1  6  0  0  0
 10  8  1  1  0  0  0
 10 28  1  0  0  0  0
 12 25  1  6  0  0  0
 13 26  1  0  0  0  0
 13  9  1  0  0  0  0
 14  9  1  0  0  0  0
 14  8  1  0  0  0  0
 15 11  1  6  0  0  0
 15 19  1  0  0  0  0
 16  1  1  0  0  0  0
 16 28  1  0  0  0  0
 17  3  2  0  0  0  0
 17 25  1  0  0  0  0
 20 16  2  0  0  0  0
 21  1  2  0  0  0  0
 22 21  1  0  0  0  0
 23 15  1  0  0  0  0
 24 12  1  0  0  0  0
 25 19  1  0  0  0  0
 26 10  1  0  0  0  0
 26 24  1  0  0  0  0
 28 12  1  0  0  0  0
M  END
>  <MODEL>
4

>  <REMARK>
 VINA RESULT:      -4.5      2.211      3.363
  Name = 
  0 active torsions:
  status: ('A' for Active; 'I' for Inactive)
                            x       y       z     vdW  Elec       q    Type
                         _______ _______ _______ _____ _____    ______ ____

>  <TORSDO>
F 0

$$$$
=
 OpenBabel11122411573D

 28 32  0  0  1  0  0  0  0  0999 V2000
  185.2540  174.9110  136.6850 C   0  0  0  0  0  0  0  0  0  0  0  0
  182.7880  177.3800  140.4310 C   0  0  0  0  0  1  0  0  0  0  0  0
  180.8790  174.7000  134.6300 O   0  0  0  0  0  0  0  0  0  0  0  0
  185.6960  176.7210  134.5940 C   0  0  0  0  0  3  0  0  0  0  0  0
  180.8780  176.8590  135.7100 C   0  0  1  0  0  3  0  0  0  0  0  0
  184.9800  173.9000  137.7570 C   0  0  0  0  0  2  0  0  0  0  0  0
  184.8550  178.6280  140.0260 C   0  0  0  0  0  1  0  0  0  0  0  0
  183.4370  178.4350  139.5270 C   0  0  0  0  0  0  0  0  0  0  0  0
  181.5010  179.5550  139.0530 C   0  0  1  0  0  3  0  0  0  0  0  0
  183.5290  178.0190  138.0320 C   0  0  2  0  0  3  0  0  0  0  0  0
  183.3840  173.1690  135.0850 O   0  0  0  0  0  1  0  0  0  0  0  0
  182.1880  176.0170  137.6390 C   0  0  1  0  0  3  0  0  0  0  0  0
  181.6460  179.6060  137.6580 O   0  0  0  0  0  0  0  0  0  0  0  0
  182.7620  179.6690  139.6690 O   0  0  0  0  0  0  0  0  0  0  0  0
  183.1180  172.7300  136.3850 C   0  0  2  0  0  3  0  0  0  0  0  0
  184.5830  176.1500  136.6840 C   0  0  0  0  0  0  0  0  0  0  0  0
  181.2590  175.4360  135.5800 C   0  0  0  0  0  0  0  0  0  0  0  0
  180.6130  180.6940  139.5090 C   0  0  0  0  0  1  0  0  0  0  0  0
  182.0180  173.5500  137.0660 C   0  0  0  0  0  2  0  0  0  0  0  0
  184.8010  177.0400  135.6170 C   0  0  0  0  0  3  0  0  0  0  0  0
  186.1650  174.6050  135.6650 C   0  0  0  0  0  3  0  0  0  0  0  0
  186.3850  175.5080  134.6230 C   0  0  0  0  0  3  0  0  0  0  0  0
  184.4060  172.5920  137.2050 C   0  0  0  0  0  2  0  0  0  0  0  0
  181.3670  177.2140  137.1350 C   0  0  1  0  0  3  0  0  0  0  0  0
  182.0390  174.9520  136.6610 N   0  0  0  0  0  0  0  0  0  0  0  0
  182.2930  178.4280  137.2230 C   0  0  2  0  0  3  0  0  0  0  0  0
  181.5290  177.6670  134.5940 C   0  0  0  0  0  1  0  0  0  0  0  0
  183.6390  176.5070  137.8180 C   0  0  1  0  0  3  0  0  0  0  0  0
  1  6  1  0  0  0  0
  3 17  2  0  0  0  0
  4 22  2  0  0  0  0
  4 20  1  0  0  0  0
  5 27  1  6  0  0  0
  5 24  1  0  0  0  0
  8 14  1  0  0  0  0
  8  7  1  0  0  0  0
  8  2  1  0  0  0  0
  9 18  1  1  0  0  0
  9 14  1  0  0  0  0
 10  8  1  1  0  0  0
 12 25  1  6  0  0  0
 12 28  1  0  0  0  0
 13  9  1  0  0  0  0
 15 11  1  6  0  0  0
 15 19  1  0  0  0  0
 15 23  1  0  0  0  0
 16  1  1  0  0  0  0
 16 28  1  0  0  0  0
 17  5  1  0  0  0  0
 17 25  1  0  0  0  0
 20 16  2  0  0  0  0
 21  1  2  0  0  0  0
 22 21  1  0  0  0  0
 23  6  1  0  0  0  0
 24 26  1  0  0  0  0
 24 12  1  0  0  0  0
 25 19  1  0  0  0  0
 26 13  1  0  0  0  0
 26 10  1  0  0  0  0
 28 10  1  0  0  0  0
M  END
>  <MODEL>
5

>  <REMARK>
 VINA RESULT:      -4.4      2.012      6.211
  Name = 
  0 active torsions:
  status: ('A' for Active; 'I' for Inactive)
                            x       y       z     vdW  Elec       q    Type
                         _______ _______ _______ _____ _____    ______ ____

>  <TORSDO>
F 0

$$$$
=
 OpenBabel11122411573D

 28 32  0  0  1  0  0  0  0  0999 V2000
  181.6730  179.5950  138.6700 C   0  0  0  0  0  0  0  0  0  0  0  0
  185.3640  177.5150  135.7960 C   0  0  0  0  0  1  0  0  0  0  0  0
  178.9360  176.0610  136.8180 O   0  0  0  0  0  0  0  0  0  0  0  0
  181.3910  178.0400  140.9830 C   0  0  0  0  0  3  0  0  0  0  0  0
  181.0920  175.0070  137.0840 C   0  0  1  0  0  3  0  0  0  0  0  0
  181.7530  180.4130  137.4170 C   0  0  0  0  0  2  0  0  0  0  0  0
  186.3720  177.9900  137.9750 C   0  0  0  0  0  1  0  0  0  0  0  0
  185.5290  176.9800  137.2220 C   0  0  0  0  0  0  0  0  0  0  0  0
  185.4040  174.7690  136.6560 C   0  0  1  0  0  3  0  0  0  0  0  0
  184.1920  176.8280  138.0010 C   0  0  2  0  0  3  0  0  0  0  0  0
  178.9310  178.9240  137.6110 O   0  0  0  0  0  1  0  0  0  0  0  0
  182.3040  177.0820  136.4750 C   0  0  1  0  0  3  0  0  0  0  0  0
  184.4480  174.3810  137.6080 O   0  0  0  0  0  0  0  0  0  0  0  0
  186.2430  175.7610  137.1980 O   0  0  0  0  0  0  0  0  0  0  0  0
  179.5410  179.4500  136.4700 C   0  0  2  0  0  3  0  0  0  0  0  0
  182.2860  178.3280  138.7360 C   0  0  0  0  0  0  0  0  0  0  0  0
  180.1930  176.1520  136.8220 C   0  0  0  0  0  0  0  0  0  0  0  0
  186.2350  173.5670  136.2580 C   0  0  0  0  0  1  0  0  0  0  0  0
  180.2830  178.3830  135.6590 C   0  0  0  0  0  2  0  0  0  0  0  0
  182.1190  177.5510  139.8960 C   0  0  0  0  0  3  0  0  0  0  0  0
  180.9590  180.0860  139.7710 C   0  0  0  0  0  3  0  0  0  0  0  0
  180.8190  179.3110  140.9240 C   0  0  0  0  0  3  0  0  0  0  0  0
  180.3780  180.6900  136.8020 C   0  0  0  0  0  2  0  0  0  0  0  0
  182.4840  175.5760  136.7190 C   0  0  1  0  0  3  0  0  0  0  0  0
  180.8760  177.3530  136.5060 N   0  0  0  0  0  0  0  0  0  0  0  0
  183.5470  175.4500  137.8110 C   0  0  2  0  0  3  0  0  0  0  0  0
  180.9450  174.5650  138.5360 C   0  0  0  0  0  1  0  0  0  0  0  0
  183.1070  177.8170  137.5660 C   0  0  1  0  0  3  0  0  0  0  0  0
  1 16  2  0  0  0  0
  1 21  1  0  0  0  0
  2  8  1  0  0  0  0
  3 17  2  0  0  0  0
  5 27  1  1  0  0  0
  6  1  1  0  0  0  0
  8  7  1  0  0  0  0
  9 18  1  1  0  0  0
  9 14  1  0  0  0  0
  9 13  1  0  0  0  0
 10  8  1  6  0  0  0
 12 25  1  1  0  0  0
 12 24  1  0  0  0  0
 12 28  1  0  0  0  0
 13 26  1  0  0  0  0
 14  8  1  0  0  0  0
 15 23  1  0  0  0  0
 15 11  1  1  0  0  0
 16 20  1  0  0  0  0
 17  5  1  0  0  0  0
 19 15  1  0  0  0  0
 19 25  1  0  0  0  0
 20  4  2  0  0  0  0
 21 22  2  0  0  0  0
 22  4  1  0  0  0  0
 23  6  1  0  0  0  0
 24  5  1  0  0  0  0
 24 26  1  0  0  0  0
 25 17  1  0  0  0  0
 26 10  1  0  0  0  0
 28 10  1  0  0  0  0
 28 16  1  0  0  0  0
M  END
>  <MODEL>
6

>  <REMARK>
 VINA RESULT:      -4.2      2.756      4.944
  Name = 
  0 active torsions:
  status: ('A' for Active; 'I' for Inactive)
                            x       y       z     vdW  Elec       q    Type
                         _______ _______ _______ _____ _____    ______ ____

>  <TORSDO>
F 0

$$$$
=
 OpenBabel11122411573D

 28 32  0  0  1  0  0  0  0  0999 V2000
  181.4200  176.7380  136.3280 C   0  0  0  0  0  0  0  0  0  0  0  0
  181.0590  181.8430  136.1800 C   0  0  0  0  0  1  0  0  0  0  0  0
  183.1970  177.4960  140.7640 O   0  0  0  0  0  0  0  0  0  0  0  0
  179.2550  175.7550  137.8100 C   0  0  0  0  0  3  0  0  0  0  0  0
  181.5090  179.2080  140.5460 C   0  0  1  0  0  3  0  0  0  0  0  0
  182.6230  177.2310  135.5840 C   0  0  0  0  0  2  0  0  0  0  0  0
  178.9640  180.9750  135.2570 C   0  0  0  0  0  1  0  0  0  0  0  0
  179.6790  181.2900  136.5560 C   0  0  0  0  0  0  0  0  0  0  0  0
  179.4850  182.4620  138.5090 C   0  0  1  0  0  3  0  0  0  0  0  0
  179.7270  179.9740  137.3830 C   0  0  2  0  0  3  0  0  0  0  0  0
  183.4910  175.8290  138.3220 O   0  0  0  0  0  1  0  0  0  0  0  0
  182.0080  179.5480  138.1420 C   0  0  1  0  0  3  0  0  0  0  0  0
  179.1200  181.3900  139.3390 O   0  0  0  0  0  0  0  0  0  0  0  0
  178.9310  182.2830  137.2270 O   0  0  0  0  0  0  0  0  0  0  0  0
  184.2320  176.7290  137.5520 C   0  0  2  0  0  3  0  0  0  0  0  0
  180.6380  177.6270  137.0920 C   0  0  0  0  0  0  0  0  0  0  0  0
  182.5570  178.2980  140.0330 C   0  0  0  0  0  0  0  0  0  0  0  0
  178.9740  183.7570  139.1030 C   0  0  0  0  0  1  0  0  0  0  0  0
  184.1360  178.1650  138.0770 C   0  0  0  0  0  2  0  0  0  0  0  0
  179.5680  177.1160  137.8460 C   0  0  0  0  0  3  0  0  0  0  0  0
  181.0900  175.3760  136.2820 C   0  0  0  0  0  3  0  0  0  0  0  0
  180.0110  174.8880  137.0200 C   0  0  0  0  0  3  0  0  0  0  0  0
  183.9240  176.5770  136.0590 C   0  0  0  0  0  2  0  0  0  0  0  0
  181.2400  180.1340  139.3360 C   0  0  1  0  0  3  0  0  0  0  0  0
  182.8270  178.4600  138.6510 N   0  0  0  0  0  0  0  0  0  0  0  0
  179.7780  180.2230  138.8940 C   0  0  2  0  0  3  0  0  0  0  0  0
  180.3050  178.3920  141.0040 C   0  0  0  0  0  1  0  0  0  0  0  0
  180.9600  179.1110  137.0990 C   0  0  1  0  0  3  0  0  0  0  0  0
  1 16  1  0  0  0  0
  2  8  1  0  0  0  0
  4 20  1  0  0  0  0
  5 27  1  6  0  0  0
  6 23  1  0  0  0  0
  6  1  1  0  0  0  0
  7  8  1  0  0  0  0
  8 14  1  0  0  0  0
  9 18  1  1  0  0  0
  9 13  1  0  0  0  0
 10  8  1  6  0  0  0
 10 26  1  0  0  0  0
 12 25  1  1  0  0  0
 12 24  1  0  0  0  0
 14  9  1  0  0  0  0
 15 19  1  0  0  0  0
 15 11  1  1  0  0  0
 16 28  1  0  0  0  0
 16 20  2  0  0  0  0
 17  5  1  0  0  0  0
 17  3  2  0  0  0  0
 19 25  1  0  0  0  0
 21  1  2  0  0  0  0
 21 22  1  0  0  0  0
 22  4  2  0  0  0  0
 23 15  1  0  0  0  0
 24  5  1  0  0  0  0
 25 17  1  0  0  0  0
 26 24  1  0  0  0  0
 26 13  1  0  0  0  0
 28 10  1  0  0  0  0
 28 12  1  0  0  0  0
M  END
>  <MODEL>
7

>  <REMARK>
 VINA RESULT:      -4.1      3.258      7.347
  Name = 
  0 active torsions:
  status: ('A' for Active; 'I' for Inactive)
                            x       y       z     vdW  Elec       q    Type
                         _______ _______ _______ _____ _____    ______ ____

>  <TORSDO>
F 0

$$$$
=
 OpenBabel11122411573D

 28 32  0  0  1  0  0  0  0  0999 V2000
  181.9920  177.9620  137.9130 C   0  0  0  0  0  0  0  0  0  0  0  0
  186.3490  177.6910  135.2380 C   0  0  0  0  0  1  0  0  0  0  0  0
  180.6740  174.1880  135.1880 O   0  0  0  0  0  0  0  0  0  0  0  0
  182.0630  175.9830  139.8940 C   0  0  0  0  0  3  0  0  0  0  0  0
  183.0300  173.8070  135.5560 C   0  0  1  0  0  3  0  0  0  0  0  0
  181.8930  178.9900  136.8270 C   0  0  0  0  0  2  0  0  0  0  0  0
  186.9940  178.0230  137.5760 C   0  0  0  0  0  1  0  0  0  0  0  0
  186.5770  176.9690  136.5710 C   0  0  0  0  0  0  0  0  0  0  0  0
  187.2080  174.9750  135.6480 C   0  0  1  0  0  3  0  0  0  0  0  0
  185.3070  176.2720  137.1380 C   0  0  2  0  0  3  0  0  0  0  0  0
  179.6930  176.7070  136.4200 O   0  0  0  0  0  1  0  0  0  0  0  0
  183.5510  176.2280  135.4440 C   0  0  1  0  0  3  0  0  0  0  0  0
  186.3630  174.1410  136.3960 O   0  0  0  0  0  0  0  0  0  0  0  0
  187.6440  176.0510  136.4440 O   0  0  0  0  0  0  0  0  0  0  0  0
  180.1810  177.6020  135.4640 C   0  0  2  0  0  3  0  0  0  0  0  0
  182.9740  176.9530  137.8540 C   0  0  0  0  0  0  0  0  0  0  0  0
  181.8320  174.6540  135.3670 C   0  0  0  0  0  0  0  0  0  0  0  0
  188.4070  174.1810  135.1730 C   0  0  0  0  0  1  0  0  0  0  0  0
  181.2820  176.9860  134.5950 C   0  0  0  0  0  2  0  0  0  0  0  0
  182.9840  175.9550  138.8440 C   0  0  0  0  0  3  0  0  0  0  0  0
  181.0820  177.9940  138.9780 C   0  0  0  0  0  3  0  0  0  0  0  0
  181.1180  177.0070  139.9650 C   0  0  0  0  0  3  0  0  0  0  0  0
  180.5500  178.9500  136.0930 C   0  0  0  0  0  2  0  0  0  0  0  0
  184.1870  174.8300  135.4660 C   0  0  1  0  0  3  0  0  0  0  0  0
  182.1130  176.0430  135.3360 N   0  0  0  0  0  0  0  0  0  0  0  0
  185.1550  174.8260  136.6510 C   0  0  2  0  0  3  0  0  0  0  0  0
  182.9310  173.0720  136.8880 C   0  0  0  0  0  1  0  0  0  0  0  0
  183.9960  176.9490  136.7320 C   0  0  1  0  0  3  0  0  0  0  0  0
  1 21  1  0  0  0  0
  2  8  1  0  0  0  0
  3 17  2  0  0  0  0
  4 22  1  0  0  0  0
  5 27  1  1  0  0  0
  6  1  1  0  0  0  0
  8  7  1  0  0  0  0
  9 18  1  1  0  0  0
  9 13  1  0  0  0  0
  9 14  1  0  0  0  0
 10  8  1  6  0  0  0
 12 25  1  1  0  0  0
 12 24  1  0  0  0  0
 12 28  1  0  0  0  0
 13 26  1  0  0  0  0
 14  8  1  0  0  0  0
 15 23  1  0  0  0  0
 15 11  1  1  0  0  0
 16  1  2  0  0  0  0
 16 20  1  0  0  0  0
 17  5  1  0  0  0  0
 19 25  1  0  0  0  0
 19 15  1  0  0  0  0
 20  4  2  0  0  0  0
 21 22  2  0  0  0  0
 23  6  1  0  0  0  0
 24  5  1  0  0  0  0
 24 26  1  0  0  0  0
 25 17  1  0  0  0  0
 26 10  1  0  0  0  0
 28 10  1  0  0  0  0
 28 16  1  0  0  0  0
M  END
>  <MODEL>
8

>  <REMARK>
 VINA RESULT:      -4.1      2.244      4.536
  Name = 
  0 active torsions:
  status: ('A' for Active; 'I' for Inactive)
                            x       y       z     vdW  Elec       q    Type
                         _______ _______ _______ _____ _____    ______ ____

>  <TORSDO>
F 0

$$$$
=
 OpenBabel11122411573D

 28 32  0  0  1  0  0  0  0  0999 V2000
  179.8630  179.7380  139.6770 C   0  0  0  0  0  0  0  0  0  0  0  0
  181.0580  174.9470  138.3250 C   0  0  0  0  0  1  0  0  0  0  0  0
  183.7420  179.3600  142.5440 O   0  0  0  0  0  0  0  0  0  0  0  0
  181.5650  181.4820  138.2960 C   0  0  0  0  0  3  0  0  0  0  0  0
  184.3870  178.1180  140.5770 C   0  0  1  0  0  3  0  0  0  0  0  0
  178.9780  178.8330  140.4790 C   0  0  0  0  0  2  0  0  0  0  0  0
  180.5210  176.1350  136.2540 C   0  0  0  0  0  1  0  0  0  0  0  0
  181.6290  175.8870  137.2570 C   0  0  0  0  0  0  0  0  0  0  0  0
  183.7910  175.1690  137.4490 C   0  0  1  0  0  3  0  0  0  0  0  0
  182.0700  177.2740  137.8050 C   0  0  2  0  0  3  0  0  0  0  0  0
  180.9770  180.4370  142.3910 O   0  0  0  0  0  1  0  0  0  0  0  0
  182.0920  177.2400  140.2450 C   0  0  1  0  0  3  0  0  0  0  0  0
  184.4010  176.4290  137.5650 O   0  0  0  0  0  0  0  0  0  0  0  0
  182.6900  175.2510  136.5750 O   0  0  0  0  0  0  0  0  0  0  0  0
  180.2860  179.2570  142.6760 C   0  0  2  0  0  3  0  0  0  0  0  0
  180.9950  179.2250  139.0120 C   0  0  0  0  0  0  0  0  0  0  0  0
  183.4170  178.6280  141.5710 C   0  0  0  0  0  0  0  0  0  0  0  0
  184.7930  174.1720  136.9070 C   0  0  0  0  0  1  0  0  0  0  0  0
  181.1500  178.0090  142.4740 C   0  0  0  0  0  2  0  0  0  0  0  0
  181.8500  180.1160  138.3400 C   0  0  0  0  0  3  0  0  0  0  0  0
  179.5740  181.1080  139.6140 C   0  0  0  0  0  3  0  0  0  0  0  0
  180.4220  181.9770  138.9250 C   0  0  0  0  0  3  0  0  0  0  0  0
  178.9310  179.2130  141.9620 C   0  0  0  0  0  2  0  0  0  0  0  0
  183.5490  177.0890  139.7810 C   0  0  1  0  0  3  0  0  0  0  0  0
  182.0940  178.1590  141.3710 N   0  0  0  0  0  0  0  0  0  0  0  0
  183.5320  177.2940  138.2660 C   0  0  2  0  0  3  0  0  0  0  0  0
  184.9260  179.2780  139.7480 C   0  0  0  0  0  1  0  0  0  0  0  0
  181.2790  177.7340  139.0320 C   0  0  1  0  0  3  0  0  0  0  0  0
  1  6  1  0  0  0  0
  4 20  2  0  0  0  0
  4 22  1  0  0  0  0
  5 27  1  6  0  0  0
  5 17  1  0  0  0  0
  6 23  1  0  0  0  0
  7  8  1  0  0  0  0
  8  2  1  0  0  0  0
  9 18  1  6  0  0  0
  9 13  1  0  0  0  0
 10  8  1  1  0  0  0
 10 26  1  0  0  0  0
 10 28  1  0  0  0  0
 12 25  1  1  0  0  0
 13 26  1  0  0  0  0
 14  8  1  0  0  0  0
 14  9  1  0  0  0  0
 15 11  1  6  0  0  0
 16 28  1  0  0  0  0
 16  1  2  0  0  0  0
 17  3  2  0  0  0  0
 19 15  1  0  0  0  0
 20 16  1  0  0  0  0
 21  1  1  0  0  0  0
 22 21  2  0  0  0  0
 23 15  1  0  0  0  0
 24 12  1  0  0  0  0
 24  5  1  0  0  0  0
 25 17  1  0  0  0  0
 25 19  1  0  0  0  0
 26 24  1  0  0  0  0
 28 12  1  0  0  0  0
M  END
>  <MODEL>
9

>  <REMARK>
 VINA RESULT:      -4.1      3.007      4.689
  Name = 
  0 active torsions:
  status: ('A' for Active; 'I' for Inactive)
                            x       y       z     vdW  Elec       q    Type
                         _______ _______ _______ _____ _____    ______ ____

>  <TORSDO>
F 0

$$$$
