=
 OpenBabel11122412203D

 34 40  0  0  1  0  0  0  0  0999 V2000
  186.0320  178.2770  142.2240 C   0  0  0  0  0  0  0  0  0  0  0  0
  186.2020  178.7520  139.8120 N   0  0  0  0  0  0  0  0  0  0  0  0
  189.2250  178.1530  147.9920 C   0  0  2  0  0  3  0  0  0  0  0  0
  186.2570  178.1750  144.7320 C   0  0  0  0  0  0  0  0  0  0  0  0
  188.4100  177.4200  145.7050 C   0  0  0  0  0  0  0  0  0  0  0  0
  190.6080  176.4980  146.5750 C   0  0  0  0  0  1  0  0  0  0  0  0
  190.5250  178.2710  148.7760 C   0  0  0  0  0  1  0  0  0  0  0  0
  186.8330  177.7360  148.2990 C   0  0  0  0  0  2  0  0  0  0  0  0
  188.0600  177.8750  140.9480 C   0  0  0  0  0  0  0  0  0  0  0  0
  190.8550  177.5290  139.7100 C   0  0  0  0  0  2  0  0  0  0  0  0
  188.9020  177.1560  144.5260 N   0  0  0  0  0  0  0  0  0  0  0  0
  186.5860  178.6670  147.1220 C   0  0  0  0  0  2  0  0  0  0  0  0
  188.8310  177.4230  142.1270 C   0  0  0  0  0  0  0  0  0  0  0  0
  187.1730  178.5550  138.9730 C   0  0  0  0  0  3  0  0  0  0  0  0
  187.0470  178.0530  145.8230 C   0  0  0  0  0  0  0  0  0  0  0  0
  188.1190  178.0120  148.9460 N   0  0  0  0  0  2  0  0  0  0  0  0
  189.5860  177.6400  139.0010 N   0  0  0  0  0  0  0  0  0  0  0  0
  186.6770  177.5740  143.4100 C   0  0  2  0  0  3  0  0  0  0  0  0
  189.2140  177.0250  146.9340 C   0  0  1  0  0  3  0  0  0  0  0  0
  188.1870  177.4100  143.3150 C   0  0  0  0  0  0  0  0  0  0  0  0
  183.9870  178.4430  143.6600 C   0  0  0  0  0  2  0  0  0  0  0  0
  190.7670  176.5040  140.8200 C   0  0  0  0  0  2  0  0  0  0  0  0
  184.8940  178.8220  144.8330 C   0  0  0  0  0  2  0  0  0  0  0  0
  190.3160  177.2040  142.0850 C   0  0  0  0  0  2  0  0  0  0  0  0
  188.3610  178.0100  139.6580 C   0  0  0  0  0  0  0  0  0  0  0  0
  184.6280  178.8020  142.3220 C   0  0  0  0  0  2  0  0  0  0  0  0
  186.7010  178.3260  141.0730 C   0  0  0  0  0  0  0  0  0  0  0  0
  189.5890  177.4420  137.6120 N   0  0  0  0  0  2  0  0  0  0  0  0
  189.4870  176.0090  137.3700 C   0  0  0  0  0  2  0  0  0  0  0  0
  186.0100  175.7960  136.4500 C   0  0  0  0  0  2  0  0  0  0  0  0
  187.9550  176.9570  135.6460 C   0  0  0  0  0  2  0  0  0  0  0  0
  188.3210  175.7210  136.4420 C   0  0  2  0  0  3  0  0  0  0  0  0
  186.4480  177.0010  135.6460 C   0  0  0  0  0  2  0  0  0  0  0  0
  187.1540  175.3410  137.2230 N   0  0  0  0  0  2  0  0  0  0  0  0
  1 26  1  0  0  0  0
  2 27  1  0  0  0  0
  3  7  1  1  0  0  0
  3 16  1  0  0  0  0
  4 23  1  0  0  0  0
  4 15  2  0  0  0  0
  5 15  1  0  0  0  0
  5 19  1  0  0  0  0
  8 16  1  0  0  0  0
  9 27  1  0  0  0  0
  9 13  1  0  0  0  0
 10 22  1  0  0  0  0
 11  5  2  0  0  0  0
 12  8  1  0  0  0  0
 13 20  2  0  0  0  0
 14 25  1  0  0  0  0
 14  2  2  0  0  0  0
 15 12  1  0  0  0  0
 17 25  1  0  0  0  0
 17 10  1  0  0  0  0
 18  1  1  6  0  0  0
 18  4  1  0  0  0  0
 19  6  1  6  0  0  0
 19  3  1  0  0  0  0
 20 18  1  0  0  0  0
 20 11  1  0  0  0  0
 21 23  1  0  0  0  0
 22 24  1  0  0  0  0
 24 13  1  0  0  0  0
 25  9  2  0  0  0  0
 26 21  1  0  0  0  0
 27  1  2  0  0  0  0
 28 17  1  0  0  0  0
 29 28  1  0  0  0  0
 30 34  1  0  0  0  0
 31 32  1  0  0  0  0
 32 34  1  0  0  0  0
 32 29  1  1  0  0  0
 33 31  1  0  0  0  0
 33 30  1  0  0  0  0
M  END
>  <MODEL>
1

>  <REMARK>
 VINA RESULT:      -9.7      0.000      0.000
  Name = 
  3 active torsions:
  status: ('A' for Active; 'I' for Inactive)
    1  A    between atoms: N_17  and  N_28
    2  A    between atoms: N_28  and  C_29
    3  A    between atoms: C_29  and  C_32
                            x       y       z     vdW  Elec       q    Type
                         _______ _______ _______ _____ _____    ______ ____

>  <TORSDO>
F 3

$$$$
=
 OpenBabel11122412203D

 34 40  0  0  1  0  0  0  0  0999 V2000
  185.8670  178.1560  145.4990 C   0  0  0  0  0  0  0  0  0  0  0  0
  183.6230  179.1650  145.6360 N   0  0  0  0  0  0  0  0  0  0  0  0
  191.3450  177.5160  141.8850 C   0  0  2  0  0  3  0  0  0  0  0  0
  188.2760  177.5680  145.0500 C   0  0  0  0  0  0  0  0  0  0  0  0
  188.9790  177.1290  142.7130 C   0  0  0  0  0  0  0  0  0  0  0  0
  189.5420  176.5620  140.3040 C   0  0  0  0  0  1  0  0  0  0  0  0
  192.0920  177.7520  140.5790 C   0  0  0  0  0  1  0  0  0  0  0  0
  191.6270  176.5130  144.0990 C   0  0  0  0  0  2  0  0  0  0  0  0
  184.4660  178.5080  143.5450 C   0  0  0  0  0  0  0  0  0  0  0  0
  183.0900  179.0780  140.8540 C   0  0  0  0  0  2  0  0  0  0  0  0
  187.7560  177.2430  142.2750 N   0  0  0  0  0  0  0  0  0  0  0  0
  190.7040  177.5950  144.6360 C   0  0  0  0  0  2  0  0  0  0  0  0
  185.4850  177.9980  142.6010 C   0  0  0  0  0  0  0  0  0  0  0  0
  182.7300  179.3790  144.7180 C   0  0  0  0  0  3  0  0  0  0  0  0
  189.2840  177.3960  144.1640 C   0  0  0  0  0  0  0  0  0  0  0  0
  192.2780  176.9260  142.8520 N   0  0  0  0  0  2  0  0  0  0  0  0
  182.4680  179.0500  142.1720 N   0  0  0  0  0  0  0  0  0  0  0  0
  186.8390  177.3780  144.6230 C   0  0  0  0  0  0  0  0  0  0  0  0
  190.0580  176.6700  141.7430 C   0  0  1  0  0  3  0  0  0  0  0  0
  186.6590  177.5840  143.1260 C   0  0  0  0  0  0  0  0  0  0  0  0
  187.3700  177.5410  147.4060 C   0  0  0  0  0  2  0  0  0  0  0  0
  183.9390  177.8450  140.6290 C   0  0  0  0  0  2  0  0  0  0  0  0
  188.5680  177.8530  146.5070 C   0  0  0  0  0  2  0  0  0  0  0  0
  185.3450  178.1350  141.1120 C   0  0  0  0  0  2  0  0  0  0  0  0
  183.2330  178.9820  143.3890 C   0  0  0  0  0  0  0  0  0  0  0  0
  186.1290  178.3160  146.9700 C   0  0  0  0  0  2  0  0  0  0  0  0
  184.7370  178.6020  144.9550 C   0  0  2  0  0  3  0  0  0  0  0  0
  181.0710  179.1610  142.2420 N   0  0  0  0  0  2  0  0  0  0  0  0
  180.5910  179.5480  140.9220 C   0  0  0  0  0  2  0  0  0  0  0  0
  179.6350  176.6050  139.0750 C   0  0  0  0  0  2  0  0  0  0  0  0
  179.5180  177.3400  141.3600 C   0  0  0  0  0  2  0  0  0  0  0  0
  179.6240  178.5030  140.3950 C   0  0  2  0  0  3  0  0  0  0  0  0
  179.5170  176.1040  140.4970 C   0  0  0  0  0  2  0  0  0  0  0  0
  180.1090  177.9790  139.1280 N   0  0  0  0  0  2  0  0  0  0  0  0
  1 26  1  0  0  0  0
  3  7  1  6  0  0  0
  3 16  1  0  0  0  0
  4 23  1  0  0  0  0
  5 15  1  0  0  0  0
  8 12  1  0  0  0  0
 10 17  1  0  0  0  0
 11  5  2  0  0  0  0
 11 20  1  0  0  0  0
 13 20  2  0  0  0  0
 13  9  1  0  0  0  0
 14  2  2  0  0  0  0
 15 12  1  0  0  0  0
 15  4  2  0  0  0  0
 16  8  1  0  0  0  0
 17 28  1  0  0  0  0
 17 25  1  0  0  0  0
 18  4  1  0  0  0  0
 18  1  2  0  0  0  0
 19  6  1  6  0  0  0
 19  3  1  0  0  0  0
 19  5  1  0  0  0  0
 20 18  1  0  0  0  0
 22 10  1  0  0  0  0
 22 24  1  0  0  0  0
 23 21  1  0  0  0  0
 24 13  1  0  0  0  0
 25  9  2  0  0  0  0
 25 14  1  0  0  0  0
 26 21  1  0  0  0  0
 27  9  1  1  0  0  0
 27  1  1  0  0  0  0
 27  2  1  0  0  0  0
 29 28  1  0  0  0  0
 30 34  1  0  0  0  0
 30 33  1  0  0  0  0
 32 29  1  1  0  0  0
 32 31  1  0  0  0  0
 33 31  1  0  0  0  0
 34 32  1  0  0  0  0
M  END
>  <MODEL>
2

>  <REMARK>
 VINA RESULT:      -9.6      3.130      6.385
  Name = 
  3 active torsions:
  status: ('A' for Active; 'I' for Inactive)
    1  A    between atoms: N_17  and  N_28
    2  A    between atoms: N_28  and  C_29
    3  A    between atoms: C_29  and  C_32
                            x       y       z     vdW  Elec       q    Type
                         _______ _______ _______ _____ _____    ______ ____

>  <TORSDO>
F 3

$$$$
=
 OpenBabel11122412203D

 34 40  0  0  1  0  0  0  0  0999 V2000
  185.8260  178.3540  142.3470 C   0  0  0  0  0  0  0  0  0  0  0  0
  185.8750  178.8580  139.9350 N   0  0  0  0  0  0  0  0  0  0  0  0
  189.3080  178.1430  147.9430 C   0  0  2  0  0  3  0  0  0  0  0  0
  186.1780  178.2190  144.8380 C   0  0  0  0  0  0  0  0  0  0  0  0
  188.3740  177.4420  145.6910 C   0  0  0  0  0  0  0  0  0  0  0  0
  190.6090  176.5000  146.4370 C   0  0  0  0  0  1  0  0  0  0  0  0
  190.6470  178.2450  148.6610 C   0  0  0  0  0  1  0  0  0  0  0  0
  186.9330  177.7330  148.3660 C   0  0  0  0  0  2  0  0  0  0  0  0
  187.7850  177.9590  140.9640 C   0  0  0  0  0  0  0  0  0  0  0  0
  190.5110  177.6150  139.5810 C   0  0  0  0  0  2  0  0  0  0  0  0
  188.8040  177.1910  144.4860 N   0  0  0  0  0  0  0  0  0  0  0  0
  186.6310  178.6800  147.2150 C   0  0  0  0  0  2  0  0  0  0  0  0
  188.6120  177.4880  142.0970 C   0  0  0  0  0  0  0  0  0  0  0  0
  186.8020  178.6670  139.0460 C   0  0  0  0  0  3  0  0  0  0  0  0
  187.0220  178.0800  145.8870 C   0  0  0  0  0  0  0  0  0  0  0  0
  188.2510  177.9950  148.9500 N   0  0  0  0  0  2  0  0  0  0  0  0
  189.2080  177.7420  138.9390 N   0  0  0  0  0  0  0  0  0  0  0  0
  186.5270  177.6330  143.4890 C   0  0  2  0  0  3  0  0  0  0  0  0
  189.2380  177.0280  146.8730 C   0  0  1  0  0  3  0  0  0  0  0  0
  188.0290  177.4630  143.3160 C   0  0  0  0  0  0  0  0  0  0  0  0
  183.8580  178.5100  143.8880 C   0  0  0  0  0  2  0  0  0  0  0  0
  190.4750  176.5780  140.6820 C   0  0  0  0  0  2  0  0  0  0  0  0
  184.8250  178.8710  145.0170 C   0  0  0  0  0  2  0  0  0  0  0  0
  190.0920  177.2640  141.9770 C   0  0  0  0  0  2  0  0  0  0  0  0
  188.0200  178.1090  139.6630 C   0  0  0  0  0  0  0  0  0  0  0  0
  184.4320  178.8840  142.5230 C   0  0  0  0  0  2  0  0  0  0  0  0
  186.4350  178.4140  141.1650 C   0  0  0  0  0  0  0  0  0  0  0  0
  189.1390  177.5600  137.5490 N   0  0  0  0  0  2  0  0  0  0  0  0
  188.7450  176.1800  137.3030 C   0  0  0  0  0  2  0  0  0  0  0  0
  192.1360  175.6110  136.2270 C   0  0  0  0  0  2  0  0  0  0  0  0
  190.4820  174.4000  137.4810 C   0  0  0  0  0  2  0  0  0  0  0  0
  189.8570  175.4440  136.5790 C   0  0  2  0  0  3  0  0  0  0  0  0
  191.9670  174.5050  137.2450 C   0  0  0  0  0  2  0  0  0  0  0  0
  190.9030  176.3820  136.2030 N   0  0  0  0  0  2  0  0  0  0  0  0
  1 26  1  0  0  0  0
  2 27  1  0  0  0  0
  3  7  1  1  0  0  0
  3 16  1  0  0  0  0
  4 23  1  0  0  0  0
  4 15  2  0  0  0  0
  5 15  1  0  0  0  0
  5 19  1  0  0  0  0
  8 16  1  0  0  0  0
  9 27  1  0  0  0  0
  9 13  1  0  0  0  0
 10 22  1  0  0  0  0
 11  5  2  0  0  0  0
 12  8  1  0  0  0  0
 13 20  2  0  0  0  0
 14 25  1  0  0  0  0
 14  2  2  0  0  0  0
 15 12  1  0  0  0  0
 17 10  1  0  0  0  0
 17 25  1  0  0  0  0
 18  1  1  6  0  0  0
 18  4  1  0  0  0  0
 19  6  1  6  0  0  0
 19  3  1  0  0  0  0
 20 18  1  0  0  0  0
 20 11  1  0  0  0  0
 21 23  1  0  0  0  0
 22 24  1  0  0  0  0
 24 13  1  0  0  0  0
 25  9  2  0  0  0  0
 26 21  1  0  0  0  0
 27  1  2  0  0  0  0
 28 17  1  0  0  0  0
 29 28  1  0  0  0  0
 30 33  1  0  0  0  0
 32 29  1  1  0  0  0
 32 31  1  0  0  0  0
 33 31  1  0  0  0  0
 34 30  1  0  0  0  0
 34 32  1  0  0  0  0
M  END
>  <MODEL>
3

>  <REMARK>
 VINA RESULT:      -9.6      0.993      1.833
  Name = 
  3 active torsions:
  status: ('A' for Active; 'I' for Inactive)
    1  A    between atoms: N_17  and  N_28
    2  A    between atoms: N_28  and  C_29
    3  A    between atoms: C_29  and  C_32
                            x       y       z     vdW  Elec       q    Type
                         _______ _______ _______ _____ _____    ______ ____

>  <TORSDO>
F 3

$$$$
=
 OpenBabel11122412203D

 34 40  0  0  1  0  0  0  0  0999 V2000
  185.5150  178.4770  144.4100 C   0  0  0  0  0  0  0  0  0  0  0  0
  187.1310  177.7950  146.1410 N   0  0  0  0  0  0  0  0  0  0  0  0
  183.5330  177.6500  138.1760 C   0  0  2  0  0  3  0  0  0  0  0  0
  183.9460  178.6610  142.4470 C   0  0  0  0  0  0  0  0  0  0  0  0
  184.8780  178.4870  140.1560 C   0  0  0  0  0  0  0  0  0  0  0  0
  185.9700  178.4360  137.8660 C   0  0  0  0  0  1  0  0  0  0  0  0
  183.7550  177.0430  136.7970 C   0  0  0  0  0  1  0  0  0  0  0  0
  181.9770  179.0770  139.4130 C   0  0  0  0  0  2  0  0  0  0  0  0
  187.8110  177.8690  143.8950 C   0  0  0  0  0  0  0  0  0  0  0  0
  190.5370  176.8850  142.8660 C   0  0  0  0  0  2  0  0  0  0  0  0
  186.1000  178.4240  140.6090 N   0  0  0  0  0  0  0  0  0  0  0  0
  182.3110  178.2570  140.6500 C   0  0  0  0  0  2  0  0  0  0  0  0
  187.6310  178.0330  142.4350 C   0  0  0  0  0  0  0  0  0  0  0  0
  188.3900  177.4900  146.0550 C   0  0  0  0  0  2  0  0  0  0  0  0
  183.7210  178.5130  141.1210 C   0  0  0  0  0  0  0  0  0  0  0  0
  182.2290  178.3240  138.1820 N   0  0  0  0  0  2  0  0  0  0  0  0
  190.2010  177.2770  144.2290 N   0  0  0  0  0  0  0  0  0  0  0  0
  185.3420  178.9210  142.9650 C   0  0  0  0  0  0  0  0  0  0  0  0
  184.6650  178.5890  138.6530 C   0  0  1  0  0  3  0  0  0  0  0  0
  186.4070  178.4120  142.0050 C   0  0  0  0  0  0  0  0  0  0  0  0
  183.1820  179.3160  144.7620 C   0  0  0  0  0  2  0  0  0  0  0  0
  190.0740  177.9280  141.8710 C   0  0  0  0  0  2  0  0  0  0  0  0
  182.7950  178.6730  143.4290 C   0  0  0  0  0  2  0  0  0  0  0  0
  188.6630  177.5880  141.4400 C   0  0  0  0  0  2  0  0  0  0  0  0
  188.8470  177.5210  144.6530 C   0  0  0  0  0  0  0  0  0  0  0  0
  184.3850  178.6160  145.3900 C   0  0  0  0  0  2  0  0  0  0  0  0
  186.7150  178.0580  144.8070 C   0  0  0  0  0  0  0  0  0  0  0  0
  191.2400  177.3500  145.1680 N   0  0  0  0  0  2  0  0  0  0  0  0
  191.6830  175.9890  145.4440 C   0  0  0  0  0  2  0  0  0  0  0  0
  193.1590  175.8190  148.7270 C   0  0  0  0  0  2  0  0  0  0  0  0
  191.3430  177.0090  147.6940 C   0  0  0  0  0  2  0  0  0  0  0  0
  191.6920  175.7410  146.9420 C   0  0  2  0  0  3  0  0  0  0  0  0
  192.2960  177.0550  148.8620 C   0  0  0  0  0  2  0  0  0  0  0  0
  193.0220  175.3320  147.3640 N   0  0  0  0  0  2  0  0  0  0  0  0
  1 27  1  0  0  0  0
  1 26  1  0  0  0  0
  3  7  1  6  0  0  0
  3 16  1  0  0  0  0
  3 19  1  0  0  0  0
  4 18  1  0  0  0  0
  4 23  1  0  0  0  0
  5 11  2  0  0  0  0
  5 15  1  0  0  0  0
  8 12  1  0  0  0  0
  9 25  2  0  0  0  0
  9 27  1  0  0  0  0
 10 17  1  0  0  0  0
 11 20  1  0  0  0  0
 12 15  1  0  0  0  0
 13  9  1  0  0  0  0
 14  2  1  0  0  0  0
 15  4  2  0  0  0  0
 16  8  1  0  0  0  0
 17 25  1  0  0  0  0
 17 28  1  0  0  0  0
 18  1  2  0  0  0  0
 19  6  1  6  0  0  0
 19  5  1  0  0  0  0
 20 13  2  0  0  0  0
 20 18  1  0  0  0  0
 21 26  1  0  0  0  0
 22 10  1  0  0  0  0
 23 21  1  0  0  0  0
 24 22  1  0  0  0  0
 24 13  1  0  0  0  0
 25 14  1  0  0  0  0
 27  2  2  0  0  0  0
 28 29  1  0  0  0  0
 30 33  1  0  0  0  0
 31 33  1  0  0  0  0
 32 29  1  6  0  0  0
 32 34  1  0  0  0  0
 32 31  1  0  0  0  0
 34 30  1  0  0  0  0
M  END
>  <MODEL>
4

>  <REMARK>
 VINA RESULT:      -9.2      2.296      7.898
  Name = 
  3 active torsions:
  status: ('A' for Active; 'I' for Inactive)
    1  A    between atoms: N_17  and  N_28
    2  A    between atoms: N_28  and  C_29
    3  A    between atoms: C_29  and  C_32
                            x       y       z     vdW  Elec       q    Type
                         _______ _______ _______ _____ _____    ______ ____

>  <TORSDO>
F 3

$$$$
=
 OpenBabel11122412203D

 34 40  0  0  1  0  0  0  0  0999 V2000
  188.4740  177.5960  143.3650 C   0  0  0  0  0  0  0  0  0  0  0  0
  190.6720  176.5600  142.9530 N   0  0  0  0  0  0  0  0  0  0  0  0
  182.3630  178.5090  141.0640 C   0  0  2  0  0  3  0  0  0  0  0  0
  186.0390  178.2310  143.4820 C   0  0  0  0  0  0  0  0  0  0  0  0
  184.8590  178.8220  141.3820 C   0  0  0  0  0  0  0  0  0  0  0  0
  183.8040  179.5430  139.1900 C   0  0  0  0  0  1  0  0  0  0  0  0
  181.3470  178.3610  139.9390 C   0  0  0  0  0  1  0  0  0  0  0  0
  182.5860  179.3750  143.3420 C   0  0  0  0  0  2  0  0  0  0  0  0
  189.4140  177.3530  141.1370 C   0  0  0  0  0  0  0  0  0  0  0  0
  190.1650  176.9400  138.1830 C   0  0  0  0  0  2  0  0  0  0  0  0
  185.9570  178.7250  140.6850 N   0  0  0  0  0  2  0  0  0  0  0  0
  183.5790  178.2530  143.6010 C   0  0  0  0  0  2  0  0  0  0  0  0
  188.2270  177.9300  140.4660 C   0  0  0  0  0  0  0  0  0  0  0  0
  191.3410  176.3950  141.8530 C   0  0  0  0  0  3  0  0  0  0  0  0
  184.8680  178.4680  142.8470 C   0  0  0  0  0  0  0  0  0  0  0  0
  181.6730  179.0460  142.2430 N   0  0  0  0  0  2  0  0  0  0  0  0
  191.0570  176.8800  139.3340 N   0  0  0  0  0  0  0  0  0  0  0  0
  187.3540  178.4350  142.7670 C   0  0  0  0  0  0  0  0  0  0  0  0
  183.6070  179.3500  140.6970 C   0  0  1  0  0  3  0  0  0  0  0  0
  187.2030  178.3220  141.2570 C   0  0  0  0  0  0  0  0  0  0  0  0
  187.4300  178.1040  145.5840 C   0  0  0  0  0  2  0  0  0  0  0  0
  189.3150  178.1920  138.2200 C   0  0  0  0  0  2  0  0  0  0  0  0
  186.0610  177.8590  144.9480 C   0  0  0  0  0  2  0  0  0  0  0  0
  188.0400  177.8850  138.9770 C   0  0  0  0  0  2  0  0  0  0  0  0
  190.5730  176.8790  140.6900 C   0  0  0  0  0  0  0  0  0  0  0  0
  188.5310  177.3460  144.8450 C   0  0  0  0  0  2  0  0  0  0  0  0
  189.4510  177.1740  142.5630 C   0  0  0  0  0  0  0  0  0  0  0  0
  192.4340  176.7520  139.0940 N   0  0  0  0  0  2  0  0  0  0  0  0
  192.6050  176.3480  137.7050 C   0  0  0  0  0  2  0  0  0  0  0  0
  195.4320  174.3990  138.7950 C   0  0  0  0  0  2  0  0  0  0  0  0
  193.6900  174.1720  137.1550 C   0  0  0  0  0  2  0  0  0  0  0  0
  193.9250  175.6190  137.5360 C   0  0  2  0  0  3  0  0  0  0  0  0
  194.6780  173.3780  137.9710 C   0  0  0  0  0  2  0  0  0  0  0  0
  194.6560  175.6280  138.7930 N   0  0  0  0  0  2  0  0  0  0  0  0
  1 26  1  0  0  0  0
  3  7  1  6  0  0  0
  3 16  1  0  0  0  0
  4 23  1  0  0  0  0
  5 15  2  0  0  0  0
  8 12  1  0  0  0  0
  9 27  1  0  0  0  0
 10 22  1  0  0  0  0
 10 17  1  0  0  0  0
 11 20  1  0  0  0  0
 11  5  1  0  0  0  0
 13  9  1  0  0  0  0
 13 20  2  0  0  0  0
 14  2  2  0  0  0  0
 15  4  1  0  0  0  0
 15 12  1  0  0  0  0
 16  8  1  0  0  0  0
 17 25  1  0  0  0  0
 18  1  1  0  0  0  0
 18  4  2  0  0  0  0
 19  6  1  6  0  0  0
 19  3  1  0  0  0  0
 19  5  1  0  0  0  0
 20 18  1  0  0  0  0
 22 24  1  0  0  0  0
 23 21  1  0  0  0  0
 24 13  1  0  0  0  0
 25  9  2  0  0  0  0
 25 14  1  0  0  0  0
 26 21  1  0  0  0  0
 27  2  1  0  0  0  0
 27  1  2  0  0  0  0
 28 17  1  0  0  0  0
 29 28  1  0  0  0  0
 31 32  1  0  0  0  0
 31 33  1  0  0  0  0
 32 29  1  1  0  0  0
 32 34  1  0  0  0  0
 33 30  1  0  0  0  0
 34 30  1  0  0  0  0
M  END
>  <MODEL>
5

>  <REMARK>
 VINA RESULT:      -9.1      2.668      5.913
  Name = 
  3 active torsions:
  status: ('A' for Active; 'I' for Inactive)
    1  A    between atoms: N_17  and  N_28
    2  A    between atoms: N_28  and  C_29
    3  A    between atoms: C_29  and  C_32
                            x       y       z     vdW  Elec       q    Type
                         _______ _______ _______ _____ _____    ______ ____

>  <TORSDO>
F 3

$$$$
=
 OpenBabel11122412203D

 34 40  0  0  1  0  0  0  0  0999 V2000
  186.0520  178.4130  140.4160 C   0  0  0  0  0  0  0  0  0  0  0  0
  184.1190  178.2920  138.8920 N   0  0  0  0  0  0  0  0  0  0  0  0
  188.3400  177.0060  146.4390 C   0  0  2  0  0  3  0  0  0  0  0  0
  187.8050  178.0800  142.1960 C   0  0  0  0  0  0  0  0  0  0  0  0
  187.1290  178.2300  144.5770 C   0  0  0  0  0  0  0  0  0  0  0  0
  186.3430  178.5500  146.9690 C   0  0  0  0  0  1  0  0  0  0  0  0
  188.0880  176.5120  147.8570 C   0  0  0  0  0  1  0  0  0  0  0  0
  190.1270  177.8380  144.9890 C   0  0  0  0  0  2  0  0  0  0  0  0
  183.7570  178.5950  141.1920 C   0  0  0  0  0  0  0  0  0  0  0  0
  180.9910  178.5650  142.5390 C   0  0  0  0  0  2  0  0  0  0  0  0
  185.9110  178.5700  144.2570 N   0  0  0  0  0  0  0  0  0  0  0  0
  189.4090  177.1680  143.8280 C   0  0  0  0  0  2  0  0  0  0  0  0
  184.1420  178.6970  142.6170 C   0  0  0  0  0  0  0  0  0  0  0  0
  182.8480  178.4190  139.1210 C   0  0  0  0  0  3  0  0  0  0  0  0
  188.1150  177.8720  143.4960 C   0  0  0  0  0  0  0  0  0  0  0  0
  189.7830  177.2150  146.2700 N   0  0  0  0  0  2  0  0  0  0  0  0
  181.2830  178.8190  141.1330 N   0  0  0  0  0  0  0  0  0  0  0  0
  186.5210  178.7810  141.8170 C   0  0  2  0  0  3  0  0  0  0  0  0
  187.5300  178.2620  146.0440 C   0  0  1  0  0  3  0  0  0  0  0  0
  185.4620  178.6540  142.9020 C   0  0  0  0  0  0  0  0  0  0  0  0
  188.4770  178.4380  139.7900 C   0  0  0  0  0  2  0  0  0  0  0  0
  181.8770  179.4020  143.4360 C   0  0  0  0  0  2  0  0  0  0  0  0
  188.7790  177.7090  141.1000 C   0  0  0  0  0  2  0  0  0  0  0  0
  183.1390  178.6190  143.7320 C   0  0  0  0  0  2  0  0  0  0  0  0
  182.5850  178.6030  140.5610 C   0  0  0  0  0  0  0  0  0  0  0  0
  187.0490  178.1690  139.3190 C   0  0  0  0  0  2  0  0  0  0  0  0
  184.7450  178.4100  140.1640 C   0  0  0  0  0  0  0  0  0  0  0  0
  180.2250  179.2250  140.3050 N   0  0  0  0  0  2  0  0  0  0  0  0
  180.1720  180.6810  140.3380 C   0  0  0  0  0  2  0  0  0  0  0  0
  179.5890  183.2270  137.8560 C   0  0  0  0  0  2  0  0  0  0  0  0
  181.3630  181.6980  138.3980 C   0  0  0  0  0  2  0  0  0  0  0  0
  180.0250  181.2260  138.9290 C   0  0  2  0  0  3  0  0  0  0  0  0
  181.0750  182.9990  137.6920 C   0  0  0  0  0  2  0  0  0  0  0  0
  179.1270  182.3700  138.9370 N   0  0  0  0  0  2  0  0  0  0  0  0
  2 14  2  0  0  0  0
  2 27  1  0  0  0  0
  3  7  1  1  0  0  0
  4 15  2  0  0  0  0
  5 19  1  0  0  0  0
  8 16  1  0  0  0  0
  9 13  1  0  0  0  0
 10 22  1  0  0  0  0
 11  5  2  0  0  0  0
 12  8  1  0  0  0  0
 13 20  2  0  0  0  0
 13 24  1  0  0  0  0
 14 25  1  0  0  0  0
 15 12  1  0  0  0  0
 15  5  1  0  0  0  0
 16  3  1  0  0  0  0
 17 10  1  0  0  0  0
 18  1  1  6  0  0  0
 18  4  1  0  0  0  0
 18 20  1  0  0  0  0
 19  3  1  0  0  0  0
 19  6  1  1  0  0  0
 20 11  1  0  0  0  0
 21 23  1  0  0  0  0
 22 24  1  0  0  0  0
 23  4  1  0  0  0  0
 25 17  1  0  0  0  0
 25  9  2  0  0  0  0
 26 21  1  0  0  0  0
 26  1  1  0  0  0  0
 27  1  2  0  0  0  0
 27  9  1  0  0  0  0
 28 29  1  0  0  0  0
 28 17  1  0  0  0  0
 30 34  1  0  0  0  0
 31 32  1  0  0  0  0
 32 34  1  0  0  0  0
 32 29  1  1  0  0  0
 33 30  1  0  0  0  0
 33 31  1  0  0  0  0
M  END
>  <MODEL>
6

>  <REMARK>
 VINA RESULT:      -8.7      3.525      6.276
  Name = 
  3 active torsions:
  status: ('A' for Active; 'I' for Inactive)
    1  A    between atoms: N_17  and  N_28
    2  A    between atoms: N_28  and  C_29
    3  A    between atoms: C_29  and  C_32
                            x       y       z     vdW  Elec       q    Type
                         _______ _______ _______ _____ _____    ______ ____

>  <TORSDO>
F 3

$$$$
=
 OpenBabel11122412203D

 34 40  0  0  1  0  0  0  0  0999 V2000
  186.6480  178.3770  140.7220 C   0  0  0  0  0  0  0  0  0  0  0  0
  184.3970  178.4200  139.7190 N   0  0  0  0  0  0  0  0  0  0  0  0
  190.2610  176.5560  145.9290 C   0  0  2  0  0  3  0  0  0  0  0  0
  188.7620  177.8760  141.9990 C   0  0  0  0  0  0  0  0  0  0  0  0
  188.6980  177.9280  144.4770 C   0  0  0  0  0  0  0  0  0  0  0  0
  188.5400  178.1520  147.0000 C   0  0  0  0  0  1  0  0  0  0  0  0
  190.3370  175.9980  147.3440 C   0  0  0  0  0  1  0  0  0  0  0  0
  191.6810  177.3890  144.1190 C   0  0  0  0  0  2  0  0  0  0  0  0
  184.6250  178.6140  142.0480 C   0  0  0  0  0  0  0  0  0  0  0  0
  182.2760  178.6280  144.0330 C   0  0  0  0  0  2  0  0  0  0  0  0
  187.4590  178.3350  144.4820 N   0  0  0  0  0  0  0  0  0  0  0  0
  190.6650  176.8130  143.1440 C   0  0  0  0  0  2  0  0  0  0  0  0
  185.3520  178.6230  143.3360 C   0  0  0  0  0  0  0  0  0  0  0  0
  183.2290  178.5870  140.2600 C   0  0  0  0  0  3  0  0  0  0  0  0
  189.3700  177.5860  143.1720 C   0  0  0  0  0  0  0  0  0  0  0  0
  191.6280  176.7130  145.4180 N   0  0  0  0  0  2  0  0  0  0  0  0
  182.2280  178.9440  142.6110 N   0  0  0  0  0  0  0  0  0  0  0  0
  187.4640  178.6510  141.9770 C   0  0  2  0  0  3  0  0  0  0  0  0
  189.4480  177.8650  145.7990 C   0  0  1  0  0  3  0  0  0  0  0  0
  186.6980  178.5100  143.2840 C   0  0  0  0  0  0  0  0  0  0  0  0
  188.8430  178.3340  139.5170 C   0  0  0  0  0  2  0  0  0  0  0  0
  183.3980  179.3780  144.7180 C   0  0  0  0  0  2  0  0  0  0  0  0
  189.4170  177.5240  140.6810 C   0  0  0  0  0  2  0  0  0  0  0  0
  184.6500  178.5280  144.6600 C   0  0  0  0  0  2  0  0  0  0  0  0
  183.3370  178.7050  141.7270 C   0  0  0  0  0  0  0  0  0  0  0  0
  187.3310  178.1510  139.4040 C   0  0  0  0  0  2  0  0  0  0  0  0
  185.3200  178.4430  140.8000 C   0  0  0  0  0  0  0  0  0  0  0  0
  181.0240  179.4380  142.0880 N   0  0  0  0  0  2  0  0  0  0  0  0
  179.9830  178.4590  142.3720 C   0  0  0  0  0  2  0  0  0  0  0  0
  179.6610  178.1810  138.7930 C   0  0  0  0  0  2  0  0  0  0  0  0
  179.9540  176.6670  140.6380 C   0  0  0  0  0  2  0  0  0  0  0  0
  179.3500  177.9850  141.0760 C   0  0  2  0  0  3  0  0  0  0  0  0
  180.1500  176.7930  139.1480 C   0  0  0  0  0  2  0  0  0  0  0  0
  179.6010  178.9560  140.0230 N   0  0  0  0  0  2  0  0  0  0  0  0
  1 27  2  0  0  0  0
  2 14  2  0  0  0  0
  2 27  1  0  0  0  0
  3  7  1  1  0  0  0
  4 15  2  0  0  0  0
  5 11  2  0  0  0  0
  5 19  1  0  0  0  0
  8 16  1  0  0  0  0
  9 13  1  0  0  0  0
 10 22  1  0  0  0  0
 12 15  1  0  0  0  0
 12  8  1  0  0  0  0
 13 24  1  0  0  0  0
 14 25  1  0  0  0  0
 15  5  1  0  0  0  0
 16  3  1  0  0  0  0
 17 10  1  0  0  0  0
 18  1  1  6  0  0  0
 18  4  1  0  0  0  0
 18 20  1  0  0  0  0
 19  3  1  0  0  0  0
 19  6  1  1  0  0  0
 20 13  2  0  0  0  0
 20 11  1  0  0  0  0
 21 23  1  0  0  0  0
 23  4  1  0  0  0  0
 24 22  1  0  0  0  0
 25  9  2  0  0  0  0
 25 17  1  0  0  0  0
 26 21  1  0  0  0  0
 26  1  1  0  0  0  0
 27  9  1  0  0  0  0
 28 29  1  0  0  0  0
 28 17  1  0  0  0  0
 30 33  1  0  0  0  0
 30 34  1  0  0  0  0
 31 32  1  0  0  0  0
 32 29  1  1  0  0  0
 33 31  1  0  0  0  0
 34 32  1  0  0  0  0
M  END
>  <MODEL>
7

>  <REMARK>
 VINA RESULT:      -8.6      2.967      6.000
  Name = 
  3 active torsions:
  status: ('A' for Active; 'I' for Inactive)
    1  A    between atoms: N_17  and  N_28
    2  A    between atoms: N_28  and  C_29
    3  A    between atoms: C_29  and  C_32
                            x       y       z     vdW  Elec       q    Type
                         _______ _______ _______ _____ _____    ______ ____

>  <TORSDO>
F 3

$$$$
=
 OpenBabel11122412203D

 34 40  0  0  1  0  0  0  0  0999 V2000
  186.3820  178.3210  143.7520 C   0  0  0  0  0  0  0  0  0  0  0  0
  188.6720  177.4140  143.6710 N   0  0  0  0  0  0  0  0  0  0  0  0
  180.4810  178.4950  140.8150 C   0  0  2  0  0  3  0  0  0  0  0  0
  183.9110  178.7800  143.5700 C   0  0  0  0  0  0  0  0  0  0  0  0
  182.9090  179.0320  141.3160 C   0  0  0  0  0  0  0  0  0  0  0  0
  182.0300  179.4120  138.9660 C   0  0  0  0  0  1  0  0  0  0  0  0
  179.5940  178.1410  139.6300 C   0  0  0  0  0  1  0  0  0  0  0  0
  180.4220  179.6330  142.9800 C   0  0  0  0  0  2  0  0  0  0  0  0
  187.5500  177.8950  141.6650 C   0  0  0  0  0  0  0  0  0  0  0  0
  188.6150  177.2000  138.8640 C   0  0  0  0  0  2  0  0  0  0  0  0
  184.0740  178.9380  140.7380 N   0  0  0  0  0  0  0  0  0  0  0  0
  181.4550  178.6280  143.4640 C   0  0  0  0  0  2  0  0  0  0  0  0
  186.4010  178.2980  140.8240 C   0  0  0  0  0  0  0  0  0  0  0  0
  189.4560  177.1750  142.6640 C   0  0  0  0  0  3  0  0  0  0  0  0
  182.7960  178.8510  142.8080 C   0  0  0  0  0  0  0  0  0  0  0  0
  179.6460  179.1110  141.8530 N   0  0  0  0  0  2  0  0  0  0  0  0
  189.3910  177.3420  140.0890 N   0  0  0  0  0  0  0  0  0  0  0  0
  185.2750  178.9980  142.9570 C   0  0  0  0  0  0  0  0  0  0  0  0
  181.6990  179.3800  140.4620 C   0  0  1  0  0  3  0  0  0  0  0  0
  185.2810  178.6990  141.4650 C   0  0  0  0  0  0  0  0  0  0  0  0
  185.0940  179.0030  145.7890 C   0  0  0  0  0  2  0  0  0  0  0  0
  187.6860  178.3790  138.6700 C   0  0  0  0  0  2  0  0  0  0  0  0
  183.8130  178.5820  145.0670 C   0  0  0  0  0  2  0  0  0  0  0  0
  186.3650  178.0660  139.3410 C   0  0  0  0  0  2  0  0  0  0  0  0
  188.7770  177.4600  141.3850 C   0  0  0  0  0  0  0  0  0  0  0  0
  186.3090  178.2500  145.2510 C   0  0  0  0  0  2  0  0  0  0  0  0
  187.4580  177.8850  143.1000 C   0  0  2  0  0  3  0  0  0  0  0  0
  190.7900  177.2920  139.9920 N   0  0  0  0  0  2  0  0  0  0  0  0
  191.1290  177.1280  138.5850 C   0  0  0  0  0  2  0  0  0  0  0  0
  192.4610  174.0940  137.1690 C   0  0  0  0  0  2  0  0  0  0  0  0
  193.1800  176.3780  137.3820 C   0  0  0  0  0  2  0  0  0  0  0  0
  192.1430  176.0100  138.4230 C   0  0  2  0  0  3  0  0  0  0  0  0
  193.3920  175.1250  136.5700 C   0  0  0  0  0  2  0  0  0  0  0  0
  191.4740  174.8020  137.9680 N   0  0  0  0  0  2  0  0  0  0  0  0
  1 26  1  0  0  0  0
  3  7  1  6  0  0  0
  3 16  1  0  0  0  0
  4 23  1  0  0  0  0
  5 15  1  0  0  0  0
  8 12  1  0  0  0  0
 10 17  1  0  0  0  0
 11  5  2  0  0  0  0
 11 20  1  0  0  0  0
 13 20  2  0  0  0  0
 13  9  1  0  0  0  0
 14  2  2  0  0  0  0
 15 12  1  0  0  0  0
 15  4  2  0  0  0  0
 16  8  1  0  0  0  0
 17 25  1  0  0  0  0
 18  4  1  0  0  0  0
 18  1  2  0  0  0  0
 19  6  1  6  0  0  0
 19  3  1  0  0  0  0
 19  5  1  0  0  0  0
 20 18  1  0  0  0  0
 22 10  1  0  0  0  0
 22 24  1  0  0  0  0
 23 21  1  0  0  0  0
 24 13  1  0  0  0  0
 25  9  2  0  0  0  0
 25 14  1  0  0  0  0
 26 21  1  0  0  0  0
 27  9  1  6  0  0  0
 27  2  1  0  0  0  0
 27  1  1  0  0  0  0
 28 17  1  0  0  0  0
 29 28  1  0  0  0  0
 30 34  1  0  0  0  0
 31 32  1  0  0  0  0
 32 29  1  6  0  0  0
 33 30  1  0  0  0  0
 33 31  1  0  0  0  0
 34 32  1  0  0  0  0
M  END
>  <MODEL>
8

>  <REMARK>
 VINA RESULT:      -8.4      2.649      6.104
  Name = 
  3 active torsions:
  status: ('A' for Active; 'I' for Inactive)
    1  A    between atoms: N_17  and  N_28
    2  A    between atoms: N_28  and  C_29
    3  A    between atoms: C_29  and  C_32
                            x       y       z     vdW  Elec       q    Type
                         _______ _______ _______ _____ _____    ______ ____

>  <TORSDO>
F 3

$$$$
=
 OpenBabel11122412203D

 34 40  0  0  1  0  0  0  0  0999 V2000
  189.4210  177.5280  141.2480 C   0  0  0  0  0  0  0  0  0  0  0  0
  191.2260  176.4620  139.9530 N   0  0  0  0  0  0  0  0  0  0  0  0
  182.9190  178.4970  141.7580 C   0  0  2  0  0  3  0  0  0  0  0  0
  187.2730  178.1940  142.3830 C   0  0  0  0  0  0  0  0  0  0  0  0
  185.3160  178.7820  140.9790 C   0  0  0  0  0  0  0  0  0  0  0  0
  183.4320  179.4990  139.4360 C   0  0  0  0  0  1  0  0  0  0  0  0
  181.5200  178.3520  141.1740 C   0  0  0  0  0  1  0  0  0  0  0  0
  184.0970  179.3780  143.7130 C   0  0  0  0  0  2  0  0  0  0  0  0
  189.3200  177.2560  138.8360 C   0  0  0  0  0  0  0  0  0  0  0  0
  188.7390  176.8110  135.8480 C   0  0  0  0  0  2  0  0  0  0  0  0
  186.0110  178.6660  139.8820 N   0  0  0  0  0  2  0  0  0  0  0  0
  185.0980  178.2460  143.5390 C   0  0  0  0  0  2  0  0  0  0  0  0
  187.9660  177.8420  138.7270 C   0  0  0  0  0  0  0  0  0  0  0  0
  191.3620  176.2810  138.6740 C   0  0  0  0  0  3  0  0  0  0  0  0
  185.9450  178.4400  142.3050 C   0  0  0  0  0  0  0  0  0  0  0  0
  182.8020  179.0510  143.1120 N   0  0  0  0  0  2  0  0  0  0  0  0
  190.0360  176.7490  136.5110 N   0  0  0  0  0  0  0  0  0  0  0  0
  188.1600  178.3760  141.1740 C   0  0  0  0  0  0  0  0  0  0  0  0
  183.8950  179.3200  140.8860 C   0  0  1  0  0  3  0  0  0  0  0  0
  187.3790  178.2520  139.8730 C   0  0  0  0  0  0  0  0  0  0  0  0
  189.4260  178.0660  143.6940 C   0  0  0  0  0  2  0  0  0  0  0  0
  187.9950  178.0730  136.2280 C   0  0  0  0  0  2  0  0  0  0  0  0
  187.9150  177.8330  143.7050 C   0  0  0  0  0  2  0  0  0  0  0  0
  187.1620  177.7870  137.4600 C   0  0  0  0  0  2  0  0  0  0  0  0
  190.1750  176.7640  137.9430 C   0  0  0  0  0  0  0  0  0  0  0  0
  190.1020  177.2890  142.5660 C   0  0  0  0  0  2  0  0  0  0  0  0
  189.9600  177.0880  140.1130 C   0  0  0  0  0  0  0  0  0  0  0  0
  191.1780  176.6030  135.7090 N   0  0  0  0  0  2  0  0  0  0  0  0
  191.2250  175.2190  135.2560 C   0  0  0  0  0  2  0  0  0  0  0  0
  194.5380  175.0560  136.6630 C   0  0  0  0  0  2  0  0  0  0  0  0
  192.6590  173.5710  136.4590 C   0  0  0  0  0  2  0  0  0  0  0  0
  192.6310  174.6690  135.4150 C   0  0  2  0  0  3  0  0  0  0  0  0
  193.9070  173.8210  137.2680 C   0  0  0  0  0  2  0  0  0  0  0  0
  193.5240  175.7250  135.8650 N   0  0  0  0  0  2  0  0  0  0  0  0
  1 26  1  0  0  0  0
  2 27  1  0  0  0  0
  3  7  1  6  0  0  0
  3 16  1  0  0  0  0
  4 23  1  0  0  0  0
  5 15  2  0  0  0  0
  9 27  1  0  0  0  0
 10 22  1  0  0  0  0
 10 17  1  0  0  0  0
 11  5  1  0  0  0  0
 12  8  1  0  0  0  0
 13  9  1  0  0  0  0
 13 20  2  0  0  0  0
 14  2  2  0  0  0  0
 15  4  1  0  0  0  0
 15 12  1  0  0  0  0
 16  8  1  0  0  0  0
 17 25  1  0  0  0  0
 18  1  1  0  0  0  0
 18  4  2  0  0  0  0
 19  6  1  6  0  0  0
 19  5  1  0  0  0  0
 19  3  1  0  0  0  0
 20 11  1  0  0  0  0
 20 18  1  0  0  0  0
 21 23  1  0  0  0  0
 22 24  1  0  0  0  0
 24 13  1  0  0  0  0
 25 14  1  0  0  0  0
 25  9  2  0  0  0  0
 26 21  1  0  0  0  0
 27  1  2  0  0  0  0
 28 17  1  0  0  0  0
 29 28  1  0  0  0  0
 30 33  1  0  0  0  0
 31 33  1  0  0  0  0
 32 29  1  1  0  0  0
 32 34  1  0  0  0  0
 32 31  1  0  0  0  0
 34 30  1  0  0  0  0
M  END
>  <MODEL>
9

>  <REMARK>
 VINA RESULT:      -8.3      2.741      5.791
  Name = 
  3 active torsions:
  status: ('A' for Active; 'I' for Inactive)
    1  A    between atoms: N_17  and  N_28
    2  A    between atoms: N_28  and  C_29
    3  A    between atoms: C_29  and  C_32
                            x       y       z     vdW  Elec       q    Type
                         _______ _______ _______ _____ _____    ______ ____

>  <TORSDO>
F 3

$$$$
