=
 OpenBabel11122411453D

 37 42  0  0  1  0  0  0  0  0999 V2000
  190.2070  178.6720  143.7920 C   0  0  0  0  0  0  0  0  0  0  0  0
  186.6020  177.6850  144.0680 C   0  0  1  0  0  3  0  0  0  0  0  0
  184.5710  177.7130  141.3610 O   0  0  0  0  0  0  0  0  0  0  0  0
  189.0080  177.0810  144.9280 C   0  0  2  0  0  3  0  0  0  0  0  0
  186.3560  178.5100  142.7950 C   0  0  2  0  0  3  0  0  0  0  0  0
  187.9760  177.0280  143.8130 C   0  0  2  0  0  3  0  0  0  0  0  0
  184.8890  178.6620  142.3470 C   0  0  2  0  0  3  0  0  0  0  0  0
  188.3720  176.6590  146.2300 C   0  0  0  0  0  2  0  0  0  0  0  0
  188.5530  177.6320  142.5380 C   0  0  2  0  0  3  0  0  0  0  0  0
  191.1290  177.7060  143.3990 F   0  0  0  0  0  0  0  0  0  0  0  0
  185.0580  178.9250  145.6610 C   0  0  0  0  0  2  0  0  0  0  0  0
  187.2190  177.9130  146.8750 S   0  0  0  0  0  0  0  0  0  0  0  0
  189.2080  178.8600  142.8080 O   0  0  0  0  0  0  0  0  0  0  0  0
  185.1490  178.9700  139.5800 C   0  0  0  0  0  2  0  0  0  0  0  0
  184.0860  178.3930  140.3260 O   0  0  0  0  0  0  0  0  0  0  0  0
  186.5110  178.5940  145.3180 C   0  0  1  0  0  3  0  0  0  0  0  0
  187.2830  177.8980  141.7440 C   0  0  2  0  0  3  0  0  0  0  0  0
  189.6160  178.3470  145.0350 O   0  0  0  0  0  0  0  0  0  0  0  0
  183.8660  178.6930  143.4930 C   0  0  1  0  0  3  0  0  0  0  0  0
  190.8900  179.8630  143.9430 F   0  0  0  0  0  0  0  0  0  0  0  0
  186.4460  178.1610  139.5740 C   0  0  0  0  0  2  0  0  0  0  0  0
  187.4010  178.7240  140.5280 N   0  0  0  0  0  0  0  0  0  0  0  0
  184.3100  179.6710  144.5710 C   0  0  0  0  0  2  0  0  0  0  0  0
  181.3940  178.6650  144.0840 C   0  0  0  0  0  2  0  0  0  0  0  0
  182.4490  179.0530  143.0370 C   0  0  2  0  0  3  0  0  0  0  0  0
  182.1290  178.5870  141.5950 C   0  0  0  0  0  2  0  0  0  0  0  0
  180.3740  177.8880  140.1280 F   0  0  0  0  0  0  0  0  0  0  0  0
  179.7180  178.5710  142.2960 C   0  0  0  0  0  3  0  0  0  0  0  0
  180.7640  177.8970  141.4530 C   0  0  2  0  0  3  0  0  0  0  0  0
  180.0170  178.9330  143.5480 C   0  0  0  0  0  3  0  0  0  0  0  0
  188.7120  178.5510  139.8930 C   0  0  0  0  0  2  0  0  0  0  0  0
  188.6410  177.6150  138.6800 C   0  0  1  0  0  3  0  0  0  0  0  0
  188.9220  179.7170  137.5810 O   0  0  0  0  0  1  0  0  0  0  0  0
  188.9600  178.3370  137.3800 C   0  0  0  0  0  2  0  0  0  0  0  0
  189.5580  176.4110  138.8400 C   0  0  0  0  0  2  0  0  0  0  0  0
  190.7950  176.7790  139.6400 C   0  0  0  0  0  2  0  0  0  0  0  0
  191.9140  176.7950  138.8080 O   0  0  0  0  0  1  0  0  0  0  0  0
  1 20  1  0  0  0  0
  1 18  1  0  0  0  0
  2 16  1  0  0  0  0
  3  7  1  0  0  0  0
  4 18  1  0  0  0  0
  4  8  1  0  0  0  0
  5  2  1  0  0  0  0
  6  2  1  0  0  0  0
  6  4  1  0  0  0  0
  7  5  1  0  0  0  0
  7 19  1  0  0  0  0
  8 12  1  0  0  0  0
  9 13  1  0  0  0  0
  9  6  1  0  0  0  0
 10  1  1  0  0  0  0
 13  1  1  0  0  0  0
 14 15  1  0  0  0  0
 15  3  1  0  0  0  0
 16 11  1  0  0  0  0
 16 12  1  0  0  0  0
 17  9  1  0  0  0  0
 17  5  1  0  0  0  0
 19 23  1  0  0  0  0
 21 14  1  0  0  0  0
 21 22  1  0  0  0  0
 22 17  1  0  0  0  0
 23 11  1  0  0  0  0
 25 19  1  0  0  0  0
 25 24  1  0  0  0  0
 26 25  1  0  0  0  0
 27 29  1  0  0  0  0
 28 30  2  0  0  0  0
 29 26  1  0  0  0  0
 29 28  1  0  0  0  0
 30 24  1  0  0  0  0
 31 22  1  0  0  0  0
 32 35  1  0  0  0  0
 32 31  1  0  0  0  0
 34 33  1  0  0  0  0
 34 32  1  0  0  0  0
 35 36  1  0  0  0  0
 37 36  1  0  0  0  0
M  END
>  <MODEL>
1

>  <REMARK>
 VINA RESULT:      -9.3      0.000      0.000
  Name = 
  6 active torsions:
  status: ('A' for Active; 'I' for Inactive)
    1  A    between atoms: C_1  and  C_4
    2  A    between atoms: C_1  and  N_27
    3  A    between atoms: C_4  and  C_12
    4  A    between atoms: C_4  and  C_37
    5  A    between atoms: C_8  and  C_12
    6  A    between atoms: C_23  and  C_30
                            x       y       z     vdW  Elec       q    Type
                         _______ _______ _______ _____ _____    ______ ____

>  <TORSDO>
F 6

$$$$
=
 OpenBabel11122411453D

 37 42  0  0  1  0  0  0  0  0999 V2000
  183.2900  177.8870  140.8070 C   0  0  0  0  0  0  0  0  0  0  0  0
  186.0900  178.8200  143.1190 C   0  0  1  0  0  3  0  0  0  0  0  0
  189.3060  178.7930  142.0670 O   0  0  0  0  0  0  0  0  0  0  0  0
  183.6290  179.4490  142.4520 C   0  0  2  0  0  3  0  0  0  0  0  0
  187.0180  178.0060  142.2030 C   0  0  2  0  0  3  0  0  0  0  0  0
  185.1140  179.5000  142.1320 C   0  0  2  0  0  3  0  0  0  0  0  0
  188.4750  177.8380  142.6750 C   0  0  2  0  0  3  0  0  0  0  0  0
  183.4050  179.8480  143.8900 C   0  0  0  0  0  2  0  0  0  0  0  0
  185.3700  178.9170  140.7460 C   0  0  2  0  0  3  0  0  0  0  0  0
  182.7670  178.8700  139.9730 F   0  0  0  0  0  0  0  0  0  0  0  0
  186.4330  177.5410  145.2880 C   0  0  0  0  0  2  0  0  0  0  0  0
  183.9720  178.5710  145.0590 S   0  0  0  0  0  0  0  0  0  0  0  0
  184.6720  177.6960  140.5710 O   0  0  0  0  0  0  0  0  0  0  0  0
  189.8480  177.5630  140.2550 C   0  0  0  0  0  2  0  0  0  0  0  0
  190.2930  178.1170  141.4860 O   0  0  0  0  0  0  0  0  0  0  0  0
  185.4420  177.8970  144.1780 C   0  0  1  0  0  3  0  0  0  0  0  0
  186.8650  178.6420  140.8210 C   0  0  2  0  0  3  0  0  0  0  0  0
  183.0630  178.1910  142.1690 O   0  0  0  0  0  0  0  0  0  0  0  0
  188.6550  177.7810  144.2010 C   0  0  1  0  0  3  0  0  0  0  0  0
  182.6380  176.7040  140.5200 F   0  0  0  0  0  0  0  0  0  0  0  0
  188.7940  178.3910  139.5200 C   0  0  0  0  0  2  0  0  0  0  0  0
  187.4610  177.8310  139.7440 N   0  0  0  0  0  0  0  0  0  0  0  0
  187.6670  176.7970  144.8120 C   0  0  0  0  0  2  0  0  0  0  0  0
  190.4980  176.0360  144.0880 C   0  0  0  0  0  2  0  0  0  0  0  0
  190.0750  177.4060  144.6350 C   0  0  2  0  0  3  0  0  0  0  0  0
  190.3270  177.6030  146.1510 C   0  0  0  0  0  2  0  0  0  0  0  0
  191.5940  176.8190  148.0220 F   0  0  0  0  0  0  0  0  0  0  0  0
  192.1090  175.8480  145.9280 C   0  0  0  0  0  3  0  0  0  0  0  0
  191.0430  176.4210  146.8190 C   0  0  2  0  0  3  0  0  0  0  0  0
  191.8490  175.6620  144.6290 C   0  0  0  0  0  3  0  0  0  0  0  0
  186.7530  178.0290  138.4750 C   0  0  0  0  0  2  0  0  0  0  0  0
  187.3410  177.1640  137.3510 C   0  0  1  0  0  3  0  0  0  0  0  0
  187.1130  174.7920  137.1890 O   0  0  0  0  0  1  0  0  0  0  0  0
  186.4350  175.9960  136.9960 C   0  0  0  0  0  2  0  0  0  0  0  0
  187.6400  177.9840  136.1050 C   0  0  0  0  0  2  0  0  0  0  0  0
  188.9310  177.5210  135.4520 C   0  0  0  0  0  2  0  0  0  0  0  0
  189.8210  177.0670  136.4250 O   0  0  0  0  0  1  0  0  0  0  0  0
  1 18  1  0  0  0  0
  2 16  1  0  0  0  0
  3  7  1  0  0  0  0
  4  8  1  0  0  0  0
  5  7  1  0  0  0  0
  5  2  1  0  0  0  0
  6  4  1  0  0  0  0
  6  2  1  0  0  0  0
  7 19  1  0  0  0  0
  8 12  1  0  0  0  0
  9 17  1  0  0  0  0
  9  6  1  0  0  0  0
 10  1  1  0  0  0  0
 13  9  1  0  0  0  0
 13  1  1  0  0  0  0
 14 15  1  0  0  0  0
 15  3  1  0  0  0  0
 16 12  1  0  0  0  0
 16 11  1  0  0  0  0
 17  5  1  0  0  0  0
 18  4  1  0  0  0  0
 19 25  1  0  0  0  0
 19 23  1  0  0  0  0
 20  1  1  0  0  0  0
 21 22  1  0  0  0  0
 21 14  1  0  0  0  0
 22 17  1  0  0  0  0
 23 11  1  0  0  0  0
 24 30  1  0  0  0  0
 24 25  1  0  0  0  0
 25 26  1  0  0  0  0
 26 29  1  0  0  0  0
 28 29  1  0  0  0  0
 29 27  1  0  0  0  0
 30 28  2  0  0  0  0
 31 22  1  0  0  0  0
 32 31  1  0  0  0  0
 34 33  1  0  0  0  0
 34 32  1  0  0  0  0
 35 32  1  0  0  0  0
 36 35  1  0  0  0  0
 36 37  1  0  0  0  0
M  END
>  <MODEL>
2

>  <REMARK>
 VINA RESULT:      -9.1      2.185      6.554
  Name = 
  6 active torsions:
  status: ('A' for Active; 'I' for Inactive)
    1  A    between atoms: C_1  and  C_4
    2  A    between atoms: C_1  and  N_27
    3  A    between atoms: C_4  and  C_12
    4  A    between atoms: C_4  and  C_37
    5  A    between atoms: C_8  and  C_12
    6  A    between atoms: C_23  and  C_30
                            x       y       z     vdW  Elec       q    Type
                         _______ _______ _______ _____ _____    ______ ____

>  <TORSDO>
F 6

$$$$
=
 OpenBabel11122411453D

 37 42  0  0  1  0  0  0  0  0999 V2000
  190.2500  176.1390  137.7580 C   0  0  0  0  0  0  0  0  0  0  0  0
  187.0880  178.0980  137.2990 C   0  0  1  0  0  3  0  0  0  0  0  0
  185.4960  179.4910  139.9410 O   0  0  0  0  0  0  0  0  0  0  0  0
  189.4370  177.6340  136.2210 C   0  0  2  0  0  3  0  0  0  0  0  0
  186.7730  177.7940  138.7720 C   0  0  2  0  0  3  0  0  0  0  0  0
  188.6150  178.3280  137.2950 C   0  0  2  0  0  3  0  0  0  0  0  0
  185.3960  178.2500  139.2900 C   0  0  2  0  0  3  0  0  0  0  0  0
  188.7930  177.8450  134.8730 C   0  0  0  0  0  2  0  0  0  0  0  0
  189.1460  177.9630  138.6770 C   0  0  2  0  0  3  0  0  0  0  0  0
  191.4560  176.8320  137.8030 F   0  0  0  0  0  0  0  0  0  0  0  0
  185.0600  177.0110  136.2170 C   0  0  0  0  0  2  0  0  0  0  0  0
  187.2510  176.8930  134.6850 S   0  0  0  0  0  0  0  0  0  0  0  0
  189.3730  176.5680  138.7820 O   0  0  0  0  0  0  0  0  0  0  0  0
  185.9010  178.6800  142.0060 C   0  0  0  0  0  2  0  0  0  0  0  0
  184.9680  179.3260  141.1500 O   0  0  0  0  0  0  0  0  0  0  0  0
  186.5780  176.9470  136.3970 C   0  0  1  0  0  3  0  0  0  0  0  0
  187.9640  178.3530  139.5520 C   0  0  2  0  0  3  0  0  0  0  0  0
  189.6290  176.2660  136.4940 O   0  0  0  0  0  0  0  0  0  0  0  0
  184.2720  178.2200  138.2420 C   0  0  1  0  0  3  0  0  0  0  0  0
  190.5290  174.8020  137.9640 F   0  0  0  0  0  0  0  0  0  0  0  0
  187.3680  179.0010  141.7210 C   0  0  0  0  0  2  0  0  0  0  0  0
  187.9880  177.9160  140.9600 N   0  0  0  0  0  0  0  0  0  0  0  0
  184.2700  176.8860  137.5090 C   0  0  0  0  0  2  0  0  0  0  0  0
  182.4420  177.3470  139.7730 C   0  0  0  0  0  2  0  0  0  0  0  0
  182.8810  178.4750  138.8290 C   0  0  2  0  0  3  0  0  0  0  0  0
  181.8270  178.8740  137.7660 C   0  0  0  0  0  2  0  0  0  0  0  0
  179.4990  178.8080  137.2250 F   0  0  0  0  0  0  0  0  0  0  0  0
  180.1060  177.9600  139.3480 C   0  0  0  0  0  3  0  0  0  0  0  0
  180.4920  178.1300  137.9060 C   0  0  2  0  0  3  0  0  0  0  0  0
  181.0330  177.5840  140.2350 C   0  0  0  0  0  3  0  0  0  0  0  0
  189.3600  177.8370  141.4700 C   0  0  0  0  0  2  0  0  0  0  0  0
  189.3970  177.4830  142.9630 C   0  0  1  0  0  3  0  0  0  0  0  0
  190.2160  175.2420  142.8500 O   0  0  0  0  0  1  0  0  0  0  0  0
  189.1090  176.0110  143.2090 C   0  0  0  0  0  2  0  0  0  0  0  0
  190.7250  177.8640  143.6010 C   0  0  0  0  0  2  0  0  0  0  0  0
  190.6110  177.8760  145.1150 C   0  0  0  0  0  2  0  0  0  0  0  0
  191.6690  177.1640  145.6800 O   0  0  0  0  0  1  0  0  0  0  0  0
  1 10  1  0  0  0  0
  1 20  1  0  0  0  0
  1 13  1  0  0  0  0
  2  5  1  0  0  0  0
  3 15  1  0  0  0  0
  4 18  1  0  0  0  0
  4  6  1  0  0  0  0
  5  7  1  0  0  0  0
  5 17  1  0  0  0  0
  6  2  1  0  0  0  0
  6  9  1  0  0  0  0
  7  3  1  0  0  0  0
  8  4  1  0  0  0  0
  9 13  1  0  0  0  0
  9 17  1  0  0  0  0
 11 16  1  0  0  0  0
 11 23  1  0  0  0  0
 12  8  1  0  0  0  0
 12 16  1  0  0  0  0
 15 14  1  0  0  0  0
 16  2  1  0  0  0  0
 17 22  1  0  0  0  0
 18  1  1  0  0  0  0
 19 25  1  0  0  0  0
 19  7  1  0  0  0  0
 21 14  1  0  0  0  0
 22 31  1  0  0  0  0
 22 21  1  0  0  0  0
 23 19  1  0  0  0  0
 24 30  1  0  0  0  0
 25 24  1  0  0  0  0
 26 29  1  0  0  0  0
 26 25  1  0  0  0  0
 27 29  1  0  0  0  0
 28 30  2  0  0  0  0
 29 28  1  0  0  0  0
 31 32  1  0  0  0  0
 32 34  1  0  0  0  0
 32 35  1  0  0  0  0
 33 34  1  0  0  0  0
 35 36  1  0  0  0  0
 36 37  1  0  0  0  0
M  END
>  <MODEL>
3

>  <REMARK>
 VINA RESULT:      -9.0      3.342      5.994
  Name = 
  6 active torsions:
  status: ('A' for Active; 'I' for Inactive)
    1  A    between atoms: C_1  and  C_4
    2  A    between atoms: C_1  and  N_27
    3  A    between atoms: C_4  and  C_12
    4  A    between atoms: C_4  and  C_37
    5  A    between atoms: C_8  and  C_12
    6  A    between atoms: C_23  and  C_30
                            x       y       z     vdW  Elec       q    Type
                         _______ _______ _______ _____ _____    ______ ____

>  <TORSDO>
F 6

$$$$
=
 OpenBabel11122411453D

 37 42  0  0  1  0  0  0  0  0999 V2000
  182.8270  177.3320  137.1500 C   0  0  0  0  0  0  0  0  0  0  0  0
  183.8070  179.2290  140.2310 C   0  0  1  0  0  3  0  0  0  0  0  0
  187.0350  179.3780  141.2370 O   0  0  0  0  0  0  0  0  0  0  0  0
  182.2140  179.3050  138.1460 C   0  0  2  0  0  3  0  0  0  0  0  0
  185.0600  178.3400  140.2890 C   0  0  2  0  0  3  0  0  0  0  0  0
  183.6110  179.4780  138.7190 C   0  0  2  0  0  3  0  0  0  0  0  0
  185.9680  178.5110  141.5220 C   0  0  2  0  0  3  0  0  0  0  0  0
  181.2150  180.0340  139.0110 C   0  0  0  0  0  2  0  0  0  0  0  0
  184.5980  178.5920  137.9670 C   0  0  2  0  0  3  0  0  0  0  0  0
  182.9220  177.9760  135.9190 F   0  0  0  0  0  0  0  0  0  0  0  0
  182.7800  178.6310  142.4780 C   0  0  0  0  0  2  0  0  0  0  0  0
  180.9500  179.2050  140.6110 S   0  0  0  0  0  0  0  0  0  0  0  0
  184.0820  177.2820  137.8020 O   0  0  0  0  0  0  0  0  0  0  0  0
  188.4760  177.8030  140.5100 C   0  0  0  0  0  2  0  0  0  0  0  0
  188.1480  178.7190  141.5450 O   0  0  0  0  0  0  0  0  0  0  0  0
  182.6290  178.5360  140.9590 C   0  0  1  0  0  3  0  0  0  0  0  0
  185.7610  178.5610  138.9470 C   0  0  2  0  0  3  0  0  0  0  0  0
  181.8660  177.9500  137.9820 O   0  0  0  0  0  0  0  0  0  0  0  0
  185.2290  178.8850  142.8180 C   0  0  1  0  0  3  0  0  0  0  0  0
  182.4150  176.0360  136.9130 F   0  0  0  0  0  0  0  0  0  0  0  0
  188.0760  178.2490  139.1040 C   0  0  0  0  0  2  0  0  0  0  0  0
  186.8380  177.5860  138.6930 N   0  0  0  0  0  0  0  0  0  0  0  0
  184.0320  177.9690  143.0260 C   0  0  0  0  0  2  0  0  0  0  0  0
  186.9250  177.5380  144.1470 C   0  0  0  0  0  2  0  0  0  0  0  0
  186.1200  178.8420  144.0630 C   0  0  2  0  0  3  0  0  0  0  0  0
  185.3750  179.2280  145.3660 C   0  0  0  0  0  2  0  0  0  0  0  0
  185.3110  178.8920  147.7320 F   0  0  0  0  0  0  0  0  0  0  0  0
  187.0910  177.8490  146.5740 C   0  0  0  0  0  3  0  0  0  0  0  0
  185.6510  178.2800  146.5420 C   0  0  2  0  0  3  0  0  0  0  0  0
  187.6950  177.4940  145.4360 C   0  0  0  0  0  3  0  0  0  0  0  0
  187.0030  177.3390  137.2570 C   0  0  0  0  0  2  0  0  0  0  0  0
  187.3770  175.8800  136.9660 C   0  0  1  0  0  3  0  0  0  0  0  0
  185.7760  176.1350  135.2120 O   0  0  0  0  0  1  0  0  0  0  0  0
  186.3620  175.1980  136.0630 C   0  0  0  0  0  2  0  0  0  0  0  0
  188.7680  175.7620  136.3610 C   0  0  0  0  0  2  0  0  0  0  0  0
  189.8060  175.5060  137.4410 C   0  0  0  0  0  2  0  0  0  0  0  0
  190.0070  174.1340  137.5930 O   0  0  0  0  0  1  0  0  0  0  0  0
  1 13  1  0  0  0  0
  1 18  1  0  0  0  0
  2  5  1  0  0  0  0
  2 16  1  0  0  0  0
  3  7  1  0  0  0  0
  3 15  1  0  0  0  0
  4  6  1  0  0  0  0
  4  8  1  0  0  0  0
  5  7  1  0  0  0  0
  6  2  1  0  0  0  0
  7 19  1  0  0  0  0
  8 12  1  0  0  0  0
  9  6  1  0  0  0  0
  9 17  1  0  0  0  0
 10  1  1  0  0  0  0
 11 23  1  0  0  0  0
 12 16  1  0  0  0  0
 13  9  1  0  0  0  0
 14 15  1  0  0  0  0
 16 11  1  0  0  0  0
 17  5  1  0  0  0  0
 18  4  1  0  0  0  0
 19 23  1  0  0  0  0
 19 25  1  0  0  0  0
 20  1  1  0  0  0  0
 21 14  1  0  0  0  0
 22 17  1  0  0  0  0
 22 21  1  0  0  0  0
 24 30  1  0  0  0  0
 25 24  1  0  0  0  0
 25 26  1  0  0  0  0
 26 29  1  0  0  0  0
 29 28  1  0  0  0  0
 29 27  1  0  0  0  0
 30 28  2  0  0  0  0
 31 22  1  0  0  0  0
 32 31  1  0  0  0  0
 33 34  1  0  0  0  0
 34 32  1  0  0  0  0
 35 32  1  0  0  0  0
 35 36  1  0  0  0  0
 36 37  1  0  0  0  0
M  END
>  <MODEL>
4

>  <REMARK>
 VINA RESULT:      -8.8      3.039      6.345
  Name = 
  6 active torsions:
  status: ('A' for Active; 'I' for Inactive)
    1  A    between atoms: C_1  and  C_4
    2  A    between atoms: C_1  and  N_27
    3  A    between atoms: C_4  and  C_12
    4  A    between atoms: C_4  and  C_37
    5  A    between atoms: C_8  and  C_12
    6  A    between atoms: C_23  and  C_30
                            x       y       z     vdW  Elec       q    Type
                         _______ _______ _______ _____ _____    ______ ____

>  <TORSDO>
F 6

$$$$
=
 OpenBabel11122411453D

 37 42  0  0  1  0  0  0  0  0999 V2000
  180.4040  177.6070  137.6550 C   0  0  0  0  0  0  0  0  0  0  0  0
  182.2010  179.4640  140.3700 C   0  0  1  0  0  3  0  0  0  0  0  0
  185.5830  179.5080  140.5130 O   0  0  0  0  0  0  0  0  0  0  0  0
  180.1290  179.5960  138.7630 C   0  0  2  0  0  3  0  0  0  0  0  0
  183.3980  178.5360  140.1090 C   0  0  2  0  0  3  0  0  0  0  0  0
  181.6320  179.7230  138.9580 C   0  0  2  0  0  3  0  0  0  0  0  0
  184.5970  178.6740  141.0680 C   0  0  2  0  0  3  0  0  0  0  0  0
  179.4090  180.3550  139.8510 C   0  0  0  0  0  2  0  0  0  0  0  0
  182.3640  178.8080  137.9830 C   0  0  2  0  0  3  0  0  0  0  0  0
  180.2010  178.2500  136.4370 F   0  0  0  0  0  0  0  0  0  0  0  0
  181.7670  178.8940  142.8080 C   0  0  0  0  0  2  0  0  0  0  0  0
  179.5380  179.5310  141.4700 S   0  0  0  0  0  0  0  0  0  0  0  0
  181.7820  177.5150  137.9630 O   0  0  0  0  0  0  0  0  0  0  0  0
  186.7380  177.8880  139.4500 C   0  0  0  0  0  2  0  0  0  0  0  0
  186.7160  178.8120  140.5300 O   0  0  0  0  0  0  0  0  0  0  0  0
  181.2280  178.8080  141.3790 C   0  0  1  0  0  3  0  0  0  0  0  0
  183.7380  178.7360  138.6320 C   0  0  2  0  0  3  0  0  0  0  0  0
  179.7080  178.2540  138.7020 O   0  0  0  0  0  0  0  0  0  0  0  0
  184.2280  179.0690  142.5070 C   0  0  1  0  0  3  0  0  0  0  0  0
  179.9040  176.3250  137.5390 F   0  0  0  0  0  0  0  0  0  0  0  0
  186.0040  178.3500  138.1910 C   0  0  0  0  0  2  0  0  0  0  0  0
  184.6830  177.7280  138.1150 N   0  0  0  0  0  0  0  0  0  0  0  0
  183.0960  178.1910  143.0210 C   0  0  0  0  0  2  0  0  0  0  0  0
  186.1180  177.6360  143.4200 C   0  0  0  0  0  2  0  0  0  0  0  0
  185.4060  178.9950  143.4820 C   0  0  2  0  0  3  0  0  0  0  0  0
  185.0530  179.4730  144.9130 C   0  0  0  0  0  2  0  0  0  0  0  0
  185.5830  179.2120  147.2300 F   0  0  0  0  0  0  0  0  0  0  0  0
  186.9280  178.0040  145.7050 C   0  0  0  0  0  3  0  0  0  0  0  0
  185.5610  178.5420  146.0220 C   0  0  2  0  0  3  0  0  0  0  0  0
  187.1920  177.5710  144.4680 C   0  0  0  0  0  3  0  0  0  0  0  0
  184.4660  177.4790  136.6860 C   0  0  0  0  0  2  0  0  0  0  0  0
  184.4820  175.9810  136.3580 C   0  0  1  0  0  3  0  0  0  0  0  0
  186.5350  174.9620  137.0300 O   0  0  0  0  0  1  0  0  0  0  0  0
  185.8620  175.5030  135.9350 C   0  0  0  0  0  2  0  0  0  0  0  0
  183.9780  175.1410  137.5220 C   0  0  0  0  0  2  0  0  0  0  0  0
  182.8530  174.2230  137.0770 C   0  0  0  0  0  2  0  0  0  0  0  0
  182.1640  174.7960  136.0090 O   0  0  0  0  0  1  0  0  0  0  0  0
  1 13  1  0  0  0  0
  1 18  1  0  0  0  0
  2 16  1  0  0  0  0
  3 15  1  0  0  0  0
  3  7  1  0  0  0  0
  4  6  1  0  0  0  0
  4  8  1  0  0  0  0
  5  2  1  0  0  0  0
  5  7  1  0  0  0  0
  6  2  1  0  0  0  0
  7 19  1  0  0  0  0
  8 12  1  0  0  0  0
  9 17  1  0  0  0  0
  9  6  1  0  0  0  0
 10  1  1  0  0  0  0
 11 23  1  0  0  0  0
 13  9  1  0  0  0  0
 14 15  1  0  0  0  0
 16 12  1  0  0  0  0
 16 11  1  0  0  0  0
 17  5  1  0  0  0  0
 18  4  1  0  0  0  0
 19 23  1  0  0  0  0
 19 25  1  0  0  0  0
 20  1  1  0  0  0  0
 21 14  1  0  0  0  0
 22 21  1  0  0  0  0
 22 17  1  0  0  0  0
 24 25  1  0  0  0  0
 24 30  1  0  0  0  0
 25 26  1  0  0  0  0
 26 29  1  0  0  0  0
 28 29  1  0  0  0  0
 29 27  1  0  0  0  0
 30 28  2  0  0  0  0
 31 22  1  0  0  0  0
 32 31  1  0  0  0  0
 32 35  1  0  0  0  0
 34 32  1  0  0  0  0
 34 33  1  0  0  0  0
 36 35  1  0  0  0  0
 37 36  1  0  0  0  0
M  END
>  <MODEL>
5

>  <REMARK>
 VINA RESULT:      -8.7      3.495      7.298
  Name = 
  6 active torsions:
  status: ('A' for Active; 'I' for Inactive)
    1  A    between atoms: C_1  and  C_4
    2  A    between atoms: C_1  and  N_27
    3  A    between atoms: C_4  and  C_12
    4  A    between atoms: C_4  and  C_37
    5  A    between atoms: C_8  and  C_12
    6  A    between atoms: C_23  and  C_30
                            x       y       z     vdW  Elec       q    Type
                         _______ _______ _______ _____ _____    ______ ____

>  <TORSDO>
F 6

$$$$
=
 OpenBabel11122411453D

 37 42  0  0  1  0  0  0  0  0999 V2000
  190.0060  178.8640  143.6520 C   0  0  0  0  0  0  0  0  0  0  0  0
  186.4790  177.6000  143.7300 C   0  0  1  0  0  3  0  0  0  0  0  0
  184.6230  177.4220  140.9050 O   0  0  0  0  0  0  0  0  0  0  0  0
  188.8660  177.2020  144.7470 C   0  0  2  0  0  3  0  0  0  0  0  0
  186.2480  178.3810  142.4270 C   0  0  2  0  0  3  0  0  0  0  0  0
  187.9130  177.0490  143.5730 C   0  0  2  0  0  3  0  0  0  0  0  0
  184.8050  178.4090  141.8880 C   0  0  2  0  0  3  0  0  0  0  0  0
  188.1860  176.7530  146.0160 C   0  0  0  0  0  2  0  0  0  0  0  0
  188.5200  177.6760  142.3220 C   0  0  2  0  0  3  0  0  0  0  0  0
  191.0230  177.9670  143.3360 F   0  0  0  0  0  0  0  0  0  0  0  0
  184.7470  178.7400  145.2000 C   0  0  0  0  0  2  0  0  0  0  0  0
  186.9010  177.9230  146.5630 S   0  0  0  0  0  0  0  0  0  0  0  0
  189.0590  178.9560  142.6050 O   0  0  0  0  0  0  0  0  0  0  0  0
  185.2110  178.6910  139.1360 C   0  0  0  0  0  2  0  0  0  0  0  0
  184.1520  178.0440  139.8290 O   0  0  0  0  0  0  0  0  0  0  0  0
  186.2400  178.5200  144.9520 C   0  0  1  0  0  3  0  0  0  0  0  0
  187.2840  177.8270  141.4480 C   0  0  2  0  0  3  0  0  0  0  0  0
  189.3670  178.5130  144.8630 O   0  0  0  0  0  0  0  0  0  0  0  0
  183.7130  178.3780  142.9690 C   0  0  1  0  0  3  0  0  0  0  0  0
  190.5830  180.1080  143.8190 F   0  0  0  0  0  0  0  0  0  0  0  0
  186.5650  177.9870  139.2260 C   0  0  0  0  0  2  0  0  0  0  0  0
  187.4130  178.6400  140.2230 N   0  0  0  0  0  0  0  0  0  0  0  0
  184.0120  179.4060  144.0500 C   0  0  0  0  0  2  0  0  0  0  0  0
  182.3010  179.6270  141.2650 C   0  0  0  0  0  2  0  0  0  0  0  0
  182.3040  178.6170  142.4210 C   0  0  2  0  0  3  0  0  0  0  0  0
  181.2530  178.8960  143.5250 C   0  0  0  0  0  2  0  0  0  0  0  0
  179.1980  180.0210  144.0040 F   0  0  0  0  0  0  0  0  0  0  0  0
  179.9530  180.1280  141.7650 C   0  0  0  0  0  3  0  0  0  0  0  0
  180.3320  180.0860  143.2190 C   0  0  2  0  0  3  0  0  0  0  0  0
  180.8910  179.9130  140.8360 C   0  0  0  0  0  3  0  0  0  0  0  0
  188.7690  178.5610  139.6730 C   0  0  0  0  0  2  0  0  0  0  0  0
  188.8480  177.6000  138.4790 C   0  0  1  0  0  3  0  0  0  0  0  0
  189.0560  179.7130  137.3850 O   0  0  0  0  0  1  0  0  0  0  0  0
  189.0620  178.3360  137.1660 C   0  0  0  0  0  2  0  0  0  0  0  0
  189.9350  176.5520  138.6670 C   0  0  0  0  0  2  0  0  0  0  0  0
  190.1530  175.7660  137.3860 C   0  0  0  0  0  2  0  0  0  0  0  0
  189.8430  174.4220  137.5930 O   0  0  0  0  0  1  0  0  0  0  0  0
  1 20  1  0  0  0  0
  1 18  1  0  0  0  0
  2 16  1  0  0  0  0
  3  7  1  0  0  0  0
  4 18  1  0  0  0  0
  4  8  1  0  0  0  0
  5  2  1  0  0  0  0
  6  2  1  0  0  0  0
  6  4  1  0  0  0  0
  7  5  1  0  0  0  0
  7 19  1  0  0  0  0
  8 12  1  0  0  0  0
  9 13  1  0  0  0  0
  9  6  1  0  0  0  0
 10  1  1  0  0  0  0
 13  1  1  0  0  0  0
 14 21  1  0  0  0  0
 14 15  1  0  0  0  0
 15  3  1  0  0  0  0
 16 11  1  0  0  0  0
 16 12  1  0  0  0  0
 17  9  1  0  0  0  0
 17  5  1  0  0  0  0
 19 23  1  0  0  0  0
 21 22  1  0  0  0  0
 22 17  1  0  0  0  0
 23 11  1  0  0  0  0
 24 25  1  0  0  0  0
 25 19  1  0  0  0  0
 25 26  1  0  0  0  0
 28 29  1  0  0  0  0
 29 26  1  0  0  0  0
 29 27  1  0  0  0  0
 30 24  1  0  0  0  0
 30 28  2  0  0  0  0
 31 22  1  0  0  0  0
 32 35  1  0  0  0  0
 32 31  1  0  0  0  0
 34 33  1  0  0  0  0
 34 32  1  0  0  0  0
 36 37  1  0  0  0  0
 36 35  1  0  0  0  0
M  END
>  <MODEL>
6

>  <REMARK>
 VINA RESULT:      -8.6      1.166      1.456
  Name = 
  6 active torsions:
  status: ('A' for Active; 'I' for Inactive)
    1  A    between atoms: C_1  and  C_4
    2  A    between atoms: C_1  and  N_27
    3  A    between atoms: C_4  and  C_12
    4  A    between atoms: C_4  and  C_37
    5  A    between atoms: C_8  and  C_12
    6  A    between atoms: C_23  and  C_30
                            x       y       z     vdW  Elec       q    Type
                         _______ _______ _______ _____ _____    ______ ____

>  <TORSDO>
F 6

$$$$
=
 OpenBabel11122411453D

 37 42  0  0  1  0  0  0  0  0999 V2000
  186.5240  176.6870  137.6830 C   0  0  0  0  0  0  0  0  0  0  0  0
  187.0950  178.5180  140.9040 C   0  0  1  0  0  3  0  0  0  0  0  0
  190.1570  178.6100  142.3420 O   0  0  0  0  0  0  0  0  0  0  0  0
  185.8010  178.6510  138.6230 C   0  0  2  0  0  3  0  0  0  0  0  0
  188.3190  177.6130  141.1140 C   0  0  2  0  0  3  0  0  0  0  0  0
  187.1080  178.7960  139.3840 C   0  0  2  0  0  3  0  0  0  0  0  0
  189.0520  177.7510  142.4630 C   0  0  2  0  0  3  0  0  0  0  0  0
  184.7010  179.3770  139.3580 C   0  0  0  0  0  2  0  0  0  0  0  0
  188.1790  177.9110  138.7570 C   0  0  2  0  0  3  0  0  0  0  0  0
  186.7920  177.3510  136.4890 F   0  0  0  0  0  0  0  0  0  0  0  0
  185.7650  177.8950  142.9780 C   0  0  0  0  0  2  0  0  0  0  0  0
  184.2120  178.5240  140.8910 S   0  0  0  0  0  0  0  0  0  0  0  0
  187.6770  176.6100  138.4990 O   0  0  0  0  0  0  0  0  0  0  0  0
  191.6670  177.0290  141.7870 C   0  0  0  0  0  2  0  0  0  0  0  0
  191.2110  177.9320  142.7860 O   0  0  0  0  0  0  0  0  0  0  0  0
  185.8220  177.8280  141.4510 C   0  0  1  0  0  3  0  0  0  0  0  0
  189.1980  177.8480  139.8850 C   0  0  2  0  0  3  0  0  0  0  0  0
  185.4640  177.3030  138.3890 O   0  0  0  0  0  0  0  0  0  0  0  0
  188.1480  178.1120  143.6530 C   0  0  1  0  0  3  0  0  0  0  0  0
  186.1350  175.4000  137.3680 F   0  0  0  0  0  0  0  0  0  0  0  0
  191.4660  177.5040  140.3490 C   0  0  0  0  0  2  0  0  0  0  0  0
  190.2900  176.8640  139.7610 N   0  0  0  0  0  0  0  0  0  0  0  0
  186.9240  177.2070  143.6790 C   0  0  0  0  0  2  0  0  0  0  0  0
  189.7600  176.7980  145.1120 C   0  0  0  0  0  2  0  0  0  0  0  0
  188.8600  178.0370  145.0060 C   0  0  2  0  0  3  0  0  0  0  0  0
  187.9130  178.2530  146.2130 C   0  0  0  0  0  2  0  0  0  0  0  0
  187.5570  177.7180  148.5160 F   0  0  0  0  0  0  0  0  0  0  0  0
  189.5640  176.9190  147.5540 C   0  0  0  0  0  3  0  0  0  0  0  0
  188.1100  177.2350  147.3460 C   0  0  2  0  0  3  0  0  0  0  0  0
  190.3480  176.7080  146.4910 C   0  0  0  0  0  3  0  0  0  0  0  0
  190.6470  176.6400  138.3560 C   0  0  0  0  0  2  0  0  0  0  0  0
  190.9610  175.1650  138.0740 C   0  0  1  0  0  3  0  0  0  0  0  0
  190.6680  173.8740  136.0850 O   0  0  0  0  0  1  0  0  0  0  0  0
  189.9770  174.5480  137.0930 C   0  0  0  0  0  2  0  0  0  0  0  0
  192.3830  174.9760  137.5680 C   0  0  0  0  0  2  0  0  0  0  0  0
  192.9180  176.2660  136.9710 C   0  0  0  0  0  2  0  0  0  0  0  0
  194.2870  176.3740  137.2160 O   0  0  0  0  0  1  0  0  0  0  0  0
  1 18  1  0  0  0  0
  1 13  1  0  0  0  0
  2  5  1  0  0  0  0
  2 16  1  0  0  0  0
  3  7  1  0  0  0  0
  3 15  1  0  0  0  0
  4  8  1  0  0  0  0
  4  6  1  0  0  0  0
  5  7  1  0  0  0  0
  6  2  1  0  0  0  0
  7 19  1  0  0  0  0
  8 12  1  0  0  0  0
  9  6  1  0  0  0  0
  9 17  1  0  0  0  0
 10  1  1  0  0  0  0
 11 23  1  0  0  0  0
 12 16  1  0  0  0  0
 13  9  1  0  0  0  0
 14 15  1  0  0  0  0
 16 11  1  0  0  0  0
 17  5  1  0  0  0  0
 18  4  1  0  0  0  0
 19 23  1  0  0  0  0
 19 25  1  0  0  0  0
 20  1  1  0  0  0  0
 21 14  1  0  0  0  0
 22 17  1  0  0  0  0
 22 21  1  0  0  0  0
 24 30  1  0  0  0  0
 25 24  1  0  0  0  0
 25 26  1  0  0  0  0
 26 29  1  0  0  0  0
 29 28  1  0  0  0  0
 29 27  1  0  0  0  0
 30 28  2  0  0  0  0
 31 22  1  0  0  0  0
 32 31  1  0  0  0  0
 33 34  1  0  0  0  0
 34 32  1  0  0  0  0
 35 32  1  0  0  0  0
 36 37  1  0  0  0  0
 36 35  1  0  0  0  0
M  END
>  <MODEL>
7

>  <REMARK>
 VINA RESULT:      -8.4      3.311      6.415
  Name = 
  6 active torsions:
  status: ('A' for Active; 'I' for Inactive)
    1  A    between atoms: C_1  and  C_4
    2  A    between atoms: C_1  and  N_27
    3  A    between atoms: C_4  and  C_12
    4  A    between atoms: C_4  and  C_37
    5  A    between atoms: C_8  and  C_12
    6  A    between atoms: C_23  and  C_30
                            x       y       z     vdW  Elec       q    Type
                         _______ _______ _______ _____ _____    ______ ____

>  <TORSDO>
F 6

$$$$
=
 OpenBabel11122411453D

 37 42  0  0  1  0  0  0  0  0999 V2000
  182.4590  177.0560  138.9960 C   0  0  0  0  0  0  0  0  0  0  0  0
  185.1800  178.8320  140.8650 C   0  0  1  0  0  3  0  0  0  0  0  0
  188.2880  179.1310  139.5590 O   0  0  0  0  0  0  0  0  0  0  0  0
  182.6140  178.9250  140.3160 C   0  0  2  0  0  3  0  0  0  0  0  0
  186.1820  178.0240  140.0240 C   0  0  2  0  0  3  0  0  0  0  0  0
  184.0480  179.1540  139.8650 C   0  0  2  0  0  3  0  0  0  0  0  0
  187.6710  178.1820  140.3900 C   0  0  2  0  0  3  0  0  0  0  0  0
  182.4060  179.5370  141.6800 C   0  0  0  0  0  2  0  0  0  0  0  0
  184.3220  178.3780  138.5820 C   0  0  2  0  0  3  0  0  0  0  0  0
  181.7270  177.7730  138.0550 F   0  0  0  0  0  0  0  0  0  0  0  0
  185.8620  178.0410  143.1820 C   0  0  0  0  0  2  0  0  0  0  0  0
  183.2520  178.6020  142.9950 S   0  0  0  0  0  0  0  0  0  0  0  0
  183.8380  177.0490  138.6780 O   0  0  0  0  0  0  0  0  0  0  0  0
  188.9320  177.6950  137.9430 C   0  0  0  0  0  2  0  0  0  0  0  0
  189.3430  178.5280  139.0190 O   0  0  0  0  0  0  0  0  0  0  0  0
  184.7640  178.0240  142.1180 C   0  0  1  0  0  3  0  0  0  0  0  0
  185.8430  178.3650  138.5730 C   0  0  2  0  0  3  0  0  0  0  0  0
  182.2600  177.5620  140.3010 O   0  0  0  0  0  0  0  0  0  0  0  0
  187.9440  178.4320  141.8820 C   0  0  1  0  0  3  0  0  0  0  0  0
  182.0070  175.7510  138.9710 F   0  0  0  0  0  0  0  0  0  0  0  0
  187.7110  178.1940  137.1710 C   0  0  0  0  0  2  0  0  0  0  0  0
  186.5100  177.4780  137.6010 N   0  0  0  0  0  0  0  0  0  0  0  0
  187.1790  177.4300  142.7340 C   0  0  0  0  0  2  0  0  0  0  0  0
  190.1380  177.1850  141.5890 C   0  0  0  0  0  2  0  0  0  0  0  0
  189.4300  178.3760  142.2490 C   0  0  2  0  0  3  0  0  0  0  0  0
  189.6950  178.5250  143.7680 C   0  0  0  0  0  2  0  0  0  0  0  0
  191.1890  177.9390  145.5410 F   0  0  0  0  0  0  0  0  0  0  0  0
  191.8260  177.2610  143.3660 C   0  0  0  0  0  3  0  0  0  0  0  0
  190.6960  177.5030  144.3270 C   0  0  2  0  0  3  0  0  0  0  0  0
  191.5610  177.1070  142.0650 C   0  0  0  0  0  3  0  0  0  0  0  0
  185.7080  177.3250  136.3830 C   0  0  0  0  0  2  0  0  0  0  0  0
  185.6960  175.8740  135.8840 C   0  0  1  0  0  3  0  0  0  0  0  0
  187.8140  175.1830  135.0200 O   0  0  0  0  0  1  0  0  0  0  0  0
  186.5660  175.6860  134.6510 C   0  0  0  0  0  2  0  0  0  0  0  0
  186.1230  174.8990  136.9710 C   0  0  0  0  0  2  0  0  0  0  0  0
  185.1200  173.7650  137.1020 C   0  0  0  0  0  2  0  0  0  0  0  0
  185.4710  172.9390  138.1690 O   0  0  0  0  0  1  0  0  0  0  0  0
  1 18  1  0  0  0  0
  2 16  1  0  0  0  0
  3  7  1  0  0  0  0
  4  8  1  0  0  0  0
  5  7  1  0  0  0  0
  5  2  1  0  0  0  0
  6  4  1  0  0  0  0
  6  2  1  0  0  0  0
  7 19  1  0  0  0  0
  8 12  1  0  0  0  0
  9 13  1  0  0  0  0
  9  6  1  0  0  0  0
 10  1  1  0  0  0  0
 13  1  1  0  0  0  0
 14 15  1  0  0  0  0
 15  3  1  0  0  0  0
 16 12  1  0  0  0  0
 16 11  1  0  0  0  0
 17  9  1  0  0  0  0
 17  5  1  0  0  0  0
 18  4  1  0  0  0  0
 19 25  1  0  0  0  0
 19 23  1  0  0  0  0
 20  1  1  0  0  0  0
 21 22  1  0  0  0  0
 21 14  1  0  0  0  0
 22 17  1  0  0  0  0
 23 11  1  0  0  0  0
 24 30  1  0  0  0  0
 24 25  1  0  0  0  0
 25 26  1  0  0  0  0
 26 29  1  0  0  0  0
 28 29  1  0  0  0  0
 29 27  1  0  0  0  0
 30 28  2  0  0  0  0
 31 22  1  0  0  0  0
 32 31  1  0  0  0  0
 32 35  1  0  0  0  0
 34 33  1  0  0  0  0
 34 32  1  0  0  0  0
 35 36  1  0  0  0  0
 36 37  1  0  0  0  0
M  END
>  <MODEL>
8

>  <REMARK>
 VINA RESULT:      -8.2      2.747      7.013
  Name = 
  6 active torsions:
  status: ('A' for Active; 'I' for Inactive)
    1  A    between atoms: C_1  and  C_4
    2  A    between atoms: C_1  and  N_27
    3  A    between atoms: C_4  and  C_12
    4  A    between atoms: C_4  and  C_37
    5  A    between atoms: C_8  and  C_12
    6  A    between atoms: C_23  and  C_30
                            x       y       z     vdW  Elec       q    Type
                         _______ _______ _______ _____ _____    ______ ____

>  <TORSDO>
F 6

$$$$
=
 OpenBabel11122411453D

 37 42  0  0  1  0  0  0  0  0999 V2000
  183.7270  177.0180  137.9560 C   0  0  0  0  0  0  0  0  0  0  0  0
  185.9230  178.6370  140.5260 C   0  0  1  0  0  3  0  0  0  0  0  0
  189.2930  178.6020  140.2160 O   0  0  0  0  0  0  0  0  0  0  0  0
  183.6610  178.9270  139.2250 C   0  0  2  0  0  3  0  0  0  0  0  0
  187.0470  177.7060  140.0430 C   0  0  2  0  0  3  0  0  0  0  0  0
  185.1790  179.0090  139.2250 C   0  0  2  0  0  3  0  0  0  0  0  0
  188.3650  177.7500  140.8390 C   0  0  2  0  0  3  0  0  0  0  0  0
  183.1140  179.6190  140.4500 C   0  0  0  0  0  2  0  0  0  0  0  0
  185.7470  178.1520  138.0990 C   0  0  2  0  0  3  0  0  0  0  0  0
  183.3830  177.7520  136.8230 F   0  0  0  0  0  0  0  0  0  0  0  0
  185.7990  177.9000  142.9550 C   0  0  0  0  0  2  0  0  0  0  0  0
  183.4320  178.6770  141.9760 S   0  0  0  0  0  0  0  0  0  0  0  0
  185.1300  176.8770  138.0690 O   0  0  0  0  0  0  0  0  0  0  0  0
  190.2480  177.0410  138.8970 C   0  0  0  0  0  2  0  0  0  0  0  0
  190.3970  177.8850  140.0320 O   0  0  0  0  0  0  0  0  0  0  0  0
  185.0730  177.9290  141.6090 C   0  0  1  0  0  3  0  0  0  0  0  0
  187.1930  178.0060  138.5510 C   0  0  2  0  0  3  0  0  0  0  0  0
  183.1960  177.6010  139.1290 O   0  0  0  0  0  0  0  0  0  0  0  0
  188.2030  178.0460  142.3390 C   0  0  1  0  0  3  0  0  0  0  0  0
  183.1780  175.7580  137.8190 F   0  0  0  0  0  0  0  0  0  0  0  0
  189.3680  177.6070  137.7840 C   0  0  0  0  0  2  0  0  0  0  0  0
  188.0300  177.0200  137.8430 N   0  0  0  0  0  0  0  0  0  0  0  0
  187.1230  177.1560  142.9380 C   0  0  0  0  0  2  0  0  0  0  0  0
  190.1670  176.5240  142.8680 C   0  0  0  0  0  2  0  0  0  0  0  0
  189.4970  177.8780  143.1390 C   0  0  2  0  0  3  0  0  0  0  0  0
  189.3450  178.2350  144.6390 C   0  0  0  0  0  2  0  0  0  0  0  0
  190.1700  177.7710  146.8350 F   0  0  0  0  0  0  0  0  0  0  0  0
  191.2780  176.6860  145.0480 C   0  0  0  0  0  3  0  0  0  0  0  0
  189.9760  177.2070  145.5890 C   0  0  2  0  0  3  0  0  0  0  0  0
  191.3670  176.3580  143.7550 C   0  0  0  0  0  3  0  0  0  0  0  0
  187.6190  176.8800  136.4430 C   0  0  0  0  0  2  0  0  0  0  0  0
  187.3160  175.4200  136.0780 C   0  0  1  0  0  3  0  0  0  0  0  0
  185.7190  176.5710  134.7240 O   0  0  0  0  0  1  0  0  0  0  0  0
  186.2430  175.3090  135.0070 C   0  0  0  0  0  2  0  0  0  0  0  0
  188.5670  174.6760  135.6360 C   0  0  0  0  0  2  0  0  0  0  0  0
  188.8410  173.4930  136.5470 C   0  0  0  0  0  2  0  0  0  0  0  0
  189.9040  173.7840  137.4010 O   0  0  0  0  0  1  0  0  0  0  0  0
  1 13  1  0  0  0  0
  1 18  1  0  0  0  0
  2 16  1  0  0  0  0
  3  7  1  0  0  0  0
  4  8  1  0  0  0  0
  5  2  1  0  0  0  0
  5  7  1  0  0  0  0
  6  4  1  0  0  0  0
  6  2  1  0  0  0  0
  7 19  1  0  0  0  0
  8 12  1  0  0  0  0
  9 17  1  0  0  0  0
  9  6  1  0  0  0  0
 10  1  1  0  0  0  0
 13  9  1  0  0  0  0
 14 15  1  0  0  0  0
 15  3  1  0  0  0  0
 16 12  1  0  0  0  0
 16 11  1  0  0  0  0
 17  5  1  0  0  0  0
 18  4  1  0  0  0  0
 19 23  1  0  0  0  0
 19 25  1  0  0  0  0
 20  1  1  0  0  0  0
 21 22  1  0  0  0  0
 21 14  1  0  0  0  0
 22 17  1  0  0  0  0
 23 11  1  0  0  0  0
 24 25  1  0  0  0  0
 24 30  1  0  0  0  0
 25 26  1  0  0  0  0
 26 29  1  0  0  0  0
 28 29  1  0  0  0  0
 29 27  1  0  0  0  0
 30 28  2  0  0  0  0
 31 22  1  0  0  0  0
 32 31  1  0  0  0  0
 33 34  1  0  0  0  0
 34 32  1  0  0  0  0
 35 32  1  0  0  0  0
 35 36  1  0  0  0  0
 36 37  1  0  0  0  0
M  END
>  <MODEL>
9

>  <REMARK>
 VINA RESULT:      -8.2      2.765      6.838
  Name = 
  6 active torsions:
  status: ('A' for Active; 'I' for Inactive)
    1  A    between atoms: C_1  and  C_4
    2  A    between atoms: C_1  and  N_27
    3  A    between atoms: C_4  and  C_12
    4  A    between atoms: C_4  and  C_37
    5  A    between atoms: C_8  and  C_12
    6  A    between atoms: C_23  and  C_30
                            x       y       z     vdW  Elec       q    Type
                         _______ _______ _______ _____ _____    ______ ____

>  <TORSDO>
F 6

$$$$
