=
 OpenBabel11122411023D

 31 36  0  0  1  0  0  0  0  0999 V2000
  193.0480  173.6110  135.6030 C   0  0  0  0  0  0  0  0  0  0  0  0
  190.1660  176.0010  136.2300 C   0  0  2  0  0  3  0  0  0  0  0  0
  188.8650  175.1420  136.2380 C   0  0  1  0  0  3  0  0  0  0  0  0
  187.7170  172.9430  136.5610 C   0  0  1  0  0  3  0  0  0  0  0  0
  191.4300  175.2110  136.4420 C   0  0  0  0  0  0  0  0  0  0  0  0
  193.6930  173.6080  136.8420 C   0  0  0  0  0  3  0  0  0  0  0  0
  189.0040  173.7280  136.8130 C   0  0  0  0  0  2  0  0  0  0  0  0
  190.2720  176.7510  138.6220 C   0  0  2  0  0  3  0  0  0  0  0  0
  193.5150  172.8370  134.5940 F   0  0  0  0  0  0  0  0  0  0  0  0
  187.6040  177.2840  136.4730 C   0  0  0  0  0  2  0  0  0  0  0  0
  187.8310  171.6690  137.1150 O   0  0  0  0  0  1  0  0  0  0  0  0
  191.6580  176.1230  138.8120 C   0  0  0  0  0  2  0  0  0  0  0  0
  190.1070  177.2240  137.1670 C   0  0  2  0  0  3  0  0  0  0  0  0
  191.9180  174.4080  135.4040 C   0  0  0  0  0  3  0  0  0  0  0  0
  186.5130  173.6610  137.1770 C   0  0  0  0  0  2  0  0  0  0  0  0
  192.0760  175.2020  137.6970 C   0  0  0  0  0  0  0  0  0  0  0  0
  193.2110  174.4060  137.8830 C   0  0  0  0  0  3  0  0  0  0  0  0
  188.8370  178.0700  136.9320 C   0  0  0  0  0  2  0  0  0  0  0  0
  187.6880  175.8400  136.9290 C   0  0  1  0  0  3  0  0  0  0  0  0
  186.3990  175.0860  136.6370 C   0  0  0  0  0  2  0  0  0  0  0  0
  190.4720  177.3790  140.9050 O   0  0  0  0  0  0  0  0  0  0  0  0
  189.0970  177.5290  140.6560 C   0  0  2  0  0  3  0  0  0  0  0  0
  190.1160  177.8770  139.6380 C   0  0  2  0  0  3  0  0  0  0  0  0
  187.4020  177.8290  143.8280 C   0  0  1  0  0  3  0  0  0  0  0  0
  189.2150  178.7580  142.8250 C   0  0  0  0  0  2  0  0  0  0  0  0
  186.3900  178.7240  140.3020 N   0  0  0  0  0  1  0  0  0  0  0  0
  186.9290  176.7730  144.8050 C   0  0  0  0  0  1  0  0  0  0  0  0
  188.7710  177.6350  143.5550 O   0  0  0  0  0  0  0  0  0  0  0  0
  187.0770  178.8100  141.5790 C   0  0  2  0  0  3  0  0  0  0  0  0
  188.6040  178.7600  141.4190 C   0  0  2  0  0  3  0  0  0  0  0  0
  186.5850  177.7320  142.5400 C   0  0  0  0  0  2  0  0  0  0  0  0
  1  6  1  0  0  0  0
  2  3  1  0  0  0  0
  2  5  1  1  0  0  0
  2 13  1  0  0  0  0
  3  7  1  1  0  0  0
  3 19  1  0  0  0  0
  4  7  1  0  0  0  0
  4 11  1  1  0  0  0
  4 15  1  0  0  0  0
  5 16  2  0  0  0  0
  6 17  2  0  0  0  0
  8 12  1  6  0  0  0
  8 23  1  0  0  0  0
  9  1  1  0  0  0  0
 10 18  1  0  0  0  0
 13 18  1  1  0  0  0
 13  8  1  0  0  0  0
 14  1  2  0  0  0  0
 14  5  1  0  0  0  0
 16 17  1  0  0  0  0
 16 12  1  0  0  0  0
 19 10  1  6  0  0  0
 20 19  1  0  0  0  0
 20 15  1  0  0  0  0
 22 21  1  1  0  0  0
 22 30  1  0  0  0  0
 23 22  1  0  0  0  0
 23 21  1  1  0  0  0
 24 27  1  1  0  0  0
 25 28  1  0  0  0  0
 28 24  1  0  0  0  0
 29 26  1  6  0  0  0
 29 31  1  0  0  0  0
 30 29  1  0  0  0  0
 30 25  1  1  0  0  0
 31 24  1  0  0  0  0
M  END
>  <MODEL>
1

>  <REMARK>
 VINA RESULT:      -6.5      0.000      0.000
  Name = 
  2 active torsions:
  status: ('A' for Active; 'I' for Inactive)
    1  A    between atoms: C_5  and  C_30
    2  A    between atoms: C_10  and  C_16
                            x       y       z     vdW  Elec       q    Type
                         _______ _______ _______ _____ _____    ______ ____

>  <TORSDO>
F 2

$$$$
=
 OpenBabel11122411023D

 31 36  0  0  1  0  0  0  0  0999 V2000
  193.1210  173.9860  135.6710 C   0  0  0  0  0  0  0  0  0  0  0  0
  190.2450  176.3120  136.5280 C   0  0  2  0  0  3  0  0  0  0  0  0
  188.9440  175.4560  136.4660 C   0  0  1  0  0  3  0  0  0  0  0  0
  187.7940  173.2380  136.5960 C   0  0  1  0  0  3  0  0  0  0  0  0
  191.5090  175.5050  136.6600 C   0  0  0  0  0  0  0  0  0  0  0  0
  193.7730  173.8700  136.9010 C   0  0  0  0  0  3  0  0  0  0  0  0
  189.0840  173.9950  136.9100 C   0  0  0  0  0  2  0  0  0  0  0  0
  190.3660  176.8430  138.9770 C   0  0  2  0  0  3  0  0  0  0  0  0
  193.5810  173.3050  134.5940 F   0  0  0  0  0  0  0  0  0  0  0  0
  187.6860  177.5690  136.9000 C   0  0  0  0  0  2  0  0  0  0  0  0
  187.9110  171.9190  137.0320 O   0  0  0  0  0  1  0  0  0  0  0  0
  191.7520  176.1990  139.1010 C   0  0  0  0  0  2  0  0  0  0  0  0
  190.1930  177.4450  137.5710 C   0  0  2  0  0  3  0  0  0  0  0  0
  191.9910  174.7980  135.5510 C   0  0  0  0  0  3  0  0  0  0  0  0
  186.5950  173.8980  137.2810 C   0  0  0  0  0  2  0  0  0  0  0  0
  192.1630  175.3820  137.9060 C   0  0  0  0  0  0  0  0  0  0  0  0
  193.2980  174.5730  138.0120 C   0  0  0  0  0  3  0  0  0  0  0  0
  188.9220  178.3100  137.4210 C   0  0  0  0  0  2  0  0  0  0  0  0
  187.7710  176.0890  137.2240 C   0  0  1  0  0  3  0  0  0  0  0  0
  186.4790  175.3660  136.8730 C   0  0  0  0  0  2  0  0  0  0  0  0
  191.3750  177.8290  140.8890 O   0  0  0  0  0  0  0  0  0  0  0  0
  190.2270  177.2150  141.4190 C   0  0  2  0  0  3  0  0  0  0  0  0
  190.2170  177.8730  140.0910 C   0  0  2  0  0  3  0  0  0  0  0  0
  190.8530  177.3170  144.9720 C   0  0  1  0  0  3  0  0  0  0  0  0
  190.8210  178.8000  143.2530 C   0  0  0  0  0  2  0  0  0  0  0  0
  187.7420  176.6150  142.9510 N   0  0  0  0  0  1  0  0  0  0  0  0
  191.7340  176.4530  145.8500 C   0  0  0  0  0  1  0  0  0  0  0  0
  191.6170  177.8380  143.9090 O   0  0  0  0  0  0  0  0  0  0  0  0
  188.8230  177.3720  143.5580 C   0  0  2  0  0  3  0  0  0  0  0  0
  189.6620  178.1220  142.5130 C   0  0  2  0  0  3  0  0  0  0  0  0
  189.6960  176.4760  144.4310 C   0  0  0  0  0  2  0  0  0  0  0  0
  1  6  1  0  0  0  0
  2  5  1  1  0  0  0
  2 13  1  0  0  0  0
  3  2  1  0  0  0  0
  3  7  1  1  0  0  0
  3 19  1  0  0  0  0
  4  7  1  0  0  0  0
  4 11  1  1  0  0  0
  4 15  1  0  0  0  0
  5 16  2  0  0  0  0
  6 17  2  0  0  0  0
  8 12  1  6  0  0  0
  8 23  1  0  0  0  0
  9  1  1  0  0  0  0
 10 19  1  0  0  0  0
 10 18  1  0  0  0  0
 13 18  1  1  0  0  0
 13  8  1  0  0  0  0
 14  1  2  0  0  0  0
 14  5  1  0  0  0  0
 16 17  1  0  0  0  0
 16 12  1  0  0  0  0
 19 20  1  6  0  0  0
 20 15  1  0  0  0  0
 22 21  1  1  0  0  0
 22 30  1  0  0  0  0
 23 21  1  1  0  0  0
 23 22  1  0  0  0  0
 24 27  1  1  0  0  0
 25 28  1  0  0  0  0
 28 24  1  0  0  0  0
 29 26  1  6  0  0  0
 29 31  1  0  0  0  0
 30 25  1  1  0  0  0
 30 29  1  0  0  0  0
 31 24  1  0  0  0  0
M  END
>  <MODEL>
2

>  <REMARK>
 VINA RESULT:      -6.5      1.514      1.749
  Name = 
  2 active torsions:
  status: ('A' for Active; 'I' for Inactive)
    1  A    between atoms: C_5  and  C_30
    2  A    between atoms: C_10  and  C_16
                            x       y       z     vdW  Elec       q    Type
                         _______ _______ _______ _____ _____    ______ ____

>  <TORSDO>
F 2

$$$$
=
 OpenBabel11122411023D

 31 36  0  0  1  0  0  0  0  0999 V2000
  191.7810  176.6600  138.5850 C   0  0  0  0  0  0  0  0  0  0  0  0
  188.6960  177.1520  136.4280 C   0  0  2  0  0  3  0  0  0  0  0  0
  188.2430  175.7350  135.9640 C   0  0  1  0  0  3  0  0  0  0  0  0
  188.1770  173.2570  136.3030 C   0  0  1  0  0  3  0  0  0  0  0  0
  189.6080  177.1480  137.6270 C   0  0  0  0  0  0  0  0  0  0  0  0
  191.2980  176.9810  139.8550 C   0  0  0  0  0  3  0  0  0  0  0  0
  188.4680  174.6000  136.9710 C   0  0  0  0  0  2  0  0  0  0  0  0
  186.7900  177.8110  137.9210 C   0  0  2  0  0  3  0  0  0  0  0  0
  193.0680  176.2660  138.4300 F   0  0  0  0  0  0  0  0  0  0  0  0
  186.4990  176.8800  134.5940 C   0  0  0  0  0  2  0  0  0  0  0  0
  188.3470  172.2290  137.2290 O   0  0  0  0  0  1  0  0  0  0  0  0
  187.7270  178.0090  139.1190 C   0  0  0  0  0  2  0  0  0  0  0  0
  187.5310  178.1450  136.6140 C   0  0  2  0  0  3  0  0  0  0  0  0
  190.9380  176.7410  137.4740 C   0  0  0  0  0  3  0  0  0  0  0  0
  186.7480  173.2190  135.7550 C   0  0  0  0  0  2  0  0  0  0  0  0
  189.1160  177.4650  138.9120 C   0  0  0  0  0  0  0  0  0  0  0  0
  189.9700  177.3890  140.0160 C   0  0  0  0  0  3  0  0  0  0  0  0
  186.6100  178.1940  135.3760 C   0  0  0  0  0  2  0  0  0  0  0  0
  186.7850  175.6930  135.4940 C   0  0  1  0  0  3  0  0  0  0  0  0
  186.5090  174.3750  134.7850 C   0  0  0  0  0  2  0  0  0  0  0  0
  185.1450  178.5240  139.4810 O   0  0  0  0  0  0  0  0  0  0  0  0
  184.3890  177.8280  138.5220 C   0  0  2  0  0  3  0  0  0  0  0  0
  185.5490  178.6680  138.1410 C   0  0  2  0  0  3  0  0  0  0  0  0
  181.0110  176.8650  139.3500 C   0  0  1  0  0  3  0  0  0  0  0  0
  182.3490  178.6680  139.6880 C   0  0  0  0  0  2  0  0  0  0  0  0
  182.7140  177.6220  136.0660 N   0  0  0  0  0  1  0  0  0  0  0  0
  180.4630  175.5940  139.9630 C   0  0  0  0  0  1  0  0  0  0  0  0
  182.0260  177.3850  140.1770 O   0  0  0  0  0  0  0  0  0  0  0  0
  182.1030  177.8570  137.3630 C   0  0  2  0  0  3  0  0  0  0  0  0
  183.0610  178.5620  138.3340 C   0  0  2  0  0  3  0  0  0  0  0  0
  181.5660  176.5590  137.9580 C   0  0  0  0  0  2  0  0  0  0  0  0
  1  6  1  0  0  0  0
  2 13  1  0  0  0  0
  2  5  1  1  0  0  0
  3  2  1  0  0  0  0
  3  7  1  1  0  0  0
  4  7  1  0  0  0  0
  4 11  1  1  0  0  0
  5 16  2  0  0  0  0
  6 17  2  0  0  0  0
  8 23  1  0  0  0  0
  8 12  1  1  0  0  0
  9  1  1  0  0  0  0
 10 18  1  0  0  0  0
 13 18  1  6  0  0  0
 13  8  1  0  0  0  0
 14  5  1  0  0  0  0
 14  1  2  0  0  0  0
 15  4  1  0  0  0  0
 16 12  1  0  0  0  0
 16 17  1  0  0  0  0
 19 10  1  6  0  0  0
 19  3  1  0  0  0  0
 20 19  1  0  0  0  0
 20 15  1  0  0  0  0
 22 21  1  1  0  0  0
 23 22  1  0  0  0  0
 23 21  1  1  0  0  0
 24 27  1  1  0  0  0
 24 28  1  0  0  0  0
 25 28  1  0  0  0  0
 29 26  1  6  0  0  0
 29 31  1  0  0  0  0
 29 30  1  0  0  0  0
 30 22  1  0  0  0  0
 30 25  1  1  0  0  0
 31 24  1  0  0  0  0
M  END
>  <MODEL>
3

>  <REMARK>
 VINA RESULT:      -6.1      3.573      4.712
  Name = 
  2 active torsions:
  status: ('A' for Active; 'I' for Inactive)
    1  A    between atoms: C_5  and  C_30
    2  A    between atoms: C_10  and  C_16
                            x       y       z     vdW  Elec       q    Type
                         _______ _______ _______ _____ _____    ______ ____

>  <TORSDO>
F 2

$$$$
=
 OpenBabel11122411023D

 31 36  0  0  1  0  0  0  0  0999 V2000
  183.6090  178.7290  143.3870 C   0  0  0  0  0  0  0  0  0  0  0  0
  182.7470  177.3830  139.9440 C   0  0  2  0  0  3  0  0  0  0  0  0
  181.5210  178.2020  139.4380 C   0  0  1  0  0  3  0  0  0  0  0  0
  180.1300  180.2810  139.4790 C   0  0  1  0  0  3  0  0  0  0  0  0
  183.5090  178.0410  141.0640 C   0  0  0  0  0  0  0  0  0  0  0  0
  184.8200  179.3830  143.1450 C   0  0  0  0  0  3  0  0  0  0  0  0
  181.4780  179.6730  139.8670 C   0  0  0  0  0  2  0  0  0  0  0  0
  184.5280  178.1250  138.3400 C   0  0  2  0  0  3  0  0  0  0  0  0
  183.0670  178.7460  144.6290 F   0  0  0  0  0  0  0  0  0  0  0  0
  181.4980  176.6950  137.4470 C   0  0  0  0  0  2  0  0  0  0  0  0
  180.1060  181.6280  139.8380 O   0  0  0  0  0  1  0  0  0  0  0  0
  185.4200  178.6280  139.4820 C   0  0  0  0  0  2  0  0  0  0  0  0
  183.6930  176.9230  138.8180 C   0  0  2  0  0  3  0  0  0  0  0  0
  182.9540  178.0630  142.3500 C   0  0  0  0  0  3  0  0  0  0  0  0
  179.8860  180.1500  137.9740 C   0  0  0  0  0  2  0  0  0  0  0  0
  184.7280  178.7080  140.8170 C   0  0  0  0  0  0  0  0  0  0  0  0
  185.3790  179.3660  141.8640 C   0  0  0  0  0  3  0  0  0  0  0  0
  182.9330  176.2080  137.6800 C   0  0  0  0  0  2  0  0  0  0  0  0
  181.3350  178.1280  137.9180 C   0  0  1  0  0  3  0  0  0  0  0  0
  179.9720  178.6880  137.5370 C   0  0  0  0  0  2  0  0  0  0  0  0
  185.8630  176.4700  137.2800 O   0  0  0  0  0  0  0  0  0  0  0  0
  186.7950  177.4750  137.5930 C   0  0  2  0  0  3  0  0  0  0  0  0
  185.4190  177.7990  137.1480 C   0  0  2  0  0  3  0  0  0  0  0  0
  190.1980  176.2980  137.3380 C   0  0  1  0  0  3  0  0  0  0  0  0
  188.2990  176.1530  136.1020 C   0  0  0  0  0  2  0  0  0  0  0  0
  188.6790  179.7530  137.2190 N   0  0  0  0  0  1  0  0  0  0  0  0
  191.0820  175.5900  138.3430 C   0  0  0  0  0  1  0  0  0  0  0  0
  188.9880  175.5890  137.1960 O   0  0  0  0  0  0  0  0  0  0  0  0
  189.0390  178.4140  136.7850 C   0  0  2  0  0  3  0  0  0  0  0  0
  187.8050  177.5630  136.4490 C   0  0  2  0  0  3  0  0  0  0  0  0
  189.9240  177.7240  137.8190 C   0  0  0  0  0  2  0  0  0  0  0  0
  1  9  1  0  0  0  0
  2  5  1  1  0  0  0
  3  7  1  6  0  0  0
  3  2  1  0  0  0  0
  4 11  1  6  0  0  0
  4  7  1  0  0  0  0
  5 14  1  0  0  0  0
  6  1  1  0  0  0  0
  8 13  1  0  0  0  0
  8 12  1  1  0  0  0
 10 18  1  0  0  0  0
 12 16  1  0  0  0  0
 13 18  1  6  0  0  0
 13  2  1  0  0  0  0
 14  1  2  0  0  0  0
 15  4  1  0  0  0  0
 16  5  2  0  0  0  0
 16 17  1  0  0  0  0
 17  6  2  0  0  0  0
 19 10  1  1  0  0  0
 19  3  1  0  0  0  0
 20 19  1  0  0  0  0
 20 15  1  0  0  0  0
 22 21  1  6  0  0  0
 23 21  1  1  0  0  0
 23 22  1  0  0  0  0
 23  8  1  0  0  0  0
 24 31  1  0  0  0  0
 24 27  1  1  0  0  0
 25 28  1  0  0  0  0
 28 24  1  0  0  0  0
 29 26  1  1  0  0  0
 29 31  1  0  0  0  0
 30 25  1  1  0  0  0
 30 29  1  0  0  0  0
 30 22  1  0  0  0  0
M  END
>  <MODEL>
4

>  <REMARK>
 VINA RESULT:      -5.6      5.250      8.610
  Name = 
  2 active torsions:
  status: ('A' for Active; 'I' for Inactive)
    1  A    between atoms: C_5  and  C_30
    2  A    between atoms: C_10  and  C_16
                            x       y       z     vdW  Elec       q    Type
                         _______ _______ _______ _____ _____    ______ ____

>  <TORSDO>
F 2

$$$$
=
 OpenBabel11122411023D

 31 36  0  0  1  0  0  0  0  0999 V2000
  191.2090  177.3930  140.4080 C   0  0  0  0  0  0  0  0  0  0  0  0
  189.1330  177.8090  137.2570 C   0  0  2  0  0  3  0  0  0  0  0  0
  189.1500  176.4330  136.5240 C   0  0  1  0  0  3  0  0  0  0  0  0
  189.4040  173.9450  136.5820 C   0  0  1  0  0  3  0  0  0  0  0  0
  189.5090  177.7390  138.7130 C   0  0  0  0  0  0  0  0  0  0  0  0
  190.2320  177.4500  141.4050 C   0  0  0  0  0  3  0  0  0  0  0  0
  189.1760  175.1960  137.4290 C   0  0  0  0  0  2  0  0  0  0  0  0
  186.7200  177.9800  137.9210 C   0  0  2  0  0  3  0  0  0  0  0  0
  192.5070  177.1950  140.7420 F   0  0  0  0  0  0  0  0  0  0  0  0
  187.8790  177.5410  134.6830 C   0  0  0  0  0  2  0  0  0  0  0  0
  189.3920  172.8180  137.4020 O   0  0  0  0  0  1  0  0  0  0  0  0
  187.0830  178.1110  139.4050 C   0  0  0  0  0  2  0  0  0  0  0  0
  187.8280  178.6030  137.0530 C   0  0  2  0  0  3  0  0  0  0  0  0
  190.8480  177.5340  139.0660 C   0  0  0  0  0  3  0  0  0  0  0  0
  188.3190  173.8080  135.5100 C   0  0  0  0  0  2  0  0  0  0  0  0
  188.5200  177.7880  139.7190 C   0  0  0  0  0  0  0  0  0  0  0  0
  188.8920  177.6540  141.0600 C   0  0  0  0  0  3  0  0  0  0  0  0
  187.4500  178.7220  135.5610 C   0  0  0  0  0  2  0  0  0  0  0  0
  188.0100  176.2770  135.5110 C   0  0  1  0  0  3  0  0  0  0  0  0
  188.2630  175.0590  134.6340 C   0  0  0  0  0  2  0  0  0  0  0  0
  184.9620  179.2340  138.9120 O   0  0  0  0  0  0  0  0  0  0  0  0
  184.3380  178.0150  138.5920 C   0  0  2  0  0  3  0  0  0  0  0  0
  185.3570  178.6270  137.7060 C   0  0  2  0  0  3  0  0  0  0  0  0
  181.2770  178.4680  140.4500 C   0  0  1  0  0  3  0  0  0  0  0  0
  182.4080  179.5810  138.8270 C   0  0  0  0  0  2  0  0  0  0  0  0
  182.3490  175.9120  137.8860 N   0  0  0  0  0  1  0  0  0  0  0  0
  180.9970  178.3890  141.9370 C   0  0  0  0  0  1  0  0  0  0  0  0
  182.3310  179.3740  140.2200 O   0  0  0  0  0  0  0  0  0  0  0  0
  181.9180  177.1870  138.4320 C   0  0  2  0  0  3  0  0  0  0  0  0
  182.9140  178.3150  138.1240 C   0  0  2  0  0  3  0  0  0  0  0  0
  181.6480  177.0790  139.9290 C   0  0  0  0  0  2  0  0  0  0  0  0
  1  9  1  0  0  0  0
  1  6  1  0  0  0  0
  2  5  1  1  0  0  0
  3  2  1  0  0  0  0
  3  7  1  1  0  0  0
  4 11  1  1  0  0  0
  4  7  1  0  0  0  0
  5 14  1  0  0  0  0
  5 16  2  0  0  0  0
  8 12  1  1  0  0  0
 10 19  1  0  0  0  0
 10 18  1  0  0  0  0
 12 16  1  0  0  0  0
 13 18  1  6  0  0  0
 13  2  1  0  0  0  0
 13  8  1  0  0  0  0
 14  1  2  0  0  0  0
 15  4  1  0  0  0  0
 16 17  1  0  0  0  0
 17  6  2  0  0  0  0
 19 20  1  6  0  0  0
 19  3  1  0  0  0  0
 20 15  1  0  0  0  0
 22 21  1  1  0  0  0
 23  8  1  0  0  0  0
 23 22  1  0  0  0  0
 23 21  1  1  0  0  0
 24 27  1  1  0  0  0
 25 28  1  0  0  0  0
 28 24  1  0  0  0  0
 29 26  1  1  0  0  0
 29 31  1  0  0  0  0
 30 29  1  0  0  0  0
 30 22  1  0  0  0  0
 30 25  1  1  0  0  0
 31 24  1  0  0  0  0
M  END
>  <MODEL>
5

>  <REMARK>
 VINA RESULT:      -5.4      3.692      5.037
  Name = 
  2 active torsions:
  status: ('A' for Active; 'I' for Inactive)
    1  A    between atoms: C_5  and  C_30
    2  A    between atoms: C_10  and  C_16
                            x       y       z     vdW  Elec       q    Type
                         _______ _______ _______ _____ _____    ______ ____

>  <TORSDO>
F 2

$$$$
=
 OpenBabel11122411023D

 31 36  0  0  1  0  0  0  0  0999 V2000
  190.7370  176.9910  137.8830 C   0  0  0  0  0  0  0  0  0  0  0  0
  187.4060  176.7430  136.0790 C   0  0  2  0  0  3  0  0  0  0  0  0
  187.1100  175.2250  135.8910 C   0  0  1  0  0  3  0  0  0  0  0  0
  187.4260  172.8460  136.6000 C   0  0  1  0  0  3  0  0  0  0  0  0
  188.4280  177.0470  137.1420 C   0  0  0  0  0  0  0  0  0  0  0  0
  190.3470  177.4550  139.1420 C   0  0  0  0  0  3  0  0  0  0  0  0
  187.5940  174.3060  137.0190 C   0  0  0  0  0  2  0  0  0  0  0  0
  185.5910  177.4000  137.6830 C   0  0  2  0  0  3  0  0  0  0  0  0
  192.0430  176.7360  137.6300 F   0  0  0  0  0  0  0  0  0  0  0  0
  185.0900  175.9080  134.5940 C   0  0  0  0  0  2  0  0  0  0  0  0
  187.8340  172.0130  137.6400 O   0  0  0  0  0  1  0  0  0  0  0  0
  186.6110  177.9050  138.7110 C   0  0  0  0  0  2  0  0  0  0  0  0
  186.1390  177.6040  136.2590 C   0  0  2  0  0  3  0  0  0  0  0  0
  189.7800  176.7850  136.8870 C   0  0  0  0  0  3  0  0  0  0  0  0
  185.9680  172.5450  136.2470 C   0  0  0  0  0  2  0  0  0  0  0  0
  188.0330  177.5080  138.4170 C   0  0  0  0  0  0  0  0  0  0  0  0
  189.0000  177.7180  139.4040 C   0  0  0  0  0  3  0  0  0  0  0  0
  185.0970  177.3360  135.1520 C   0  0  0  0  0  2  0  0  0  0  0  0
  185.6310  174.9290  135.6180 C   0  0  1  0  0  3  0  0  0  0  0  0
  185.4700  173.4890  135.1520 C   0  0  0  0  0  2  0  0  0  0  0  0
  183.9600  178.0250  139.2940 O   0  0  0  0  0  0  0  0  0  0  0  0
  183.2400  177.1860  138.4250 C   0  0  2  0  0  3  0  0  0  0  0  0
  184.2730  178.1250  137.9250 C   0  0  2  0  0  3  0  0  0  0  0  0
  180.0430  175.8850  139.4770 C   0  0  1  0  0  3  0  0  0  0  0  0
  181.1730  177.8450  139.6580 C   0  0  0  0  0  2  0  0  0  0  0  0
  181.4870  176.6580  136.0750 N   0  0  0  0  0  1  0  0  0  0  0  0
  179.6780  174.5930  140.1780 C   0  0  0  0  0  1  0  0  0  0  0  0
  181.0270  176.5610  140.2240 O   0  0  0  0  0  0  0  0  0  0  0  0
  180.9140  176.8890  137.3900 C   0  0  2  0  0  3  0  0  0  0  0  0
  181.8280  177.7510  138.2750 C   0  0  2  0  0  3  0  0  0  0  0  0
  180.5630  175.5720  138.0740 C   0  0  0  0  0  2  0  0  0  0  0  0
  1  6  1  0  0  0  0
  2 13  1  0  0  0  0
  2  5  1  1  0  0  0
  3  2  1  0  0  0  0
  3  7  1  1  0  0  0
  4  7  1  0  0  0  0
  4 11  1  1  0  0  0
  5 16  2  0  0  0  0
  6 17  2  0  0  0  0
  8 23  1  0  0  0  0
  8 12  1  1  0  0  0
  9  1  1  0  0  0  0
 10 18  1  0  0  0  0
 13 18  1  6  0  0  0
 13  8  1  0  0  0  0
 14  5  1  0  0  0  0
 14  1  2  0  0  0  0
 15  4  1  0  0  0  0
 16 12  1  0  0  0  0
 16 17  1  0  0  0  0
 19 10  1  6  0  0  0
 19  3  1  0  0  0  0
 20 19  1  0  0  0  0
 20 15  1  0  0  0  0
 22 21  1  1  0  0  0
 23 22  1  0  0  0  0
 23 21  1  1  0  0  0
 24 27  1  1  0  0  0
 24 28  1  0  0  0  0
 25 28  1  0  0  0  0
 29 26  1  6  0  0  0
 29 31  1  0  0  0  0
 29 30  1  0  0  0  0
 30 22  1  0  0  0  0
 30 25  1  1  0  0  0
 31 24  1  0  0  0  0
M  END
>  <MODEL>
6

>  <REMARK>
 VINA RESULT:      -5.3      4.061      5.488
  Name = 
  2 active torsions:
  status: ('A' for Active; 'I' for Inactive)
    1  A    between atoms: C_5  and  C_30
    2  A    between atoms: C_10  and  C_16
                            x       y       z     vdW  Elec       q    Type
                         _______ _______ _______ _____ _____    ______ ____

>  <TORSDO>
F 2

$$$$
=
 OpenBabel11122411023D

 31 36  0  0  1  0  0  0  0  0999 V2000
  179.8060  179.4830  142.7070 C   0  0  0  0  0  0  0  0  0  0  0  0
  182.5430  179.1010  140.1040 C   0  0  2  0  0  3  0  0  0  0  0  0
  183.8930  179.0360  140.8800 C   0  0  1  0  0  3  0  0  0  0  0  0
  185.1760  178.5400  142.9700 C   0  0  1  0  0  3  0  0  0  0  0  0
  181.3310  178.8060  140.9460 C   0  0  0  0  0  0  0  0  0  0  0  0
  179.1730  178.2400  142.6410 C   0  0  0  0  0  3  0  0  0  0  0  0
  183.8450  178.3400  142.2450 C   0  0  0  0  0  2  0  0  0  0  0  0
  182.4110  176.7820  139.1560 C   0  0  2  0  0  3  0  0  0  0  0  0
  179.3790  180.4150  143.5920 F   0  0  0  0  0  0  0  0  0  0  0  0
  185.0250  179.0040  138.6540 C   0  0  0  0  0  2  0  0  0  0  0  0
  185.1430  177.8780  144.1960 O   0  0  0  0  0  1  0  0  0  0  0  0
  181.0670  176.5200  139.8480 C   0  0  0  0  0  2  0  0  0  0  0  0
  182.5360  178.2750  138.8030 C   0  0  2  0  0  3  0  0  0  0  0  0
  180.8840  179.7640  141.8640 C   0  0  0  0  0  3  0  0  0  0  0  0
  186.3390  178.0050  142.1310 C   0  0  0  0  0  2  0  0  0  0  0  0
  180.6960  177.5460  140.8850 C   0  0  0  0  0  0  0  0  0  0  0  0
  179.6140  177.2770  141.7280 C   0  0  0  0  0  3  0  0  0  0  0  0
  183.7500  178.5970  137.9060 C   0  0  0  0  0  2  0  0  0  0  0  0
  185.0310  178.4230  140.0560 C   0  0  1  0  0  3  0  0  0  0  0  0
  186.3620  178.6670  140.7540 C   0  0  0  0  0  2  0  0  0  0  0  0
  182.6250  174.5420  138.3930 O   0  0  0  0  0  0  0  0  0  0  0  0
  183.8020  175.1500  137.9220 C   0  0  2  0  0  3  0  0  0  0  0  0
  182.5060  175.8690  137.9400 C   0  0  2  0  0  3  0  0  0  0  0  0
  186.4190  172.9170  136.8320 C   0  0  1  0  0  3  0  0  0  0  0  0
  184.1610  173.0420  136.6340 C   0  0  0  0  0  2  0  0  0  0  0  0
  185.5750  176.4860  135.9350 N   0  0  0  0  0  1  0  0  0  0  0  0
  187.5660  172.2840  137.5930 C   0  0  0  0  0  1  0  0  0  0  0  0
  185.2060  172.6270  137.4860 O   0  0  0  0  0  0  0  0  0  0  0  0
  185.4710  175.0380  135.9800 C   0  0  2  0  0  3  0  0  0  0  0  0
  184.1200  174.5720  136.5420 C   0  0  2  0  0  3  0  0  0  0  0  0
  186.6340  174.4290  136.7560 C   0  0  0  0  0  2  0  0  0  0  0  0
  1  9  1  0  0  0  0
  2  3  1  0  0  0  0
  2  5  1  1  0  0  0
  3  7  1  1  0  0  0
  4 11  1  1  0  0  0
  5 14  1  0  0  0  0
  6  1  1  0  0  0  0
  7  4  1  0  0  0  0
  8 12  1  6  0  0  0
 12 16  1  0  0  0  0
 13 18  1  1  0  0  0
 13  8  1  0  0  0  0
 13  2  1  0  0  0  0
 14  1  2  0  0  0  0
 15  4  1  0  0  0  0
 16  5  2  0  0  0  0
 16 17  1  0  0  0  0
 17  6  2  0  0  0  0
 18 10  1  0  0  0  0
 19 10  1  6  0  0  0
 19 20  1  0  0  0  0
 19  3  1  0  0  0  0
 20 15  1  0  0  0  0
 22 23  1  0  0  0  0
 22 21  1  1  0  0  0
 23 21  1  1  0  0  0
 23  8  1  0  0  0  0
 24 28  1  0  0  0  0
 24 27  1  1  0  0  0
 25 28  1  0  0  0  0
 29 26  1  1  0  0  0
 29 30  1  0  0  0  0
 29 31  1  0  0  0  0
 30 25  1  1  0  0  0
 30 22  1  0  0  0  0
 31 24  1  0  0  0  0
M  END
>  <MODEL>
7

>  <REMARK>
 VINA RESULT:      -5.2      5.386      9.828
  Name = 
  2 active torsions:
  status: ('A' for Active; 'I' for Inactive)
    1  A    between atoms: C_5  and  C_30
    2  A    between atoms: C_10  and  C_16
                            x       y       z     vdW  Elec       q    Type
                         _______ _______ _______ _____ _____    ______ ____

>  <TORSDO>
F 2

$$$$
=
 OpenBabel11122411023D

 31 36  0  0  1  0  0  0  0  0999 V2000
  180.7930  179.0720  140.4420 C   0  0  0  0  0  0  0  0  0  0  0  0
  183.9210  178.3960  138.3990 C   0  0  2  0  0  3  0  0  0  0  0  0
  185.1350  178.6420  139.3450 C   0  0  1  0  0  3  0  0  0  0  0  0
  186.1060  178.7560  141.6480 C   0  0  1  0  0  3  0  0  0  0  0  0
  182.6150  178.1760  139.1150 C   0  0  0  0  0  0  0  0  0  0  0  0
  180.2610  177.7880  140.5850 C   0  0  0  0  0  3  0  0  0  0  0  0
  184.9210  178.2670  140.8160 C   0  0  0  0  0  2  0  0  0  0  0  0
  184.0910  175.9230  138.0160 C   0  0  2  0  0  3  0  0  0  0  0  0
  180.1720  180.1300  141.0160 F   0  0  0  0  0  0  0  0  0  0  0  0
  186.5990  178.2270  137.3660 C   0  0  0  0  0  2  0  0  0  0  0  0
  185.9270  178.3830  142.9790 O   0  0  0  0  0  1  0  0  0  0  0  0
  182.6770  175.6880  138.5600 C   0  0  0  0  0  2  0  0  0  0  0  0
  184.1710  177.3040  137.3410 C   0  0  2  0  0  3  0  0  0  0  0  0
  181.9680  179.2650  139.7120 C   0  0  0  0  0  3  0  0  0  0  0  0
  187.4190  178.1660  141.1250 C   0  0  0  0  0  2  0  0  0  0  0  0
  182.0820  176.8770  139.2660 C   0  0  0  0  0  0  0  0  0  0  0  0
  180.9010  176.6960  139.9930 C   0  0  0  0  0  3  0  0  0  0  0  0
  185.4860  177.5390  136.5670 C   0  0  0  0  0  2  0  0  0  0  0  0
  186.4260  177.9780  138.8520 C   0  0  1  0  0  3  0  0  0  0  0  0
  187.6120  178.5030  139.6470 C   0  0  0  0  0  2  0  0  0  0  0  0
  184.8120  173.6640  137.8500 O   0  0  0  0  0  0  0  0  0  0  0  0
  185.8540  174.3740  137.2280 C   0  0  2  0  0  3  0  0  0  0  0  0
  184.4350  174.7760  137.0730 C   0  0  2  0  0  3  0  0  0  0  0  0
  189.1840  173.3670  136.2690 C   0  0  1  0  0  3  0  0  0  0  0  0
  187.1690  172.3620  136.5570 C   0  0  0  0  0  2  0  0  0  0  0  0
  186.5990  175.5500  134.5940 N   0  0  0  0  0  1  0  0  0  0  0  0
  190.5300  173.6550  136.9020 C   0  0  0  0  0  1  0  0  0  0  0  0
  188.3210  172.8140  137.2350 O   0  0  0  0  0  0  0  0  0  0  0  0
  187.2480  174.3440  135.0770 C   0  0  2  0  0  3  0  0  0  0  0  0
  186.3510  173.5510  136.0390 C   0  0  2  0  0  3  0  0  0  0  0  0
  188.5970  174.6650  135.7140 C   0  0  0  0  0  2  0  0  0  0  0  0
  1  6  1  0  0  0  0
  1  9  1  0  0  0  0
  2  5  1  1  0  0  0
  2  3  1  0  0  0  0
  3  7  1  1  0  0  0
  4 11  1  1  0  0  0
  5 16  2  0  0  0  0
  5 14  1  0  0  0  0
  7  4  1  0  0  0  0
  8 12  1  6  0  0  0
 12 16  1  0  0  0  0
 13 18  1  1  0  0  0
 13  8  1  0  0  0  0
 13  2  1  0  0  0  0
 14  1  2  0  0  0  0
 15  4  1  0  0  0  0
 16 17  1  0  0  0  0
 17  6  2  0  0  0  0
 18 10  1  0  0  0  0
 19 10  1  6  0  0  0
 19  3  1  0  0  0  0
 19 20  1  0  0  0  0
 20 15  1  0  0  0  0
 22 21  1  1  0  0  0
 23 22  1  0  0  0  0
 23 21  1  1  0  0  0
 23  8  1  0  0  0  0
 24 27  1  1  0  0  0
 24 28  1  0  0  0  0
 25 28  1  0  0  0  0
 29 26  1  1  0  0  0
 29 31  1  0  0  0  0
 29 30  1  0  0  0  0
 30 25  1  1  0  0  0
 30 22  1  0  0  0  0
 31 24  1  0  0  0  0
M  END
>  <MODEL>
8

>  <REMARK>
 VINA RESULT:      -5.2      4.584      8.774
  Name = 
  2 active torsions:
  status: ('A' for Active; 'I' for Inactive)
    1  A    between atoms: C_5  and  C_30
    2  A    between atoms: C_10  and  C_16
                            x       y       z     vdW  Elec       q    Type
                         _______ _______ _______ _____ _____    ______ ____

>  <TORSDO>
F 2

$$$$
=
 OpenBabel11122411023D

 31 36  0  0  1  0  0  0  0  0999 V2000
  188.5050  177.1770  136.7370 C   0  0  0  0  0  0  0  0  0  0  0  0
  184.8140  176.8530  135.9100 C   0  0  2  0  0  3  0  0  0  0  0  0
  184.4410  175.3530  136.1080 C   0  0  1  0  0  3  0  0  0  0  0  0
  184.8690  173.1300  137.1750 C   0  0  1  0  0  3  0  0  0  0  0  0
  186.0850  177.2700  136.6000 C   0  0  0  0  0  0  0  0  0  0  0  0
  188.4690  177.8950  137.9350 C   0  0  0  0  0  3  0  0  0  0  0  0
  185.1780  174.6260  137.2390 C   0  0  0  0  0  2  0  0  0  0  0  0
  183.4970  177.9330  137.7520 C   0  0  2  0  0  3  0  0  0  0  0  0
  189.6930  176.7810  136.2210 F   0  0  0  0  0  0  0  0  0  0  0  0
  182.1710  175.9350  135.2480 C   0  0  0  0  0  2  0  0  0  0  0  0
  185.5120  172.4760  138.2250 O   0  0  0  0  0  1  0  0  0  0  0  0
  184.7620  178.5410  138.3710 C   0  0  0  0  0  2  0  0  0  0  0  0
  183.6600  177.8260  136.2260 C   0  0  2  0  0  3  0  0  0  0  0  0
  187.3170  176.8630  136.0730 C   0  0  0  0  0  3  0  0  0  0  0  0
  183.3620  172.8810  137.2650 C   0  0  0  0  0  2  0  0  0  0  0  0
  186.0480  177.9890  137.8150 C   0  0  0  0  0  0  0  0  0  0  0  0
  187.2430  178.3050  138.4680 C   0  0  0  0  0  3  0  0  0  0  0  0
  182.3600  177.4370  135.4910 C   0  0  0  0  0  2  0  0  0  0  0  0
  182.9350  175.1250  136.2780 C   0  0  1  0  0  3  0  0  0  0  0  0
  182.6210  173.6400  136.1640 C   0  0  0  0  0  2  0  0  0  0  0  0
  182.6070  179.3940  139.4020 O   0  0  0  0  0  0  0  0  0  0  0  0
  181.7250  178.2990  139.4410 C   0  0  2  0  0  3  0  0  0  0  0  0
  182.3060  178.7880  138.1680 C   0  0  2  0  0  3  0  0  0  0  0  0
  179.7620  178.5940  142.4540 C   0  0  1  0  0  3  0  0  0  0  0  0
  180.3550  179.9420  140.7270 C   0  0  0  0  0  2  0  0  0  0  0  0
  179.2730  176.6140  139.2770 N   0  0  0  0  0  1  0  0  0  0  0  0
  180.0700  178.1990  143.8840 C   0  0  0  0  0  1  0  0  0  0  0  0
  180.7880  179.4260  141.9660 O   0  0  0  0  0  0  0  0  0  0  0  0
  179.3250  177.7620  140.1650 C   0  0  2  0  0  3  0  0  0  0  0  0
  180.3100  178.8320  139.6690 C   0  0  2  0  0  3  0  0  0  0  0  0
  179.6430  177.3350  141.5940 C   0  0  0  0  0  2  0  0  0  0  0  0
  1  6  1  0  0  0  0
  2  3  1  0  0  0  0
  2 13  1  0  0  0  0
  2  5  1  1  0  0  0
  3 19  1  0  0  0  0
  3  7  1  1  0  0  0
  4  7  1  0  0  0  0
  4 15  1  0  0  0  0
  4 11  1  1  0  0  0
  5 16  2  0  0  0  0
  6 17  2  0  0  0  0
  8 23  1  0  0  0  0
  8 12  1  1  0  0  0
  9  1  1  0  0  0  0
 10 18  1  0  0  0  0
 13 18  1  6  0  0  0
 13  8  1  0  0  0  0
 14  5  1  0  0  0  0
 14  1  2  0  0  0  0
 16 12  1  0  0  0  0
 16 17  1  0  0  0  0
 19 10  1  6  0  0  0
 20 19  1  0  0  0  0
 20 15  1  0  0  0  0
 22 21  1  1  0  0  0
 22 30  1  0  0  0  0
 23 21  1  1  0  0  0
 23 22  1  0  0  0  0
 24 27  1  1  0  0  0
 25 28  1  0  0  0  0
 28 24  1  0  0  0  0
 29 26  1  6  0  0  0
 29 31  1  0  0  0  0
 30 29  1  0  0  0  0
 30 25  1  1  0  0  0
 31 24  1  0  0  0  0
M  END
>  <MODEL>
9

>  <REMARK>
 VINA RESULT:      -5.2      4.899      6.517
  Name = 
  2 active torsions:
  status: ('A' for Active; 'I' for Inactive)
    1  A    between atoms: C_5  and  C_30
    2  A    between atoms: C_10  and  C_16
                            x       y       z     vdW  Elec       q    Type
                         _______ _______ _______ _____ _____    ______ ____

>  <TORSDO>
F 2

$$$$
