=
 OpenBabel11122410443D

 32 37  0  0  1  0  0  0  0  0999 V2000
  188.9610  177.6870  135.7990 C   0  0  0  0  0  2  0  0  0  0  0  0
  188.5440  177.4890  141.2520 C   0  0  2  0  0  3  0  0  0  0  0  0
  190.8900  175.5570  144.3560 C   0  0  0  0  0  2  0  0  0  0  0  0
  191.9320  176.5900  144.7900 C   0  0  0  0  0  2  0  0  0  0  0  0
  186.7020  178.2810  142.7760 C   0  0  0  0  0  0  0  0  0  0  0  0
  186.2640  178.3280  144.1720 C   0  0  0  0  0  0  0  0  0  0  0  0
  188.2640  177.3020  138.7670 C   0  0  2  0  0  3  0  0  0  0  0  0
  190.4190  176.5630  139.8850 C   0  0  0  0  0  2  0  0  0  0  0  0
  186.3910  178.1040  146.3690 N   0  0  0  0  0  0  0  0  0  0  0  0
  190.0800  176.1090  137.4810 C   0  0  0  0  0  2  0  0  0  0  0  0
  190.4940  175.7130  142.8790 C   0  0  0  0  0  2  0  0  0  0  0  0
  190.0580  177.4650  141.0580 C   0  0  2  0  0  3  0  0  0  0  0  0
  190.8060  177.1130  142.3250 C   0  0  1  0  0  3  0  0  0  0  0  0
  189.0430  178.4610  143.6300 C   0  0  2  0  0  3  0  0  0  0  0  0
  185.0110  178.2810  146.1740 N   0  0  0  0  0  0  0  0  0  0  0  0
  187.7910  177.2160  136.4040 O   0  0  0  0  0  0  0  0  0  0  0  0
  189.7890  177.1040  138.6000 C   0  0  1  0  0  3  0  0  0  0  0  0
  184.8760  178.4360  144.7130 C   0  0  0  0  0  3  0  0  0  0  0  0
  187.6510  178.0000  137.5550 C   0  0  0  0  0  2  0  0  0  0  0  0
  190.1500  176.7680  136.0970 C   0  0  1  0  0  3  0  0  0  0  0  0
  191.3980  178.0220  144.6200 C   0  0  0  0  0  2  0  0  0  0  0  0
  190.5470  178.2110  143.3480 C   0  0  1  0  0  3  0  0  0  0  0  0
  188.5450  177.8260  144.9480 C   0  0  0  0  0  2  0  0  0  0  0  0
  187.9500  178.1440  140.0060 C   0  0  0  0  0  2  0  0  0  0  0  0
  185.8480  178.3020  141.8500 O   0  0  0  0  0  0  0  0  0  0  0  0
  186.9800  177.8520  147.6720 C   0  0  0  0  0  1  0  0  0  0  0  0
  188.1190  178.1640  142.4970 N   0  0  0  0  0  0  0  0  0  0  0  0
  187.1000  178.1550  145.1540 C   0  0  0  0  0  0  0  0  0  0  0  0
  190.2470  175.7030  135.0170 C   0  0  0  0  0  2  0  0  0  0  0  0
  191.5980  175.0710  135.0150 C   0  0  0  0  0  0  0  0  0  0  0  0
  192.6240  175.7800  134.8470 O   0  0  0  0  0  0  0  0  0  0  0  0
  191.7270  173.7060  135.2320 O   0  0  0  0  0  1  0  0  0  0  0  0
  1 20  1  0  0  0  0
  1 16  1  0  0  0  0
  2 24  1  6  0  0  0
  2 27  1  0  0  0  0
  3  4  1  0  0  0  0
  5  6  1  0  0  0  0
  6 18  1  0  0  0  0
  6 28  2  0  0  0  0
  7 19  1  6  0  0  0
  7 24  1  0  0  0  0
  9 26  1  0  0  0  0
 11  3  1  0  0  0  0
 12  8  1  6  0  0  0
 12  2  1  0  0  0  0
 12 13  1  0  0  0  0
 13 11  1  1  0  0  0
 13 22  1  0  0  0  0
 14 23  1  1  0  0  0
 15  9  1  0  0  0  0
 16 19  1  0  0  0  0
 17 10  1  6  0  0  0
 17  7  1  0  0  0  0
 17  8  1  0  0  0  0
 18 15  2  0  0  0  0
 20 29  1  6  0  0  0
 20 10  1  0  0  0  0
 21  4  1  0  0  0  0
 22 14  1  0  0  0  0
 22 21  1  1  0  0  0
 23 28  1  0  0  0  0
 25  5  2  0  0  0  0
 27  5  1  0  0  0  0
 27 14  1  0  0  0  0
 28  9  1  0  0  0  0
 30 29  1  0  0  0  0
 30 32  1  0  0  0  0
 31 30  2  0  0  0  0
M  END
>  <MODEL>
1

>  <REMARK>
 VINA RESULT:      -8.3      0.000      0.000
  Name = 
  2 active torsions:
  status: ('A' for Active; 'I' for Inactive)
    1  A    between atoms: C_20  and  C_29
    2  A    between atoms: C_29  and  C_30
                            x       y       z     vdW  Elec       q    Type
                         _______ _______ _______ _____ _____    ______ ____

>  <TORSDO>
F 2

$$$$
=
 OpenBabel11122410443D

 32 37  0  0  1  0  0  0  0  0999 V2000
  190.1970  178.1160  144.8300 C   0  0  0  0  0  2  0  0  0  0  0  0
  186.8580  177.7470  140.5090 C   0  0  2  0  0  3  0  0  0  0  0  0
  182.5380  177.5780  140.0820 C   0  0  0  0  0  2  0  0  0  0  0  0
  182.0840  179.0290  139.9090 C   0  0  0  0  0  2  0  0  0  0  0  0
  187.3750  177.3170  138.0820 C   0  0  0  0  0  0  0  0  0  0  0  0
  186.7690  177.1070  136.7660 C   0  0  0  0  0  0  0  0  0  0  0  0
  188.5450  177.4140  142.3350 C   0  0  2  0  0  3  0  0  0  0  0  0
  186.1600  178.0880  142.8830 C   0  0  0  0  0  2  0  0  0  0  0  0
  185.1760  177.0140  135.2340 N   0  0  0  0  0  0  0  0  0  0  0  0
  187.7090  177.5060  144.7160 C   0  0  0  0  0  2  0  0  0  0  0  0
  183.8030  177.4620  140.9470 C   0  0  0  0  0  2  0  0  0  0  0  0
  186.0370  178.6140  141.4590 C   0  0  2  0  0  3  0  0  0  0  0  0
  184.6010  178.7760  141.0120 C   0  0  1  0  0  3  0  0  0  0  0  0
  185.4610  178.8410  138.5860 C   0  0  2  0  0  3  0  0  0  0  0  0
  186.2340  176.3470  134.5940 N   0  0  0  0  0  0  0  0  0  0  0  0
  190.3170  177.0520  143.9290 O   0  0  0  0  0  0  0  0  0  0  0  0
  187.6200  178.1480  143.3350 C   0  0  1  0  0  3  0  0  0  0  0  0
  187.3270  176.3830  135.5840 C   0  0  0  0  0  3  0  0  0  0  0  0
  190.0180  177.6130  142.6820 C   0  0  0  0  0  2  0  0  0  0  0  0
  188.8550  178.0710  145.5660 C   0  0  1  0  0  3  0  0  0  0  0  0
  183.1710  179.8740  139.2250 C   0  0  0  0  0  2  0  0  0  0  0  0
  184.6000  179.5190  139.6830 C   0  0  1  0  0  3  0  0  0  0  0  0
  184.6330  178.0440  137.5530 C   0  0  0  0  0  2  0  0  0  0  0  0
  188.3230  177.9200  140.9080 C   0  0  0  0  0  2  0  0  0  0  0  0
  188.5070  176.8270  138.3360 O   0  0  0  0  0  0  0  0  0  0  0  0
  183.8600  177.1640  134.6380 C   0  0  0  0  0  1  0  0  0  0  0  0
  186.6260  178.0520  139.0810 N   0  0  0  0  0  0  0  0  0  0  0  0
  185.5420  177.4630  136.5160 C   0  0  0  0  0  0  0  0  0  0  0  0
  189.0070  177.2590  146.8420 C   0  0  0  0  0  2  0  0  0  0  0  0
  188.5550  178.0430  148.0280 C   0  0  0  0  0  0  0  0  0  0  0  0
  189.3580  178.2860  148.9650 O   0  0  0  0  0  1  0  0  0  0  0  0
  187.2570  178.5330  148.0830 O   0  0  0  0  0  0  0  0  0  0  0  0
  1 20  1  0  0  0  0
  2 24  1  1  0  0  0
  2 12  1  0  0  0  0
  3 11  1  0  0  0  0
  4  3  1  0  0  0  0
  5 25  2  0  0  0  0
  5 27  1  0  0  0  0
  6  5  1  0  0  0  0
  7 24  1  6  0  0  0
  7 19  1  0  0  0  0
  7 17  1  0  0  0  0
  9 28  1  0  0  0  0
 10 20  1  0  0  0  0
 12  8  1  1  0  0  0
 13 11  1  6  0  0  0
 13 12  1  0  0  0  0
 14 23  1  1  0  0  0
 14 27  1  0  0  0  0
 14 22  1  0  0  0  0
 15  9  1  0  0  0  0
 15 18  2  0  0  0  0
 16  1  1  0  0  0  0
 17  8  1  6  0  0  0
 17 10  1  0  0  0  0
 18  6  1  0  0  0  0
 19 16  1  0  0  0  0
 20 29  1  1  0  0  0
 21  4  1  0  0  0  0
 22 21  1  6  0  0  0
 22 13  1  0  0  0  0
 26  9  1  0  0  0  0
 27  2  1  0  0  0  0
 28  6  2  0  0  0  0
 28 23  1  0  0  0  0
 29 30  1  0  0  0  0
 30 32  2  0  0  0  0
 30 31  1  0  0  0  0
M  END
>  <MODEL>
2

>  <REMARK>
 VINA RESULT:      -7.7      3.813      8.812
  Name = 
  2 active torsions:
  status: ('A' for Active; 'I' for Inactive)
    1  A    between atoms: C_20  and  C_29
    2  A    between atoms: C_29  and  C_30
                            x       y       z     vdW  Elec       q    Type
                         _______ _______ _______ _____ _____    ______ ____

>  <TORSDO>
F 2

$$$$
=
 OpenBabel11122410443D

 32 37  0  0  1  0  0  0  0  0999 V2000
  188.5280  176.9410  146.6080 C   0  0  0  0  0  2  0  0  0  0  0  0
  184.5800  178.4980  143.1520 C   0  0  2  0  0  3  0  0  0  0  0  0
  184.5490  179.5660  138.9420 C   0  0  0  0  0  2  0  0  0  0  0  0
  184.2590  178.2660  138.1890 C   0  0  0  0  0  2  0  0  0  0  0  0
  182.1790  179.1180  143.5930 C   0  0  0  0  0  0  0  0  0  0  0  0
  180.9510  179.6070  142.9630 C   0  0  0  0  0  0  0  0  0  0  0  0
  186.2780  178.2610  144.9820 C   0  0  2  0  0  3  0  0  0  0  0  0
  186.9540  178.0070  142.5490 C   0  0  0  0  0  2  0  0  0  0  0  0
  179.5830  180.2020  141.3300 N   0  0  0  0  0  0  0  0  0  0  0  0
  188.6980  178.0390  144.2970 C   0  0  0  0  0  2  0  0  0  0  0  0
  185.3100  179.3210  140.2550 C   0  0  0  0  0  2  0  0  0  0  0  0
  185.4960  177.6970  142.2310 C   0  0  2  0  0  3  0  0  0  0  0  0
  185.1600  177.8790  140.7680 C   0  0  1  0  0  3  0  0  0  0  0  0
  182.6760  177.9500  141.4420 C   0  0  2  0  0  3  0  0  0  0  0  0
  178.9310  180.7230  142.4600 N   0  0  0  0  0  0  0  0  0  0  0  0
  187.7430  178.0650  146.8870 O   0  0  0  0  0  0  0  0  0  0  0  0
  187.2680  177.6040  143.9910 C   0  0  1  0  0  3  0  0  0  0  0  0
  179.8130  180.3480  143.5820 C   0  0  0  0  0  3  0  0  0  0  0  0
  186.4720  177.7350  146.4020 C   0  0  0  0  0  2  0  0  0  0  0  0
  189.3780  177.1560  145.3520 C   0  0  1  0  0  3  0  0  0  0  0  0
  183.3950  177.3170  139.0330 C   0  0  0  0  0  2  0  0  0  0  0  0
  183.7630  177.3230  140.5310 C   0  0  1  0  0  3  0  0  0  0  0  0
  181.8130  179.0170  140.7330 C   0  0  0  0  0  2  0  0  0  0  0  0
  184.8290  177.9910  144.5720 C   0  0  0  0  0  2  0  0  0  0  0  0
  182.3860  179.3400  144.8160 O   0  0  0  0  0  0  0  0  0  0  0  0
  179.0900  180.3900  139.9770 C   0  0  0  0  0  1  0  0  0  0  0  0
  183.1520  178.4260  142.7730 N   0  0  0  0  0  0  0  0  0  0  0  0
  180.7710  179.5330  141.6760 C   0  0  0  0  0  0  0  0  0  0  0  0
  190.7180  177.7570  145.7480 C   0  0  0  0  0  2  0  0  0  0  0  0
  191.6320  176.7070  146.2850 C   0  0  0  0  0  0  0  0  0  0  0  0
  192.0570  175.7960  145.5280 O   0  0  0  0  0  0  0  0  0  0  0  0
  192.0410  176.7530  147.6100 O   0  0  0  0  0  1  0  0  0  0  0  0
  1 16  1  0  0  0  0
  2 24  1  1  0  0  0
  3 11  1  0  0  0  0
  4  3  1  0  0  0  0
  4 21  1  0  0  0  0
  5 25  2  0  0  0  0
  6 18  1  0  0  0  0
  6  5  1  0  0  0  0
  7 24  1  6  0  0  0
  7 19  1  0  0  0  0
  9 28  1  0  0  0  0
  9 15  1  0  0  0  0
 10 20  1  0  0  0  0
 12  8  1  6  0  0  0
 12  2  1  0  0  0  0
 13 11  1  1  0  0  0
 13 12  1  0  0  0  0
 14 23  1  6  0  0  0
 14 27  1  0  0  0  0
 15 18  2  0  0  0  0
 17  8  1  6  0  0  0
 17 10  1  0  0  0  0
 17  7  1  0  0  0  0
 19 16  1  0  0  0  0
 20 29  1  1  0  0  0
 20  1  1  0  0  0  0
 22 21  1  6  0  0  0
 22 13  1  0  0  0  0
 22 14  1  0  0  0  0
 23 28  1  0  0  0  0
 26  9  1  0  0  0  0
 27  2  1  0  0  0  0
 27  5  1  0  0  0  0
 28  6  2  0  0  0  0
 29 30  1  0  0  0  0
 30 32  1  0  0  0  0
 31 30  2  0  0  0  0
M  END
>  <MODEL>
3

>  <REMARK>
 VINA RESULT:      -7.3      4.941      8.148
  Name = 
  2 active torsions:
  status: ('A' for Active; 'I' for Inactive)
    1  A    between atoms: C_20  and  C_29
    2  A    between atoms: C_29  and  C_30
                            x       y       z     vdW  Elec       q    Type
                         _______ _______ _______ _____ _____    ______ ____

>  <TORSDO>
F 2

$$$$
=
 OpenBabel11122410443D

 32 37  0  0  1  0  0  0  0  0999 V2000
  183.8250  179.7040  143.9680 C   0  0  0  0  0  2  0  0  0  0  0  0
  187.0510  177.9500  139.9110 C   0  0  2  0  0  3  0  0  0  0  0  0
  186.2610  176.3050  135.9680 C   0  0  0  0  0  2  0  0  0  0  0  0
  186.2500  177.5030  135.0160 C   0  0  0  0  0  2  0  0  0  0  0  0
  189.5390  177.5630  139.8580 C   0  0  0  0  0  0  0  0  0  0  0  0
  190.6410  177.0750  139.0250 C   0  0  0  0  0  0  0  0  0  0  0  0
  185.7820  178.3250  142.0400 C   0  0  2  0  0  3  0  0  0  0  0  0
  184.5670  178.1880  139.8160 C   0  0  0  0  0  2  0  0  0  0  0  0
  191.6690  176.3510  137.2050 N   0  0  0  0  0  0  0  0  0  0  0  0
  183.2600  178.2830  141.9100 C   0  0  0  0  0  2  0  0  0  0  0  0
  185.7870  176.6800  137.3820 C   0  0  0  0  0  2  0  0  0  0  0  0
  185.8810  178.5490  139.1360 C   0  0  2  0  0  3  0  0  0  0  0  0
  185.9030  178.1870  137.6680 C   0  0  1  0  0  3  0  0  0  0  0  0
  188.4690  178.3800  137.7540 C   0  0  2  0  0  3  0  0  0  0  0  0
  192.6010  176.0400  138.2090 N   0  0  0  0  0  0  0  0  0  0  0  0
  184.7590  178.6870  144.1940 O   0  0  0  0  0  0  0  0  0  0  0  0
  184.5380  178.7670  141.2320 C   0  0  1  0  0  3  0  0  0  0  0  0
  191.9550  176.5070  139.4500 C   0  0  0  0  0  3  0  0  0  0  0  0
  185.8540  179.0310  143.3920 C   0  0  0  0  0  2  0  0  0  0  0  0
  182.7450  179.2570  142.9790 C   0  0  1  0  0  3  0  0  0  0  0  0
  187.1810  178.6190  135.5170 C   0  0  0  0  0  2  0  0  0  0  0  0
  187.1530  178.7980  137.0490 C   0  0  1  0  0  3  0  0  0  0  0  0
  189.2570  177.2860  137.0000 C   0  0  0  0  0  2  0  0  0  0  0  0
  187.0720  178.6320  141.2770 C   0  0  0  0  0  2  0  0  0  0  0  0
  189.6290  177.5010  141.1130 O   0  0  0  0  0  0  0  0  0  0  0  0
  191.8680  176.0090  135.8080 C   0  0  0  0  0  1  0  0  0  0  0  0
  188.3470  178.0650  139.2060 N   0  0  0  0  0  0  0  0  0  0  0  0
  190.5260  176.9800  137.7320 C   0  0  0  0  0  0  0  0  0  0  0  0
  181.5910  178.6280  143.7430 C   0  0  0  0  0  2  0  0  0  0  0  0
  180.2810  179.1100  143.2170 C   0  0  0  0  0  0  0  0  0  0  0  0
  179.3050  178.3190  143.1390 O   0  0  0  0  0  1  0  0  0  0  0  0
  180.1280  180.4370  142.8430 O   0  0  0  0  0  0  0  0  0  0  0  0
  1 16  1  0  0  0  0
  2 24  1  1  0  0  0
  3 11  1  0  0  0  0
  4 21  1  0  0  0  0
  4  3  1  0  0  0  0
  5 25  2  0  0  0  0
  6 18  1  0  0  0  0
  6  5  1  0  0  0  0
  7 24  1  6  0  0  0
  7 19  1  0  0  0  0
  9 28  1  0  0  0  0
  9 15  1  0  0  0  0
 10 20  1  0  0  0  0
 12  8  1  1  0  0  0
 12  2  1  0  0  0  0
 13 11  1  1  0  0  0
 13 12  1  0  0  0  0
 14 23  1  6  0  0  0
 14 27  1  0  0  0  0
 15 18  2  0  0  0  0
 17  8  1  6  0  0  0
 17 10  1  0  0  0  0
 17  7  1  0  0  0  0
 19 16  1  0  0  0  0
 20 29  1  1  0  0  0
 20  1  1  0  0  0  0
 22 21  1  6  0  0  0
 22 13  1  0  0  0  0
 22 14  1  0  0  0  0
 23 28  1  0  0  0  0
 26  9  1  0  0  0  0
 27  5  1  0  0  0  0
 27  2  1  0  0  0  0
 28  6  2  0  0  0  0
 30 29  1  0  0  0  0
 31 30  1  0  0  0  0
 32 30  2  0  0  0  0
M  END
>  <MODEL>
4

>  <REMARK>
 VINA RESULT:      -7.3      3.756      9.000
  Name = 
  2 active torsions:
  status: ('A' for Active; 'I' for Inactive)
    1  A    between atoms: C_20  and  C_29
    2  A    between atoms: C_29  and  C_30
                            x       y       z     vdW  Elec       q    Type
                         _______ _______ _______ _____ _____    ______ ____

>  <TORSDO>
F 2

$$$$
=
 OpenBabel11122410443D

 32 37  0  0  1  0  0  0  0  0999 V2000
  185.8360  177.7020  147.2600 C   0  0  0  0  0  2  0  0  0  0  0  0
  183.5770  178.8860  142.4190 C   0  0  2  0  0  3  0  0  0  0  0  0
  185.1230  179.0430  138.3620 C   0  0  0  0  0  2  0  0  0  0  0  0
  184.8860  177.6500  137.7760 C   0  0  0  0  0  2  0  0  0  0  0  0
  181.3050  179.8210  141.8650 C   0  0  0  0  0  0  0  0  0  0  0  0
  180.4560  180.2870  140.7670 C   0  0  0  0  0  0  0  0  0  0  0  0
  184.5070  178.8690  144.7470 C   0  0  2  0  0  3  0  0  0  0  0  0
  185.8990  178.0440  142.7920 C   0  0  0  0  0  2  0  0  0  0  0  0
  179.8260  180.6600  138.6790 N   0  0  0  0  0  0  0  0  0  0  0  0
  186.9440  178.2670  145.0180 C   0  0  0  0  0  2  0  0  0  0  0  0
  185.3530  179.0050  139.8820 C   0  0  0  0  0  2  0  0  0  0  0  0
  184.5990  177.8220  142.0290 C   0  0  2  0  0  3  0  0  0  0  0  0
  184.8030  177.7240  140.5330 C   0  0  1  0  0  3  0  0  0  0  0  0
  182.2850  178.1840  140.2540 C   0  0  2  0  0  3  0  0  0  0  0  0
  178.9320  181.4690  139.4020 N   0  0  0  0  0  0  0  0  0  0  0  0
  185.2020  178.9320  147.0550 O   0  0  0  0  0  0  0  0  0  0  0  0
  185.6450  177.9230  144.2960 C   0  0  1  0  0  3  0  0  0  0  0  0
  179.3170  181.2520  140.8100 C   0  0  0  0  0  3  0  0  0  0  0  0
  184.1280  178.6360  146.2080 C   0  0  0  0  0  2  0  0  0  0  0  0
  187.0780  177.5630  146.3750 C   0  0  1  0  0  3  0  0  0  0  0  0
  183.6450  176.9900  138.3970 C   0  0  0  0  0  2  0  0  0  0  0  0
  183.4910  177.2740  139.9050 C   0  0  1  0  0  3  0  0  0  0  0  0
  181.8970  179.1590  139.1200 C   0  0  0  0  0  2  0  0  0  0  0  0
  183.2520  178.6660  143.8950 C   0  0  0  0  0  2  0  0  0  0  0  0
  181.1290  180.2730  143.0280 O   0  0  0  0  0  0  0  0  0  0  0  0
  179.8490  180.6070  137.2290 C   0  0  0  0  0  1  0  0  0  0  0  0
  182.3650  178.8790  141.5710 N   0  0  0  0  0  0  0  0  0  0  0  0
  180.7020  179.9630  139.5310 C   0  0  0  0  0  0  0  0  0  0  0  0
  188.2910  178.0960  147.1210 C   0  0  0  0  0  2  0  0  0  0  0  0
  189.5150  177.3190  146.7690 C   0  0  0  0  0  0  0  0  0  0  0  0
  190.0800  177.5050  145.6600 O   0  0  0  0  0  0  0  0  0  0  0  0
  190.0490  176.4150  147.6760 O   0  0  0  0  0  1  0  0  0  0  0  0
  2 24  1  1  0  0  0
  3 11  1  0  0  0  0
  4  3  1  0  0  0  0
  4 21  1  0  0  0  0
  5 25  2  0  0  0  0
  6 18  1  0  0  0  0
  6  5  1  0  0  0  0
  7 24  1  6  0  0  0
  7 19  1  0  0  0  0
  9 15  1  0  0  0  0
  9 28  1  0  0  0  0
 10 20  1  0  0  0  0
 12  2  1  0  0  0  0
 12  8  1  1  0  0  0
 13 11  1  6  0  0  0
 13 12  1  0  0  0  0
 14 23  1  6  0  0  0
 14 27  1  0  0  0  0
 15 18  2  0  0  0  0
 16  1  1  0  0  0  0
 17  8  1  6  0  0  0
 17  7  1  0  0  0  0
 17 10  1  0  0  0  0
 19 16  1  0  0  0  0
 20 29  1  1  0  0  0
 20  1  1  0  0  0  0
 22 21  1  6  0  0  0
 22 14  1  0  0  0  0
 22 13  1  0  0  0  0
 23 28  1  0  0  0  0
 26  9  1  0  0  0  0
 27  5  1  0  0  0  0
 27  2  1  0  0  0  0
 28  6  2  0  0  0  0
 30 29  1  0  0  0  0
 30 32  1  0  0  0  0
 31 30  2  0  0  0  0
M  END
>  <MODEL>
5

>  <REMARK>
 VINA RESULT:      -7.1      5.197      8.967
  Name = 
  2 active torsions:
  status: ('A' for Active; 'I' for Inactive)
    1  A    between atoms: C_20  and  C_29
    2  A    between atoms: C_29  and  C_30
                            x       y       z     vdW  Elec       q    Type
                         _______ _______ _______ _____ _____    ______ ____

>  <TORSDO>
F 2

$$$$
=
 OpenBabel11122410443D

 32 37  0  0  1  0  0  0  0  0999 V2000
  190.8290  176.8280  134.9890 C   0  0  0  0  0  2  0  0  0  0  0  0
  188.6380  177.4860  139.9600 C   0  0  2  0  0  3  0  0  0  0  0  0
  189.7370  176.0710  143.9170 C   0  0  0  0  0  2  0  0  0  0  0  0
  190.6280  177.1630  144.5130 C   0  0  0  0  0  2  0  0  0  0  0  0
  186.4390  178.5020  140.6510 C   0  0  0  0  0  0  0  0  0  0  0  0
  185.5690  178.7650  141.7990 C   0  0  0  0  0  0  0  0  0  0  0  0
  189.1780  176.9110  137.5800 C   0  0  2  0  0  3  0  0  0  0  0  0
  190.8090  176.3630  139.4460 C   0  0  0  0  0  2  0  0  0  0  0  0
  184.9580  178.8880  143.9220 N   0  0  0  0  0  0  0  0  0  0  0  0
  191.2550  175.5370  137.1620 C   0  0  0  0  0  2  0  0  0  0  0  0
  189.8560  175.9920  142.3870 C   0  0  0  0  0  2  0  0  0  0  0  0
  190.1280  177.4370  140.2850 C   0  0  2  0  0  3  0  0  0  0  0  0
  190.4010  177.2900  141.7650 C   0  0  1  0  0  3  0  0  0  0  0  0
  188.3750  178.8200  142.1960 C   0  0  2  0  0  3  0  0  0  0  0  0
  183.7290  179.0290  143.2560 N   0  0  0  0  0  0  0  0  0  0  0  0
  189.5030  176.4540  135.2350 O   0  0  0  0  0  0  0  0  0  0  0  0
  190.6630  176.6940  137.9600 C   0  0  1  0  0  3  0  0  0  0  0  0
  184.0880  178.9520  141.8270 C   0  0  0  0  0  3  0  0  0  0  0  0
  189.0320  177.4090  136.1440 C   0  0  0  0  0  2  0  0  0  0  0  0
  191.8070  175.9710  135.7980 C   0  0  1  0  0  3  0  0  0  0  0  0
  190.2510  178.5480  143.9650 C   0  0  0  0  0  2  0  0  0  0  0  0
  189.8740  178.5330  142.4690 C   0  0  1  0  0  3  0  0  0  0  0  0
  187.4430  178.3980  143.3540 C   0  0  0  0  0  2  0  0  0  0  0  0
  188.5180  177.9350  138.5050 C   0  0  0  0  0  2  0  0  0  0  0  0
  185.9380  178.3750  139.5020 O   0  0  0  0  0  0  0  0  0  0  0  0
  185.0740  178.8460  145.3680 C   0  0  0  0  0  1  0  0  0  0  0  0
  187.8610  178.3470  140.8790 N   0  0  0  0  0  0  0  0  0  0  0  0
  186.0270  178.7510  143.0170 C   0  0  0  0  0  0  0  0  0  0  0  0
  192.2010  174.7500  134.9820 C   0  0  0  0  0  2  0  0  0  0  0  0
  193.1990  173.9200  135.7170 C   0  0  0  0  0  0  0  0  0  0  0  0
  194.2990  174.4210  136.0660 O   0  0  0  0  0  1  0  0  0  0  0  0
  192.9010  172.6050  136.0460 O   0  0  0  0  0  0  0  0  0  0  0  0
  1 16  1  0  0  0  0
  1 20  1  0  0  0  0
  2 24  1  6  0  0  0
  2 12  1  0  0  0  0
  2 27  1  0  0  0  0
  3  4  1  0  0  0  0
  5 27  1  0  0  0  0
  5  6  1  0  0  0  0
  6 18  1  0  0  0  0
  6 28  2  0  0  0  0
  7 19  1  6  0  0  0
  7 17  1  0  0  0  0
  7 24  1  0  0  0  0
  9 26  1  0  0  0  0
 11  3  1  0  0  0  0
 12  8  1  6  0  0  0
 12 13  1  0  0  0  0
 13 11  1  1  0  0  0
 13 22  1  0  0  0  0
 14 22  1  0  0  0  0
 14 23  1  1  0  0  0
 15  9  1  0  0  0  0
 16 19  1  0  0  0  0
 17 10  1  6  0  0  0
 17  8  1  0  0  0  0
 18 15  2  0  0  0  0
 20 29  1  6  0  0  0
 20 10  1  0  0  0  0
 21  4  1  0  0  0  0
 22 21  1  1  0  0  0
 25  5  2  0  0  0  0
 27 14  1  0  0  0  0
 28 23  1  0  0  0  0
 28  9  1  0  0  0  0
 29 30  1  0  0  0  0
 30 32  2  0  0  0  0
 30 31  1  0  0  0  0
M  END
>  <MODEL>
6

>  <REMARK>
 VINA RESULT:      -7.0      1.562      1.983
  Name = 
  2 active torsions:
  status: ('A' for Active; 'I' for Inactive)
    1  A    between atoms: C_20  and  C_29
    2  A    between atoms: C_29  and  C_30
                            x       y       z     vdW  Elec       q    Type
                         _______ _______ _______ _____ _____    ______ ____

>  <TORSDO>
F 2

$$$$
=
 OpenBabel11122410443D

 32 37  0  0  1  0  0  0  0  0999 V2000
  188.8360  178.0620  145.1100 C   0  0  0  0  0  2  0  0  0  0  0  0
  184.0400  178.1140  142.4750 C   0  0  2  0  0  3  0  0  0  0  0  0
  179.9070  177.8810  143.7940 C   0  0  0  0  0  2  0  0  0  0  0  0
  179.4550  179.3300  143.9900 C   0  0  0  0  0  2  0  0  0  0  0  0
  183.5320  177.9860  140.0110 C   0  0  0  0  0  0  0  0  0  0  0  0
  182.4460  177.9150  139.0320 C   0  0  0  0  0  0  0  0  0  0  0  0
  186.3080  177.6150  143.4200 C   0  0  2  0  0  3  0  0  0  0  0  0
  184.3570  178.1550  144.9520 C   0  0  0  0  0  2  0  0  0  0  0  0
  180.3710  177.9610  138.2660 N   0  0  0  0  0  0  0  0  0  0  0  0
  186.4970  177.4030  145.9290 C   0  0  0  0  0  2  0  0  0  0  0  0
  181.4100  177.6990  144.0610 C   0  0  0  0  0  2  0  0  0  0  0  0
  183.6870  178.8420  143.7690 C   0  0  2  0  0  3  0  0  0  0  0  0
  182.1970  179.0170  143.9560 C   0  0  1  0  0  3  0  0  0  0  0  0
  182.0150  179.3890  141.4150 C   0  0  2  0  0  3  0  0  0  0  0  0
  181.0690  177.4020  137.1820 N   0  0  0  0  0  0  0  0  0  0  0  0
  188.5610  177.1150  144.1180 O   0  0  0  0  0  0  0  0  0  0  0  0
  185.8780  178.2010  144.7860 C   0  0  1  0  0  3  0  0  0  0  0  0
  182.4670  177.3510  137.6500 C   0  0  0  0  0  3  0  0  0  0  0  0
  187.8010  177.8100  143.1700 C   0  0  0  0  0  2  0  0  0  0  0  0
  187.9000  177.8960  146.3110 C   0  0  1  0  0  3  0  0  0  0  0  0
  180.1960  180.2780  143.0340 C   0  0  0  0  0  2  0  0  0  0  0  0
  181.6800  179.9100  142.8360 C   0  0  1  0  0  3  0  0  0  0  0  0
  180.8250  178.6960  140.7130 C   0  0  0  0  0  2  0  0  0  0  0  0
  185.5450  178.2780  142.2720 C   0  0  0  0  0  2  0  0  0  0  0  0
  184.6600  177.5000  139.7310 O   0  0  0  0  0  0  0  0  0  0  0  0
  178.9310  178.1450  138.2680 C   0  0  0  0  0  1  0  0  0  0  0  0
  183.2620  178.5780  141.3050 N   0  0  0  0  0  0  0  0  0  0  0  0
  181.2300  178.2660  139.3370 C   0  0  0  0  0  0  0  0  0  0  0  0
  188.5320  176.9430  147.3140 C   0  0  0  0  0  2  0  0  0  0  0  0
  189.8180  177.4940  147.8300 C   0  0  0  0  0  0  0  0  0  0  0  0
  189.8090  178.4160  148.6860 O   0  0  0  0  0  1  0  0  0  0  0  0
  191.0250  176.9670  147.3930 O   0  0  0  0  0  0  0  0  0  0  0  0
  1 20  1  0  0  0  0
  2 24  1  6  0  0  0
  2 12  1  0  0  0  0
  3  4  1  0  0  0  0
  3 11  1  0  0  0  0
  5 27  1  0  0  0  0
  6 28  2  0  0  0  0
  6  5  1  0  0  0  0
  7 24  1  6  0  0  0
  7 17  1  0  0  0  0
  9 26  1  0  0  0  0
  9 28  1  0  0  0  0
 10 20  1  0  0  0  0
 12 13  1  0  0  0  0
 12  8  1  1  0  0  0
 13 11  1  6  0  0  0
 14 23  1  1  0  0  0
 14 22  1  0  0  0  0
 15 18  2  0  0  0  0
 15  9  1  0  0  0  0
 16  1  1  0  0  0  0
 17  8  1  1  0  0  0
 17 10  1  0  0  0  0
 18  6  1  0  0  0  0
 19  7  1  0  0  0  0
 19 16  1  0  0  0  0
 20 29  1  1  0  0  0
 21  4  1  0  0  0  0
 22 21  1  6  0  0  0
 22 13  1  0  0  0  0
 25  5  2  0  0  0  0
 27 14  1  0  0  0  0
 27  2  1  0  0  0  0
 28 23  1  0  0  0  0
 29 30  1  0  0  0  0
 30 31  1  0  0  0  0
 32 30  2  0  0  0  0
M  END
>  <MODEL>
7

>  <REMARK>
 VINA RESULT:      -7.0      4.903      9.139
  Name = 
  2 active torsions:
  status: ('A' for Active; 'I' for Inactive)
    1  A    between atoms: C_20  and  C_29
    2  A    between atoms: C_29  and  C_30
                            x       y       z     vdW  Elec       q    Type
                         _______ _______ _______ _____ _____    ______ ____

>  <TORSDO>
F 2

$$$$
=
 OpenBabel11122410443D

 32 37  0  0  1  0  0  0  0  0999 V2000
  188.5550  178.3210  145.6900 C   0  0  0  0  0  2  0  0  0  0  0  0
  189.7910  177.1950  140.4790 C   0  0  2  0  0  3  0  0  0  0  0  0
  187.3930  176.5780  136.9090 C   0  0  0  0  0  2  0  0  0  0  0  0
  187.2710  177.9540  136.2520 C   0  0  0  0  0  2  0  0  0  0  0  0
  191.9900  176.5670  139.4240 C   0  0  0  0  0  0  0  0  0  0  0  0
  192.6240  176.1660  138.1670 C   0  0  0  0  0  0  0  0  0  0  0  0
  189.4330  177.2130  142.9610 C   0  0  2  0  0  3  0  0  0  0  0  0
  187.5160  177.7120  141.3720 C   0  0  0  0  0  2  0  0  0  0  0  0
  192.8050  175.7660  135.9980 N   0  0  0  0  0  0  0  0  0  0  0  0
  187.0610  177.4710  143.7880 C   0  0  0  0  0  2  0  0  0  0  0  0
  187.5180  176.6710  138.4390 C   0  0  0  0  0  2  0  0  0  0  0  0
  188.5540  178.0750  140.3180 C   0  0  2  0  0  3  0  0  0  0  0  0
  187.9980  178.0540  138.9120 C   0  0  1  0  0  3  0  0  0  0  0  0
  190.4240  177.9480  138.0540 C   0  0  2  0  0  3  0  0  0  0  0  0
  193.9550  175.1390  136.5070 N   0  0  0  0  0  0  0  0  0  0  0  0
  189.3070  177.1850  145.3680 O   0  0  0  0  0  0  0  0  0  0  0  0
  188.0890  177.9560  142.7700 C   0  0  1  0  0  3  0  0  0  0  0  0
  193.8770  175.3800  137.9600 C   0  0  0  0  0  3  0  0  0  0  0  0
  190.0980  177.5840  144.2840 C   0  0  0  0  0  2  0  0  0  0  0  0
  187.1360  178.2270  145.1210 C   0  0  1  0  0  3  0  0  0  0  0  0
  188.5040  178.8220  136.5460 C   0  0  0  0  0  2  0  0  0  0  0  0
  189.0440  178.6520  137.9800 C   0  0  1  0  0  3  0  0  0  0  0  0
  190.6860  176.9750  136.8830 C   0  0  0  0  0  2  0  0  0  0  0  0
  190.4090  177.5450  141.8310 C   0  0  0  0  0  2  0  0  0  0  0  0
  192.4980  176.2150  140.5220 O   0  0  0  0  0  0  0  0  0  0  0  0
  192.4400  175.7300  134.5940 C   0  0  0  0  0  1  0  0  0  0  0  0
  190.7580  177.3280  139.3680 N   0  0  0  0  0  0  0  0  0  0  0  0
  192.0520  176.3780  137.0170 C   0  0  0  0  0  0  0  0  0  0  0  0
  186.2260  177.5680  146.1460 C   0  0  0  0  0  2  0  0  0  0  0  0
  185.2770  178.5610  146.7280 C   0  0  0  0  0  0  0  0  0  0  0  0
  185.6520  179.3180  147.6610 O   0  0  0  0  0  1  0  0  0  0  0  0
  183.9900  178.6730  146.2200 O   0  0  0  0  0  0  0  0  0  0  0  0
  2 24  1  1  0  0  0
  3 11  1  0  0  0  0
  4 21  1  0  0  0  0
  4  3  1  0  0  0  0
  5 25  2  0  0  0  0
  6  5  1  0  0  0  0
  7 24  1  6  0  0  0
  7 19  1  0  0  0  0
  9 15  1  0  0  0  0
  9 28  1  0  0  0  0
 10 20  1  0  0  0  0
 12  2  1  0  0  0  0
 12  8  1  1  0  0  0
 13 11  1  6  0  0  0
 13 12  1  0  0  0  0
 14 23  1  6  0  0  0
 14 27  1  0  0  0  0
 15 18  2  0  0  0  0
 16  1  1  0  0  0  0
 17  8  1  6  0  0  0
 17  7  1  0  0  0  0
 17 10  1  0  0  0  0
 18  6  1  0  0  0  0
 19 16  1  0  0  0  0
 20  1  1  0  0  0  0
 20 29  1  1  0  0  0
 22 21  1  6  0  0  0
 22 14  1  0  0  0  0
 22 13  1  0  0  0  0
 23 28  1  0  0  0  0
 26  9  1  0  0  0  0
 27  5  1  0  0  0  0
 27  2  1  0  0  0  0
 28  6  2  0  0  0  0
 29 30  1  0  0  0  0
 30 31  1  0  0  0  0
 32 30  2  0  0  0  0
M  END
>  <MODEL>
8

>  <REMARK>
 VINA RESULT:      -6.9      3.281      9.004
  Name = 
  2 active torsions:
  status: ('A' for Active; 'I' for Inactive)
    1  A    between atoms: C_20  and  C_29
    2  A    between atoms: C_29  and  C_30
                            x       y       z     vdW  Elec       q    Type
                         _______ _______ _______ _____ _____    ______ ____

>  <TORSDO>
F 2

$$$$
=
 OpenBabel11122410443D

 32 37  0  0  1  0  0  0  0  0999 V2000
  181.0750  178.3210  139.2690 C   0  0  0  0  0  2  0  0  0  0  0  0
  185.5100  178.3530  142.4750 C   0  0  2  0  0  3  0  0  0  0  0  0
  186.2450  179.7000  146.5390 C   0  0  0  0  0  2  0  0  0  0  0  0
  186.0010  178.4800  147.4290 C   0  0  0  0  0  2  0  0  0  0  0  0
  187.9160  177.8370  141.9350 C   0  0  0  0  0  0  0  0  0  0  0  0
  189.2700  177.8090  142.4900 C   0  0  0  0  0  0  0  0  0  0  0  0
  183.7660  178.6950  140.7060 C   0  0  2  0  0  3  0  0  0  0  0  0
  183.1940  178.9890  143.1620 C   0  0  0  0  0  2  0  0  0  0  0  0
  190.8580  177.9120  144.0280 N   0  0  0  0  0  0  0  0  0  0  0  0
  181.5270  179.6000  141.4450 C   0  0  0  0  0  2  0  0  0  0  0  0
  185.3760  179.6820  145.2720 C   0  0  0  0  0  2  0  0  0  0  0  0
  184.3980  178.1150  143.4920 C   0  0  2  0  0  3  0  0  0  0  0  0
  184.8660  178.2730  144.9220 C   0  0  1  0  0  3  0  0  0  0  0  0
  187.0990  177.2060  144.2100 C   0  0  2  0  0  3  0  0  0  0  0  0
  191.6000  177.9920  142.8380 N   0  0  0  0  0  0  0  0  0  0  0  0
  182.2450  178.9670  138.8550 O   0  0  0  0  0  0  0  0  0  0  0  0
  182.6520  178.6250  141.7780 C   0  0  1  0  0  3  0  0  0  0  0  0
  190.5760  177.9270  141.7770 C   0  0  0  0  0  3  0  0  0  0  0  0
  183.2820  178.1710  139.3570 C   0  0  0  0  0  2  0  0  0  0  0  0
  180.4740  178.9990  140.5040 C   0  0  1  0  0  3  0  0  0  0  0  0
  186.3260  177.1750  146.6840 C   0  0  0  0  0  2  0  0  0  0  0  0
  185.9060  177.1960  145.2010 C   0  0  1  0  0  3  0  0  0  0  0  0
  188.3750  177.8620  144.7830 C   0  0  0  0  0  2  0  0  0  0  0  0
  184.9850  177.8700  141.1250 C   0  0  0  0  0  2  0  0  0  0  0  0
  187.7490  178.0090  140.6980 O   0  0  0  0  0  0  0  0  0  0  0  0
  191.4630  177.9970  145.3450 C   0  0  0  0  0  1  0  0  0  0  0  0
  186.7920  177.7120  142.8410 N   0  0  0  0  0  0  0  0  0  0  0  0
  189.4790  177.7880  143.7750 C   0  0  0  0  0  0  0  0  0  0  0  0
  179.4960  180.0760  140.0620 C   0  0  0  0  0  2  0  0  0  0  0  0
  179.1210  180.9550  141.2070 C   0  0  0  0  0  0  0  0  0  0  0  0
  178.9470  182.1880  141.0240 O   0  0  0  0  0  0  0  0  0  0  0  0
  178.9310  180.4090  142.4690 O   0  0  0  0  0  1  0  0  0  0  0  0
  1 20  1  0  0  0  0
  2 24  1  6  0  0  0
  2 27  1  0  0  0  0
  2 12  1  0  0  0  0
  3  4  1  0  0  0  0
  5  6  1  0  0  0  0
  5 27  1  0  0  0  0
  6 28  2  0  0  0  0
  7 19  1  6  0  0  0
  7 24  1  0  0  0  0
  7 17  1  0  0  0  0
  9 26  1  0  0  0  0
 11  3  1  0  0  0  0
 12  8  1  6  0  0  0
 12 13  1  0  0  0  0
 13 22  1  0  0  0  0
 13 11  1  6  0  0  0
 14 23  1  1  0  0  0
 14 22  1  0  0  0  0
 15  9  1  0  0  0  0
 16  1  1  0  0  0  0
 16 19  1  0  0  0  0
 17 10  1  6  0  0  0
 17  8  1  0  0  0  0
 18  6  1  0  0  0  0
 18 15  2  0  0  0  0
 20 29  1  6  0  0  0
 20 10  1  0  0  0  0
 21  4  1  0  0  0  0
 22 21  1  1  0  0  0
 25  5  2  0  0  0  0
 27 14  1  0  0  0  0
 28  9  1  0  0  0  0
 28 23  1  0  0  0  0
 29 30  1  0  0  0  0
 30 32  1  0  0  0  0
 31 30  2  0  0  0  0
M  END
>  <MODEL>
9

>  <REMARK>
 VINA RESULT:      -6.5      3.794      7.724
  Name = 
  2 active torsions:
  status: ('A' for Active; 'I' for Inactive)
    1  A    between atoms: C_20  and  C_29
    2  A    between atoms: C_29  and  C_30
                            x       y       z     vdW  Elec       q    Type
                         _______ _______ _______ _____ _____    ______ ____

>  <TORSDO>
F 2

$$$$
