=
 OpenBabel11122411483D

 37 42  0  0  1  0  0  0  0  0999 V2000
  187.4230  177.5040  141.8660 C   0  0  1  0  0  3  0  0  0  0  0  0
  190.4190  176.0110  142.0790 O   0  0  0  0  0  0  0  0  0  0  0  0
  185.3610  178.3910  143.2030 C   0  0  2  0  0  3  0  0  0  0  0  0
  188.8390  177.7720  142.3360 C   0  0  2  0  0  3  0  0  0  0  0  0
  186.6280  177.5080  143.1770 C   0  0  2  0  0  3  0  0  0  0  0  0
  189.9620  177.1920  141.4770 C   0  0  2  0  0  3  0  0  0  0  0  0
  185.4070  179.4780  142.1390 C   0  0  0  0  0  2  0  0  0  0  0  0
  187.6580  177.8120  144.2530 C   0  0  0  0  0  2  0  0  0  0  0  0
  187.5020  178.2810  139.4810 C   0  0  0  0  0  2  0  0  0  0  0  0
  185.6730  178.8820  140.8990 O   0  0  0  0  0  0  0  0  0  0  0  0
  192.1300  177.6260  143.0770 C   0  0  0  0  0  2  0  0  0  0  0  0
  191.5350  176.2290  142.9420 C   0  0  1  0  0  3  0  0  0  0  0  0
  187.0530  178.6370  140.8940 C   0  0  1  0  0  3  0  0  0  0  0  0
  188.9340  177.3250  143.7200 N   0  0  2  0  0  0  0  0  0  0  0  0
  189.5930  176.9660  140.0010 C   0  0  1  0  0  3  0  0  0  0  0  0
  191.2490  177.0940  144.2010 C   0  0  2  0  0  3  0  0  0  0  0  0
  190.0660  177.9780  144.2760 N   0  0  0  0  0  0  0  0  0  0  0  0
  189.0230  178.2300  139.3530 C   0  0  0  0  0  2  0  0  0  0  0  0
  192.0100  177.1140  139.3850 C   0  0  0  0  0  3  0  0  0  0  0  0
  190.7760  176.4770  139.2220 C   0  0  0  0  0  0  0  0  0  0  0  0
  190.6630  175.4000  138.3280 C   0  0  0  0  0  3  0  0  0  0  0  0
  191.6670  173.9280  136.7450 F   0  0  0  0  0  0  0  0  0  0  0  0
  193.0110  175.6070  137.7740 C   0  0  0  0  0  3  0  0  0  0  0  0
  191.7790  174.9680  137.6070 C   0  0  0  0  0  0  0  0  0  0  0  0
  193.1260  176.6800  138.6630 C   0  0  0  0  0  3  0  0  0  0  0  0
  189.8950  178.2120  145.7160 C   0  0  0  0  0  2  0  0  0  0  0  0
  190.2080  176.9510  146.5200 C   0  0  1  0  0  3  0  0  0  0  0  0
  191.9880  175.7750  147.4850 C   0  0  0  0  0  1  0  0  0  0  0  0
  191.4620  177.1070  147.2450 N   0  0  0  0  0  2  0  0  0  0  0  0
  189.0730  176.6350  147.4850 C   0  0  0  0  0  2  0  0  0  0  0  0
  188.5640  177.8950  148.1670 C   0  0  0  0  0  2  0  0  0  0  0  0
  187.2070  178.0740  147.8950 O   0  0  0  0  0  1  0  0  0  0  0  0
  185.1400  178.9580  144.4710 O   0  0  0  0  0  0  0  0  0  0  0  0
  183.7480  179.0690  144.6660 C   0  0  0  0  0  0  0  0  0  0  0  0
  183.3010  180.3360  144.3220 F   0  0  0  0  0  0  0  0  0  0  0  0
  183.0680  178.1140  143.9260 F   0  0  0  0  0  0  0  0  0  0  0  0
  183.4730  178.8590  146.0040 F   0  0  0  0  0  0  0  0  0  0  0  0
  1  4  1  0  0  0  0
  1  5  1  0  0  0  0
  2 12  1  0  0  0  0
  3 33  1  0  0  0  0
  4 14  1  0  0  0  0
  5  3  1  0  0  0  0
  5  8  1  0  0  0  0
  6  2  1  0  0  0  0
  6  4  1  0  0  0  0
  7  3  1  0  0  0  0
  9 13  1  0  0  0  0
 10  7  1  0  0  0  0
 11 16  1  0  0  0  0
 12 11  1  0  0  0  0
 12 16  1  0  0  0  0
 13 10  1  0  0  0  0
 13  1  1  0  0  0  0
 14  8  1  0  0  0  0
 14 17  1  0  0  0  0
 15  6  1  0  0  0  0
 16 17  1  0  0  0  0
 17 26  1  0  0  0  0
 18  9  1  0  0  0  0
 18 15  1  0  0  0  0
 20 19  1  0  0  0  0
 20 15  1  0  0  0  0
 21 20  2  0  0  0  0
 22 24  1  0  0  0  0
 23 25  1  0  0  0  0
 24 23  2  0  0  0  0
 24 21  1  0  0  0  0
 25 19  2  0  0  0  0
 26 27  1  0  0  0  0
 27 29  1  0  0  0  0
 27 30  1  0  0  0  0
 29 28  1  0  0  0  0
 30 31  1  0  0  0  0
 32 31  1  0  0  0  0
 33 34  1  0  0  0  0
 34 37  1  0  0  0  0
 35 34  1  0  0  0  0
 36 34  1  0  0  0  0
M  END
>  <MODEL>
1

>  <REMARK>
 VINA RESULT:      -8.9      0.000      0.000
  Name = 
  8 active torsions:
  status: ('A' for Active; 'I' for Inactive)
    1  A    between atoms: C_1  and  C_4
    2  A    between atoms: C_1  and  N_27
    3  A    between atoms: C_2  and  O_22
    4  A    between atoms: C_4  and  C_12
    5  A    between atoms: C_4  and  N_37
    6  A    between atoms: C_6  and  O_22
    7  A    between atoms: C_8  and  C_12
    8  A    between atoms: C_23  and  C_30
                            x       y       z     vdW  Elec       q    Type
                         _______ _______ _______ _____ _____    ______ ____

>  <TORSDO>
F 8

$$$$
=
 OpenBabel11122411483D

 37 42  0  0  1  0  0  0  0  0999 V2000
  186.2800  178.7100  142.6580 C   0  0  1  0  0  3  0  0  0  0  0  0
  189.5820  178.3770  143.1550 O   0  0  0  0  0  0  0  0  0  0  0  0
  184.4000  179.1130  140.8890 C   0  0  2  0  0  3  0  0  0  0  0  0
  187.4190  177.7450  142.3900 C   0  0  2  0  0  3  0  0  0  0  0  0
  185.9010  179.1810  141.2490 C   0  0  2  0  0  3  0  0  0  0  0  0
  188.4630  177.6020  143.4960 C   0  0  2  0  0  3  0  0  0  0  0  0
  183.6490  178.1310  141.7770 C   0  0  0  0  0  2  0  0  0  0  0  0
  186.8300  178.4140  140.3220 C   0  0  0  0  0  2  0  0  0  0  0  0
  185.4330  177.9220  144.8850 C   0  0  0  0  0  2  0  0  0  0  0  0
  183.9110  178.4460  143.1170 O   0  0  0  0  0  0  0  0  0  0  0  0
  190.3830  176.1370  142.2220 C   0  0  0  0  0  2  0  0  0  0  0  0
  190.5800  177.6300  142.4620 C   0  0  1  0  0  3  0  0  0  0  0  0
  185.1810  177.9150  143.3810 C   0  0  1  0  0  3  0  0  0  0  0  0
  188.0250  178.1230  141.1200 N   0  0  2  0  0  0  0  0  0  0  0  0
  187.9570  177.9350  144.9090 C   0  0  1  0  0  3  0  0  0  0  0  0
  190.1680  177.0990  141.0600 C   0  0  2  0  0  3  0  0  0  0  0  0
  188.7470  176.9870  140.6660 N   0  0  0  0  0  0  0  0  0  0  0  0
  186.6930  177.1480  145.2640 C   0  0  0  0  0  2  0  0  0  0  0  0
  188.8470  178.1730  147.2320 C   0  0  0  0  0  3  0  0  0  0  0  0
  189.0220  177.6860  145.9330 C   0  0  0  0  0  0  0  0  0  0  0  0
  190.1940  176.9820  145.6070 C   0  0  0  0  0  3  0  0  0  0  0  0
  192.3050  176.0910  146.2600 F   0  0  0  0  0  0  0  0  0  0  0  0
  190.9950  177.2570  147.8750 C   0  0  0  0  0  3  0  0  0  0  0  0
  191.1760  176.7700  146.5780 C   0  0  0  0  0  0  0  0  0  0  0  0
  189.8310  177.9580  148.2020 C   0  0  0  0  0  3  0  0  0  0  0  0
  188.7940  176.9350  139.1990 C   0  0  0  0  0  2  0  0  0  0  0  0
  189.9340  177.7930  138.6530 C   0  0  1  0  0  3  0  0  0  0  0  0
  190.2550  175.6550  137.7520 C   0  0  0  0  0  1  0  0  0  0  0  0
  190.8020  177.0000  137.7930 N   0  0  0  0  0  2  0  0  0  0  0  0
  189.3860  178.9930  137.8920 C   0  0  0  0  0  2  0  0  0  0  0  0
  188.3550  178.5660  136.8610 C   0  0  0  0  0  2  0  0  0  0  0  0
  187.2540  179.4220  136.8970 O   0  0  0  0  0  1  0  0  0  0  0  0
  184.1970  178.8000  139.5330 O   0  0  0  0  0  0  0  0  0  0  0  0
  183.1550  179.6140  139.0460 C   0  0  0  0  0  0  0  0  0  0  0  0
  182.1020  179.6600  139.9480 F   0  0  0  0  0  0  0  0  0  0  0  0
  183.6100  180.8990  138.7890 F   0  0  0  0  0  0  0  0  0  0  0  0
  182.6900  179.0720  137.8630 F   0  0  0  0  0  0  0  0  0  0  0  0
  1 13  1  0  0  0  0
  2  6  1  0  0  0  0
  3  5  1  0  0  0  0
  3  7  1  0  0  0  0
  4  1  1  0  0  0  0
  4  6  1  0  0  0  0
  5  1  1  0  0  0  0
  6 15  1  0  0  0  0
  7 10  1  0  0  0  0
  8 14  1  0  0  0  0
  8  5  1  0  0  0  0
  9 18  1  0  0  0  0
 10 13  1  0  0  0  0
 11 12  1  0  0  0  0
 12  2  1  0  0  0  0
 13  9  1  0  0  0  0
 14  4  1  0  0  0  0
 15 18  1  0  0  0  0
 15 20  1  0  0  0  0
 16 11  1  0  0  0  0
 16 12  1  0  0  0  0
 17 16  1  0  0  0  0
 17 14  1  0  0  0  0
 19 25  1  0  0  0  0
 20 19  2  0  0  0  0
 21 20  1  0  0  0  0
 21 24  2  0  0  0  0
 22 24  1  0  0  0  0
 23 25  2  0  0  0  0
 24 23  1  0  0  0  0
 26 17  1  0  0  0  0
 27 26  1  0  0  0  0
 28 29  1  0  0  0  0
 29 27  1  0  0  0  0
 30 27  1  0  0  0  0
 31 32  1  0  0  0  0
 31 30  1  0  0  0  0
 33  3  1  0  0  0  0
 34 33  1  0  0  0  0
 34 35  1  0  0  0  0
 36 34  1  0  0  0  0
 37 34  1  0  0  0  0
M  END
>  <MODEL>
2

>  <REMARK>
 VINA RESULT:      -8.5      3.075      6.606
  Name = 
  8 active torsions:
  status: ('A' for Active; 'I' for Inactive)
    1  A    between atoms: C_1  and  C_4
    2  A    between atoms: C_1  and  N_27
    3  A    between atoms: C_2  and  O_22
    4  A    between atoms: C_4  and  C_12
    5  A    between atoms: C_4  and  N_37
    6  A    between atoms: C_6  and  O_22
    7  A    between atoms: C_8  and  C_12
    8  A    between atoms: C_23  and  C_30
                            x       y       z     vdW  Elec       q    Type
                         _______ _______ _______ _____ _____    ______ ____

>  <TORSDO>
F 8

$$$$
=
 OpenBabel11122411483D

 37 42  0  0  1  0  0  0  0  0999 V2000
  186.4670  178.6650  142.6260 C   0  0  1  0  0  3  0  0  0  0  0  0
  189.7610  178.4140  143.2100 O   0  0  0  0  0  0  0  0  0  0  0  0
  184.6270  179.0740  140.8170 C   0  0  2  0  0  3  0  0  0  0  0  0
  187.6420  177.7440  142.3600 C   0  0  2  0  0  3  0  0  0  0  0  0
  186.1140  179.1740  141.2240 C   0  0  2  0  0  3  0  0  0  0  0  0
  188.6590  177.5940  143.4900 C   0  0  2  0  0  3  0  0  0  0  0  0
  183.8820  178.0380  141.6470 C   0  0  0  0  0  2  0  0  0  0  0  0
  187.0930  178.4690  140.2990 C   0  0  0  0  0  2  0  0  0  0  0  0
  185.5810  177.7730  144.7990 C   0  0  0  0  0  2  0  0  0  0  0  0
  184.0950  178.3130  143.0050 O   0  0  0  0  0  0  0  0  0  0  0  0
  190.6590  176.2340  142.2240 C   0  0  0  0  0  2  0  0  0  0  0  0
  190.8020  177.7220  142.5220 C   0  0  1  0  0  3  0  0  0  0  0  0
  185.3730  177.8110  143.2880 C   0  0  1  0  0  3  0  0  0  0  0  0
  188.2730  178.1860  141.1220 N   0  0  2  0  0  0  0  0  0  0  0  0
  188.1020  177.8610  144.8980 C   0  0  1  0  0  3  0  0  0  0  0  0
  190.4470  177.2300  141.0910 C   0  0  2  0  0  3  0  0  0  0  0  0
  189.0430  177.0890  140.6510 N   0  0  0  0  0  0  0  0  0  0  0  0
  186.8530  177.0240  145.1880 C   0  0  0  0  0  2  0  0  0  0  0  0
  188.9480  178.1040  147.2370 C   0  0  0  0  0  3  0  0  0  0  0  0
  189.1440  177.6080  145.9440 C   0  0  0  0  0  0  0  0  0  0  0  0
  190.3150  176.8910  145.6460 C   0  0  0  0  0  3  0  0  0  0  0  0
  192.4040  175.9830  146.3450 F   0  0  0  0  0  0  0  0  0  0  0  0
  191.0750  177.1720  147.9270 C   0  0  0  0  0  3  0  0  0  0  0  0
  191.2760  176.6750  146.6370 C   0  0  0  0  0  0  0  0  0  0  0  0
  189.9100  177.8860  148.2270 C   0  0  0  0  0  3  0  0  0  0  0  0
  189.1340  177.0910  139.1840 C   0  0  0  0  0  2  0  0  0  0  0  0
  190.2440  176.1610  138.6990 C   0  0  1  0  0  3  0  0  0  0  0  0
  188.5880  175.5790  137.1490 C   0  0  0  0  0  1  0  0  0  0  0  0
  189.6850  175.0500  137.9420 N   0  0  0  0  0  2  0  0  0  0  0  0
  191.2530  176.9270  137.8520 C   0  0  0  0  0  2  0  0  0  0  0  0
  192.5900  176.2060  137.8030 C   0  0  0  0  0  2  0  0  0  0  0  0
  193.5320  176.8870  138.5740 O   0  0  0  0  0  1  0  0  0  0  0  0
  184.4730  178.8030  139.4460 O   0  0  0  0  0  0  0  0  0  0  0  0
  183.3770  179.5500  138.9710 C   0  0  0  0  0  0  0  0  0  0  0  0
  182.3370  179.5380  139.8890 F   0  0  0  0  0  0  0  0  0  0  0  0
  183.7500  180.8590  138.7010 F   0  0  0  0  0  0  0  0  0  0  0  0
  182.9270  178.9750  137.7980 F   0  0  0  0  0  0  0  0  0  0  0  0
  1 13  1  0  0  0  0
  2  6  1  0  0  0  0
  3  5  1  0  0  0  0
  3  7  1  0  0  0  0
  4  1  1  0  0  0  0
  4  6  1  0  0  0  0
  5  1  1  0  0  0  0
  6 15  1  0  0  0  0
  7 10  1  0  0  0  0
  8 14  1  0  0  0  0
  8  5  1  0  0  0  0
  9 18  1  0  0  0  0
 10 13  1  0  0  0  0
 11 12  1  0  0  0  0
 12  2  1  0  0  0  0
 13  9  1  0  0  0  0
 14  4  1  0  0  0  0
 15 18  1  0  0  0  0
 15 20  1  0  0  0  0
 16 11  1  0  0  0  0
 16 12  1  0  0  0  0
 17 16  1  0  0  0  0
 17 14  1  0  0  0  0
 19 25  1  0  0  0  0
 20 19  2  0  0  0  0
 21 20  1  0  0  0  0
 21 24  2  0  0  0  0
 22 24  1  0  0  0  0
 23 25  2  0  0  0  0
 24 23  1  0  0  0  0
 26 17  1  0  0  0  0
 27 26  1  0  0  0  0
 28 29  1  0  0  0  0
 29 27  1  0  0  0  0
 30 27  1  0  0  0  0
 31 30  1  0  0  0  0
 31 32  1  0  0  0  0
 33  3  1  0  0  0  0
 34 33  1  0  0  0  0
 34 35  1  0  0  0  0
 36 34  1  0  0  0  0
 37 34  1  0  0  0  0
M  END
>  <MODEL>
3

>  <REMARK>
 VINA RESULT:      -8.4      2.970      6.646
  Name = 
  8 active torsions:
  status: ('A' for Active; 'I' for Inactive)
    1  A    between atoms: C_1  and  C_4
    2  A    between atoms: C_1  and  N_27
    3  A    between atoms: C_2  and  O_22
    4  A    between atoms: C_4  and  C_12
    5  A    between atoms: C_4  and  N_37
    6  A    between atoms: C_6  and  O_22
    7  A    between atoms: C_8  and  C_12
    8  A    between atoms: C_23  and  C_30
                            x       y       z     vdW  Elec       q    Type
                         _______ _______ _______ _____ _____    ______ ____

>  <TORSDO>
F 8

$$$$
=
 OpenBabel11122411483D

 37 42  0  0  1  0  0  0  0  0999 V2000
  190.1550  176.9130  141.6130 C   0  0  1  0  0  3  0  0  0  0  0  0
  187.1730  177.1090  143.1370 O   0  0  0  0  0  0  0  0  0  0  0  0
  191.3900  176.6370  139.3270 C   0  0  2  0  0  3  0  0  0  0  0  0
  188.9680  177.8450  141.7590 C   0  0  2  0  0  3  0  0  0  0  0  0
  190.0810  176.5030  140.1370 C   0  0  2  0  0  3  0  0  0  0  0  0
  188.3220  177.9120  143.1420 C   0  0  2  0  0  3  0  0  0  0  0  0
  192.3590  177.6160  139.9750 C   0  0  0  0  0  2  0  0  0  0  0  0
  188.8900  177.2670  139.5840 C   0  0  0  0  0  2  0  0  0  0  0  0
  191.6430  177.6560  143.4930 C   0  0  0  0  0  2  0  0  0  0  0  0
  192.5420  177.2470  141.3150 O   0  0  0  0  0  0  0  0  0  0  0  0
  186.0650  179.3490  142.6010 C   0  0  0  0  0  2  0  0  0  0  0  0
  185.9890  177.8430  142.8260 C   0  0  1  0  0  3  0  0  0  0  0  0
  191.4070  177.7230  141.9880 C   0  0  1  0  0  3  0  0  0  0  0  0
  188.0010  177.4870  140.7290 N   0  0  2  0  0  0  0  0  0  0  0  0
  189.2570  177.5510  144.3090 C   0  0  1  0  0  3  0  0  0  0  0  0
  185.9250  178.4340  141.3900 C   0  0  2  0  0  3  0  0  0  0  0  0
  187.1460  178.6110  140.5740 N   0  0  0  0  0  0  0  0  0  0  0  0
  190.5490  178.3710  144.2820 C   0  0  0  0  0  2  0  0  0  0  0  0
  189.2790  177.5110  146.8070 C   0  0  0  0  0  3  0  0  0  0  0  0
  188.5630  177.7260  145.6250 C   0  0  0  0  0  0  0  0  0  0  0  0
  187.2090  178.0940  145.6900 C   0  0  0  0  0  3  0  0  0  0  0  0
  185.2760  178.5980  146.9900 F   0  0  0  0  0  0  0  0  0  0  0  0
  187.3030  178.0290  148.1090 C   0  0  0  0  0  3  0  0  0  0  0  0
  186.5830  178.2440  146.9310 C   0  0  0  0  0  0  0  0  0  0  0  0
  188.6510  177.6630  148.0470 C   0  0  0  0  0  3  0  0  0  0  0  0
  186.6370  178.7100  139.2000 C   0  0  0  0  0  2  0  0  0  0  0  0
  185.1130  178.6010  139.1670 C   0  0  1  0  0  3  0  0  0  0  0  0
  183.0690  179.7380  139.0480 C   0  0  0  0  0  1  0  0  0  0  0  0
  184.5100  179.9220  139.0610 N   0  0  0  0  0  2  0  0  0  0  0  0
  184.6640  177.7180  138.0100 C   0  0  0  0  0  2  0  0  0  0  0  0
  185.8460  177.2770  137.1630 C   0  0  0  0  0  2  0  0  0  0  0  0
  185.9650  175.8870  137.1890 O   0  0  0  0  0  1  0  0  0  0  0  0
  191.1470  177.0020  137.9910 O   0  0  0  0  0  0  0  0  0  0  0  0
  191.8410  176.1030  137.1570 C   0  0  0  0  0  0  0  0  0  0  0  0
  191.1540  175.9020  135.9690 F   0  0  0  0  0  0  0  0  0  0  0  0
  193.1200  176.5660  136.8880 F   0  0  0  0  0  0  0  0  0  0  0  0
  191.9460  174.8890  137.8100 F   0  0  0  0  0  0  0  0  0  0  0  0
  1  4  1  0  0  0  0
  1 13  1  0  0  0  0
  2  6  1  0  0  0  0
  3  7  1  0  0  0  0
  3  5  1  0  0  0  0
  4  6  1  0  0  0  0
  5  1  1  0  0  0  0
  6 15  1  0  0  0  0
  7 10  1  0  0  0  0
  8  5  1  0  0  0  0
  8 14  1  0  0  0  0
  9 18  1  0  0  0  0
 10 13  1  0  0  0  0
 11 12  1  0  0  0  0
 12  2  1  0  0  0  0
 13  9  1  0  0  0  0
 14  4  1  0  0  0  0
 15 20  1  0  0  0  0
 16 11  1  0  0  0  0
 16 12  1  0  0  0  0
 17 14  1  0  0  0  0
 17 16  1  0  0  0  0
 18 15  1  0  0  0  0
 19 25  1  0  0  0  0
 20 21  1  0  0  0  0
 20 19  2  0  0  0  0
 21 24  2  0  0  0  0
 24 22  1  0  0  0  0
 24 23  1  0  0  0  0
 25 23  2  0  0  0  0
 26 17  1  0  0  0  0
 27 26  1  0  0  0  0
 28 29  1  0  0  0  0
 29 27  1  0  0  0  0
 30 27  1  0  0  0  0
 31 32  1  0  0  0  0
 31 30  1  0  0  0  0
 33  3  1  0  0  0  0
 34 37  1  0  0  0  0
 34 33  1  0  0  0  0
 35 34  1  0  0  0  0
 36 34  1  0  0  0  0
M  END
>  <MODEL>
4

>  <REMARK>
 VINA RESULT:      -8.2      2.436      8.488
  Name = 
  8 active torsions:
  status: ('A' for Active; 'I' for Inactive)
    1  A    between atoms: C_1  and  C_4
    2  A    between atoms: C_1  and  N_27
    3  A    between atoms: C_2  and  O_22
    4  A    between atoms: C_4  and  C_12
    5  A    between atoms: C_4  and  N_37
    6  A    between atoms: C_6  and  O_22
    7  A    between atoms: C_8  and  C_12
    8  A    between atoms: C_23  and  C_30
                            x       y       z     vdW  Elec       q    Type
                         _______ _______ _______ _____ _____    ______ ____

>  <TORSDO>
F 8

$$$$
=
 OpenBabel11122411483D

 37 42  0  0  1  0  0  0  0  0999 V2000
  184.7910  177.9380  144.1060 C   0  0  1  0  0  3  0  0  0  0  0  0
  183.9570  177.5270  140.8820 O   0  0  0  0  0  0  0  0  0  0  0  0
  186.7380  177.8940  145.8470 C   0  0  2  0  0  3  0  0  0  0  0  0
  184.9600  178.6020  142.7530 C   0  0  2  0  0  3  0  0  0  0  0  0
  186.2200  177.5000  144.4460 C   0  0  2  0  0  3  0  0  0  0  0  0
  183.7540  178.5540  141.8160 C   0  0  2  0  0  3  0  0  0  0  0  0
  185.9570  179.0630  146.4310 C   0  0  0  0  0  2  0  0  0  0  0  0
  187.0620  177.9890  143.2780 C   0  0  0  0  0  2  0  0  0  0  0  0
  182.6840  179.0040  144.9580 C   0  0  0  0  0  2  0  0  0  0  0  0
  184.5900  178.7600  146.3810 O   0  0  0  0  0  0  0  0  0  0  0  0
  184.8530  179.4770  139.4940 C   0  0  0  0  0  2  0  0  0  0  0  0
  184.5580  177.9920  139.6740 C   0  0  1  0  0  3  0  0  0  0  0  0
  184.2060  178.9970  145.0540 C   0  0  1  0  0  3  0  0  0  0  0  0
  186.1500  178.0350  142.1310 N   0  0  2  0  0  0  0  0  0  0  0  0
  182.3950  178.4130  142.5210 C   0  0  1  0  0  3  0  0  0  0  0  0
  186.0080  178.5360  139.8140 C   0  0  2  0  0  3  0  0  0  0  0  0
  186.5520  178.9530  141.1240 N   0  0  0  0  0  0  0  0  0  0  0  0
  182.1930  179.4850  143.5950 C   0  0  0  0  0  2  0  0  0  0  0  0
  180.2470  177.5090  141.6160 C   0  0  0  0  0  3  0  0  0  0  0  0
  181.2710  178.4590  141.5310 C   0  0  0  0  0  0  0  0  0  0  0  0
  181.2330  179.4310  140.5180 C   0  0  0  0  0  3  0  0  0  0  0  0
  180.1440  180.3870  138.6260 F   0  0  0  0  0  0  0  0  0  0  0  0
  179.1570  178.4980  139.6920 C   0  0  0  0  0  3  0  0  0  0  0  0
  180.1770  179.4480  139.6030 C   0  0  0  0  0  0  0  0  0  0  0  0
  179.1920  177.5280  140.7000 C   0  0  0  0  0  3  0  0  0  0  0  0
  188.0070  178.9220  140.9250 C   0  0  0  0  0  2  0  0  0  0  0  0
  188.3740  178.1420  139.6640 C   0  0  1  0  0  3  0  0  0  0  0  0
  189.0240  178.3140  137.4200 C   0  0  0  0  0  1  0  0  0  0  0  0
  189.0190  179.0150  138.6930 N   0  0  0  0  0  2  0  0  0  0  0  0
  189.2820  176.9670  140.0060 C   0  0  0  0  0  2  0  0  0  0  0  0
  190.0320  177.2120  141.3050 C   0  0  0  0  0  2  0  0  0  0  0  0
  190.2030  176.0130  141.9960 O   0  0  0  0  0  1  0  0  0  0  0  0
  188.1140  178.1800  145.8390 O   0  0  0  0  0  0  0  0  0  0  0  0
  188.6940  177.5820  146.9760 C   0  0  0  0  0  0  0  0  0  0  0  0
  187.7860  176.7500  147.6130 F   0  0  0  0  0  0  0  0  0  0  0  0
  189.8290  176.8630  146.6320 F   0  0  0  0  0  0  0  0  0  0  0  0
  189.0630  178.5800  147.8580 F   0  0  0  0  0  0  0  0  0  0  0  0
  1  5  1  0  0  0  0
  1 13  1  0  0  0  0
  2  6  1  0  0  0  0
  3  7  1  0  0  0  0
  4  1  1  0  0  0  0
  5  3  1  0  0  0  0
  6 15  1  0  0  0  0
  6  4  1  0  0  0  0
  8  5  1  0  0  0  0
  9 13  1  0  0  0  0
 10  7  1  0  0  0  0
 11 12  1  0  0  0  0
 11 16  1  0  0  0  0
 12 16  1  0  0  0  0
 12  2  1  0  0  0  0
 13 10  1  0  0  0  0
 14  4  1  0  0  0  0
 14  8  1  0  0  0  0
 15 18  1  0  0  0  0
 16 17  1  0  0  0  0
 17 14  1  0  0  0  0
 18  9  1  0  0  0  0
 20 19  1  0  0  0  0
 20 15  1  0  0  0  0
 21 20  2  0  0  0  0
 22 24  1  0  0  0  0
 23 25  1  0  0  0  0
 24 23  2  0  0  0  0
 24 21  1  0  0  0  0
 25 19  2  0  0  0  0
 26 17  1  0  0  0  0
 27 30  1  0  0  0  0
 27 26  1  0  0  0  0
 28 29  1  0  0  0  0
 29 27  1  0  0  0  0
 30 31  1  0  0  0  0
 31 32  1  0  0  0  0
 33  3  1  0  0  0  0
 33 34  1  0  0  0  0
 34 35  1  0  0  0  0
 34 37  1  0  0  0  0
 36 34  1  0  0  0  0
M  END
>  <MODEL>
5

>  <REMARK>
 VINA RESULT:      -8.1      3.486      7.881
  Name = 
  8 active torsions:
  status: ('A' for Active; 'I' for Inactive)
    1  A    between atoms: C_1  and  C_4
    2  A    between atoms: C_1  and  N_27
    3  A    between atoms: C_2  and  O_22
    4  A    between atoms: C_4  and  C_12
    5  A    between atoms: C_4  and  N_37
    6  A    between atoms: C_6  and  O_22
    7  A    between atoms: C_8  and  C_12
    8  A    between atoms: C_23  and  C_30
                            x       y       z     vdW  Elec       q    Type
                         _______ _______ _______ _____ _____    ______ ____

>  <TORSDO>
F 8

$$$$
=
 OpenBabel11122411483D

 37 42  0  0  1  0  0  0  0  0999 V2000
  186.3470  177.5400  144.2140 C   0  0  1  0  0  3  0  0  0  0  0  0
  184.1730  177.6170  141.6590 O   0  0  0  0  0  0  0  0  0  0  0  0
  188.8240  177.1010  144.9190 C   0  0  2  0  0  3  0  0  0  0  0  0
  186.0130  178.3530  142.9780 C   0  0  2  0  0  3  0  0  0  0  0  0
  187.7110  176.9360  143.8600 C   0  0  2  0  0  3  0  0  0  0  0  0
  184.5290  178.5310  142.6620 C   0  0  2  0  0  3  0  0  0  0  0  0
  188.5330  178.2520  145.8710 C   0  0  0  0  0  2  0  0  0  0  0  0
  188.0340  177.4920  142.4830 C   0  0  0  0  0  2  0  0  0  0  0  0
  184.9690  178.6740  145.9790 C   0  0  0  0  0  2  0  0  0  0  0  0
  187.2470  178.0820  146.4030 O   0  0  0  0  0  0  0  0  0  0  0  0
  184.6490  179.6390  140.1700 C   0  0  0  0  0  2  0  0  0  0  0  0
  184.2610  178.1750  140.3490 C   0  0  1  0  0  3  0  0  0  0  0  0
  186.3710  178.5190  145.3990 C   0  0  1  0  0  3  0  0  0  0  0  0
  186.7360  177.7640  141.8570 N   0  0  2  0  0  0  0  0  0  0  0  0
  183.5930  178.4250  143.8780 C   0  0  1  0  0  3  0  0  0  0  0  0
  185.6910  178.5650  139.8800 C   0  0  2  0  0  3  0  0  0  0  0  0
  186.7910  178.7620  140.8480 N   0  0  0  0  0  0  0  0  0  0  0  0
  184.0150  179.3660  145.0090 C   0  0  0  0  0  2  0  0  0  0  0  0
  181.1390  178.2530  144.3190 C   0  0  0  0  0  3  0  0  0  0  0  0
  182.1730  178.6960  143.4860 C   0  0  0  0  0  0  0  0  0  0  0  0
  181.8630  179.3780  142.2980 C   0  0  0  0  0  3  0  0  0  0  0  0
  180.2350  180.2690  140.8030 F   0  0  0  0  0  0  0  0  0  0  0  0
  179.5010  179.1680  142.7860 C   0  0  0  0  0  3  0  0  0  0  0  0
  180.5300  179.6120  141.9510 C   0  0  0  0  0  0  0  0  0  0  0  0
  179.8060  178.4890  143.9700 C   0  0  0  0  0  3  0  0  0  0  0  0
  188.0040  178.6270  140.0300 C   0  0  0  0  0  2  0  0  0  0  0  0
  187.6790  178.0540  138.6520 C   0  0  1  0  0  3  0  0  0  0  0  0
  187.3150  178.6160  136.4070 C   0  0  0  0  0  1  0  0  0  0  0  0
  188.0370  179.0030  137.6070 N   0  0  0  0  0  2  0  0  0  0  0  0
  188.4020  176.7300  138.4370 C   0  0  0  0  0  2  0  0  0  0  0  0
  189.9000  176.8830  138.6400 C   0  0  0  0  0  2  0  0  0  0  0  0
  190.5060  175.6290  138.7200 O   0  0  0  0  0  1  0  0  0  0  0  0
  190.0910  177.2620  144.3310 O   0  0  0  0  0  0  0  0  0  0  0  0
  191.0570  176.7580  145.2250 C   0  0  0  0  0  0  0  0  0  0  0  0
  190.4690  176.3660  146.4180 F   0  0  0  0  0  0  0  0  0  0  0  0
  191.7380  175.6880  144.6640 F   0  0  0  0  0  0  0  0  0  0  0  0
  191.9690  177.7590  145.4980 F   0  0  0  0  0  0  0  0  0  0  0  0
  1 13  1  0  0  0  0
  2  6  1  0  0  0  0
  3  7  1  0  0  0  0
  4  1  1  0  0  0  0
  5  1  1  0  0  0  0
  5  3  1  0  0  0  0
  6  4  1  0  0  0  0
  6 15  1  0  0  0  0
  7 10  1  0  0  0  0
  8  5  1  0  0  0  0
 11 12  1  0  0  0  0
 12  2  1  0  0  0  0
 13  9  1  0  0  0  0
 13 10  1  0  0  0  0
 14  8  1  0  0  0  0
 14  4  1  0  0  0  0
 15 18  1  0  0  0  0
 16 11  1  0  0  0  0
 16 12  1  0  0  0  0
 16 17  1  0  0  0  0
 17 14  1  0  0  0  0
 18  9  1  0  0  0  0
 20 15  1  0  0  0  0
 20 19  2  0  0  0  0
 21 20  1  0  0  0  0
 22 24  1  0  0  0  0
 23 25  2  0  0  0  0
 24 21  2  0  0  0  0
 24 23  1  0  0  0  0
 25 19  1  0  0  0  0
 26 17  1  0  0  0  0
 27 26  1  0  0  0  0
 28 29  1  0  0  0  0
 29 27  1  0  0  0  0
 30 31  1  0  0  0  0
 30 27  1  0  0  0  0
 31 32  1  0  0  0  0
 33  3  1  0  0  0  0
 33 34  1  0  0  0  0
 34 37  1  0  0  0  0
 34 35  1  0  0  0  0
 36 34  1  0  0  0  0
M  END
>  <MODEL>
6

>  <REMARK>
 VINA RESULT:      -8.0      3.409      8.474
  Name = 
  8 active torsions:
  status: ('A' for Active; 'I' for Inactive)
    1  A    between atoms: C_1  and  C_4
    2  A    between atoms: C_1  and  N_27
    3  A    between atoms: C_2  and  O_22
    4  A    between atoms: C_4  and  C_12
    5  A    between atoms: C_4  and  N_37
    6  A    between atoms: C_6  and  O_22
    7  A    between atoms: C_8  and  C_12
    8  A    between atoms: C_23  and  C_30
                            x       y       z     vdW  Elec       q    Type
                         _______ _______ _______ _____ _____    ______ ____

>  <TORSDO>
F 8

$$$$
=
 OpenBabel11122411483D

 37 42  0  0  1  0  0  0  0  0999 V2000
  185.3990  179.0250  140.8230 C   0  0  1  0  0  3  0  0  0  0  0  0
  188.6730  178.8390  140.1140 O   0  0  0  0  0  0  0  0  0  0  0  0
  183.0070  179.4350  139.8550 C   0  0  2  0  0  3  0  0  0  0  0  0
  186.3980  178.1400  140.1030 C   0  0  2  0  0  3  0  0  0  0  0  0
  184.5360  179.5610  139.6740 C   0  0  2  0  0  3  0  0  0  0  0  0
  187.7680  177.9850  140.7620 C   0  0  2  0  0  3  0  0  0  0  0  0
  182.6440  178.3610  140.8710 C   0  0  0  0  0  2  0  0  0  0  0  0
  185.1020  178.9030  138.4270 C   0  0  0  0  0  2  0  0  0  0  0  0
  185.4090  178.0570  143.1390 C   0  0  0  0  0  2  0  0  0  0  0  0
  183.3490  178.6070  142.0560 O   0  0  0  0  0  0  0  0  0  0  0  0
  189.1590  176.7060  138.7920 C   0  0  0  0  0  2  0  0  0  0  0  0
  189.3850  178.1890  139.0620 C   0  0  1  0  0  3  0  0  0  0  0  0
  184.6460  178.1290  141.8210 C   0  0  1  0  0  3  0  0  0  0  0  0
  186.5090  178.6280  138.7340 N   0  0  2  0  0  0  0  0  0  0  0  0
  187.7800  178.2030  142.2840 C   0  0  1  0  0  3  0  0  0  0  0  0
  188.5230  177.7250  137.8550 C   0  0  2  0  0  3  0  0  0  0  0  0
  187.0580  177.5620  137.9720 N   0  0  0  0  0  0  0  0  0  0  0  0
  186.7440  177.3290  142.9950 C   0  0  0  0  0  2  0  0  0  0  0  0
  189.6280  176.6370  142.8990 C   0  0  0  0  0  3  0  0  0  0  0  0
  189.1430  177.9480  142.8510 C   0  0  0  0  0  0  0  0  0  0  0  0
  189.9350  179.0000  143.3400 C   0  0  0  0  0  3  0  0  0  0  0  0
  191.9610  179.7530  144.3440 F   0  0  0  0  0  0  0  0  0  0  0  0
  191.6810  177.4250  143.9170 C   0  0  0  0  0  3  0  0  0  0  0  0
  191.2000  178.7360  143.8710 C   0  0  0  0  0  0  0  0  0  0  0  0
  190.8950  176.3760  143.4300 C   0  0  0  0  0  3  0  0  0  0  0  0
  186.5880  177.6040  136.5810 C   0  0  0  0  0  2  0  0  0  0  0  0
  186.1650  176.2170  136.1000 C   0  0  1  0  0  3  0  0  0  0  0  0
  187.4350  174.2760  136.4290 C   0  0  0  0  0  1  0  0  0  0  0  0
  187.3180  175.4720  135.6120 N   0  0  0  0  0  2  0  0  0  0  0  0
  185.4720  175.4500  137.2190 C   0  0  0  0  0  2  0  0  0  0  0  0
  183.9650  175.6310  137.1580 C   0  0  0  0  0  2  0  0  0  0  0  0
  183.4290  175.6440  138.4470 O   0  0  0  0  0  1  0  0  0  0  0  0
  182.3500  179.1960  138.6350 O   0  0  0  0  0  0  0  0  0  0  0  0
  181.5540  180.3200  138.3370 C   0  0  0  0  0  0  0  0  0  0  0  0
  180.3460  180.2630  139.0170 F   0  0  0  0  0  0  0  0  0  0  0  0
  182.2180  181.4950  138.6570 F   0  0  0  0  0  0  0  0  0  0  0  0
  181.2900  180.3260  136.9810 F   0  0  0  0  0  0  0  0  0  0  0  0
  1 13  1  0  0  0  0
  2  6  1  0  0  0  0
  3  7  1  0  0  0  0
  4  6  1  0  0  0  0
  4  1  1  0  0  0  0
  5  3  1  0  0  0  0
  5  1  1  0  0  0  0
  6 15  1  0  0  0  0
  7 10  1  0  0  0  0
  8 14  1  0  0  0  0
  8  5  1  0  0  0  0
 11 12  1  0  0  0  0
 12  2  1  0  0  0  0
 13 10  1  0  0  0  0
 13  9  1  0  0  0  0
 14  4  1  0  0  0  0
 15 20  1  0  0  0  0
 15 18  1  0  0  0  0
 16 17  1  0  0  0  0
 16 11  1  0  0  0  0
 16 12  1  0  0  0  0
 17 14  1  0  0  0  0
 18  9  1  0  0  0  0
 19 25  1  0  0  0  0
 20 19  2  0  0  0  0
 20 21  1  0  0  0  0
 21 24  2  0  0  0  0
 24 23  1  0  0  0  0
 24 22  1  0  0  0  0
 25 23  2  0  0  0  0
 26 17  1  0  0  0  0
 27 26  1  0  0  0  0
 27 30  1  0  0  0  0
 29 27  1  0  0  0  0
 29 28  1  0  0  0  0
 31 30  1  0  0  0  0
 31 32  1  0  0  0  0
 33  3  1  0  0  0  0
 34 33  1  0  0  0  0
 34 36  1  0  0  0  0
 34 35  1  0  0  0  0
 37 34  1  0  0  0  0
M  END
>  <MODEL>
7

>  <REMARK>
 VINA RESULT:      -7.5      4.143      7.002
  Name = 
  8 active torsions:
  status: ('A' for Active; 'I' for Inactive)
    1  A    between atoms: C_1  and  C_4
    2  A    between atoms: C_1  and  N_27
    3  A    between atoms: C_2  and  O_22
    4  A    between atoms: C_4  and  C_12
    5  A    between atoms: C_4  and  N_37
    6  A    between atoms: C_6  and  O_22
    7  A    between atoms: C_8  and  C_12
    8  A    between atoms: C_23  and  C_30
                            x       y       z     vdW  Elec       q    Type
                         _______ _______ _______ _____ _____    ______ ____

>  <TORSDO>
F 8

$$$$
=
 OpenBabel11122411483D

 37 42  0  0  1  0  0  0  0  0999 V2000
  185.4070  179.0110  140.9070 C   0  0  1  0  0  3  0  0  0  0  0  0
  188.6840  178.8570  140.2050 O   0  0  0  0  0  0  0  0  0  0  0  0
  183.0110  179.3770  139.9310 C   0  0  2  0  0  3  0  0  0  0  0  0
  186.4180  178.1290  140.2020 C   0  0  2  0  0  3  0  0  0  0  0  0
  184.5390  179.5190  139.7500 C   0  0  2  0  0  3  0  0  0  0  0  0
  187.7890  178.0010  140.8640 C   0  0  2  0  0  3  0  0  0  0  0  0
  182.6600  178.3130  140.9610 C   0  0  0  0  0  2  0  0  0  0  0  0
  185.1150  178.8510  138.5130 C   0  0  0  0  0  2  0  0  0  0  0  0
  185.4260  178.0770  143.2370 C   0  0  0  0  0  2  0  0  0  0  0  0
  183.3610  178.5850  142.1440 O   0  0  0  0  0  0  0  0  0  0  0  0
  189.2000  176.7120  138.9150 C   0  0  0  0  0  2  0  0  0  0  0  0
  189.4060  178.2020  139.1630 C   0  0  1  0  0  3  0  0  0  0  0  0
  184.6640  178.1200  141.9170 C   0  0  1  0  0  3  0  0  0  0  0  0
  186.5250  178.5980  138.8260 N   0  0  2  0  0  0  0  0  0  0  0  0
  187.7960  178.2410  142.3830 C   0  0  1  0  0  3  0  0  0  0  0  0
  188.5510  177.7090  137.9620 C   0  0  2  0  0  3  0  0  0  0  0  0
  187.0880  177.5290  138.0800 N   0  0  0  0  0  0  0  0  0  0  0  0
  186.7700  177.3650  143.1060 C   0  0  0  0  0  2  0  0  0  0  0  0
  189.8920  179.1050  143.4340 C   0  0  0  0  0  3  0  0  0  0  0  0
  189.1620  178.0130  142.9550 C   0  0  0  0  0  0  0  0  0  0  0  0
  189.7210  176.7250  143.0100 C   0  0  0  0  0  3  0  0  0  0  0  0
  191.5370  175.2960  143.5920 F   0  0  0  0  0  0  0  0  0  0  0  0
  191.7260  177.6340  144.0200 C   0  0  0  0  0  3  0  0  0  0  0  0
  191.0000  176.5390  143.5420 C   0  0  0  0  0  0  0  0  0  0  0  0
  191.1710  178.9160  143.9660 C   0  0  0  0  0  3  0  0  0  0  0  0
  186.6200  177.5440  136.6880 C   0  0  0  0  0  2  0  0  0  0  0  0
  186.2370  176.1420  136.2190 C   0  0  1  0  0  3  0  0  0  0  0  0
  184.5140  174.6940  135.5690 C   0  0  0  0  0  1  0  0  0  0  0  0
  184.8040  176.0590  135.9750 N   0  0  0  0  0  2  0  0  0  0  0  0
  187.0130  175.7660  134.9630 C   0  0  0  0  0  2  0  0  0  0  0  0
  188.3510  175.1350  135.3110 C   0  0  0  0  0  2  0  0  0  0  0  0
  188.2220  174.3230  136.4380 O   0  0  0  0  0  1  0  0  0  0  0  0
  182.3600  179.1120  138.7130 O   0  0  0  0  0  0  0  0  0  0  0  0
  181.5700  180.2320  138.3850 C   0  0  0  0  0  0  0  0  0  0  0  0
  180.3420  180.1750  139.0280 F   0  0  0  0  0  0  0  0  0  0  0  0
  182.2210  181.4100  138.7180 F   0  0  0  0  0  0  0  0  0  0  0  0
  181.3470  180.2280  137.0210 F   0  0  0  0  0  0  0  0  0  0  0  0
  1 13  1  0  0  0  0
  2  6  1  0  0  0  0
  3  7  1  0  0  0  0
  4  6  1  0  0  0  0
  4  1  1  0  0  0  0
  5  3  1  0  0  0  0
  5  1  1  0  0  0  0
  6 15  1  0  0  0  0
  7 10  1  0  0  0  0
  8 14  1  0  0  0  0
  8  5  1  0  0  0  0
 11 12  1  0  0  0  0
 12  2  1  0  0  0  0
 13 10  1  0  0  0  0
 13  9  1  0  0  0  0
 14  4  1  0  0  0  0
 15 20  1  0  0  0  0
 15 18  1  0  0  0  0
 16 17  1  0  0  0  0
 16 11  1  0  0  0  0
 16 12  1  0  0  0  0
 17 14  1  0  0  0  0
 18  9  1  0  0  0  0
 19 25  1  0  0  0  0
 20 21  1  0  0  0  0
 20 19  2  0  0  0  0
 21 24  2  0  0  0  0
 24 22  1  0  0  0  0
 24 23  1  0  0  0  0
 25 23  2  0  0  0  0
 26 17  1  0  0  0  0
 27 26  1  0  0  0  0
 28 29  1  0  0  0  0
 29 27  1  0  0  0  0
 30 31  1  0  0  0  0
 30 27  1  0  0  0  0
 31 32  1  0  0  0  0
 33  3  1  0  0  0  0
 34 33  1  0  0  0  0
 34 36  1  0  0  0  0
 34 35  1  0  0  0  0
 37 34  1  0  0  0  0
M  END
>  <MODEL>
8

>  <REMARK>
 VINA RESULT:      -7.3      3.967      7.200
  Name = 
  8 active torsions:
  status: ('A' for Active; 'I' for Inactive)
    1  A    between atoms: C_1  and  C_4
    2  A    between atoms: C_1  and  N_27
    3  A    between atoms: C_2  and  O_22
    4  A    between atoms: C_4  and  C_12
    5  A    between atoms: C_4  and  N_37
    6  A    between atoms: C_6  and  O_22
    7  A    between atoms: C_8  and  C_12
    8  A    between atoms: C_23  and  C_30
                            x       y       z     vdW  Elec       q    Type
                         _______ _______ _______ _____ _____    ______ ____

>  <TORSDO>
F 8

$$$$
=
 OpenBabel11122411483D

 37 42  0  0  1  0  0  0  0  0999 V2000
  189.9770  177.6560  143.0140 C   0  0  1  0  0  3  0  0  0  0  0  0
  187.4090  179.2000  141.5040 O   0  0  0  0  0  0  0  0  0  0  0  0
  191.0360  176.9810  145.3050 C   0  0  2  0  0  3  0  0  0  0  0  0
  188.4930  177.4880  142.7530 C   0  0  2  0  0  3  0  0  0  0  0  0
  190.0300  177.8630  144.5320 C   0  0  2  0  0  3  0  0  0  0  0  0
  187.9890  177.9290  141.3790 C   0  0  2  0  0  3  0  0  0  0  0  0
  191.4120  175.7320  144.5210 C   0  0  0  0  0  2  0  0  0  0  0  0
  188.5840  177.7550  144.9870 C   0  0  0  0  0  2  0  0  0  0  0  0
  190.9950  176.4910  141.0370 C   0  0  0  0  0  2  0  0  0  0  0  0
  191.8390  176.1150  143.2430 O   0  0  0  0  0  0  0  0  0  0  0  0
  185.2860  177.7960  141.7400 C   0  0  0  0  0  2  0  0  0  0  0  0
  186.0000  179.1430  141.7220 C   0  0  1  0  0  3  0  0  0  0  0  0
  190.6650  176.3720  142.5210 C   0  0  1  0  0  3  0  0  0  0  0  0
  187.7790  178.1620  143.8310 N   0  0  2  0  0  0  0  0  0  0  0  0
  189.0480  177.9000  140.2640 C   0  0  1  0  0  3  0  0  0  0  0  0
  185.5550  178.4980  143.0650 C   0  0  2  0  0  3  0  0  0  0  0  0
  186.4640  177.6240  143.8380 N   0  0  0  0  0  0  0  0  0  0  0  0
  189.7410  176.5390  140.1680 C   0  0  0  0  0  2  0  0  0  0  0  0
  189.1990  179.0130  138.0320 C   0  0  0  0  0  3  0  0  0  0  0  0
  188.4450  178.2650  138.9430 C   0  0  0  0  0  0  0  0  0  0  0  0
  187.1370  177.8780  138.6080 C   0  0  0  0  0  3  0  0  0  0  0  0
  185.3310  177.8630  137.0530 F   0  0  0  0  0  0  0  0  0  0  0  0
  187.3520  178.9840  136.4650 C   0  0  0  0  0  3  0  0  0  0  0  0
  186.5940  178.2380  137.3720 C   0  0  0  0  0  0  0  0  0  0  0  0
  188.6540  179.3700  136.7950 C   0  0  0  0  0  3  0  0  0  0  0  0
  185.8910  177.6330  145.1910 C   0  0  0  0  0  2  0  0  0  0  0  0
  185.2960  178.9990  145.5280 C   0  0  1  0  0  3  0  0  0  0  0  0
  183.1350  179.0400  144.6230 C   0  0  0  0  0  1  0  0  0  0  0  0
  183.8830  178.8720  145.8580 N   0  0  0  0  0  2  0  0  0  0  0  0
  186.0540  179.6450  146.6810 C   0  0  0  0  0  2  0  0  0  0  0  0
  186.3830  178.6280  147.7610 C   0  0  0  0  0  2  0  0  0  0  0  0
  187.7300  178.7170  148.1130 O   0  0  0  0  0  1  0  0  0  0  0  0
  190.5580  176.6320  146.5810 O   0  0  0  0  0  0  0  0  0  0  0  0
  191.6510  176.1870  147.3520 C   0  0  0  0  0  0  0  0  0  0  0  0
  191.3700  174.9670  147.9470 F   0  0  0  0  0  0  0  0  0  0  0  0
  192.7940  176.0780  146.5730 F   0  0  0  0  0  0  0  0  0  0  0  0
  191.8920  177.1130  148.3490 F   0  0  0  0  0  0  0  0  0  0  0  0
  1  5  1  0  0  0  0
  2 12  1  0  0  0  0
  3 33  1  0  0  0  0
  4  1  1  0  0  0  0
  4 14  1  0  0  0  0
  5  8  1  0  0  0  0
  5  3  1  0  0  0  0
  6  2  1  0  0  0  0
  6  4  1  0  0  0  0
  7  3  1  0  0  0  0
  9 13  1  0  0  0  0
 10  7  1  0  0  0  0
 11 16  1  0  0  0  0
 12 11  1  0  0  0  0
 12 16  1  0  0  0  0
 13  1  1  0  0  0  0
 13 10  1  0  0  0  0
 14 17  1  0  0  0  0
 14  8  1  0  0  0  0
 15  6  1  0  0  0  0
 16 17  1  0  0  0  0
 17 26  1  0  0  0  0
 18 15  1  0  0  0  0
 18  9  1  0  0  0  0
 19 20  1  0  0  0  0
 20 15  1  0  0  0  0
 21 20  2  0  0  0  0
 22 24  1  0  0  0  0
 23 25  1  0  0  0  0
 23 24  2  0  0  0  0
 24 21  1  0  0  0  0
 25 19  2  0  0  0  0
 26 27  1  0  0  0  0
 27 29  1  0  0  0  0
 27 30  1  0  0  0  0
 28 29  1  0  0  0  0
 30 31  1  0  0  0  0
 31 32  1  0  0  0  0
 33 34  1  0  0  0  0
 34 35  1  0  0  0  0
 34 37  1  0  0  0  0
 36 34  1  0  0  0  0
M  END
>  <MODEL>
9

>  <REMARK>
 VINA RESULT:      -7.3      3.438      5.759
  Name = 
  8 active torsions:
  status: ('A' for Active; 'I' for Inactive)
    1  A    between atoms: C_1  and  C_4
    2  A    between atoms: C_1  and  N_27
    3  A    between atoms: C_2  and  O_22
    4  A    between atoms: C_4  and  C_12
    5  A    between atoms: C_4  and  N_37
    6  A    between atoms: C_6  and  O_22
    7  A    between atoms: C_8  and  C_12
    8  A    between atoms: C_23  and  C_30
                            x       y       z     vdW  Elec       q    Type
                         _______ _______ _______ _____ _____    ______ ____

>  <TORSDO>
F 8

$$$$
