=
 OpenBabel11122411593D

 28 32  0  0  1  0  0  0  0  0999 V2000
  180.3690  178.4440  139.6830 C   0  0  0  0  0  0  0  0  0  0  0  0
  183.3800  176.9790  138.8960 F   0  0  0  0  0  0  0  0  0  0  0  0
  183.5520  179.8450  144.5750 O   0  0  0  0  0  0  0  0  0  0  0  0
  179.9060  180.6500  138.0070 C   0  0  0  0  0  3  0  0  0  0  0  0
  184.9400  178.9360  142.8090 C   0  0  2  0  0  3  0  0  0  0  0  0
  180.5020  177.2730  140.6060 C   0  0  0  0  0  2  0  0  0  0  0  0
  183.0490  178.4570  137.0870 C   0  0  0  0  0  1  0  0  0  0  0  0
  183.9070  178.1060  138.2880 C   0  0  1  0  0  0  0  0  0  0  0  0
  186.3880  177.9010  138.6530 C   0  0  0  0  0  0  0  0  0  0  0  0
  183.9630  179.3010  139.2760 C   0  0  2  0  0  3  0  0  0  0  0  0
  179.7490  177.6840  144.2340 O   0  0  0  0  0  1  0  0  0  0  0  0
  182.9830  178.4740  141.3580 C   0  0  1  0  0  3  0  0  0  0  0  0
  186.3120  178.5270  139.7850 N   0  0  0  0  0  0  0  0  0  0  0  0
  185.2440  177.7900  137.8080 N   0  0  0  0  0  2  0  0  0  0  0  0
  180.5370  177.7750  143.0870 C   0  0  2  0  0  3  0  0  0  0  0  0
  181.3760  179.4360  139.5260 C   0  0  0  0  0  0  0  0  0  0  0  0
  183.6540  179.3270  143.4300 C   0  0  0  0  0  0  0  0  0  0  0  0
  187.6380  177.3800  138.2170 N   0  0  0  0  0  1  0  0  0  0  0  0
  181.1490  179.1680  143.0140 C   0  0  0  0  0  2  0  0  0  0  0  0
  181.1150  180.5350  138.6930 C   0  0  0  0  0  3  0  0  0  0  0  0
  179.1610  178.5720  138.9830 C   0  0  0  0  0  3  0  0  0  0  0  0
  178.9310  179.6650  138.1470 C   0  0  0  0  0  3  0  0  0  0  0  0
  179.6700  177.4930  141.8650 C   0  0  0  0  0  2  0  0  0  0  0  0
  184.5110  178.3330  141.4650 C   0  0  1  0  0  3  0  0  0  0  0  0
  182.5420  179.0800  142.5970 N   0  0  0  0  0  0  0  0  0  0  0  0
  185.0870  179.1370  140.3080 C   0  0  2  0  0  3  0  0  0  0  0  0
  185.6170  177.8660  143.6440 C   0  0  0  0  0  1  0  0  0  0  0  0
  182.7390  179.4150  140.1880 C   0  0  2  0  0  3  0  0  0  0  0  0
  1  6  1  0  0  0  0
  4 22  2  0  0  0  0
  4 20  1  0  0  0  0
  5 17  1  0  0  0  0
  5 27  1  1  0  0  0
  6 23  1  0  0  0  0
  8  7  1  6  0  0  0
  8  2  1  0  0  0  0
  8 10  1  0  0  0  0
  9 13  2  0  0  0  0
 10 28  1  0  0  0  0
 10 26  1  0  0  0  0
 12 24  1  0  0  0  0
 12 25  1  0  0  0  0
 13 26  1  0  0  0  0
 14  8  1  0  0  0  0
 14  9  1  0  0  0  0
 15 11  1  0  0  0  0
 16  1  1  0  0  0  0
 16 28  1  0  0  0  0
 17  3  2  0  0  0  0
 18  9  1  0  0  0  0
 19 15  1  0  0  0  0
 20 16  2  0  0  0  0
 21  1  2  0  0  0  0
 22 21  1  0  0  0  0
 23 15  1  0  0  0  0
 24  5  1  0  0  0  0
 25 19  1  0  0  0  0
 25 17  1  0  0  0  0
 26 24  1  0  0  0  0
 28 12  1  0  0  0  0
M  END
>  <MODEL>
1

>  <REMARK>
 VINA RESULT:      -6.4      0.000      0.000
  Name = 
  0 active torsions:
  status: ('A' for Active; 'I' for Inactive)
                            x       y       z     vdW  Elec       q    Type
                         _______ _______ _______ _____ _____    ______ ____

>  <TORSDO>
F 0

$$$$
=
 OpenBabel11122411593D

 28 32  0  0  1  0  0  0  0  0999 V2000
  190.1160  177.3690  144.3840 C   0  0  0  0  0  0  0  0  0  0  0  0
  188.3090  179.3090  142.1920 F   0  0  0  0  0  0  0  0  0  0  0  0
  184.7720  177.3760  147.1160 O   0  0  0  0  0  0  0  0  0  0  0  0
  190.7380  174.9010  143.1970 C   0  0  0  0  0  3  0  0  0  0  0  0
  184.6570  178.2970  144.8780 C   0  0  2  0  0  3  0  0  0  0  0  0
  189.8660  178.6610  145.0990 C   0  0  0  0  0  2  0  0  0  0  0  0
  189.0650  177.5540  140.8090 C   0  0  0  0  0  1  0  0  0  0  0  0
  187.8650  178.2430  141.4270 C   0  0  1  0  0  0  0  0  0  0  0  0
  185.6460  179.0150  140.5250 C   0  0  0  0  0  0  0  0  0  0  0  0
  187.0510  177.2390  142.2860 C   0  0  2  0  0  3  0  0  0  0  0  0
  188.6940  178.6190  148.6380 O   0  0  0  0  0  1  0  0  0  0  0  0
  187.1100  178.1270  144.5630 C   0  0  1  0  0  3  0  0  0  0  0  0
  185.0200  178.5530  141.5620 N   0  0  0  0  0  0  0  0  0  0  0  0
  187.0380  178.7620  140.3460 N   0  0  0  0  0  2  0  0  0  0  0  0
  188.5440  178.5330  147.2540 C   0  0  2  0  0  3  0  0  0  0  0  0
  189.0880  176.5990  143.7740 C   0  0  0  0  0  0  0  0  0  0  0  0
  185.3540  177.7360  146.0580 C   0  0  0  0  0  0  0  0  0  0  0  0
  184.9250  179.7190  139.5220 N   0  0  0  0  0  1  0  0  0  0  0  0
  187.7090  177.3050  146.9190 C   0  0  0  0  0  2  0  0  0  0  0  0
  189.4220  175.3640  143.2000 C   0  0  0  0  0  3  0  0  0  0  0  0
  191.4350  176.8930  144.3690 C   0  0  0  0  0  3  0  0  0  0  0  0
  191.7460  175.6690  143.7770 C   0  0  0  0  0  3  0  0  0  0  0  0
  189.9230  178.4510  146.6090 C   0  0  0  0  0  2  0  0  0  0  0  0
  185.8030  178.6000  143.9040 C   0  0  1  0  0  3  0  0  0  0  0  0
  186.7490  177.6240  145.8710 N   0  0  0  0  0  0  0  0  0  0  0  0
  185.6570  177.7790  142.6300 C   0  0  2  0  0  3  0  0  0  0  0  0
  183.9620  179.5930  145.2510 C   0  0  0  0  0  1  0  0  0  0  0  0
  187.6290  177.0000  143.6820 C   0  0  2  0  0  3  0  0  0  0  0  0
  1  6  1  0  0  0  0
  4 20  2  0  0  0  0
  4 22  1  0  0  0  0
  5 27  1  1  0  0  0
  5 17  1  0  0  0  0
  6 23  1  0  0  0  0
  8  7  1  6  0  0  0
  8  2  1  0  0  0  0
  8 10  1  0  0  0  0
  9 13  2  0  0  0  0
 10 26  1  0  0  0  0
 10 28  1  0  0  0  0
 12 25  1  0  0  0  0
 13 26  1  0  0  0  0
 14  9  1  0  0  0  0
 14  8  1  0  0  0  0
 15 11  1  0  0  0  0
 16  1  2  0  0  0  0
 17  3  2  0  0  0  0
 18  9  1  0  0  0  0
 19 15  1  0  0  0  0
 20 16  1  0  0  0  0
 21  1  1  0  0  0  0
 22 21  2  0  0  0  0
 23 15  1  0  0  0  0
 24 12  1  0  0  0  0
 24  5  1  0  0  0  0
 25 17  1  0  0  0  0
 25 19  1  0  0  0  0
 26 24  1  0  0  0  0
 28 16  1  0  0  0  0
 28 12  1  0  0  0  0
M  END
>  <MODEL>
2

>  <REMARK>
 VINA RESULT:      -6.2      4.150      7.800
  Name = 
  0 active torsions:
  status: ('A' for Active; 'I' for Inactive)
                            x       y       z     vdW  Elec       q    Type
                         _______ _______ _______ _____ _____    ______ ____

>  <TORSDO>
F 0

$$$$
=
 OpenBabel11122411593D

 28 32  0  0  1  0  0  0  0  0999 V2000
  181.1230  176.1120  137.2870 C   0  0  0  0  0  0  0  0  0  0  0  0
  184.4820  176.0920  138.0300 F   0  0  0  0  0  0  0  0  0  0  0  0
  181.1010  179.2020  142.4320 O   0  0  0  0  0  0  0  0  0  0  0  0
  180.6460  177.7250  135.0380 C   0  0  0  0  0  3  0  0  0  0  0  0
  183.3420  178.8660  141.5770 C   0  0  2  0  0  3  0  0  0  0  0  0
  181.2700  175.2080  138.4710 C   0  0  0  0  0  2  0  0  0  0  0  0
  184.4420  177.1040  135.8990 C   0  0  0  0  0  1  0  0  0  0  0  0
  184.7580  177.2790  137.3720 C   0  0  1  0  0  0  0  0  0  0  0  0
  186.7140  178.2410  138.6300 C   0  0  0  0  0  0  0  0  0  0  0  0
  183.9320  178.4510  137.9640 C   0  0  2  0  0  3  0  0  0  0  0  0
  178.9310  175.5450  141.3550 O   0  0  0  0  0  1  0  0  0  0  0  0
  182.5350  177.4540  139.7060 C   0  0  1  0  0  3  0  0  0  0  0  0
  185.9290  178.8600  139.4540 N   0  0  0  0  0  0  0  0  0  0  0  0
  186.1810  177.5570  137.4970 N   0  0  0  0  0  2  0  0  0  0  0  0
  180.0390  175.8820  140.5780 C   0  0  2  0  0  3  0  0  0  0  0  0
  181.6490  177.4330  137.2390 C   0  0  0  0  0  0  0  0  0  0  0  0
  181.8720  178.6900  141.5770 C   0  0  0  0  0  0  0  0  0  0  0  0
  188.1220  178.3010  138.8170 N   0  0  0  0  0  1  0  0  0  0  0  0
  180.0550  177.3890  140.3620 C   0  0  0  0  0  2  0  0  0  0  0  0
  181.3850  178.2230  136.1110 C   0  0  0  0  0  3  0  0  0  0  0  0
  180.3870  175.6240  136.1980 C   0  0  0  0  0  3  0  0  0  0  0  0
  180.1510  176.4220  135.0790 C   0  0  0  0  0  3  0  0  0  0  0  0
  179.9600  175.1380  139.2500 C   0  0  0  0  0  2  0  0  0  0  0  0
  183.7960  178.0220  140.3780 C   0  0  1  0  0  3  0  0  0  0  0  0
  181.4120  177.9000  140.5020 N   0  0  0  0  0  0  0  0  0  0  0  0
  184.4700  178.8980  139.3300 C   0  0  2  0  0  3  0  0  0  0  0  0
  183.9360  178.2880  142.8480 C   0  0  0  0  0  1  0  0  0  0  0  0
  182.4900  178.0820  138.3210 C   0  0  2  0  0  3  0  0  0  0  0  0
  1  6  1  0  0  0  0
  4 22  2  0  0  0  0
  4 20  1  0  0  0  0
  5 27  1  1  0  0  0
  6 23  1  0  0  0  0
  8  7  1  6  0  0  0
  8 14  1  0  0  0  0
  8 10  1  0  0  0  0
  8  2  1  0  0  0  0
  9 18  1  0  0  0  0
  9 13  2  0  0  0  0
 10 28  1  0  0  0  0
 10 26  1  0  0  0  0
 12 24  1  0  0  0  0
 12 25  1  0  0  0  0
 14  9  1  0  0  0  0
 15 11  1  0  0  0  0
 16  1  1  0  0  0  0
 16 28  1  0  0  0  0
 17  5  1  0  0  0  0
 17  3  2  0  0  0  0
 19 25  1  0  0  0  0
 19 15  1  0  0  0  0
 20 16  2  0  0  0  0
 21  1  2  0  0  0  0
 22 21  1  0  0  0  0
 23 15  1  0  0  0  0
 24  5  1  0  0  0  0
 25 17  1  0  0  0  0
 26 13  1  0  0  0  0
 26 24  1  0  0  0  0
 28 12  1  0  0  0  0
M  END
>  <MODEL>
3

>  <REMARK>
 VINA RESULT:      -6.1      2.157      2.728
  Name = 
  0 active torsions:
  status: ('A' for Active; 'I' for Inactive)
                            x       y       z     vdW  Elec       q    Type
                         _______ _______ _______ _____ _____    ______ ____

>  <TORSDO>
F 0

$$$$
=
 OpenBabel11122411593D

 28 32  0  0  1  0  0  0  0  0999 V2000
  186.3540  175.5130  135.8940 C   0  0  0  0  0  0  0  0  0  0  0  0
  183.1060  176.3220  135.1010 F   0  0  0  0  0  0  0  0  0  0  0  0
  185.1620  179.5120  140.2090 O   0  0  0  0  0  0  0  0  0  0  0  0
  186.4820  172.8750  136.8500 C   0  0  0  0  0  3  0  0  0  0  0  0
  183.1710  178.8580  138.9930 C   0  0  2  0  0  3  0  0  0  0  0  0
  186.4020  176.9150  135.3730 C   0  0  0  0  0  2  0  0  0  0  0  0
  182.9820  173.9870  135.4160 C   0  0  0  0  0  1  0  0  0  0  0  0
  182.5390  175.3510  135.9100 C   0  0  1  0  0  0  0  0  0  0  0  0
  180.3140  176.3220  136.5740 C   0  0  0  0  0  0  0  0  0  0  0  0
  182.9520  175.5460  137.3920 C   0  0  2  0  0  3  0  0  0  0  0  0
  188.3610  179.5040  137.2070 O   0  0  0  0  0  1  0  0  0  0  0  0
  184.4670  177.4660  137.4020 C   0  0  1  0  0  3  0  0  0  0  0  0
  180.8340  176.9040  137.6090 N   0  0  0  0  0  0  0  0  0  0  0  0
  181.0910  175.4270  135.7790 N   0  0  0  0  0  2  0  0  0  0  0  0
  187.2530  178.6940  136.9610 C   0  0  2  0  0  3  0  0  0  0  0  0
  185.4720  175.0920  136.9280 C   0  0  0  0  0  0  0  0  0  0  0  0
  184.6270  178.8690  139.2660 C   0  0  0  0  0  0  0  0  0  0  0  0
  178.9400  176.5220  136.2670 N   0  0  0  0  0  1  0  0  0  0  0  0
  186.8140  178.0420  138.2660 C   0  0  0  0  0  2  0  0  0  0  0  0
  185.5650  173.7740  137.3970 C   0  0  0  0  0  3  0  0  0  0  0  0
  187.2660  174.5980  135.3520 C   0  0  0  0  0  3  0  0  0  0  0  0
  187.3290  173.2860  135.8220 C   0  0  0  0  0  3  0  0  0  0  0  0
  187.6260  177.6430  135.9210 C   0  0  0  0  0  2  0  0  0  0  0  0
  183.0560  177.9750  137.7430 C   0  0  1  0  0  3  0  0  0  0  0  0
  185.3620  178.0630  138.3710 N   0  0  0  0  0  0  0  0  0  0  0  0
  182.2240  176.7340  138.0370 C   0  0  2  0  0  3  0  0  0  0  0  0
  182.6930  180.2580  138.6610 C   0  0  0  0  0  1  0  0  0  0  0  0
  184.4140  175.9560  137.5850 C   0  0  2  0  0  3  0  0  0  0  0  0
  1 16  1  0  0  0  0
  2  8  1  0  0  0  0
  4 20  1  0  0  0  0
  5 27  1  6  0  0  0
  5 17  1  0  0  0  0
  6  1  1  0  0  0  0
  6 23  1  0  0  0  0
  8  7  1  6  0  0  0
  8 10  1  0  0  0  0
  9 13  2  0  0  0  0
 10 28  1  0  0  0  0
 10 26  1  0  0  0  0
 12 28  1  0  0  0  0
 12 24  1  0  0  0  0
 12 25  1  0  0  0  0
 13 26  1  0  0  0  0
 14  8  1  0  0  0  0
 14  9  1  0  0  0  0
 15 11  1  0  0  0  0
 15 19  1  0  0  0  0
 16 20  2  0  0  0  0
 16 28  1  0  0  0  0
 17  3  2  0  0  0  0
 18  9  1  0  0  0  0
 19 25  1  0  0  0  0
 21 22  1  0  0  0  0
 21  1  2  0  0  0  0
 22  4  2  0  0  0  0
 23 15  1  0  0  0  0
 24 26  1  0  0  0  0
 24  5  1  0  0  0  0
 25 17  1  0  0  0  0
M  END
>  <MODEL>
4

>  <REMARK>
 VINA RESULT:      -5.9      3.906      6.998
  Name = 
  0 active torsions:
  status: ('A' for Active; 'I' for Inactive)
                            x       y       z     vdW  Elec       q    Type
                         _______ _______ _______ _____ _____    ______ ____

>  <TORSDO>
F 0

$$$$
=
 OpenBabel11122411593D

 28 32  0  0  1  0  0  0  0  0999 V2000
  182.4860  178.8440  138.5070 C   0  0  0  0  0  0  0  0  0  0  0  0
  181.2790  175.6820  139.1180 F   0  0  0  0  0  0  0  0  0  0  0  0
  186.9480  175.5360  136.2320 O   0  0  0  0  0  0  0  0  0  0  0  0
  180.9360  180.1010  136.5310 C   0  0  0  0  0  3  0  0  0  0  0  0
  184.9960  174.2010  136.7570 C   0  0  2  0  0  3  0  0  0  0  0  0
  183.3580  178.2800  139.5860 C   0  0  0  0  0  2  0  0  0  0  0  0
  179.5620  176.6340  137.8100 C   0  0  0  0  0  1  0  0  0  0  0  0
  180.6310  175.5630  137.8990 C   0  0  1  0  0  0  0  0  0  0  0  0
  180.6630  173.0920  137.4230 C   0  0  0  0  0  0  0  0  0  0  0  0
  181.6300  175.7000  136.7200 C   0  0  2  0  0  3  0  0  0  0  0  0
  187.0620  178.6280  139.3420 O   0  0  0  0  0  1  0  0  0  0  0  0
  183.8040  176.1360  137.7500 C   0  0  1  0  0  3  0  0  0  0  0  0
  181.8090  173.1830  136.8240 N   0  0  0  0  0  0  0  0  0  0  0  0
  179.9730  174.2650  137.8490 N   0  0  0  0  0  2  0  0  0  0  0  0
  185.8230  178.0530  139.0580 C   0  0  2  0  0  3  0  0  0  0  0  0
  182.2200  178.1710  137.2830 C   0  0  0  0  0  0  0  0  0  0  0  0
  185.7890  175.4510  136.7190 C   0  0  0  0  0  0  0  0  0  0  0  0
  180.0550  171.8180  137.5940 N   0  0  0  0  0  1  0  0  0  0  0  0
  185.7010  177.8530  137.5530 C   0  0  0  0  0  2  0  0  0  0  0  0
  181.4540  178.8250  136.3070 C   0  0  0  0  0  3  0  0  0  0  0  0
  181.9540  180.1230  138.7200 C   0  0  0  0  0  3  0  0  0  0  0  0
  181.1800  180.7480  137.7410 C   0  0  0  0  0  3  0  0  0  0  0  0
  184.7200  178.9660  139.5800 C   0  0  0  0  0  2  0  0  0  0  0  0
  183.7060  174.6260  137.4730 C   0  0  1  0  0  3  0  0  0  0  0  0
  185.1030  176.5560  137.2680 N   0  0  0  0  0  0  0  0  0  0  0  0
  182.5010  174.4460  136.5590 C   0  0  2  0  0  3  0  0  0  0  0  0
  185.7100  173.1570  137.5940 C   0  0  0  0  0  1  0  0  0  0  0  0
  182.6970  176.7770  136.9270 C   0  0  2  0  0  3  0  0  0  0  0  0
  1 21  1  0  0  0  0
  1  6  1  0  0  0  0
  3 17  2  0  0  0  0
  4 22  1  0  0  0  0
  5 24  1  0  0  0  0
  5 27  1  1  0  0  0
  8  7  1  6  0  0  0
  8  2  1  0  0  0  0
  9 18  1  0  0  0  0
  9 14  1  0  0  0  0
 10 28  1  0  0  0  0
 10  8  1  0  0  0  0
 13  9  2  0  0  0  0
 14  8  1  0  0  0  0
 15 11  1  0  0  0  0
 15 23  1  0  0  0  0
 16  1  2  0  0  0  0
 17  5  1  0  0  0  0
 17 25  1  0  0  0  0
 19 15  1  0  0  0  0
 20  4  2  0  0  0  0
 20 16  1  0  0  0  0
 22 21  2  0  0  0  0
 23  6  1  0  0  0  0
 24 12  1  0  0  0  0
 25 19  1  0  0  0  0
 25 12  1  0  0  0  0
 26 10  1  0  0  0  0
 26 13  1  0  0  0  0
 26 24  1  0  0  0  0
 28 16  1  0  0  0  0
 28 12  1  0  0  0  0
M  END
>  <MODEL>
5

>  <REMARK>
 VINA RESULT:      -5.7      3.985      5.982
  Name = 
  0 active torsions:
  status: ('A' for Active; 'I' for Inactive)
                            x       y       z     vdW  Elec       q    Type
                         _______ _______ _______ _____ _____    ______ ____

>  <TORSDO>
F 0

$$$$
=
 OpenBabel11122411593D

 28 32  0  0  1  0  0  0  0  0999 V2000
  181.5570  178.1640  140.0160 C   0  0  0  0  0  0  0  0  0  0  0  0
  182.0930  175.0500  138.6560 F   0  0  0  0  0  0  0  0  0  0  0  0
  186.9550  178.9960  137.5260 O   0  0  0  0  0  0  0  0  0  0  0  0
  179.4970  179.4770  138.6300 C   0  0  0  0  0  3  0  0  0  0  0  0
  185.9400  176.9080  136.8320 C   0  0  2  0  0  3  0  0  0  0  0  0
  182.6440  177.5450  140.8390 C   0  0  0  0  0  2  0  0  0  0  0  0
  180.0690  175.7060  137.6350 C   0  0  0  0  0  1  0  0  0  0  0  0
  181.5310  175.3570  137.4280 C   0  0  1  0  0  0  0  0  0  0  0  0
  182.7510  173.8730  135.8030 C   0  0  0  0  0  0  0  0  0  0  0  0
  182.2750  176.5380  136.7510 C   0  0  2  0  0  3  0  0  0  0  0  0
  185.6810  179.5330  141.6890 O   0  0  0  0  0  1  0  0  0  0  0  0
  183.9990  177.2230  138.3440 C   0  0  1  0  0  3  0  0  0  0  0  0
  183.6740  174.7640  135.6220 N   0  0  0  0  0  0  0  0  0  0  0  0
  181.5940  174.1740  136.5810 N   0  0  0  0  0  2  0  0  0  0  0  0
  184.8730  178.7440  140.8710 C   0  0  2  0  0  3  0  0  0  0  0  0
  181.5990  178.2440  138.5960 C   0  0  0  0  0  0  0  0  0  0  0  0
  186.0120  178.1640  137.6130 C   0  0  0  0  0  0  0  0  0  0  0  0
  182.8580  172.6070  135.1630 N   0  0  0  0  0  1  0  0  0  0  0  0
  184.7940  179.3780  139.4890 C   0  0  0  0  0  2  0  0  0  0  0  0
  180.5650  178.9160  137.9290 C   0  0  0  0  0  3  0  0  0  0  0  0
  180.4750  178.7270  140.7060 C   0  0  0  0  0  3  0  0  0  0  0  0
  179.4490  179.3770  140.0200 C   0  0  0  0  0  3  0  0  0  0  0  0
  183.4900  178.6280  141.5010 C   0  0  0  0  0  2  0  0  0  0  0  0
  184.6440  176.2580  137.3340 C   0  0  1  0  0  3  0  0  0  0  0  0
  184.8990  178.3510  138.4610 N   0  0  0  0  0  0  0  0  0  0  0  0
  183.6410  176.1110  136.1980 C   0  0  2  0  0  3  0  0  0  0  0  0
  187.1140  176.0130  137.1760 C   0  0  0  0  0  1  0  0  0  0  0  0
  182.6820  177.6540  137.7160 C   0  0  2  0  0  3  0  0  0  0  0  0
  1 21  1  0  0  0  0
  1  6  1  0  0  0  0
  3 17  2  0  0  0  0
  4 22  1  0  0  0  0
  5 27  1  1  0  0  0
  5 24  1  0  0  0  0
  5 17  1  0  0  0  0
  6 23  1  0  0  0  0
  8  7  1  1  0  0  0
  8  2  1  0  0  0  0
  9 14  1  0  0  0  0
 10  8  1  0  0  0  0
 10 28  1  0  0  0  0
 12 25  1  0  0  0  0
 13  9  2  0  0  0  0
 13 26  1  0  0  0  0
 14  8  1  0  0  0  0
 15 23  1  0  0  0  0
 15 11  1  0  0  0  0
 16  1  2  0  0  0  0
 17 25  1  0  0  0  0
 18  9  1  0  0  0  0
 19 15  1  0  0  0  0
 20 16  1  0  0  0  0
 20  4  2  0  0  0  0
 22 21  2  0  0  0  0
 24 12  1  0  0  0  0
 25 19  1  0  0  0  0
 26 10  1  0  0  0  0
 26 24  1  0  0  0  0
 28 12  1  0  0  0  0
 28 16  1  0  0  0  0
M  END
>  <MODEL>
6

>  <REMARK>
 VINA RESULT:      -5.7      3.013      4.746
  Name = 
  0 active torsions:
  status: ('A' for Active; 'I' for Inactive)
                            x       y       z     vdW  Elec       q    Type
                         _______ _______ _______ _____ _____    ______ ____

>  <TORSDO>
F 0

$$$$
=
 OpenBabel11122411593D

 28 32  0  0  1  0  0  0  0  0999 V2000
  181.5040  178.5620  140.8800 C   0  0  0  0  0  0  0  0  0  0  0  0
  181.1770  175.1970  140.2450 F   0  0  0  0  0  0  0  0  0  0  0  0
  185.7960  177.8300  136.7490 O   0  0  0  0  0  0  0  0  0  0  0  0
  179.2650  179.9470  139.9010 C   0  0  0  0  0  3  0  0  0  0  0  0
  184.3690  175.8820  136.9390 C   0  0  2  0  0  3  0  0  0  0  0  0
  182.7240  177.9200  141.4630 C   0  0  0  0  0  2  0  0  0  0  0  0
  179.0200  176.0150  139.7540 C   0  0  0  0  0  1  0  0  0  0  0  0
  180.2720  175.3570  139.2090 C   0  0  1  0  0  0  0  0  0  0  0  0
  180.6870  173.3740  137.7150 C   0  0  0  0  0  0  0  0  0  0  0  0
  180.8770  176.2150  138.0660 C   0  0  2  0  0  3  0  0  0  0  0  0
  186.0810  179.4140  140.8300 O   0  0  0  0  0  1  0  0  0  0  0  0
  183.1060  176.8570  138.8380 C   0  0  1  0  0  3  0  0  0  0  0  0
  181.5920  174.0180  137.0470 N   0  0  0  0  0  0  0  0  0  0  0  0
  179.9060  174.0410  138.7060 N   0  0  0  0  0  2  0  0  0  0  0  0
  184.9570  178.6490  140.5190 C   0  0  2  0  0  3  0  0  0  0  0  0
  181.0710  178.3500  139.5410 C   0  0  0  0  0  0  0  0  0  0  0  0
  184.8480  177.2300  137.3230 C   0  0  0  0  0  0  0  0  0  0  0  0
  180.4220  172.0110  137.4110 N   0  0  0  0  0  1  0  0  0  0  0  0
  184.4890  179.0010  139.1130 C   0  0  0  0  0  2  0  0  0  0  0  0
  179.9580  179.0640  139.0730 C   0  0  0  0  0  3  0  0  0  0  0  0
  180.7940  179.4480  141.7010 C   0  0  0  0  0  3  0  0  0  0  0  0
  179.6790  180.1340  141.2180 C   0  0  0  0  0  3  0  0  0  0  0  0
  183.8650  178.9290  141.5450 C   0  0  0  0  0  2  0  0  0  0  0  0
  183.2530  175.6050  137.9560 C   0  0  1  0  0  3  0  0  0  0  0  0
  184.1180  177.7910  138.3920 N   0  0  0  0  0  0  0  0  0  0  0  0
  181.9150  175.4330  137.2500 C   0  0  2  0  0  3  0  0  0  0  0  0
  185.4770  174.8630  137.1240 C   0  0  0  0  0  1  0  0  0  0  0  0
  181.7150  177.4000  138.5510 C   0  0  2  0  0  3  0  0  0  0  0  0
  1  6  1  0  0  0  0
  1 21  1  0  0  0  0
  3 17  2  0  0  0  0
  4 22  1  0  0  0  0
  5 27  1  1  0  0  0
  5 17  1  0  0  0  0
  5 24  1  0  0  0  0
  6 23  1  0  0  0  0
  8  7  1  1  0  0  0
  8  2  1  0  0  0  0
  9 14  1  0  0  0  0
 10 28  1  0  0  0  0
 10  8  1  0  0  0  0
 13 26  1  0  0  0  0
 13  9  2  0  0  0  0
 14  8  1  0  0  0  0
 15 11  1  0  0  0  0
 15 23  1  0  0  0  0
 16  1  2  0  0  0  0
 17 25  1  0  0  0  0
 18  9  1  0  0  0  0
 19 15  1  0  0  0  0
 20 16  1  0  0  0  0
 20  4  2  0  0  0  0
 22 21  2  0  0  0  0
 24 12  1  0  0  0  0
 25 12  1  0  0  0  0
 25 19  1  0  0  0  0
 26 24  1  0  0  0  0
 26 10  1  0  0  0  0
 28 12  1  0  0  0  0
 28 16  1  0  0  0  0
M  END
>  <MODEL>
7

>  <REMARK>
 VINA RESULT:      -5.7      3.455      5.276
  Name = 
  0 active torsions:
  status: ('A' for Active; 'I' for Inactive)
                            x       y       z     vdW  Elec       q    Type
                         _______ _______ _______ _____ _____    ______ ____

>  <TORSDO>
F 0

$$$$
=
 OpenBabel11122411593D

 28 32  0  0  1  0  0  0  0  0999 V2000
  187.7860  176.3580  136.6220 C   0  0  0  0  0  0  0  0  0  0  0  0
  189.0560  175.9280  139.7900 F   0  0  0  0  0  0  0  0  0  0  0  0
  183.9130  179.6760  139.7860 O   0  0  0  0  0  0  0  0  0  0  0  0
  189.5510  177.9050  135.0800 C   0  0  0  0  0  3  0  0  0  0  0  0
  185.8310  179.0030  141.1040 C   0  0  2  0  0  3  0  0  0  0  0  0
  186.7910  175.5030  137.3430 C   0  0  0  0  0  2  0  0  0  0  0  0
  190.8980  176.8290  138.6250 C   0  0  0  0  0  1  0  0  0  0  0  0
  189.8880  177.0340  139.7360 C   0  0  1  0  0  0  0  0  0  0  0  0
  190.0640  177.7890  142.1310 C   0  0  0  0  0  0  0  0  0  0  0  0
  189.0760  178.3340  139.4930 C   0  0  2  0  0  3  0  0  0  0  0  0
  183.1550  176.2910  137.1010 O   0  0  0  0  0  1  0  0  0  0  0  0
  186.7490  177.6190  139.2630 C   0  0  1  0  0  3  0  0  0  0  0  0
  189.0200  178.5480  142.0090 N   0  0  0  0  0  0  0  0  0  0  0  0
  190.6150  177.1260  140.9940 N   0  0  0  0  0  2  0  0  0  0  0  0
  184.4520  176.4390  137.5920 C   0  0  2  0  0  3  0  0  0  0  0  0
  188.2730  177.5930  137.1310 C   0  0  0  0  0  0  0  0  0  0  0  0
  184.9870  179.0240  139.8880 C   0  0  0  0  0  0  0  0  0  0  0  0
  190.7070  177.6700  143.3940 N   0  0  0  0  0  1  0  0  0  0  0  0
  184.8140  177.9180  137.6040 C   0  0  0  0  0  2  0  0  0  0  0  0
  189.1430  178.3530  136.3360 C   0  0  0  0  0  3  0  0  0  0  0  0
  188.2090  175.9180  135.3590 C   0  0  0  0  0  3  0  0  0  0  0  0
  189.0880  176.6840  134.5940 C   0  0  0  0  0  3  0  0  0  0  0  0
  185.4110  175.6460  136.7100 C   0  0  0  0  0  2  0  0  0  0  0  0
  186.9700  178.0480  140.7240 C   0  0  1  0  0  3  0  0  0  0  0  0
  185.5190  178.2500  138.8350 N   0  0  0  0  0  0  0  0  0  0  0  0
  188.3090  178.7730  140.7480 C   0  0  2  0  0  3  0  0  0  0  0  0
  185.0550  178.4160  142.2670 C   0  0  0  0  0  1  0  0  0  0  0  0
  187.9330  178.1770  138.4880 C   0  0  2  0  0  3  0  0  0  0  0  0
  1 16  1  0  0  0  0
  1  6  1  0  0  0  0
  3 17  2  0  0  0  0
  4 20  1  0  0  0  0
  5 27  1  1  0  0  0
  8  7  1  6  0  0  0
  8  2  1  0  0  0  0
  8 14  1  0  0  0  0
  9 18  1  0  0  0  0
 10  8  1  0  0  0  0
 10 26  1  0  0  0  0
 11 15  1  0  0  0  0
 12 24  1  0  0  0  0
 13  9  2  0  0  0  0
 14  9  1  0  0  0  0
 15 19  1  0  0  0  0
 16 28  1  0  0  0  0
 17  5  1  0  0  0  0
 19 25  1  0  0  0  0
 20 16  2  0  0  0  0
 21  1  2  0  0  0  0
 22  4  2  0  0  0  0
 22 21  1  0  0  0  0
 23  6  1  0  0  0  0
 23 15  1  0  0  0  0
 24 26  1  0  0  0  0
 24  5  1  0  0  0  0
 25 12  1  0  0  0  0
 25 17  1  0  0  0  0
 26 13  1  0  0  0  0
 28 12  1  0  0  0  0
 28 10  1  0  0  0  0
M  END
>  <MODEL>
8

>  <REMARK>
 VINA RESULT:      -5.6      3.807      6.613
  Name = 
  0 active torsions:
  status: ('A' for Active; 'I' for Inactive)
                            x       y       z     vdW  Elec       q    Type
                         _______ _______ _______ _____ _____    ______ ____

>  <TORSDO>
F 0

$$$$
=
 OpenBabel11122411593D

 28 32  0  0  1  0  0  0  0  0999 V2000
  189.7260  176.8530  137.8360 C   0  0  0  0  0  0  0  0  0  0  0  0
  189.2130  173.4950  137.2930 F   0  0  0  0  0  0  0  0  0  0  0  0
  195.2440  175.1830  136.1700 O   0  0  0  0  0  0  0  0  0  0  0  0
  188.3960  178.3580  135.8720 C   0  0  0  0  0  3  0  0  0  0  0  0
  193.6060  173.4400  135.7850 C   0  0  2  0  0  3  0  0  0  0  0  0
  190.4450  176.1500  138.9450 C   0  0  0  0  0  2  0  0  0  0  0  0
  187.6520  174.4870  135.8290 C   0  0  0  0  0  1  0  0  0  0  0  0
  188.9010  173.6360  135.9520 C   0  0  1  0  0  0  0  0  0  0  0  0
  189.6340  171.4630  134.9160 C   0  0  0  0  0  0  0  0  0  0  0  0
  190.0730  174.2860  135.1700 C   0  0  2  0  0  3  0  0  0  0  0  0
  193.9140  177.1790  139.8430 O   0  0  0  0  0  1  0  0  0  0  0  0
  191.7930  174.7590  136.8430 C   0  0  1  0  0  3  0  0  0  0  0  0
  190.8270  171.9210  134.7040 N   0  0  0  0  0  0  0  0  0  0  0  0
  188.6040  172.3200  135.4040 N   0  0  0  0  0  2  0  0  0  0  0  0
  192.9460  176.5140  139.0910 C   0  0  2  0  0  3  0  0  0  0  0  0
  189.9090  176.5400  136.4610 C   0  0  0  0  0  0  0  0  0  0  0  0
  194.0620  174.7600  136.2760 C   0  0  0  0  0  0  0  0  0  0  0  0
  189.3300  170.1110  134.5940 N   0  0  0  0  0  1  0  0  0  0  0  0
  193.2140  176.7530  137.6110 C   0  0  0  0  0  2  0  0  0  0  0  0
  189.2440  177.3150  135.4990 C   0  0  0  0  0  3  0  0  0  0  0  0
  188.8660  177.9000  138.1950 C   0  0  0  0  0  3  0  0  0  0  0  0
  188.2020  178.6470  137.2220 C   0  0  0  0  0  3  0  0  0  0  0  0
  191.5670  177.0280  139.4890 C   0  0  0  0  0  2  0  0  0  0  0  0
  192.1270  173.4060  136.1910 C   0  0  1  0  0  3  0  0  0  0  0  0
  193.0250  175.5170  136.8630 N   0  0  0  0  0  0  0  0  0  0  0  0
  191.2350  173.3050  134.9610 C   0  0  2  0  0  3  0  0  0  0  0  0
  194.3470  172.3310  136.5080 C   0  0  0  0  0  1  0  0  0  0  0  0
  190.7750  175.4180  135.9240 C   0  0  2  0  0  3  0  0  0  0  0  0
  1 21  1  0  0  0  0
  1  6  1  0  0  0  0
  3 17  2  0  0  0  0
  4 22  1  0  0  0  0
  5 24  1  0  0  0  0
  5 17  1  0  0  0  0
  5 27  1  1  0  0  0
  6 23  1  0  0  0  0
  8  7  1  6  0  0  0
  8  2  1  0  0  0  0
  9 14  1  0  0  0  0
 10 28  1  0  0  0  0
 10  8  1  0  0  0  0
 12 25  1  0  0  0  0
 13  9  2  0  0  0  0
 13 26  1  0  0  0  0
 14  8  1  0  0  0  0
 15 23  1  0  0  0  0
 15 11  1  0  0  0  0
 16  1  2  0  0  0  0
 17 25  1  0  0  0  0
 18  9  1  0  0  0  0
 19 15  1  0  0  0  0
 20  4  2  0  0  0  0
 20 16  1  0  0  0  0
 22 21  2  0  0  0  0
 24 12  1  0  0  0  0
 25 19  1  0  0  0  0
 26 10  1  0  0  0  0
 26 24  1  0  0  0  0
 28 16  1  0  0  0  0
 28 12  1  0  0  0  0
M  END
>  <MODEL>
9

>  <REMARK>
 VINA RESULT:      -5.4      8.004     10.599
  Name = 
  0 active torsions:
  status: ('A' for Active; 'I' for Inactive)
                            x       y       z     vdW  Elec       q    Type
                         _______ _______ _______ _____ _____    ______ ____

>  <TORSDO>
F 0

$$$$
