=
 OpenBabel11122411433D

 37 42  0  0  1  0  0  0  0  0999 V2000
  185.4090  178.9500  141.3260 C   0  0  1  0  0  3  0  0  0  0  0  0
  188.7060  178.7990  140.4200 O   0  0  0  0  0  0  0  0  0  0  0  0
  183.0680  178.4860  140.3810 C   0  0  2  0  0  3  0  0  0  0  0  0
  186.4080  178.1100  140.5570 C   0  0  2  0  0  3  0  0  0  0  0  0
  184.3700  179.3010  140.2610 C   0  0  2  0  0  3  0  0  0  0  0  0
  187.8200  178.0020  141.1650 C   0  0  2  0  0  3  0  0  0  0  0  0
  182.4500  178.6260  141.7790 C   0  0  0  0  0  2  0  0  0  0  0  0
  185.0620  179.0270  138.9310 C   0  0  0  0  0  2  0  0  0  0  0  0
  185.7310  178.3290  143.6830 N   0  0  0  0  0  2  0  0  0  0  0  0
  183.4750  178.7490  142.9140 C   0  0  0  0  0  2  0  0  0  0  0  0
  188.9470  176.7090  139.2610 O   0  0  0  0  0  0  0  0  0  0  0  0
  189.3940  178.0370  139.4340 C   0  0  1  0  0  3  0  0  0  0  0  0
  184.8420  178.1860  142.5360 C   0  0  1  0  0  3  0  0  0  0  0  0
  186.4580  178.6810  139.2120 N   0  0  2  0  0  0  0  0  0  0  0  0
  187.9450  178.2890  142.6680 C   0  0  1  0  0  3  0  0  0  0  0  0
  188.5340  177.6220  138.2670 C   0  0  2  0  0  3  0  0  0  0  0  0
  186.9860  177.6530  138.2970 C   0  0  2  0  0  3  0  0  0  0  0  0
  186.9150  177.5070  143.4760 C   0  0  0  0  0  2  0  0  0  0  0  0
  190.1110  178.9870  143.5270 C   0  0  0  0  0  3  0  0  0  0  0  0
  189.3250  177.9740  143.1540 C   0  0  0  0  0  0  0  0  0  0  0  0
  189.7950  176.5380  143.2110 C   0  0  0  0  0  2  0  0  0  0  0  0
  191.7300  175.2590  143.7770 O   0  0  0  0  0  0  0  0  0  0  0  0
  191.9710  177.5540  144.0800 N   0  0  0  0  0  0  0  0  0  0  0  0
  191.2100  176.4020  143.6990 C   0  0  0  0  0  0  0  0  0  0  0  0
  191.4810  178.7530  144.0080 C   0  0  0  0  0  3  0  0  0  0  0  0
  186.4940  177.8430  136.8450 C   0  0  0  0  0  2  0  0  0  0  0  0
  185.8370  176.6580  136.2710 N   0  0  0  0  0  0  0  0  0  0  0  0
  183.9200  175.8330  135.0160 C   0  0  0  0  0  1  0  0  0  0  0  0
  184.7090  177.0570  135.4370 C   0  0  0  0  0  2  0  0  0  0  0  0
  186.7810  175.9190  135.4410 C   0  0  0  0  0  2  0  0  0  0  0  0
  187.2300  174.6550  136.1540 C   0  0  0  0  0  2  0  0  0  0  0  0
  186.3670  174.3700  137.2130 O   0  0  0  0  0  1  0  0  0  0  0  0
  183.2970  177.1240  140.0950 O   0  0  0  0  0  0  0  0  0  0  0  0
  182.2340  176.6260  139.3080 C   0  0  0  0  0  0  0  0  0  0  0  0
  181.1870  176.1730  140.0980 F   0  0  0  0  0  0  0  0  0  0  0  0
  181.7220  177.6770  138.3320 C   0  0  0  0  0  1  0  0  0  0  0  0
  182.7500  175.4530  138.5010 C   0  0  0  0  0  1  0  0  0  0  0  0
  1 13  1  0  0  0  0
  2  6  1  0  0  0  0
  3  7  1  0  0  0  0
  4  6  1  0  0  0  0
  4  1  1  0  0  0  0
  5  3  1  0  0  0  0
  5  1  1  0  0  0  0
  6 15  1  0  0  0  0
  7 10  1  0  0  0  0
  8 14  1  0  0  0  0
  8  5  1  0  0  0  0
 11 12  1  0  0  0  0
 12  2  1  0  0  0  0
 13 10  1  0  0  0  0
 13  9  1  0  0  0  0
 14  4  1  0  0  0  0
 15 20  1  0  0  0  0
 15 18  1  0  0  0  0
 16 17  1  0  0  0  0
 16 11  1  0  0  0  0
 16 12  1  0  0  0  0
 17 14  1  0  0  0  0
 18  9  1  0  0  0  0
 19 25  1  0  0  0  0
 20 21  1  0  0  0  0
 20 19  2  0  0  0  0
 21 24  1  0  0  0  0
 24 22  2  0  0  0  0
 24 23  1  0  0  0  0
 25 23  2  0  0  0  0
 26 17  1  0  0  0  0
 27 26  1  0  0  0  0
 28 29  1  0  0  0  0
 29 27  1  0  0  0  0
 30 31  1  0  0  0  0
 30 27  1  0  0  0  0
 31 32  1  0  0  0  0
 33  3  1  0  0  0  0
 34 33  1  0  0  0  0
 34 35  1  0  0  0  0
 36 34  1  0  0  0  0
 37 34  1  0  0  0  0
M  END
>  <MODEL>
1

>  <REMARK>
 VINA RESULT:      -6.9      0.000      0.000
  Name = 
  8 active torsions:
  status: ('A' for Active; 'I' for Inactive)
    1  A    between atoms: C_1  and  N_4
    2  A    between atoms: C_1  and  C_27
    3  A    between atoms: C_2  and  O_22
    4  A    between atoms: N_4  and  C_12
    5  A    between atoms: N_4  and  C_37
    6  A    between atoms: C_6  and  O_22
    7  A    between atoms: C_8  and  C_12
    8  A    between atoms: C_23  and  C_30
                            x       y       z     vdW  Elec       q    Type
                         _______ _______ _______ _____ _____    ______ ____

>  <TORSDO>
F 8

$$$$
=
 OpenBabel11122411433D

 37 42  0  0  1  0  0  0  0  0999 V2000
  185.5160  178.9200  142.5600 C   0  0  1  0  0  3  0  0  0  0  0  0
  188.9070  178.5330  142.8210 O   0  0  0  0  0  0  0  0  0  0  0  0
  183.6070  178.6100  140.8730 C   0  0  2  0  0  3  0  0  0  0  0  0
  186.6560  178.0060  142.1620 C   0  0  2  0  0  3  0  0  0  0  0  0
  184.9250  179.3320  141.2120 C   0  0  2  0  0  3  0  0  0  0  0  0
  187.7680  177.8060  143.2100 C   0  0  2  0  0  3  0  0  0  0  0  0
  182.5630  178.8070  141.9810 C   0  0  0  0  0  2  0  0  0  0  0  0
  186.0060  178.9970  140.1910 C   0  0  0  0  0  2  0  0  0  0  0  0
  184.9790  178.3020  144.8780 N   0  0  0  0  0  2  0  0  0  0  0  0
  183.1500  178.8700  143.3980 C   0  0  0  0  0  2  0  0  0  0  0  0
  189.3820  176.4190  141.7820 O   0  0  0  0  0  0  0  0  0  0  0  0
  189.8340  177.7150  142.1150 C   0  0  1  0  0  3  0  0  0  0  0  0
  184.5220  178.2100  143.4970 C   0  0  1  0  0  3  0  0  0  0  0  0
  187.1970  178.5590  140.9220 N   0  0  2  0  0  0  0  0  0  0  0  0
  187.3970  178.0990  144.6710 C   0  0  1  0  0  3  0  0  0  0  0  0
  189.3930  177.3490  140.7200 C   0  0  2  0  0  3  0  0  0  0  0  0
  187.9320  177.4880  140.2250 C   0  0  2  0  0  3  0  0  0  0  0  0
  186.1030  177.3980  145.0720 C   0  0  0  0  0  2  0  0  0  0  0  0
  188.3350  177.8700  146.9040 C   0  0  0  0  0  3  0  0  0  0  0  0
  188.5060  177.6940  145.5910 C   0  0  0  0  0  0  0  0  0  0  0  0
  189.7780  177.1030  145.0260 C   0  0  0  0  0  2  0  0  0  0  0  0
  191.9050  176.2940  145.7440 O   0  0  0  0  0  0  0  0  0  0  0  0
  190.5120  177.0000  147.4690 N   0  0  0  0  0  0  0  0  0  0  0  0
  190.7940  176.7760  146.0830 C   0  0  0  0  0  0  0  0  0  0  0  0
  189.3850  177.5030  147.8660 C   0  0  0  0  0  3  0  0  0  0  0  0
  187.9750  177.6970  138.6950 C   0  0  0  0  0  2  0  0  0  0  0  0
  188.3430  176.4930  137.9320 N   0  0  0  0  0  0  0  0  0  0  0  0
  186.3410  177.1090  136.6900 C   0  0  0  0  0  1  0  0  0  0  0  0
  187.1820  175.9660  137.2240 C   0  0  0  0  0  2  0  0  0  0  0  0
  189.3680  176.8220  136.9490 C   0  0  0  0  0  2  0  0  0  0  0  0
  190.7200  176.2960  137.4030 C   0  0  0  0  0  2  0  0  0  0  0  0
  190.5470  175.1950  138.2420 O   0  0  0  0  0  1  0  0  0  0  0  0
  183.8250  177.2330  140.6620 O   0  0  0  0  0  0  0  0  0  0  0  0
  183.1350  176.8220  139.4990 C   0  0  0  0  0  0  0  0  0  0  0  0
  183.9280  176.0130  138.6980 F   0  0  0  0  0  0  0  0  0  0  0  0
  181.8430  176.0930  139.8450 C   0  0  0  0  0  1  0  0  0  0  0  0
  182.7730  178.0570  138.7010 C   0  0  0  0  0  1  0  0  0  0  0  0
  1 13  1  0  0  0  0
  2  6  1  0  0  0  0
  3  5  1  0  0  0  0
  3  7  1  0  0  0  0
  4  1  1  0  0  0  0
  4  6  1  0  0  0  0
  5  1  1  0  0  0  0
  6 15  1  0  0  0  0
  7 10  1  0  0  0  0
  8 14  1  0  0  0  0
  8  5  1  0  0  0  0
  9 18  1  0  0  0  0
 10 13  1  0  0  0  0
 11 12  1  0  0  0  0
 12  2  1  0  0  0  0
 13  9  1  0  0  0  0
 14  4  1  0  0  0  0
 15 18  1  0  0  0  0
 15 20  1  0  0  0  0
 16 11  1  0  0  0  0
 16 12  1  0  0  0  0
 17 16  1  0  0  0  0
 17 14  1  0  0  0  0
 19 25  1  0  0  0  0
 20 19  2  0  0  0  0
 21 20  1  0  0  0  0
 21 24  1  0  0  0  0
 22 24  2  0  0  0  0
 23 25  2  0  0  0  0
 24 23  1  0  0  0  0
 26 17  1  0  0  0  0
 27 26  1  0  0  0  0
 28 29  1  0  0  0  0
 29 27  1  0  0  0  0
 30 31  1  0  0  0  0
 30 27  1  0  0  0  0
 31 32  1  0  0  0  0
 33  3  1  0  0  0  0
 34 36  1  0  0  0  0
 34 33  1  0  0  0  0
 35 34  1  0  0  0  0
 37 34  1  0  0  0  0
M  END
>  <MODEL>
2

>  <REMARK>
 VINA RESULT:      -6.8      1.995      2.515
  Name = 
  8 active torsions:
  status: ('A' for Active; 'I' for Inactive)
    1  A    between atoms: C_1  and  N_4
    2  A    between atoms: C_1  and  C_27
    3  A    between atoms: C_2  and  O_22
    4  A    between atoms: N_4  and  C_12
    5  A    between atoms: N_4  and  C_37
    6  A    between atoms: C_6  and  O_22
    7  A    between atoms: C_8  and  C_12
    8  A    between atoms: C_23  and  C_30
                            x       y       z     vdW  Elec       q    Type
                         _______ _______ _______ _____ _____    ______ ____

>  <TORSDO>
F 8

$$$$
=
 OpenBabel11122411433D

 37 42  0  0  1  0  0  0  0  0999 V2000
  187.0470  178.3450  137.3820 C   0  0  1  0  0  3  0  0  0  0  0  0
  185.4660  179.4940  140.1920 O   0  0  0  0  0  0  0  0  0  0  0  0
  189.2230  177.1890  136.6620 C   0  0  2  0  0  3  0  0  0  0  0  0
  186.7930  178.0170  138.8390 C   0  0  2  0  0  3  0  0  0  0  0  0
  188.5730  178.4250  137.3140 C   0  0  2  0  0  3  0  0  0  0  0  0
  185.3890  178.3500  139.3790 C   0  0  2  0  0  3  0  0  0  0  0  0
  188.6500  176.9320  135.2610 C   0  0  0  0  0  2  0  0  0  0  0  0
  189.0240  178.5760  138.7610 C   0  0  0  0  0  2  0  0  0  0  0  0
  185.0240  177.6060  136.1970 N   0  0  0  0  0  2  0  0  0  0  0  0
  187.1630  177.2780  135.1130 C   0  0  0  0  0  2  0  0  0  0  0  0
  185.7940  177.7820  141.8450 O   0  0  0  0  0  0  0  0  0  0  0  0
  185.5900  179.1510  141.5680 C   0  0  1  0  0  3  0  0  0  0  0  0
  186.4250  177.2910  136.4480 C   0  0  1  0  0  3  0  0  0  0  0  0
  187.8270  178.7230  139.5940 N   0  0  2  0  0  0  0  0  0  0  0  0
  184.2670  178.4820  138.3400 C   0  0  1  0  0  3  0  0  0  0  0  0
  186.9410  178.5970  141.9450 C   0  0  2  0  0  3  0  0  0  0  0  0
  187.9630  178.0690  140.9080 C   0  0  2  0  0  3  0  0  0  0  0  0
  184.2430  177.2940  137.3850 C   0  0  0  0  0  2  0  0  0  0  0  0
  182.4290  177.5660  139.6450 C   0  0  0  0  0  3  0  0  0  0  0  0
  182.9370  178.6270  139.0120 C   0  0  0  0  0  0  0  0  0  0  0  0
  182.2050  179.9490  138.9600 C   0  0  0  0  0  2  0  0  0  0  0  0
  180.1580  180.9450  139.6780 O   0  0  0  0  0  0  0  0  0  0  0  0
  180.4230  178.7230  140.3170 N   0  0  0  0  0  0  0  0  0  0  0  0
  180.8770  179.9140  139.6620 C   0  0  0  0  0  0  0  0  0  0  0  0
  181.1250  177.6330  140.3200 C   0  0  0  0  0  3  0  0  0  0  0  0
  189.3740  178.2410  141.5130 C   0  0  0  0  0  2  0  0  0  0  0  0
  190.1070  176.9780  141.6990 N   0  0  0  0  0  0  0  0  0  0  0  0
  192.2250  177.5750  140.6550 C   0  0  0  0  0  1  0  0  0  0  0  0
  191.5190  177.2450  141.9550 C   0  0  0  0  0  2  0  0  0  0  0  0
  189.5640  176.2520  142.8410 C   0  0  0  0  0  2  0  0  0  0  0  0
  189.7070  177.0790  144.1070 C   0  0  0  0  0  2  0  0  0  0  0  0
  188.5050  177.0780  144.8160 O   0  0  0  0  0  1  0  0  0  0  0  0
  189.0490  176.0430  137.4660 O   0  0  0  0  0  0  0  0  0  0  0  0
  190.2950  175.4000  137.6410 C   0  0  0  0  0  0  0  0  0  0  0  0
  190.6620  175.3610  138.9790 F   0  0  0  0  0  0  0  0  0  0  0  0
  190.2790  173.9880  137.0710 C   0  0  0  0  0  1  0  0  0  0  0  0
  191.3460  176.1920  136.8930 C   0  0  0  0  0  1  0  0  0  0  0  0
  1  4  1  0  0  0  0
  2 12  1  0  0  0  0
  3  5  1  0  0  0  0
  3 33  1  0  0  0  0
  4  6  1  0  0  0  0
  4 14  1  0  0  0  0
  5  1  1  0  0  0  0
  5  8  1  0  0  0  0
  6  2  1  0  0  0  0
  7  3  1  0  0  0  0
  8 14  1  0  0  0  0
  9 13  1  0  0  0  0
  9 18  1  0  0  0  0
 10  7  1  0  0  0  0
 10 13  1  0  0  0  0
 11 16  1  0  0  0  0
 12 11  1  0  0  0  0
 12 16  1  0  0  0  0
 13  1  1  0  0  0  0
 14 17  1  0  0  0  0
 15 20  1  0  0  0  0
 15  6  1  0  0  0  0
 17 26  1  0  0  0  0
 17 16  1  0  0  0  0
 18 15  1  0  0  0  0
 19 25  1  0  0  0  0
 20 19  2  0  0  0  0
 21 20  1  0  0  0  0
 21 24  1  0  0  0  0
 23 25  2  0  0  0  0
 24 22  2  0  0  0  0
 24 23  1  0  0  0  0
 26 27  1  0  0  0  0
 27 29  1  0  0  0  0
 27 30  1  0  0  0  0
 28 29  1  0  0  0  0
 30 31  1  0  0  0  0
 31 32  1  0  0  0  0
 33 34  1  0  0  0  0
 34 35  1  0  0  0  0
 36 34  1  0  0  0  0
 37 34  1  0  0  0  0
M  END
>  <MODEL>
3

>  <REMARK>
 VINA RESULT:      -6.6      2.821      7.702
  Name = 
  8 active torsions:
  status: ('A' for Active; 'I' for Inactive)
    1  A    between atoms: C_1  and  N_4
    2  A    between atoms: C_1  and  C_27
    3  A    between atoms: C_2  and  O_22
    4  A    between atoms: N_4  and  C_12
    5  A    between atoms: N_4  and  C_37
    6  A    between atoms: C_6  and  O_22
    7  A    between atoms: C_8  and  C_12
    8  A    between atoms: C_23  and  C_30
                            x       y       z     vdW  Elec       q    Type
                         _______ _______ _______ _____ _____    ______ ____

>  <TORSDO>
F 8

$$$$
=
 OpenBabel11122411433D

 37 42  0  0  1  0  0  0  0  0999 V2000
  186.7000  177.2550  144.2030 C   0  0  1  0  0  3  0  0  0  0  0  0
  184.6220  177.6580  141.5120 O   0  0  0  0  0  0  0  0  0  0  0  0
  189.1870  177.3690  144.8230 C   0  0  2  0  0  3  0  0  0  0  0  0
  186.4760  178.1110  142.9730 C   0  0  2  0  0  3  0  0  0  0  0  0
  188.1000  176.6880  143.9710 C   0  0  2  0  0  3  0  0  0  0  0  0
  185.0100  178.4300  142.6210 C   0  0  2  0  0  3  0  0  0  0  0  0
  188.8420  177.3100  146.3180 C   0  0  0  0  0  2  0  0  0  0  0  0
  188.3670  176.8930  142.4850 C   0  0  0  0  0  2  0  0  0  0  0  0
  185.1540  178.1480  145.8940 N   0  0  0  0  0  2  0  0  0  0  0  0
  187.3420  177.4150  146.6250 C   0  0  0  0  0  2  0  0  0  0  0  0
  185.4150  179.6300  140.3930 O   0  0  0  0  0  0  0  0  0  0  0  0
  184.7620  178.3820  140.2950 C   0  0  1  0  0  3  0  0  0  0  0  0
  186.5560  178.0760  145.4970 C   0  0  1  0  0  3  0  0  0  0  0  0
  187.1400  177.4120  141.8740 N   0  0  2  0  0  0  0  0  0  0  0  0
  183.9890  178.3150  143.7620 C   0  0  1  0  0  3  0  0  0  0  0  0
  186.1920  178.5800  139.8580 C   0  0  2  0  0  3  0  0  0  0  0  0
  187.4050  178.3890  140.8030 C   0  0  2  0  0  3  0  0  0  0  0  0
  184.4520  179.0640  145.0070 C   0  0  0  0  0  2  0  0  0  0  0  0
  181.7090  179.0050  144.2570 C   0  0  0  0  0  3  0  0  0  0  0  0
  182.6500  178.8230  143.3260 C   0  0  0  0  0  0  0  0  0  0  0  0
  182.3910  179.1140  141.8650 C   0  0  0  0  0  2  0  0  0  0  0  0
  180.6410  179.8530  140.4210 O   0  0  0  0  0  0  0  0  0  0  0  0
  180.0560  179.7590  142.6710 N   0  0  0  0  0  0  0  0  0  0  0  0
  180.9920  179.5920  141.6000 C   0  0  0  0  0  0  0  0  0  0  0  0
  180.3680  179.4940  143.9010 C   0  0  0  0  0  3  0  0  0  0  0  0
  188.6190  177.9980  139.9310 C   0  0  0  0  0  2  0  0  0  0  0  0
  188.2770  177.6470  138.5430 N   0  0  0  0  0  0  0  0  0  0  0  0
  187.8330  178.8410  136.4680 C   0  0  0  0  0  1  0  0  0  0  0  0
  188.7950  178.6540  137.6240 C   0  0  0  0  0  2  0  0  0  0  0  0
  188.8670  176.3610  138.1950 C   0  0  0  0  0  2  0  0  0  0  0  0
  190.2810  176.2650  138.7440 C   0  0  0  0  0  2  0  0  0  0  0  0
  190.8700  175.0670  138.3410 O   0  0  0  0  0  1  0  0  0  0  0  0
  189.3720  178.7110  144.4290 O   0  0  0  0  0  0  0  0  0  0  0  0
  190.7390  178.9320  144.1490 C   0  0  0  0  0  0  0  0  0  0  0  0
  191.0910  180.2580  144.3580 F   0  0  0  0  0  0  0  0  0  0  0  0
  191.6340  178.0260  144.9840 C   0  0  0  0  0  1  0  0  0  0  0  0
  190.9830  178.6100  142.6900 C   0  0  0  0  0  1  0  0  0  0  0  0
  1 13  1  0  0  0  0
  2  6  1  0  0  0  0
  3  7  1  0  0  0  0
  4  1  1  0  0  0  0
  5  1  1  0  0  0  0
  5  3  1  0  0  0  0
  6  4  1  0  0  0  0
  6 15  1  0  0  0  0
  7 10  1  0  0  0  0
  8  5  1  0  0  0  0
 12 11  1  0  0  0  0
 12  2  1  0  0  0  0
 13  9  1  0  0  0  0
 13 10  1  0  0  0  0
 14  8  1  0  0  0  0
 14  4  1  0  0  0  0
 15 18  1  0  0  0  0
 16 12  1  0  0  0  0
 16 11  1  0  0  0  0
 16 17  1  0  0  0  0
 17 14  1  0  0  0  0
 18  9  1  0  0  0  0
 20 15  1  0  0  0  0
 20 19  2  0  0  0  0
 21 20  1  0  0  0  0
 22 24  2  0  0  0  0
 23 25  2  0  0  0  0
 24 21  1  0  0  0  0
 24 23  1  0  0  0  0
 25 19  1  0  0  0  0
 26 17  1  0  0  0  0
 27 26  1  0  0  0  0
 28 29  1  0  0  0  0
 29 27  1  0  0  0  0
 30 27  1  0  0  0  0
 30 31  1  0  0  0  0
 32 31  1  0  0  0  0
 33  3  1  0  0  0  0
 34 35  1  0  0  0  0
 34 33  1  0  0  0  0
 34 36  1  0  0  0  0
 37 34  1  0  0  0  0
M  END
>  <MODEL>
4

>  <REMARK>
 VINA RESULT:      -6.6      3.207      6.904
  Name = 
  8 active torsions:
  status: ('A' for Active; 'I' for Inactive)
    1  A    between atoms: C_1  and  N_4
    2  A    between atoms: C_1  and  C_27
    3  A    between atoms: C_2  and  O_22
    4  A    between atoms: N_4  and  C_12
    5  A    between atoms: N_4  and  C_37
    6  A    between atoms: C_6  and  O_22
    7  A    between atoms: C_8  and  C_12
    8  A    between atoms: C_23  and  C_30
                            x       y       z     vdW  Elec       q    Type
                         _______ _______ _______ _____ _____    ______ ____

>  <TORSDO>
F 8

$$$$
=
 OpenBabel11122411433D

 37 42  0  0  1  0  0  0  0  0999 V2000
  186.7420  177.1890  144.3440 C   0  0  1  0  0  3  0  0  0  0  0  0
  184.6930  177.5560  141.6270 O   0  0  0  0  0  0  0  0  0  0  0  0
  189.2240  177.3030  144.9880 C   0  0  2  0  0  3  0  0  0  0  0  0
  186.5340  178.0250  143.0980 C   0  0  2  0  0  3  0  0  0  0  0  0
  188.1420  176.6120  144.1360 C   0  0  2  0  0  3  0  0  0  0  0  0
  185.0730  178.3450  142.7260 C   0  0  2  0  0  3  0  0  0  0  0  0
  188.8630  177.2710  146.4800 C   0  0  0  0  0  2  0  0  0  0  0  0
  188.4240  176.7920  142.6500 C   0  0  0  0  0  2  0  0  0  0  0  0
  185.1830  178.1170  146.0040 N   0  0  0  0  0  2  0  0  0  0  0  0
  187.3610  177.3870  146.7700 C   0  0  0  0  0  2  0  0  0  0  0  0
  185.5060  179.5050  140.4830 O   0  0  0  0  0  0  0  0  0  0  0  0
  184.8480  178.2580  140.3990 C   0  0  1  0  0  3  0  0  0  0  0  0
  186.5880  178.0330  145.6230 C   0  0  1  0  0  3  0  0  0  0  0  0
  187.2060  177.3050  142.0180 N   0  0  2  0  0  0  0  0  0  0  0  0
  184.0400  178.2540  143.8580 C   0  0  1  0  0  3  0  0  0  0  0  0
  186.2830  178.4430  139.9730 C   0  0  2  0  0  3  0  0  0  0  0  0
  187.4860  178.2630  140.9330 C   0  0  2  0  0  3  0  0  0  0  0  0
  184.4940  179.0210  145.0950 C   0  0  0  0  0  2  0  0  0  0  0  0
  182.6030  179.2320  142.1560 C   0  0  0  0  0  3  0  0  0  0  0  0
  182.7070  178.7600  143.4010 C   0  0  0  0  0  0  0  0  0  0  0  0
  181.5250  178.7290  144.3430 C   0  0  0  0  0  2  0  0  0  0  0  0
  179.2200  179.3450  144.4190 O   0  0  0  0  0  0  0  0  0  0  0  0
  180.2640  179.7740  142.3840 N   0  0  0  0  0  0  0  0  0  0  0  0
  180.2740  179.2960  143.7340 C   0  0  0  0  0  0  0  0  0  0  0  0
  181.3270  179.7520  141.6420 C   0  0  0  0  0  3  0  0  0  0  0  0
  188.7070  177.8520  140.0800 C   0  0  0  0  0  2  0  0  0  0  0  0
  188.3980  177.6170  138.6610 N   0  0  0  0  0  0  0  0  0  0  0  0
  188.0670  179.1630  136.8090 C   0  0  0  0  0  1  0  0  0  0  0  0
  189.0500  178.6210  137.8270 C   0  0  0  0  0  2  0  0  0  0  0  0
  188.8830  176.3020  138.2580 C   0  0  0  0  0  2  0  0  0  0  0  0
  187.9580  175.6970  137.2160 C   0  0  0  0  0  2  0  0  0  0  0  0
  186.6420  176.0940  137.4560 O   0  0  0  0  0  1  0  0  0  0  0  0
  189.4180  178.6370  144.5730 O   0  0  0  0  0  0  0  0  0  0  0  0
  190.7110  178.7720  144.0190 C   0  0  0  0  0  0  0  0  0  0  0  0
  190.6960  178.5840  142.6440 F   0  0  0  0  0  0  0  0  0  0  0  0
  191.3190  180.1290  144.3450 C   0  0  0  0  0  1  0  0  0  0  0  0
  191.6000  177.7060  144.6250 C   0  0  0  0  0  1  0  0  0  0  0  0
  1 13  1  0  0  0  0
  2  6  1  0  0  0  0
  3  7  1  0  0  0  0
  4  1  1  0  0  0  0
  5  1  1  0  0  0  0
  5  3  1  0  0  0  0
  6  4  1  0  0  0  0
  6 15  1  0  0  0  0
  7 10  1  0  0  0  0
  8  5  1  0  0  0  0
 12 11  1  0  0  0  0
 12  2  1  0  0  0  0
 13  9  1  0  0  0  0
 13 10  1  0  0  0  0
 14  8  1  0  0  0  0
 14  4  1  0  0  0  0
 15 18  1  0  0  0  0
 16 12  1  0  0  0  0
 16 11  1  0  0  0  0
 16 17  1  0  0  0  0
 17 14  1  0  0  0  0
 18  9  1  0  0  0  0
 19 20  2  0  0  0  0
 20 15  1  0  0  0  0
 20 21  1  0  0  0  0
 23 24  1  0  0  0  0
 24 21  1  0  0  0  0
 24 22  2  0  0  0  0
 25 19  1  0  0  0  0
 25 23  2  0  0  0  0
 26 17  1  0  0  0  0
 27 26  1  0  0  0  0
 28 29  1  0  0  0  0
 29 27  1  0  0  0  0
 30 27  1  0  0  0  0
 31 32  1  0  0  0  0
 31 30  1  0  0  0  0
 33  3  1  0  0  0  0
 34 36  1  0  0  0  0
 34 33  1  0  0  0  0
 34 37  1  0  0  0  0
 35 34  1  0  0  0  0
M  END
>  <MODEL>
5

>  <REMARK>
 VINA RESULT:      -6.0      2.926      6.865
  Name = 
  8 active torsions:
  status: ('A' for Active; 'I' for Inactive)
    1  A    between atoms: C_1  and  N_4
    2  A    between atoms: C_1  and  C_27
    3  A    between atoms: C_2  and  O_22
    4  A    between atoms: N_4  and  C_12
    5  A    between atoms: N_4  and  C_37
    6  A    between atoms: C_6  and  O_22
    7  A    between atoms: C_8  and  C_12
    8  A    between atoms: C_23  and  C_30
                            x       y       z     vdW  Elec       q    Type
                         _______ _______ _______ _____ _____    ______ ____

>  <TORSDO>
F 8

$$$$
=
 OpenBabel11122411433D

 37 42  0  0  1  0  0  0  0  0999 V2000
  187.2550  178.6960  140.7910 C   0  0  1  0  0  3  0  0  0  0  0  0
  189.9280  178.0820  142.8380 O   0  0  0  0  0  0  0  0  0  0  0  0
  186.4480  178.2560  138.3950 C   0  0  2  0  0  3  0  0  0  0  0  0
  188.2750  177.6360  141.1520 C   0  0  2  0  0  3  0  0  0  0  0  0
  187.5070  178.9150  139.3000 C   0  0  2  0  0  3  0  0  0  0  0  0
  188.6510  177.5300  142.6430 C   0  0  2  0  0  3  0  0  0  0  0  0
  185.0330  178.7260  138.7590 C   0  0  0  0  0  2  0  0  0  0  0  0
  188.8860  178.3220  139.0430 C   0  0  0  0  0  2  0  0  0  0  0  0
  185.5220  178.5340  142.5280 N   0  0  0  0  0  2  0  0  0  0  0  0
  184.8180  178.9840  140.2560 C   0  0  0  0  0  2  0  0  0  0  0  0
  190.5200  175.7900  142.4330 O   0  0  0  0  0  0  0  0  0  0  0  0
  190.9410  177.0820  142.8170 C   0  0  1  0  0  3  0  0  0  0  0  0
  185.8230  178.2410  141.1320 C   0  0  1  0  0  3  0  0  0  0  0  0
  189.4520  177.9200  140.3330 N   0  0  2  0  0  0  0  0  0  0  0  0
  187.6400  178.1000  143.6480 C   0  0  1  0  0  3  0  0  0  0  0  0
  191.2190  176.5180  141.4460 C   0  0  2  0  0  3  0  0  0  0  0  0
  190.2570  176.6880  140.2440 C   0  0  2  0  0  3  0  0  0  0  0  0
  186.2300  177.5880  143.3790 C   0  0  0  0  0  2  0  0  0  0  0  0
  187.1210  177.8490  146.0120 C   0  0  0  0  0  3  0  0  0  0  0  0
  188.0460  177.7700  145.0510 C   0  0  0  0  0  0  0  0  0  0  0  0
  189.4710  177.3630  145.3490 C   0  0  0  0  0  2  0  0  0  0  0  0
  190.8630  176.7600  147.1920 O   0  0  0  0  0  0  0  0  0  0  0  0
  188.6490  177.2000  147.7610 N   0  0  0  0  0  0  0  0  0  0  0  0
  189.7120  177.0910  146.8070 C   0  0  0  0  0  0  0  0  0  0  0  0
  187.4500  177.5480  147.4140 C   0  0  0  0  0  3  0  0  0  0  0  0
  191.1050  176.6260  138.9540 C   0  0  0  0  0  2  0  0  0  0  0  0
  191.1820  175.2870  138.3480 N   0  0  0  0  0  0  0  0  0  0  0  0
  190.1790  173.7420  136.7550 C   0  0  0  0  0  1  0  0  0  0  0  0
  190.2420  175.1780  137.2390 C   0  0  0  0  0  2  0  0  0  0  0  0
  192.5260  175.0500  137.8350 C   0  0  0  0  0  2  0  0  0  0  0  0
  193.1540  176.3570  137.3830 C   0  0  0  0  0  2  0  0  0  0  0  0
  194.4540  176.1310  136.9290 O   0  0  0  0  0  1  0  0  0  0  0  0
  186.5190  176.8500  138.4760 O   0  0  0  0  0  0  0  0  0  0  0  0
  186.2050  176.2920  137.2160 C   0  0  0  0  0  0  0  0  0  0  0  0
  184.8390  176.3270  136.9720 F   0  0  0  0  0  0  0  0  0  0  0  0
  186.9450  177.0030  136.0900 C   0  0  0  0  0  1  0  0  0  0  0  0
  186.6410  174.8420  137.2170 C   0  0  0  0  0  1  0  0  0  0  0  0
  1 13  1  0  0  0  0
  1  4  1  0  0  0  0
  3 33  1  0  0  0  0
  3  7  1  0  0  0  0
  3  5  1  0  0  0  0
  4  6  1  0  0  0  0
  5  1  1  0  0  0  0
  6  2  1  0  0  0  0
  6 15  1  0  0  0  0
  7 10  1  0  0  0  0
  8  5  1  0  0  0  0
  8 14  1  0  0  0  0
  9 18  1  0  0  0  0
 10 13  1  0  0  0  0
 11 12  1  0  0  0  0
 12  2  1  0  0  0  0
 13  9  1  0  0  0  0
 14  4  1  0  0  0  0
 15 20  1  0  0  0  0
 16 11  1  0  0  0  0
 16 12  1  0  0  0  0
 17 14  1  0  0  0  0
 17 16  1  0  0  0  0
 18 15  1  0  0  0  0
 19 25  1  0  0  0  0
 20 21  1  0  0  0  0
 20 19  2  0  0  0  0
 21 24  1  0  0  0  0
 24 22  2  0  0  0  0
 24 23  1  0  0  0  0
 25 23  2  0  0  0  0
 26 17  1  0  0  0  0
 27 26  1  0  0  0  0
 28 29  1  0  0  0  0
 29 27  1  0  0  0  0
 30 27  1  0  0  0  0
 31 30  1  0  0  0  0
 32 31  1  0  0  0  0
 34 37  1  0  0  0  0
 34 33  1  0  0  0  0
 35 34  1  0  0  0  0
 36 34  1  0  0  0  0
M  END
>  <MODEL>
6

>  <REMARK>
 VINA RESULT:      -6.0      2.840      4.261
  Name = 
  8 active torsions:
  status: ('A' for Active; 'I' for Inactive)
    1  A    between atoms: C_1  and  N_4
    2  A    between atoms: C_1  and  C_27
    3  A    between atoms: C_2  and  O_22
    4  A    between atoms: N_4  and  C_12
    5  A    between atoms: N_4  and  C_37
    6  A    between atoms: C_6  and  O_22
    7  A    between atoms: C_8  and  C_12
    8  A    between atoms: C_23  and  C_30
                            x       y       z     vdW  Elec       q    Type
                         _______ _______ _______ _____ _____    ______ ____

>  <TORSDO>
F 8

$$$$
=
 OpenBabel11122411433D

 37 42  0  0  1  0  0  0  0  0999 V2000
  188.0480  177.9000  138.8080 C   0  0  1  0  0  3  0  0  0  0  0  0
  184.7450  178.6830  138.3720 O   0  0  0  0  0  0  0  0  0  0  0  0
  189.8140  177.7090  140.6610 C   0  0  2  0  0  3  0  0  0  0  0  0
  186.6800  177.7350  139.4360 C   0  0  2  0  0  3  0  0  0  0  0  0
  188.8370  178.6240  139.8990 C   0  0  2  0  0  3  0  0  0  0  0  0
  185.5060  177.5050  138.4650 C   0  0  2  0  0  3  0  0  0  0  0  0
  190.7820  177.0040  139.6990 C   0  0  0  0  0  2  0  0  0  0  0  0
  187.7790  179.1900  140.8390 C   0  0  0  0  0  2  0  0  0  0  0  0
  188.1650  176.1710  137.0640 N   0  0  0  0  0  2  0  0  0  0  0  0
  190.1680  176.6370  138.3420 C   0  0  0  0  0  2  0  0  0  0  0  0
  183.5930  177.5790  140.1680 O   0  0  0  0  0  0  0  0  0  0  0  0
  183.6300  178.6580  139.2570 C   0  0  1  0  0  3  0  0  0  0  0  0
  188.6450  176.5440  138.3900 C   0  0  1  0  0  3  0  0  0  0  0  0
  186.4640  178.9330  140.2460 N   0  0  2  0  0  0  0  0  0  0  0  0
  185.8620  176.9640  137.0730 C   0  0  1  0  0  3  0  0  0  0  0  0
  183.9950  178.8180  140.7110 C   0  0  2  0  0  3  0  0  0  0  0  0
  185.4340  178.6270  141.2540 C   0  0  2  0  0  3  0  0  0  0  0  0
  186.7760  175.7460  137.1610 C   0  0  0  0  0  2  0  0  0  0  0  0
  184.1930  177.4840  135.3810 C   0  0  0  0  0  3  0  0  0  0  0  0
  184.6240  176.6210  136.3050 C   0  0  0  0  0  0  0  0  0  0  0  0
  183.8950  175.3270  136.5870 C   0  0  0  0  0  2  0  0  0  0  0  0
  181.9540  174.1230  135.8950 O   0  0  0  0  0  0  0  0  0  0  0  0
  182.2860  176.1360  134.7770 N   0  0  0  0  0  0  0  0  0  0  0  0
  182.6620  175.1510  135.7470 C   0  0  0  0  0  0  0  0  0  0  0  0
  182.9790  177.2170  134.5940 C   0  0  0  0  0  3  0  0  0  0  0  0
  185.5730  179.4930  142.5250 C   0  0  0  0  0  2  0  0  0  0  0  0
  184.8810  178.9470  143.7050 N   0  0  0  0  0  0  0  0  0  0  0  0
  185.7130  177.8640  145.7210 C   0  0  0  0  0  1  0  0  0  0  0  0
  185.6930  179.1390  144.9020 C   0  0  0  0  0  2  0  0  0  0  0  0
  183.6100  179.6330  143.8980 C   0  0  0  0  0  2  0  0  0  0  0  0
  182.5100  178.6280  144.1930 C   0  0  0  0  0  2  0  0  0  0  0  0
  181.2780  179.1290  143.7720 O   0  0  0  0  0  1  0  0  0  0  0  0
  189.1170  176.7490  141.4240 O   0  0  0  0  0  0  0  0  0  0  0  0
  189.5380  176.8270  142.7710 C   0  0  0  0  0  0  0  0  0  0  0  0
  190.2730  177.9810  143.0070 F   0  0  0  0  0  0  0  0  0  0  0  0
  188.3560  176.7680  143.7300 C   0  0  0  0  0  1  0  0  0  0  0  0
  190.4310  175.6390  143.0590 C   0  0  0  0  0  1  0  0  0  0  0  0
  1  4  1  0  0  0  0
  1  5  1  0  0  0  0
  2  6  1  0  0  0  0
  2 12  1  0  0  0  0
  3 33  1  0  0  0  0
  4 14  1  0  0  0  0
  5  3  1  0  0  0  0
  5  8  1  0  0  0  0
  6  4  1  0  0  0  0
  7  3  1  0  0  0  0
  9 18  1  0  0  0  0
  9 13  1  0  0  0  0
 10 13  1  0  0  0  0
 10  7  1  0  0  0  0
 11 16  1  0  0  0  0
 12 11  1  0  0  0  0
 12 16  1  0  0  0  0
 13  1  1  0  0  0  0
 14  8  1  0  0  0  0
 14 17  1  0  0  0  0
 15 18  1  0  0  0  0
 15  6  1  0  0  0  0
 16 17  1  0  0  0  0
 17 26  1  0  0  0  0
 19 20  2  0  0  0  0
 20 21  1  0  0  0  0
 20 15  1  0  0  0  0
 23 24  1  0  0  0  0
 24 22  2  0  0  0  0
 24 21  1  0  0  0  0
 25 23  2  0  0  0  0
 25 19  1  0  0  0  0
 26 27  1  0  0  0  0
 27 30  1  0  0  0  0
 27 29  1  0  0  0  0
 29 28  1  0  0  0  0
 30 31  1  0  0  0  0
 32 31  1  0  0  0  0
 33 34  1  0  0  0  0
 34 35  1  0  0  0  0
 34 37  1  0  0  0  0
 34 36  1  0  0  0  0
M  END
>  <MODEL>
7

>  <REMARK>
 VINA RESULT:      -5.1      2.671      8.049
  Name = 
  8 active torsions:
  status: ('A' for Active; 'I' for Inactive)
    1  A    between atoms: C_1  and  N_4
    2  A    between atoms: C_1  and  C_27
    3  A    between atoms: C_2  and  O_22
    4  A    between atoms: N_4  and  C_12
    5  A    between atoms: N_4  and  C_37
    6  A    between atoms: C_6  and  O_22
    7  A    between atoms: C_8  and  C_12
    8  A    between atoms: C_23  and  C_30
                            x       y       z     vdW  Elec       q    Type
                         _______ _______ _______ _____ _____    ______ ____

>  <TORSDO>
F 8

$$$$
=
 OpenBabel11122411433D

 37 42  0  0  1  0  0  0  0  0999 V2000
  186.6430  178.0590  136.7520 C   0  0  1  0  0  3  0  0  0  0  0  0
  184.9330  179.3960  139.3980 O   0  0  0  0  0  0  0  0  0  0  0  0
  188.9150  177.0080  136.1850 C   0  0  2  0  0  3  0  0  0  0  0  0
  186.3940  177.8830  138.2360 C   0  0  2  0  0  3  0  0  0  0  0  0
  188.1580  178.2530  136.6830 C   0  0  2  0  0  3  0  0  0  0  0  0
  184.9600  178.1620  138.7260 C   0  0  2  0  0  3  0  0  0  0  0  0
  188.3860  176.5420  134.8210 C   0  0  0  0  0  2  0  0  0  0  0  0
  188.5740  178.6100  138.1050 C   0  0  0  0  0  2  0  0  0  0  0  0
  184.7030  177.0240  135.6510 N   0  0  0  0  0  2  0  0  0  0  0  0
  186.8780  176.7460  134.6250 C   0  0  0  0  0  2  0  0  0  0  0  0
  185.3720  177.9210  141.2430 O   0  0  0  0  0  0  0  0  0  0  0  0
  185.0630  179.2280  140.8060 C   0  0  1  0  0  3  0  0  0  0  0  0
  186.1220  176.8550  135.9460 C   0  0  1  0  0  3  0  0  0  0  0  0
  187.3570  178.7550  138.9080 N   0  0  2  0  0  0  0  0  0  0  0  0
  183.8470  178.0800  137.6720 C   0  0  1  0  0  3  0  0  0  0  0  0
  186.4480  178.8340  141.2520 C   0  0  2  0  0  3  0  0  0  0  0  0
  187.5250  178.2720  140.2900 C   0  0  2  0  0  3  0  0  0  0  0  0
  183.9320  176.7890  136.8640 C   0  0  0  0  0  2  0  0  0  0  0  0
  181.7130  179.2130  137.9600 C   0  0  0  0  0  3  0  0  0  0  0  0
  182.4990  178.1930  138.3150 C   0  0  0  0  0  0  0  0  0  0  0  0
  182.0630  177.1690  139.3380 C   0  0  0  0  0  2  0  0  0  0  0  0
  180.2220  176.6770  140.7750 O   0  0  0  0  0  0  0  0  0  0  0  0
  179.9290  178.5670  139.4490 N   0  0  0  0  0  0  0  0  0  0  0  0
  180.6970  177.4450  139.9000 C   0  0  0  0  0  0  0  0  0  0  0  0
  180.3800  179.3910  138.5560 C   0  0  0  0  0  3  0  0  0  0  0  0
  188.9090  178.6280  140.8780 C   0  0  0  0  0  2  0  0  0  0  0  0
  189.3010  177.8070  142.0350 N   0  0  0  0  0  0  0  0  0  0  0  0
  188.6330  176.0040  143.5290 C   0  0  0  0  0  1  0  0  0  0  0  0
  188.1660  177.0230  142.5090 C   0  0  0  0  0  2  0  0  0  0  0  0
  190.3660  176.8870  141.6530 C   0  0  0  0  0  2  0  0  0  0  0  0
  191.7230  177.5020  141.9480 C   0  0  0  0  0  2  0  0  0  0  0  0
  192.6240  177.1820  140.9330 O   0  0  0  0  0  1  0  0  0  0  0  0
  188.8210  175.9530  137.1170 O   0  0  0  0  0  0  0  0  0  0  0  0
  190.0370  175.2330  137.1330 C   0  0  0  0  0  0  0  0  0  0  0  0
  190.7670  175.4450  135.9720 F   0  0  0  0  0  0  0  0  0  0  0  0
  190.8850  175.5960  138.3450 C   0  0  0  0  0  1  0  0  0  0  0  0
  189.7130  173.7570  137.2170 C   0  0  0  0  0  1  0  0  0  0  0  0
  1  4  1  0  0  0  0
  2 12  1  0  0  0  0
  3  5  1  0  0  0  0
  3 33  1  0  0  0  0
  4  6  1  0  0  0  0
  4 14  1  0  0  0  0
  5  1  1  0  0  0  0
  5  8  1  0  0  0  0
  6  2  1  0  0  0  0
  7  3  1  0  0  0  0
  8 14  1  0  0  0  0
  9 13  1  0  0  0  0
  9 18  1  0  0  0  0
 10  7  1  0  0  0  0
 10 13  1  0  0  0  0
 11 16  1  0  0  0  0
 12 11  1  0  0  0  0
 12 16  1  0  0  0  0
 13  1  1  0  0  0  0
 14 17  1  0  0  0  0
 15 20  1  0  0  0  0
 15  6  1  0  0  0  0
 17 26  1  0  0  0  0
 17 16  1  0  0  0  0
 18 15  1  0  0  0  0
 19 20  2  0  0  0  0
 19 25  1  0  0  0  0
 20 21  1  0  0  0  0
 21 24  1  0  0  0  0
 23 24  1  0  0  0  0
 24 22  2  0  0  0  0
 25 23  2  0  0  0  0
 26 27  1  0  0  0  0
 27 29  1  0  0  0  0
 29 28  1  0  0  0  0
 30 31  1  0  0  0  0
 30 27  1  0  0  0  0
 32 31  1  0  0  0  0
 33 34  1  0  0  0  0
 34 37  1  0  0  0  0
 34 36  1  0  0  0  0
 35 34  1  0  0  0  0
M  END
>  <MODEL>
8

>  <REMARK>
 VINA RESULT:      -5.1      2.775      7.699
  Name = 
  8 active torsions:
  status: ('A' for Active; 'I' for Inactive)
    1  A    between atoms: C_1  and  N_4
    2  A    between atoms: C_1  and  C_27
    3  A    between atoms: C_2  and  O_22
    4  A    between atoms: N_4  and  C_12
    5  A    between atoms: N_4  and  C_37
    6  A    between atoms: C_6  and  O_22
    7  A    between atoms: C_8  and  C_12
    8  A    between atoms: C_23  and  C_30
                            x       y       z     vdW  Elec       q    Type
                         _______ _______ _______ _____ _____    ______ ____

>  <TORSDO>
F 8

$$$$
=
 OpenBabel11122411433D

 37 42  0  0  1  0  0  0  0  0999 V2000
  187.4810  177.1330  142.4190 C   0  0  1  0  0  3  0  0  0  0  0  0
  186.8530  177.2780  139.0570 O   0  0  0  0  0  0  0  0  0  0  0  0
  189.4320  177.2680  144.0800 C   0  0  2  0  0  3  0  0  0  0  0  0
  187.8860  177.8530  141.1490 C   0  0  2  0  0  3  0  0  0  0  0  0
  188.7970  176.5180  142.8940 C   0  0  2  0  0  3  0  0  0  0  0  0
  186.7550  178.1590  140.1470 C   0  0  2  0  0  3  0  0  0  0  0  0
  188.4530  177.3800  145.2580 C   0  0  0  0  0  2  0  0  0  0  0  0
  189.7110  176.5550  141.6760 C   0  0  0  0  0  2  0  0  0  0  0  0
  185.4060  178.2340  143.1450 N   0  0  0  0  0  2  0  0  0  0  0  0
  186.9850  177.5450  144.8450 C   0  0  0  0  0  2  0  0  0  0  0  0
  188.1890  179.1010  138.2440 O   0  0  0  0  0  0  0  0  0  0  0  0
  187.5680  177.8620  137.9740 C   0  0  1  0  0  3  0  0  0  0  0  0
  186.8290  178.0940  143.4300 C   0  0  1  0  0  3  0  0  0  0  0  0
  188.9230  177.0260  140.5340 N   0  0  2  0  0  0  0  0  0  0  0  0
  185.3280  178.1890  140.7110 C   0  0  1  0  0  3  0  0  0  0  0  0
  189.0520  177.9850  138.2120 C   0  0  2  0  0  3  0  0  0  0  0  0
  189.7010  177.8750  139.6150 C   0  0  2  0  0  3  0  0  0  0  0  0
  185.2340  179.0610  141.9590 C   0  0  0  0  0  2  0  0  0  0  0  0
  183.9940  179.9550  139.7000 C   0  0  0  0  0  3  0  0  0  0  0  0
  184.3590  178.6710  139.6760 C   0  0  0  0  0  0  0  0  0  0  0  0
  183.8220  177.7090  138.6400 C   0  0  0  0  0  2  0  0  0  0  0  0
  182.3090  177.6550  136.7940 O   0  0  0  0  0  0  0  0  0  0  0  0
  182.5220  179.7410  137.8020 N   0  0  0  0  0  0  0  0  0  0  0  0
  182.8450  178.3500  137.6950 C   0  0  0  0  0  0  0  0  0  0  0  0
  183.0410  180.4960  138.7200 C   0  0  0  0  0  3  0  0  0  0  0  0
  191.1480  177.3690  139.4220 C   0  0  0  0  0  2  0  0  0  0  0  0
  191.3700  176.6450  138.1610 N   0  0  0  0  0  0  0  0  0  0  0  0
  193.5490  175.5620  138.2660 C   0  0  0  0  0  1  0  0  0  0  0  0
  192.7660  176.7540  137.7520 C   0  0  0  0  0  2  0  0  0  0  0  0
  191.0540  175.2330  138.3360 C   0  0  0  0  0  2  0  0  0  0  0  0
  190.0950  174.7700  137.2520 C   0  0  0  0  0  2  0  0  0  0  0  0
  190.0440  173.3770  137.2210 O   0  0  0  0  0  1  0  0  0  0  0  0
  189.8600  178.5550  143.6930 O   0  0  0  0  0  0  0  0  0  0  0  0
  191.2250  178.7140  144.0250 C   0  0  0  0  0  0  0  0  0  0  0  0
  191.5230  180.0350  144.3300 F   0  0  0  0  0  0  0  0  0  0  0  0
  191.6240  177.8170  145.1900 C   0  0  0  0  0  1  0  0  0  0  0  0
  192.0550  178.3140  142.8240 C   0  0  0  0  0  1  0  0  0  0  0  0
  1  5  1  0  0  0  0
  1 13  1  0  0  0  0
  2  6  1  0  0  0  0
  3  7  1  0  0  0  0
  4  1  1  0  0  0  0
  5  3  1  0  0  0  0
  6 15  1  0  0  0  0
  6  4  1  0  0  0  0
  8  5  1  0  0  0  0
  9 13  1  0  0  0  0
 10  7  1  0  0  0  0
 12 16  1  0  0  0  0
 12 11  1  0  0  0  0
 12  2  1  0  0  0  0
 13 10  1  0  0  0  0
 14  4  1  0  0  0  0
 14  8  1  0  0  0  0
 15 18  1  0  0  0  0
 16 11  1  0  0  0  0
 16 17  1  0  0  0  0
 17 14  1  0  0  0  0
 18  9  1  0  0  0  0
 20 19  2  0  0  0  0
 20 15  1  0  0  0  0
 21 20  1  0  0  0  0
 22 24  2  0  0  0  0
 23 25  2  0  0  0  0
 24 23  1  0  0  0  0
 24 21  1  0  0  0  0
 25 19  1  0  0  0  0
 26 17  1  0  0  0  0
 27 30  1  0  0  0  0
 27 26  1  0  0  0  0
 29 27  1  0  0  0  0
 29 28  1  0  0  0  0
 31 30  1  0  0  0  0
 32 31  1  0  0  0  0
 33 34  1  0  0  0  0
 33  3  1  0  0  0  0
 34 35  1  0  0  0  0
 34 36  1  0  0  0  0
 37 34  1  0  0  0  0
M  END
>  <MODEL>
9

>  <REMARK>
 VINA RESULT:      -5.0      3.060      6.893
  Name = 
  8 active torsions:
  status: ('A' for Active; 'I' for Inactive)
    1  A    between atoms: C_1  and  N_4
    2  A    between atoms: C_1  and  C_27
    3  A    between atoms: C_2  and  O_22
    4  A    between atoms: N_4  and  C_12
    5  A    between atoms: N_4  and  C_37
    6  A    between atoms: C_6  and  O_22
    7  A    between atoms: C_8  and  C_12
    8  A    between atoms: C_23  and  C_30
                            x       y       z     vdW  Elec       q    Type
                         _______ _______ _______ _____ _____    ______ ____

>  <TORSDO>
F 8

$$$$
