=
 OpenBabel11122410333D

 30 35  0  0  1  0  0  0  0  0999 V2000
  183.0190  176.5690  138.5900 C   0  0  1  0  0  3  0  0  0  0  0  0
  184.5640  175.0290  137.2480 C   0  0  0  0  0  0  0  0  0  0  0  0
  186.2240  178.7260  139.2340 N   0  0  0  0  0  2  0  0  0  0  0  0
  182.6530  178.0620  138.6360 C   0  0  1  0  0  3  0  0  0  0  0  0
  181.8170  175.8300  137.9920 C   0  0  0  0  0  2  0  0  0  0  0  0
  179.1140  177.7490  139.3340 O   0  0  0  0  0  0  0  0  0  0  0  0
  182.0300  178.5740  141.7480 C   0  0  1  0  0  3  0  0  0  0  0  0
  180.3090  177.3780  139.2010 C   0  0  0  0  0  0  0  0  0  0  0  0
  183.4540  178.0740  141.4910 C   0  0  2  0  0  3  0  0  0  0  0  0
  185.6970  178.8730  140.5330 C   0  0  0  0  0  0  0  0  0  0  0  0
  180.5850  175.9440  138.8830 C   0  0  2  0  0  3  0  0  0  0  0  0
  181.4020  178.3040  139.3890 N   0  0  0  0  0  0  0  0  0  0  0  0
  185.6750  174.8330  136.4260 C   0  0  0  0  0  3  0  0  0  0  0  0
  184.0650  178.0190  142.8840 C   0  0  0  0  0  2  0  0  0  0  0  0
  182.1400  179.5200  142.9280 C   0  0  0  0  0  2  0  0  0  0  0  0
  183.7680  173.9290  137.5490 O   0  0  0  0  0  1  0  0  0  0  0  0
  185.1440  178.6800  138.2640 C   0  0  2  0  0  3  0  0  0  0  0  0
  186.5370  175.8890  136.1430 C   0  0  0  0  0  3  0  0  0  0  0  0
  184.2700  176.3170  137.7640 C   0  0  0  0  0  0  0  0  0  0  0  0
  183.8450  178.9540  139.0600 C   0  0  2  0  0  3  0  0  0  0  0  0
  186.4390  178.9540  141.5460 O   0  0  0  0  0  0  0  0  0  0  0  0
  184.2240  179.0470  140.5620 C   0  0  1  0  0  3  0  0  0  0  0  0
  183.3160  179.0240  143.7450 C   0  0  0  0  0  2  0  0  0  0  0  0
  180.0480  179.8780  140.8030 C   0  0  0  0  0  1  0  0  0  0  0  0
  186.3110  177.1380  136.7140 C   0  0  0  0  0  3  0  0  0  0  0  0
  185.2040  177.3590  137.5430 C   0  0  0  0  0  0  0  0  0  0  0  0
  181.4060  179.2440  140.5200 C   0  0  1  0  0  3  0  0  0  0  0  0
  180.7580  175.1530  140.1720 C   0  0  0  0  0  2  0  0  0  0  0  0
  179.8560  173.3820  141.4580 F   0  0  0  0  0  0  0  0  0  0  0  0
  179.6120  174.1760  140.3540 C   0  0  0  0  0  2  0  0  0  0  0  0
  1  5  1  6  0  0  0
  1  4  1  0  0  0  0
  2 16  1  0  0  0  0
  2 19  1  0  0  0  0
  3 10  1  0  0  0  0
  4 20  1  0  0  0  0
  4 12  1  1  0  0  0
  5 11  1  0  0  0  0
  7 15  1  1  0  0  0
  8  6  2  0  0  0  0
  8 12  1  0  0  0  0
  9  7  1  0  0  0  0
  9 14  1  1  0  0  0
 10 22  1  0  0  0  0
 10 21  2  0  0  0  0
 11  8  1  0  0  0  0
 11 28  1  1  0  0  0
 12 27  1  0  0  0  0
 13  2  2  0  0  0  0
 14 23  1  0  0  0  0
 15 23  1  0  0  0  0
 17 26  1  1  0  0  0
 17 20  1  0  0  0  0
 17  3  1  0  0  0  0
 18 13  1  0  0  0  0
 18 25  2  0  0  0  0
 19  1  1  0  0  0  0
 20 22  1  0  0  0  0
 22  9  1  0  0  0  0
 25 26  1  0  0  0  0
 26 19  2  0  0  0  0
 27 24  1  0  0  0  0
 27  7  1  0  0  0  0
 28 30  1  0  0  0  0
 30 29  1  0  0  0  0
M  END
>  <MODEL>
1

>  <REMARK>
 VINA RESULT:      -6.4      0.000      0.000
  Name = 
  2 active torsions:
  status: ('A' for Active; 'I' for Inactive)
    1  A    between atoms: C_11  and  C_28
    2  A    between atoms: C_28  and  C_30
                            x       y       z     vdW  Elec       q    Type
                         _______ _______ _______ _____ _____    ______ ____

>  <TORSDO>
F 2

$$$$
=
 OpenBabel11122410333D

 30 35  0  0  1  0  0  0  0  0999 V2000
  186.6770  178.0120  139.8570 C   0  0  1  0  0  3  0  0  0  0  0  0
  186.3030  178.1260  142.3880 C   0  0  0  0  0  0  0  0  0  0  0  0
  182.8390  177.2700  139.6260 N   0  0  0  0  0  2  0  0  0  0  0  0
  186.0910  178.6470  138.5860 C   0  0  1  0  0  3  0  0  0  0  0  0
  188.0640  178.6280  140.0680 C   0  0  0  0  0  2  0  0  0  0  0  0
  189.1490  179.0150  136.6820 O   0  0  0  0  0  0  0  0  0  0  0  0
  186.3840  176.3150  136.3920 C   0  0  1  0  0  3  0  0  0  0  0  0
  188.4010  178.6220  137.6150 C   0  0  0  0  0  0  0  0  0  0  0  0
  185.5240  175.9110  137.5930 C   0  0  2  0  0  3  0  0  0  0  0  0
  183.2160  176.3540  138.6230 C   0  0  0  0  0  0  0  0  0  0  0  0
  189.0170  178.2740  138.9310 C   0  0  2  0  0  3  0  0  0  0  0  0
  186.9780  178.4680  137.4150 N   0  0  0  0  0  0  0  0  0  0  0  0
  185.4980  178.4270  143.4890 C   0  0  0  0  0  3  0  0  0  0  0  0
  185.1080  174.4850  137.2640 C   0  0  0  0  0  2  0  0  0  0  0  0
  185.7710  175.6060  135.2000 C   0  0  0  0  0  2  0  0  0  0  0  0
  187.6040  177.6960  142.6240 O   0  0  0  0  0  1  0  0  0  0  0  0
  183.7060  178.4340  139.5840 C   0  0  2  0  0  3  0  0  0  0  0  0
  184.1700  178.8040  143.3090 C   0  0  0  0  0  3  0  0  0  0  0  0
  185.7930  178.2520  141.0710 C   0  0  0  0  0  0  0  0  0  0  0  0
  184.6150  178.2440  138.3460 C   0  0  2  0  0  3  0  0  0  0  0  0
  182.6010  175.2700  138.4470 O   0  0  0  0  0  0  0  0  0  0  0  0
  184.3000  176.8500  137.7400 C   0  0  1  0  0  3  0  0  0  0  0  0
  185.1430  174.3420  135.7500 C   0  0  0  0  0  2  0  0  0  0  0  0
  187.1800  178.2440  134.9220 C   0  0  0  0  0  1  0  0  0  0  0  0
  183.6310  178.8460  142.0270 C   0  0  0  0  0  3  0  0  0  0  0  0
  184.4180  178.5470  140.9070 C   0  0  0  0  0  0  0  0  0  0  0  0
  186.4530  177.8330  136.1970 C   0  0  1  0  0  3  0  0  0  0  0  0
  189.3850  176.7970  138.9560 C   0  0  0  0  0  2  0  0  0  0  0  0
  190.2070  176.3780  141.1360 F   0  0  0  0  0  0  0  0  0  0  0  0
  190.6060  176.5680  139.8270 C   0  0  0  0  0  2  0  0  0  0  0  0
  1  5  1  1  0  0  0
  1 19  1  0  0  0  0
  2 16  1  0  0  0  0
  2 13  1  0  0  0  0
  4 12  1  6  0  0  0
  4  1  1  0  0  0  0
  6  8  2  0  0  0  0
  7 15  1  6  0  0  0
  7  9  1  0  0  0  0
  8 11  1  0  0  0  0
  9 14  1  6  0  0  0
  9 22  1  0  0  0  0
 10  3  1  0  0  0  0
 11 28  1  6  0  0  0
 11  5  1  0  0  0  0
 12  8  1  0  0  0  0
 15 23  1  0  0  0  0
 17  3  1  1  0  0  0
 17 26  1  0  0  0  0
 18 13  2  0  0  0  0
 19  2  2  0  0  0  0
 20  4  1  0  0  0  0
 20 17  1  0  0  0  0
 21 10  2  0  0  0  0
 22 20  1  0  0  0  0
 22 10  1  0  0  0  0
 23 14  1  0  0  0  0
 24 27  1  0  0  0  0
 25 18  1  0  0  0  0
 26 19  1  0  0  0  0
 26 25  2  0  0  0  0
 27  7  1  0  0  0  0
 27 12  1  0  0  0  0
 28 30  1  0  0  0  0
 30 29  1  0  0  0  0
M  END
>  <MODEL>
2

>  <REMARK>
 VINA RESULT:      -6.2      2.931      7.078
  Name = 
  2 active torsions:
  status: ('A' for Active; 'I' for Inactive)
    1  A    between atoms: C_11  and  C_28
    2  A    between atoms: C_28  and  C_30
                            x       y       z     vdW  Elec       q    Type
                         _______ _______ _______ _____ _____    ______ ____

>  <TORSDO>
F 2

$$$$
=
 OpenBabel11122410333D

 30 35  0  0  1  0  0  0  0  0999 V2000
  186.4790  177.5570  137.9790 C   0  0  1  0  0  3  0  0  0  0  0  0
  184.8880  178.8310  139.5300 C   0  0  0  0  0  0  0  0  0  0  0  0
  183.2680  175.7250  136.6850 N   0  0  0  0  0  2  0  0  0  0  0  0
  186.6110  177.2530  136.4770 C   0  0  1  0  0  3  0  0  0  0  0  0
  187.5770  178.5650  138.3310 C   0  0  0  0  0  2  0  0  0  0  0  0
  190.2130  177.4670  136.1770 O   0  0  0  0  0  0  0  0  0  0  0  0
  187.9510  174.3310  136.4300 C   0  0  1  0  0  3  0  0  0  0  0  0
  189.0960  177.4080  136.7560 C   0  0  0  0  0  0  0  0  0  0  0  0
  186.6030  174.3670  137.1570 C   0  0  2  0  0  3  0  0  0  0  0  0
  184.0920  174.5810  136.6750 C   0  0  0  0  0  0  0  0  0  0  0  0
  188.9690  177.9760  138.1320 C   0  0  2  0  0  3  0  0  0  0  0  0
  187.9640  176.7680  136.1250 N   0  0  0  0  0  0  0  0  0  0  0  0
  183.6420  179.4020  139.7960 C   0  0  0  0  0  3  0  0  0  0  0  0
  186.4000  172.9230  137.5920 C   0  0  0  0  0  2  0  0  0  0  0  0
  188.0140  172.9720  135.7610 C   0  0  0  0  0  2  0  0  0  0  0  0
  185.8940  178.9800  140.4780 O   0  0  0  0  0  1  0  0  0  0  0  0
  184.0450  176.8980  136.3280 C   0  0  2  0  0  3  0  0  0  0  0  0
  182.5840  179.2310  138.9070 C   0  0  0  0  0  3  0  0  0  0  0  0
  185.1070  178.1140  138.3260 C   0  0  0  0  0  0  0  0  0  0  0  0
  185.4510  176.3770  135.9440 C   0  0  2  0  0  3  0  0  0  0  0  0
  183.6420  173.4350  136.9370 O   0  0  0  0  0  0  0  0  0  0  0  0
  185.4750  174.8470  136.2090 C   0  0  1  0  0  3  0  0  0  0  0  0
  187.1870  172.0460  136.6310 C   0  0  0  0  0  2  0  0  0  0  0  0
  189.3860  175.3750  134.5940 C   0  0  0  0  0  1  0  0  0  0  0  0
  182.7600  178.4560  137.7650 C   0  0  0  0  0  3  0  0  0  0  0  0
  184.0000  177.8700  137.4770 C   0  0  0  0  0  0  0  0  0  0  0  0
  188.1150  175.4810  135.4310 C   0  0  1  0  0  3  0  0  0  0  0  0
  189.2670  176.8990  139.1660 C   0  0  0  0  0  2  0  0  0  0  0  0
  188.3380  177.1320  141.3310 F   0  0  0  0  0  0  0  0  0  0  0  0
  189.4100  177.5120  140.5460 C   0  0  0  0  0  2  0  0  0  0  0  0
  1 19  1  0  0  0  0
  1  5  1  6  0  0  0
  2 13  1  0  0  0  0
  2 16  1  0  0  0  0
  4 12  1  1  0  0  0
  4  1  1  0  0  0  0
  6  8  2  0  0  0  0
  7 15  1  6  0  0  0
  7  9  1  0  0  0  0
  8 11  1  0  0  0  0
  9 14  1  6  0  0  0
 10  3  1  0  0  0  0
 10 21  2  0  0  0  0
 11  5  1  0  0  0  0
 11 28  1  1  0  0  0
 12  8  1  0  0  0  0
 15 23  1  0  0  0  0
 17  3  1  1  0  0  0
 17 26  1  0  0  0  0
 18 13  2  0  0  0  0
 19  2  2  0  0  0  0
 20 22  1  0  0  0  0
 20 17  1  0  0  0  0
 20  4  1  0  0  0  0
 22 10  1  0  0  0  0
 22  9  1  0  0  0  0
 23 14  1  0  0  0  0
 24 27  1  0  0  0  0
 25 18  1  0  0  0  0
 26 25  2  0  0  0  0
 26 19  1  0  0  0  0
 27 12  1  0  0  0  0
 27  7  1  0  0  0  0
 28 30  1  0  0  0  0
 30 29  1  0  0  0  0
M  END
>  <MODEL>
3

>  <REMARK>
 VINA RESULT:      -5.9      3.320      7.494
  Name = 
  2 active torsions:
  status: ('A' for Active; 'I' for Inactive)
    1  A    between atoms: C_11  and  C_28
    2  A    between atoms: C_28  and  C_30
                            x       y       z     vdW  Elec       q    Type
                         _______ _______ _______ _____ _____    ______ ____

>  <TORSDO>
F 2

$$$$
=
 OpenBabel11122410333D

 30 35  0  0  1  0  0  0  0  0999 V2000
  188.2040  177.6890  139.8500 C   0  0  1  0  0  3  0  0  0  0  0  0
  185.9580  178.4200  140.8400 C   0  0  0  0  0  0  0  0  0  0  0  0
  186.2310  177.2090  136.5020 N   0  0  0  0  0  2  0  0  0  0  0  0
  189.0970  178.0520  138.6520 C   0  0  1  0  0  3  0  0  0  0  0  0
  188.8960  178.2290  141.1060 C   0  0  0  0  0  2  0  0  0  0  0  0
  192.3320  177.7290  140.2470 O   0  0  0  0  0  0  0  0  0  0  0  0
  190.4930  175.2560  137.8980 C   0  0  1  0  0  3  0  0  0  0  0  0
  191.0840  177.6230  140.1180 C   0  0  0  0  0  0  0  0  0  0  0  0
  188.9650  175.2110  137.8130 C   0  0  2  0  0  3  0  0  0  0  0  0
  187.0310  176.0570  136.3550 C   0  0  0  0  0  0  0  0  0  0  0  0
  190.2380  177.5470  141.3480 C   0  0  2  0  0  3  0  0  0  0  0  0
  190.4760  177.5360  138.8100 N   0  0  0  0  0  0  0  0  0  0  0  0
  184.7090  179.0310  140.7090 C   0  0  0  0  0  3  0  0  0  0  0  0
  188.6790  173.7830  137.3700 C   0  0  0  0  0  2  0  0  0  0  0  0
  190.9860  174.3360  136.7980 C   0  0  0  0  0  2  0  0  0  0  0  0
  186.3350  177.9590  142.0970 O   0  0  0  0  0  1  0  0  0  0  0  0
  186.9920  178.2610  137.1520 C   0  0  2  0  0  3  0  0  0  0  0  0
  184.2600  179.4560  139.4620 C   0  0  0  0  0  3  0  0  0  0  0  0
  186.8070  178.2730  139.7140 C   0  0  0  0  0  0  0  0  0  0  0  0
  188.4340  177.7180  137.2940 C   0  0  2  0  0  3  0  0  0  0  0  0
  186.5980  175.0120  135.8030 O   0  0  0  0  0  0  0  0  0  0  0  0
  188.4360  176.2480  136.7920 C   0  0  1  0  0  3  0  0  0  0  0  0
  189.9070  173.2880  136.6220 C   0  0  0  0  0  2  0  0  0  0  0  0
  192.5750  176.7200  137.7000 C   0  0  0  0  0  1  0  0  0  0  0  0
  185.0450  179.2380  138.3330 C   0  0  0  0  0  3  0  0  0  0  0  0
  186.3000  178.6260  138.4390 C   0  0  0  0  0  0  0  0  0  0  0  0
  191.0520  176.6760  137.7660 C   0  0  1  0  0  3  0  0  0  0  0  0
  190.0550  176.0930  141.7600 C   0  0  0  0  0  2  0  0  0  0  0  0
  188.1790  175.6860  143.1470 F   0  0  0  0  0  0  0  0  0  0  0  0
  189.5230  176.0070  143.1780 C   0  0  0  0  0  2  0  0  0  0  0  0
  1  5  1  1  0  0  0
  2 16  1  0  0  0  0
  4 12  1  1  0  0  0
  4  1  1  0  0  0  0
  5 11  1  0  0  0  0
  7 15  1  6  0  0  0
  8  6  2  0  0  0  0
  8 11  1  0  0  0  0
  9 14  1  6  0  0  0
  9  7  1  0  0  0  0
 10  3  1  0  0  0  0
 10 22  1  0  0  0  0
 11 28  1  6  0  0  0
 12  8  1  0  0  0  0
 13  2  1  0  0  0  0
 17  3  1  1  0  0  0
 17 20  1  0  0  0  0
 17 26  1  0  0  0  0
 18 13  2  0  0  0  0
 19  1  1  0  0  0  0
 19  2  2  0  0  0  0
 20  4  1  0  0  0  0
 21 10  2  0  0  0  0
 22 20  1  0  0  0  0
 22  9  1  0  0  0  0
 23 15  1  0  0  0  0
 23 14  1  0  0  0  0
 24 27  1  0  0  0  0
 25 26  2  0  0  0  0
 25 18  1  0  0  0  0
 26 19  1  0  0  0  0
 27  7  1  0  0  0  0
 27 12  1  0  0  0  0
 28 30  1  0  0  0  0
 29 30  1  0  0  0  0
M  END
>  <MODEL>
4

>  <REMARK>
 VINA RESULT:      -5.8      3.922      8.128
  Name = 
  2 active torsions:
  status: ('A' for Active; 'I' for Inactive)
    1  A    between atoms: C_11  and  C_28
    2  A    between atoms: C_28  and  C_30
                            x       y       z     vdW  Elec       q    Type
                         _______ _______ _______ _____ _____    ______ ____

>  <TORSDO>
F 2

$$$$
=
 OpenBabel11122410333D

 30 35  0  0  1  0  0  0  0  0999 V2000
  182.6870  177.8370  139.7930 C   0  0  1  0  0  3  0  0  0  0  0  0
  183.9640  178.4180  141.9360 C   0  0  0  0  0  0  0  0  0  0  0  0
  179.6440  177.1300  142.1550 N   0  0  0  0  0  2  0  0  0  0  0  0
  181.3740  178.2390  139.1010 C   0  0  1  0  0  3  0  0  0  0  0  0
  183.8300  178.4570  138.9830 C   0  0  0  0  0  2  0  0  0  0  0  0
  182.5190  178.2010  135.6660 O   0  0  0  0  0  0  0  0  0  0  0  0
  180.4730  175.5410  137.6030 C   0  0  1  0  0  3  0  0  0  0  0  0
  182.5620  177.9980  136.9080 C   0  0  0  0  0  0  0  0  0  0  0  0
  180.5980  175.3770  139.1210 C   0  0  2  0  0  3  0  0  0  0  0  0
  179.4050  176.0400  141.2940 C   0  0  0  0  0  0  0  0  0  0  0  0
  183.8960  177.8860  137.5710 C   0  0  2  0  0  3  0  0  0  0  0  0
  181.3500  177.8330  137.6770 N   0  0  0  0  0  0  0  0  0  0  0  0
  183.9960  178.9280  143.2360 C   0  0  0  0  0  3  0  0  0  0  0  0
  180.2160  173.9220  139.3500 C   0  0  0  0  0  2  0  0  0  0  0  0
  179.3280  174.6360  137.1920 C   0  0  0  0  0  2  0  0  0  0  0  0
  185.1630  178.0160  141.3590 O   0  0  0  0  0  1  0  0  0  0  0  0
  180.1710  178.2520  141.3990 C   0  0  2  0  0  3  0  0  0  0  0  0
  182.8160  179.2890  143.8810 C   0  0  0  0  0  3  0  0  0  0  0  0
  182.7340  178.3100  141.2380 C   0  0  0  0  0  0  0  0  0  0  0  0
  180.1230  177.8240  139.9120 C   0  0  2  0  0  3  0  0  0  0  0  0
  178.9310  174.9520  141.7140 O   0  0  0  0  0  0  0  0  0  0  0  0
  179.6440  176.3470  139.8630 C   0  0  1  0  0  3  0  0  0  0  0  0
  179.3130  173.5050  138.1990 C   0  0  0  0  0  2  0  0  0  0  0  0
  179.9750  177.1550  135.6890 C   0  0  0  0  0  1  0  0  0  0  0  0
  181.5940  179.1050  143.2400 C   0  0  0  0  0  3  0  0  0  0  0  0
  181.5360  178.5930  141.9380 C   0  0  0  0  0  0  0  0  0  0  0  0
  180.2490  176.9960  137.1800 C   0  0  1  0  0  3  0  0  0  0  0  0
  184.3480  176.4320  137.5820 C   0  0  0  0  0  2  0  0  0  0  0  0
  185.8020  177.3340  135.9460 F   0  0  0  0  0  0  0  0  0  0  0  0
  185.6510  176.2760  136.8210 C   0  0  0  0  0  2  0  0  0  0  0  0
  1  5  1  6  0  0  0
  1 19  1  0  0  0  0
  2 13  1  0  0  0  0
  4 12  1  6  0  0  0
  4  1  1  0  0  0  0
  4 20  1  0  0  0  0
  6  8  2  0  0  0  0
  7 15  1  1  0  0  0
  7  9  1  0  0  0  0
  8 11  1  0  0  0  0
  8 12  1  0  0  0  0
  9 14  1  6  0  0  0
  9 22  1  0  0  0  0
 10 21  2  0  0  0  0
 10  3  1  0  0  0  0
 11 28  1  1  0  0  0
 11  5  1  0  0  0  0
 13 18  2  0  0  0  0
 15 23  1  0  0  0  0
 16  2  1  0  0  0  0
 17 26  1  1  0  0  0
 17  3  1  0  0  0  0
 19  2  2  0  0  0  0
 19 26  1  0  0  0  0
 20 17  1  0  0  0  0
 22 20  1  0  0  0  0
 22 10  1  0  0  0  0
 23 14  1  0  0  0  0
 24 27  1  0  0  0  0
 25 18  1  0  0  0  0
 26 25  2  0  0  0  0
 27  7  1  0  0  0  0
 27 12  1  0  0  0  0
 29 30  1  0  0  0  0
 30 28  1  0  0  0  0
M  END
>  <MODEL>
5

>  <REMARK>
 VINA RESULT:      -5.7      2.504      6.081
  Name = 
  2 active torsions:
  status: ('A' for Active; 'I' for Inactive)
    1  A    between atoms: C_11  and  C_28
    2  A    between atoms: C_28  and  C_30
                            x       y       z     vdW  Elec       q    Type
                         _______ _______ _______ _____ _____    ______ ____

>  <TORSDO>
F 2

$$$$
=
 OpenBabel11122410333D

 30 35  0  0  1  0  0  0  0  0999 V2000
  185.5190  175.6530  136.7560 C   0  0  1  0  0  3  0  0  0  0  0  0
  187.8140  174.5420  136.9940 C   0  0  0  0  0  0  0  0  0  0  0  0
  187.0080  178.5140  138.9780 N   0  0  0  0  0  2  0  0  0  0  0  0
  184.9480  177.0130  136.3220 C   0  0  1  0  0  3  0  0  0  0  0  0
  185.1850  174.6510  135.6460 C   0  0  0  0  0  2  0  0  0  0  0  0
  181.9830  175.8500  134.5990 O   0  0  0  0  0  0  0  0  0  0  0  0
  182.3300  177.3350  138.1610 C   0  0  1  0  0  3  0  0  0  0  0  0
  183.0050  175.7800  135.3310 C   0  0  0  0  0  0  0  0  0  0  0  0
  183.6240  177.1950  138.9690 C   0  0  2  0  0  3  0  0  0  0  0  0
  185.7340  178.5190  139.5830 C   0  0  0  0  0  0  0  0  0  0  0  0
  183.6810  174.4570  135.4940 C   0  0  2  0  0  3  0  0  0  0  0  0
  183.4970  176.9410  136.0360 N   0  0  0  0  0  0  0  0  0  0  0  0
  189.2010  174.6270  137.1300 C   0  0  0  0  0  3  0  0  0  0  0  0
  183.1470  177.2770  140.4120 C   0  0  0  0  0  2  0  0  0  0  0  0
  181.4490  178.2700  138.9670 C   0  0  0  0  0  2  0  0  0  0  0  0
  187.2420  173.2800  136.8730 O   0  0  0  0  0  1  0  0  0  0  0  0
  186.8810  178.2170  137.5620 C   0  0  2  0  0  3  0  0  0  0  0  0
  189.8170  175.8610  137.3150 C   0  0  0  0  0  3  0  0  0  0  0  0
  187.0200  175.7170  136.9880 C   0  0  0  0  0  0  0  0  0  0  0  0
  185.3620  178.1630  137.2720 C   0  0  2  0  0  3  0  0  0  0  0  0
  185.5810  178.7680  140.8080 O   0  0  0  0  0  0  0  0  0  0  0  0
  184.6180  178.3330  138.6250 C   0  0  1  0  0  3  0  0  0  0  0  0
  181.8470  178.0650  140.4150 C   0  0  0  0  0  2  0  0  0  0  0  0
  181.2870  178.1300  135.9710 C   0  0  0  0  0  1  0  0  0  0  0  0
  189.0430  177.0140  137.4000 C   0  0  0  0  0  3  0  0  0  0  0  0
  187.6490  176.9550  137.2680 C   0  0  0  0  0  0  0  0  0  0  0  0
  182.5730  177.8450  136.7370 C   0  0  1  0  0  3  0  0  0  0  0  0
  183.0940  173.7210  136.6910 C   0  0  0  0  0  2  0  0  0  0  0  0
  184.5330  172.2880  137.9080 F   0  0  0  0  0  0  0  0  0  0  0  0
  183.6970  172.3340  136.8080 C   0  0  0  0  0  2  0  0  0  0  0  0
  1  5  1  6  0  0  0
  1 19  1  0  0  0  0
  2 13  1  0  0  0  0
  3 10  1  0  0  0  0
  4 12  1  1  0  0  0
  4  1  1  0  0  0  0
  4 20  1  0  0  0  0
  6  8  2  0  0  0  0
  7 15  1  1  0  0  0
  7  9  1  0  0  0  0
  8 11  1  0  0  0  0
  8 12  1  0  0  0  0
  9 14  1  1  0  0  0
 10 21  2  0  0  0  0
 11  5  1  0  0  0  0
 11 28  1  1  0  0  0
 12 27  1  0  0  0  0
 13 18  2  0  0  0  0
 14 23  1  0  0  0  0
 15 23  1  0  0  0  0
 16  2  1  0  0  0  0
 17 26  1  1  0  0  0
 17  3  1  0  0  0  0
 18 25  1  0  0  0  0
 19  2  2  0  0  0  0
 19 26  1  0  0  0  0
 20 17  1  0  0  0  0
 20 22  1  0  0  0  0
 22  9  1  0  0  0  0
 22 10  1  0  0  0  0
 24 27  1  0  0  0  0
 26 25  2  0  0  0  0
 27  7  1  0  0  0  0
 28 30  1  0  0  0  0
 30 29  1  0  0  0  0
M  END
>  <MODEL>
6

>  <REMARK>
 VINA RESULT:      -5.5      2.593      3.758
  Name = 
  2 active torsions:
  status: ('A' for Active; 'I' for Inactive)
    1  A    between atoms: C_11  and  C_28
    2  A    between atoms: C_28  and  C_30
                            x       y       z     vdW  Elec       q    Type
                         _______ _______ _______ _____ _____    ______ ____

>  <TORSDO>
F 2

$$$$
=
 OpenBabel11122410333D

 30 35  0  0  1  0  0  0  0  0999 V2000
  184.4080  176.0070  137.3110 C   0  0  1  0  0  3  0  0  0  0  0  0
  186.4590  174.5030  137.0080 C   0  0  0  0  0  0  0  0  0  0  0  0
  186.8480  178.4540  139.1540 N   0  0  0  0  0  2  0  0  0  0  0  0
  184.0100  177.4660  137.0290 C   0  0  1  0  0  3  0  0  0  0  0  0
  183.6590  175.1340  136.2990 C   0  0  0  0  0  2  0  0  0  0  0  0
  180.5740  176.9220  136.0220 O   0  0  0  0  0  0  0  0  0  0  0  0
  181.9730  178.1490  139.4200 C   0  0  1  0  0  3  0  0  0  0  0  0
  181.7040  176.6390  136.5000 C   0  0  0  0  0  0  0  0  0  0  0  0
  183.3670  177.7470  139.9100 C   0  0  2  0  0  3  0  0  0  0  0  0
  185.7650  178.6520  140.0340 C   0  0  0  0  0  0  0  0  0  0  0  0
  182.1490  175.2120  136.4950 C   0  0  2  0  0  3  0  0  0  0  0  0
  182.5430  177.6610  137.0820 N   0  0  0  0  0  0  0  0  0  0  0  0
  187.8330  174.3380  136.8240 C   0  0  0  0  0  3  0  0  0  0  0  0
  183.2490  177.8410  141.4240 C   0  0  0  0  0  2  0  0  0  0  0  0
  181.4780  179.1830  140.4130 C   0  0  0  0  0  2  0  0  0  0  0  0
  185.6560  173.3680  137.0120 O   0  0  0  0  0  1  0  0  0  0  0  0
  186.3570  178.2530  137.8020 C   0  0  2  0  0  3  0  0  0  0  0  0
  188.6870  175.4360  136.8720 C   0  0  0  0  0  3  0  0  0  0  0  0
  185.9090  175.7970  137.1930 C   0  0  0  0  0  0  0  0  0  0  0  0
  184.8270  178.4780  137.8680 C   0  0  2  0  0  3  0  0  0  0  0  0
  185.9370  178.8640  141.2630 O   0  0  0  0  0  0  0  0  0  0  0  0
  184.4480  178.7090  139.3550 C   0  0  1  0  0  3  0  0  0  0  0  0
  182.1460  178.8430  141.7300 C   0  0  0  0  0  2  0  0  0  0  0  0
  180.6260  179.2190  137.5330 C   0  0  0  0  0  1  0  0  0  0  0  0
  188.1730  176.7010  137.1410 C   0  0  0  0  0  3  0  0  0  0  0  0
  186.7980  176.8920  137.3310 C   0  0  0  0  0  0  0  0  0  0  0  0
  181.9790  178.6770  137.9830 C   0  0  1  0  0  3  0  0  0  0  0  0
  181.7220  174.5320  137.7880 C   0  0  0  0  0  2  0  0  0  0  0  0
  180.0940  173.1110  138.7540 F   0  0  0  0  0  0  0  0  0  0  0  0
  180.4650  173.7120  137.5670 C   0  0  0  0  0  2  0  0  0  0  0  0
  1  5  1  6  0  0  0
  2 16  1  0  0  0  0
  2 19  1  0  0  0  0
  3 10  1  0  0  0  0
  4 12  1  1  0  0  0
  4  1  1  0  0  0  0
  4 20  1  0  0  0  0
  5 11  1  0  0  0  0
  6  8  2  0  0  0  0
  7  9  1  0  0  0  0
  7 15  1  1  0  0  0
  8 12  1  0  0  0  0
  9 14  1  1  0  0  0
 10 21  2  0  0  0  0
 11  8  1  0  0  0  0
 11 28  1  1  0  0  0
 12 27  1  0  0  0  0
 13 18  1  0  0  0  0
 13  2  2  0  0  0  0
 14 23  1  0  0  0  0
 15 23  1  0  0  0  0
 17 26  1  1  0  0  0
 17 20  1  0  0  0  0
 17  3  1  0  0  0  0
 18 25  2  0  0  0  0
 19  1  1  0  0  0  0
 19 26  2  0  0  0  0
 20 22  1  0  0  0  0
 22  9  1  0  0  0  0
 22 10  1  0  0  0  0
 24 27  1  0  0  0  0
 25 26  1  0  0  0  0
 27  7  1  0  0  0  0
 30 28  1  0  0  0  0
 30 29  1  0  0  0  0
M  END
>  <MODEL>
7

>  <REMARK>
 VINA RESULT:      -5.3      1.681      2.276
  Name = 
  2 active torsions:
  status: ('A' for Active; 'I' for Inactive)
    1  A    between atoms: C_11  and  C_28
    2  A    between atoms: C_28  and  C_30
                            x       y       z     vdW  Elec       q    Type
                         _______ _______ _______ _____ _____    ______ ____

>  <TORSDO>
F 2

$$$$
=
 OpenBabel11122410333D

 30 35  0  0  1  0  0  0  0  0999 V2000
  180.6810  179.0100  138.5310 C   0  0  1  0  0  3  0  0  0  0  0  0
  179.4740  180.8940  139.7770 C   0  0  0  0  0  0  0  0  0  0  0  0
  182.8130  178.6250  141.7930 N   0  0  0  0  0  2  0  0  0  0  0  0
  181.0350  177.5310  138.7610 C   0  0  1  0  0  3  0  0  0  0  0  0
  179.5750  179.0470  137.4710 C   0  0  0  0  0  2  0  0  0  0  0  0
  180.5490  176.3090  135.3870 O   0  0  0  0  0  0  0  0  0  0  0  0
  183.8410  177.1970  137.2270 C   0  0  1  0  0  3  0  0  0  0  0  0
  180.6730  177.1570  136.3100 C   0  0  0  0  0  0  0  0  0  0  0  0
  183.8830  178.2460  138.3430 C   0  0  2  0  0  3  0  0  0  0  0  0
  183.8880  178.4240  140.9030 C   0  0  0  0  0  0  0  0  0  0  0  0
  180.0600  178.5080  136.1300 C   0  0  2  0  0  3  0  0  0  0  0  0
  181.4260  176.8520  137.5050 N   0  0  0  0  0  0  0  0  0  0  0  0
  178.9930  181.4600  140.9590 C   0  0  0  0  0  3  0  0  0  0  0  0
  185.3190  178.7470  138.3010 C   0  0  0  0  0  2  0  0  0  0  0  0
  185.2180  176.5620  137.2190 C   0  0  0  0  0  2  0  0  0  0  0  0
  179.2070  181.5480  138.5790 O   0  0  0  0  0  1  0  0  0  0  0  0
  181.5980  178.0560  141.2380 C   0  0  2  0  0  3  0  0  0  0  0  0
  179.2830  180.8780  142.1900 C   0  0  0  0  0  3  0  0  0  0  0  0
  180.2210  179.6880  139.8110 C   0  0  0  0  0  0  0  0  0  0  0  0
  182.0220  177.3320  139.9370 C   0  0  2  0  0  3  0  0  0  0  0  0
  185.0540  178.8160  141.1690 O   0  0  0  0  0  0  0  0  0  0  0  0
  183.5330  177.6120  139.7130 C   0  0  1  0  0  3  0  0  0  0  0  0
  186.1690  177.6330  137.7120 C   0  0  0  0  0  2  0  0  0  0  0  0
  182.7640  175.0340  136.4050 C   0  0  0  0  0  1  0  0  0  0  0  0
  180.0890  179.7450  142.2450 C   0  0  0  0  0  3  0  0  0  0  0  0
  180.5860  179.1590  141.0730 C   0  0  0  0  0  0  0  0  0  0  0  0
  182.7250  176.1670  137.4240 C   0  0  1  0  0  3  0  0  0  0  0  0
  181.0670  179.4500  135.4850 C   0  0  0  0  0  2  0  0  0  0  0  0
  180.9820  181.7570  136.0110 F   0  0  0  0  0  0  0  0  0  0  0  0
  180.4250  180.7930  135.1920 C   0  0  0  0  0  2  0  0  0  0  0  0
  1  5  1  6  0  0  0
  1  4  1  0  0  0  0
  1 19  1  0  0  0  0
  2 19  2  0  0  0  0
  2 13  1  0  0  0  0
  4 12  1  6  0  0  0
  4 20  1  0  0  0  0
  6  8  2  0  0  0  0
  7 15  1  1  0  0  0
  7 27  1  0  0  0  0
  7  9  1  0  0  0  0
  8 12  1  0  0  0  0
  9 14  1  1  0  0  0
  9 22  1  0  0  0  0
 10 21  2  0  0  0  0
 10  3  1  0  0  0  0
 11 28  1  1  0  0  0
 11  8  1  0  0  0  0
 11  5  1  0  0  0  0
 13 18  2  0  0  0  0
 15 23  1  0  0  0  0
 16  2  1  0  0  0  0
 17 26  1  6  0  0  0
 17  3  1  0  0  0  0
 18 25  1  0  0  0  0
 19 26  1  0  0  0  0
 20 17  1  0  0  0  0
 22 20  1  0  0  0  0
 22 10  1  0  0  0  0
 23 14  1  0  0  0  0
 24 27  1  0  0  0  0
 26 25  2  0  0  0  0
 27 12  1  0  0  0  0
 30 28  1  0  0  0  0
 30 29  1  0  0  0  0
M  END
>  <MODEL>
8

>  <REMARK>
 VINA RESULT:      -5.2      2.864      6.024
  Name = 
  2 active torsions:
  status: ('A' for Active; 'I' for Inactive)
    1  A    between atoms: C_11  and  C_28
    2  A    between atoms: C_28  and  C_30
                            x       y       z     vdW  Elec       q    Type
                         _______ _______ _______ _____ _____    ______ ____

>  <TORSDO>
F 2

$$$$
=
 OpenBabel11122410333D

 30 35  0  0  1  0  0  0  0  0999 V2000
  191.3570  173.8420  135.9320 C   0  0  1  0  0  3  0  0  0  0  0  0
  193.1950  172.0680  135.7400 C   0  0  0  0  0  0  0  0  0  0  0  0
  194.1910  176.2010  137.2530 N   0  0  0  0  0  2  0  0  0  0  0  0
  191.1080  175.2850  135.4610 C   0  0  1  0  0  3  0  0  0  0  0  0
  190.4410  172.9360  135.1050 C   0  0  0  0  0  2  0  0  0  0  0  0
  187.5690  175.0350  134.7420 O   0  0  0  0  0  0  0  0  0  0  0  0
  189.3460  176.5430  137.8370 C   0  0  1  0  0  3  0  0  0  0  0  0
  188.6910  174.6840  135.1920 C   0  0  0  0  0  0  0  0  0  0  0  0
  190.7170  176.0440  138.3010 C   0  0  2  0  0  3  0  0  0  0  0  0
  193.2060  176.6530  138.1540 C   0  0  0  0  0  0  0  0  0  0  0  0
  188.9680  173.2270  135.3720 C   0  0  2  0  0  3  0  0  0  0  0  0
  189.6820  175.6660  135.5680 N   0  0  0  0  0  0  0  0  0  0  0  0
  194.5230  171.7100  135.5050 C   0  0  0  0  0  3  0  0  0  0  0  0
  190.7230  176.3630  139.7890 C   0  0  0  0  0  2  0  0  0  0  0  0
  189.0480  177.7590  138.6930 C   0  0  0  0  0  2  0  0  0  0  0  0
  192.2700  171.0530  135.9570 O   0  0  0  0  0  1  0  0  0  0  0  0
  193.5810  175.8760  135.9760 C   0  0  2  0  0  3  0  0  0  0  0  0
  195.4990  172.6900  135.3410 C   0  0  0  0  0  3  0  0  0  0  0  0
  192.8120  173.4340  135.7630 C   0  0  0  0  0  0  0  0  0  0  0  0
  192.0960  176.2960  136.0940 C   0  0  2  0  0  3  0  0  0  0  0  0
  193.4910  177.0120  139.3260 O   0  0  0  0  0  0  0  0  0  0  0  0
  191.8570  176.7780  137.5500 C   0  0  1  0  0  3  0  0  0  0  0  0
  189.7680  177.5260  140.0060 C   0  0  0  0  0  2  0  0  0  0  0  0
  187.9950  177.4970  135.8920 C   0  0  0  0  0  1  0  0  0  0  0  0
  195.1540  174.0340  135.4490 C   0  0  0  0  0  3  0  0  0  0  0  0
  193.8280  174.4180  135.6870 C   0  0  0  0  0  0  0  0  0  0  0  0
  189.3060  176.8600  136.3390 C   0  0  1  0  0  3  0  0  0  0  0  0
  188.5630  172.7930  136.7740 C   0  0  0  0  0  2  0  0  0  0  0  0
  186.3710  173.0290  137.6370 F   0  0  0  0  0  0  0  0  0  0  0  0
  187.1390  172.2680  136.7770 C   0  0  0  0  0  2  0  0  0  0  0  0
  1  5  1  6  0  0  0
  2 19  1  0  0  0  0
  2 16  1  0  0  0  0
  3 10  1  0  0  0  0
  4 12  1  1  0  0  0
  4  1  1  0  0  0  0
  4 20  1  0  0  0  0
  5 11  1  0  0  0  0
  6  8  2  0  0  0  0
  7  9  1  0  0  0  0
  7 15  1  1  0  0  0
  8 11  1  0  0  0  0
  8 12  1  0  0  0  0
  9 14  1  1  0  0  0
 10 21  2  0  0  0  0
 11 28  1  1  0  0  0
 12 27  1  0  0  0  0
 13  2  2  0  0  0  0
 14 23  1  0  0  0  0
 15 23  1  0  0  0  0
 17 26  1  1  0  0  0
 17 20  1  0  0  0  0
 17  3  1  0  0  0  0
 18 25  2  0  0  0  0
 18 13  1  0  0  0  0
 19  1  1  0  0  0  0
 20 22  1  0  0  0  0
 22 10  1  0  0  0  0
 22  9  1  0  0  0  0
 24 27  1  0  0  0  0
 25 26  1  0  0  0  0
 26 19  2  0  0  0  0
 27  7  1  0  0  0  0
 28 30  1  0  0  0  0
 30 29  1  0  0  0  0
M  END
>  <MODEL>
9

>  <REMARK>
 VINA RESULT:      -5.2      6.607      8.940
  Name = 
  2 active torsions:
  status: ('A' for Active; 'I' for Inactive)
    1  A    between atoms: C_11  and  C_28
    2  A    between atoms: C_28  and  C_30
                            x       y       z     vdW  Elec       q    Type
                         _______ _______ _______ _____ _____    ______ ____

>  <TORSDO>
F 2

$$$$
