=
 OpenBabel11122411593D

 28 32  0  0  1  0  0  0  0  0999 V2000
  191.3210  174.5530  137.4840 C   0  0  0  0  0  0  0  0  0  0  0  0
  190.8080  175.7840  140.7820 O   0  0  0  0  0  0  0  0  0  0  0  0
  185.3630  175.9680  136.9710 C   0  0  0  0  0  1  0  0  0  0  0  0
  193.4960  176.2310  136.9500 C   0  0  0  0  0  3  0  0  0  0  0  0
  186.8680  177.8770  137.4910 C   0  0  0  0  0  0  0  0  0  0  0  0
  190.1730  173.7160  137.6310 N   0  0  0  0  0  2  0  0  0  0  0  0
  191.9360  177.9570  140.9150 O   0  0  0  0  0  0  0  0  0  0  0  0
  190.6290  177.2700  140.6380 S   0  0  0  0  0  0  0  0  0  0  0  0
  188.1420  178.0040  141.3020 C   0  0  0  0  0  0  0  0  0  0  0  0
  190.1130  177.6830  139.0200 N   0  0  2  0  0  0  0  0  0  0  0  0
  189.9630  174.5620  134.6170 O   0  0  0  0  0  0  0  0  0  0  0  0
  189.0060  176.9470  137.0240 C   0  0  2  0  0  3  0  0  0  0  0  0
  187.8920  178.0020  139.9350 O   0  0  0  0  0  0  0  0  0  0  0  0
  189.4600  177.8090  141.7780 N   0  0  0  0  0  2  0  0  0  0  0  0
  189.1720  174.2780  135.5020 C   0  0  0  0  0  0  0  0  0  0  0  0
  191.2040  175.9350  137.6980 C   0  0  0  0  0  0  0  0  0  0  0  0
  186.6980  176.6240  137.1200 C   0  0  0  0  0  0  0  0  0  0  0  0
  187.1910  178.1290  142.1160 O   0  0  0  0  0  0  0  0  0  0  0  0
  187.9110  175.0690  135.6370 C   0  0  0  0  0  2  0  0  0  0  0  0
  192.2970  176.7700  137.4180 C   0  0  0  0  0  3  0  0  0  0  0  0
  192.5200  174.0180  136.9980 C   0  0  0  0  0  3  0  0  0  0  0  0
  193.6100  174.8540  136.7420 C   0  0  0  0  0  3  0  0  0  0  0  0
  189.5010  173.1730  136.4590 C   0  0  0  0  0  2  0  0  0  0  0  0
  188.3210  178.2240  137.5340 C   0  0  2  0  0  3  0  0  0  0  0  0
  187.9230  175.9860  136.7790 N   0  0  0  0  0  0  0  0  0  0  0  0
  188.8550  178.4350  138.9610 C   0  0  2  0  0  3  0  0  0  0  0  0
  185.7690  178.8260  137.8340 C   0  0  0  0  0  1  0  0  0  0  0  0
  189.8960  176.5050  138.1860 C   0  0  1  0  0  3  0  0  0  0  0  0
  1  6  1  0  0  0  0
  1 16  1  0  0  0  0
  3 17  1  0  0  0  0
  4 20  1  0  0  0  0
  5 27  1  0  0  0  0
  8  2  2  0  0  0  0
  8  7  2  0  0  0  0
  8 14  1  0  0  0  0
  9 14  1  0  0  0  0
  9 18  2  0  0  0  0
 10  8  1  1  0  0  0
 11 15  2  0  0  0  0
 12 25  1  1  0  0  0
 12 24  1  0  0  0  0
 12 28  1  0  0  0  0
 13  9  1  0  0  0  0
 15 19  1  0  0  0  0
 15 23  1  0  0  0  0
 17  5  2  0  0  0  0
 19 25  1  0  0  0  0
 20 16  2  0  0  0  0
 21  1  2  0  0  0  0
 22  4  2  0  0  0  0
 22 21  1  0  0  0  0
 23  6  1  0  0  0  0
 24  5  1  1  0  0  0
 24 26  1  0  0  0  0
 25 17  1  0  0  0  0
 26 10  1  0  0  0  0
 26 13  1  1  0  0  0
 28 16  1  6  0  0  0
 28 10  1  0  0  0  0
M  END
>  <MODEL>
1

>  <REMARK>
 VINA RESULT:      -6.5      0.000      0.000
  Name = 
  0 active torsions:
  status: ('A' for Active; 'I' for Inactive)
                            x       y       z     vdW  Elec       q    Type
                         _______ _______ _______ _____ _____    ______ ____

>  <TORSDO>
F 0

$$$$
=
 OpenBabel11122411593D

 28 32  0  0  1  0  0  0  0  0999 V2000
  187.1980  175.4980  136.5100 C   0  0  0  0  0  0  0  0  0  0  0  0
  188.4370  176.8690  139.5500 O   0  0  0  0  0  0  0  0  0  0  0  0
  181.8750  175.7920  139.5660 C   0  0  0  0  0  1  0  0  0  0  0  0
  188.3150  177.4890  134.8900 C   0  0  0  0  0  3  0  0  0  0  0  0
  183.0140  177.9710  139.2030 C   0  0  0  0  0  0  0  0  0  0  0  0
  186.5220  174.4850  137.2560 N   0  0  0  0  0  2  0  0  0  0  0  0
  189.0030  179.2110  139.0970 O   0  0  0  0  0  0  0  0  0  0  0  0
  187.9300  178.2850  139.5930 S   0  0  0  0  0  0  0  0  0  0  0  0
  186.1820  178.6150  141.5940 C   0  0  0  0  0  0  0  0  0  0  0  0
  186.5170  178.4740  138.5830 N   0  0  2  0  0  0  0  0  0  0  0  0
  184.4760  175.0460  134.9440 O   0  0  0  0  0  0  0  0  0  0  0  0
  184.6330  177.4020  137.5570 C   0  0  2  0  0  3  0  0  0  0  0  0
  185.2030  178.4630  140.6190 O   0  0  0  0  0  0  0  0  0  0  0  0
  187.5440  178.6930  141.2180 N   0  0  0  0  0  2  0  0  0  0  0  0
  184.4020  174.6960  136.1110 C   0  0  0  0  0  0  0  0  0  0  0  0
  186.9650  176.8500  136.8070 C   0  0  0  0  0  0  0  0  0  0  0  0
  182.9030  176.6830  138.9480 C   0  0  0  0  0  0  0  0  0  0  0  0
  185.8620  178.6310  142.8100 O   0  0  0  0  0  0  0  0  0  0  0  0
  183.3220  175.2590  136.9770 C   0  0  0  0  0  2  0  0  0  0  0  0
  187.5210  177.8420  135.9830 C   0  0  0  0  0  3  0  0  0  0  0  0
  187.9810  175.1490  135.4030 C   0  0  0  0  0  3  0  0  0  0  0  0
  188.5480  176.1430  134.6010 C   0  0  0  0  0  3  0  0  0  0  0  0
  185.4190  173.7430  136.6620 C   0  0  0  0  0  2  0  0  0  0  0  0
  184.1350  178.5730  138.4170 C   0  0  2  0  0  3  0  0  0  0  0  0
  183.8090  176.2480  137.9400 N   0  0  0  0  0  0  0  0  0  0  0  0
  185.3350  178.9840  139.2870 C   0  0  2  0  0  3  0  0  0  0  0  0
  182.1520  178.7340  140.1520 C   0  0  0  0  0  1  0  0  0  0  0  0
  186.0900  177.2150  137.9790 C   0  0  1  0  0  3  0  0  0  0  0  0
  1 16  1  0  0  0  0
  1  6  1  0  0  0  0
  2  8  2  0  0  0  0
  4 20  1  0  0  0  0
  5 27  1  0  0  0  0
  7  8  2  0  0  0  0
  8 14  1  0  0  0  0
  9 18  2  0  0  0  0
 10 26  1  0  0  0  0
 10  8  1  1  0  0  0
 11 15  2  0  0  0  0
 12 25  1  1  0  0  0
 12 28  1  0  0  0  0
 12 24  1  0  0  0  0
 13  9  1  0  0  0  0
 14  9  1  0  0  0  0
 15 23  1  0  0  0  0
 15 19  1  0  0  0  0
 17  5  2  0  0  0  0
 17  3  1  0  0  0  0
 19 25  1  0  0  0  0
 20 16  2  0  0  0  0
 21  1  2  0  0  0  0
 22  4  2  0  0  0  0
 22 21  1  0  0  0  0
 23  6  1  0  0  0  0
 24  5  1  1  0  0  0
 24 26  1  0  0  0  0
 25 17  1  0  0  0  0
 26 13  1  1  0  0  0
 28 16  1  6  0  0  0
 28 10  1  0  0  0  0
M  END
>  <MODEL>
2

>  <REMARK>
 VINA RESULT:      -6.1      3.224      4.152
  Name = 
  0 active torsions:
  status: ('A' for Active; 'I' for Inactive)
                            x       y       z     vdW  Elec       q    Type
                         _______ _______ _______ _____ _____    ______ ____

>  <TORSDO>
F 0

$$$$
=
 OpenBabel11122411593D

 28 32  0  0  1  0  0  0  0  0999 V2000
  190.7690  178.2070  142.2900 C   0  0  0  0  0  0  0  0  0  0  0  0
  187.8300  179.9970  141.3890 O   0  0  0  0  0  0  0  0  0  0  0  0
  188.1000  178.3430  147.8240 C   0  0  0  0  0  1  0  0  0  0  0  0
  190.4510  176.2420  140.3220 C   0  0  0  0  0  3  0  0  0  0  0  0
  186.8100  177.1730  146.0500 C   0  0  0  0  0  0  0  0  0  0  0  0
  190.9730  179.1120  143.3750 N   0  0  0  0  0  2  0  0  0  0  0  0
  186.4320  178.4620  140.0830 O   0  0  0  0  0  0  0  0  0  0  0  0
  186.7070  178.9970  141.4600 S   0  0  0  0  0  0  0  0  0  0  0  0
  184.9960  179.6150  143.4220 C   0  0  0  0  0  0  0  0  0  0  0  0
  187.1250  177.6610  142.5050 N   0  0  2  0  0  0  0  0  0  0  0  0
  191.9280  176.3970  144.6240 O   0  0  0  0  0  0  0  0  0  0  0  0
  188.4540  176.9070  144.3530 C   0  0  2  0  0  3  0  0  0  0  0  0
  185.6780  178.6630  144.1700 O   0  0  0  0  0  0  0  0  0  0  0  0
  185.2940  179.7790  142.0490 N   0  0  0  0  0  2  0  0  0  0  0  0
  191.4080  177.4180  145.0450 C   0  0  0  0  0  0  0  0  0  0  0  0
  189.5480  177.5240  142.1780 C   0  0  0  0  0  0  0  0  0  0  0  0
  187.9290  177.7260  146.4730 C   0  0  0  0  0  0  0  0  0  0  0  0
  184.1510  180.3640  143.9770 O   0  0  0  0  0  0  0  0  0  0  0  0
  190.3300  177.3190  146.0740 C   0  0  0  0  0  2  0  0  0  0  0  0
  189.4010  176.5320  141.1940 C   0  0  0  0  0  3  0  0  0  0  0  0
  191.8250  177.9000  141.4240 C   0  0  0  0  0  3  0  0  0  0  0  0
  191.6630  176.9270  140.4350 C   0  0  0  0  0  3  0  0  0  0  0  0
  191.8320  178.7450  144.4910 C   0  0  0  0  0  2  0  0  0  0  0  0
  186.9730  176.6430  144.6620 C   0  0  2  0  0  3  0  0  0  0  0  0
  188.9930  177.5860  145.5390 N   0  0  0  0  0  0  0  0  0  0  0  0
  186.1850  177.4410  143.6090 C   0  0  2  0  0  3  0  0  0  0  0  0
  185.5440  177.0890  146.8360 C   0  0  0  0  0  1  0  0  0  0  0  0
  188.4290  177.8350  143.1390 C   0  0  1  0  0  3  0  0  0  0  0  0
  1  6  1  0  0  0  0
  2  8  2  0  0  0  0
  4 22  2  0  0  0  0
  4 20  1  0  0  0  0
  5 17  2  0  0  0  0
  5 27  1  0  0  0  0
  6 23  1  0  0  0  0
  7  8  2  0  0  0  0
  8 14  1  0  0  0  0
  9 18  2  0  0  0  0
  9 13  1  0  0  0  0
 10  8  1  1  0  0  0
 10 28  1  0  0  0  0
 10 26  1  0  0  0  0
 11 15  2  0  0  0  0
 12 24  1  0  0  0  0
 12 25  1  1  0  0  0
 14  9  1  0  0  0  0
 15 19  1  0  0  0  0
 16  1  1  0  0  0  0
 17  3  1  0  0  0  0
 20 16  2  0  0  0  0
 21  1  2  0  0  0  0
 22 21  1  0  0  0  0
 23 15  1  0  0  0  0
 24  5  1  1  0  0  0
 25 19  1  0  0  0  0
 25 17  1  0  0  0  0
 26 13  1  1  0  0  0
 26 24  1  0  0  0  0
 28 16  1  6  0  0  0
 28 12  1  0  0  0  0
M  END
>  <MODEL>
3

>  <REMARK>
 VINA RESULT:      -5.7      4.452      7.230
  Name = 
  0 active torsions:
  status: ('A' for Active; 'I' for Inactive)
                            x       y       z     vdW  Elec       q    Type
                         _______ _______ _______ _____ _____    ______ ____

>  <TORSDO>
F 0

$$$$
=
 OpenBabel11122411593D

 28 32  0  0  1  0  0  0  0  0999 V2000
  182.6000  176.8440  138.2150 C   0  0  0  0  0  0  0  0  0  0  0  0
  184.5310  174.1190  136.9910 O   0  0  0  0  0  0  0  0  0  0  0  0
  187.9730  178.3590  140.7860 C   0  0  0  0  0  1  0  0  0  0  0  0
  181.6700  177.6180  135.6910 C   0  0  0  0  0  3  0  0  0  0  0  0
  187.9710  178.2650  138.3010 C   0  0  0  0  0  0  0  0  0  0  0  0
  183.0840  176.5800  139.5330 N   0  0  0  0  0  2  0  0  0  0  0  0
  184.8770  174.5100  134.5950 O   0  0  0  0  0  0  0  0  0  0  0  0
  185.4610  174.7090  135.9650 S   0  0  0  0  0  0  0  0  0  0  0  0
  188.0070  174.5470  136.7740 C   0  0  0  0  0  0  0  0  0  0  0  0
  185.6850  176.4200  136.2340 N   0  0  2  0  0  0  0  0  0  0  0  0
  182.9480  179.7140  139.5230 O   0  0  0  0  0  0  0  0  0  0  0  0
  185.6430  178.2180  137.8210 C   0  0  2  0  0  3  0  0  0  0  0  0
  187.8540  175.8720  137.1630 O   0  0  0  0  0  0  0  0  0  0  0  0
  186.9760  173.9020  136.0500 N   0  0  0  0  0  2  0  0  0  0  0  0
  183.6430  178.8710  140.0660 C   0  0  0  0  0  0  0  0  0  0  0  0
  183.5140  177.0560  137.1710 C   0  0  0  0  0  0  0  0  0  0  0  0
  187.3170  178.2700  139.4450 C   0  0  0  0  0  0  0  0  0  0  0  0
  189.0380  173.9070  137.1070 O   0  0  0  0  0  0  0  0  0  0  0  0
  185.1150  179.1030  140.1850 C   0  0  0  0  0  2  0  0  0  0  0  0
  183.0400  177.4530  135.9110 C   0  0  0  0  0  3  0  0  0  0  0  0
  181.2300  177.0270  137.9950 C   0  0  0  0  0  3  0  0  0  0  0  0
  180.7650  177.4020  136.7320 C   0  0  0  0  0  3  0  0  0  0  0  0
  183.0150  177.6050  140.5640 C   0  0  0  0  0  2  0  0  0  0  0  0
  187.0240  178.1760  137.1490 C   0  0  2  0  0  3  0  0  0  0  0  0
  185.9060  178.2820  139.2650 N   0  0  0  0  0  0  0  0  0  0  0  0
  187.0830  176.8250  136.4150 C   0  0  2  0  0  3  0  0  0  0  0  0
  189.4560  178.3290  138.1630 C   0  0  0  0  0  1  0  0  0  0  0  0
  184.9900  176.8930  137.4280 C   0  0  1  0  0  3  0  0  0  0  0  0
  1  6  1  0  0  0  0
  4 20  2  0  0  0  0
  4 22  1  0  0  0  0
  5 17  2  0  0  0  0
  6 23  1  0  0  0  0
  7  8  2  0  0  0  0
  8 14  1  0  0  0  0
  8  2  2  0  0  0  0
  9 18  2  0  0  0  0
  9 13  1  0  0  0  0
 10  8  1  1  0  0  0
 10 26  1  0  0  0  0
 10 28  1  0  0  0  0
 11 15  2  0  0  0  0
 12 25  1  1  0  0  0
 14  9  1  0  0  0  0
 15 19  1  0  0  0  0
 15 23  1  0  0  0  0
 16  1  2  0  0  0  0
 17  3  1  0  0  0  0
 20 16  1  0  0  0  0
 21  1  1  0  0  0  0
 22 21  2  0  0  0  0
 24 12  1  0  0  0  0
 24  5  1  1  0  0  0
 25 17  1  0  0  0  0
 25 19  1  0  0  0  0
 26 24  1  0  0  0  0
 26 13  1  1  0  0  0
 27  5  1  0  0  0  0
 28 16  1  6  0  0  0
 28 12  1  0  0  0  0
M  END
>  <MODEL>
4

>  <REMARK>
 VINA RESULT:      -5.6      3.514      7.435
  Name = 
  0 active torsions:
  status: ('A' for Active; 'I' for Inactive)
                            x       y       z     vdW  Elec       q    Type
                         _______ _______ _______ _____ _____    ______ ____

>  <TORSDO>
F 0

$$$$
=
 OpenBabel11122411593D

 28 32  0  0  1  0  0  0  0  0999 V2000
  181.9520  178.3160  140.1460 C   0  0  0  0  0  0  0  0  0  0  0  0
  180.6890  175.0340  139.6100 O   0  0  0  0  0  0  0  0  0  0  0  0
  186.7850  176.0030  137.1380 C   0  0  0  0  0  1  0  0  0  0  0  0
  179.7330  179.6010  139.0220 C   0  0  0  0  0  3  0  0  0  0  0  0
  184.6510  176.0290  135.8620 C   0  0  0  0  0  0  0  0  0  0  0  0
  183.1590  177.7540  140.6620 N   0  0  0  0  0  2  0  0  0  0  0  0
  178.9420  175.2130  137.8980 O   0  0  0  0  0  0  0  0  0  0  0  0
  180.4010  174.9460  138.1350 S   0  0  0  0  0  0  0  0  0  0  0  0
  182.0270  173.1830  136.9460 C   0  0  0  0  0  0  0  0  0  0  0  0
  181.3370  176.1210  137.2440 N   0  0  2  0  0  0  0  0  0  0  0  0
  184.2340  180.2700  139.1280 O   0  0  0  0  0  0  0  0  0  0  0  0
  183.3130  177.4780  137.1880 C   0  0  2  0  0  3  0  0  0  0  0  0
  182.7760  174.2920  136.5710 O   0  0  0  0  0  0  0  0  0  0  0  0
  180.7760  173.3610  137.5830 N   0  0  0  0  0  2  0  0  0  0  0  0
  184.6610  179.1560  139.3870 C   0  0  0  0  0  0  0  0  0  0  0  0
  181.5050  177.9450  138.8690 C   0  0  0  0  0  0  0  0  0  0  0  0
  185.3620  176.4000  136.9070 C   0  0  0  0  0  0  0  0  0  0  0  0
  182.4820  172.0240  136.7650 O   0  0  0  0  0  0  0  0  0  0  0  0
  185.4230  178.4040  138.3460 C   0  0  0  0  0  2  0  0  0  0  0  0
  180.3980  178.6020  138.3080 C   0  0  0  0  0  3  0  0  0  0  0  0
  181.2930  179.3300  140.8520 C   0  0  0  0  0  3  0  0  0  0  0  0
  180.1790  179.9630  140.2950 C   0  0  0  0  0  3  0  0  0  0  0  0
  184.3750  178.5510  140.7280 C   0  0  0  0  0  2  0  0  0  0  0  0
  183.2730  176.6020  135.9280 C   0  0  2  0  0  3  0  0  0  0  0  0
  184.6600  177.3060  137.7500 N   0  0  0  0  0  0  0  0  0  0  0  0
  182.1870  175.5460  136.1950 C   0  0  2  0  0  3  0  0  0  0  0  0
  185.1410  175.1480  134.7620 C   0  0  0  0  0  1  0  0  0  0  0  0
  182.2440  176.8780  138.1020 C   0  0  1  0  0  3  0  0  0  0  0  0
  1  6  1  0  0  0  0
  1 21  1  0  0  0  0
  4 22  1  0  0  0  0
  5 17  2  0  0  0  0
  6 23  1  0  0  0  0
  7  8  2  0  0  0  0
  8  2  2  0  0  0  0
  9 14  1  0  0  0  0
 10 28  1  0  0  0  0
 10  8  1  1  0  0  0
 11 15  2  0  0  0  0
 12 25  1  1  0  0  0
 12 28  1  0  0  0  0
 13  9  1  0  0  0  0
 14  8  1  0  0  0  0
 15 23  1  0  0  0  0
 16  1  2  0  0  0  0
 17  3  1  0  0  0  0
 17 25  1  0  0  0  0
 18  9  2  0  0  0  0
 19 15  1  0  0  0  0
 20 16  1  0  0  0  0
 20  4  2  0  0  0  0
 22 21  2  0  0  0  0
 24  5  1  1  0  0  0
 24 26  1  0  0  0  0
 24 12  1  0  0  0  0
 25 19  1  0  0  0  0
 26 13  1  1  0  0  0
 26 10  1  0  0  0  0
 27  5  1  0  0  0  0
 28 16  1  6  0  0  0
M  END
>  <MODEL>
5

>  <REMARK>
 VINA RESULT:      -5.5      5.388      9.102
  Name = 
  0 active torsions:
  status: ('A' for Active; 'I' for Inactive)
                            x       y       z     vdW  Elec       q    Type
                         _______ _______ _______ _____ _____    ______ ____

>  <TORSDO>
F 0

$$$$
=
 OpenBabel11122411593D

 28 32  0  0  1  0  0  0  0  0999 V2000
  188.6320  174.8520  136.6840 C   0  0  0  0  0  0  0  0  0  0  0  0
  188.7540  176.9490  139.5550 O   0  0  0  0  0  0  0  0  0  0  0  0
  182.6440  174.7890  138.0660 C   0  0  0  0  0  1  0  0  0  0  0  0
  189.9500  176.6720  135.0160 C   0  0  0  0  0  3  0  0  0  0  0  0
  183.5910  177.0270  137.5380 C   0  0  0  0  0  0  0  0  0  0  0  0
  187.8820  173.8930  137.4310 N   0  0  0  0  0  2  0  0  0  0  0  0
  189.1650  179.2300  138.7550 O   0  0  0  0  0  0  0  0  0  0  0  0
  188.1030  178.2410  139.1430 S   0  0  0  0  0  0  0  0  0  0  0  0
  185.8160  178.6300  140.4780 C   0  0  0  0  0  0  0  0  0  0  0  0
  187.0410  177.9980  137.7770 N   0  0  2  0  0  0  0  0  0  0  0  0
  186.5630  173.6620  134.5940 O   0  0  0  0  0  0  0  0  0  0  0  0
  185.6760  176.4500  136.5550 C   0  0  2  0  0  3  0  0  0  0  0  0
  185.1930  178.1370  139.3380 O   0  0  0  0  0  0  0  0  0  0  0  0
  187.2100  178.8700  140.4710 N   0  0  0  0  0  2  0  0  0  0  0  0
  186.1860  173.5250  135.7470 C   0  0  0  0  0  0  0  0  0  0  0  0
  188.1730  176.1750  136.5970 C   0  0  0  0  0  0  0  0  0  0  0  0
  183.7040  175.7140  137.5600 C   0  0  0  0  0  0  0  0  0  0  0  0
  185.1510  178.8150  141.5290 O   0  0  0  0  0  0  0  0  0  0  0  0
  184.8430  174.0440  136.1440 C   0  0  0  0  0  2  0  0  0  0  0  0
  188.8340  177.0790  135.7490 C   0  0  0  0  0  3  0  0  0  0  0  0
  189.7410  174.4440  135.9340 C   0  0  0  0  0  3  0  0  0  0  0  0
  190.4060  175.3550  135.1100 C   0  0  0  0  0  3  0  0  0  0  0  0
  187.0940  172.8780  136.7480 C   0  0  0  0  0  2  0  0  0  0  0  0
  184.8190  177.6560  136.9650 C   0  0  2  0  0  3  0  0  0  0  0  0
  184.9100  175.2620  136.9540 N   0  0  0  0  0  0  0  0  0  0  0  0
  185.6550  178.4190  138.0070 C   0  0  2  0  0  3  0  0  0  0  0  0
  182.4070  177.7930  138.0270 C   0  0  0  0  0  1  0  0  0  0  0  0
  186.9550  176.5950  137.3800 C   0  0  1  0  0  3  0  0  0  0  0  0
  1  6  1  0  0  0  0
  4 22  2  0  0  0  0
  4 20  1  0  0  0  0
  5 17  2  0  0  0  0
  5 27  1  0  0  0  0
  7  8  2  0  0  0  0
  8  2  2  0  0  0  0
  8 14  1  0  0  0  0
  9 18  2  0  0  0  0
 10 26  1  0  0  0  0
 10  8  1  1  0  0  0
 11 15  2  0  0  0  0
 12 25  1  1  0  0  0
 12 24  1  0  0  0  0
 12 28  1  0  0  0  0
 13  9  1  0  0  0  0
 14  9  1  0  0  0  0
 15 19  1  0  0  0  0
 15 23  1  0  0  0  0
 16  1  1  0  0  0  0
 17  3  1  0  0  0  0
 19 25  1  0  0  0  0
 20 16  2  0  0  0  0
 21  1  2  0  0  0  0
 22 21  1  0  0  0  0
 23  6  1  0  0  0  0
 24  5  1  1  0  0  0
 24 26  1  0  0  0  0
 25 17  1  0  0  0  0
 26 13  1  1  0  0  0
 28 16  1  6  0  0  0
 28 10  1  0  0  0  0
M  END
>  <MODEL>
6

>  <REMARK>
 VINA RESULT:      -5.4      2.475      3.179
  Name = 
  0 active torsions:
  status: ('A' for Active; 'I' for Inactive)
                            x       y       z     vdW  Elec       q    Type
                         _______ _______ _______ _____ _____    ______ ____

>  <TORSDO>
F 0

$$$$
=
 OpenBabel11122411593D

 28 32  0  0  1  0  0  0  0  0999 V2000
  186.8500  177.0530  135.7280 C   0  0  0  0  0  0  0  0  0  0  0  0
  188.7710  174.2240  134.7480 O   0  0  0  0  0  0  0  0  0  0  0  0
  182.2360  173.0430  135.0940 C   0  0  0  0  0  1  0  0  0  0  0  0
  188.3370  177.5460  138.0480 C   0  0  0  0  0  3  0  0  0  0  0  0
  183.9390  172.4430  136.8030 C   0  0  0  0  0  0  0  0  0  0  0  0
  185.9820  176.8350  134.6150 N   0  0  0  0  0  2  0  0  0  0  0  0
  189.9710  173.4520  136.7420 O   0  0  0  0  0  0  0  0  0  0  0  0
  188.7280  173.2780  135.9180 S   0  0  0  0  0  0  0  0  0  0  0  0
  187.3930  171.0440  135.2940 C   0  0  0  0  0  0  0  0  0  0  0  0
  187.3390  173.5970  136.9280 N   0  0  2  0  0  0  0  0  0  0  0  0
  183.9650  177.8120  136.8100 O   0  0  0  0  0  0  0  0  0  0  0  0
  185.1170  174.4930  137.0510 C   0  0  2  0  0  3  0  0  0  0  0  0
  186.3140  171.6370  135.9390 O   0  0  0  0  0  0  0  0  0  0  0  0
  188.6640  171.6630  135.3320 N   0  0  0  0  0  2  0  0  0  0  0  0
  183.9160  177.0590  135.8510 C   0  0  0  0  0  0  0  0  0  0  0  0
  187.0740  176.0150  136.6460 C   0  0  0  0  0  0  0  0  0  0  0  0
  183.4140  173.3210  135.9720 C   0  0  0  0  0  0  0  0  0  0  0  0
  187.2280  169.9850  134.6350 O   0  0  0  0  0  0  0  0  0  0  0  0
  183.1600  175.7750  135.9680 C   0  0  0  0  0  2  0  0  0  0  0  0
  187.8120  176.2740  137.8120 C   0  0  0  0  0  3  0  0  0  0  0  0
  187.3630  178.3320  135.9770 C   0  0  0  0  0  3  0  0  0  0  0  0
  188.1150  178.5750  137.1290 C   0  0  0  0  0  3  0  0  0  0  0  0
  184.6480  177.4160  134.5940 C   0  0  0  0  0  2  0  0  0  0  0  0
  185.0970  173.0370  137.5380 C   0  0  2  0  0  3  0  0  0  0  0  0
  184.0280  174.6000  136.0720 N   0  0  0  0  0  0  0  0  0  0  0  0
  186.4530  172.4430  137.1190 C   0  0  2  0  0  3  0  0  0  0  0  0
  183.4590  171.0420  136.9850 C   0  0  0  0  0  1  0  0  0  0  0  0
  186.4850  174.6510  136.3870 C   0  0  1  0  0  3  0  0  0  0  0  0
  1 21  2  0  0  0  0
  1 16  1  0  0  0  0
  2  8  2  0  0  0  0
  3 17  1  0  0  0  0
  5 27  1  0  0  0  0
  6  1  1  0  0  0  0
  8  7  2  0  0  0  0
  9 14  1  0  0  0  0
  9 13  1  0  0  0  0
 10  8  1  6  0  0  0
 10 26  1  0  0  0  0
 12 25  1  6  0  0  0
 12 24  1  0  0  0  0
 14  8  1  0  0  0  0
 15 19  1  0  0  0  0
 15 11  2  0  0  0  0
 16 20  2  0  0  0  0
 17 25  1  0  0  0  0
 17  5  2  0  0  0  0
 18  9  2  0  0  0  0
 19 25  1  0  0  0  0
 20  4  1  0  0  0  0
 21 22  1  0  0  0  0
 22  4  2  0  0  0  0
 23  6  1  0  0  0  0
 23 15  1  0  0  0  0
 24  5  1  6  0  0  0
 26 13  1  6  0  0  0
 26 24  1  0  0  0  0
 28 16  1  1  0  0  0
 28 10  1  0  0  0  0
 28 12  1  0  0  0  0
M  END
>  <MODEL>
7

>  <REMARK>
 VINA RESULT:      -5.0      4.001      6.465
  Name = 
  0 active torsions:
  status: ('A' for Active; 'I' for Inactive)
                            x       y       z     vdW  Elec       q    Type
                         _______ _______ _______ _____ _____    ______ ____

>  <TORSDO>
F 0

$$$$
=
 OpenBabel11122411593D

 28 32  0  0  1  0  0  0  0  0999 V2000
  182.5610  177.5280  138.6940 C   0  0  0  0  0  0  0  0  0  0  0  0
  182.9420  174.2640  137.3310 O   0  0  0  0  0  0  0  0  0  0  0  0
  188.6800  177.1280  139.0880 C   0  0  0  0  0  1  0  0  0  0  0  0
  181.0790  178.5070  136.5310 C   0  0  0  0  0  3  0  0  0  0  0  0
  187.7500  176.9700  136.7880 C   0  0  0  0  0  0  0  0  0  0  0  0
  183.3770  177.1470  139.8030 N   0  0  0  0  0  2  0  0  0  0  0  0
  182.5020  174.4400  134.9260 O   0  0  0  0  0  0  0  0  0  0  0  0
  183.5730  174.4600  135.9790 S   0  0  0  0  0  0  0  0  0  0  0  0
  186.0450  173.4350  135.9190 C   0  0  0  0  0  0  0  0  0  0  0  0
  184.4110  175.9900  135.8960 N   0  0  2  0  0  0  0  0  0  0  0  0
  184.2520  180.1270  139.3630 O   0  0  0  0  0  0  0  0  0  0  0  0
  185.5220  177.7320  137.1150 C   0  0  2  0  0  3  0  0  0  0  0  0
  186.4740  174.7400  136.1300 O   0  0  0  0  0  0  0  0  0  0  0  0
  184.6750  173.1740  135.6820 N   0  0  0  0  0  2  0  0  0  0  0  0
  184.7900  179.1090  139.7670 C   0  0  0  0  0  0  0  0  0  0  0  0
  183.0510  177.3750  137.3880 C   0  0  0  0  0  0  0  0  0  0  0  0
  187.5930  177.2380  138.0690 C   0  0  0  0  0  0  0  0  0  0  0  0
  186.8650  172.4830  135.9870 O   0  0  0  0  0  0  0  0  0  0  0  0
  186.1960  178.8120  139.3570 C   0  0  0  0  0  2  0  0  0  0  0  0
  182.3060  177.8780  136.3100 C   0  0  0  0  0  3  0  0  0  0  0  0
  181.3380  178.1740  138.9130 C   0  0  0  0  0  3  0  0  0  0  0  0
  180.5940  178.6530  137.8320 C   0  0  0  0  0  3  0  0  0  0  0  0
  184.0170  178.1600  140.6300 C   0  0  0  0  0  2  0  0  0  0  0  0
  186.4750  177.1880  136.0400 C   0  0  2  0  0  3  0  0  0  0  0  0
  186.2950  177.7400  138.3640 N   0  0  0  0  0  0  0  0  0  0  0  0
  185.8310  175.8820  135.5430 C   0  0  2  0  0  3  0  0  0  0  0  0
  189.0210  176.5040  136.1600 C   0  0  0  0  0  1  0  0  0  0  0  0
  184.3860  176.7100  137.1660 C   0  0  1  0  0  3  0  0  0  0  0  0
  1 21  1  0  0  0  0
  1  6  1  0  0  0  0
  4 22  1  0  0  0  0
  5 17  2  0  0  0  0
  6 23  1  0  0  0  0
  7  8  2  0  0  0  0
  8  2  2  0  0  0  0
  9 18  2  0  0  0  0
  9 13  1  0  0  0  0
 10  8  1  1  0  0  0
 10 28  1  0  0  0  0
 11 15  2  0  0  0  0
 12 28  1  0  0  0  0
 12 25  1  1  0  0  0
 14  9  1  0  0  0  0
 14  8  1  0  0  0  0
 15 23  1  0  0  0  0
 16  1  2  0  0  0  0
 17 25  1  0  0  0  0
 17  3  1  0  0  0  0
 19 15  1  0  0  0  0
 20  4  2  0  0  0  0
 20 16  1  0  0  0  0
 22 21  2  0  0  0  0
 24  5  1  1  0  0  0
 24 12  1  0  0  0  0
 25 19  1  0  0  0  0
 26 10  1  0  0  0  0
 26 24  1  0  0  0  0
 26 13  1  1  0  0  0
 27  5  1  0  0  0  0
 28 16  1  6  0  0  0
M  END
>  <MODEL>
8

>  <REMARK>
 VINA RESULT:      -4.9      3.998      7.923
  Name = 
  0 active torsions:
  status: ('A' for Active; 'I' for Inactive)
                            x       y       z     vdW  Elec       q    Type
                         _______ _______ _______ _____ _____    ______ ____

>  <TORSDO>
F 0

$$$$
=
 OpenBabel11122411593D

 28 32  0  0  1  0  0  0  0  0999 V2000
  181.1930  179.1770  141.0210 C   0  0  0  0  0  0  0  0  0  0  0  0
  184.0610  180.0180  139.0930 O   0  0  0  0  0  0  0  0  0  0  0  0
  180.1210  175.4990  136.2160 C   0  0  0  0  0  1  0  0  0  0  0  0
  182.6460  178.5440  143.3280 C   0  0  0  0  0  3  0  0  0  0  0  0
  182.2310  175.0490  137.4500 C   0  0  0  0  0  0  0  0  0  0  0  0
  180.3710  179.3980  139.8740 N   0  0  0  0  0  2  0  0  0  0  0  0
  185.9940  179.0030  140.2100 O   0  0  0  0  0  0  0  0  0  0  0  0
  184.9540  178.8080  139.1440 S   0  0  0  0  0  0  0  0  0  0  0  0
  185.1810  177.6820  136.7260 C   0  0  0  0  0  0  0  0  0  0  0  0
  184.0360  177.3690  139.5160 N   0  0  2  0  0  0  0  0  0  0  0  0
  178.9310  176.9620  141.2280 O   0  0  0  0  0  0  0  0  0  0  0  0
  181.8950  176.2890  139.4510 C   0  0  2  0  0  3  0  0  0  0  0  0
  184.2130  176.7890  137.1700 O   0  0  0  0  0  0  0  0  0  0  0  0
  185.7370  178.6230  137.6250 N   0  0  0  0  0  2  0  0  0  0  0  0
  179.0830  177.3620  140.0860 C   0  0  0  0  0  0  0  0  0  0  0  0
  182.2650  178.2750  140.9430 C   0  0  0  0  0  0  0  0  0  0  0  0
  181.0640  175.6540  137.3660 C   0  0  0  0  0  0  0  0  0  0  0  0
  185.5250  177.6880  135.5160 O   0  0  0  0  0  0  0  0  0  0  0  0
  179.3590  176.3780  138.9960 C   0  0  0  0  0  2  0  0  0  0  0  0
  182.9820  177.9550  142.1070 C   0  0  0  0  0  3  0  0  0  0  0  0
  180.8490  179.7520  142.2510 C   0  0  0  0  0  3  0  0  0  0  0  0
  181.5810  179.4440  143.4000 C   0  0  0  0  0  3  0  0  0  0  0  0
  179.0310  178.8340  139.8060 C   0  0  0  0  0  2  0  0  0  0  0  0
  182.9220  175.4070  138.7260 C   0  0  2  0  0  3  0  0  0  0  0  0
  180.7490  176.3960  138.5380 N   0  0  0  0  0  0  0  0  0  0  0  0
  184.1580  176.2990  138.5190 C   0  0  2  0  0  3  0  0  0  0  0  0
  182.8010  174.1370  136.4160 C   0  0  0  0  0  1  0  0  0  0  0  0
  182.6040  177.6330  139.6220 C   0  0  1  0  0  3  0  0  0  0  0  0
  1 21  1  0  0  0  0
  2  8  2  0  0  0  0
  3 17  1  0  0  0  0
  4 22  1  0  0  0  0
  6  1  1  0  0  0  0
  8  7  2  0  0  0  0
  9 13  1  0  0  0  0
  9 14  1  0  0  0  0
 10  8  1  6  0  0  0
 10 28  1  0  0  0  0
 12 25  1  6  0  0  0
 12 28  1  0  0  0  0
 14  8  1  0  0  0  0
 15 11  2  0  0  0  0
 16  1  2  0  0  0  0
 16 20  1  0  0  0  0
 17  5  2  0  0  0  0
 17 25  1  0  0  0  0
 18  9  2  0  0  0  0
 19 15  1  0  0  0  0
 20  4  2  0  0  0  0
 21 22  2  0  0  0  0
 23  6  1  0  0  0  0
 23 15  1  0  0  0  0
 24  5  1  6  0  0  0
 24 12  1  0  0  0  0
 25 19  1  0  0  0  0
 26 13  1  6  0  0  0
 26 24  1  0  0  0  0
 26 10  1  0  0  0  0
 27  5  1  0  0  0  0
 28 16  1  1  0  0  0
M  END
>  <MODEL>
9

>  <REMARK>
 VINA RESULT:      -4.8      5.396      8.972
  Name = 
  0 active torsions:
  status: ('A' for Active; 'I' for Inactive)
                            x       y       z     vdW  Elec       q    Type
                         _______ _______ _______ _____ _____    ______ ____

>  <TORSDO>
F 0

$$$$
