=
 OpenBabel11122411543D

 28 32  0  0  1  0  0  0  0  0999 V2000
  189.5950  178.0760  138.0420 C   0  0  0  0  0  0  0  0  0  0  0  0
  193.0300  176.3770  134.8220 F   0  0  0  0  0  0  0  0  0  0  0  0
  187.1880  174.4970  136.3830 O   0  0  0  0  0  0  0  0  0  0  0  0
  189.9230  176.4920  140.3310 C   0  0  0  0  0  3  0  0  0  0  0  0
  189.4490  173.6480  136.3580 C   0  0  1  0  0  3  0  0  0  0  0  0
  189.3280  178.9120  136.8300 C   0  0  0  0  0  2  0  0  0  0  0  0
  194.1550  177.2190  136.5930 O   0  0  0  0  0  1  0  0  0  0  0  0
  193.4860  176.0960  136.1040 C   0  0  1  0  0  0  0  0  0  0  0  0
  193.6990  173.7020  135.6600 C   0  0  1  0  0  3  0  0  0  0  0  0
  192.3740  175.7570  137.0280 N   0  0  2  0  0  0  0  0  0  0  0  0
  186.1200  177.6800  135.7640 O   0  0  0  0  0  0  0  0  0  0  0  0
  190.3830  175.8250  135.6660 C   0  0  1  0  0  3  0  0  0  0  0  0
  192.8520  173.3750  136.7290 O   0  0  0  0  0  0  0  0  0  0  0  0
  194.4790  174.9520  136.0060 C   0  0  0  0  0  2  0  0  0  0  0  0
  187.3710  177.8100  135.7770 C   0  0  0  0  0  0  0  0  0  0  0  0
  190.4470  176.9510  137.9940 C   0  0  0  0  0  0  0  0  0  0  0  0
  188.4200  174.7010  136.2150 C   0  0  0  0  0  0  0  0  0  0  0  0
  194.6620  172.5600  135.4150 C   0  0  0  0  0  1  0  0  0  0  0  0
  188.2040  176.8690  134.9670 C   0  0  0  0  0  2  0  0  0  0  0  0
  190.5890  176.1630  139.1500 C   0  0  0  0  0  3  0  0  0  0  0  0
  188.9360  178.4030  139.2340 C   0  0  0  0  0  3  0  0  0  0  0  0
  189.1010  177.6170  140.3750 C   0  0  0  0  0  3  0  0  0  0  0  0
  187.9420  178.8550  136.5090 O   0  0  0  0  0  0  0  0  0  0  0  0
  190.7330  174.3490  135.8560 C   0  0  1  0  0  3  0  0  0  0  0  0
  188.9460  175.9550  135.8220 N   0  0  0  0  0  0  0  0  0  0  0  0
  191.8640  174.3780  136.8770 C   0  0  2  0  0  3  0  0  0  0  0  0
  189.5410  173.2670  137.7000 O   0  0  0  0  0  1  0  0  0  0  0  0
  191.2040  176.5910  136.7250 C   0  0  1  0  0  3  0  0  0  0  0  0
  1 21  1  0  0  0  0
  4 22  1  0  0  0  0
  5 27  1  1  0  0  0
  6  1  1  0  0  0  0
  8  2  1  6  0  0  0
  8  7  1  0  0  0  0
  8 10  1  0  0  0  0
  9 18  1  1  0  0  0
  9 14  1  0  0  0  0
  9 13  1  0  0  0  0
 11 15  2  0  0  0  0
 12 25  1  0  0  0  0
 12 24  1  0  0  0  0
 12 28  1  0  0  0  0
 13 26  1  0  0  0  0
 14  8  1  0  0  0  0
 15 23  1  0  0  0  0
 16  1  2  0  0  0  0
 16 20  1  0  0  0  0
 17  5  1  0  0  0  0
 17  3  2  0  0  0  0
 19 15  1  0  0  0  0
 19 25  1  0  0  0  0
 20  4  2  0  0  0  0
 21 22  2  0  0  0  0
 23  6  1  0  0  0  0
 24  5  1  0  0  0  0
 24 26  1  0  0  0  0
 25 17  1  0  0  0  0
 26 10  1  0  0  0  0
 28 10  1  0  0  0  0
 28 16  1  0  0  0  0
M  END
>  <MODEL>
1

>  <REMARK>
 VINA RESULT:      -5.7      0.000      0.000
  Name = 
  0 active torsions:
  status: ('A' for Active; 'I' for Inactive)
                            x       y       z     vdW  Elec       q    Type
                         _______ _______ _______ _____ _____    ______ ____

>  <TORSDO>
F 0

$$$$
=
 OpenBabel11122411543D

 28 32  0  0  1  0  0  0  0  0999 V2000
  182.2300  178.2780  136.8190 C   0  0  0  0  0  0  0  0  0  0  0  0
  184.6530  177.4450  141.1200 F   0  0  0  0  0  0  0  0  0  0  0  0
  178.9310  175.8340  138.9390 O   0  0  0  0  0  0  0  0  0  0  0  0
  180.5970  180.4950  137.3420 C   0  0  0  0  0  3  0  0  0  0  0  0
  179.9240  177.0480  140.7740 C   0  0  1  0  0  3  0  0  0  0  0  0
  183.0300  177.0560  136.4960 C   0  0  0  0  0  2  0  0  0  0  0  0
  185.2980  179.4850  140.3910 O   0  0  0  0  0  1  0  0  0  0  0  0
  184.3090  178.7910  141.0880 C   0  0  1  0  0  0  0  0  0  0  0  0
  183.0880  178.6750  143.2020 C   0  0  1  0  0  3  0  0  0  0  0  0
  183.0000  179.0160  140.4230 N   0  0  2  0  0  0  0  0  0  0  0  0
  180.4700  174.5480  136.1750 O   0  0  0  0  0  0  0  0  0  0  0  0
  182.2000  176.8120  139.8490 C   0  0  1  0  0  3  0  0  0  0  0  0
  181.9120  179.1620  142.6110 O   0  0  0  0  0  0  0  0  0  0  0  0
  184.2860  179.2990  142.5190 C   0  0  0  0  0  2  0  0  0  0  0  0
  181.3930  175.2060  136.7210 C   0  0  0  0  0  0  0  0  0  0  0  0
  182.1040  178.7530  138.1430 C   0  0  0  0  0  0  0  0  0  0  0  0
  179.9540  176.3230  139.4850 C   0  0  0  0  0  0  0  0  0  0  0  0
  183.0990  179.0430  144.6710 C   0  0  0  0  0  1  0  0  0  0  0  0
  181.6530  175.0120  138.1800 C   0  0  0  0  0  2  0  0  0  0  0  0
  181.2710  179.8600  138.3860 C   0  0  0  0  0  3  0  0  0  0  0  0
  181.5540  178.9250  135.7770 C   0  0  0  0  0  3  0  0  0  0  0  0
  180.7430  180.0310  136.0350 C   0  0  0  0  0  3  0  0  0  0  0  0
  182.1760  176.0610  135.9400 O   0  0  0  0  0  0  0  0  0  0  0  0
  181.4250  177.2500  141.0920 C   0  0  1  0  0  3  0  0  0  0  0  0
  181.2550  176.1850  138.9440 N   0  0  0  0  0  0  0  0  0  0  0  0
  181.8310  178.7070  141.2730 C   0  0  2  0  0  3  0  0  0  0  0  0
  179.2490  178.2610  140.6080 O   0  0  0  0  0  1  0  0  0  0  0  0
  182.8540  178.0930  139.2900 C   0  0  1  0  0  3  0  0  0  0  0  0
  1 16  1  0  0  0  0
  3 17  2  0  0  0  0
  4 20  1  0  0  0  0
  5 27  1  6  0  0  0
  5 24  1  0  0  0  0
  6  1  1  0  0  0  0
  8  7  1  6  0  0  0
  8  2  1  0  0  0  0
  8 14  1  0  0  0  0
  9 18  1  1  0  0  0
 10  8  1  0  0  0  0
 10 26  1  0  0  0  0
 11 15  2  0  0  0  0
 12 24  1  0  0  0  0
 13  9  1  0  0  0  0
 14  9  1  0  0  0  0
 15 19  1  0  0  0  0
 16 20  2  0  0  0  0
 16 28  1  0  0  0  0
 17  5  1  0  0  0  0
 19 25  1  0  0  0  0
 21 22  1  0  0  0  0
 21  1  2  0  0  0  0
 22  4  2  0  0  0  0
 23  6  1  0  0  0  0
 23 15  1  0  0  0  0
 24 26  1  0  0  0  0
 25 17  1  0  0  0  0
 25 12  1  0  0  0  0
 26 13  1  0  0  0  0
 28 12  1  0  0  0  0
 28 10  1  0  0  0  0
M  END
>  <MODEL>
2

>  <REMARK>
 VINA RESULT:      -5.7      8.095     10.160
  Name = 
  0 active torsions:
  status: ('A' for Active; 'I' for Inactive)
                            x       y       z     vdW  Elec       q    Type
                         _______ _______ _______ _____ _____    ______ ____

>  <TORSDO>
F 0

$$$$
=
 OpenBabel11122411543D

 28 32  0  0  1  0  0  0  0  0999 V2000
  180.5760  178.9910  142.2780 C   0  0  0  0  0  0  0  0  0  0  0  0
  181.1550  174.5460  140.0500 F   0  0  0  0  0  0  0  0  0  0  0  0
  184.3720  179.9970  139.8420 O   0  0  0  0  0  0  0  0  0  0  0  0
  179.2300  180.5630  140.3880 C   0  0  0  0  0  3  0  0  0  0  0  0
  183.1960  178.4970  138.3590 C   0  0  1  0  0  3  0  0  0  0  0  0
  181.3490  178.2250  143.3050 C   0  0  0  0  0  2  0  0  0  0  0  0
  178.9310  174.8790  140.2760 O   0  0  0  0  0  1  0  0  0  0  0  0
  180.0440  175.1570  139.4820 C   0  0  1  0  0  0  0  0  0  0  0  0
  180.9440  175.0090  137.2140 C   0  0  1  0  0  3  0  0  0  0  0  0
  180.2080  176.6280  139.3780 N   0  0  2  0  0  0  0  0  0  0  0  0
  184.5310  179.9020  143.2520 O   0  0  0  0  0  0  0  0  0  0  0  0
  182.4260  177.0730  140.2210 C   0  0  1  0  0  3  0  0  0  0  0  0
  180.8330  176.3940  137.0230 O   0  0  0  0  0  0  0  0  0  0  0  0
  179.8220  174.5370  138.1130 C   0  0  0  0  0  2  0  0  0  0  0  0
  183.6800  179.0130  142.9930 C   0  0  0  0  0  0  0  0  0  0  0  0
  180.4030  178.5050  140.9640 C   0  0  0  0  0  0  0  0  0  0  0  0
  183.6380  178.9860  139.6830 C   0  0  0  0  0  0  0  0  0  0  0  0
  180.8440  174.3080  135.8750 C   0  0  0  0  0  1  0  0  0  0  0  0
  184.0010  177.9840  141.9580 C   0  0  0  0  0  2  0  0  0  0  0  0
  179.7350  179.3130  140.0270 C   0  0  0  0  0  3  0  0  0  0  0  0
  180.0600  180.2440  142.6330 C   0  0  0  0  0  3  0  0  0  0  0  0
  179.3870  181.0270  141.6940 C   0  0  0  0  0  3  0  0  0  0  0  0
  182.4820  178.9850  143.7130 O   0  0  0  0  0  0  0  0  0  0  0  0
  182.5130  177.1510  138.6970 C   0  0  1  0  0  3  0  0  0  0  0  0
  183.1990  178.1780  140.7590 N   0  0  0  0  0  0  0  0  0  0  0  0
  181.0590  177.0620  138.2500 C   0  0  2  0  0  3  0  0  0  0  0  0
  182.3050  179.4190  137.7980 O   0  0  0  0  0  1  0  0  0  0  0  0
  180.9210  177.1330  140.5590 C   0  0  1  0  0  3  0  0  0  0  0  0
  1 21  1  0  0  0  0
  1  6  1  0  0  0  0
  4 22  1  0  0  0  0
  5 27  1  1  0  0  0
  5 24  1  0  0  0  0
  5 17  1  0  0  0  0
  6 23  1  0  0  0  0
  8  2  1  1  0  0  0
  8  7  1  0  0  0  0
  9 18  1  6  0  0  0
  9 14  1  0  0  0  0
 10  8  1  0  0  0  0
 10 28  1  0  0  0  0
 12 28  1  0  0  0  0
 12 25  1  0  0  0  0
 13  9  1  0  0  0  0
 13 26  1  0  0  0  0
 14  8  1  0  0  0  0
 15 11  2  0  0  0  0
 15 23  1  0  0  0  0
 16  1  2  0  0  0  0
 17  3  2  0  0  0  0
 17 25  1  0  0  0  0
 19 15  1  0  0  0  0
 20  4  2  0  0  0  0
 20 16  1  0  0  0  0
 22 21  2  0  0  0  0
 24 12  1  0  0  0  0
 25 19  1  0  0  0  0
 26 24  1  0  0  0  0
 26 10  1  0  0  0  0
 28 16  1  0  0  0  0
M  END
>  <MODEL>
3

>  <REMARK>
 VINA RESULT:      -5.3      8.650     10.859
  Name = 
  0 active torsions:
  status: ('A' for Active; 'I' for Inactive)
                            x       y       z     vdW  Elec       q    Type
                         _______ _______ _______ _____ _____    ______ ____

>  <TORSDO>
F 0

$$$$
=
 OpenBabel11122411543D

 28 32  0  0  1  0  0  0  0  0999 V2000
  180.6450  179.4510  140.1860 C   0  0  0  0  0  0  0  0  0  0  0  0
  181.9160  174.8950  138.5460 F   0  0  0  0  0  0  0  0  0  0  0  0
  185.1930  179.7530  140.9470 O   0  0  0  0  0  0  0  0  0  0  0  0
  181.1340  181.1500  138.0110 C   0  0  0  0  0  3  0  0  0  0  0  0
  185.0990  178.4090  138.9420 C   0  0  1  0  0  3  0  0  0  0  0  0
  180.4240  178.6080  141.4020 C   0  0  0  0  0  2  0  0  0  0  0  0
  180.1790  175.5860  137.2750 O   0  0  0  0  0  1  0  0  0  0  0  0
  181.5630  175.6540  137.4380 C   0  0  1  0  0  0  0  0  0  0  0  0
  183.7070  175.2860  136.3230 C   0  0  1  0  0  3  0  0  0  0  0  0
  181.9620  177.0760  137.5860 N   0  0  2  0  0  0  0  0  0  0  0  0
  183.0370  179.7540  143.5930 O   0  0  0  0  0  0  0  0  0  0  0  0
  183.0960  177.1920  139.7140 C   0  0  1  0  0  3  0  0  0  0  0  0
  183.9490  176.6630  136.2180 O   0  0  0  0  0  0  0  0  0  0  0  0
  182.2190  175.0300  136.2180 C   0  0  0  0  0  2  0  0  0  0  0  0
  182.4560  179.0030  142.7680 C   0  0  0  0  0  0  0  0  0  0  0  0
  181.3210  178.9520  139.0510 C   0  0  0  0  0  0  0  0  0  0  0  0
  184.6150  178.8660  140.2630 C   0  0  0  0  0  0  0  0  0  0  0  0
  184.4210  174.5640  135.2000 C   0  0  0  0  0  1  0  0  0  0  0  0
  183.2320  177.9000  142.1230 C   0  0  0  0  0  2  0  0  0  0  0  0
  181.5660  179.8240  137.9740 C   0  0  0  0  0  3  0  0  0  0  0  0
  180.2090  180.7820  140.2110 C   0  0  0  0  0  3  0  0  0  0  0  0
  180.4490  181.6280  139.1280 C   0  0  0  0  0  3  0  0  0  0  0  0
  181.0940  179.1920  142.5150 O   0  0  0  0  0  0  0  0  0  0  0  0
  184.1820  177.2010  138.6380 C   0  0  1  0  0  3  0  0  0  0  0  0
  183.4650  178.1770  140.7140 N   0  0  0  0  0  0  0  0  0  0  0  0
  183.3970  177.3290  137.3380 C   0  0  2  0  0  3  0  0  0  0  0  0
  184.9480  179.4400  138.0100 O   0  0  0  0  0  1  0  0  0  0  0  0
  181.7750  177.5020  138.9800 C   0  0  1  0  0  3  0  0  0  0  0  0
  1 21  1  0  0  0  0
  1  6  1  0  0  0  0
  4 22  1  0  0  0  0
  5 27  1  6  0  0  0
  5 17  1  0  0  0  0
  6 23  1  0  0  0  0
  8  7  1  6  0  0  0
  8 10  1  0  0  0  0
  8  2  1  0  0  0  0
  9 18  1  6  0  0  0
 10 28  1  0  0  0  0
 12 25  1  0  0  0  0
 13  9  1  0  0  0  0
 13 26  1  0  0  0  0
 14  9  1  0  0  0  0
 14  8  1  0  0  0  0
 15 11  2  0  0  0  0
 16  1  2  0  0  0  0
 17 25  1  0  0  0  0
 17  3  2  0  0  0  0
 19 15  1  0  0  0  0
 20  4  2  0  0  0  0
 20 16  1  0  0  0  0
 22 21  2  0  0  0  0
 23 15  1  0  0  0  0
 24  5  1  0  0  0  0
 24 12  1  0  0  0  0
 25 19  1  0  0  0  0
 26 10  1  0  0  0  0
 26 24  1  0  0  0  0
 28 16  1  0  0  0  0
 28 12  1  0  0  0  0
M  END
>  <MODEL>
4

>  <REMARK>
 VINA RESULT:      -4.9      6.987      9.596
  Name = 
  0 active torsions:
  status: ('A' for Active; 'I' for Inactive)
                            x       y       z     vdW  Elec       q    Type
                         _______ _______ _______ _____ _____    ______ ____

>  <TORSDO>
F 0

$$$$
=
 OpenBabel11122411543D

 28 32  0  0  1  0  0  0  0  0999 V2000
  181.1350  178.8870  137.4230 C   0  0  0  0  0  0  0  0  0  0  0  0
  180.8440  174.1090  138.8860 F   0  0  0  0  0  0  0  0  0  0  0  0
  185.6330  177.8680  137.1460 O   0  0  0  0  0  0  0  0  0  0  0  0
  181.1760  178.7700  134.6220 C   0  0  0  0  0  3  0  0  0  0  0  0
  184.5970  175.7870  136.4920 C   0  0  1  0  0  3  0  0  0  0  0  0
  181.1800  179.0130  138.9130 C   0  0  0  0  0  2  0  0  0  0  0  0
  178.9500  174.5560  137.7360 O   0  0  0  0  0  1  0  0  0  0  0  0
  180.2910  174.1900  137.6140 C   0  0  1  0  0  0  0  0  0  0  0  0
  181.8080  172.5110  136.6910 C   0  0  1  0  0  3  0  0  0  0  0  0
  180.9890  175.1890  136.7660 N   0  0  2  0  0  0  0  0  0  0  0  0
  184.5550  180.1280  139.4680 O   0  0  0  0  0  0  0  0  0  0  0  0
  182.7800  176.0400  138.1420 C   0  0  1  0  0  3  0  0  0  0  0  0
  182.2660  173.3930  135.7010 O   0  0  0  0  0  0  0  0  0  0  0  0
  180.3540  172.8070  136.9900 C   0  0  0  0  0  2  0  0  0  0  0  0
  183.5920  179.3220  139.4030 C   0  0  0  0  0  0  0  0  0  0  0  0
  181.2690  177.6370  136.7800 C   0  0  0  0  0  0  0  0  0  0  0  0
  184.6940  177.0390  137.2740 C   0  0  0  0  0  0  0  0  0  0  0  0
  181.9390  171.0870  136.1930 C   0  0  0  0  0  1  0  0  0  0  0  0
  183.8670  177.8560  139.5000 C   0  0  0  0  0  2  0  0  0  0  0  0
  181.2990  177.6010  135.3740 C   0  0  0  0  0  3  0  0  0  0  0  0
  181.0050  180.0550  136.6600 C   0  0  0  0  0  3  0  0  0  0  0  0
  181.0220  179.9980  135.2660 C   0  0  0  0  0  3  0  0  0  0  0  0
  182.2910  179.8210  139.2890 O   0  0  0  0  0  0  0  0  0  0  0  0
  183.4120  175.0520  137.1620 C   0  0  1  0  0  3  0  0  0  0  0  0
  183.6540  177.1950  138.2210 N   0  0  0  0  0  0  0  0  0  0  0  0
  182.2730  174.7150  136.2080 C   0  0  2  0  0  3  0  0  0  0  0  0
  184.3430  176.0950  135.1520 O   0  0  0  0  0  1  0  0  0  0  0  0
  181.3760  176.3480  137.5800 C   0  0  1  0  0  3  0  0  0  0  0  0
  1  6  1  0  0  0  0
  3 17  2  0  0  0  0
  4 22  2  0  0  0  0
  4 20  1  0  0  0  0
  5 27  1  6  0  0  0
  5 24  1  0  0  0  0
  5 17  1  0  0  0  0
  6 23  1  0  0  0  0
  8  7  1  1  0  0  0
  8  2  1  0  0  0  0
  9 18  1  6  0  0  0
  9 14  1  0  0  0  0
 10 28  1  0  0  0  0
 10  8  1  0  0  0  0
 12 25  1  0  0  0  0
 13 26  1  0  0  0  0
 13  9  1  0  0  0  0
 14  8  1  0  0  0  0
 15 11  2  0  0  0  0
 15 19  1  0  0  0  0
 16  1  1  0  0  0  0
 16 28  1  0  0  0  0
 17 25  1  0  0  0  0
 20 16  2  0  0  0  0
 21  1  2  0  0  0  0
 22 21  1  0  0  0  0
 23 15  1  0  0  0  0
 24 12  1  0  0  0  0
 25 19  1  0  0  0  0
 26 10  1  0  0  0  0
 26 24  1  0  0  0  0
 28 12  1  0  0  0  0
M  END
>  <MODEL>
5

>  <REMARK>
 VINA RESULT:      -4.9      6.872      9.533
  Name = 
  0 active torsions:
  status: ('A' for Active; 'I' for Inactive)
                            x       y       z     vdW  Elec       q    Type
                         _______ _______ _______ _____ _____    ______ ____

>  <TORSDO>
F 0

$$$$
=
 OpenBabel11122411543D

 28 32  0  0  1  0  0  0  0  0999 V2000
  182.6660  179.4280  139.0520 C   0  0  0  0  0  0  0  0  0  0  0  0
  181.5100  174.6650  140.0730 F   0  0  0  0  0  0  0  0  0  0  0  0
  184.5680  177.5000  135.3080 O   0  0  0  0  0  0  0  0  0  0  0  0
  180.6540  180.2860  137.2990 C   0  0  0  0  0  3  0  0  0  0  0  0
  182.6380  176.0980  135.6780 C   0  0  1  0  0  3  0  0  0  0  0  0
  183.8010  179.0120  139.9330 C   0  0  0  0  0  2  0  0  0  0  0  0
  179.8180  175.9340  140.8730 O   0  0  0  0  0  1  0  0  0  0  0  0
  180.3310  175.3170  139.7310 C   0  0  1  0  0  0  0  0  0  0  0  0
  179.8170  173.7470  137.9290 C   0  0  1  0  0  3  0  0  0  0  0  0
  180.5460  176.3450  138.6820 N   0  0  2  0  0  0  0  0  0  0  0  0
  186.5680  179.0010  137.6330 O   0  0  0  0  0  0  0  0  0  0  0  0
  182.8920  176.1980  138.1310 C   0  0  1  0  0  3  0  0  0  0  0  0
  179.7470  174.7770  136.9800 O   0  0  0  0  0  0  0  0  0  0  0  0
  179.3360  174.2670  139.2670 C   0  0  0  0  0  2  0  0  0  0  0  0
  185.6370  178.5300  138.3360 C   0  0  0  0  0  0  0  0  0  0  0  0
  181.7540  178.4870  138.5230 C   0  0  0  0  0  0  0  0  0  0  0  0
  183.7780  176.9350  136.1090 C   0  0  0  0  0  0  0  0  0  0  0  0
  178.9320  172.6000  137.4900 C   0  0  0  0  0  1  0  0  0  0  0  0
  185.2380  177.1020  138.1460 C   0  0  0  0  0  2  0  0  0  0  0  0
  180.7590  178.9370  137.6370 C   0  0  0  0  0  3  0  0  0  0  0  0
  182.5480  180.7810  138.7120 C   0  0  0  0  0  3  0  0  0  0  0  0
  181.5450  181.2110  137.8420 C   0  0  0  0  0  3  0  0  0  0  0  0
  185.0360  179.3400  139.3040 O   0  0  0  0  0  0  0  0  0  0  0  0
  182.1330  175.4900  137.0080 C   0  0  1  0  0  3  0  0  0  0  0  0
  183.9310  177.0020  137.5150 N   0  0  0  0  0  0  0  0  0  0  0  0
  180.6720  175.7950  137.3160 C   0  0  2  0  0  3  0  0  0  0  0  0
  181.6750  176.9050  135.0640 O   0  0  0  0  0  1  0  0  0  0  0  0
  181.8350  177.0160  138.9010 C   0  0  1  0  0  3  0  0  0  0  0  0
  1  6  1  0  0  0  0
  3 17  2  0  0  0  0
  4 20  2  0  0  0  0
  4 22  1  0  0  0  0
  5 27  1  1  0  0  0
  5 17  1  0  0  0  0
  5 24  1  0  0  0  0
  8  2  1  1  0  0  0
  8  7  1  0  0  0  0
  9 18  1  6  0  0  0
  9 14  1  0  0  0  0
 10 28  1  0  0  0  0
 10  8  1  0  0  0  0
 11 15  2  0  0  0  0
 12 28  1  0  0  0  0
 13 26  1  0  0  0  0
 13  9  1  0  0  0  0
 14  8  1  0  0  0  0
 15 23  1  0  0  0  0
 16 28  1  0  0  0  0
 16  1  2  0  0  0  0
 17 25  1  0  0  0  0
 19 15  1  0  0  0  0
 20 16  1  0  0  0  0
 21  1  1  0  0  0  0
 22 21  2  0  0  0  0
 23  6  1  0  0  0  0
 24 26  1  0  0  0  0
 24 12  1  0  0  0  0
 25 12  1  0  0  0  0
 25 19  1  0  0  0  0
 26 10  1  0  0  0  0
M  END
>  <MODEL>
6

>  <REMARK>
 VINA RESULT:      -4.7      6.756      9.835
  Name = 
  0 active torsions:
  status: ('A' for Active; 'I' for Inactive)
                            x       y       z     vdW  Elec       q    Type
                         _______ _______ _______ _____ _____    ______ ____

>  <TORSDO>
F 0

$$$$
=
 OpenBabel11122411543D

 28 32  0  0  1  0  0  0  0  0999 V2000
  180.3520  174.5510  137.3950 C   0  0  0  0  0  0  0  0  0  0  0  0
  184.9060  172.6280  138.1810 F   0  0  0  0  0  0  0  0  0  0  0  0
  182.6860  178.5320  137.6240 O   0  0  0  0  0  0  0  0  0  0  0  0
  180.2530  175.0390  134.6360 C   0  0  0  0  0  3  0  0  0  0  0  0
  184.2870  177.0620  136.5710 C   0  0  1  0  0  3  0  0  0  0  0  0
  180.3640  174.3730  138.8800 C   0  0  0  0  0  2  0  0  0  0  0  0
  183.8050  171.1750  136.8430 O   0  0  0  0  0  1  0  0  0  0  0  0
  184.5570  172.3510  136.8650 C   0  0  1  0  0  0  0  0  0  0  0  0
  186.5440  173.4460  135.9560 C   0  0  1  0  0  3  0  0  0  0  0  0
  183.7600  173.4450  136.2570 N   0  0  2  0  0  0  0  0  0  0  0  0
  180.3960  177.7790  140.0410 O   0  0  0  0  0  0  0  0  0  0  0  0
  183.6160  175.1420  137.9680 C   0  0  1  0  0  3  0  0  0  0  0  0
  185.7720  174.3050  135.1610 O   0  0  0  0  0  0  0  0  0  0  0  0
  185.8380  172.1140  136.0840 C   0  0  0  0  0  2  0  0  0  0  0  0
  180.8560  176.6480  139.7390 C   0  0  0  0  0  0  0  0  0  0  0  0
  181.5270  174.4230  136.6230 C   0  0  0  0  0  0  0  0  0  0  0  0
  183.1920  177.3840  137.5130 C   0  0  0  0  0  0  0  0  0  0  0  0
  187.8950  173.2380  135.3040 C   0  0  0  0  0  1  0  0  0  0  0  0
  182.3380  176.4610  139.6870 C   0  0  0  0  0  2  0  0  0  0  0  0
  181.4590  174.6830  135.2420 C   0  0  0  0  0  3  0  0  0  0  0  0
  179.1450  174.9020  136.7770 C   0  0  0  0  0  3  0  0  0  0  0  0
  179.0940  175.1420  135.4030 C   0  0  0  0  0  3  0  0  0  0  0  0
  179.9720  175.5900  139.5080 O   0  0  0  0  0  0  0  0  0  0  0  0
  184.6700  175.6170  136.9680 C   0  0  1  0  0  3  0  0  0  0  0  0
  182.7970  176.2880  138.3170 N   0  0  0  0  0  0  0  0  0  0  0  0
  184.5620  174.6110  135.8300 C   0  0  2  0  0  3  0  0  0  0  0  0
  183.8100  177.1440  135.2590 O   0  0  0  0  0  1  0  0  0  0  0  0
  182.8450  174.0090  137.2590 C   0  0  1  0  0  3  0  0  0  0  0  0
  1  6  1  0  0  0  0
  4 20  2  0  0  0  0
  4 22  1  0  0  0  0
  5 27  1  6  0  0  0
  5 24  1  0  0  0  0
  5 17  1  0  0  0  0
  6 23  1  0  0  0  0
  8  7  1  6  0  0  0
  8  2  1  0  0  0  0
  9 18  1  6  0  0  0
  9 14  1  0  0  0  0
 10  8  1  0  0  0  0
 10 28  1  0  0  0  0
 12 25  1  0  0  0  0
 13 26  1  0  0  0  0
 13  9  1  0  0  0  0
 14  8  1  0  0  0  0
 15 11  2  0  0  0  0
 16 28  1  0  0  0  0
 16  1  2  0  0  0  0
 17  3  2  0  0  0  0
 17 25  1  0  0  0  0
 19 15  1  0  0  0  0
 20 16  1  0  0  0  0
 21  1  1  0  0  0  0
 22 21  2  0  0  0  0
 23 15  1  0  0  0  0
 24 12  1  0  0  0  0
 25 19  1  0  0  0  0
 26 10  1  0  0  0  0
 26 24  1  0  0  0  0
 28 12  1  0  0  0  0
M  END
>  <MODEL>
7

>  <REMARK>
 VINA RESULT:      -4.5      6.049      8.644
  Name = 
  0 active torsions:
  status: ('A' for Active; 'I' for Inactive)
                            x       y       z     vdW  Elec       q    Type
                         _______ _______ _______ _____ _____    ______ ____

>  <TORSDO>
F 0

$$$$
=
 OpenBabel11122411543D

 28 32  0  0  1  0  0  0  0  0999 V2000
  181.6290  178.1870  138.1700 C   0  0  0  0  0  0  0  0  0  0  0  0
  186.2990  178.3400  136.3730 F   0  0  0  0  0  0  0  0  0  0  0  0
  181.0790  175.1550  134.7270 O   0  0  0  0  0  0  0  0  0  0  0  0
  181.5850  175.9390  139.8430 C   0  0  0  0  0  3  0  0  0  0  0  0
  183.3510  174.7280  135.4250 C   0  0  1  0  0  3  0  0  0  0  0  0
  181.5690  179.3610  137.2440 C   0  0  0  0  0  2  0  0  0  0  0  0
  186.4500  178.6280  138.6100 O   0  0  0  0  0  1  0  0  0  0  0  0
  186.3420  177.6780  137.5940 C   0  0  1  0  0  0  0  0  0  0  0  0
  187.3730  175.6790  136.6360 C   0  0  1  0  0  3  0  0  0  0  0  0
  185.1280  176.8570  137.8260 N   0  0  2  0  0  0  0  0  0  0  0  0
  179.4250  178.1400  134.6250 O   0  0  0  0  0  0  0  0  0  0  0  0
  183.7990  177.1210  135.8280 C   0  0  1  0  0  3  0  0  0  0  0  0
  186.3410  174.8560  137.1090 O   0  0  0  0  0  0  0  0  0  0  0  0
  187.5920  176.8160  137.6110 C   0  0  0  0  0  2  0  0  0  0  0  0
  180.5010  178.4440  135.2020 C   0  0  0  0  0  0  0  0  0  0  0  0
  182.7290  177.3020  138.1760 C   0  0  0  0  0  0  0  0  0  0  0  0
  182.1790  175.5900  135.1600 C   0  0  0  0  0  0  0  0  0  0  0  0
  188.6460  174.8690  136.5150 C   0  0  0  0  0  1  0  0  0  0  0  0
  181.7950  178.0070  134.5940 C   0  0  0  0  0  2  0  0  0  0  0  0
  182.6830  176.1740  139.0150 C   0  0  0  0  0  3  0  0  0  0  0  0
  180.5340  177.9470  139.0100 C   0  0  0  0  0  3  0  0  0  0  0  0
  180.5120  176.8300  139.8460 C   0  0  0  0  0  3  0  0  0  0  0  0
  180.4580  179.2180  136.3650 O   0  0  0  0  0  0  0  0  0  0  0  0
  184.4700  175.7510  135.7310 C   0  0  1  0  0  3  0  0  0  0  0  0
  182.4240  176.9650  135.3910 N   0  0  0  0  0  0  0  0  0  0  0  0
  185.1190  175.5710  137.0970 C   0  0  2  0  0  3  0  0  0  0  0  0
  183.0780  173.8970  136.5160 O   0  0  0  0  0  1  0  0  0  0  0  0
  183.9470  177.5560  137.3010 C   0  0  1  0  0  3  0  0  0  0  0  0
  1 16  2  0  0  0  0
  1 21  1  0  0  0  0
  3 17  2  0  0  0  0
  4 22  1  0  0  0  0
  5 24  1  0  0  0  0
  5 27  1  1  0  0  0
  6  1  1  0  0  0  0
  8  2  1  6  0  0  0
  8 14  1  0  0  0  0
  8 10  1  0  0  0  0
  8  7  1  0  0  0  0
  9 18  1  1  0  0  0
  9 13  1  0  0  0  0
  9 14  1  0  0  0  0
 11 15  2  0  0  0  0
 12 28  1  0  0  0  0
 15 23  1  0  0  0  0
 16 20  1  0  0  0  0
 17 25  1  0  0  0  0
 17  5  1  0  0  0  0
 19 15  1  0  0  0  0
 19 25  1  0  0  0  0
 20  4  2  0  0  0  0
 21 22  2  0  0  0  0
 23  6  1  0  0  0  0
 24 12  1  0  0  0  0
 24 26  1  0  0  0  0
 25 12  1  0  0  0  0
 26 13  1  0  0  0  0
 26 10  1  0  0  0  0
 28 10  1  0  0  0  0
 28 16  1  0  0  0  0
M  END
>  <MODEL>
8

>  <REMARK>
 VINA RESULT:      -4.5      5.246      7.228
  Name = 
  0 active torsions:
  status: ('A' for Active; 'I' for Inactive)
                            x       y       z     vdW  Elec       q    Type
                         _______ _______ _______ _____ _____    ______ ____

>  <TORSDO>
F 0

$$$$
=
 OpenBabel11122411543D

 28 32  0  0  1  0  0  0  0  0999 V2000
  190.2980  175.6090  138.3100 C   0  0  0  0  0  0  0  0  0  0  0  0
  186.6990  173.2020  135.7960 F   0  0  0  0  0  0  0  0  0  0  0  0
  190.1810  178.3530  134.5940 O   0  0  0  0  0  0  0  0  0  0  0  0
  188.9730  177.7080  139.6110 C   0  0  0  0  0  3  0  0  0  0  0  0
  187.8640  177.7120  134.8280 C   0  0  1  0  0  3  0  0  0  0  0  0
  191.0730  174.5490  137.5930 C   0  0  0  0  0  2  0  0  0  0  0  0
  186.2080  173.0020  137.9940 O   0  0  0  0  0  1  0  0  0  0  0  0
  186.1010  173.8350  136.8800 C   0  0  1  0  0  0  0  0  0  0  0  0
  184.5270  175.0680  135.4740 C   0  0  1  0  0  3  0  0  0  0  0  0
  186.7410  175.1380  137.1880 N   0  0  2  0  0  0  0  0  0  0  0  0
  192.9650  176.4790  135.2200 O   0  0  0  0  0  0  0  0  0  0  0  0
  188.4490  175.4120  135.5040 C   0  0  1  0  0  3  0  0  0  0  0  0
  184.9550  176.3020  135.9850 O   0  0  0  0  0  0  0  0  0  0  0  0
  184.6280  174.0160  136.5570 C   0  0  0  0  0  2  0  0  0  0  0  0
  192.0390  175.7420  135.6460 C   0  0  0  0  0  0  0  0  0  0  0  0
  188.9480  175.8800  137.9990 C   0  0  0  0  0  0  0  0  0  0  0  0
  189.3240  177.4810  134.8960 C   0  0  0  0  0  0  0  0  0  0  0  0
  183.0870  175.1850  135.0200 C   0  0  0  0  0  1  0  0  0  0  0  0
  190.8530  175.4930  134.7710 C   0  0  0  0  0  2  0  0  0  0  0  0
  188.3040  176.9440  138.6540 C   0  0  0  0  0  3  0  0  0  0  0  0
  190.9590  176.3770  139.2760 C   0  0  0  0  0  3  0  0  0  0  0  0
  190.3000  177.4210  139.9270 C   0  0  0  0  0  3  0  0  0  0  0  0
  192.1670  175.1430  136.9020 O   0  0  0  0  0  0  0  0  0  0  0  0
  187.2790  176.3050  135.0910 C   0  0  1  0  0  3  0  0  0  0  0  0
  189.6700  176.1650  135.2860 N   0  0  0  0  0  0  0  0  0  0  0  0
  186.3370  176.2370  136.2860 C   0  0  2  0  0  3  0  0  0  0  0  0
  187.4940  178.6340  135.8130 O   0  0  0  0  0  1  0  0  0  0  0  0
  188.1920  175.0400  136.9790 C   0  0  1  0  0  3  0  0  0  0  0  0
  1 21  1  0  0  0  0
  3 17  2  0  0  0  0
  4 22  1  0  0  0  0
  5 17  1  0  0  0  0
  5 24  1  0  0  0  0
  5 27  1  1  0  0  0
  6  1  1  0  0  0  0
  8  2  1  6  0  0  0
  8 10  1  0  0  0  0
  8  7  1  0  0  0  0
  9 18  1  1  0  0  0
  9 13  1  0  0  0  0
  9 14  1  0  0  0  0
 11 15  2  0  0  0  0
 12 28  1  0  0  0  0
 13 26  1  0  0  0  0
 14  8  1  0  0  0  0
 15 23  1  0  0  0  0
 16  1  2  0  0  0  0
 16 20  1  0  0  0  0
 17 25  1  0  0  0  0
 19 25  1  0  0  0  0
 19 15  1  0  0  0  0
 20  4  2  0  0  0  0
 21 22  2  0  0  0  0
 23  6  1  0  0  0  0
 24 12  1  0  0  0  0
 24 26  1  0  0  0  0
 25 12  1  0  0  0  0
 26 10  1  0  0  0  0
 28 10  1  0  0  0  0
 28 16  1  0  0  0  0
M  END
>  <MODEL>
9

>  <REMARK>
 VINA RESULT:      -4.5      2.478      5.832
  Name = 
  0 active torsions:
  status: ('A' for Active; 'I' for Inactive)
                            x       y       z     vdW  Elec       q    Type
                         _______ _______ _______ _____ _____    ______ ____

>  <TORSDO>
F 0

$$$$
