=
 OpenBabel11122411293D

 37 42  0  0  1  0  0  0  0  0999 V2000
  179.8590  179.3360  142.9750 C   0  0  1  0  0  0  0  0  0  0  0  0
  182.0040  177.3830  139.9700 C   0  0  0  0  0  0  0  0  0  0  0  0
  183.7270  179.1860  138.5650 C   0  0  0  0  0  1  0  0  0  0  0  0
  179.8670  178.1590  140.7050 C   0  0  0  0  0  0  0  0  0  0  0  0
  183.4440  177.5420  140.3470 C   0  0  1  0  0  3  0  0  0  0  0  0
  181.2260  177.9870  140.8970 C   0  0  0  0  0  0  0  0  0  0  0  0
  184.2900  178.0080  139.2330 N   0  0  0  0  0  0  0  0  0  0  0  0
  179.3100  177.6840  139.5520 N   0  0  0  0  0  0  0  0  0  0  0  0
  181.9680  178.6280  141.9030 N   0  0  0  0  0  0  0  0  0  0  0  0
  179.7490  178.1430  143.9100 C   0  0  0  0  0  1  0  0  0  0  0  0
  182.3580  176.5140  137.6440 C   0  0  0  0  0  2  0  0  0  0  0  0
  180.0740  177.0760  138.5870 C   0  0  0  0  0  3  0  0  0  0  0  0
  181.3500  179.6600  142.7290 C   0  0  0  0  0  2  0  0  0  0  0  0
  181.4610  176.9190  138.7730 C   0  0  0  0  0  0  0  0  0  0  0  0
  183.3840  178.5500  141.5340 C   0  0  1  0  0  3  0  0  0  0  0  0
  179.0960  179.0300  141.6620 C   0  0  0  0  0  2  0  0  0  0  0  0
  184.5560  176.8980  138.2830 C   0  0  1  0  0  3  0  0  0  0  0  0
  179.2610  180.4340  143.5920 O   0  0  0  0  0  1  0  0  0  0  0  0
  183.5340  175.9190  138.1350 O   0  0  0  0  0  0  0  0  0  0  0  0
  185.6360  178.7300  142.7000 C   0  0  0  0  0  2  0  0  0  0  0  0
  186.5400  178.0830  143.7040 C   0  0  0  0  0  0  0  0  0  0  0  0
  185.3060  178.9170  145.6630 C   0  0  0  0  0  0  0  0  0  0  0  0
  186.3690  178.2250  144.9860 N   0  0  0  0  0  0  0  0  0  0  0  0
  184.0510  179.3780  144.9790 C   0  0  1  0  0  3  0  0  0  0  0  0
  184.2380  180.5930  144.3430 F   0  0  0  0  0  0  0  0  0  0  0  0
  183.4720  178.3140  144.0430 C   0  0  0  0  0  2  0  0  0  0  0  0
  185.4190  179.1360  146.8970 O   0  0  0  0  0  0  0  0  0  0  0  0
  184.2380  178.1090  142.7260 C   0  0  1  0  0  3  0  0  0  0  0  0
  187.8870  177.1450  141.9210 O   0  0  0  0  0  1  0  0  0  0  0  0
  187.6530  177.3180  143.2430 N   0  0  0  0  0  2  0  0  0  0  0  0
  184.7150  177.1280  135.7620 C   0  0  0  0  0  3  0  0  0  0  0  0
  185.3040  177.2610  137.0280 C   0  0  0  0  0  0  0  0  0  0  0  0
  186.6020  177.7730  137.1360 C   0  0  0  0  0  3  0  0  0  0  0  0
  188.5690  178.6280  136.0980 F   0  0  0  0  0  0  0  0  0  0  0  0
  186.7240  177.9960  134.7280 C   0  0  0  0  0  3  0  0  0  0  0  0
  187.3110  178.1360  135.9880 C   0  0  0  0  0  0  0  0  0  0  0  0
  185.4250  177.4920  134.6150 C   0  0  0  0  0  3  0  0  0  0  0  0
  1 18  1  0  0  0  0
  1 10  1  1  0  0  0
  2  6  1  0  0  0  0
  3  7  1  0  0  0  0
  4  6  2  0  0  0  0
  4 16  1  0  0  0  0
  5  2  1  6  0  0  0
  5 15  1  0  0  0  0
  6  9  1  0  0  0  0
  7  5  1  0  0  0  0
  8  4  1  0  0  0  0
  9 13  1  0  0  0  0
 11 19  1  0  0  0  0
 11 14  1  0  0  0  0
 12 14  1  0  0  0  0
 12  8  2  0  0  0  0
 13  1  1  0  0  0  0
 14  2  2  0  0  0  0
 15  9  1  1  0  0  0
 15 28  1  0  0  0  0
 16  1  1  0  0  0  0
 17 32  1  6  0  0  0
 17  7  1  0  0  0  0
 19 17  1  0  0  0  0
 20 21  1  0  0  0  0
 21 23  2  0  0  0  0
 22 27  2  0  0  0  0
 23 22  1  0  0  0  0
 24 25  1  6  0  0  0
 24 22  1  0  0  0  0
 26 24  1  0  0  0  0
 28 20  1  1  0  0  0
 28 26  1  0  0  0  0
 29 30  1  0  0  0  0
 30 21  1  0  0  0  0
 31 32  1  0  0  0  0
 32 33  2  0  0  0  0
 35 36  2  0  0  0  0
 36 34  1  0  0  0  0
 36 33  1  0  0  0  0
 37 35  1  0  0  0  0
 37 31  2  0  0  0  0
M  END
>  <MODEL>
1

>  <REMARK>
 VINA RESULT:      -8.1      0.000      0.000
  Name = 
  2 active torsions:
  status: ('A' for Active; 'I' for Inactive)
    1  A    between atoms: C_21  and  C_27
    2  A    between atoms: C_23  and  C_30
                            x       y       z     vdW  Elec       q    Type
                         _______ _______ _______ _____ _____    ______ ____

>  <TORSDO>
F 2

$$$$
=
 OpenBabel11122411293D

 37 42  0  0  1  0  0  0  0  0999 V2000
  186.4420  177.1570  136.9840 C   0  0  1  0  0  0  0  0  0  0  0  0
  188.2200  178.3160  140.5820 C   0  0  0  0  0  0  0  0  0  0  0  0
  188.8830  176.0540  142.2050 C   0  0  0  0  0  1  0  0  0  0  0  0
  186.2160  178.2600  139.2800 C   0  0  0  0  0  0  0  0  0  0  0  0
  189.5880  177.7110  140.5580 C   0  0  1  0  0  3  0  0  0  0  0  0
  187.5640  177.9930  139.4430 C   0  0  0  0  0  0  0  0  0  0  0  0
  189.9320  176.9970  141.8010 N   0  0  0  0  0  0  0  0  0  0  0  0
  185.5500  178.8810  140.2980 N   0  0  0  0  0  0  0  0  0  0  0  0
  188.3110  177.1560  138.5980 N   0  0  0  0  0  0  0  0  0  0  0  0
  186.9480  178.3270  136.1580 C   0  0  0  0  0  1  0  0  0  0  0  0
  188.2020  179.0170  142.9900 C   0  0  0  0  0  2  0  0  0  0  0  0
  186.1840  179.2110  141.4700 C   0  0  0  0  0  3  0  0  0  0  0  0
  187.6450  176.3760  137.5600 C   0  0  0  0  0  2  0  0  0  0  0  0
  187.5510  178.9220  141.6440 C   0  0  0  0  0  0  0  0  0  0  0  0
  189.5370  176.7800  139.3090 C   0  0  1  0  0  3  0  0  0  0  0  0
  185.4940  177.6820  138.0920 C   0  0  0  0  0  2  0  0  0  0  0  0
  190.2660  177.9600  142.8800 C   0  0  1  0  0  3  0  0  0  0  0  0
  185.7210  176.3080  136.1470 O   0  0  0  0  0  1  0  0  0  0  0  0
  189.5890  179.2120  142.8570 O   0  0  0  0  0  0  0  0  0  0  0  0
  191.8540  175.9120  138.7300 C   0  0  0  0  0  2  0  0  0  0  0  0
  193.1390  176.2460  138.0390 C   0  0  0  0  0  0  0  0  0  0  0  0
  192.2700  175.8300  135.7740 C   0  0  0  0  0  0  0  0  0  0  0  0
  193.2750  176.1610  136.7470 N   0  0  0  0  0  0  0  0  0  0  0  0
  190.8020  175.7810  136.0850 C   0  0  1  0  0  3  0  0  0  0  0  0
  190.4450  174.5680  136.6490 F   0  0  0  0  0  0  0  0  0  0  0  0
  190.3430  176.9730  136.9290 C   0  0  0  0  0  2  0  0  0  0  0  0
  192.6310  175.5860  134.5940 O   0  0  0  0  0  0  0  0  0  0  0  0
  190.7630  176.9340  138.4070 C   0  0  1  0  0  3  0  0  0  0  0  0
  194.1900  176.7250  140.1690 O   0  0  0  0  0  1  0  0  0  0  0  0
  194.2690  176.6310  138.8210 N   0  0  0  0  0  2  0  0  0  0  0  0
  191.6100  176.5340  144.4890 C   0  0  0  0  0  3  0  0  0  0  0  0
  190.5130  177.3730  144.2430 C   0  0  0  0  0  0  0  0  0  0  0  0
  189.6460  177.7000  145.2900 C   0  0  0  0  0  3  0  0  0  0  0  0
  189.0180  177.5020  147.5810 F   0  0  0  0  0  0  0  0  0  0  0  0
  190.9550  176.3440  146.8110 C   0  0  0  0  0  3  0  0  0  0  0  0
  189.8640  177.1840  146.5710 C   0  0  0  0  0  0  0  0  0  0  0  0
  191.8280  176.0190  145.7690 C   0  0  0  0  0  3  0  0  0  0  0  0
  1 10  1  6  0  0  0
  1 13  1  0  0  0  0
  1 16  1  0  0  0  0
  2 14  1  0  0  0  0
  4  6  1  0  0  0  0
  4  8  2  0  0  0  0
  5  2  1  1  0  0  0
  5  7  1  0  0  0  0
  6  2  2  0  0  0  0
  7  3  1  0  0  0  0
  7 17  1  0  0  0  0
  8 12  1  0  0  0  0
  9  6  1  0  0  0  0
 12 14  2  0  0  0  0
 13  9  1  0  0  0  0
 14 11  1  0  0  0  0
 15  9  1  6  0  0  0
 15  5  1  0  0  0  0
 16  4  1  0  0  0  0
 17 32  1  1  0  0  0
 18  1  1  0  0  0  0
 19 17  1  0  0  0  0
 19 11  1  0  0  0  0
 21 20  1  0  0  0  0
 21 30  1  0  0  0  0
 22 24  1  0  0  0  0
 22 23  1  0  0  0  0
 23 21  2  0  0  0  0
 24 25  1  1  0  0  0
 24 26  1  0  0  0  0
 27 22  2  0  0  0  0
 28 26  1  6  0  0  0
 28 20  1  0  0  0  0
 28 15  1  0  0  0  0
 30 29  1  0  0  0  0
 31 37  1  0  0  0  0
 32 31  2  0  0  0  0
 32 33  1  0  0  0  0
 33 36  2  0  0  0  0
 36 35  1  0  0  0  0
 36 34  1  0  0  0  0
 37 35  2  0  0  0  0
M  END
>  <MODEL>
2

>  <REMARK>
 VINA RESULT:      -7.7      4.554      9.252
  Name = 
  2 active torsions:
  status: ('A' for Active; 'I' for Inactive)
    1  A    between atoms: C_21  and  C_27
    2  A    between atoms: C_23  and  C_30
                            x       y       z     vdW  Elec       q    Type
                         _______ _______ _______ _____ _____    ______ ____

>  <TORSDO>
F 2

$$$$
=
 OpenBabel11122411293D

 37 42  0  0  1  0  0  0  0  0999 V2000
  184.6280  176.7440  136.4830 C   0  0  1  0  0  0  0  0  0  0  0  0
  188.4010  175.0360  137.0290 C   0  0  0  0  0  0  0  0  0  0  0  0
  190.4010  176.3920  135.4960 C   0  0  0  0  0  1  0  0  0  0  0  0
  186.2120  174.7740  136.1040 C   0  0  0  0  0  0  0  0  0  0  0  0
  189.2410  176.1210  137.6260 C   0  0  1  0  0  3  0  0  0  0  0  0
  187.1480  175.5020  136.8180 C   0  0  0  0  0  0  0  0  0  0  0  0
  190.5410  176.2880  136.9520 N   0  0  0  0  0  0  0  0  0  0  0  0
  186.5750  173.5480  135.6220 N   0  0  0  0  0  0  0  0  0  0  0  0
  187.0000  176.8560  137.1590 N   0  0  0  0  0  0  0  0  0  0  0  0
  184.0870  176.4100  137.8630 C   0  0  0  0  0  1  0  0  0  0  0  0
  190.2480  173.4230  136.5090 C   0  0  0  0  0  2  0  0  0  0  0  0
  187.8410  173.0530  135.8100 C   0  0  0  0  0  3  0  0  0  0  0  0
  185.8850  177.6320  136.6260 C   0  0  0  0  0  2  0  0  0  0  0  0
  188.8000  173.8020  136.5190 C   0  0  0  0  0  0  0  0  0  0  0  0
  188.3250  177.3770  137.5100 C   0  0  1  0  0  3  0  0  0  0  0  0
  184.9160  175.4320  135.7120 C   0  0  0  0  0  2  0  0  0  0  0  0
  191.4760  175.2050  137.3490 C   0  0  1  0  0  3  0  0  0  0  0  0
  183.6530  177.4620  135.7910 O   0  0  0  0  0  1  0  0  0  0  0  0
  190.9030  173.9360  137.6440 O   0  0  0  0  0  0  0  0  0  0  0  0
  187.1070  177.7650  139.7060 C   0  0  0  0  0  2  0  0  0  0  0  0
  186.8990  178.7380  140.8260 C   0  0  0  0  0  0  0  0  0  0  0  0
  189.0320  178.2260  141.9430 C   0  0  0  0  0  0  0  0  0  0  0  0
  187.7580  178.8750  141.7950 N   0  0  0  0  0  0  0  0  0  0  0  0
  189.7040  177.4610  140.8390 C   0  0  1  0  0  3  0  0  0  0  0  0
  189.2210  176.1660  140.7540 F   0  0  0  0  0  0  0  0  0  0  0  0
  189.6420  178.1950  139.4980 C   0  0  0  0  0  2  0  0  0  0  0  0
  189.6290  178.3150  143.0470 O   0  0  0  0  0  0  0  0  0  0  0  0
  188.2690  178.1880  138.8060 C   0  0  1  0  0  3  0  0  0  0  0  0
  184.7690  179.4060  139.8840 O   0  0  0  0  0  1  0  0  0  0  0  0
  185.7020  179.5140  140.8580 N   0  0  0  0  0  2  0  0  0  0  0  0
  193.3920  173.9680  136.2380 C   0  0  0  0  0  3  0  0  0  0  0  0
  192.8030  175.1770  136.6390 C   0  0  0  0  0  0  0  0  0  0  0  0
  193.4420  176.3870  136.3480 C   0  0  0  0  0  3  0  0  0  0  0  0
  195.2820  177.5650  135.3960 F   0  0  0  0  0  0  0  0  0  0  0  0
  195.2520  175.1840  135.2790 C   0  0  0  0  0  3  0  0  0  0  0  0
  194.6660  176.3900  135.6720 C   0  0  0  0  0  0  0  0  0  0  0  0
  194.6140  173.9730  135.5630 C   0  0  0  0  0  3  0  0  0  0  0  0
  1 13  1  0  0  0  0
  1 10  1  1  0  0  0
  3  7  1  0  0  0  0
  4  6  2  0  0  0  0
  5  2  1  6  0  0  0
  6  2  1  0  0  0  0
  6  9  1  0  0  0  0
  7 17  1  0  0  0  0
  7  5  1  0  0  0  0
  8 12  2  0  0  0  0
  8  4  1  0  0  0  0
 11 14  1  0  0  0  0
 11 19  1  0  0  0  0
 12 14  1  0  0  0  0
 13  9  1  0  0  0  0
 14  2  2  0  0  0  0
 15  9  1  1  0  0  0
 15  5  1  0  0  0  0
 15 28  1  0  0  0  0
 16  4  1  0  0  0  0
 16  1  1  0  0  0  0
 17 32  1  6  0  0  0
 17 19  1  0  0  0  0
 18  1  1  0  0  0  0
 20 21  1  0  0  0  0
 21 30  1  0  0  0  0
 21 23  2  0  0  0  0
 22 27  2  0  0  0  0
 23 22  1  0  0  0  0
 24 25  1  6  0  0  0
 24 22  1  0  0  0  0
 26 24  1  0  0  0  0
 28 26  1  1  0  0  0
 28 20  1  0  0  0  0
 29 30  1  0  0  0  0
 31 32  1  0  0  0  0
 33 32  2  0  0  0  0
 34 36  1  0  0  0  0
 35 37  1  0  0  0  0
 35 36  2  0  0  0  0
 36 33  1  0  0  0  0
 37 31  2  0  0  0  0
M  END
>  <MODEL>
3

>  <REMARK>
 VINA RESULT:      -7.6      4.675      7.393
  Name = 
  2 active torsions:
  status: ('A' for Active; 'I' for Inactive)
    1  A    between atoms: C_21  and  C_27
    2  A    between atoms: C_23  and  C_30
                            x       y       z     vdW  Elec       q    Type
                         _______ _______ _______ _____ _____    ______ ____

>  <TORSDO>
F 2

$$$$
=
 OpenBabel11122411293D

 37 42  0  0  1  0  0  0  0  0999 V2000
  179.9320  178.8640  143.3110 C   0  0  1  0  0  0  0  0  0  0  0  0
  183.1900  178.9440  140.6980 C   0  0  0  0  0  0  0  0  0  0  0  0
  183.4560  176.4750  139.2730 C   0  0  0  0  0  1  0  0  0  0  0  0
  182.4660  178.8940  142.9750 C   0  0  0  0  0  0  0  0  0  0  0  0
  182.6030  178.7610  139.3330 C   0  0  1  0  0  3  0  0  0  0  0  0
  182.1980  178.9340  141.6180 C   0  0  0  0  0  0  0  0  0  0  0  0
  183.2940  177.7320  138.5350 N   0  0  0  0  0  0  0  0  0  0  0  0
  183.7720  178.8820  143.3780 N   0  0  0  0  0  0  0  0  0  0  0  0
  180.9300  178.7080  141.0580 N   0  0  0  0  0  0  0  0  0  0  0  0
  179.6210  180.3490  143.2430 C   0  0  0  0  0  1  0  0  0  0  0  0
  185.5980  178.6260  140.0780 C   0  0  0  0  0  2  0  0  0  0  0  0
  184.8000  178.8800  142.4690 C   0  0  0  0  0  3  0  0  0  0  0  0
  179.8260  178.2510  141.8960 C   0  0  0  0  0  2  0  0  0  0  0  0
  184.5270  178.9000  141.0870 C   0  0  0  0  0  0  0  0  0  0  0  0
  181.1160  178.4070  139.6350 C   0  0  1  0  0  3  0  0  0  0  0  0
  181.3330  178.6610  143.9390 C   0  0  0  0  0  2  0  0  0  0  0  0
  184.5870  178.2520  138.0220 C   0  0  1  0  0  3  0  0  0  0  0  0
  178.9840  178.2540  144.1310 O   0  0  0  0  0  1  0  0  0  0  0  0
  185.2680  179.2000  138.8360 O   0  0  0  0  0  0  0  0  0  0  0  0
  180.5940  180.6450  138.5490 C   0  0  0  0  0  2  0  0  0  0  0  0
  179.5060  181.4790  137.9480 C   0  0  0  0  0  0  0  0  0  0  0  0
  179.4870  180.2780  135.7990 C   0  0  0  0  0  0  0  0  0  0  0  0
  179.0830  181.2980  136.7300 N   0  0  0  0  0  0  0  0  0  0  0  0
  180.2950  179.0750  136.1900 C   0  0  1  0  0  3  0  0  0  0  0  0
  181.6480  179.3660  136.2300 F   0  0  0  0  0  0  0  0  0  0  0  0
  179.7980  178.4330  137.4870 C   0  0  0  0  0  2  0  0  0  0  0  0
  179.1320  180.3860  134.5970 O   0  0  0  0  0  0  0  0  0  0  0  0
  180.1330  179.2030  138.7740 C   0  0  1  0  0  3  0  0  0  0  0  0
  179.3460  182.7820  139.9850 O   0  0  0  0  0  1  0  0  0  0  0  0
  178.9380  182.5390  138.7180 N   0  0  0  0  0  2  0  0  0  0  0  0
  184.9360  176.4110  136.3130 C   0  0  0  0  0  3  0  0  0  0  0  0
  185.4600  177.2650  137.2950 C   0  0  0  0  0  0  0  0  0  0  0  0
  186.8270  177.2250  137.5870 C   0  0  0  0  0  3  0  0  0  0  0  0
  188.9880  176.2940  137.2010 F   0  0  0  0  0  0  0  0  0  0  0  0
  187.1380  175.4780  135.9380 C   0  0  0  0  0  3  0  0  0  0  0  0
  187.6640  176.3310  136.9120 C   0  0  0  0  0  0  0  0  0  0  0  0
  185.7730  175.5190  135.6390 C   0  0  0  0  0  3  0  0  0  0  0  0
  1 10  1  6  0  0  0
  1 16  1  0  0  0  0
  1 18  1  0  0  0  0
  2 14  2  0  0  0  0
  2  6  1  0  0  0  0
  4  8  1  0  0  0  0
  4 16  1  0  0  0  0
  5 15  1  0  0  0  0
  5  2  1  1  0  0  0
  6  4  2  0  0  0  0
  7  3  1  0  0  0  0
  7  5  1  0  0  0  0
  9  6  1  0  0  0  0
  9 13  1  0  0  0  0
 11 14  1  0  0  0  0
 12  8  2  0  0  0  0
 13  1  1  0  0  0  0
 14 12  1  0  0  0  0
 15  9  1  1  0  0  0
 17 32  1  1  0  0  0
 17  7  1  0  0  0  0
 17 19  1  0  0  0  0
 19 11  1  0  0  0  0
 20 28  1  0  0  0  0
 21 20  1  0  0  0  0
 21 30  1  0  0  0  0
 22 24  1  0  0  0  0
 22 23  1  0  0  0  0
 23 21  2  0  0  0  0
 24 25  1  1  0  0  0
 24 26  1  0  0  0  0
 27 22  2  0  0  0  0
 28 26  1  6  0  0  0
 28 15  1  0  0  0  0
 30 29  1  0  0  0  0
 31 32  1  0  0  0  0
 32 33  2  0  0  0  0
 35 36  2  0  0  0  0
 36 34  1  0  0  0  0
 36 33  1  0  0  0  0
 37 35  1  0  0  0  0
 37 31  2  0  0  0  0
M  END
>  <MODEL>
4

>  <REMARK>
 VINA RESULT:      -7.4      2.879      5.952
  Name = 
  2 active torsions:
  status: ('A' for Active; 'I' for Inactive)
    1  A    between atoms: C_21  and  C_27
    2  A    between atoms: C_23  and  C_30
                            x       y       z     vdW  Elec       q    Type
                         _______ _______ _______ _____ _____    ______ ____

>  <TORSDO>
F 2

$$$$
=
 OpenBabel11122411293D

 37 42  0  0  1  0  0  0  0  0999 V2000
  188.4910  177.8580  137.4300 C   0  0  1  0  0  0  0  0  0  0  0  0
  185.1280  178.0780  139.8980 C   0  0  0  0  0  0  0  0  0  0  0  0
  183.3080  180.1040  139.0190 C   0  0  0  0  0  1  0  0  0  0  0  0
  187.4780  178.4660  139.6980 C   0  0  0  0  0  0  0  0  0  0  0  0
  183.9670  177.7540  139.0110 C   0  0  1  0  0  3  0  0  0  0  0  0
  186.2730  178.0280  139.1780 C   0  0  0  0  0  0  0  0  0  0  0  0
  182.8550  178.7140  139.1340 N   0  0  0  0  0  0  0  0  0  0  0  0
  187.4980  178.9430  140.9780 N   0  0  0  0  0  0  0  0  0  0  0  0
  186.0550  177.7450  137.8200 N   0  0  0  0  0  0  0  0  0  0  0  0
  188.7510  176.3750  137.6260 C   0  0  0  0  0  1  0  0  0  0  0  0
  183.8250  178.9040  141.8750 C   0  0  0  0  0  2  0  0  0  0  0  0
  186.3520  179.0170  141.7300 C   0  0  0  0  0  3  0  0  0  0  0  0
  187.0810  178.0580  136.8300 C   0  0  0  0  0  2  0  0  0  0  0  0
  185.1210  178.5890  141.1950 C   0  0  0  0  0  0  0  0  0  0  0  0
  184.6080  177.7360  137.5910 C   0  0  1  0  0  3  0  0  0  0  0  0
  188.6670  178.5940  138.7820 C   0  0  0  0  0  2  0  0  0  0  0  0
  182.0960  178.4730  140.3870 C   0  0  1  0  0  3  0  0  0  0  0  0
  189.4320  178.3540  136.5290 O   0  0  0  0  0  1  0  0  0  0  0  0
  182.8320  177.9800  141.5010 O   0  0  0  0  0  0  0  0  0  0  0  0
  183.7990  175.3270  137.6570 C   0  0  0  0  0  2  0  0  0  0  0  0
  183.6630  174.0680  136.8570 C   0  0  0  0  0  0  0  0  0  0  0  0
  181.6940  174.8370  135.5950 C   0  0  0  0  0  0  0  0  0  0  0  0
  182.7040  173.8950  135.9930 N   0  0  0  0  0  0  0  0  0  0  0  0
  181.7460  176.2990  135.9350 C   0  0  1  0  0  3  0  0  0  0  0  0
  181.2580  176.5390  137.2080 F   0  0  0  0  0  0  0  0  0  0  0  0
  183.1370  176.9000  135.7210 C   0  0  0  0  0  2  0  0  0  0  0  0
  180.7220  174.4260  134.9090 O   0  0  0  0  0  0  0  0  0  0  0  0
  184.1910  176.5120  136.7710 C   0  0  1  0  0  3  0  0  0  0  0  0
  185.5970  173.1230  137.9690 O   0  0  0  0  0  1  0  0  0  0  0  0
  184.5870  173.0040  137.0750 N   0  0  0  0  0  2  0  0  0  0  0  0
  180.4530  180.2840  139.7130 C   0  0  0  0  0  3  0  0  0  0  0  0
  181.0070  179.4620  140.7050 C   0  0  0  0  0  0  0  0  0  0  0  0
  180.5200  179.5360  142.0150 C   0  0  0  0  0  3  0  0  0  0  0  0
  179.0300  180.5020  143.6050 F   0  0  0  0  0  0  0  0  0  0  0  0
  178.9490  181.2530  141.3440 C   0  0  0  0  0  3  0  0  0  0  0  0
  179.4950  180.4320  142.3340 C   0  0  0  0  0  0  0  0  0  0  0  0
  179.4290  181.1790  140.0330 C   0  0  0  0  0  3  0  0  0  0  0  0
  1 10  1  1  0  0  0
  1 16  1  0  0  0  0
  2 14  1  0  0  0  0
  3  7  1  0  0  0  0
  4  8  2  0  0  0  0
  5  7  1  0  0  0  0
  5  2  1  1  0  0  0
  6  4  1  0  0  0  0
  6  2  2  0  0  0  0
  7 17  1  0  0  0  0
  8 12  1  0  0  0  0
  9  6  1  0  0  0  0
 13  1  1  0  0  0  0
 13  9  1  0  0  0  0
 14 12  2  0  0  0  0
 14 11  1  0  0  0  0
 15  9  1  1  0  0  0
 15  5  1  0  0  0  0
 16  4  1  0  0  0  0
 17 32  1  1  0  0  0
 17 19  1  0  0  0  0
 18  1  1  0  0  0  0
 19 11  1  0  0  0  0
 21 30  1  0  0  0  0
 21 20  1  0  0  0  0
 22 24  1  0  0  0  0
 22 23  1  0  0  0  0
 23 21  2  0  0  0  0
 24 25  1  1  0  0  0
 26 24  1  0  0  0  0
 27 22  2  0  0  0  0
 28 26  1  1  0  0  0
 28 15  1  0  0  0  0
 28 20  1  0  0  0  0
 30 29  1  0  0  0  0
 31 37  2  0  0  0  0
 31 32  1  0  0  0  0
 32 33  2  0  0  0  0
 33 36  1  0  0  0  0
 35 36  2  0  0  0  0
 36 34  1  0  0  0  0
 37 35  1  0  0  0  0
M  END
>  <MODEL>
5

>  <REMARK>
 VINA RESULT:      -7.2      3.020      8.120
  Name = 
  2 active torsions:
  status: ('A' for Active; 'I' for Inactive)
    1  A    between atoms: C_21  and  C_27
    2  A    between atoms: C_23  and  C_30
                            x       y       z     vdW  Elec       q    Type
                         _______ _______ _______ _____ _____    ______ ____

>  <TORSDO>
F 2

$$$$
=
 OpenBabel11122411293D

 37 42  0  0  1  0  0  0  0  0999 V2000
  181.8140  180.0640  138.7250 C   0  0  1  0  0  0  0  0  0  0  0  0
  184.8020  177.2580  137.9210 C   0  0  0  0  0  0  0  0  0  0  0  0
  187.1610  178.5020  136.8830 C   0  0  0  0  0  1  0  0  0  0  0  0
  182.6640  178.1240  137.2930 C   0  0  0  0  0  0  0  0  0  0  0  0
  185.9440  177.6340  138.8120 C   0  0  1  0  0  3  0  0  0  0  0  0
  183.7760  178.1190  138.1160 C   0  0  0  0  0  0  0  0  0  0  0  0
  187.2370  177.6960  138.1060 N   0  0  0  0  0  0  0  0  0  0  0  0
  182.6090  177.2180  136.2720 N   0  0  0  0  0  0  0  0  0  0  0  0
  184.0790  179.1330  139.0390 N   0  0  0  0  0  0  0  0  0  0  0  0
  181.1710  179.3060  139.8740 C   0  0  0  0  0  1  0  0  0  0  0  0
  186.0210  175.6030  136.4850 C   0  0  0  0  0  2  0  0  0  0  0  0
  183.6390  176.3400  136.0410 C   0  0  0  0  0  3  0  0  0  0  0  0
  183.2910  180.3610  139.0680 C   0  0  0  0  0  2  0  0  0  0  0  0
  184.7790  176.3480  136.8660 C   0  0  0  0  0  0  0  0  0  0  0  0
  185.4960  179.0080  139.3950 C   0  0  1  0  0  3  0  0  0  0  0  0
  181.6640  179.2430  137.4200 C   0  0  0  0  0  2  0  0  0  0  0  0
  187.7560  176.3300  137.8470 C   0  0  1  0  0  3  0  0  0  0  0  0
  181.1420  181.2750  138.5670 O   0  0  0  0  0  1  0  0  0  0  0  0
  186.7910  175.3070  137.6260 O   0  0  0  0  0  0  0  0  0  0  0  0
  184.9250  178.0060  141.6600 C   0  0  0  0  0  2  0  0  0  0  0  0
  184.9000  178.2700  143.1340 C   0  0  0  0  0  0  0  0  0  0  0  0
  187.3190  177.9380  143.4450 C   0  0  0  0  0  0  0  0  0  0  0  0
  185.9700  178.1930  143.8710 N   0  0  0  0  0  0  0  0  0  0  0  0
  187.7540  177.9750  142.0080 C   0  0  1  0  0  3  0  0  0  0  0  0
  187.4810  176.7790  141.3660 F   0  0  0  0  0  0  0  0  0  0  0  0
  187.1860  179.1820  141.2570 C   0  0  0  0  0  2  0  0  0  0  0  0
  188.1900  177.6870  144.3180 O   0  0  0  0  0  0  0  0  0  0  0  0
  185.6910  179.0980  140.9100 C   0  0  1  0  0  3  0  0  0  0  0  0
  182.5090  178.6550  143.0490 O   0  0  0  0  0  1  0  0  0  0  0  0
  183.6560  178.5740  143.7630 N   0  0  0  0  0  2  0  0  0  0  0  0
  188.9620  175.9300  135.6520 C   0  0  0  0  0  3  0  0  0  0  0  0
  189.0090  176.2390  137.0190 C   0  0  0  0  0  0  0  0  0  0  0  0
  190.2430  176.5020  137.6260 C   0  0  0  0  0  3  0  0  0  0  0  0
  192.6130  176.6960  137.4690 F   0  0  0  0  0  0  0  0  0  0  0  0
  191.3700  176.1300  135.5150 C   0  0  0  0  0  3  0  0  0  0  0  0
  191.4210  176.4440  136.8760 C   0  0  0  0  0  0  0  0  0  0  0  0
  190.1400  175.8730  134.9030 C   0  0  0  0  0  3  0  0  0  0  0  0
  1 13  1  0  0  0  0
  1 10  1  1  0  0  0
  2  6  1  0  0  0  0
  3  7  1  0  0  0  0
  4 16  1  0  0  0  0
  4  6  2  0  0  0  0
  5  2  1  6  0  0  0
  5 15  1  0  0  0  0
  6  9  1  0  0  0  0
  7  5  1  0  0  0  0
  8  4  1  0  0  0  0
  9 13  1  0  0  0  0
 11 14  1  0  0  0  0
 11 19  1  0  0  0  0
 12  8  2  0  0  0  0
 12 14  1  0  0  0  0
 14  2  2  0  0  0  0
 15  9  1  1  0  0  0
 15 28  1  0  0  0  0
 16  1  1  0  0  0  0
 17 32  1  6  0  0  0
 17  7  1  0  0  0  0
 18  1  1  0  0  0  0
 19 17  1  0  0  0  0
 20 21  1  0  0  0  0
 21 30  1  0  0  0  0
 21 23  2  0  0  0  0
 22 23  1  0  0  0  0
 22 27  2  0  0  0  0
 24 25  1  6  0  0  0
 24 22  1  0  0  0  0
 26 24  1  0  0  0  0
 28 26  1  6  0  0  0
 28 20  1  0  0  0  0
 29 30  1  0  0  0  0
 31 32  1  0  0  0  0
 32 33  2  0  0  0  0
 35 36  2  0  0  0  0
 36 34  1  0  0  0  0
 36 33  1  0  0  0  0
 37 35  1  0  0  0  0
 37 31  2  0  0  0  0
M  END
>  <MODEL>
6

>  <REMARK>
 VINA RESULT:      -6.5      2.769      4.102
  Name = 
  2 active torsions:
  status: ('A' for Active; 'I' for Inactive)
    1  A    between atoms: C_21  and  C_27
    2  A    between atoms: C_23  and  C_30
                            x       y       z     vdW  Elec       q    Type
                         _______ _______ _______ _____ _____    ______ ____

>  <TORSDO>
F 2

$$$$
=
 OpenBabel11122411293D

 37 42  0  0  1  0  0  0  0  0999 V2000
  184.8060  179.0100  139.2170 C   0  0  1  0  0  0  0  0  0  0  0  0
  187.9310  176.3850  138.3240 C   0  0  0  0  0  0  0  0  0  0  0  0
  190.2170  177.7770  137.3090 C   0  0  0  0  0  1  0  0  0  0  0  0
  185.7480  177.1550  137.7300 C   0  0  0  0  0  0  0  0  0  0  0  0
  189.0580  176.7960  139.2200 C   0  0  1  0  0  3  0  0  0  0  0  0
  186.8640  177.1860  138.5470 C   0  0  0  0  0  0  0  0  0  0  0  0
  190.3410  176.9450  138.5100 N   0  0  0  0  0  0  0  0  0  0  0  0
  185.7340  176.2750  136.6850 N   0  0  0  0  0  0  0  0  0  0  0  0
  187.1190  178.1900  139.4960 N   0  0  0  0  0  0  0  0  0  0  0  0
  184.2110  178.1890  140.3480 C   0  0  0  0  0  1  0  0  0  0  0  0
  189.2260  174.8340  136.8390 C   0  0  0  0  0  2  0  0  0  0  0  0
  186.8060  175.4580  136.4250 C   0  0  0  0  0  3  0  0  0  0  0  0
  186.2680  179.3750  139.5610 C   0  0  0  0  0  2  0  0  0  0  0  0
  187.9490  175.5030  137.2460 C   0  0  0  0  0  0  0  0  0  0  0  0
  188.5420  178.1290  139.8410 C   0  0  1  0  0  3  0  0  0  0  0  0
  184.6920  178.2170  137.8910 C   0  0  0  0  0  2  0  0  0  0  0  0
  190.9280  175.6140  138.2120 C   0  0  1  0  0  3  0  0  0  0  0  0
  184.0710  180.1880  139.0950 O   0  0  0  0  0  1  0  0  0  0  0  0
  190.0170  174.5490  137.9680 O   0  0  0  0  0  0  0  0  0  0  0  0
  187.9190  177.1300  142.0930 C   0  0  0  0  0  2  0  0  0  0  0  0
  187.9070  177.3750  143.5700 C   0  0  0  0  0  0  0  0  0  0  0  0
  190.3050  176.9120  143.8760 C   0  0  0  0  0  0  0  0  0  0  0  0
  188.9710  177.2330  144.3060 N   0  0  0  0  0  0  0  0  0  0  0  0
  190.7410  176.9440  142.4400 C   0  0  1  0  0  3  0  0  0  0  0  0
  190.4060  175.7730  141.7830 F   0  0  0  0  0  0  0  0  0  0  0  0
  190.2390  178.1890  141.7040 C   0  0  0  0  0  2  0  0  0  0  0  0
  191.1610  176.6040  144.7450 O   0  0  0  0  0  0  0  0  0  0  0  0
  188.7420  178.1890  141.3570 C   0  0  1  0  0  3  0  0  0  0  0  0
  185.5400  177.8880  143.4910 O   0  0  0  0  0  1  0  0  0  0  0  0
  186.6810  177.7370  144.2040 N   0  0  0  0  0  2  0  0  0  0  0  0
  192.1610  176.0020  136.0290 C   0  0  0  0  0  3  0  0  0  0  0  0
  192.1800  175.6110  137.3770 C   0  0  0  0  0  0  0  0  0  0  0  0
  193.3910  175.2400  137.9700 C   0  0  0  0  0  3  0  0  0  0  0  0
  195.7420  174.8830  137.8030 F   0  0  0  0  0  0  0  0  0  0  0  0
  194.5480  175.6320  135.8790 C   0  0  0  0  0  3  0  0  0  0  0  0
  194.5720  175.2470  137.2230 C   0  0  0  0  0  0  0  0  0  0  0  0
  193.3420  176.0090  135.2830 C   0  0  0  0  0  3  0  0  0  0  0  0
  1 13  1  0  0  0  0
  1 10  1  1  0  0  0
  2  6  1  0  0  0  0
  3  7  1  0  0  0  0
  4 16  1  0  0  0  0
  4  6  2  0  0  0  0
  5  2  1  6  0  0  0
  5 15  1  0  0  0  0
  6  9  1  0  0  0  0
  7  5  1  0  0  0  0
  8  4  1  0  0  0  0
  9 13  1  0  0  0  0
 11 14  1  0  0  0  0
 11 19  1  0  0  0  0
 12  8  2  0  0  0  0
 12 14  1  0  0  0  0
 14  2  2  0  0  0  0
 15  9  1  1  0  0  0
 15 28  1  0  0  0  0
 16  1  1  0  0  0  0
 17 32  1  6  0  0  0
 17  7  1  0  0  0  0
 18  1  1  0  0  0  0
 19 17  1  0  0  0  0
 20 21  1  0  0  0  0
 21 30  1  0  0  0  0
 21 23  2  0  0  0  0
 22 23  1  0  0  0  0
 22 27  2  0  0  0  0
 24 25  1  6  0  0  0
 24 22  1  0  0  0  0
 26 24  1  0  0  0  0
 28 26  1  6  0  0  0
 28 20  1  0  0  0  0
 29 30  1  0  0  0  0
 31 32  1  0  0  0  0
 32 33  2  0  0  0  0
 35 36  2  0  0  0  0
 36 34  1  0  0  0  0
 36 33  1  0  0  0  0
 37 35  1  0  0  0  0
 37 31  2  0  0  0  0
M  END
>  <MODEL>
7

>  <REMARK>
 VINA RESULT:      -6.3      4.315      6.392
  Name = 
  2 active torsions:
  status: ('A' for Active; 'I' for Inactive)
    1  A    between atoms: C_21  and  C_27
    2  A    between atoms: C_23  and  C_30
                            x       y       z     vdW  Elec       q    Type
                         _______ _______ _______ _____ _____    ______ ____

>  <TORSDO>
F 2

$$$$
=
 OpenBabel11122411293D

 37 42  0  0  1  0  0  0  0  0999 V2000
  188.1450  177.1630  147.7320 C   0  0  1  0  0  0  0  0  0  0  0  0
  190.0750  177.8110  144.0840 C   0  0  0  0  0  0  0  0  0  0  0  0
  189.5280  175.7120  142.2170 C   0  0  0  0  0  1  0  0  0  0  0  0
  190.3240  177.2670  146.3980 C   0  0  0  0  0  0  0  0  0  0  0  0
  188.9770  177.9300  143.0740 C   0  0  1  0  0  3  0  0  0  0  0  0
  189.5390  177.6010  145.3090 C   0  0  0  0  0  0  0  0  0  0  0  0
  189.1960  177.0990  141.8760 N   0  0  0  0  0  0  0  0  0  0  0  0
  191.6750  177.1690  146.2190 N   0  0  0  0  0  0  0  0  0  0  0  0
  188.1380  177.5010  145.2860 N   0  0  0  0  0  0  0  0  0  0  0  0
  187.9660  178.6280  148.0940 C   0  0  0  0  0  1  0  0  0  0  0  0
  191.9940  177.6380  142.4800 C   0  0  0  0  0  2  0  0  0  0  0  0
  192.2470  177.3650  144.9860 C   0  0  0  0  0  3  0  0  0  0  0  0
  187.4270  176.8730  146.3950 C   0  0  0  0  0  2  0  0  0  0  0  0
  191.4460  177.6850  143.8730 C   0  0  0  0  0  0  0  0  0  0  0  0
  187.7110  177.5170  143.8830 C   0  0  1  0  0  3  0  0  0  0  0  0
  189.6570  176.8290  147.6750 C   0  0  0  0  0  2  0  0  0  0  0  0
  190.2150  177.7190  140.9920 C   0  0  1  0  0  3  0  0  0  0  0  0
  187.5560  176.3890  148.7300 O   0  0  0  0  0  1  0  0  0  0  0  0
  191.2460  178.4680  141.6250 O   0  0  0  0  0  0  0  0  0  0  0  0
  185.4770  177.9100  142.7370 C   0  0  0  0  0  2  0  0  0  0  0  0
  184.4870  178.9570  142.3310 C   0  0  0  0  0  0  0  0  0  0  0  0
  183.5310  179.2230  144.5840 C   0  0  0  0  0  0  0  0  0  0  0  0
  183.6370  179.4730  143.1720 N   0  0  0  0  0  0  0  0  0  0  0  0
  184.5810  178.5000  145.3770 C   0  0  1  0  0  3  0  0  0  0  0  0
  184.4380  177.1280  145.2730 F   0  0  0  0  0  0  0  0  0  0  0  0
  185.9980  178.9660  145.0320 C   0  0  0  0  0  2  0  0  0  0  0  0
  182.5160  179.6450  145.1960 O   0  0  0  0  0  0  0  0  0  0  0  0
  186.5400  178.4800  143.6780 C   0  0  1  0  0  3  0  0  0  0  0  0
  185.2910  178.8680  140.0470 O   0  0  0  0  0  1  0  0  0  0  0  0
  184.4400  179.3780  140.9680 N   0  0  0  0  0  2  0  0  0  0  0  0
  189.6840  176.3520  138.9220 C   0  0  0  0  0  3  0  0  0  0  0  0
  190.6320  176.9140  139.7900 C   0  0  0  0  0  0  0  0  0  0  0  0
  191.9950  176.7530  139.5210 C   0  0  0  0  0  3  0  0  0  0  0  0
  193.7320  175.8710  138.1470 F   0  0  0  0  0  0  0  0  0  0  0  0
  191.4620  175.4640  137.5420 C   0  0  0  0  0  3  0  0  0  0  0  0
  192.4100  176.0260  138.4010 C   0  0  0  0  0  0  0  0  0  0  0  0
  190.0990  175.6260  137.8030 C   0  0  0  0  0  3  0  0  0  0  0  0
  1 10  1  1  0  0  0
  1 18  1  0  0  0  0
  2  6  1  0  0  0  0
  4 16  1  0  0  0  0
  5 15  1  0  0  0  0
  5  2  1  1  0  0  0
  6  4  2  0  0  0  0
  7  3  1  0  0  0  0
  7  5  1  0  0  0  0
  8  4  1  0  0  0  0
  9  6  1  0  0  0  0
  9 13  1  0  0  0  0
 11 14  1  0  0  0  0
 12  8  2  0  0  0  0
 13  1  1  0  0  0  0
 14  2  2  0  0  0  0
 14 12  1  0  0  0  0
 15  9  1  1  0  0  0
 16  1  1  0  0  0  0
 17 32  1  1  0  0  0
 17 19  1  0  0  0  0
 17  7  1  0  0  0  0
 19 11  1  0  0  0  0
 21 20  1  0  0  0  0
 21 23  2  0  0  0  0
 22 27  2  0  0  0  0
 22 24  1  0  0  0  0
 23 22  1  0  0  0  0
 24 25  1  6  0  0  0
 26 24  1  0  0  0  0
 28 20  1  1  0  0  0
 28 15  1  0  0  0  0
 28 26  1  0  0  0  0
 29 30  1  0  0  0  0
 30 21  1  0  0  0  0
 31 32  1  0  0  0  0
 33 32  2  0  0  0  0
 34 36  1  0  0  0  0
 35 37  1  0  0  0  0
 35 36  2  0  0  0  0
 36 33  1  0  0  0  0
 37 31  2  0  0  0  0
M  END
>  <MODEL>
8

>  <REMARK>
 VINA RESULT:      -6.2      3.934      7.574
  Name = 
  2 active torsions:
  status: ('A' for Active; 'I' for Inactive)
    1  A    between atoms: C_21  and  C_27
    2  A    between atoms: C_23  and  C_30
                            x       y       z     vdW  Elec       q    Type
                         _______ _______ _______ _____ _____    ______ ____

>  <TORSDO>
F 2

$$$$
=
 OpenBabel11122411293D

 37 42  0  0  1  0  0  0  0  0999 V2000
  187.9720  178.7240  137.7810 C   0  0  1  0  0  0  0  0  0  0  0  0
  188.8620  176.9580  141.4600 C   0  0  0  0  0  0  0  0  0  0  0  0
  189.1570  178.9180  143.5240 C   0  0  0  0  0  1  0  0  0  0  0  0
  189.6390  177.4690  139.2580 C   0  0  0  0  0  0  0  0  0  0  0  0
  187.7230  177.3240  142.3590 C   0  0  1  0  0  3  0  0  0  0  0  0
  188.6570  177.4890  140.2330 C   0  0  0  0  0  0  0  0  0  0  0  0
  188.1570  177.8540  143.6640 N   0  0  0  0  0  0  0  0  0  0  0  0
  190.8340  176.8780  139.5540 N   0  0  0  0  0  0  0  0  0  0  0  0
  187.4870  178.2630  140.1580 N   0  0  0  0  0  0  0  0  0  0  0  0
  187.1590  177.5660  137.2270 C   0  0  0  0  0  1  0  0  0  0  0  0
  190.4030  176.0520  143.2190 C   0  0  0  0  0  2  0  0  0  0  0  0
  191.0770  176.3400  140.7940 C   0  0  0  0  0  3  0  0  0  0  0  0
  187.3160  179.2360  139.0830 C   0  0  0  0  0  2  0  0  0  0  0  0
  190.0850  176.3780  141.7920 C   0  0  0  0  0  0  0  0  0  0  0  0
  186.9280  178.3610  141.5100 C   0  0  1  0  0  3  0  0  0  0  0  0
  189.4360  178.2660  137.9970 C   0  0  0  0  0  2  0  0  0  0  0  0
  188.6290  176.7530  144.5420 C   0  0  1  0  0  3  0  0  0  0  0  0
  187.9620  179.7550  136.8430 O   0  0  0  0  0  1  0  0  0  0  0  0
  189.2440  175.6400  143.9030 O   0  0  0  0  0  0  0  0  0  0  0  0
  184.6300  179.1710  142.2360 C   0  0  0  0  0  2  0  0  0  0  0  0
  183.2090  178.7540  142.4570 C   0  0  0  0  0  0  0  0  0  0  0  0
  182.6120  178.7770  140.0690 C   0  0  0  0  0  0  0  0  0  0  0  0
  182.3610  178.6300  141.4770 N   0  0  0  0  0  0  0  0  0  0  0  0
  183.9900  178.8470  139.4780 C   0  0  1  0  0  3  0  0  0  0  0  0
  184.5090  180.1280  139.5540 F   0  0  0  0  0  0  0  0  0  0  0  0
  184.9350  177.7990  140.0720 C   0  0  0  0  0  2  0  0  0  0  0  0
  181.6300  178.8330  139.2850 O   0  0  0  0  0  0  0  0  0  0  0  0
  185.4220  178.0870  141.5010 C   0  0  1  0  0  3  0  0  0  0  0  0
  183.5860  178.6500  144.8490 O   0  0  0  0  0  1  0  0  0  0  0  0
  182.7530  178.5250  143.7900 N   0  0  0  0  0  2  0  0  0  0  0  0
  188.4870  177.9140  146.7920 C   0  0  0  0  0  3  0  0  0  0  0  0
  189.2220  177.1630  145.8620 C   0  0  0  0  0  0  0  0  0  0  0  0
  190.5230  176.7570  146.1770 C   0  0  0  0  0  3  0  0  0  0  0  0
  192.3530  176.7130  147.7030 F   0  0  0  0  0  0  0  0  0  0  0  0
  190.3580  177.8600  148.3270 C   0  0  0  0  0  3  0  0  0  0  0  0
  191.0910  177.1070  147.4060 C   0  0  0  0  0  0  0  0  0  0  0  0
  189.0550  178.2630  148.0200 C   0  0  0  0  0  3  0  0  0  0  0  0
  1 10  1  6  0  0  0
  1 16  1  0  0  0  0
  1 13  1  0  0  0  0
  2 14  1  0  0  0  0
  3  7  1  0  0  0  0
  4  8  2  0  0  0  0
  4  6  1  0  0  0  0
  5  2  1  6  0  0  0
  5  7  1  0  0  0  0
  6  2  2  0  0  0  0
  7 17  1  0  0  0  0
  8 12  1  0  0  0  0
  9  6  1  0  0  0  0
 11 19  1  0  0  0  0
 12 14  2  0  0  0  0
 13  9  1  0  0  0  0
 14 11  1  0  0  0  0
 15  9  1  6  0  0  0
 15  5  1  0  0  0  0
 16  4  1  0  0  0  0
 17 32  1  1  0  0  0
 18  1  1  0  0  0  0
 19 17  1  0  0  0  0
 20 21  1  0  0  0  0
 21 30  1  0  0  0  0
 22 23  1  0  0  0  0
 23 21  2  0  0  0  0
 24 25  1  1  0  0  0
 24 22  1  0  0  0  0
 24 26  1  0  0  0  0
 27 22  2  0  0  0  0
 28 26  1  6  0  0  0
 28 15  1  0  0  0  0
 28 20  1  0  0  0  0
 30 29  1  0  0  0  0
 31 37  1  0  0  0  0
 32 33  1  0  0  0  0
 32 31  2  0  0  0  0
 33 36  2  0  0  0  0
 36 34  1  0  0  0  0
 36 35  1  0  0  0  0
 37 35  2  0  0  0  0
M  END
>  <MODEL>
9

>  <REMARK>
 VINA RESULT:      -6.0      3.730      8.557
  Name = 
  2 active torsions:
  status: ('A' for Active; 'I' for Inactive)
    1  A    between atoms: C_21  and  C_27
    2  A    between atoms: C_23  and  C_30
                            x       y       z     vdW  Elec       q    Type
                         _______ _______ _______ _____ _____    ______ ____

>  <TORSDO>
F 2

$$$$
