=
 OpenBabel11122411403D

 37 43  0  0  1  0  0  0  0  0999 V2000
  186.4980  178.2520  137.6330 C   0  0  0  0  0  2  0  0  0  0  0  0
  182.3960  177.6440  139.8450 C   0  0  0  0  0  0  0  0  0  0  0  0
  185.4920  179.3980  142.0360 C   0  0  1  0  0  3  0  0  0  0  0  0
  187.0070  177.4990  136.4770 N   0  0  0  0  0  0  0  0  0  0  0  0
  188.9030  178.2910  140.9650 C   0  0  0  0  0  2  0  0  0  0  0  0
  183.1330  178.5570  141.8510 C   0  0  1  0  0  3  0  0  0  0  0  0
  186.3720  178.4270  141.2870 C   0  0  0  0  0  0  0  0  0  0  0  0
  189.3110  178.2770  137.1460 C   0  0  0  0  0  0  0  0  0  0  0  0
  184.2010  179.4340  141.2000 C   0  0  2  0  0  3  0  0  0  0  0  0
  187.6820  177.8320  141.7800 C   0  0  2  0  0  3  0  0  0  0  0  0
  182.7140  179.1070  143.2130 C   0  0  0  0  0  2  0  0  0  0  0  0
  188.4500  177.1860  136.5490 C   0  0  0  0  0  2  0  0  0  0  0  0
  184.5640  178.8000  139.9480 N   0  0  0  0  0  0  0  0  0  0  0  0
  181.1900  177.5400  138.9360 C   0  0  0  0  0  1  0  0  0  0  0  0
  185.5180  177.7910  144.0700 C   0  0  0  0  0  3  0  0  0  0  0  0
  183.8930  179.6960  144.0110 C   0  0  0  0  0  2  0  0  0  0  0  0
  183.5190  178.3290  139.0450 C   0  0  0  0  0  2  0  0  0  0  0  0
  189.8050  178.1480  138.5580 C   0  0  0  0  0  2  0  0  0  0  0  0
  188.6030  178.1240  139.4830 C   0  0  1  0  0  3  0  0  0  0  0  0
  185.2680  179.1830  143.5580 C   0  0  2  0  0  3  0  0  0  0  0  0
  185.8410  178.1880  140.0800 C   0  0  0  0  0  0  0  0  0  0  0  0
  182.0210  178.4030  140.9910 O   0  0  0  0  0  0  0  0  0  0  0  0
  187.8800  177.8790  143.3030 C   0  0  1  0  0  3  0  0  0  0  0  0
  182.8060  176.2230  140.2230 C   0  0  0  0  0  1  0  0  0  0  0  0
  187.8110  176.9800  139.2580 O   0  0  0  0  0  0  0  0  0  0  0  0
  189.5930  179.2660  136.4890 O   0  0  0  0  0  0  0  0  0  0  0  0
  186.5070  177.4250  138.9380 C   0  0  2  0  0  3  0  0  0  0  0  0
  186.7180  177.2090  143.9830 C   0  0  0  0  0  3  0  0  0  0  0  0
  189.7430  176.2630  142.8900 C   0  0  0  0  0  3  0  0  0  0  0  0
  189.1590  177.2210  143.7280 C   0  0  0  0  0  0  0  0  0  0  0  0
  189.7770  177.5440  144.9460 C   0  0  0  0  0  3  0  0  0  0  0  0
  191.5890  177.2420  146.5560 N   0  0  0  0  0  1  0  0  0  0  0  0
  191.5440  175.9560  144.4800 C   0  0  0  0  0  3  0  0  0  0  0  0
  190.9670  176.9120  145.3200 C   0  0  0  0  0  0  0  0  0  0  0  0
  190.9330  175.6320  143.2660 C   0  0  0  0  0  3  0  0  0  0  0  0
  185.5150  177.8700  134.5940 C   0  0  0  0  0  1  0  0  0  0  0  0
  186.7860  178.3120  135.2920 C   0  0  0  0  0  2  0  0  0  0  0  0
  2 24  1  0  0  0  0
  2 22  1  0  0  0  0
  3  7  1  6  0  0  0
  3 20  1  0  0  0  0
  4 12  1  0  0  0  0
  4  1  1  0  0  0  0
  6 11  1  1  0  0  0
  7 10  1  0  0  0  0
  8 18  1  0  0  0  0
  9 13  1  6  0  0  0
  9  6  1  0  0  0  0
  9  3  1  0  0  0  0
 10  5  1  6  0  0  0
 10 23  1  0  0  0  0
 11 16  1  0  0  0  0
 12  8  1  0  0  0  0
 13 21  1  0  0  0  0
 14  2  1  0  0  0  0
 17  2  1  0  0  0  0
 17 13  1  0  0  0  0
 19 18  1  6  0  0  0
 19  5  1  0  0  0  0
 20 16  1  6  0  0  0
 20 15  1  0  0  0  0
 21  7  2  0  0  0  0
 22  6  1  0  0  0  0
 23 30  1  6  0  0  0
 23 28  1  0  0  0  0
 25 19  1  0  0  0  0
 26  8  2  0  0  0  0
 27  1  1  6  0  0  0
 27 25  1  0  0  0  0
 27 21  1  0  0  0  0
 28 15  2  0  0  0  0
 29 35  2  0  0  0  0
 29 30  1  0  0  0  0
 30 31  2  0  0  0  0
 31 34  1  0  0  0  0
 33 34  2  0  0  0  0
 34 32  1  0  0  0  0
 35 33  1  0  0  0  0
 36 37  1  0  0  0  0
 37  4  1  0  0  0  0
M  END
>  <MODEL>
1

>  <REMARK>
 VINA RESULT:      -7.9      0.000      0.000
  Name = 
  2 active torsions:
  status: ('A' for Active; 'I' for Inactive)
    1  A    between atoms: N_4  and  C_37
    2  A    between atoms: C_23  and  C_30
                            x       y       z     vdW  Elec       q    Type
                         _______ _______ _______ _____ _____    ______ ____

>  <TORSDO>
F 2

$$$$
=
 OpenBabel11122411403D

 37 43  0  0  1  0  0  0  0  0999 V2000
  190.6110  176.2270  136.7380 C   0  0  0  0  0  2  0  0  0  0  0  0
  185.9230  175.9020  136.6350 C   0  0  0  0  0  0  0  0  0  0  0  0
  187.5820  178.5460  139.4130 C   0  0  1  0  0  3  0  0  0  0  0  0
  191.5840  175.2160  136.3000 N   0  0  0  0  0  0  0  0  0  0  0  0
  190.9740  177.5220  140.6210 C   0  0  0  0  0  2  0  0  0  0  0  0
  185.5960  177.4510  138.3360 C   0  0  1  0  0  3  0  0  0  0  0  0
  188.6500  177.4890  139.5580 C   0  0  0  0  0  0  0  0  0  0  0  0
  193.2730  176.3920  137.7580 C   0  0  0  0  0  0  0  0  0  0  0  0
  186.9050  178.1930  138.0780 C   0  0  2  0  0  3  0  0  0  0  0  0
  189.4790  177.2100  140.8030 C   0  0  2  0  0  3  0  0  0  0  0  0
  184.5800  178.3420  139.0480 C   0  0  0  0  0  2  0  0  0  0  0  0
  192.7620  175.0890  137.1830 C   0  0  0  0  0  2  0  0  0  0  0  0
  187.8100  177.2500  137.4520 N   0  0  0  0  0  0  0  0  0  0  0  0
  185.3470  175.4030  135.3280 C   0  0  0  0  0  1  0  0  0  0  0  0
  186.4520  177.6430  141.5650 C   0  0  0  0  0  3  0  0  0  0  0  0
  185.2250  179.2630  140.1020 C   0  0  0  0  0  2  0  0  0  0  0  0
  187.3430  176.4230  136.3440 C   0  0  0  0  0  2  0  0  0  0  0  0
  192.9660  176.7490  139.1850 C   0  0  0  0  0  2  0  0  0  0  0  0
  191.4610  176.8840  139.3280 C   0  0  1  0  0  3  0  0  0  0  0  0
  186.5980  178.7810  140.5920 C   0  0  2  0  0  3  0  0  0  0  0  0
  188.7950  176.8420  138.3940 C   0  0  0  0  0  0  0  0  0  0  0  0
  185.0710  176.9300  137.1310 O   0  0  0  0  0  0  0  0  0  0  0  0
  188.8740  177.7370  142.1140 C   0  0  1  0  0  3  0  0  0  0  0  0
  185.9820  174.7120  137.5900 C   0  0  0  0  0  1  0  0  0  0  0  0
  190.8160  175.6500  139.1050 O   0  0  0  0  0  0  0  0  0  0  0  0
  193.9190  177.1590  137.0630 O   0  0  0  0  0  0  0  0  0  0  0  0
  189.8940  175.8410  138.0500 C   0  0  2  0  0  3  0  0  0  0  0  0
  187.4840  177.1890  142.2830 C   0  0  0  0  0  3  0  0  0  0  0  0
  189.6360  178.1690  144.4560 C   0  0  0  0  0  3  0  0  0  0  0  0
  189.7070  177.3730  143.3070 C   0  0  0  0  0  0  0  0  0  0  0  0
  190.5540  176.2530  143.2920 C   0  0  0  0  0  3  0  0  0  0  0  0
  192.1800  174.8040  144.3970 N   0  0  0  0  0  1  0  0  0  0  0  0
  191.2480  176.7380  145.5600 C   0  0  0  0  0  3  0  0  0  0  0  0
  191.3220  175.9380  144.4170 C   0  0  0  0  0  0  0  0  0  0  0  0
  190.4050  177.8530  145.5800 C   0  0  0  0  0  3  0  0  0  0  0  0
  193.2560  174.7610  134.5940 C   0  0  0  0  0  1  0  0  0  0  0  0
  192.0570  175.6040  134.9810 C   0  0  0  0  0  2  0  0  0  0  0  0
  2 22  1  0  0  0  0
  2 24  1  0  0  0  0
  3  7  1  1  0  0  0
  3 20  1  0  0  0  0
  4  1  1  0  0  0  0
  4 12  1  0  0  0  0
  6 11  1  6  0  0  0
  7 10  1  0  0  0  0
  8 18  1  0  0  0  0
  9 13  1  6  0  0  0
  9  6  1  0  0  0  0
  9  3  1  0  0  0  0
 10  5  1  6  0  0  0
 10 23  1  0  0  0  0
 11 16  1  0  0  0  0
 12  8  1  0  0  0  0
 13 21  1  0  0  0  0
 14  2  1  0  0  0  0
 15 28  2  0  0  0  0
 17  2  1  0  0  0  0
 17 13  1  0  0  0  0
 19 18  1  1  0  0  0
 19  5  1  0  0  0  0
 20 16  1  6  0  0  0
 20 15  1  0  0  0  0
 21  7  2  0  0  0  0
 22  6  1  0  0  0  0
 23 28  1  0  0  0  0
 23 30  1  1  0  0  0
 25 19  1  0  0  0  0
 26  8  2  0  0  0  0
 27  1  1  6  0  0  0
 27 21  1  0  0  0  0
 27 25  1  0  0  0  0
 29 35  1  0  0  0  0
 30 29  2  0  0  0  0
 31 30  1  0  0  0  0
 31 34  2  0  0  0  0
 32 34  1  0  0  0  0
 33 35  2  0  0  0  0
 34 33  1  0  0  0  0
 36 37  1  0  0  0  0
 37  4  1  0  0  0  0
M  END
>  <MODEL>
2

>  <REMARK>
 VINA RESULT:      -7.4      2.581      4.025
  Name = 
  2 active torsions:
  status: ('A' for Active; 'I' for Inactive)
    1  A    between atoms: N_4  and  C_37
    2  A    between atoms: C_23  and  C_30
                            x       y       z     vdW  Elec       q    Type
                         _______ _______ _______ _____ _____    ______ ____

>  <TORSDO>
F 2

$$$$
=
 OpenBabel11122411403D

 37 43  0  0  1  0  0  0  0  0999 V2000
  186.3400  177.8330  136.7650 C   0  0  0  0  0  2  0  0  0  0  0  0
  181.7820  176.7040  136.5470 C   0  0  0  0  0  0  0  0  0  0  0  0
  182.9190  179.4490  139.4850 C   0  0  1  0  0  3  0  0  0  0  0  0
  187.4800  177.0300  136.3000 N   0  0  0  0  0  0  0  0  0  0  0  0
  186.4230  178.9680  140.7130 C   0  0  0  0  0  2  0  0  0  0  0  0
  181.1680  178.0830  138.3140 C   0  0  1  0  0  3  0  0  0  0  0  0
  184.1530  178.5880  139.6020 C   0  0  0  0  0  0  0  0  0  0  0  0
  188.9190  178.4040  137.8490 C   0  0  0  0  0  0  0  0  0  0  0  0
  182.3310  179.0540  138.1200 C   0  0  2  0  0  3  0  0  0  0  0  0
  185.0030  178.3930  140.8480 C   0  0  2  0  0  3  0  0  0  0  0  0
  180.0040  178.7460  139.0470 C   0  0  0  0  0  2  0  0  0  0  0  0
  188.6500  177.0640  137.2010 C   0  0  0  0  0  2  0  0  0  0  0  0
  183.3950  178.3160  137.4680 N   0  0  0  0  0  0  0  0  0  0  0  0
  181.3180  176.1810  135.2050 C   0  0  0  0  0  1  0  0  0  0  0  0
  181.9380  178.2540  141.5660 C   0  0  0  0  0  3  0  0  0  0  0  0
  180.4650  179.7100  140.1580 C   0  0  0  0  0  2  0  0  0  0  0  0
  183.0920  177.4780  136.3120 C   0  0  0  0  0  2  0  0  0  0  0  0
  188.5370  178.6280  139.2840 C   0  0  0  0  0  2  0  0  0  0  0  0
  187.0300  178.4920  139.4020 C   0  0  1  0  0  3  0  0  0  0  0  0
  181.8950  179.4490  140.6530 C   0  0  2  0  0  3  0  0  0  0  0  0
  184.4230  178.0370  138.4100 C   0  0  0  0  0  0  0  0  0  0  0  0
  180.7570  177.5420  137.0740 O   0  0  0  0  0  0  0  0  0  0  0  0
  184.2990  178.7380  142.1700 C   0  0  1  0  0  3  0  0  0  0  0  0
  182.0360  175.4950  137.4450 C   0  0  0  0  0  1  0  0  0  0  0  0
  186.6130  177.1790  139.1050 O   0  0  0  0  0  0  0  0  0  0  0  0
  189.4300  179.3060  137.2060 O   0  0  0  0  0  0  0  0  0  0  0  0
  185.6850  177.2600  138.0410 C   0  0  2  0  0  3  0  0  0  0  0  0
  183.0240  177.9490  142.2830 C   0  0  0  0  0  3  0  0  0  0  0  0
  186.3020  177.6580  143.2070 C   0  0  0  0  0  3  0  0  0  0  0  0
  185.1680  178.4630  143.3620 C   0  0  0  0  0  0  0  0  0  0  0  0
  184.8630  178.9950  144.6250 C   0  0  0  0  0  3  0  0  0  0  0  0
  185.3750  179.2590  146.9990 N   0  0  0  0  0  1  0  0  0  0  0  0
  186.8180  177.9140  145.5590 C   0  0  0  0  0  3  0  0  0  0  0  0
  185.6880  178.7200  145.7210 C   0  0  0  0  0  0  0  0  0  0  0  0
  187.1250  177.3840  144.3030 C   0  0  0  0  0  3  0  0  0  0  0  0
  189.2100  176.9350  134.5940 C   0  0  0  0  0  1  0  0  0  0  0  0
  187.8940  177.5610  135.0110 C   0  0  0  0  0  2  0  0  0  0  0  0
  2 22  1  0  0  0  0
  2 24  1  0  0  0  0
  3  7  1  1  0  0  0
  3 20  1  0  0  0  0
  4  1  1  0  0  0  0
  4 12  1  0  0  0  0
  6 11  1  6  0  0  0
  7 10  1  0  0  0  0
  8 18  1  0  0  0  0
  9 13  1  6  0  0  0
  9  6  1  0  0  0  0
  9  3  1  0  0  0  0
 10  5  1  6  0  0  0
 10 23  1  0  0  0  0
 11 16  1  0  0  0  0
 12  8  1  0  0  0  0
 13 21  1  0  0  0  0
 14  2  1  0  0  0  0
 15 28  2  0  0  0  0
 17  2  1  0  0  0  0
 17 13  1  0  0  0  0
 19 18  1  1  0  0  0
 19  5  1  0  0  0  0
 20 16  1  6  0  0  0
 20 15  1  0  0  0  0
 21  7  2  0  0  0  0
 22  6  1  0  0  0  0
 23 28  1  0  0  0  0
 23 30  1  1  0  0  0
 25 19  1  0  0  0  0
 26  8  2  0  0  0  0
 27  1  1  6  0  0  0
 27 21  1  0  0  0  0
 27 25  1  0  0  0  0
 29 30  2  0  0  0  0
 29 35  1  0  0  0  0
 30 31  1  0  0  0  0
 31 34  2  0  0  0  0
 33 34  1  0  0  0  0
 34 32  1  0  0  0  0
 35 33  2  0  0  0  0
 36 37  1  0  0  0  0
 37  4  1  0  0  0  0
M  END
>  <MODEL>
3

>  <REMARK>
 VINA RESULT:      -7.0      2.290      3.561
  Name = 
  2 active torsions:
  status: ('A' for Active; 'I' for Inactive)
    1  A    between atoms: N_4  and  C_37
    2  A    between atoms: C_23  and  C_30
                            x       y       z     vdW  Elec       q    Type
                         _______ _______ _______ _____ _____    ______ ____

>  <TORSDO>
F 2

$$$$
=
 OpenBabel11122411403D

 37 43  0  0  1  0  0  0  0  0999 V2000
  186.4710  177.9510  140.5530 C   0  0  0  0  0  2  0  0  0  0  0  0
  184.3580  179.2210  144.5560 C   0  0  0  0  0  0  0  0  0  0  0  0
  181.8910  178.0070  141.4090 C   0  0  1  0  0  3  0  0  0  0  0  0
  187.7980  178.3660  140.0760 N   0  0  0  0  0  0  0  0  0  0  0  0
  183.3230  178.7060  138.0220 C   0  0  0  0  0  2  0  0  0  0  0  0
  182.2100  178.8360  143.7580 C   0  0  1  0  0  3  0  0  0  0  0  0
  182.8940  178.7270  140.5420 C   0  0  0  0  0  0  0  0  0  0  0  0
  187.0270  177.7240  137.7620 C   0  0  0  0  0  0  0  0  0  0  0  0
  182.6460  177.7920  142.7320 C   0  0  2  0  0  3  0  0  0  0  0  0
  182.6140  179.3930  139.2030 C   0  0  2  0  0  3  0  0  0  0  0  0
  180.7390  178.6670  144.1330 C   0  0  0  0  0  2  0  0  0  0  0  0
  187.8570  178.6470  138.6260 C   0  0  0  0  0  2  0  0  0  0  0  0
  184.0310  178.0720  142.4060 N   0  0  0  0  0  0  0  0  0  0  0  0
  185.2230  179.1210  145.7930 C   0  0  0  0  0  1  0  0  0  0  0  0
  180.3440  180.0820  141.2750 C   0  0  0  0  0  3  0  0  0  0  0  0
  179.8550  178.2720  142.9350 C   0  0  0  0  0  2  0  0  0  0  0  0
  184.9910  178.3220  143.4770 C   0  0  0  0  0  2  0  0  0  0  0  0
  185.7130  178.1990  137.2120 C   0  0  0  0  0  2  0  0  0  0  0  0
  184.7870  178.4930  138.3770 C   0  0  1  0  0  3  0  0  0  0  0  0
  180.4700  178.6130  141.5700 C   0  0  2  0  0  3  0  0  0  0  0  0
  184.1040  178.6610  141.1140 C   0  0  0  0  0  0  0  0  0  0  0  0
  183.0430  178.7930  144.8990 O   0  0  0  0  0  0  0  0  0  0  0  0
  181.1380  179.7340  138.9470 C   0  0  1  0  0  3  0  0  0  0  0  0
  184.3750  180.6800  144.1050 C   0  0  0  0  0  1  0  0  0  0  0  0
  185.2740  179.5620  139.1560 O   0  0  0  0  0  0  0  0  0  0  0  0
  187.4140  176.5920  137.5240 O   0  0  0  0  0  0  0  0  0  0  0  0
  185.4260  179.0850  140.4790 C   0  0  2  0  0  3  0  0  0  0  0  0
  180.6170  180.5890  140.0690 C   0  0  0  0  0  3  0  0  0  0  0  0
  180.6410  179.6970  136.4970 C   0  0  0  0  0  3  0  0  0  0  0  0
  180.9410  180.4450  137.6410 C   0  0  0  0  0  0  0  0  0  0  0  0
  181.0520  181.8420  137.5450 C   0  0  0  0  0  3  0  0  0  0  0  0
  180.9820  183.8930  136.2220 N   0  0  0  0  0  1  0  0  0  0  0  0
  180.5690  181.7260  135.1760 C   0  0  0  0  0  3  0  0  0  0  0  0
  180.8670  182.4790  136.3140 C   0  0  0  0  0  0  0  0  0  0  0  0
  180.4560  180.3360  135.2660 C   0  0  0  0  0  3  0  0  0  0  0  0
  190.0890  177.6060  139.7820 C   0  0  0  0  0  1  0  0  0  0  0  0
  188.7250  177.2810  140.3580 C   0  0  0  0  0  2  0  0  0  0  0  0
  2 22  1  0  0  0  0
  2 14  1  0  0  0  0
  3  7  1  6  0  0  0
  3 20  1  0  0  0  0
  3  9  1  0  0  0  0
  4 37  1  0  0  0  0
  4  1  1  0  0  0  0
  5 19  1  0  0  0  0
  6 11  1  1  0  0  0
  6 22  1  0  0  0  0
  7 21  2  0  0  0  0
  8 12  1  0  0  0  0
  9 13  1  6  0  0  0
  9  6  1  0  0  0  0
 10  5  1  6  0  0  0
 10  7  1  0  0  0  0
 12  4  1  0  0  0  0
 13 17  1  0  0  0  0
 16 11  1  0  0  0  0
 17  2  1  0  0  0  0
 18  8  1  0  0  0  0
 19 18  1  6  0  0  0
 19 25  1  0  0  0  0
 20 15  1  1  0  0  0
 20 16  1  0  0  0  0
 21 13  1  0  0  0  0
 23 30  1  6  0  0  0
 23 10  1  0  0  0  0
 23 28  1  0  0  0  0
 24  2  1  0  0  0  0
 25 27  1  0  0  0  0
 26  8  2  0  0  0  0
 27  1  1  6  0  0  0
 27 21  1  0  0  0  0
 28 15  2  0  0  0  0
 29 30  1  0  0  0  0
 31 30  2  0  0  0  0
 32 34  1  0  0  0  0
 33 35  1  0  0  0  0
 33 34  2  0  0  0  0
 34 31  1  0  0  0  0
 35 29  2  0  0  0  0
 36 37  1  0  0  0  0
M  END
>  <MODEL>
4

>  <REMARK>
 VINA RESULT:      -6.9      2.869      7.378
  Name = 
  2 active torsions:
  status: ('A' for Active; 'I' for Inactive)
    1  A    between atoms: N_4  and  C_37
    2  A    between atoms: C_23  and  C_30
                            x       y       z     vdW  Elec       q    Type
                         _______ _______ _______ _____ _____    ______ ____

>  <TORSDO>
F 2

$$$$
=
 OpenBabel11122411403D

 37 43  0  0  1  0  0  0  0  0999 V2000
  190.0280  177.1510  139.5360 C   0  0  0  0  0  2  0  0  0  0  0  0
  190.8250  178.5840  143.9410 C   0  0  0  0  0  0  0  0  0  0  0  0
  187.0500  176.9930  143.1160 C   0  0  1  0  0  3  0  0  0  0  0  0
  190.7050  177.6090  138.3140 N   0  0  0  0  0  0  0  0  0  0  0  0
  185.9360  177.5250  139.5830 C   0  0  0  0  0  2  0  0  0  0  0  0
  188.7070  178.0110  144.7050 C   0  0  1  0  0  3  0  0  0  0  0  0
  187.2030  177.7060  141.7950 C   0  0  0  0  0  0  0  0  0  0  0  0
  188.7070  176.7520  137.0370 C   0  0  0  0  0  0  0  0  0  0  0  0
  188.4890  176.9230  143.6560 C   0  0  2  0  0  3  0  0  0  0  0  0
  186.0770  178.2530  140.9300 C   0  0  2  0  0  3  0  0  0  0  0  0
  187.8310  177.7830  145.9360 C   0  0  0  0  0  2  0  0  0  0  0  0
  189.8050  177.7850  137.1550 C   0  0  0  0  0  2  0  0  0  0  0  0
  189.3190  177.2610  142.5170 N   0  0  0  0  0  0  0  0  0  0  0  0
  192.2830  178.6280  144.3440 C   0  0  0  0  0  1  0  0  0  0  0  0
  185.5830  178.9560  143.9620 C   0  0  0  0  0  3  0  0  0  0  0  0
  186.4300  177.2470  145.5850 C   0  0  0  0  0  2  0  0  0  0  0  0
  190.7110  177.6470  142.7240 C   0  0  0  0  0  2  0  0  0  0  0  0
  187.3040  177.1040  137.4430 C   0  0  0  0  0  2  0  0  0  0  0  0
  187.3050  177.4280  138.9250 C   0  0  1  0  0  3  0  0  0  0  0  0
  186.0040  177.5220  144.1350 C   0  0  2  0  0  3  0  0  0  0  0  0
  188.5000  177.7560  141.4650 C   0  0  0  0  0  0  0  0  0  0  0  0
  190.0740  178.1040  145.0520 O   0  0  0  0  0  0  0  0  0  0  0  0
  184.7490  178.4850  141.6690 C   0  0  1  0  0  3  0  0  0  0  0  0
  190.4150  180.0030  143.5570 C   0  0  0  0  0  1  0  0  0  0  0  0
  188.0730  178.5790  139.1940 O   0  0  0  0  0  0  0  0  0  0  0  0
  188.9590  175.6310  136.6270 O   0  0  0  0  0  0  0  0  0  0  0  0
  189.0730  178.2120  140.1250 C   0  0  2  0  0  3  0  0  0  0  0  0
  184.9810  179.3870  142.8500 C   0  0  0  0  0  3  0  0  0  0  0  0
  184.1010  179.7520  139.6130 C   0  0  0  0  0  3  0  0  0  0  0  0
  183.7030  179.0840  140.7770 C   0  0  0  0  0  0  0  0  0  0  0  0
  182.3360  178.9880  141.0870 C   0  0  0  0  0  3  0  0  0  0  0  0
  179.9990  179.4600  140.5600 N   0  0  0  0  0  1  0  0  0  0  0  0
  181.7860  180.2260  139.0810 C   0  0  0  0  0  3  0  0  0  0  0  0
  181.3820  179.5590  140.2400 C   0  0  0  0  0  0  0  0  0  0  0  0
  183.1440  180.3230  138.7670 C   0  0  0  0  0  3  0  0  0  0  0  0
  192.9180  176.7530  138.8460 C   0  0  0  0  0  1  0  0  0  0  0  0
  191.6970  176.6060  137.9590 C   0  0  0  0  0  2  0  0  0  0  0  0
  2 14  1  0  0  0  0
  2 22  1  0  0  0  0
  3  7  1  6  0  0  0
  3  9  1  0  0  0  0
  3 20  1  0  0  0  0
  4  1  1  0  0  0  0
  6 22  1  0  0  0  0
  6 11  1  1  0  0  0
  8 12  1  0  0  0  0
  8 18  1  0  0  0  0
  9 13  1  6  0  0  0
  9  6  1  0  0  0  0
 10  5  1  6  0  0  0
 10 23  1  0  0  0  0
 10  7  1  0  0  0  0
 12  4  1  0  0  0  0
 13 17  1  0  0  0  0
 16 11  1  0  0  0  0
 17  2  1  0  0  0  0
 19 18  1  6  0  0  0
 19 25  1  0  0  0  0
 19  5  1  0  0  0  0
 20 15  1  1  0  0  0
 20 16  1  0  0  0  0
 21  7  2  0  0  0  0
 21 13  1  0  0  0  0
 23 30  1  6  0  0  0
 23 28  1  0  0  0  0
 24  2  1  0  0  0  0
 25 27  1  0  0  0  0
 26  8  2  0  0  0  0
 27  1  1  6  0  0  0
 27 21  1  0  0  0  0
 28 15  2  0  0  0  0
 29 30  1  0  0  0  0
 30 31  2  0  0  0  0
 33 34  2  0  0  0  0
 34 32  1  0  0  0  0
 34 31  1  0  0  0  0
 35 33  1  0  0  0  0
 35 29  2  0  0  0  0
 37  4  1  0  0  0  0
 37 36  1  0  0  0  0
M  END
>  <MODEL>
5

>  <REMARK>
 VINA RESULT:      -6.7      2.283      6.544
  Name = 
  2 active torsions:
  status: ('A' for Active; 'I' for Inactive)
    1  A    between atoms: N_4  and  C_37
    2  A    between atoms: C_23  and  C_30
                            x       y       z     vdW  Elec       q    Type
                         _______ _______ _______ _____ _____    ______ ____

>  <TORSDO>
F 2

$$$$
=
 OpenBabel11122411403D

 37 43  0  0  1  0  0  0  0  0999 V2000
  190.5690  176.8600  138.0630 C   0  0  0  0  0  2  0  0  0  0  0  0
  186.1320  176.2000  136.6580 C   0  0  0  0  0  0  0  0  0  0  0  0
  186.7500  178.9010  139.7850 C   0  0  1  0  0  3  0  0  0  0  0  0
  191.6980  175.9300  137.9160 N   0  0  0  0  0  0  0  0  0  0  0  0
  189.7390  178.1010  141.8920 C   0  0  0  0  0  2  0  0  0  0  0  0
  185.2300  177.6880  138.1980 C   0  0  1  0  0  3  0  0  0  0  0  0
  187.8110  177.9220  140.2240 C   0  0  0  0  0  0  0  0  0  0  0  0
  192.8210  177.1970  139.7860 C   0  0  0  0  0  0  0  0  0  0  0  0
  186.5000  178.5270  138.3140 C   0  0  2  0  0  3  0  0  0  0  0  0
  188.2800  177.6790  141.6500 C   0  0  2  0  0  3  0  0  0  0  0  0
  183.9930  178.4890  138.5980 C   0  0  0  0  0  2  0  0  0  0  0  0
  192.5890  175.8720  139.0930 C   0  0  0  0  0  2  0  0  0  0  0  0
  187.6120  177.6640  137.9670 N   0  0  0  0  0  0  0  0  0  0  0  0
  185.9810  175.6870  135.2420 C   0  0  0  0  0  1  0  0  0  0  0  0
  185.1370  177.8780  141.5380 C   0  0  0  0  0  3  0  0  0  0  0  0
  184.2480  179.4330  139.7880 C   0  0  0  0  0  2  0  0  0  0  0  0
  187.5340  176.8280  136.7740 C   0  0  0  0  0  2  0  0  0  0  0  0
  192.1040  177.5020  141.0690 C   0  0  0  0  0  2  0  0  0  0  0  0
  190.6130  177.5250  140.7880 C   0  0  1  0  0  3  0  0  0  0  0  0
  185.4630  179.0420  140.6430 C   0  0  2  0  0  3  0  0  0  0  0  0
  188.3220  177.3100  139.1470 C   0  0  0  0  0  0  0  0  0  0  0  0
  185.1010  177.1540  136.8950 O   0  0  0  0  0  0  0  0  0  0  0  0
  187.2970  178.1350  142.7400 C   0  0  1  0  0  3  0  0  0  0  0  0
  186.0110  174.9990  137.5930 C   0  0  0  0  0  1  0  0  0  0  0  0
  190.1500  176.2530  140.3950 O   0  0  0  0  0  0  0  0  0  0  0  0
  193.5760  178.0210  139.2970 O   0  0  0  0  0  0  0  0  0  0  0  0
  189.5460  176.3980  139.1240 C   0  0  2  0  0  3  0  0  0  0  0  0
  185.9590  177.4850  142.5160 C   0  0  0  0  0  3  0  0  0  0  0  0
  186.8910  177.8510  145.1910 C   0  0  0  0  0  3  0  0  0  0  0  0
  187.7890  177.8090  144.1190 C   0  0  0  0  0  0  0  0  0  0  0  0
  189.1310  177.4650  144.3530 C   0  0  0  0  0  3  0  0  0  0  0  0
  190.9240  176.8230  145.8810 N   0  0  0  0  0  1  0  0  0  0  0  0
  188.6620  177.2140  146.7140 C   0  0  0  0  0  3  0  0  0  0  0  0
  189.5640  177.1690  145.6480 C   0  0  0  0  0  0  0  0  0  0  0  0
  187.3260  177.5550  146.4860 C   0  0  0  0  0  3  0  0  0  0  0  0
  193.6880  175.4670  136.5970 C   0  0  0  0  0  1  0  0  0  0  0  0
  192.4880  176.3770  136.7800 C   0  0  0  0  0  2  0  0  0  0  0  0
  2 17  1  0  0  0  0
  2 22  1  0  0  0  0
  2 24  1  0  0  0  0
  3  7  1  1  0  0  0
  3 20  1  0  0  0  0
  4  1  1  0  0  0  0
  4 12  1  0  0  0  0
  6  9  1  0  0  0  0
  6 11  1  6  0  0  0
  7 10  1  0  0  0  0
  8 18  1  0  0  0  0
  9 13  1  1  0  0  0
  9  3  1  0  0  0  0
 10  5  1  1  0  0  0
 10 23  1  0  0  0  0
 11 16  1  0  0  0  0
 12  8  1  0  0  0  0
 13 21  1  0  0  0  0
 14  2  1  0  0  0  0
 15 28  2  0  0  0  0
 17 13  1  0  0  0  0
 19 18  1  1  0  0  0
 19  5  1  0  0  0  0
 20 16  1  6  0  0  0
 20 15  1  0  0  0  0
 21  7  2  0  0  0  0
 22  6  1  0  0  0  0
 23 30  1  1  0  0  0
 25 19  1  0  0  0  0
 26  8  2  0  0  0  0
 27  1  1  6  0  0  0
 27 21  1  0  0  0  0
 27 25  1  0  0  0  0
 28 23  1  0  0  0  0
 29 35  1  0  0  0  0
 30 31  1  0  0  0  0
 30 29  2  0  0  0  0
 31 34  2  0  0  0  0
 34 32  1  0  0  0  0
 34 33  1  0  0  0  0
 35 33  2  0  0  0  0
 36 37  1  0  0  0  0
 37  4  1  0  0  0  0
M  END
>  <MODEL>
6

>  <REMARK>
 VINA RESULT:      -6.7      2.388      4.011
  Name = 
  2 active torsions:
  status: ('A' for Active; 'I' for Inactive)
    1  A    between atoms: N_4  and  C_37
    2  A    between atoms: C_23  and  C_30
                            x       y       z     vdW  Elec       q    Type
                         _______ _______ _______ _____ _____    ______ ____

>  <TORSDO>
F 2

$$$$
=
 OpenBabel11122411403D

 37 43  0  0  1  0  0  0  0  0999 V2000
  188.9540  177.7500  139.7360 C   0  0  0  0  0  2  0  0  0  0  0  0
  190.7830  178.7570  143.9480 C   0  0  0  0  0  0  0  0  0  0  0  0
  187.0550  176.8700  143.9000 C   0  0  1  0  0  3  0  0  0  0  0  0
  189.2450  178.4120  138.4570 N   0  0  0  0  0  0  0  0  0  0  0  0
  185.0050  177.6720  140.8720 C   0  0  0  0  0  2  0  0  0  0  0  0
  188.9930  177.8770  145.1390 C   0  0  1  0  0  3  0  0  0  0  0  0
  186.7960  177.7390  142.6930 C   0  0  0  0  0  0  0  0  0  0  0  0
  187.0490  177.4920  137.6250 C   0  0  0  0  0  0  0  0  0  0  0  0
  188.5860  176.8960  144.0420 C   0  0  2  0  0  3  0  0  0  0  0  0
  185.4430  178.2550  142.2260 C   0  0  2  0  0  3  0  0  0  0  0  0
  188.4950  177.4190  146.5090 C   0  0  0  0  0  2  0  0  0  0  0  0
  188.0590  178.6180  137.6000 C   0  0  0  0  0  2  0  0  0  0  0  0
  189.0560  177.4470  142.7860 N   0  0  0  0  0  0  0  0  0  0  0  0
  192.2880  178.9130  143.9680 C   0  0  0  0  0  1  0  0  0  0  0  0
  185.7220  178.5560  145.3500 C   0  0  0  0  0  3  0  0  0  0  0  0
  187.0950  176.7780  146.4560 C   0  0  0  0  0  2  0  0  0  0  0  0
  190.4200  177.9560  142.6830 C   0  0  0  0  0  2  0  0  0  0  0  0
  185.7830  177.6440  138.4180 C   0  0  0  0  0  2  0  0  0  0  0  0
  186.1530  177.7970  139.8810 C   0  0  1  0  0  3  0  0  0  0  0  0
  186.2800  177.1660  145.2140 C   0  0  2  0  0  3  0  0  0  0  0  0
  187.9520  177.9660  142.0540 C   0  0  0  0  0  0  0  0  0  0  0  0
  190.3920  178.0770  145.1370 O   0  0  0  0  0  0  0  0  0  0  0  0
  184.3460  178.2580  143.3020 C   0  0  1  0  0  3  0  0  0  0  0  0
  190.1800  180.1580  143.8770 C   0  0  0  0  0  1  0  0  0  0  0  0
  186.8760  178.9870  140.1010 O   0  0  0  0  0  0  0  0  0  0  0  0
  187.2670  176.4580  137.0160 O   0  0  0  0  0  0  0  0  0  0  0  0
  188.1120  178.6280  140.6880 C   0  0  2  0  0  3  0  0  0  0  0  0
  184.8150  179.0420  144.4970 C   0  0  0  0  0  3  0  0  0  0  0  0
  182.0730  179.2140  143.7150 C   0  0  0  0  0  3  0  0  0  0  0  0
  183.0590  178.8360  142.7950 C   0  0  0  0  0  0  0  0  0  0  0  0
  182.8240  179.0030  141.4210 C   0  0  0  0  0  3  0  0  0  0  0  0
  181.3790  179.7070  139.5820 N   0  0  0  0  0  1  0  0  0  0  0  0
  180.6330  179.9150  141.8980 C   0  0  0  0  0  3  0  0  0  0  0  0
  181.6130  179.5410  140.9750 C   0  0  0  0  0  0  0  0  0  0  0  0
  180.8630  179.7520  143.2670 C   0  0  0  0  0  3  0  0  0  0  0  0
  190.5920  176.3920  138.5930 C   0  0  0  0  0  1  0  0  0  0  0  0
  190.1790  177.5680  137.7290 C   0  0  0  0  0  2  0  0  0  0  0  0
  2 14  1  0  0  0  0
  2 22  1  0  0  0  0
  3  7  1  6  0  0  0
  3  9  1  0  0  0  0
  3 20  1  0  0  0  0
  4  1  1  0  0  0  0
  6 11  1  1  0  0  0
  8 18  1  0  0  0  0
  9 13  1  6  0  0  0
  9  6  1  0  0  0  0
 10  5  1  6  0  0  0
 10  7  1  0  0  0  0
 10 23  1  0  0  0  0
 12  8  1  0  0  0  0
 12  4  1  0  0  0  0
 16 11  1  0  0  0  0
 17 13  1  0  0  0  0
 17  2  1  0  0  0  0
 19 18  1  6  0  0  0
 19 25  1  0  0  0  0
 19  5  1  0  0  0  0
 20 15  1  1  0  0  0
 20 16  1  0  0  0  0
 21  7  2  0  0  0  0
 21 13  1  0  0  0  0
 22  6  1  0  0  0  0
 23 30  1  6  0  0  0
 23 28  1  0  0  0  0
 24  2  1  0  0  0  0
 25 27  1  0  0  0  0
 26  8  2  0  0  0  0
 27  1  1  6  0  0  0
 27 21  1  0  0  0  0
 28 15  2  0  0  0  0
 30 29  2  0  0  0  0
 31 30  1  0  0  0  0
 32 34  1  0  0  0  0
 33 35  2  0  0  0  0
 34 31  2  0  0  0  0
 34 33  1  0  0  0  0
 35 29  1  0  0  0  0
 37  4  1  0  0  0  0
 37 36  1  0  0  0  0
M  END
>  <MODEL>
7

>  <REMARK>
 VINA RESULT:      -6.6      2.176      6.515
  Name = 
  2 active torsions:
  status: ('A' for Active; 'I' for Inactive)
    1  A    between atoms: N_4  and  C_37
    2  A    between atoms: C_23  and  C_30
                            x       y       z     vdW  Elec       q    Type
                         _______ _______ _______ _____ _____    ______ ____

>  <TORSDO>
F 2

$$$$
=
 OpenBabel11122411403D

 37 43  0  0  1  0  0  0  0  0999 V2000
  190.3120  176.8680  141.7110 C   0  0  0  0  0  2  0  0  0  0  0  0
  190.9660  175.1300  137.3930 C   0  0  0  0  0  0  0  0  0  0  0  0
  188.5970  178.5560  137.7220 C   0  0  1  0  0  3  0  0  0  0  0  0
  190.3990  176.1410  142.9870 N   0  0  0  0  0  0  0  0  0  0  0  0
  186.7650  178.8090  140.9760 C   0  0  0  0  0  2  0  0  0  0  0  0
  189.6800  176.7570  136.3450 C   0  0  1  0  0  3  0  0  0  0  0  0
  188.0970  177.9080  138.9900 C   0  0  0  0  0  0  0  0  0  0  0  0
  189.0030  177.9880  143.9880 C   0  0  0  0  0  0  0  0  0  0  0  0
  189.9090  177.8090  137.4280 C   0  0  2  0  0  3  0  0  0  0  0  0
  186.7230  178.0930  139.6160 C   0  0  2  0  0  3  0  0  0  0  0  0
  189.3070  177.4010  135.0110 C   0  0  0  0  0  2  0  0  0  0  0  0
  189.3600  176.5180  143.9680 C   0  0  0  0  0  2  0  0  0  0  0  0
  190.2020  177.0970  138.6560 N   0  0  0  0  0  0  0  0  0  0  0  0
  192.2080  174.2800  137.2290 C   0  0  0  0  0  1  0  0  0  0  0  0
  186.4750  177.7070  136.4980 C   0  0  0  0  0  3  0  0  0  0  0  0
  188.3890  178.6280  135.1730 C   0  0  0  0  0  2  0  0  0  0  0  0
  191.1680  176.0030  138.6460 C   0  0  0  0  0  2  0  0  0  0  0  0
  187.7350  178.4560  143.3350 C   0  0  0  0  0  2  0  0  0  0  0  0
  187.8230  178.1520  141.8510 C   0  0  1  0  0  3  0  0  0  0  0  0
  187.6330  178.6670  136.5080 C   0  0  2  0  0  3  0  0  0  0  0  0
  189.0740  177.1590  139.5200 C   0  0  0  0  0  0  0  0  0  0  0  0
  190.8100  175.9180  136.2170 O   0  0  0  0  0  0  0  0  0  0  0  0
  185.6410  178.6130  138.6570 C   0  0  1  0  0  3  0  0  0  0  0  0
  189.7880  174.1800  137.5930 C   0  0  0  0  0  1  0  0  0  0  0  0
  187.8710  176.7620  141.6190 O   0  0  0  0  0  0  0  0  0  0  0  0
  189.7490  178.7930  144.5200 O   0  0  0  0  0  0  0  0  0  0  0  0
  189.0560  176.4960  140.8940 C   0  0  2  0  0  3  0  0  0  0  0  0
  185.5480  177.7050  137.4610 C   0  0  0  0  0  3  0  0  0  0  0  0
  183.9740  177.8100  140.3390 C   0  0  0  0  0  3  0  0  0  0  0  0
  184.2980  178.7110  139.3190 C   0  0  0  0  0  0  0  0  0  0  0  0
  183.3640  179.6860  138.9330 C   0  0  0  0  0  3  0  0  0  0  0  0
  181.1740  180.7400  139.1690 N   0  0  0  0  0  1  0  0  0  0  0  0
  181.8000  178.8490  140.5810 C   0  0  0  0  0  3  0  0  0  0  0  0
  182.1180  179.7530  139.5640 C   0  0  0  0  0  0  0  0  0  0  0  0
  182.7280  177.8780  140.9690 C   0  0  0  0  0  3  0  0  0  0  0  0
  191.7170  176.0030  145.0260 C   0  0  0  0  0  1  0  0  0  0  0  0
  191.6950  176.4400  143.5740 C   0  0  0  0  0  2  0  0  0  0  0  0
  1  4  1  0  0  0  0
  2 24  1  0  0  0  0
  2 17  1  0  0  0  0
  3  7  1  1  0  0  0
  4 37  1  0  0  0  0
  4 12  1  0  0  0  0
  6 11  1  6  0  0  0
  6  9  1  0  0  0  0
  7 21  2  0  0  0  0
  7 10  1  0  0  0  0
  8 26  2  0  0  0  0
  9  3  1  0  0  0  0
  9 13  1  1  0  0  0
 10  5  1  1  0  0  0
 11 16  1  0  0  0  0
 12  8  1  0  0  0  0
 13 21  1  0  0  0  0
 14  2  1  0  0  0  0
 15 20  1  0  0  0  0
 15 28  2  0  0  0  0
 17 13  1  0  0  0  0
 18  8  1  0  0  0  0
 19  5  1  6  0  0  0
 19 18  1  0  0  0  0
 20 16  1  6  0  0  0
 20  3  1  0  0  0  0
 21 27  1  0  0  0  0
 22  6  1  0  0  0  0
 22  2  1  0  0  0  0
 23 30  1  1  0  0  0
 23 10  1  0  0  0  0
 25 19  1  0  0  0  0
 27 25  1  0  0  0  0
 27  1  1  1  0  0  0
 28 23  1  0  0  0  0
 29 35  1  0  0  0  0
 30 29  2  0  0  0  0
 31 30  1  0  0  0  0
 31 34  2  0  0  0  0
 32 34  1  0  0  0  0
 33 35  2  0  0  0  0
 34 33  1  0  0  0  0
 37 36  1  0  0  0  0
M  END
>  <MODEL>
8

>  <REMARK>
 VINA RESULT:      -6.4      2.279      7.859
  Name = 
  2 active torsions:
  status: ('A' for Active; 'I' for Inactive)
    1  A    between atoms: N_4  and  C_37
    2  A    between atoms: C_23  and  C_30
                            x       y       z     vdW  Elec       q    Type
                         _______ _______ _______ _____ _____    ______ ____

>  <TORSDO>
F 2

$$$$
=
 OpenBabel11122411403D

 37 43  0  0  1  0  0  0  0  0999 V2000
  184.3790  177.8720  137.5070 C   0  0  0  0  0  2  0  0  0  0  0  0
  179.8530  177.0830  138.4990 C   0  0  0  0  0  0  0  0  0  0  0  0
  181.9030  179.7490  140.9790 C   0  0  1  0  0  3  0  0  0  0  0  0
  185.3010  176.9840  136.7820 N   0  0  0  0  0  0  0  0  0  0  0  0
  185.5620  179.0160  141.2730 C   0  0  0  0  0  2  0  0  0  0  0  0
  179.8170  178.5110  140.3310 C   0  0  1  0  0  3  0  0  0  0  0  0
  183.0610  178.7990  140.7930 C   0  0  0  0  0  0  0  0  0  0  0  0
  187.1850  178.2560  137.8750 C   0  0  0  0  0  0  0  0  0  0  0  0
  180.9550  179.3920  139.8220 C   0  0  2  0  0  3  0  0  0  0  0  0
  184.1890  178.5480  141.7830 C   0  0  2  0  0  3  0  0  0  0  0  0
  178.9320  179.2620  141.3250 C   0  0  0  0  0  2  0  0  0  0  0  0
  186.6640  176.9360  137.3490 C   0  0  0  0  0  2  0  0  0  0  0  0
  181.7590  178.5750  138.9350 N   0  0  0  0  0  0  0  0  0  0  0  0
  179.0210  176.5900  137.3350 C   0  0  0  0  0  1  0  0  0  0  0  0
  181.4130  178.6400  143.2700 C   0  0  0  0  0  3  0  0  0  0  0  0
  179.7310  180.1940  142.2560 C   0  0  0  0  0  2  0  0  0  0  0  0
  181.1090  177.7570  137.9160 C   0  0  0  0  0  2  0  0  0  0  0  0
  187.2040  178.5140  139.3540 C   0  0  0  0  0  2  0  0  0  0  0  0
  185.7740  178.4900  139.8600 C   0  0  1  0  0  3  0  0  0  0  0  0
  181.2190  179.8300  142.3710 C   0  0  2  0  0  3  0  0  0  0  0  0
  182.9740  178.2240  139.5860 C   0  0  0  0  0  0  0  0  0  0  0  0
  179.0620  177.9970  139.2530 O   0  0  0  0  0  0  0  0  0  0  0  0
  183.8780  178.9500  143.2330 C   0  0  1  0  0  3  0  0  0  0  0  0
  180.2450  175.8620  139.3290 C   0  0  0  0  0  1  0  0  0  0  0  0
  185.2030  177.2100  139.7120 O   0  0  0  0  0  0  0  0  0  0  0  0
  187.5740  179.1140  137.1010 O   0  0  0  0  0  0  0  0  0  0  0  0
  184.0390  177.3550  138.9220 C   0  0  2  0  0  3  0  0  0  0  0  0
  182.6230  178.2580  143.6900 C   0  0  0  0  0  3  0  0  0  0  0  0
  185.0020  179.1590  145.4560 C   0  0  0  0  0  3  0  0  0  0  0  0
  185.0040  178.6170  144.1660 C   0  0  0  0  0  0  0  0  0  0  0  0
  186.0570  177.7760  143.7700 C   0  0  0  0  0  3  0  0  0  0  0  0
  188.1610  176.6340  144.2520 N   0  0  0  0  0  1  0  0  0  0  0  0
  187.0880  178.0300  145.9440 C   0  0  0  0  0  3  0  0  0  0  0  0
  187.0960  177.4850  144.6580 C   0  0  0  0  0  0  0  0  0  0  0  0
  186.0420  178.8670  146.3440 C   0  0  0  0  0  3  0  0  0  0  0  0
  184.0780  177.2980  134.7040 C   0  0  0  0  0  1  0  0  0  0  0  0
  185.4030  177.4780  135.4180 C   0  0  0  0  0  2  0  0  0  0  0  0
  2 22  1  0  0  0  0
  2 24  1  0  0  0  0
  3  7  1  1  0  0  0
  3 20  1  0  0  0  0
  4 12  1  0  0  0  0
  4  1  1  0  0  0  0
  6 11  1  1  0  0  0
  7 10  1  0  0  0  0
  8 18  1  0  0  0  0
  9 13  1  6  0  0  0
  9  6  1  0  0  0  0
  9  3  1  0  0  0  0
 10  5  1  6  0  0  0
 10 23  1  0  0  0  0
 11 16  1  0  0  0  0
 12  8  1  0  0  0  0
 13 21  1  0  0  0  0
 14  2  1  0  0  0  0
 15 28  2  0  0  0  0
 17  2  1  0  0  0  0
 17 13  1  0  0  0  0
 19 18  1  1  0  0  0
 19  5  1  0  0  0  0
 20 16  1  6  0  0  0
 20 15  1  0  0  0  0
 21  7  2  0  0  0  0
 22  6  1  0  0  0  0
 23 28  1  0  0  0  0
 23 30  1  1  0  0  0
 25 19  1  0  0  0  0
 26  8  2  0  0  0  0
 27  1  1  6  0  0  0
 27 21  1  0  0  0  0
 27 25  1  0  0  0  0
 29 35  1  0  0  0  0
 30 29  2  0  0  0  0
 31 30  1  0  0  0  0
 31 34  2  0  0  0  0
 32 34  1  0  0  0  0
 33 35  2  0  0  0  0
 34 33  1  0  0  0  0
 36 37  1  0  0  0  0
 37  4  1  0  0  0  0
M  END
>  <MODEL>
9

>  <REMARK>
 VINA RESULT:      -6.4      2.258      3.593
  Name = 
  2 active torsions:
  status: ('A' for Active; 'I' for Inactive)
    1  A    between atoms: N_4  and  C_37
    2  A    between atoms: C_23  and  C_30
                            x       y       z     vdW  Elec       q    Type
                         _______ _______ _______ _____ _____    ______ ____

>  <TORSDO>
F 2

$$$$
