=
 OpenBabel11122410593D

 31 35  0  0  1  0  0  0  0  0999 V2000
  179.5610  179.4600  141.5770 C   0  0  0  0  0  0  0  0  0  0  0  0
  182.9410  179.0940  139.8470 C   0  0  2  0  0  3  0  0  0  0  0  0
  184.1080  178.9790  140.8560 C   0  0  1  0  0  3  0  0  0  0  0  0
  185.1060  178.0840  142.9300 C   0  0  0  0  0  0  0  0  0  0  0  0
  181.5840  178.7840  140.4080 C   0  0  0  0  0  0  0  0  0  0  0  0
  178.9510  178.1440  141.3510 C   0  0  0  0  0  3  0  0  0  0  0  0
  183.8870  178.0490  142.0500 C   0  0  0  0  0  2  0  0  0  0  0  0
  182.7890  176.9050  138.5540 C   0  0  2  0  0  3  0  0  0  0  0  0
  178.9320  180.3500  142.2060 O   0  0  0  0  0  0  0  0  0  0  0  0
  185.4860  179.2590  138.9270 O   0  0  0  0  0  0  0  0  0  0  0  0
  184.9800  178.1050  144.1430 O   0  0  0  0  0  0  0  0  0  0  0  0
  181.3180  176.7740  138.9560 C   0  0  0  0  0  2  0  0  0  0  0  0
  183.1970  178.3870  138.4920 C   0  0  2  0  0  3  0  0  0  0  0  0
  180.8900  179.7440  141.0240 C   0  0  0  0  0  3  0  0  0  0  0  0
  186.4790  177.9990  142.3180 C   0  0  0  0  0  2  0  0  0  0  0  0
  181.0900  177.3520  140.3470 C   0  0  2  0  0  3  0  0  0  0  0  0
  179.6480  177.1760  140.7540 C   0  0  0  0  0  3  0  0  0  0  0  0
  184.6700  178.5410  138.0260 C   0  0  0  0  0  2  0  0  0  0  0  0
  185.3960  178.5740  140.1440 C   0  0  1  0  0  3  0  0  0  0  0  0
  186.5810  178.8640  141.0560 C   0  0  0  0  0  2  0  0  0  0  0  0
  183.0130  176.2110  137.2140 C   0  0  0  0  0  2  0  0  0  0  0  0
  183.8320  174.2740  138.3070 O   0  0  0  0  0  0  0  0  0  0  0  0
  183.9930  175.0910  137.3620 C   0  0  0  0  0  0  0  0  0  0  0  0
  187.4340  176.4860  135.8430 N   0  0  0  0  0  0  0  0  0  0  0  0
  186.4240  174.6560  137.1410 C   0  0  0  0  0  2  0  0  0  0  0  0
  184.0170  175.8740  134.6230 O   0  0  0  0  0  1  0  0  0  0  0  0
  188.1750  177.7240  135.9890 C   0  0  0  0  0  1  0  0  0  0  0  0
  187.2680  175.9330  137.1910 C   0  0  0  0  0  2  0  0  0  0  0  0
  185.2630  175.5840  135.1810 C   0  0  2  0  0  3  0  0  0  0  0  0
  185.1500  174.9760  136.5120 N   0  0  0  0  0  0  0  0  0  0  0  0
  186.1240  176.8390  135.2900 C   0  0  0  0  0  2  0  0  0  0  0  0
  1  9  2  0  0  0  0
  2  5  1  1  0  0  0
  2  3  1  0  0  0  0
  3  7  1  1  0  0  0
  4 11  2  0  0  0  0
  5 14  2  0  0  0  0
  6  1  1  0  0  0  0
  7  4  1  0  0  0  0
  8 21  1  6  0  0  0
  8 12  1  0  0  0  0
 10 19  1  0  0  0  0
 13 18  1  1  0  0  0
 13  8  1  0  0  0  0
 13  2  1  0  0  0  0
 14  1  1  0  0  0  0
 15  4  1  0  0  0  0
 16 12  1  6  0  0  0
 16  5  1  0  0  0  0
 16 17  1  0  0  0  0
 17  6  2  0  0  0  0
 18 10  1  0  0  0  0
 19  3  1  0  0  0  0
 19 20  1  1  0  0  0
 20 15  1  0  0  0  0
 21 23  1  0  0  0  0
 23 22  2  0  0  0  0
 24 27  1  0  0  0  0
 24 28  1  0  0  0  0
 25 28  1  0  0  0  0
 29 26  1  1  0  0  0
 29 31  1  0  0  0  0
 29 30  1  0  0  0  0
 30 25  1  0  0  0  0
 30 23  1  0  0  0  0
 31 24  1  0  0  0  0
M  END
>  <MODEL>
1

>  <REMARK>
 VINA RESULT:      -6.1      0.000      0.000
  Name = 
  2 active torsions:
  status: ('A' for Active; 'I' for Inactive)
    1  A    between atoms: C_5  and  C_16
    2  A    between atoms: C_10  and  C_16
                            x       y       z     vdW  Elec       q    Type
                         _______ _______ _______ _____ _____    ______ ____

>  <TORSDO>
F 2

$$$$
=
 OpenBabel11122410593D

 31 35  0  0  1  0  0  0  0  0999 V2000
  183.5570  178.7900  142.9580 C   0  0  0  0  0  0  0  0  0  0  0  0
  182.9420  177.8520  139.3120 C   0  0  2  0  0  3  0  0  0  0  0  0
  182.0020  178.8520  138.5980 C   0  0  1  0  0  3  0  0  0  0  0  0
  181.2490  181.1510  138.1030 C   0  0  0  0  0  0  0  0  0  0  0  0
  183.5900  178.3720  140.5620 C   0  0  0  0  0  0  0  0  0  0  0  0
  184.9400  179.2800  142.9250 C   0  0  0  0  0  3  0  0  0  0  0  0
  182.2700  180.3370  138.8490 C   0  0  0  0  0  2  0  0  0  0  0  0
  185.2310  177.9820  138.2000 C   0  0  2  0  0  3  0  0  0  0  0  0
  182.9200  178.7640  144.0430 O   0  0  0  0  0  0  0  0  0  0  0  0
  181.9800  177.2180  136.8580 O   0  0  0  0  0  0  0  0  0  0  0  0
  180.7510  182.1330  138.6290 O   0  0  0  0  0  0  0  0  0  0  0  0
  185.8720  178.2610  139.5630 C   0  0  0  0  0  2  0  0  0  0  0  0
  183.9520  177.1440  138.3730 C   0  0  2  0  0  3  0  0  0  0  0  0
  182.9390  178.2900  141.7250 C   0  0  0  0  0  3  0  0  0  0  0  0
  180.9110  180.8090  136.6750 C   0  0  0  0  0  2  0  0  0  0  0  0
  184.9290  179.0730  140.4420 C   0  0  2  0  0  3  0  0  0  0  0  0
  185.5880  179.3830  141.7630 C   0  0  0  0  0  3  0  0  0  0  0  0
  183.3210  176.8000  136.9960 C   0  0  0  0  0  2  0  0  0  0  0  0
  181.9890  178.5970  137.0930 C   0  0  1  0  0  3  0  0  0  0  0  0
  180.7810  179.2940  136.4810 C   0  0  0  0  0  2  0  0  0  0  0  0
  186.2390  177.2760  137.2990 C   0  0  0  0  0  2  0  0  0  0  0  0
  187.0390  179.3800  136.5560 O   0  0  0  0  0  0  0  0  0  0  0  0
  187.3420  178.2110  136.9150 C   0  0  0  0  0  0  0  0  0  0  0  0
  190.2810  175.8680  135.5140 N   0  0  0  0  0  0  0  0  0  0  0  0
  189.5100  178.1960  135.7120 C   0  0  0  0  0  2  0  0  0  0  0  0
  188.4570  176.2780  138.6850 O   0  0  0  0  0  1  0  0  0  0  0  0
  190.3290  174.7490  134.5940 C   0  0  0  0  0  1  0  0  0  0  0  0
  189.6730  176.9870  134.7870 C   0  0  0  0  0  2  0  0  0  0  0  0
  189.2530  176.6330  137.5940 C   0  0  2  0  0  3  0  0  0  0  0  0
  188.7170  177.7860  136.8630 N   0  0  0  0  0  0  0  0  0  0  0  0
  189.4090  175.4670  136.6220 C   0  0  0  0  0  2  0  0  0  0  0  0
  1  9  2  0  0  0  0
  2  5  1  1  0  0  0
  3  7  1  6  0  0  0
  3  2  1  0  0  0  0
  4 11  2  0  0  0  0
  4  7  1  0  0  0  0
  5 14  2  0  0  0  0
  6  1  1  0  0  0  0
  8 21  1  6  0  0  0
  8 13  1  0  0  0  0
  8 12  1  0  0  0  0
 10 18  1  0  0  0  0
 10 19  1  0  0  0  0
 13 18  1  6  0  0  0
 13  2  1  0  0  0  0
 14  1  1  0  0  0  0
 15  4  1  0  0  0  0
 16 12  1  6  0  0  0
 16  5  1  0  0  0  0
 16 17  1  0  0  0  0
 17  6  2  0  0  0  0
 19 20  1  1  0  0  0
 19  3  1  0  0  0  0
 20 15  1  0  0  0  0
 22 23  2  0  0  0  0
 23 21  1  0  0  0  0
 24 31  1  0  0  0  0
 25 30  1  0  0  0  0
 27 24  1  0  0  0  0
 28 24  1  0  0  0  0
 28 25  1  0  0  0  0
 29 26  1  1  0  0  0
 30 23  1  0  0  0  0
 30 29  1  0  0  0  0
 31 29  1  0  0  0  0
M  END
>  <MODEL>
2

>  <REMARK>
 VINA RESULT:      -6.0      2.439      4.834
  Name = 
  2 active torsions:
  status: ('A' for Active; 'I' for Inactive)
    1  A    between atoms: C_5  and  C_16
    2  A    between atoms: C_10  and  C_16
                            x       y       z     vdW  Elec       q    Type
                         _______ _______ _______ _____ _____    ______ ____

>  <TORSDO>
F 2

$$$$
=
 OpenBabel11122410593D

 31 35  0  0  1  0  0  0  0  0999 V2000
  192.6530  175.5420  135.6670 C   0  0  0  0  0  0  0  0  0  0  0  0
  189.6150  177.4800  136.9180 C   0  0  2  0  0  3  0  0  0  0  0  0
  188.2870  176.9080  136.3710 C   0  0  1  0  0  3  0  0  0  0  0  0
  186.8080  175.0140  135.8040 C   0  0  0  0  0  0  0  0  0  0  0  0
  190.7840  176.5400  136.8610 C   0  0  0  0  0  0  0  0  0  0  0  0
  193.0690  174.8060  136.8660 C   0  0  0  0  0  3  0  0  0  0  0  0
  188.1400  175.3860  136.3950 C   0  0  0  0  0  2  0  0  0  0  0  0
  189.6310  177.1740  139.4470 C   0  0  2  0  0  3  0  0  0  0  0  0
  193.2990  175.4210  134.5940 O   0  0  0  0  0  0  0  0  0  0  0  0
  187.3340  178.8990  137.2790 O   0  0  0  0  0  0  0  0  0  0  0  0
  186.7210  174.0530  135.0570 O   0  0  0  0  0  0  0  0  0  0  0  0
  190.9670  176.4340  139.3450 C   0  0  0  0  0  2  0  0  0  0  0  0
  189.4890  178.1830  138.2940 C   0  0  2  0  0  3  0  0  0  0  0  0
  191.5060  176.4550  135.7410 C   0  0  0  0  0  3  0  0  0  0  0  0
  185.5680  175.7680  136.2070 C   0  0  0  0  0  2  0  0  0  0  0  0
  191.0390  175.6350  138.0500 C   0  0  2  0  0  3  0  0  0  0  0  0
  192.3380  174.8720  137.9810 C   0  0  0  0  0  3  0  0  0  0  0  0
  188.1660  178.9860  138.4160 C   0  0  0  0  0  2  0  0  0  0  0  0
  187.0950  177.5340  137.0910 C   0  0  1  0  0  3  0  0  0  0  0  0
  185.8320  177.2770  136.2790 C   0  0  0  0  0  2  0  0  0  0  0  0
  189.5350  177.8640  140.8040 C   0  0  0  0  0  2  0  0  0  0  0  0
  187.1750  177.8450  141.0250 O   0  0  0  0  0  0  0  0  0  0  0  0
  188.2760  177.4660  141.5060 C   0  0  0  0  0  0  0  0  0  0  0  0
  189.2940  177.0660  145.3650 N   0  0  0  0  0  0  0  0  0  0  0  0
  187.3950  177.1800  143.8060 C   0  0  0  0  0  2  0  0  0  0  0  0
  190.2570  175.5270  142.1640 O   0  0  0  0  0  1  0  0  0  0  0  0
  190.0670  177.8670  146.2950 C   0  0  0  0  0  1  0  0  0  0  0  0
  188.2190  177.9250  144.8600 C   0  0  0  0  0  2  0  0  0  0  0  0
  189.4230  175.9210  143.2110 C   0  0  2  0  0  3  0  0  0  0  0  0
  188.2960  176.7400  142.7500 N   0  0  0  0  0  0  0  0  0  0  0  0
  190.1960  176.7050  144.2670 C   0  0  0  0  0  2  0  0  0  0  0  0
  1 14  1  0  0  0  0
  1  6  1  0  0  0  0
  2  5  1  1  0  0  0
  2 13  1  0  0  0  0
  3  7  1  1  0  0  0
  3  2  1  0  0  0  0
  3 19  1  0  0  0  0
  4 15  1  0  0  0  0
  4  7  1  0  0  0  0
  5 16  1  0  0  0  0
  6 17  2  0  0  0  0
  8 21  1  1  0  0  0
  9  1  2  0  0  0  0
 10 18  1  0  0  0  0
 11  4  2  0  0  0  0
 12  8  1  0  0  0  0
 13 18  1  6  0  0  0
 13  8  1  0  0  0  0
 14  5  2  0  0  0  0
 15 20  1  0  0  0  0
 16 17  1  6  0  0  0
 16 12  1  0  0  0  0
 19 20  1  6  0  0  0
 19 10  1  0  0  0  0
 21 23  1  0  0  0  0
 22 23  2  0  0  0  0
 23 30  1  0  0  0  0
 24 27  1  0  0  0  0
 25 28  1  0  0  0  0
 28 24  1  0  0  0  0
 29 26  1  6  0  0  0
 29 31  1  0  0  0  0
 30 29  1  0  0  0  0
 30 25  1  0  0  0  0
 31 24  1  0  0  0  0
M  END
>  <MODEL>
3

>  <REMARK>
 VINA RESULT:      -5.9      4.838      9.254
  Name = 
  2 active torsions:
  status: ('A' for Active; 'I' for Inactive)
    1  A    between atoms: C_5  and  C_16
    2  A    between atoms: C_10  and  C_16
                            x       y       z     vdW  Elec       q    Type
                         _______ _______ _______ _____ _____    ______ ____

>  <TORSDO>
F 2

$$$$
=
 OpenBabel11122410593D

 31 35  0  0  1  0  0  0  0  0999 V2000
  191.2790  177.5030  141.1950 C   0  0  0  0  0  0  0  0  0  0  0  0
  189.6960  177.7640  137.7340 C   0  0  2  0  0  3  0  0  0  0  0  0
  189.9750  176.5150  136.8650 C   0  0  1  0  0  3  0  0  0  0  0  0
  190.1500  174.0700  136.5680 C   0  0  0  0  0  0  0  0  0  0  0  0
  189.8740  177.5620  139.2110 C   0  0  0  0  0  0  0  0  0  0  0  0
  190.1120  177.2750  142.0560 C   0  0  0  0  0  3  0  0  0  0  0  0
  189.8140  175.1580  137.5510 C   0  0  0  0  0  2  0  0  0  0  0  0
  187.1880  177.8910  138.1620 C   0  0  2  0  0  3  0  0  0  0  0  0
  192.4310  177.5730  141.6960 O   0  0  0  0  0  0  0  0  0  0  0  0
  189.0750  177.8420  135.0970 O   0  0  0  0  0  0  0  0  0  0  0  0
  190.7990  173.1030  136.9300 O   0  0  0  0  0  0  0  0  0  0  0  0
  187.4520  177.9380  139.6690 C   0  0  0  0  0  2  0  0  0  0  0  0
  188.3750  178.4980  137.3920 C   0  0  2  0  0  3  0  0  0  0  0  0
  191.0870  177.6950  139.7530 C   0  0  0  0  0  3  0  0  0  0  0  0
  189.6070  174.1300  135.1640 C   0  0  0  0  0  2  0  0  0  0  0  0
  188.6780  177.1070  140.0250 C   0  0  2  0  0  3  0  0  0  0  0  0
  188.9010  177.1210  141.5160 C   0  0  0  0  0  3  0  0  0  0  0  0
  188.0980  178.5130  135.8640 C   0  0  0  0  0  2  0  0  0  0  0  0
  189.1190  176.5380  135.6010 C   0  0  1  0  0  3  0  0  0  0  0  0
  189.6920  175.5500  134.5940 C   0  0  0  0  0  2  0  0  0  0  0  0
  185.8900  178.6280  137.8490 C   0  0  0  0  0  2  0  0  0  0  0  0
  184.7890  176.5450  137.5890 O   0  0  0  0  0  0  0  0  0  0  0  0
  184.7150  177.7200  138.0360 C   0  0  0  0  0  0  0  0  0  0  0  0
  181.5150  180.1360  138.1520 N   0  0  0  0  0  0  0  0  0  0  0  0
  182.2370  177.7900  137.9890 C   0  0  0  0  0  2  0  0  0  0  0  0
  184.6020  179.6770  140.1020 O   0  0  0  0  0  1  0  0  0  0  0  0
  181.0660  181.2570  137.3500 C   0  0  0  0  0  1  0  0  0  0  0  0
  181.6860  179.0040  137.2360 C   0  0  0  0  0  2  0  0  0  0  0  0
  183.3800  179.3440  139.5160 C   0  0  2  0  0  3  0  0  0  0  0  0
  183.4860  178.1790  138.6300 N   0  0  0  0  0  0  0  0  0  0  0  0
  182.8130  180.5140  138.7180 C   0  0  0  0  0  2  0  0  0  0  0  0
  1  9  2  0  0  0  0
  1  6  1  0  0  0  0
  2  5  1  1  0  0  0
  3  7  1  1  0  0  0
  3  2  1  0  0  0  0
  4 11  2  0  0  0  0
  4  7  1  0  0  0  0
  5 14  2  0  0  0  0
  5 16  1  0  0  0  0
  8 21  1  1  0  0  0
  8 12  1  0  0  0  0
 10 19  1  0  0  0  0
 10 18  1  0  0  0  0
 13 18  1  6  0  0  0
 13  2  1  0  0  0  0
 13  8  1  0  0  0  0
 14  1  1  0  0  0  0
 15  4  1  0  0  0  0
 16 12  1  1  0  0  0
 16 17  1  0  0  0  0
 17  6  2  0  0  0  0
 19 20  1  6  0  0  0
 19  3  1  0  0  0  0
 20 15  1  0  0  0  0
 21 23  1  0  0  0  0
 22 23  2  0  0  0  0
 23 30  1  0  0  0  0
 24 31  1  0  0  0  0
 25 30  1  0  0  0  0
 27 24  1  0  0  0  0
 28 25  1  0  0  0  0
 28 24  1  0  0  0  0
 29 26  1  6  0  0  0
 30 29  1  0  0  0  0
 31 29  1  0  0  0  0
M  END
>  <MODEL>
4

>  <REMARK>
 VINA RESULT:      -5.8      3.548      7.641
  Name = 
  2 active torsions:
  status: ('A' for Active; 'I' for Inactive)
    1  A    between atoms: C_5  and  C_16
    2  A    between atoms: C_10  and  C_16
                            x       y       z     vdW  Elec       q    Type
                         _______ _______ _______ _____ _____    ______ ____

>  <TORSDO>
F 2

$$$$
=
 OpenBabel11122410593D

 31 35  0  0  1  0  0  0  0  0999 V2000
  179.6690  179.4960  140.8350 C   0  0  0  0  0  0  0  0  0  0  0  0
  183.2820  178.9390  139.7440 C   0  0  2  0  0  3  0  0  0  0  0  0
  184.2680  178.9740  140.9350 C   0  0  1  0  0  3  0  0  0  0  0  0
  184.9050  178.3790  143.2450 C   0  0  0  0  0  0  0  0  0  0  0  0
  181.8480  178.6910  140.1130 C   0  0  0  0  0  0  0  0  0  0  0  0
  179.0900  178.1550  140.6930 C   0  0  0  0  0  3  0  0  0  0  0  0
  183.8450  178.2110  142.1910 C   0  0  0  0  0  2  0  0  0  0  0  0
  183.3180  176.5930  138.7500 C   0  0  2  0  0  3  0  0  0  0  0  0
  178.9560  180.4550  141.2280 O   0  0  0  0  0  0  0  0  0  0  0  0
  185.9430  179.0070  139.2360 O   0  0  0  0  0  0  0  0  0  0  0  0
  184.5840  178.5620  144.4080 O   0  0  0  0  0  0  0  0  0  0  0  0
  181.8000  176.5010  138.9220 C   0  0  0  0  0  2  0  0  0  0  0  0
  183.7470  178.0580  138.5560 C   0  0  2  0  0  3  0  0  0  0  0  0
  181.0740  179.7180  140.4730 C   0  0  0  0  0  3  0  0  0  0  0  0
  186.3590  178.2270  142.8810 C   0  0  0  0  0  2  0  0  0  0  0  0
  181.3550  177.2580  140.1670 C   0  0  2  0  0  3  0  0  0  0  0  0
  179.8650  177.1220  140.3540 C   0  0  0  0  0  3  0  0  0  0  0  0
  185.2780  178.1640  138.3200 C   0  0  0  0  0  2  0  0  0  0  0  0
  185.6500  178.4920  140.5030 C   0  0  1  0  0  3  0  0  0  0  0  0
  186.6740  178.9150  141.5480 C   0  0  0  0  0  2  0  0  0  0  0  0
  183.7500  175.7280  137.5710 C   0  0  0  0  0  2  0  0  0  0  0  0
  182.8660  177.1380  135.8830 O   0  0  0  0  0  0  0  0  0  0  0  0
  182.8730  175.9840  136.3860 C   0  0  0  0  0  0  0  0  0  0  0  0
  179.8120  173.4180  136.7570 N   0  0  0  0  0  0  0  0  0  0  0  0
  180.6280  175.3820  135.5210 C   0  0  0  0  0  2  0  0  0  0  0  0
  183.4690  173.1980  136.4060 O   0  0  0  0  0  1  0  0  0  0  0  0
  178.9460  173.0300  137.8540 C   0  0  0  0  0  1  0  0  0  0  0  0
  179.6830  174.8710  136.6130 C   0  0  0  0  0  2  0  0  0  0  0  0
  182.1550  173.5350  136.0770 C   0  0  2  0  0  3  0  0  0  0  0  0
  181.9840  174.9760  135.8660 N   0  0  0  0  0  0  0  0  0  0  0  0
  181.1810  173.0810  137.1590 C   0  0  0  0  0  2  0  0  0  0  0  0
  1  9  2  0  0  0  0
  2  5  1  1  0  0  0
  2  3  1  0  0  0  0
  3  7  1  1  0  0  0
  4 11  2  0  0  0  0
  5 16  1  0  0  0  0
  5 14  2  0  0  0  0
  6  1  1  0  0  0  0
  7  4  1  0  0  0  0
  8 21  1  6  0  0  0
  8 12  1  0  0  0  0
 10 19  1  0  0  0  0
 13 18  1  1  0  0  0
 13  8  1  0  0  0  0
 13  2  1  0  0  0  0
 14  1  1  0  0  0  0
 15  4  1  0  0  0  0
 16 12  1  6  0  0  0
 16 17  1  0  0  0  0
 17  6  2  0  0  0  0
 18 10  1  0  0  0  0
 19  3  1  0  0  0  0
 19 20  1  1  0  0  0
 20 15  1  0  0  0  0
 22 23  2  0  0  0  0
 23 21  1  0  0  0  0
 24 31  1  0  0  0  0
 24 27  1  0  0  0  0
 25 30  1  0  0  0  0
 25 28  1  0  0  0  0
 28 24  1  0  0  0  0
 29 26  1  1  0  0  0
 29 31  1  0  0  0  0
 30 29  1  0  0  0  0
 30 23  1  0  0  0  0
M  END
>  <MODEL>
5

>  <REMARK>
 VINA RESULT:      -5.8      1.968      3.493
  Name = 
  2 active torsions:
  status: ('A' for Active; 'I' for Inactive)
    1  A    between atoms: C_5  and  C_16
    2  A    between atoms: C_10  and  C_16
                            x       y       z     vdW  Elec       q    Type
                         _______ _______ _______ _____ _____    ______ ____

>  <TORSDO>
F 2

$$$$
=
 OpenBabel11122410593D

 31 35  0  0  1  0  0  0  0  0999 V2000
  181.6170  180.6190  138.3090 C   0  0  0  0  0  0  0  0  0  0  0  0
  185.0810  179.2240  139.0880 C   0  0  2  0  0  3  0  0  0  0  0  0
  185.3070  179.0270  140.6060 C   0  0  1  0  0  3  0  0  0  0  0  0
  184.5450  178.3000  142.8390 C   0  0  0  0  0  0  0  0  0  0  0  0
  183.6430  179.3220  138.6680 C   0  0  0  0  0  0  0  0  0  0  0  0
  180.9320  179.4520  137.7400 C   0  0  0  0  0  3  0  0  0  0  0  0
  184.1600  178.3860  141.3870 C   0  0  0  0  0  2  0  0  0  0  0  0
  185.1390  176.9350  137.9710 C   0  0  2  0  0  3  0  0  0  0  0  0
  181.0160  181.7190  138.4090 O   0  0  0  0  0  0  0  0  0  0  0  0
  187.5800  178.6630  139.9740 O   0  0  0  0  0  0  0  0  0  0  0  0
  183.7220  178.5550  143.7030 O   0  0  0  0  0  0  0  0  0  0  0  0
  183.7630  177.2050  137.3580 C   0  0  0  0  0  2  0  0  0  0  0  0
  185.8950  178.2580  138.1900 C   0  0  2  0  0  3  0  0  0  0  0  0
  183.0210  180.5030  138.7180 C   0  0  0  0  0  3  0  0  0  0  0  0
  185.9160  177.8100  143.2260 C   0  0  0  0  0  2  0  0  0  0  0  0
  182.9120  178.0460  138.3000 C   0  0  2  0  0  3  0  0  0  0  0  0
  181.5420  178.2660  137.7080 C   0  0  0  0  0  3  0  0  0  0  0  0
  187.3180  178.0000  138.7560 C   0  0  0  0  0  2  0  0  0  0  0  0
  186.5860  178.2320  140.8590 C   0  0  1  0  0  3  0  0  0  0  0  0
  186.9980  178.4040  142.3150 C   0  0  0  0  0  2  0  0  0  0  0  0
  185.9240  175.9920  137.0650 C   0  0  0  0  0  2  0  0  0  0  0  0
  185.2130  176.8930  134.9910 O   0  0  0  0  0  0  0  0  0  0  0  0
  185.2590  175.8740  135.7310 C   0  0  0  0  0  0  0  0  0  0  0  0
  182.4950  173.0010  136.1710 N   0  0  0  0  0  0  0  0  0  0  0  0
  183.2970  174.7830  134.6770 C   0  0  0  0  0  2  0  0  0  0  0  0
  186.1550  173.2700  136.4570 O   0  0  0  0  0  1  0  0  0  0  0  0
  181.4910  172.7100  137.1770 C   0  0  0  0  0  1  0  0  0  0  0  0
  182.2310  174.3610  135.6920 C   0  0  0  0  0  2  0  0  0  0  0  0
  184.8950  173.3330  135.8590 C   0  0  2  0  0  3  0  0  0  0  0  0
  184.6030  174.6620  135.3120 N   0  0  0  0  0  0  0  0  0  0  0  0
  183.7950  172.9590  136.8480 C   0  0  0  0  0  2  0  0  0  0  0  0
  1  9  2  0  0  0  0
  1 14  1  0  0  0  0
  2  5  1  1  0  0  0
  2  3  1  0  0  0  0
  3 19  1  0  0  0  0
  3  7  1  6  0  0  0
  4 15  1  0  0  0  0
  4 11  2  0  0  0  0
  5 14  2  0  0  0  0
  6  1  1  0  0  0  0
  7  4  1  0  0  0  0
  8 21  1  6  0  0  0
  8 13  1  0  0  0  0
 10 19  1  0  0  0  0
 12  8  1  0  0  0  0
 13 18  1  1  0  0  0
 13  2  1  0  0  0  0
 16 12  1  6  0  0  0
 16  5  1  0  0  0  0
 17  6  2  0  0  0  0
 17 16  1  0  0  0  0
 18 10  1  0  0  0  0
 19 20  1  1  0  0  0
 20 15  1  0  0  0  0
 22 23  2  0  0  0  0
 23 21  1  0  0  0  0
 24 31  1  0  0  0  0
 24 27  1  0  0  0  0
 25 30  1  0  0  0  0
 25 28  1  0  0  0  0
 28 24  1  0  0  0  0
 29 26  1  1  0  0  0
 29 31  1  0  0  0  0
 30 23  1  0  0  0  0
 30 29  1  0  0  0  0
M  END
>  <MODEL>
6

>  <REMARK>
 VINA RESULT:      -5.3      2.267      3.493
  Name = 
  2 active torsions:
  status: ('A' for Active; 'I' for Inactive)
    1  A    between atoms: C_5  and  C_16
    2  A    between atoms: C_10  and  C_16
                            x       y       z     vdW  Elec       q    Type
                         _______ _______ _______ _____ _____    ______ ____

>  <TORSDO>
F 2

$$$$
=
 OpenBabel11122410593D

 31 35  0  0  1  0  0  0  0  0999 V2000
  188.8330  177.7660  135.6020 C   0  0  0  0  0  0  0  0  0  0  0  0
  185.2460  176.4990  135.8820 C   0  0  2  0  0  3  0  0  0  0  0  0
  185.1780  174.9690  136.1010 C   0  0  1  0  0  3  0  0  0  0  0  0
  185.9650  172.8920  137.1800 C   0  0  0  0  0  0  0  0  0  0  0  0
  186.5670  177.1300  136.2140 C   0  0  0  0  0  0  0  0  0  0  0  0
  189.0220  178.4550  136.8840 C   0  0  0  0  0  3  0  0  0  0  0  0
  186.1540  174.3830  137.1220 C   0  0  0  0  0  2  0  0  0  0  0  0
  184.3020  177.6410  137.9550 C   0  0  2  0  0  3  0  0  0  0  0  0
  189.7640  177.7360  134.7560 O   0  0  0  0  0  0  0  0  0  0  0  0
  182.8450  175.2560  135.6860 O   0  0  0  0  0  0  0  0  0  0  0  0
  186.9360  172.1580  137.2570 O   0  0  0  0  0  0  0  0  0  0  0  0
  185.5940  178.4500  138.0930 C   0  0  0  0  0  2  0  0  0  0  0  0
  184.0490  177.2820  136.4800 C   0  0  2  0  0  3  0  0  0  0  0  0
  187.5360  177.1510  135.2960 C   0  0  0  0  0  3  0  0  0  0  0  0
  184.5760  172.3120  137.2380 C   0  0  0  0  0  2  0  0  0  0  0  0
  186.7910  177.6310  137.6280 C   0  0  2  0  0  3  0  0  0  0  0  0
  188.0640  178.4190  137.8120 C   0  0  0  0  0  3  0  0  0  0  0  0
  182.7110  176.5130  136.3140 C   0  0  0  0  0  2  0  0  0  0  0  0
  183.7590  174.5410  136.4670 C   0  0  1  0  0  3  0  0  0  0  0  0
  183.6280  173.0360  136.2740 C   0  0  0  0  0  2  0  0  0  0  0  0
  183.1390  178.4360  138.5400 C   0  0  0  0  0  2  0  0  0  0  0  0
  183.3070  177.3020  140.6140 O   0  0  0  0  0  0  0  0  0  0  0  0
  182.5400  177.7100  139.7020 C   0  0  0  0  0  0  0  0  0  0  0  0
  179.2350  175.9480  138.2650 N   0  0  0  0  0  0  0  0  0  0  0  0
  180.7590  176.0550  140.1930 C   0  0  0  0  0  2  0  0  0  0  0  0
  180.5060  179.3840  138.6180 O   0  0  0  0  0  1  0  0  0  0  0  0
  178.9400  175.1710  137.0770 C   0  0  0  0  0  1  0  0  0  0  0  0
  180.3260  175.2580  138.9600 C   0  0  0  0  0  2  0  0  0  0  0  0
  180.0960  178.1090  139.0110 C   0  0  2  0  0  3  0  0  0  0  0  0
  181.1360  177.3950  139.7610 N   0  0  0  0  0  0  0  0  0  0  0  0
  179.6950  177.2630  137.8070 C   0  0  0  0  0  2  0  0  0  0  0  0
  1  6  1  0  0  0  0
  2  3  1  0  0  0  0
  2  5  1  1  0  0  0
  2 13  1  0  0  0  0
  3 19  1  0  0  0  0
  3  7  1  1  0  0  0
  4 15  1  0  0  0  0
  4 11  2  0  0  0  0
  5 16  1  0  0  0  0
  6 17  2  0  0  0  0
  7  4  1  0  0  0  0
  8 12  1  0  0  0  0
  8 21  1  6  0  0  0
  9  1  2  0  0  0  0
 10 18  1  0  0  0  0
 10 19  1  0  0  0  0
 13 18  1  1  0  0  0
 13  8  1  0  0  0  0
 14  1  1  0  0  0  0
 14  5  2  0  0  0  0
 16 17  1  6  0  0  0
 16 12  1  0  0  0  0
 19 20  1  6  0  0  0
 20 15  1  0  0  0  0
 21 23  1  0  0  0  0
 23 30  1  0  0  0  0
 23 22  2  0  0  0  0
 24 28  1  0  0  0  0
 27 24  1  0  0  0  0
 28 25  1  0  0  0  0
 29 26  1  6  0  0  0
 29 30  1  0  0  0  0
 30 25  1  0  0  0  0
 31 24  1  0  0  0  0
 31 29  1  0  0  0  0
M  END
>  <MODEL>
7

>  <REMARK>
 VINA RESULT:      -5.3      2.852      7.262
  Name = 
  2 active torsions:
  status: ('A' for Active; 'I' for Inactive)
    1  A    between atoms: C_5  and  C_16
    2  A    between atoms: C_10  and  C_16
                            x       y       z     vdW  Elec       q    Type
                         _______ _______ _______ _____ _____    ______ ____

>  <TORSDO>
F 2

$$$$
=
 OpenBabel11122410593D

 31 35  0  0  1  0  0  0  0  0999 V2000
  188.9520  177.6210  135.8090 C   0  0  0  0  0  0  0  0  0  0  0  0
  185.9680  178.4060  138.0520 C   0  0  2  0  0  3  0  0  0  0  0  0
  184.7920  177.4250  137.8320 C   0  0  1  0  0  3  0  0  0  0  0  0
  183.8980  175.1490  137.4900 C   0  0  0  0  0  0  0  0  0  0  0  0
  187.3030  177.9160  137.5730 C   0  0  0  0  0  0  0  0  0  0  0  0
  189.9160  177.0550  136.7600 C   0  0  0  0  0  3  0  0  0  0  0  0
  185.1530  175.9430  137.7290 C   0  0  0  0  0  2  0  0  0  0  0  0
  186.8280  178.0960  140.4300 C   0  0  2  0  0  3  0  0  0  0  0  0
  189.2550  177.7370  134.5940 O   0  0  0  0  0  0  0  0  0  0  0  0
  183.5670  178.9680  139.1790 O   0  0  0  0  0  0  0  0  0  0  0  0
  183.9060  174.2240  136.6950 O   0  0  0  0  0  0  0  0  0  0  0  0
  188.2370  177.8510  139.8840 C   0  0  0  0  0  2  0  0  0  0  0  0
  186.0360  179.0100  139.4780 C   0  0  2  0  0  3  0  0  0  0  0  0
  187.6500  178.0920  136.2950 C   0  0  0  0  0  3  0  0  0  0  0  0
  182.6600  175.4370  138.2980 C   0  0  0  0  0  2  0  0  0  0  0  0
  188.1740  177.1370  138.5400 C   0  0  2  0  0  3  0  0  0  0  0  0
  189.5670  176.8590  138.0330 C   0  0  0  0  0  3  0  0  0  0  0  0
  184.6250  179.3180  140.0460 C   0  0  0  0  0  2  0  0  0  0  0  0
  183.7320  177.6040  138.9160 C   0  0  1  0  0  3  0  0  0  0  0  0
  182.4370  176.9450  138.4590 C   0  0  0  0  0  2  0  0  0  0  0  0
  186.9220  178.6990  141.8280 C   0  0  0  0  0  2  0  0  0  0  0  0
  184.8320  178.0580  142.7450 O   0  0  0  0  0  0  0  0  0  0  0  0
  186.0830  177.9200  142.7910 C   0  0  0  0  0  0  0  0  0  0  0  0
  188.4040  177.3750  146.0170 N   0  0  0  0  0  0  0  0  0  0  0  0
  186.1090  177.1730  145.1550 C   0  0  0  0  0  2  0  0  0  0  0  0
  188.5210  176.4880  142.4470 O   0  0  0  0  0  1  0  0  0  0  0  0
  189.2640  178.2400  146.8010 C   0  0  0  0  0  1  0  0  0  0  0  0
  187.0700  177.9830  146.0290 C   0  0  0  0  0  2  0  0  0  0  0  0
  188.0280  176.5410  143.7520 C   0  0  2  0  0  3  0  0  0  0  0  0
  186.6700  177.0920  143.8140 N   0  0  0  0  0  0  0  0  0  0  0  0
  188.9350  177.3760  144.6510 C   0  0  0  0  0  2  0  0  0  0  0  0
  1 14  1  0  0  0  0
  1  6  1  0  0  0  0
  2  5  1  1  0  0  0
  2 13  1  0  0  0  0
  3  7  1  1  0  0  0
  3  2  1  0  0  0  0
  3 19  1  0  0  0  0
  4  7  1  0  0  0  0
  4 15  1  0  0  0  0
  5 16  1  0  0  0  0
  6 17  2  0  0  0  0
  8 21  1  1  0  0  0
  9  1  2  0  0  0  0
 10 18  1  0  0  0  0
 11  4  2  0  0  0  0
 12  8  1  0  0  0  0
 13 18  1  1  0  0  0
 13  8  1  0  0  0  0
 14  5  2  0  0  0  0
 15 20  1  0  0  0  0
 16 17  1  6  0  0  0
 16 12  1  0  0  0  0
 19 20  1  6  0  0  0
 19 10  1  0  0  0  0
 21 23  1  0  0  0  0
 22 23  2  0  0  0  0
 23 30  1  0  0  0  0
 24 28  1  0  0  0  0
 24 27  1  0  0  0  0
 25 28  1  0  0  0  0
 29 26  1  6  0  0  0
 29 30  1  0  0  0  0
 29 31  1  0  0  0  0
 30 25  1  0  0  0  0
 31 24  1  0  0  0  0
M  END
>  <MODEL>
8

>  <REMARK>
 VINA RESULT:      -5.3      3.245      7.718
  Name = 
  2 active torsions:
  status: ('A' for Active; 'I' for Inactive)
    1  A    between atoms: C_5  and  C_16
    2  A    between atoms: C_10  and  C_16
                            x       y       z     vdW  Elec       q    Type
                         _______ _______ _______ _____ _____    ______ ____

>  <TORSDO>
F 2

$$$$
=
 OpenBabel11122410593D

 31 35  0  0  1  0  0  0  0  0999 V2000
  191.5580  176.7190  138.2100 C   0  0  0  0  0  0  0  0  0  0  0  0
  188.2700  176.3990  136.3010 C   0  0  2  0  0  3  0  0  0  0  0  0
  187.8860  174.9240  136.0360 C   0  0  1  0  0  3  0  0  0  0  0  0
  187.6590  172.5750  136.7610 C   0  0  0  0  0  0  0  0  0  0  0  0
  189.2650  176.6070  137.4060 C   0  0  0  0  0  0  0  0  0  0  0  0
  191.1050  177.1310  139.5430 C   0  0  0  0  0  3  0  0  0  0  0  0
  188.0510  173.9560  137.2080 C   0  0  0  0  0  2  0  0  0  0  0  0
  186.5120  177.4160  137.8380 C   0  0  2  0  0  3  0  0  0  0  0  0
  192.7850  176.5770  137.9730 O   0  0  0  0  0  0  0  0  0  0  0  0
  186.2270  175.8670  134.6020 O   0  0  0  0  0  0  0  0  0  0  0  0
  188.3180  171.6110  137.1150 O   0  0  0  0  0  0  0  0  0  0  0  0
  187.6130  177.8310  138.8170 C   0  0  0  0  0  2  0  0  0  0  0  0
  187.0630  177.3650  136.4020 C   0  0  2  0  0  3  0  0  0  0  0  0
  190.5710  176.5160  137.1430 C   0  0  0  0  0  3  0  0  0  0  0  0
  186.4020  172.3730  135.9560 C   0  0  0  0  0  2  0  0  0  0  0  0
  188.7440  176.8100  138.8150 C   0  0  2  0  0  3  0  0  0  0  0  0
  189.8010  177.2040  139.8170 C   0  0  0  0  0  3  0  0  0  0  0  0
  185.9440  177.0040  135.3880 C   0  0  0  0  0  2  0  0  0  0  0  0
  186.4550  174.8280  135.5110 C   0  0  1  0  0  3  0  0  0  0  0  0
  186.2470  173.4570  134.8820 C   0  0  0  0  0  2  0  0  0  0  0  0
  185.3410  178.3870  137.9490 C   0  0  0  0  0  2  0  0  0  0  0  0
  183.9630  176.4580  137.9960 O   0  0  0  0  0  0  0  0  0  0  0  0
  184.0950  177.6610  138.3470 C   0  0  0  0  0  0  0  0  0  0  0  0
  181.2630  180.4880  138.6310 N   0  0  0  0  0  0  0  0  0  0  0  0
  181.6590  178.0600  138.5840 C   0  0  0  0  0  2  0  0  0  0  0  0
  184.4910  179.7530  140.2390 O   0  0  0  0  0  1  0  0  0  0  0  0
  180.8600  181.6020  137.7940 C   0  0  0  0  0  1  0  0  0  0  0  0
  181.1740  179.2830  137.8000 C   0  0  0  0  0  2  0  0  0  0  0  0
  183.1720  179.5470  139.8300 C   0  0  2  0  0  3  0  0  0  0  0  0
  183.0180  178.3210  139.0390 N   0  0  0  0  0  0  0  0  0  0  0  0
  182.6600  180.7260  139.0070 C   0  0  0  0  0  2  0  0  0  0  0  0
  1  6  1  0  0  0  0
  2 13  1  0  0  0  0
  2  5  1  1  0  0  0
  3  2  1  0  0  0  0
  3  7  1  1  0  0  0
  4 11  2  0  0  0  0
  4  7  1  0  0  0  0
  5 16  1  0  0  0  0
  6 17  2  0  0  0  0
  8 21  1  6  0  0  0
  8 12  1  0  0  0  0
  9  1  2  0  0  0  0
 10 18  1  0  0  0  0
 10 19  1  0  0  0  0
 13 18  1  6  0  0  0
 13  8  1  0  0  0  0
 14  5  2  0  0  0  0
 14  1  1  0  0  0  0
 15  4  1  0  0  0  0
 16 12  1  6  0  0  0
 16 17  1  0  0  0  0
 19 20  1  6  0  0  0
 19  3  1  0  0  0  0
 20 15  1  0  0  0  0
 21 23  1  0  0  0  0
 22 23  2  0  0  0  0
 23 30  1  0  0  0  0
 24 31  1  0  0  0  0
 25 30  1  0  0  0  0
 27 24  1  0  0  0  0
 28 25  1  0  0  0  0
 28 24  1  0  0  0  0
 29 26  1  6  0  0  0
 30 29  1  0  0  0  0
 31 29  1  0  0  0  0
M  END
>  <MODEL>
9

>  <REMARK>
 VINA RESULT:      -5.1      3.176      7.871
  Name = 
  2 active torsions:
  status: ('A' for Active; 'I' for Inactive)
    1  A    between atoms: C_5  and  C_16
    2  A    between atoms: C_10  and  C_16
                            x       y       z     vdW  Elec       q    Type
                         _______ _______ _______ _____ _____    ______ ____

>  <TORSDO>
F 2

$$$$
