=
 OpenBabel11122410273D

 30 35  0  0  1  0  0  0  0  0999 V2000
  185.9680  178.3350  141.8700 C   0  0  0  0  0  0  0  0  0  0  0  0
  183.5290  178.9250  142.1690 C   0  0  0  0  0  0  0  0  0  0  0  0
  186.3650  177.6760  146.0070 N   0  0  0  0  0  2  0  0  0  0  0  0
  187.2130  177.9630  142.4640 C   0  0  0  0  0  0  0  0  0  0  0  0
  185.9200  178.4880  140.4780 C   0  0  0  0  0  3  0  0  0  0  0  0
  189.3880  177.8010  139.4530 O   0  0  0  0  0  1  0  0  0  0  0  0
  190.1250  178.4800  143.3550 C   0  0  1  0  0  3  0  0  0  0  0  0
  188.2650  177.9660  140.2590 C   0  0  0  0  0  0  0  0  0  0  0  0
  189.5270  178.2330  144.6870 N   0  0  2  0  0  0  0  0  0  0  0  0
  187.7230  177.2590  146.0400 C   0  0  0  0  0  0  0  0  0  0  0  0
  187.0430  178.3000  139.6720 C   0  0  0  0  0  0  0  0  0  0  0  0
  188.3660  177.8030  141.6510 C   0  0  0  0  0  0  0  0  0  0  0  0
  182.4430  179.0980  143.0300 C   0  0  0  0  0  3  0  0  0  0  0  0
  190.6160  177.6830  145.4880 C   0  0  0  0  0  2  0  0  0  0  0  0
  191.6350  178.5170  143.5040 C   0  0  0  0  0  2  0  0  0  0  0  0
  183.3020  179.1520  140.7800 N   0  0  0  0  0  1  0  0  0  0  0  0
  186.1370  177.9650  144.6370 C   0  0  0  0  0  0  0  0  0  0  0  0
  182.5780  178.8990  144.4000 C   0  0  0  0  0  3  0  0  0  0  0  0
  184.8040  178.5400  142.6840 C   0  0  0  0  0  0  0  0  0  0  0  0
  187.2570  177.7790  143.8560 C   0  0  0  0  0  0  0  0  0  0  0  0
  188.2770  176.8660  147.1000 O   0  0  0  0  0  0  0  0  0  0  0  0
  188.4010  177.2840  144.6960 C   0  0  1  0  0  3  0  0  0  0  0  0
  191.8980  178.2810  144.9670 C   0  0  0  0  0  2  0  0  0  0  0  0
  189.9580  176.0350  142.5070 C   0  0  0  0  0  1  0  0  0  0  0  0
  183.8080  178.5240  144.9290 C   0  0  0  0  0  3  0  0  0  0  0  0
  184.9140  178.3470  144.0920 C   0  0  0  0  0  0  0  0  0  0  0  0
  189.7280  177.5140  142.2210 C   0  0  2  0  0  3  0  0  0  0  0  0
  186.9590  178.4620  138.2530 N   0  0  0  0  0  2  0  0  0  0  0  0
  186.9750  176.3000  137.1570 C   0  0  0  0  0  1  0  0  0  0  0  0
  186.1890  177.5720  137.3980 C   0  0  0  0  0  2  0  0  0  0  0  0
  1  4  1  0  0  0  0
  1 19  1  0  0  0  0
  2 19  2  0  0  0  0
  2 13  1  0  0  0  0
  3 10  1  0  0  0  0
  4 20  1  0  0  0  0
  5  1  2  0  0  0  0
  6  8  1  0  0  0  0
  7 15  1  1  0  0  0
  7  9  1  0  0  0  0
  8 12  1  0  0  0  0
  9 22  1  0  0  0  0
  9 14  1  1  0  0  0
 10 21  2  0  0  0  0
 11  8  2  0  0  0  0
 11  5  1  0  0  0  0
 12 27  1  0  0  0  0
 12  4  2  0  0  0  0
 13 18  2  0  0  0  0
 15 23  1  0  0  0  0
 16  2  1  0  0  0  0
 17  3  1  0  0  0  0
 18 25  1  0  0  0  0
 19 26  1  0  0  0  0
 20 17  2  0  0  0  0
 22 20  1  6  0  0  0
 22 10  1  0  0  0  0
 23 14  1  0  0  0  0
 26 17  1  0  0  0  0
 26 25  2  0  0  0  0
 27 24  1  1  0  0  0
 27  7  1  0  0  0  0
 28 11  1  0  0  0  0
 29 30  1  0  0  0  0
 30 28  1  0  0  0  0
M  END
>  <MODEL>
1

>  <REMARK>
 VINA RESULT:     -10.0      0.000      0.000
  Name = 
  2 active torsions:
  status: ('A' for Active; 'I' for Inactive)
    1  A    between atoms: C_11  and  N_28
    2  A    between atoms: N_28  and  C_30
                            x       y       z     vdW  Elec       q    Type
                         _______ _______ _______ _____ _____    ______ ____

>  <TORSDO>
F 2

$$$$
=
 OpenBabel11122410273D

 30 35  0  0  1  0  0  0  0  0999 V2000
  186.2880  178.3320  142.6620 C   0  0  0  0  0  0  0  0  0  0  0  0
  187.1250  178.1230  145.0370 C   0  0  0  0  0  0  0  0  0  0  0  0
  182.3480  178.8530  144.0440 N   0  0  0  0  0  2  0  0  0  0  0  0
  185.1860  178.4960  141.7680 C   0  0  0  0  0  0  0  0  0  0  0  0
  187.5720  178.2120  142.1120 C   0  0  0  0  0  3  0  0  0  0  0  0
  186.9330  178.3690  138.4900 O   0  0  0  0  0  1  0  0  0  0  0  0
  183.1690  177.5190  139.6440 C   0  0  1  0  0  3  0  0  0  0  0  0
  186.7090  178.3670  139.8640 C   0  0  0  0  0  0  0  0  0  0  0  0
  182.2110  177.8340  140.7280 N   0  0  2  0  0  0  0  0  0  0  0  0
  181.6960  179.0530  142.7970 C   0  0  0  0  0  0  0  0  0  0  0  0
  187.7930  178.2360  140.7350 C   0  0  0  0  0  0  0  0  0  0  0  0
  185.4040  178.4890  140.3660 C   0  0  0  0  0  0  0  0  0  0  0  0
  186.8360  178.1070  146.4040 C   0  0  0  0  0  3  0  0  0  0  0  0
  180.9750  178.1940  140.0420 C   0  0  0  0  0  2  0  0  0  0  0  0
  182.3840  177.2460  138.3730 C   0  0  0  0  0  2  0  0  0  0  0  0
  188.4890  177.9570  144.6580 N   0  0  0  0  0  1  0  0  0  0  0  0
  183.7010  178.6250  143.6810 C   0  0  0  0  0  0  0  0  0  0  0  0
  185.5310  178.2600  146.8610 C   0  0  0  0  0  3  0  0  0  0  0  0
  186.0780  178.2970  144.0810 C   0  0  0  0  0  0  0  0  0  0  0  0
  183.9020  178.6490  142.3180 C   0  0  0  0  0  0  0  0  0  0  0  0
  180.4720  179.3380  142.7200 O   0  0  0  0  0  0  0  0  0  0  0  0
  182.6120  178.9460  141.6070 C   0  0  1  0  0  3  0  0  0  0  0  0
  180.9380  177.4130  138.7520 C   0  0  0  0  0  2  0  0  0  0  0  0
  183.7990  179.9740  139.0950 C   0  0  0  0  0  1  0  0  0  0  0  0
  184.4930  178.4300  145.9520 C   0  0  0  0  0  3  0  0  0  0  0  0
  184.7510  178.4470  144.5780 C   0  0  0  0  0  0  0  0  0  0  0  0
  184.2780  178.5540  139.3690 C   0  0  2  0  0  3  0  0  0  0  0  0
  189.1180  178.1130  140.2060 N   0  0  0  0  0  2  0  0  0  0  0  0
  191.1410  177.3210  141.2790 C   0  0  0  0  0  1  0  0  0  0  0  0
  189.9520  176.9420  140.4230 C   0  0  0  0  0  2  0  0  0  0  0  0
  1 19  1  0  0  0  0
  2 13  1  0  0  0  0
  4 20  1  0  0  0  0
  4  1  2  0  0  0  0
  5  1  1  0  0  0  0
  6  8  1  0  0  0  0
  7 15  1  6  0  0  0
  7  9  1  0  0  0  0
  8 12  2  0  0  0  0
  8 11  1  0  0  0  0
  9 14  1  6  0  0  0
  9 22  1  0  0  0  0
 10  3  1  0  0  0  0
 11  5  2  0  0  0  0
 12  4  1  0  0  0  0
 13 18  2  0  0  0  0
 15 23  1  0  0  0  0
 16  2  1  0  0  0  0
 17  3  1  0  0  0  0
 17 26  1  0  0  0  0
 19 26  1  0  0  0  0
 19  2  2  0  0  0  0
 20 17  2  0  0  0  0
 21 10  2  0  0  0  0
 22 20  1  1  0  0  0
 22 10  1  0  0  0  0
 23 14  1  0  0  0  0
 25 18  1  0  0  0  0
 26 25  2  0  0  0  0
 27 24  1  1  0  0  0
 27  7  1  0  0  0  0
 27 12  1  0  0  0  0
 28 30  1  0  0  0  0
 28 11  1  0  0  0  0
 30 29  1  0  0  0  0
M  END
>  <MODEL>
2

>  <REMARK>
 VINA RESULT:      -9.5      2.645      5.990
  Name = 
  2 active torsions:
  status: ('A' for Active; 'I' for Inactive)
    1  A    between atoms: C_11  and  N_28
    2  A    between atoms: N_28  and  C_30
                            x       y       z     vdW  Elec       q    Type
                         _______ _______ _______ _____ _____    ______ ____

>  <TORSDO>
F 2

$$$$
=
 OpenBabel11122410273D

 30 35  0  0  1  0  0  0  0  0999 V2000
  189.2650  177.2970  143.5840 C   0  0  0  0  0  0  0  0  0  0  0  0
  191.2240  176.2790  144.8130 C   0  0  0  0  0  0  0  0  0  0  0  0
  187.3400  178.1190  147.2340 N   0  0  0  0  0  2  0  0  0  0  0  0
  187.9730  177.9040  143.6410 C   0  0  0  0  0  0  0  0  0  0  0  0
  189.8490  177.1030  142.3240 C   0  0  0  0  0  3  0  0  0  0  0  0
  187.2800  178.3860  140.0210 O   0  0  0  0  0  1  0  0  0  0  0  0
  184.9100  177.9490  143.2490 C   0  0  1  0  0  3  0  0  0  0  0  0
  187.9280  178.0390  141.2030 C   0  0  0  0  0  0  0  0  0  0  0  0
  184.9460  178.1160  144.7190 N   0  0  2  0  0  0  0  0  0  0  0  0
  186.1830  178.7770  146.7360 C   0  0  0  0  0  0  0  0  0  0  0  0
  189.2040  177.4730  141.1440 C   0  0  0  0  0  0  0  0  0  0  0  0
  187.3000  178.2520  142.4400 C   0  0  0  0  0  0  0  0  0  0  0  0
  191.8150  175.9320  146.0300 C   0  0  0  0  0  3  0  0  0  0  0  0
  183.7410  178.8750  145.0390 C   0  0  0  0  0  2  0  0  0  0  0  0
  183.4900  178.1930  142.7720 C   0  0  0  0  0  2  0  0  0  0  0  0
  191.9540  175.9800  143.6250 N   0  0  0  0  0  1  0  0  0  0  0  0
  188.0510  177.7590  146.0600 C   0  0  0  0  0  0  0  0  0  0  0  0
  191.1720  176.1860  147.2360 C   0  0  0  0  0  3  0  0  0  0  0  0
  189.9400  176.9030  144.7870 C   0  0  0  0  0  0  0  0  0  0  0  0
  187.3990  178.1280  144.9040 C   0  0  0  0  0  0  0  0  0  0  0  0
  185.3240  179.2910  147.5000 O   0  0  0  0  0  0  0  0  0  0  0  0
  186.1190  178.8430  145.2340 C   0  0  1  0  0  3  0  0  0  0  0  0
  182.6990  178.5080  144.0130 C   0  0  0  0  0  2  0  0  0  0  0  0
  185.8370  180.3010  142.6690 C   0  0  0  0  0  1  0  0  0  0  0  0
  189.9200  176.7920  147.2410 C   0  0  0  0  0  3  0  0  0  0  0  0
  189.3010  177.1470  146.0380 C   0  0  0  0  0  0  0  0  0  0  0  0
  185.8980  178.7990  142.4250 C   0  0  2  0  0  3  0  0  0  0  0  0
  189.8290  177.2630  139.8740 N   0  0  0  0  0  2  0  0  0  0  0  0
  191.5480  176.4030  138.3970 C   0  0  0  0  0  1  0  0  0  0  0  0
  191.2640  177.0910  139.7160 C   0  0  0  0  0  2  0  0  0  0  0  0
  1  4  1  0  0  0  0
  1 19  1  0  0  0  0
  2 13  1  0  0  0  0
  4 20  1  0  0  0  0
  5  1  2  0  0  0  0
  6  8  1  0  0  0  0
  7 15  1  6  0  0  0
  7  9  1  0  0  0  0
  8 12  1  0  0  0  0
  9 14  1  6  0  0  0
  9 22  1  0  0  0  0
 10  3  1  0  0  0  0
 10 21  2  0  0  0  0
 11  8  2  0  0  0  0
 11  5  1  0  0  0  0
 12  4  2  0  0  0  0
 13 18  2  0  0  0  0
 15 23  1  0  0  0  0
 16  2  1  0  0  0  0
 17  3  1  0  0  0  0
 18 25  1  0  0  0  0
 19  2  2  0  0  0  0
 19 26  1  0  0  0  0
 20 17  2  0  0  0  0
 22 20  1  6  0  0  0
 22 10  1  0  0  0  0
 23 14  1  0  0  0  0
 26 17  1  0  0  0  0
 26 25  2  0  0  0  0
 27 12  1  0  0  0  0
 27 24  1  1  0  0  0
 27  7  1  0  0  0  0
 28 11  1  0  0  0  0
 29 30  1  0  0  0  0
 30 28  1  0  0  0  0
M  END
>  <MODEL>
3

>  <REMARK>
 VINA RESULT:      -9.4      2.135      5.551
  Name = 
  2 active torsions:
  status: ('A' for Active; 'I' for Inactive)
    1  A    between atoms: C_11  and  N_28
    2  A    between atoms: N_28  and  C_30
                            x       y       z     vdW  Elec       q    Type
                         _______ _______ _______ _____ _____    ______ ____

>  <TORSDO>
F 2

$$$$
=
 OpenBabel11122410273D

 30 35  0  0  1  0  0  0  0  0999 V2000
  187.9580  177.8060  142.8530 C   0  0  0  0  0  0  0  0  0  0  0  0
  186.8540  177.9560  145.1210 C   0  0  0  0  0  0  0  0  0  0  0  0
  184.3970  179.0450  140.9840 N   0  0  0  0  0  2  0  0  0  0  0  0
  187.8480  177.9270  141.4340 C   0  0  0  0  0  0  0  0  0  0  0  0
  189.1970  177.4320  143.3900 C   0  0  0  0  0  3  0  0  0  0  0  0
  191.2860  176.9710  140.3930 O   0  0  0  0  0  1  0  0  0  0  0  0
  187.7040  176.8100  138.5580 C   0  0  1  0  0  3  0  0  0  0  0  0
  190.1840  177.2570  141.1950 C   0  0  0  0  0  0  0  0  0  0  0  0
  186.3640  177.4370  138.6180 N   0  0  2  0  0  0  0  0  0  0  0  0
  184.8500  179.0810  139.6370 C   0  0  0  0  0  0  0  0  0  0  0  0
  190.3040  177.1670  142.5830 C   0  0  0  0  0  0  0  0  0  0  0  0
  188.9630  177.6270  140.6090 C   0  0  0  0  0  0  0  0  0  0  0  0
  185.7090  178.2340  145.8710 C   0  0  0  0  0  3  0  0  0  0  0  0
  186.0620  177.8050  137.2390 C   0  0  0  0  0  2  0  0  0  0  0  0
  187.9770  176.3950  137.1240 C   0  0  0  0  0  2  0  0  0  0  0  0
  188.0220  177.5590  145.8370 N   0  0  0  0  0  1  0  0  0  0  0  0
  185.5320  178.5930  141.7070 C   0  0  0  0  0  0  0  0  0  0  0  0
  184.5260  178.6250  145.2530 C   0  0  0  0  0  3  0  0  0  0  0  0
  186.8270  178.0670  143.6970 C   0  0  0  0  0  0  0  0  0  0  0  0
  186.6150  178.3330  140.8950 C   0  0  0  0  0  0  0  0  0  0  0  0
  184.1190  179.4890  138.6970 O   0  0  0  0  0  0  0  0  0  0  0  0
  186.2780  178.6410  139.4630 C   0  0  1  0  0  3  0  0  0  0  0  0
  186.7530  176.8030  136.3490 C   0  0  0  0  0  2  0  0  0  0  0  0
  189.0550  179.0230  138.5020 C   0  0  0  0  0  1  0  0  0  0  0  0
  184.4720  178.7410  143.8690 C   0  0  0  0  0  3  0  0  0  0  0  0
  185.6010  178.4650  143.0910 C   0  0  0  0  0  0  0  0  0  0  0  0
  188.8860  177.6340  139.1060 C   0  0  2  0  0  3  0  0  0  0  0  0
  191.5570  176.7880  143.1640 N   0  0  0  0  0  2  0  0  0  0  0  0
  191.6800  176.3790  145.5490 C   0  0  0  0  0  1  0  0  0  0  0  0
  191.6810  175.7490  144.1730 C   0  0  0  0  0  2  0  0  0  0  0  0
  1  5  1  0  0  0  0
  1 19  1  0  0  0  0
  2 16  1  0  0  0  0
  2 13  1  0  0  0  0
  3 17  1  0  0  0  0
  4  1  2  0  0  0  0
  6  8  1  0  0  0  0
  7 15  1  6  0  0  0
  7  9  1  0  0  0  0
  7 27  1  0  0  0  0
  8 11  1  0  0  0  0
  9 14  1  6  0  0  0
  9 22  1  0  0  0  0
 10  3  1  0  0  0  0
 11 28  1  0  0  0  0
 11  5  2  0  0  0  0
 12  8  2  0  0  0  0
 12  4  1  0  0  0  0
 17 26  1  0  0  0  0
 18 13  2  0  0  0  0
 19  2  2  0  0  0  0
 20  4  1  0  0  0  0
 20 17  2  0  0  0  0
 21 10  2  0  0  0  0
 22 10  1  1  0  0  0
 22 20  1  0  0  0  0
 23 15  1  0  0  0  0
 23 14  1  0  0  0  0
 25 18  1  0  0  0  0
 26 19  1  0  0  0  0
 26 25  2  0  0  0  0
 27 24  1  1  0  0  0
 27 12  1  0  0  0  0
 28 30  1  0  0  0  0
 30 29  1  0  0  0  0
M  END
>  <MODEL>
4

>  <REMARK>
 VINA RESULT:      -8.9      1.903      5.713
  Name = 
  2 active torsions:
  status: ('A' for Active; 'I' for Inactive)
    1  A    between atoms: C_11  and  N_28
    2  A    between atoms: N_28  and  C_30
                            x       y       z     vdW  Elec       q    Type
                         _______ _______ _______ _____ _____    ______ ____

>  <TORSDO>
F 2

$$$$
=
 OpenBabel11122410273D

 30 35  0  0  1  0  0  0  0  0999 V2000
  187.3610  178.1400  141.6040 C   0  0  0  0  0  0  0  0  0  0  0  0
  188.8650  177.7200  143.5890 C   0  0  0  0  0  0  0  0  0  0  0  0
  184.0190  178.4590  144.1400 N   0  0  0  0  0  2  0  0  0  0  0  0
  186.0440  178.3690  141.0990 C   0  0  0  0  0  0  0  0  0  0  0  0
  188.4200  178.0940  140.6870 C   0  0  0  0  0  3  0  0  0  0  0  0
  186.7320  178.5850  137.4520 O   0  0  0  0  0  1  0  0  0  0  0  0
  183.4730  177.5640  139.5890 C   0  0  1  0  0  3  0  0  0  0  0  0
  186.9280  178.4480  138.8240 C   0  0  0  0  0  0  0  0  0  0  0  0
  182.8870  177.7580  140.9350 N   0  0  2  0  0  0  0  0  0  0  0  0
  183.0270  178.7650  143.1700 C   0  0  0  0  0  0  0  0  0  0  0  0
  188.2210  178.2540  139.3150 C   0  0  0  0  0  0  0  0  0  0  0  0
  185.8330  178.5000  139.7010 C   0  0  0  0  0  0  0  0  0  0  0  0
  188.9970  177.5680  144.9720 C   0  0  0  0  0  3  0  0  0  0  0  0
  181.5070  178.1610  140.6850 C   0  0  0  0  0  2  0  0  0  0  0  0
  182.3420  177.4000  138.5900 C   0  0  0  0  0  2  0  0  0  0  0  0
  190.0520  177.6140  142.8070 N   0  0  0  0  0  1  0  0  0  0  0  0
  185.1990  178.2900  143.3710 C   0  0  0  0  0  0  0  0  0  0  0  0
  187.8900  177.6540  145.8100 C   0  0  0  0  0  3  0  0  0  0  0  0
  187.5830  177.9660  143.0100 C   0  0  0  0  0  0  0  0  0  0  0  0
  184.9850  178.4470  142.0190 C   0  0  0  0  0  0  0  0  0  0  0  0
  181.8400  179.0360  143.4890 O   0  0  0  0  0  0  0  0  0  0  0  0
  183.5450  178.7870  141.7570 C   0  0  1  0  0  3  0  0  0  0  0  0
  181.0770  177.5060  139.3970 C   0  0  0  0  0  2  0  0  0  0  0  0
  183.9410  180.0710  139.1150 C   0  0  0  0  0  1  0  0  0  0  0  0
  186.6300  177.8930  145.2730 C   0  0  0  0  0  3  0  0  0  0  0  0
  186.4660  178.0450  143.8920 C   0  0  0  0  0  0  0  0  0  0  0  0
  184.4620  178.6390  139.0970 C   0  0  2  0  0  3  0  0  0  0  0  0
  189.3260  178.2040  138.4060 N   0  0  0  0  0  2  0  0  0  0  0  0
  189.9440  177.0880  136.3460 C   0  0  0  0  0  1  0  0  0  0  0  0
  189.8390  176.9620  137.8510 C   0  0  0  0  0  2  0  0  0  0  0  0
  1 19  1  0  0  0  0
  2 13  1  0  0  0  0
  4  1  1  0  0  0  0
  4 20  1  0  0  0  0
  5  1  2  0  0  0  0
  6  8  1  0  0  0  0
  7 15  1  6  0  0  0
  7  9  1  0  0  0  0
  8 11  2  0  0  0  0
  8 12  1  0  0  0  0
  9 14  1  6  0  0  0
  9 22  1  0  0  0  0
 10 21  2  0  0  0  0
 10  3  1  0  0  0  0
 11  5  1  0  0  0  0
 12  4  2  0  0  0  0
 13 18  2  0  0  0  0
 15 23  1  0  0  0  0
 16  2  1  0  0  0  0
 17 26  1  0  0  0  0
 17  3  1  0  0  0  0
 19  2  2  0  0  0  0
 19 26  1  0  0  0  0
 20 17  2  0  0  0  0
 22 20  1  1  0  0  0
 22 10  1  0  0  0  0
 23 14  1  0  0  0  0
 25 18  1  0  0  0  0
 26 25  2  0  0  0  0
 27 24  1  1  0  0  0
 27  7  1  0  0  0  0
 27 12  1  0  0  0  0
 28 11  1  0  0  0  0
 29 30  1  0  0  0  0
 30 28  1  0  0  0  0
M  END
>  <MODEL>
5

>  <REMARK>
 VINA RESULT:      -8.7      2.451      5.739
  Name = 
  2 active torsions:
  status: ('A' for Active; 'I' for Inactive)
    1  A    between atoms: C_11  and  N_28
    2  A    between atoms: N_28  and  C_30
                            x       y       z     vdW  Elec       q    Type
                         _______ _______ _______ _____ _____    ______ ____

>  <TORSDO>
F 2

$$$$
=
 OpenBabel11122410273D

 30 35  0  0  1  0  0  0  0  0999 V2000
  186.5240  178.0570  144.6940 C   0  0  0  0  0  0  0  0  0  0  0  0
  184.0630  178.4210  145.1330 C   0  0  0  0  0  0  0  0  0  0  0  0
  185.9750  178.9200  140.6130 N   0  0  0  0  0  2  0  0  0  0  0  0
  187.6010  178.0070  143.7560 C   0  0  0  0  0  0  0  0  0  0  0  0
  186.8100  177.7990  146.0420 C   0  0  0  0  0  3  0  0  0  0  0  0
  190.4210  177.0830  145.9950 O   0  0  0  0  0  1  0  0  0  0  0  0
  189.7370  176.5600  142.0600 C   0  0  1  0  0  3  0  0  0  0  0  0
  189.1420  177.4130  145.5560 C   0  0  0  0  0  0  0  0  0  0  0  0
  188.9310  177.1330  140.9580 N   0  0  2  0  0  0  0  0  0  0  0  0
  187.3240  178.8180  140.1770 C   0  0  0  0  0  0  0  0  0  0  0  0
  188.0980  177.4890  146.4800 C   0  0  0  0  0  0  0  0  0  0  0  0
  188.9060  177.6610  144.1940 C   0  0  0  0  0  0  0  0  0  0  0  0
  182.7980  178.7360  144.6300 C   0  0  0  0  0  3  0  0  0  0  0  0
  189.8780  177.3250  139.8640 C   0  0  0  0  0  2  0  0  0  0  0  0
  191.0180  175.9940  141.4750 C   0  0  0  0  0  2  0  0  0  0  0  0
  184.1610  178.1600  146.5310 N   0  0  0  0  0  1  0  0  0  0  0  0
  186.0450  178.6030  141.9940 C   0  0  0  0  0  0  0  0  0  0  0  0
  182.6120  179.0030  143.2770 C   0  0  0  0  0  3  0  0  0  0  0  0
  185.1920  178.3650  144.2600 C   0  0  0  0  0  0  0  0  0  0  0  0
  187.3220  178.2960  142.4100 C   0  0  0  0  0  0  0  0  0  0  0  0
  187.6670  179.0840  138.9950 O   0  0  0  0  0  0  0  0  0  0  0  0
  188.2860  178.4210  141.2640 C   0  0  1  0  0  3  0  0  0  0  0  0
  190.9340  176.2570  139.9960 C   0  0  0  0  0  2  0  0  0  0  0  0
  190.7390  178.8060  142.8820 C   0  0  0  0  0  1  0  0  0  0  0  0
  183.6940  178.9550  142.4050 C   0  0  0  0  0  3  0  0  0  0  0  0
  184.9710  178.6390  142.8790 C   0  0  0  0  0  0  0  0  0  0  0  0
  190.0610  177.4910  143.2450 C   0  0  2  0  0  3  0  0  0  0  0  0
  188.3560  177.2340  147.8650 N   0  0  0  0  0  2  0  0  0  0  0  0
  190.0300  178.6280  148.9270 C   0  0  0  0  0  1  0  0  0  0  0  0
  188.5560  178.2920  148.8420 C   0  0  0  0  0  2  0  0  0  0  0  0
  1  5  1  0  0  0  0
  2 16  1  0  0  0  0
  3 17  1  0  0  0  0
  4 12  1  0  0  0  0
  4  1  2  0  0  0  0
  5 11  2  0  0  0  0
  7 15  1  6  0  0  0
  7 27  1  0  0  0  0
  8  6  1  0  0  0  0
  8 11  1  0  0  0  0
  9 14  1  6  0  0  0
  9 22  1  0  0  0  0
  9  7  1  0  0  0  0
 10  3  1  0  0  0  0
 11 28  1  0  0  0  0
 12  8  2  0  0  0  0
 13  2  1  0  0  0  0
 14 23  1  0  0  0  0
 17 20  2  0  0  0  0
 17 26  1  0  0  0  0
 18 13  2  0  0  0  0
 19  1  1  0  0  0  0
 19  2  2  0  0  0  0
 20  4  1  0  0  0  0
 21 10  2  0  0  0  0
 22 10  1  6  0  0  0
 22 20  1  0  0  0  0
 23 15  1  0  0  0  0
 25 26  2  0  0  0  0
 25 18  1  0  0  0  0
 26 19  1  0  0  0  0
 27 24  1  6  0  0  0
 27 12  1  0  0  0  0
 28 30  1  0  0  0  0
 30 29  1  0  0  0  0
M  END
>  <MODEL>
6

>  <REMARK>
 VINA RESULT:      -8.1      1.703      5.419
  Name = 
  2 active torsions:
  status: ('A' for Active; 'I' for Inactive)
    1  A    between atoms: C_11  and  N_28
    2  A    between atoms: N_28  and  C_30
                            x       y       z     vdW  Elec       q    Type
                         _______ _______ _______ _____ _____    ______ ____

>  <TORSDO>
F 2

$$$$
=
 OpenBabel11122410273D

 30 35  0  0  1  0  0  0  0  0999 V2000
  187.1380  178.1530  141.8140 C   0  0  0  0  0  0  0  0  0  0  0  0
  186.1930  178.3480  144.1490 C   0  0  0  0  0  0  0  0  0  0  0  0
  183.3410  178.8960  140.1610 N   0  0  0  0  0  2  0  0  0  0  0  0
  186.9130  178.1630  140.4030 C   0  0  0  0  0  0  0  0  0  0  0  0
  188.4460  177.9420  142.2730 C   0  0  0  0  0  3  0  0  0  0  0  0
  190.3490  177.4860  139.1540 O   0  0  0  0  0  1  0  0  0  0  0  0
  186.6800  176.8400  137.6230 C   0  0  1  0  0  3  0  0  0  0  0  0
  189.2840  177.7150  140.0220 C   0  0  0  0  0  0  0  0  0  0  0  0
  185.2890  177.3320  137.7500 N   0  0  2  0  0  0  0  0  0  0  0  0
  183.6880  178.8820  138.7830 C   0  0  0  0  0  0  0  0  0  0  0  0
  189.5130  177.7340  141.3990 C   0  0  0  0  0  0  0  0  0  0  0  0
  187.9910  177.9190  139.5120 C   0  0  0  0  0  0  0  0  0  0  0  0
  185.0820  178.5610  144.9690 C   0  0  0  0  0  3  0  0  0  0  0  0
  184.8510  177.5710  136.3790 C   0  0  0  0  0  2  0  0  0  0  0  0
  186.8900  176.3560  136.1990 C   0  0  0  0  0  2  0  0  0  0  0  0
  187.4440  178.1210  144.7930 N   0  0  0  0  0  1  0  0  0  0  0  0
  184.5660  178.6110  140.8170 C   0  0  0  0  0  0  0  0  0  0  0  0
  183.8230  178.7880  144.4240 C   0  0  0  0  0  3  0  0  0  0  0  0
  186.0510  178.3570  142.7280 C   0  0  0  0  0  0  0  0  0  0  0  0
  185.6090  178.4050  139.9410 C   0  0  0  0  0  0  0  0  0  0  0  0
  182.8530  179.1500  137.8800 O   0  0  0  0  0  0  0  0  0  0  0  0
  185.1390  178.5770  138.5230 C   0  0  1  0  0  3  0  0  0  0  0  0
  185.5770  176.5840  135.5010 C   0  0  0  0  0  2  0  0  0  0  0  0
  187.7830  179.1680  137.3230 C   0  0  0  0  0  1  0  0  0  0  0  0
  183.6560  178.8020  143.0440 C   0  0  0  0  0  3  0  0  0  0  0  0
  184.7480  178.5870  142.1970 C   0  0  0  0  0  0  0  0  0  0  0  0
  187.8050  177.8140  138.0230 C   0  0  2  0  0  3  0  0  0  0  0  0
  190.8380  177.5240  141.9000 N   0  0  0  0  0  2  0  0  0  0  0  0
  191.5580  176.0700  143.7000 C   0  0  0  0  0  1  0  0  0  0  0  0
  191.1490  177.4770  143.3200 C   0  0  0  0  0  2  0  0  0  0  0  0
  1  5  1  0  0  0  0
  1 19  1  0  0  0  0
  2 16  1  0  0  0  0
  2 13  1  0  0  0  0
  3 17  1  0  0  0  0
  4  1  2  0  0  0  0
  6  8  1  0  0  0  0
  7 15  1  6  0  0  0
  7  9  1  0  0  0  0
  7 27  1  0  0  0  0
  8 11  1  0  0  0  0
  9 14  1  6  0  0  0
  9 22  1  0  0  0  0
 10  3  1  0  0  0  0
 11 28  1  0  0  0  0
 11  5  2  0  0  0  0
 12  8  2  0  0  0  0
 12  4  1  0  0  0  0
 17 26  1  0  0  0  0
 18 13  2  0  0  0  0
 19  2  2  0  0  0  0
 20  4  1  0  0  0  0
 20 17  2  0  0  0  0
 21 10  2  0  0  0  0
 22 10  1  1  0  0  0
 22 20  1  0  0  0  0
 23 15  1  0  0  0  0
 23 14  1  0  0  0  0
 25 18  1  0  0  0  0
 26 19  1  0  0  0  0
 26 25  2  0  0  0  0
 27 24  1  1  0  0  0
 27 12  1  0  0  0  0
 28 30  1  0  0  0  0
 30 29  1  0  0  0  0
M  END
>  <MODEL>
7

>  <REMARK>
 VINA RESULT:      -7.9      2.027      6.002
  Name = 
  2 active torsions:
  status: ('A' for Active; 'I' for Inactive)
    1  A    between atoms: C_11  and  N_28
    2  A    between atoms: N_28  and  C_30
                            x       y       z     vdW  Elec       q    Type
                         _______ _______ _______ _____ _____    ______ ____

>  <TORSDO>
F 2

$$$$
=
 OpenBabel11122410273D

 30 35  0  0  1  0  0  0  0  0999 V2000
  188.1200  177.7080  143.1880 C   0  0  0  0  0  0  0  0  0  0  0  0
  186.1530  178.2130  144.6910 C   0  0  0  0  0  0  0  0  0  0  0  0
  185.8630  178.7580  139.7960 N   0  0  0  0  0  2  0  0  0  0  0  0
  188.6540  177.6240  141.8650 C   0  0  0  0  0  0  0  0  0  0  0  0
  188.9610  177.3810  144.2610 C   0  0  0  0  0  3  0  0  0  0  0  0
  192.1010  176.4360  142.5870 O   0  0  0  0  0  1  0  0  0  0  0  0
  189.6860  176.1070  139.3810 C   0  0  1  0  0  3  0  0  0  0  0  0
  190.7900  176.8650  142.7730 C   0  0  0  0  0  0  0  0  0  0  0  0
  188.5160  176.7720  138.7630 N   0  0  2  0  0  0  0  0  0  0  0  0
  186.8600  178.5860  138.7990 C   0  0  0  0  0  0  0  0  0  0  0  0
  190.2820  176.9730  144.0700 C   0  0  0  0  0  0  0  0  0  0  0  0
  189.9870  177.1780  141.6650 C   0  0  0  0  0  0  0  0  0  0  0  0
  184.8250  178.6280  144.8130 C   0  0  0  0  0  3  0  0  0  0  0  0
  188.8820  176.9440  137.3610 C   0  0  0  0  0  2  0  0  0  0  0  0
  190.5210  175.4820  138.2790 C   0  0  0  0  0  2  0  0  0  0  0  0
  186.8500  177.8930  145.8930 N   0  0  0  0  0  1  0  0  0  0  0  0
  186.5210  178.3850  140.9960 C   0  0  0  0  0  0  0  0  0  0  0  0
  184.0710  178.9570  143.6910 C   0  0  0  0  0  3  0  0  0  0  0  0
  186.7630  178.1180  143.4020 C   0  0  0  0  0  0  0  0  0  0  0  0
  187.8230  177.9810  140.7900 C   0  0  0  0  0  0  0  0  0  0  0  0
  186.6540  178.8730  137.5900 O   0  0  0  0  0  0  0  0  0  0  0  0
  188.1750  178.0870  139.3330 C   0  0  1  0  0  3  0  0  0  0  0  0
  189.8010  175.8050  136.9980 C   0  0  0  0  0  2  0  0  0  0  0  0
  191.1140  178.2520  139.6730 C   0  0  0  0  0  1  0  0  0  0  0  0
  184.6390  178.8730  142.4250 C   0  0  0  0  0  3  0  0  0  0  0  0
  185.9660  178.4570  142.2700 C   0  0  0  0  0  0  0  0  0  0  0  0
  190.5760  176.9700  140.2970 C   0  0  2  0  0  3  0  0  0  0  0  0
  191.1150  176.6490  145.1880 N   0  0  0  0  0  2  0  0  0  0  0  0
  191.6860  176.1060  147.4790 C   0  0  0  0  0  1  0  0  0  0  0  0
  190.6660  176.7530  146.5670 C   0  0  0  0  0  2  0  0  0  0  0  0
  1 19  1  0  0  0  0
  1  5  1  0  0  0  0
  2 13  1  0  0  0  0
  2 16  1  0  0  0  0
  3 17  1  0  0  0  0
  4  1  2  0  0  0  0
  6  8  1  0  0  0  0
  7 15  1  6  0  0  0
  7 27  1  0  0  0  0
  8 11  1  0  0  0  0
  9 14  1  6  0  0  0
  9 22  1  0  0  0  0
  9  7  1  0  0  0  0
 10  3  1  0  0  0  0
 11  5  2  0  0  0  0
 11 28  1  0  0  0  0
 12  4  1  0  0  0  0
 12  8  2  0  0  0  0
 17 26  1  0  0  0  0
 18 13  2  0  0  0  0
 19  2  2  0  0  0  0
 20 17  2  0  0  0  0
 20  4  1  0  0  0  0
 21 10  2  0  0  0  0
 22 10  1  6  0  0  0
 22 20  1  0  0  0  0
 23 14  1  0  0  0  0
 23 15  1  0  0  0  0
 25 18  1  0  0  0  0
 26 25  2  0  0  0  0
 26 19  1  0  0  0  0
 27 24  1  6  0  0  0
 27 12  1  0  0  0  0
 28 30  1  0  0  0  0
 30 29  1  0  0  0  0
M  END
>  <MODEL>
8

>  <REMARK>
 VINA RESULT:      -7.7      1.950      5.747
  Name = 
  2 active torsions:
  status: ('A' for Active; 'I' for Inactive)
    1  A    between atoms: C_11  and  N_28
    2  A    between atoms: N_28  and  C_30
                            x       y       z     vdW  Elec       q    Type
                         _______ _______ _______ _____ _____    ______ ____

>  <TORSDO>
F 2

$$$$
=
 OpenBabel11122410273D

 30 35  0  0  1  0  0  0  0  0999 V2000
  185.9430  178.4500  142.7900 C   0  0  0  0  0  0  0  0  0  0  0  0
  185.6590  178.4870  140.2800 C   0  0  0  0  0  0  0  0  0  0  0  0
  190.1050  178.0050  142.3610 N   0  0  0  0  0  2  0  0  0  0  0  0
  186.8130  178.3240  143.9160 C   0  0  0  0  0  0  0  0  0  0  0  0
  184.5750  178.6410  143.0300 C   0  0  0  0  0  3  0  0  0  0  0  0
  184.3700  178.5840  146.7050 O   0  0  0  0  0  1  0  0  0  0  0  0
  187.9890  176.8510  146.3620 C   0  0  1  0  0  3  0  0  0  0  0  0
  184.9010  178.5470  145.4190 C   0  0  0  0  0  0  0  0  0  0  0  0
  189.2200  176.9360  145.5430 N   0  0  2  0  0  0  0  0  0  0  0  0
  190.4770  178.0200  143.7330 C   0  0  0  0  0  0  0  0  0  0  0  0
  184.0510  178.6990  144.3210 C   0  0  0  0  0  0  0  0  0  0  0  0
  186.2790  178.3510  145.2310 C   0  0  0  0  0  0  0  0  0  0  0  0
  186.2470  178.4190  139.0140 C   0  0  0  0  0  3  0  0  0  0  0  0
  190.3110  176.9720  146.5120 C   0  0  0  0  0  2  0  0  0  0  0  0
  188.3680  176.3750  147.7530 C   0  0  0  0  0  2  0  0  0  0  0  0
  184.2440  178.6560  140.3330 N   0  0  0  0  0  1  0  0  0  0  0  0
  188.6910  178.1110  142.3960 C   0  0  0  0  0  0  0  0  0  0  0  0
  187.6200  178.2530  138.8710 C   0  0  0  0  0  3  0  0  0  0  0  0
  186.4640  178.3840  141.4550 C   0  0  0  0  0  0  0  0  0  0  0  0
  188.1890  178.1640  143.6780 C   0  0  0  0  0  0  0  0  0  0  0  0
  191.6800  177.9950  144.1010 O   0  0  0  0  0  0  0  0  0  0  0  0
  189.3100  178.1240  144.6780 C   0  0  1  0  0  3  0  0  0  0  0  0
  189.8610  176.1870  147.7180 C   0  0  0  0  0  2  0  0  0  0  0  0
  187.8460  179.3780  146.9290 C   0  0  0  0  0  1  0  0  0  0  0  0
  188.4280  178.1490  139.9980 C   0  0  0  0  0  3  0  0  0  0  0  0
  187.8680  178.2090  141.2780 C   0  0  0  0  0  0  0  0  0  0  0  0
  187.1230  178.1230  146.4550 C   0  0  2  0  0  3  0  0  0  0  0  0
  182.6490  178.8980  144.5320 N   0  0  0  0  0  2  0  0  0  0  0  0
  180.3140  178.6260  143.9450 C   0  0  0  0  0  1  0  0  0  0  0  0
  181.6920  179.0030  143.4430 C   0  0  0  0  0  2  0  0  0  0  0  0
  1  5  2  0  0  0  0
  1  4  1  0  0  0  0
  2 16  1  0  0  0  0
  2 19  1  0  0  0  0
  3 17  1  0  0  0  0
  3 10  1  0  0  0  0
  4 12  2  0  0  0  0
  5 11  1  0  0  0  0
  7 27  1  0  0  0  0
  7 15  1  1  0  0  0
  8  6  1  0  0  0  0
  9  7  1  0  0  0  0
  9 14  1  1  0  0  0
 10 21  2  0  0  0  0
 10 22  1  0  0  0  0
 11 28  1  0  0  0  0
 11  8  2  0  0  0  0
 12  8  1  0  0  0  0
 12 27  1  0  0  0  0
 13  2  2  0  0  0  0
 14 23  1  0  0  0  0
 17 20  2  0  0  0  0
 18 13  1  0  0  0  0
 18 25  2  0  0  0  0
 19  1  1  0  0  0  0
 20  4  1  0  0  0  0
 22 20  1  6  0  0  0
 22  9  1  0  0  0  0
 23 15  1  0  0  0  0
 25 26  1  0  0  0  0
 26 19  2  0  0  0  0
 26 17  1  0  0  0  0
 27 24  1  6  0  0  0
 30 29  1  0  0  0  0
 30 28  1  0  0  0  0
M  END
>  <MODEL>
9

>  <REMARK>
 VINA RESULT:      -7.6      1.894      5.034
  Name = 
  2 active torsions:
  status: ('A' for Active; 'I' for Inactive)
    1  A    between atoms: C_11  and  N_28
    2  A    between atoms: N_28  and  C_30
                            x       y       z     vdW  Elec       q    Type
                         _______ _______ _______ _____ _____    ______ ____

>  <TORSDO>
F 2

$$$$
