=
 OpenBabel11122411363D

 37 44  0  0  1  0  0  0  0  0999 V2000
  188.6780  176.9760  138.9830 C   0  0  0  0  0  2  0  0  0  0  0  0
  190.3620  177.1820  143.3370 C   0  0  0  0  0  0  0  0  0  0  0  0
  186.3090  178.1310  142.8960 C   0  0  0  0  0  0  0  0  0  0  0  0
  189.4840  177.3170  137.7200 C   0  0  2  0  0  3  0  0  0  0  0  0
  184.9440  178.7980  139.3040 C   0  0  0  0  0  2  0  0  0  0  0  0
  188.1700  177.8490  144.4320 C   0  0  0  0  0  0  0  0  0  0  0  0
  186.1960  178.2330  141.4990 C   0  0  0  0  0  0  0  0  0  0  0  0
  187.4260  177.7930  136.2820 C   0  0  0  0  0  0  0  0  0  0  0  0
  187.6450  177.9550  143.1550 C   0  0  0  0  0  0  0  0  0  0  0  0
  184.9530  178.4410  140.7400 N   0  0  0  0  0  0  0  0  0  0  0  0
  187.2870  177.9400  145.5140 C   0  0  0  0  0  3  0  0  0  0  0  0
  188.6970  177.1680  136.4900 N   0  0  0  0  0  2  0  0  0  0  0  0
  188.3820  177.9140  142.0440 N   0  0  0  0  0  0  0  0  0  0  0  0
  190.1510  175.6800  143.2490 C   0  0  0  0  0  1  0  0  0  0  0  0
  183.9050  178.3340  143.8310 C   0  0  0  0  0  2  0  0  0  0  0  0
  185.9070  178.1150  145.2790 C   0  0  0  0  0  3  0  0  0  0  0  0
  189.8440  177.8490  142.0450 C   0  0  0  0  0  2  0  0  0  0  0  0
  186.7330  178.3300  137.3950 N   0  0  0  0  0  0  0  0  0  0  0  0
  185.9780  177.9550  138.6390 C   0  0  1  0  0  3  0  0  0  0  0  0
  185.3930  178.2260  143.9700 C   0  0  0  0  0  0  0  0  0  0  0  0
  187.5390  178.0980  141.0050 C   0  0  0  0  0  0  0  0  0  0  0  0
  189.6600  177.7320  144.6020 C   0  0  0  0  0  2  0  0  0  0  0  0
  183.6740  178.1460  141.4020 C   0  0  1  0  0  3  0  0  0  0  0  0
  191.8470  177.4460  143.4540 C   0  0  0  0  0  1  0  0  0  0  0  0
  186.9710  178.8930  138.7380 C   0  0  1  0  0  3  0  0  0  0  0  0
  186.8990  177.7990  135.1390 O   0  0  0  0  0  0  0  0  0  0  0  0
  188.0510  178.2510  139.5790 C   0  0  2  0  0  3  0  0  0  0  0  0
  183.4600  179.0660  142.5860 C   0  0  0  0  0  2  0  0  0  0  0  0
  181.6200  179.2330  140.4680 C   0  0  0  0  0  3  0  0  0  0  0  0
  182.4790  178.1290  140.4850 C   0  0  0  0  0  0  0  0  0  0  0  0
  182.1920  177.0140  139.6800 C   0  0  0  0  0  3  0  0  0  0  0  0
  180.7100  175.6260  137.8550 Cl  0  0  0  0  0  0  0  0  0  0  0  0
  180.2110  178.1230  138.8410 C   0  0  0  0  0  3  0  0  0  0  0  0
  181.0620  177.0150  138.8590 C   0  0  0  0  0  0  0  0  0  0  0  0
  180.4890  179.2320  139.6460 C   0  0  0  0  0  3  0  0  0  0  0  0
  190.7760  175.5970  138.7530 O   0  0  0  0  0  1  0  0  0  0  0  0
  190.7110  176.4290  137.6350 C   0  0  0  0  0  2  0  0  0  0  0  0
  2 24  1  0  0  0  0
  2 22  1  0  0  0  0
  3  9  2  0  0  0  0
  3 20  1  0  0  0  0
  4 37  1  6  0  0  0
  4  1  1  0  0  0  0
  5 10  1  0  0  0  0
  6 22  1  0  0  0  0
  6 11  2  0  0  0  0
  7  3  1  0  0  0  0
  8 12  1  0  0  0  0
  8 18  1  0  0  0  0
  9  6  1  0  0  0  0
 10 23  1  0  0  0  0
 10  7  1  0  0  0  0
 12  4  1  0  0  0  0
 13 17  1  0  0  0  0
 13  9  1  0  0  0  0
 14  2  1  0  0  0  0
 15 20  1  0  0  0  0
 16 11  1  0  0  0  0
 17  2  1  0  0  0  0
 18 19  1  0  0  0  0
 19 25  1  0  0  0  0
 19  5  1  6  0  0  0
 20 16  2  0  0  0  0
 21  7  2  0  0  0  0
 21 13  1  0  0  0  0
 23 30  1  6  0  0  0
 23 28  1  0  0  0  0
 25 18  1  6  0  0  0
 25 27  1  0  0  0  0
 26  8  2  0  0  0  0
 27  1  1  6  0  0  0
 27 21  1  0  0  0  0
 28 15  1  0  0  0  0
 29 30  1  0  0  0  0
 31 30  2  0  0  0  0
 32 34  1  0  0  0  0
 33 34  2  0  0  0  0
 33 35  1  0  0  0  0
 34 31  1  0  0  0  0
 35 29  2  0  0  0  0
 37 36  1  0  0  0  0
M  END
>  <MODEL>
1

>  <REMARK>
 VINA RESULT:      -9.6      0.000      0.000
  Name = 
  2 active torsions:
  status: ('A' for Active; 'I' for Inactive)
    1  A    between atoms: CA_4  and  C_37
    2  A    between atoms: C_23  and  C_30
                            x       y       z     vdW  Elec       q    Type
                         _______ _______ _______ _____ _____    ______ ____

>  <TORSDO>
F 2

$$$$
=
 OpenBabel11122411363D

 37 44  0  0  1  0  0  0  0  0999 V2000
  184.1170  177.6740  139.1290 C   0  0  0  0  0  2  0  0  0  0  0  0
  187.5620  177.2630  135.9990 C   0  0  0  0  0  0  0  0  0  0  0  0
  188.7550  177.6680  139.9900 C   0  0  0  0  0  0  0  0  0  0  0  0
  182.7750  178.3740  138.8620 C   0  0  2  0  0  3  0  0  0  0  0  0
  186.1040  178.8220  142.6080 C   0  0  0  0  0  2  0  0  0  0  0  0
  189.4580  177.3680  137.6840 C   0  0  0  0  0  0  0  0  0  0  0  0
  187.5450  178.0260  140.6090 C   0  0  0  0  0  0  0  0  0  0  0  0
  182.2740  178.8130  141.3290 C   0  0  0  0  0  0  0  0  0  0  0  0
  188.4980  177.6450  138.6430 C   0  0  0  0  0  0  0  0  0  0  0  0
  187.3240  178.1920  142.0540 N   0  0  0  0  0  0  0  0  0  0  0  0
  190.7640  177.1110  138.1190 C   0  0  0  0  0  3  0  0  0  0  0  0
  181.8850  178.3550  140.0290 N   0  0  0  0  0  2  0  0  0  0  0  0
  187.2270  177.9340  138.3580 N   0  0  0  0  0  0  0  0  0  0  0  0
  187.1960  175.7940  136.1230 C   0  0  0  0  0  1  0  0  0  0  0  0
  190.4670  177.3220  141.8990 C   0  0  0  0  0  2  0  0  0  0  0  0
  191.0570  177.1210  139.4980 C   0  0  0  0  0  3  0  0  0  0  0  0
  186.7180  178.0880  136.9950 C   0  0  0  0  0  2  0  0  0  0  0  0
  183.6490  179.0110  141.6060 N   0  0  0  0  0  0  0  0  0  0  0  0
  184.9490  178.2900  141.8300 C   0  0  1  0  0  3  0  0  0  0  0  0
  190.0650  177.4110  140.4580 C   0  0  0  0  0  0  0  0  0  0  0  0
  186.6100  178.1920  139.5310 C   0  0  0  0  0  0  0  0  0  0  0  0
  189.0810  177.4420  136.2290 C   0  0  0  0  0  2  0  0  0  0  0  0
  188.2890  177.5860  142.9820 C   0  0  1  0  0  3  0  0  0  0  0  0
  187.2290  177.7170  134.5940 C   0  0  0  0  0  1  0  0  0  0  0  0
  184.9260  179.3270  140.9360 C   0  0  1  0  0  3  0  0  0  0  0  0
  181.4130  178.9670  142.2330 O   0  0  0  0  0  0  0  0  0  0  0  0
  185.1740  178.6990  139.5840 C   0  0  2  0  0  3  0  0  0  0  0  0
  189.6580  178.2120  142.8140 C   0  0  0  0  0  2  0  0  0  0  0  0
  186.4910  177.4760  144.7220 C   0  0  0  0  0  3  0  0  0  0  0  0
  187.8540  177.5730  144.4240 C   0  0  0  0  0  0  0  0  0  0  0  0
  188.7850  177.6940  145.4690 C   0  0  0  0  0  3  0  0  0  0  0  0
  189.5140  177.8520  148.0950 Cl  0  0  0  0  0  0  0  0  0  0  0  0
  186.9880  177.6010  147.0880 C   0  0  0  0  0  3  0  0  0  0  0  0
  188.3510  177.7040  146.7970 C   0  0  0  0  0  0  0  0  0  0  0  0
  186.0580  177.4870  146.0510 C   0  0  0  0  0  3  0  0  0  0  0  0
  182.9890  177.4410  136.6750 O   0  0  0  0  0  1  0  0  0  0  0  0
  182.0720  177.7130  137.6920 C   0  0  0  0  0  2  0  0  0  0  0  0
  2 14  1  0  0  0  0
  2 22  1  0  0  0  0
  2 17  1  0  0  0  0
  3 20  1  0  0  0  0
  3  7  1  0  0  0  0
  4 37  1  6  0  0  0
  4  1  1  0  0  0  0
  4 12  1  0  0  0  0
  6 11  2  0  0  0  0
  6  9  1  0  0  0  0
  7 10  1  0  0  0  0
  8 18  1  0  0  0  0
  8 26  2  0  0  0  0
  9  3  2  0  0  0  0
 10  5  1  0  0  0  0
 10 23  1  0  0  0  0
 11 16  1  0  0  0  0
 12  8  1  0  0  0  0
 13  9  1  0  0  0  0
 13 21  1  0  0  0  0
 15 28  1  0  0  0  0
 16 20  2  0  0  0  0
 17 13  1  0  0  0  0
 18 19  1  0  0  0  0
 19  5  1  1  0  0  0
 20 15  1  0  0  0  0
 21 27  1  0  0  0  0
 21  7  2  0  0  0  0
 22  6  1  0  0  0  0
 23 30  1  1  0  0  0
 24  2  1  0  0  0  0
 25 18  1  6  0  0  0
 25 19  1  0  0  0  0
 27  1  1  1  0  0  0
 27 25  1  0  0  0  0
 28 23  1  0  0  0  0
 29 35  1  0  0  0  0
 30 29  2  0  0  0  0
 30 31  1  0  0  0  0
 31 34  2  0  0  0  0
 34 33  1  0  0  0  0
 34 32  1  0  0  0  0
 35 33  2  0  0  0  0
 36 37  1  0  0  0  0
M  END
>  <MODEL>
2

>  <REMARK>
 VINA RESULT:      -9.4      3.071      7.072
  Name = 
  2 active torsions:
  status: ('A' for Active; 'I' for Inactive)
    1  A    between atoms: CA_4  and  C_37
    2  A    between atoms: C_23  and  C_30
                            x       y       z     vdW  Elec       q    Type
                         _______ _______ _______ _____ _____    ______ ____

>  <TORSDO>
F 2

$$$$
=
 OpenBabel11122411363D

 37 44  0  0  1  0  0  0  0  0999 V2000
  184.0370  177.7340  139.5540 C   0  0  0  0  0  2  0  0  0  0  0  0
  187.2540  177.3050  136.1920 C   0  0  0  0  0  0  0  0  0  0  0  0
  188.7230  177.6950  140.0920 C   0  0  0  0  0  0  0  0  0  0  0  0
  182.6840  178.4430  139.3810 C   0  0  2  0  0  3  0  0  0  0  0  0
  186.2670  178.8620  142.8890 C   0  0  0  0  0  2  0  0  0  0  0  0
  189.2620  177.3940  137.7430 C   0  0  0  0  0  0  0  0  0  0  0  0
  187.5610  178.0600  140.7930 C   0  0  0  0  0  0  0  0  0  0  0  0
  182.3580  178.8810  141.8770 C   0  0  0  0  0  0  0  0  0  0  0  0
  188.3730  177.6760  138.7660 C   0  0  0  0  0  0  0  0  0  0  0  0
  187.4410  178.2250  142.2510 N   0  0  0  0  0  0  0  0  0  0  0  0
  190.5940  177.1280  138.0850 C   0  0  0  0  0  3  0  0  0  0  0  0
  181.8770  178.4290  140.6060 N   0  0  0  0  0  2  0  0  0  0  0  0
  187.0880  177.9740  138.5700 N   0  0  0  0  0  0  0  0  0  0  0  0
  186.8880  175.8380  136.3400 C   0  0  0  0  0  1  0  0  0  0  0  0
  190.5610  177.3340  141.8780 C   0  0  0  0  0  2  0  0  0  0  0  0
  190.9820  177.1340  139.4410 C   0  0  0  0  0  3  0  0  0  0  0  0
  186.4870  178.1340  137.2450 C   0  0  0  0  0  2  0  0  0  0  0  0
  183.7500  179.0700  142.0580 N   0  0  0  0  0  0  0  0  0  0  0  0
  185.0580  178.3390  142.1920 C   0  0  1  0  0  3  0  0  0  0  0  0
  190.0600  177.4290  140.4680 C   0  0  0  0  0  0  0  0  0  0  0  0
  186.5550  178.2340  139.7830 C   0  0  0  0  0  0  0  0  0  0  0  0
  188.7870  177.4730  136.3170 C   0  0  0  0  0  2  0  0  0  0  0  0
  188.4640  177.6110  143.1090 C   0  0  1  0  0  3  0  0  0  0  0  0
  186.8280  177.7640  134.8140 C   0  0  0  0  0  1  0  0  0  0  0  0
  184.9790  179.3780  141.3020 C   0  0  1  0  0  3  0  0  0  0  0  0
  181.5630  179.0390  142.8390 O   0  0  0  0  0  0  0  0  0  0  0  0
  185.1300  178.7510  139.9350 C   0  0  2  0  0  3  0  0  0  0  0  0
  189.8220  178.2280  142.8480 C   0  0  0  0  0  2  0  0  0  0  0  0
  189.1190  177.2320  145.4960 C   0  0  0  0  0  3  0  0  0  0  0  0
  188.1300  177.5980  144.5780 C   0  0  0  0  0  0  0  0  0  0  0  0
  186.8390  177.9080  145.0360 C   0  0  0  0  0  3  0  0  0  0  0  0
  184.9410  178.2530  146.9680 Cl  0  0  0  0  0  0  0  0  0  0  0  0
  187.5440  177.5030  147.3150 C   0  0  0  0  0  3  0  0  0  0  0  0
  186.5500  177.8630  146.4020 C   0  0  0  0  0  0  0  0  0  0  0  0
  188.8290  177.1870  146.8630 C   0  0  0  0  0  3  0  0  0  0  0  0
  182.6400  177.8100  137.0800 O   0  0  0  0  0  1  0  0  0  0  0  0
  181.8970  177.7890  138.2610 C   0  0  0  0  0  2  0  0  0  0  0  0
  2 22  1  0  0  0  0
  2 14  1  0  0  0  0
  2 17  1  0  0  0  0
  3 20  1  0  0  0  0
  3  7  1  0  0  0  0
  4 37  1  6  0  0  0
  4  1  1  0  0  0  0
  4 12  1  0  0  0  0
  6 11  2  0  0  0  0
  6  9  1  0  0  0  0
  7 10  1  0  0  0  0
  8 18  1  0  0  0  0
  8 26  2  0  0  0  0
  9  3  2  0  0  0  0
 10  5  1  0  0  0  0
 10 23  1  0  0  0  0
 11 16  1  0  0  0  0
 12  8  1  0  0  0  0
 13  9  1  0  0  0  0
 13 21  1  0  0  0  0
 15 28  1  0  0  0  0
 16 20  2  0  0  0  0
 17 13  1  0  0  0  0
 18 19  1  0  0  0  0
 19  5  1  1  0  0  0
 20 15  1  0  0  0  0
 21 27  1  0  0  0  0
 21  7  2  0  0  0  0
 22  6  1  0  0  0  0
 23 30  1  1  0  0  0
 24  2  1  0  0  0  0
 25 18  1  6  0  0  0
 25 19  1  0  0  0  0
 27  1  1  1  0  0  0
 27 25  1  0  0  0  0
 28 23  1  0  0  0  0
 29 35  1  0  0  0  0
 30 31  1  0  0  0  0
 30 29  2  0  0  0  0
 31 34  2  0  0  0  0
 34 32  1  0  0  0  0
 34 33  1  0  0  0  0
 35 33  2  0  0  0  0
 36 37  1  0  0  0  0
M  END
>  <MODEL>
3

>  <REMARK>
 VINA RESULT:      -9.3      2.763      7.090
  Name = 
  2 active torsions:
  status: ('A' for Active; 'I' for Inactive)
    1  A    between atoms: CA_4  and  C_37
    2  A    between atoms: C_23  and  C_30
                            x       y       z     vdW  Elec       q    Type
                         _______ _______ _______ _____ _____    ______ ____

>  <TORSDO>
F 2

$$$$
=
 OpenBabel11122411363D

 37 44  0  0  1  0  0  0  0  0999 V2000
  184.2650  177.8820  140.2670 C   0  0  0  0  0  2  0  0  0  0  0  0
  186.9140  177.4840  136.4390 C   0  0  0  0  0  0  0  0  0  0  0  0
  188.9670  177.5520  140.0860 C   0  0  0  0  0  0  0  0  0  0  0  0
  182.9490  178.6740  140.3380 C   0  0  2  0  0  3  0  0  0  0  0  0
  187.0320  178.6790  143.2800 C   0  0  0  0  0  2  0  0  0  0  0  0
  189.1320  177.3660  137.6690 C   0  0  0  0  0  0  0  0  0  0  0  0
  187.9470  177.9370  140.9730 C   0  0  0  0  0  0  0  0  0  0  0  0
  183.0250  178.9760  142.8750 C   0  0  0  0  0  0  0  0  0  0  0  0
  188.4240  177.6340  138.8290 C   0  0  0  0  0  0  0  0  0  0  0  0
  188.0560  178.0190  142.4390 N   0  0  0  0  0  0  0  0  0  0  0  0
  190.4800  177.0070  137.7920 C   0  0  0  0  0  3  0  0  0  0  0  0
  182.3330  178.6290  141.6690 N   0  0  0  0  0  2  0  0  0  0  0  0
  187.1450  178.0140  138.8460 N   0  0  0  0  0  0  0  0  0  0  0  0
  186.4810  176.0330  136.5630 C   0  0  0  0  0  1  0  0  0  0  0  0
  191.0220  176.9820  141.5510 C   0  0  0  0  0  2  0  0  0  0  0  0
  191.0640  176.9080  139.0720 C   0  0  0  0  0  3  0  0  0  0  0  0
  186.3660  178.2880  137.6380 C   0  0  0  0  0  2  0  0  0  0  0  0
  184.4380  179.0760  142.8520 N   0  0  0  0  0  0  0  0  0  0  0  0
  185.7010  178.2670  142.7480 C   0  0  1  0  0  3  0  0  0  0  0  0
  190.3260  177.1900  140.2400 C   0  0  0  0  0  0  0  0  0  0  0  0
  186.8150  178.2280  140.1370 C   0  0  0  0  0  0  0  0  0  0  0  0
  188.4570  177.5590  136.3390 C   0  0  0  0  0  2  0  0  0  0  0  0
  189.1530  177.2980  143.0990 C   0  0  1  0  0  3  0  0  0  0  0  0
  186.3190  178.0490  135.1670 C   0  0  0  0  0  1  0  0  0  0  0  0
  185.5590  179.3610  141.9360 C   0  0  1  0  0  3  0  0  0  0  0  0
  182.3930  179.1180  143.9530 O   0  0  0  0  0  0  0  0  0  0  0  0
  185.4650  178.8120  140.5310 C   0  0  2  0  0  3  0  0  0  0  0  0
  190.4940  177.8530  142.6670 C   0  0  0  0  0  2  0  0  0  0  0  0
  187.7770  177.3200  145.1910 C   0  0  0  0  0  3  0  0  0  0  0  0
  189.0400  177.2130  144.5980 C   0  0  0  0  0  0  0  0  0  0  0  0
  190.1770  177.0690  145.4100 C   0  0  0  0  0  3  0  0  0  0  0  0
  191.4640  176.8350  147.8060 Cl  0  0  0  0  0  0  0  0  0  0  0  0
  188.7810  177.1200  147.3860 C   0  0  0  0  0  3  0  0  0  0  0  0
  190.0450  177.0190  146.8000 C   0  0  0  0  0  0  0  0  0  0  0  0
  187.6470  177.2710  146.5830 C   0  0  0  0  0  3  0  0  0  0  0  0
  182.6000  177.9610  138.0870 O   0  0  0  0  0  1  0  0  0  0  0  0
  181.9650  178.1340  139.3180 C   0  0  0  0  0  2  0  0  0  0  0  0
  1  4  1  0  0  0  0
  2 14  1  0  0  0  0
  2 17  1  0  0  0  0
  3 20  1  0  0  0  0
  3  7  1  0  0  0  0
  4 37  1  6  0  0  0
  4 12  1  0  0  0  0
  6 11  2  0  0  0  0
  6  9  1  0  0  0  0
  7 10  1  0  0  0  0
  8 26  2  0  0  0  0
  9 13  1  0  0  0  0
  9  3  2  0  0  0  0
 10 23  1  0  0  0  0
 10  5  1  0  0  0  0
 11 16  1  0  0  0  0
 12  8  1  0  0  0  0
 13 21  1  0  0  0  0
 15 28  1  0  0  0  0
 16 20  2  0  0  0  0
 17 13  1  0  0  0  0
 18  8  1  0  0  0  0
 19 18  1  0  0  0  0
 19  5  1  1  0  0  0
 20 15  1  0  0  0  0
 21 27  1  0  0  0  0
 21  7  2  0  0  0  0
 22  2  1  0  0  0  0
 22  6  1  0  0  0  0
 23 30  1  1  0  0  0
 24  2  1  0  0  0  0
 25 19  1  0  0  0  0
 25 18  1  1  0  0  0
 27  1  1  1  0  0  0
 27 25  1  0  0  0  0
 28 23  1  0  0  0  0
 29 35  1  0  0  0  0
 30 29  2  0  0  0  0
 30 31  1  0  0  0  0
 31 34  2  0  0  0  0
 34 33  1  0  0  0  0
 34 32  1  0  0  0  0
 35 33  2  0  0  0  0
 36 37  1  0  0  0  0
M  END
>  <MODEL>
4

>  <REMARK>
 VINA RESULT:      -9.3      3.323      7.597
  Name = 
  2 active torsions:
  status: ('A' for Active; 'I' for Inactive)
    1  A    between atoms: CA_4  and  C_37
    2  A    between atoms: C_23  and  C_30
                            x       y       z     vdW  Elec       q    Type
                         _______ _______ _______ _____ _____    ______ ____

>  <TORSDO>
F 2

$$$$
=
 OpenBabel11122411363D

 37 44  0  0  1  0  0  0  0  0999 V2000
  189.5970  176.9620  142.5850 C   0  0  0  0  0  2  0  0  0  0  0  0
  188.7040  177.6560  147.1180 C   0  0  0  0  0  0  0  0  0  0  0  0
  185.5340  178.4130  144.4920 C   0  0  0  0  0  0  0  0  0  0  0  0
  190.9610  177.2050  141.9180 C   0  0  2  0  0  3  0  0  0  0  0  0
  186.3100  178.6730  140.6790 C   0  0  0  0  0  2  0  0  0  0  0  0
  186.2820  178.3500  146.8030 C   0  0  0  0  0  0  0  0  0  0  0  0
  186.1860  178.3720  143.2480 C   0  0  0  0  0  0  0  0  0  0  0  0
  189.9980  177.4630  139.5640 C   0  0  0  0  0  0  0  0  0  0  0  0
  186.5220  178.3110  145.4390 C   0  0  0  0  0  0  0  0  0  0  0  0
  185.5440  178.4600  141.9270 N   0  0  0  0  0  0  0  0  0  0  0  0
  184.9600  178.5170  147.2320 C   0  0  0  0  0  3  0  0  0  0  0  0
  190.9480  176.9070  140.4810 N   0  0  0  0  0  2  0  0  0  0  0  0
  187.7360  178.1870  144.9020 N   0  0  0  0  0  0  0  0  0  0  0  0
  188.5390  176.1470  147.0860 C   0  0  0  0  0  1  0  0  0  0  0  0
  183.0070  178.6210  143.9770 C   0  0  0  0  0  2  0  0  0  0  0  0
  183.9230  178.6180  146.2820 C   0  0  0  0  0  3  0  0  0  0  0  0
  188.9710  178.1740  145.6880 C   0  0  0  0  0  2  0  0  0  0  0  0
  188.8310  178.0830  140.0760 N   0  0  0  0  0  0  0  0  0  0  0  0
  187.5200  177.8060  140.7580 C   0  0  1  0  0  3  0  0  0  0  0  0
  184.1890  178.5810  144.8970 C   0  0  0  0  0  0  0  0  0  0  0  0
  187.5820  178.2370  143.5620 C   0  0  0  0  0  0  0  0  0  0  0  0
  187.4490  178.3030  147.7510 C   0  0  0  0  0  2  0  0  0  0  0  0
  184.1030  178.1870  141.8320 C   0  0  1  0  0  3  0  0  0  0  0  0
  189.9040  177.9840  147.9810 C   0  0  0  0  0  1  0  0  0  0  0  0
  188.3290  178.7840  141.2730 C   0  0  1  0  0  3  0  0  0  0  0  0
  190.1620  177.3380  138.3240 O   0  0  0  0  0  0  0  0  0  0  0  0
  188.7780  178.2670  142.6200 C   0  0  2  0  0  3  0  0  0  0  0  0
  183.3120  179.2110  142.6190 C   0  0  0  0  0  2  0  0  0  0  0  0
  183.3250  179.1850  139.6710 C   0  0  0  0  0  3  0  0  0  0  0  0
  183.5800  178.0360  140.4270 C   0  0  0  0  0  0  0  0  0  0  0  0
  183.3100  176.7710  139.8800 C   0  0  0  0  0  3  0  0  0  0  0  0
  182.4690  175.0850  137.9040 Cl  0  0  0  0  0  0  0  0  0  0  0  0
  182.5540  177.8140  137.8300 C   0  0  0  0  0  3  0  0  0  0  0  0
  182.8020  176.6630  138.5830 C   0  0  0  0  0  0  0  0  0  0  0  0
  182.8160  179.0750  138.3730 C   0  0  0  0  0  3  0  0  0  0  0  0
  191.6650  176.1050  143.9160 O   0  0  0  0  0  1  0  0  0  0  0  0
  192.0230  176.3570  142.5900 C   0  0  0  0  0  2  0  0  0  0  0  0
  2 22  1  0  0  0  0
  2 24  1  0  0  0  0
  3 20  2  0  0  0  0
  3  9  1  0  0  0  0
  4  1  1  0  0  0  0
  4 37  1  1  0  0  0
  5 10  1  0  0  0  0
  6 11  1  0  0  0  0
  6 22  1  0  0  0  0
  7 21  2  0  0  0  0
  7  3  1  0  0  0  0
  8 18  1  0  0  0  0
  8 12  1  0  0  0  0
  9  6  2  0  0  0  0
 10  7  1  0  0  0  0
 12  4  1  0  0  0  0
 13  9  1  0  0  0  0
 13 17  1  0  0  0  0
 14  2  1  0  0  0  0
 15 20  1  0  0  0  0
 16 11  2  0  0  0  0
 17  2  1  0  0  0  0
 18 19  1  0  0  0  0
 19  5  1  6  0  0  0
 19 25  1  0  0  0  0
 20 16  1  0  0  0  0
 21 13  1  0  0  0  0
 23 30  1  6  0  0  0
 23 10  1  0  0  0  0
 23 28  1  0  0  0  0
 25 18  1  6  0  0  0
 25 27  1  0  0  0  0
 26  8  2  0  0  0  0
 27  1  1  6  0  0  0
 27 21  1  0  0  0  0
 28 15  1  0  0  0  0
 29 30  1  0  0  0  0
 31 30  2  0  0  0  0
 32 34  1  0  0  0  0
 33 35  1  0  0  0  0
 33 34  2  0  0  0  0
 34 31  1  0  0  0  0
 35 29  2  0  0  0  0
 37 36  1  0  0  0  0
M  END
>  <MODEL>
5

>  <REMARK>
 VINA RESULT:      -9.1      1.938      3.117
  Name = 
  2 active torsions:
  status: ('A' for Active; 'I' for Inactive)
    1  A    between atoms: CA_4  and  C_37
    2  A    between atoms: C_23  and  C_30
                            x       y       z     vdW  Elec       q    Type
                         _______ _______ _______ _____ _____    ______ ____

>  <TORSDO>
F 2

$$$$
=
 OpenBabel11122411363D

 37 44  0  0  1  0  0  0  0  0999 V2000
  184.2250  177.8430  140.7520 C   0  0  0  0  0  2  0  0  0  0  0  0
  186.0540  177.3450  136.4820 C   0  0  0  0  0  0  0  0  0  0  0  0
  188.7970  177.5040  139.6390 C   0  0  0  0  0  0  0  0  0  0  0  0
  182.9480  178.6380  141.0670 C   0  0  2  0  0  3  0  0  0  0  0  0
  187.5380  178.7140  143.1270 C   0  0  0  0  0  2  0  0  0  0  0  0
  188.4740  177.2570  137.2440 C   0  0  0  0  0  0  0  0  0  0  0  0
  187.9750  177.9120  140.7030 C   0  0  0  0  0  0  0  0  0  0  0  0
  183.5300  179.0050  143.5280 C   0  0  0  0  0  0  0  0  0  0  0  0
  188.0120  177.5550  138.5150 C   0  0  0  0  0  0  0  0  0  0  0  0
  188.3750  178.0310  142.1150 N   0  0  0  0  0  0  0  0  0  0  0  0
  189.8210  176.8990  137.1030 C   0  0  0  0  0  3  0  0  0  0  0  0
  182.6120  178.6280  142.4950 N   0  0  0  0  0  2  0  0  0  0  0  0
  186.7620  177.9360  138.7790 N   0  0  0  0  0  0  0  0  0  0  0  0
  185.6610  175.8990  136.7270 C   0  0  0  0  0  1  0  0  0  0  0  0
  191.1070  176.9690  140.6760 C   0  0  0  0  0  2  0  0  0  0  0  0
  190.6500  176.8320  138.2420 C   0  0  0  0  0  3  0  0  0  0  0  0
  185.7550  178.1800  137.7450 C   0  0  0  0  0  2  0  0  0  0  0  0
  184.9100  179.1020  143.2200 N   0  0  0  0  0  0  0  0  0  0  0  0
  186.1300  178.2900  142.8840 C   0  0  1  0  0  3  0  0  0  0  0  0
  190.1600  177.1450  139.5270 C   0  0  0  0  0  0  0  0  0  0  0  0
  186.6970  178.1830  140.1050 C   0  0  0  0  0  0  0  0  0  0  0  0
  187.5450  177.4160  136.0720 C   0  0  0  0  0  2  0  0  0  0  0  0
  189.5850  177.3260  142.5590 C   0  0  1  0  0  3  0  0  0  0  0  0
  185.2130  177.8780  135.3410 C   0  0  0  0  0  1  0  0  0  0  0  0
  185.8220  179.3630  142.0900 C   0  0  1  0  0  3  0  0  0  0  0  0
  183.1270  179.1740  144.7070 O   0  0  0  0  0  0  0  0  0  0  0  0
  185.4500  178.7780  140.7470 C   0  0  2  0  0  3  0  0  0  0  0  0
  190.8100  177.8690  141.8530 C   0  0  0  0  0  2  0  0  0  0  0  0
  191.0590  177.0640  144.5670 C   0  0  0  0  0  3  0  0  0  0  0  0
  189.7760  177.2800  144.0520 C   0  0  0  0  0  0  0  0  0  0  0  0
  188.6880  177.4100  144.9320 C   0  0  0  0  0  3  0  0  0  0  0  0
  187.5340  177.5030  147.4040 Cl  0  0  0  0  0  0  0  0  0  0  0  0
  190.1760  177.1280  146.8210 C   0  0  0  0  0  3  0  0  0  0  0  0
  188.8910  177.3370  146.3120 C   0  0  0  0  0  0  0  0  0  0  0  0
  191.2590  176.9920  145.9490 C   0  0  0  0  0  3  0  0  0  0  0  0
  181.0190  179.1130  139.7430 O   0  0  0  0  0  1  0  0  0  0  0  0
  181.7810  178.0740  140.2790 C   0  0  0  0  0  2  0  0  0  0  0  0
  1  4  1  0  0  0  0
  2 14  1  0  0  0  0
  2 17  1  0  0  0  0
  3  7  1  0  0  0  0
  4 37  1  6  0  0  0
  4 12  1  0  0  0  0
  6  9  1  0  0  0  0
  7 10  1  0  0  0  0
  8 26  2  0  0  0  0
  9 13  1  0  0  0  0
  9  3  2  0  0  0  0
 10 23  1  0  0  0  0
 10  5  1  0  0  0  0
 11  6  2  0  0  0  0
 11 16  1  0  0  0  0
 12  8  1  0  0  0  0
 13 21  1  0  0  0  0
 15 28  1  0  0  0  0
 16 20  2  0  0  0  0
 17 13  1  0  0  0  0
 18  8  1  0  0  0  0
 19  5  1  1  0  0  0
 19 18  1  0  0  0  0
 20  3  1  0  0  0  0
 20 15  1  0  0  0  0
 21  7  2  0  0  0  0
 21 27  1  0  0  0  0
 22  2  1  0  0  0  0
 22  6  1  0  0  0  0
 23 30  1  1  0  0  0
 24  2  1  0  0  0  0
 25 19  1  0  0  0  0
 25 18  1  1  0  0  0
 27  1  1  1  0  0  0
 27 25  1  0  0  0  0
 28 23  1  0  0  0  0
 29 35  1  0  0  0  0
 30 29  2  0  0  0  0
 30 31  1  0  0  0  0
 31 34  2  0  0  0  0
 34 33  1  0  0  0  0
 34 32  1  0  0  0  0
 35 33  2  0  0  0  0
 36 37  1  0  0  0  0
M  END
>  <MODEL>
6

>  <REMARK>
 VINA RESULT:      -8.4      3.192      7.858
  Name = 
  2 active torsions:
  status: ('A' for Active; 'I' for Inactive)
    1  A    between atoms: CA_4  and  C_37
    2  A    between atoms: C_23  and  C_30
                            x       y       z     vdW  Elec       q    Type
                         _______ _______ _______ _____ _____    ______ ____

>  <TORSDO>
F 2

$$$$
=
 OpenBabel11122411363D

 37 44  0  0  1  0  0  0  0  0999 V2000
  188.7240  176.9990  141.8240 C   0  0  0  0  0  2  0  0  0  0  0  0
  186.7340  178.1740  145.8850 C   0  0  0  0  0  0  0  0  0  0  0  0
  184.3170  178.5460  142.4880 C   0  0  0  0  0  0  0  0  0  0  0  0
  190.2110  177.2020  141.4900 C   0  0  2  0  0  3  0  0  0  0  0  0
  186.0170  178.3970  138.9800 C   0  0  0  0  0  2  0  0  0  0  0  0
  184.4680  178.7630  144.9030 C   0  0  0  0  0  0  0  0  0  0  0  0
  185.2580  178.3830  141.4570 C   0  0  0  0  0  0  0  0  0  0  0  0
  189.8630  177.1690  138.9590 C   0  0  0  0  0  0  0  0  0  0  0  0
  185.0390  178.5780  143.6550 C   0  0  0  0  0  0  0  0  0  0  0  0
  184.9640  178.3050  140.0170 N   0  0  0  0  0  0  0  0  0  0  0  0
  183.0810  178.9410  144.9700 C   0  0  0  0  0  3  0  0  0  0  0  0
  190.5550  176.7450  140.1390 N   0  0  0  0  0  2  0  0  0  0  0  0
  186.3480  178.4260  143.4530 N   0  0  0  0  0  0  0  0  0  0  0  0
  186.5790  176.6660  145.9870 C   0  0  0  0  0  1  0  0  0  0  0  0
  181.9980  178.6280  141.3440 C   0  0  0  0  0  2  0  0  0  0  0  0
  182.3130  178.9070  143.7880 C   0  0  0  0  0  3  0  0  0  0  0  0
  187.3490  178.5350  144.5150 C   0  0  0  0  0  2  0  0  0  0  0  0
  188.6080  177.8100  139.0910 N   0  0  0  0  0  0  0  0  0  0  0  0
  187.1680  177.5770  139.4550 C   0  0  1  0  0  3  0  0  0  0  0  0
  182.9150  178.7220  142.5260 C   0  0  0  0  0  0  0  0  0  0  0  0
  186.5320  178.3210  142.1190 C   0  0  0  0  0  0  0  0  0  0  0  0
  185.3630  178.8540  146.1090 C   0  0  0  0  0  2  0  0  0  0  0  0
  183.5910  177.9850  139.6010 C   0  0  1  0  0  3  0  0  0  0  0  0
  187.6830  178.6280  146.9740 C   0  0  0  0  0  1  0  0  0  0  0  0
  187.8250  178.6280  140.0380 C   0  0  1  0  0  3  0  0  0  0  0  0
  190.3300  176.9090  137.8200 O   0  0  0  0  0  0  0  0  0  0  0  0
  187.9250  178.2770  141.5050 C   0  0  2  0  0  3  0  0  0  0  0  0
  182.6320  179.0690  140.0440 C   0  0  0  0  0  2  0  0  0  0  0  0
  182.5150  178.3940  137.3770 C   0  0  0  0  0  3  0  0  0  0  0  0
  183.4340  177.6640  138.1380 C   0  0  0  0  0  0  0  0  0  0  0  0
  184.1620  176.6240  137.5360 C   0  0  0  0  0  3  0  0  0  0  0  0
  184.8870  175.0370  135.4360 Cl  0  0  0  0  0  0  0  0  0  0  0  0
  183.0620  177.0690  135.4260 C   0  0  0  0  0  3  0  0  0  0  0  0
  183.9770  176.3310  136.1820 C   0  0  0  0  0  0  0  0  0  0  0  0
  182.3310  178.1000  136.0230 C   0  0  0  0  0  3  0  0  0  0  0  0
  190.4700  175.2530  142.8430 O   0  0  0  0  0  1  0  0  0  0  0  0
  191.0720  176.4640  142.4980 C   0  0  0  0  0  2  0  0  0  0  0  0
  2 14  1  0  0  0  0
  2 22  1  0  0  0  0
  2 24  1  0  0  0  0
  3 20  2  0  0  0  0
  3  9  1  0  0  0  0
  4  1  1  0  0  0  0
  4 37  1  1  0  0  0
  5 10  1  0  0  0  0
  6 11  1  0  0  0  0
  6 22  1  0  0  0  0
  7 21  2  0  0  0  0
  7  3  1  0  0  0  0
  8 18  1  0  0  0  0
  8 12  1  0  0  0  0
  9  6  2  0  0  0  0
 10  7  1  0  0  0  0
 12  4  1  0  0  0  0
 13  9  1  0  0  0  0
 13 17  1  0  0  0  0
 15 20  1  0  0  0  0
 16 11  2  0  0  0  0
 17  2  1  0  0  0  0
 18 19  1  0  0  0  0
 19  5  1  6  0  0  0
 19 25  1  0  0  0  0
 20 16  1  0  0  0  0
 21 13  1  0  0  0  0
 23 30  1  6  0  0  0
 23 10  1  0  0  0  0
 23 28  1  0  0  0  0
 25 18  1  6  0  0  0
 25 27  1  0  0  0  0
 26  8  2  0  0  0  0
 27  1  1  6  0  0  0
 27 21  1  0  0  0  0
 28 15  1  0  0  0  0
 29 30  1  0  0  0  0
 31 30  2  0  0  0  0
 32 34  1  0  0  0  0
 33 35  1  0  0  0  0
 33 34  2  0  0  0  0
 34 31  1  0  0  0  0
 35 29  2  0  0  0  0
 37 36  1  0  0  0  0
M  END
>  <MODEL>
7

>  <REMARK>
 VINA RESULT:      -8.4      2.039      3.460
  Name = 
  2 active torsions:
  status: ('A' for Active; 'I' for Inactive)
    1  A    between atoms: CA_4  and  C_37
    2  A    between atoms: C_23  and  C_30
                            x       y       z     vdW  Elec       q    Type
                         _______ _______ _______ _____ _____    ______ ____

>  <TORSDO>
F 2

$$$$
=
 OpenBabel11122411363D

 37 44  0  0  1  0  0  0  0  0999 V2000
  183.4140  177.8190  140.7740 C   0  0  0  0  0  2  0  0  0  0  0  0
  183.9120  177.0760  136.1880 C   0  0  0  0  0  0  0  0  0  0  0  0
  187.4600  177.4280  138.3800 C   0  0  0  0  0  0  0  0  0  0  0  0
  182.2700  178.6280  141.4070 C   0  0  2  0  0  3  0  0  0  0  0  0
  187.2610  178.8380  142.0120 C   0  0  0  0  0  2  0  0  0  0  0  0
  186.4510  177.0400  136.2050 C   0  0  0  0  0  0  0  0  0  0  0  0
  186.9800  177.8970  139.6150 C   0  0  0  0  0  0  0  0  0  0  0  0
  183.5440  179.1400  143.5620 C   0  0  0  0  0  0  0  0  0  0  0  0
  186.3780  177.4110  137.5370 C   0  0  0  0  0  0  0  0  0  0  0  0
  187.7760  178.1000  140.8370 N   0  0  0  0  0  0  0  0  0  0  0  0
  187.7030  176.6790  135.6920 C   0  0  0  0  0  3  0  0  0  0  0  0
  182.3700  178.7000  142.8690 N   0  0  0  0  0  2  0  0  0  0  0  0
  185.2540  177.8030  138.1370 N   0  0  0  0  0  0  0  0  0  0  0  0
  183.6380  175.6450  136.6180 C   0  0  0  0  0  1  0  0  0  0  0  0
  189.9830  176.9630  138.7160 C   0  0  0  0  0  2  0  0  0  0  0  0
  188.8320  176.6820  136.5370 C   0  0  0  0  0  3  0  0  0  0  0  0
  183.9820  177.9830  137.4350 C   0  0  0  0  0  2  0  0  0  0  0  0
  184.7690  179.2230  142.8550 N   0  0  0  0  0  0  0  0  0  0  0  0
  185.8520  178.3970  142.2190 C   0  0  1  0  0  3  0  0  0  0  0  0
  188.7370  177.0680  137.8900 C   0  0  0  0  0  0  0  0  0  0  0  0
  185.5770  178.1280  139.4070 C   0  0  0  0  0  0  0  0  0  0  0  0
  185.2140  177.1280  135.3530 C   0  0  0  0  0  2  0  0  0  0  0  0
  189.0770  177.4250  140.9420 C   0  0  1  0  0  3  0  0  0  0  0  0
  182.7620  177.5390  135.3190 C   0  0  0  0  0  1  0  0  0  0  0  0
  185.3030  179.4200  141.4930 C   0  0  1  0  0  3  0  0  0  0  0  0
  183.5030  179.3780  144.7960 O   0  0  0  0  0  0  0  0  0  0  0  0
  184.5640  178.7560  140.3550 C   0  0  2  0  0  3  0  0  0  0  0  0
  190.0280  177.9300  139.8770 C   0  0  0  0  0  2  0  0  0  0  0  0
  191.0720  177.7180  142.4280 C   0  0  0  0  0  3  0  0  0  0  0  0
  189.7000  177.4680  142.3120 C   0  0  0  0  0  0  0  0  0  0  0  0
  188.9410  177.2240  143.4680 C   0  0  0  0  0  3  0  0  0  0  0  0
  188.5990  176.9420  146.1620 Cl  0  0  0  0  0  0  0  0  0  0  0  0
  190.9190  177.5000  144.8350 C   0  0  0  0  0  3  0  0  0  0  0  0
  189.5500  177.2440  144.7250 C   0  0  0  0  0  0  0  0  0  0  0  0
  191.6810  177.7370  143.6860 C   0  0  0  0  0  3  0  0  0  0  0  0
  179.9180  178.9600  141.1730 O   0  0  0  0  0  1  0  0  0  0  0  0
  180.9350  178.0140  141.0310 C   0  0  0  0  0  2  0  0  0  0  0  0
  1  4  1  0  0  0  0
  2 14  1  0  0  0  0
  2 17  1  0  0  0  0
  3  7  1  0  0  0  0
  4 37  1  1  0  0  0
  4 12  1  0  0  0  0
  6  9  1  0  0  0  0
  7 10  1  0  0  0  0
  8 26  2  0  0  0  0
  9 13  1  0  0  0  0
  9  3  2  0  0  0  0
 10 23  1  0  0  0  0
 10  5  1  0  0  0  0
 11  6  2  0  0  0  0
 11 16  1  0  0  0  0
 12  8  1  0  0  0  0
 13 21  1  0  0  0  0
 15 28  1  0  0  0  0
 16 20  2  0  0  0  0
 17 13  1  0  0  0  0
 18  8  1  0  0  0  0
 19  5  1  1  0  0  0
 19 18  1  0  0  0  0
 20  3  1  0  0  0  0
 20 15  1  0  0  0  0
 21  7  2  0  0  0  0
 21 27  1  0  0  0  0
 22  2  1  0  0  0  0
 22  6  1  0  0  0  0
 23 30  1  1  0  0  0
 24  2  1  0  0  0  0
 25 19  1  0  0  0  0
 25 18  1  1  0  0  0
 27  1  1  1  0  0  0
 27 25  1  0  0  0  0
 28 23  1  0  0  0  0
 29 35  1  0  0  0  0
 30 29  2  0  0  0  0
 30 31  1  0  0  0  0
 31 34  2  0  0  0  0
 34 33  1  0  0  0  0
 34 32  1  0  0  0  0
 35 33  2  0  0  0  0
 37 36  1  0  0  0  0
M  END
>  <MODEL>
8

>  <REMARK>
 VINA RESULT:      -8.3      3.413      8.178
  Name = 
  2 active torsions:
  status: ('A' for Active; 'I' for Inactive)
    1  A    between atoms: CA_4  and  C_37
    2  A    between atoms: C_23  and  C_30
                            x       y       z     vdW  Elec       q    Type
                         _______ _______ _______ _____ _____    ______ ____

>  <TORSDO>
F 2

$$$$
=
 OpenBabel11122411363D

 37 44  0  0  1  0  0  0  0  0999 V2000
  189.4260  177.1160  142.9200 C   0  0  0  0  0  2  0  0  0  0  0  0
  185.8770  178.2640  145.7340 C   0  0  0  0  0  0  0  0  0  0  0  0
  185.0690  178.3810  141.6280 C   0  0  0  0  0  0  0  0  0  0  0  0
  190.9050  177.4080  143.2180 C   0  0  2  0  0  3  0  0  0  0  0  0
  188.0740  178.2520  139.1450 C   0  0  0  0  0  2  0  0  0  0  0  0
  184.1950  178.6730  143.8760 C   0  0  0  0  0  0  0  0  0  0  0  0
  186.3590  178.2540  141.0860 C   0  0  0  0  0  0  0  0  0  0  0  0
  191.6390  177.2830  140.7730 C   0  0  0  0  0  0  0  0  0  0  0  0
  185.2390  178.4930  142.9850 C   0  0  0  0  0  0  0  0  0  0  0  0
  186.6920  178.1180  139.6590 N   0  0  0  0  0  0  0  0  0  0  0  0
  182.8970  178.7600  143.3570 C   0  0  0  0  0  3  0  0  0  0  0  0
  191.8000  176.9390  142.1540 N   0  0  0  0  0  2  0  0  0  0  0  0
  186.5210  178.4240  143.3480 N   0  0  0  0  0  0  0  0  0  0  0  0
  185.7680  176.7530  145.8420 C   0  0  0  0  0  1  0  0  0  0  0  0
  183.4310  178.2770  139.6280 C   0  0  0  0  0  2  0  0  0  0  0  0
  182.6900  178.6430  141.9670 C   0  0  0  0  0  3  0  0  0  0  0  0
  186.9840  178.6280  144.7220 C   0  0  0  0  0  2  0  0  0  0  0  0
  190.4110  177.8430  140.3430 N   0  0  0  0  0  0  0  0  0  0  0  0
  188.9630  177.5240  140.0940 C   0  0  1  0  0  3  0  0  0  0  0  0
  183.7690  178.4650  141.0760 C   0  0  0  0  0  0  0  0  0  0  0  0
  187.2450  178.2960  142.2160 C   0  0  0  0  0  0  0  0  0  0  0  0
  184.5030  178.8570  145.3370 C   0  0  0  0  0  2  0  0  0  0  0  0
  185.6320  177.6950  138.7320 C   0  0  1  0  0  3  0  0  0  0  0  0
  186.2650  178.8100  147.0910 C   0  0  0  0  0  1  0  0  0  0  0  0
  189.2670  178.6320  140.8400 C   0  0  1  0  0  3  0  0  0  0  0  0
  192.5480  177.0250  139.9430 O   0  0  0  0  0  0  0  0  0  0  0  0
  188.7680  178.3280  142.2340 C   0  0  2  0  0  3  0  0  0  0  0  0
  184.5230  178.7250  138.6840 C   0  0  0  0  0  2  0  0  0  0  0  0
  186.4210  178.3440  136.4450 C   0  0  0  0  0  3  0  0  0  0  0  0
  186.1120  177.3250  137.3530 C   0  0  0  0  0  0  0  0  0  0  0  0
  186.2160  175.9830  136.9520 C   0  0  0  0  0  3  0  0  0  0  0  0
  186.7710  173.9960  135.1630 Cl  0  0  0  0  0  0  0  0  0  0  0  0
  186.9520  176.6910  134.7570 C   0  0  0  0  0  3  0  0  0  0  0  0
  186.6390  175.6700  135.6580 C   0  0  0  0  0  0  0  0  0  0  0  0
  186.8430  178.0280  135.1510 C   0  0  0  0  0  3  0  0  0  0  0  0
  191.6810  177.7340  145.4520 O   0  0  0  0  0  1  0  0  0  0  0  0
  191.3060  176.7570  144.5270 C   0  0  0  0  0  2  0  0  0  0  0  0
  1  4  1  0  0  0  0
  2 14  1  0  0  0  0
  2 24  1  0  0  0  0
  3  9  1  0  0  0  0
  4 37  1  1  0  0  0
  5 10  1  0  0  0  0
  6 22  1  0  0  0  0
  7  3  1  0  0  0  0
  7 21  2  0  0  0  0
  8 12  1  0  0  0  0
  9 13  1  0  0  0  0
  9  6  2  0  0  0  0
 10  7  1  0  0  0  0
 11  6  1  0  0  0  0
 12  4  1  0  0  0  0
 13 17  1  0  0  0  0
 15 20  1  0  0  0  0
 16 11  2  0  0  0  0
 17  2  1  0  0  0  0
 18  8  1  0  0  0  0
 19  5  1  6  0  0  0
 19 18  1  0  0  0  0
 19 25  1  0  0  0  0
 20  3  2  0  0  0  0
 20 16  1  0  0  0  0
 21 27  1  0  0  0  0
 21 13  1  0  0  0  0
 22  2  1  0  0  0  0
 23 30  1  6  0  0  0
 23 10  1  0  0  0  0
 25 18  1  1  0  0  0
 25 27  1  0  0  0  0
 26  8  2  0  0  0  0
 27  1  1  6  0  0  0
 28 23  1  0  0  0  0
 28 15  1  0  0  0  0
 29 30  1  0  0  0  0
 31 30  2  0  0  0  0
 32 34  1  0  0  0  0
 33 35  1  0  0  0  0
 33 34  2  0  0  0  0
 34 31  1  0  0  0  0
 35 29  2  0  0  0  0
 37 36  1  0  0  0  0
M  END
>  <MODEL>
9

>  <REMARK>
 VINA RESULT:      -8.1      2.412      5.021
  Name = 
  2 active torsions:
  status: ('A' for Active; 'I' for Inactive)
    1  A    between atoms: CA_4  and  C_37
    2  A    between atoms: C_23  and  C_30
                            x       y       z     vdW  Elec       q    Type
                         _______ _______ _______ _____ _____    ______ ____

>  <TORSDO>
F 2

$$$$
