=
 OpenBabel11122411003D

 31 35  0  0  1  0  0  0  0  0999 V2000
  183.7790  172.9960  136.6440 C   0  0  0  0  0  0  0  0  0  0  0  0
  185.3070  176.4770  136.6810 C   0  0  2  0  0  3  0  0  0  0  0  0
  184.7300  177.1960  137.8920 C   0  0  0  0  0  0  0  0  0  0  0  0
  183.0680  177.3910  139.6570 C   0  0  0  0  0  0  0  0  0  0  0  0
  185.1810  174.9740  136.7750 C   0  0  0  0  0  0  0  0  0  0  0  0
  184.8550  172.2010  137.0430 C   0  0  0  0  0  3  0  0  0  0  0  0
  183.6020  176.7030  138.5650 C   0  0  0  0  0  3  0  0  0  0  0  0
  187.6890  176.2510  137.4610 C   0  0  2  0  0  3  0  0  0  0  0  0
  182.4580  172.3730  136.3670 C   0  0  0  0  0  1  0  0  0  0  0  0
  186.3910  178.9620  137.6360 O   0  0  0  0  0  0  0  0  0  0  0  0
  181.9600  176.8840  140.3230 O   0  0  0  0  0  1  0  0  0  0  0  0
  187.6540  174.7270  137.3340 C   0  0  0  0  0  2  0  0  0  0  0  0
  186.7670  176.8910  136.4100 C   0  0  2  0  0  3  0  0  0  0  0  0
  183.9410  174.3760  136.5090 C   0  0  0  0  0  3  0  0  0  0  0  0
  183.6480  178.5880  140.0800 C   0  0  0  0  0  3  0  0  0  0  0  0
  186.2700  174.1680  137.1760 C   0  0  0  0  0  0  0  0  0  0  0  0
  186.0990  172.7850  137.2990 C   0  0  0  0  0  3  0  0  0  0  0  0
  186.8620  178.4200  136.4040 C   0  0  0  0  0  2  0  0  0  0  0  0
  185.2880  178.4250  138.3050 C   0  0  0  0  0  0  0  0  0  0  0  0
  184.7550  179.1050  139.4030 C   0  0  0  0  0  3  0  0  0  0  0  0
  189.1290  176.7340  137.3270 C   0  0  0  0  0  2  0  0  0  0  0  0
  190.6540  175.4440  138.6130 O   0  0  0  0  0  0  0  0  0  0  0  0
  189.8840  176.4400  138.5830 C   0  0  0  0  0  0  0  0  0  0  0  0
  188.2630  177.9160  142.0680 C   0  0  1  0  0  3  0  0  0  0  0  0
  189.9960  176.6800  140.9850 O   0  0  0  0  0  0  0  0  0  0  0  0
  189.2260  179.3080  138.8020 O   0  0  0  0  0  0  0  0  0  0  0  0
  186.9490  177.7840  142.8080 C   0  0  0  0  0  1  0  0  0  0  0  0
  188.7740  176.5290  141.6640 C   0  0  0  0  0  2  0  0  0  0  0  0
  189.0420  178.5040  139.7540 C   0  0  0  0  0  0  0  0  0  0  0  0
  189.6810  177.2180  139.7740 N   0  0  0  0  0  0  0  0  0  0  0  0
  188.0790  178.8360  140.8520 C   0  0  0  0  0  2  0  0  0  0  0  0
  1  6  1  0  0  0  0
  2  5  1  1  0  0  0
  2  3  1  0  0  0  0
  3 19  2  0  0  0  0
  3  7  1  0  0  0  0
  4 15  1  0  0  0  0
  4 11  1  0  0  0  0
  5 16  2  0  0  0  0
  6 17  2  0  0  0  0
  7  4  2  0  0  0  0
  8 21  1  6  0  0  0
  9  1  1  0  0  0  0
 10 19  1  0  0  0  0
 12  8  1  0  0  0  0
 13 18  1  1  0  0  0
 13  2  1  0  0  0  0
 13  8  1  0  0  0  0
 14  1  2  0  0  0  0
 14  5  1  0  0  0  0
 16 17  1  0  0  0  0
 16 12  1  0  0  0  0
 18 10  1  0  0  0  0
 19 20  1  0  0  0  0
 20 15  2  0  0  0  0
 21 23  1  0  0  0  0
 23 22  2  0  0  0  0
 23 30  1  0  0  0  0
 24 27  1  6  0  0  0
 25 28  1  0  0  0  0
 26 29  2  0  0  0  0
 28 24  1  0  0  0  0
 29 30  1  0  0  0  0
 29 31  1  0  0  0  0
 30 25  1  0  0  0  0
 31 24  1  0  0  0  0
M  END
>  <MODEL>
1

>  <REMARK>
 VINA RESULT:      -7.1      0.000      0.000
  Name = 
  2 active torsions:
  status: ('A' for Active; 'I' for Inactive)
    1  A    between atoms: C_5  and  C_16
    2  A    between atoms: C_10  and  C_16
                            x       y       z     vdW  Elec       q    Type
                         _______ _______ _______ _____ _____    ______ ____

>  <TORSDO>
F 2

$$$$
=
 OpenBabel11122411003D

 31 35  0  0  1  0  0  0  0  0999 V2000
  179.8880  178.3990  142.2910 C   0  0  0  0  0  0  0  0  0  0  0  0
  183.0090  179.0890  140.2340 C   0  0  2  0  0  3  0  0  0  0  0  0
  184.2020  178.7700  141.1250 C   0  0  0  0  0  0  0  0  0  0  0  0
  185.1640  178.3520  143.3200 C   0  0  0  0  0  0  0  0  0  0  0  0
  181.7290  178.4410  140.7090 C   0  0  0  0  0  0  0  0  0  0  0  0
  179.4110  177.2220  141.7110 C   0  0  0  0  0  3  0  0  0  0  0  0
  184.0550  178.6160  142.5130 C   0  0  0  0  0  3  0  0  0  0  0  0
  183.2540  177.2140  138.5740 C   0  0  2  0  0  3  0  0  0  0  0  0
  179.1690  179.0030  143.4430 C   0  0  0  0  0  1  0  0  0  0  0  0
  185.6810  178.8840  139.1910 O   0  0  0  0  0  0  0  0  0  0  0  0
  185.0030  178.1870  144.6890 O   0  0  0  0  0  1  0  0  0  0  0  0
  181.8530  176.6780  138.8750 C   0  0  0  0  0  2  0  0  0  0  0  0
  183.2880  178.7390  138.7580 C   0  0  2  0  0  3  0  0  0  0  0  0
  181.0410  179.0070  141.7910 C   0  0  0  0  0  3  0  0  0  0  0  0
  186.4350  178.2530  142.7500 C   0  0  0  0  0  3  0  0  0  0  0  0
  181.2450  177.2510  140.1230 C   0  0  0  0  0  0  0  0  0  0  0  0
  180.0830  176.6550  140.6240 C   0  0  0  0  0  3  0  0  0  0  0  0
  184.6310  179.3480  138.3440 C   0  0  0  0  0  2  0  0  0  0  0  0
  185.4950  178.7030  140.5640 C   0  0  0  0  0  0  0  0  0  0  0  0
  186.5990  178.4300  141.3750 C   0  0  0  0  0  3  0  0  0  0  0  0
  183.6570  176.8010  137.1620 C   0  0  0  0  0  2  0  0  0  0  0  0
  184.6530  174.7280  137.7600 O   0  0  0  0  0  0  0  0  0  0  0  0
  184.8130  175.8540  137.2190 C   0  0  0  0  0  0  0  0  0  0  0  0
  188.5610  177.5460  137.0100 C   0  0  1  0  0  3  0  0  0  0  0  0
  187.2140  175.5840  137.2130 O   0  0  0  0  0  0  0  0  0  0  0  0
  185.4870  177.6710  134.9930 O   0  0  0  0  0  0  0  0  0  0  0  0
  189.3440  178.5750  137.7970 C   0  0  0  0  0  1  0  0  0  0  0  0
  187.9290  176.5300  137.9680 C   0  0  0  0  0  2  0  0  0  0  0  0
  186.3190  177.3740  135.8910 C   0  0  0  0  0  0  0  0  0  0  0  0
  186.1140  176.2390  136.7480 N   0  0  0  0  0  0  0  0  0  0  0  0
  187.5050  178.2520  136.1460 C   0  0  0  0  0  2  0  0  0  0  0  0
  1  9  1  0  0  0  0
  2  5  1  1  0  0  0
  2  3  1  0  0  0  0
  3  7  1  0  0  0  0
  4 11  1  0  0  0  0
  5 14  2  0  0  0  0
  6  1  2  0  0  0  0
  7  4  2  0  0  0  0
  8 21  1  6  0  0  0
  8 13  1  0  0  0  0
  8 12  1  0  0  0  0
 10 19  1  0  0  0  0
 12 16  1  0  0  0  0
 13 18  1  1  0  0  0
 13  2  1  0  0  0  0
 14  1  1  0  0  0  0
 15  4  1  0  0  0  0
 16 17  2  0  0  0  0
 16  5  1  0  0  0  0
 17  6  1  0  0  0  0
 18 10  1  0  0  0  0
 19  3  2  0  0  0  0
 19 20  1  0  0  0  0
 20 15  2  0  0  0  0
 21 23  1  0  0  0  0
 23 22  2  0  0  0  0
 24 27  1  1  0  0  0
 24 28  1  0  0  0  0
 25 28  1  0  0  0  0
 26 29  2  0  0  0  0
 29 31  1  0  0  0  0
 29 30  1  0  0  0  0
 30 25  1  0  0  0  0
 30 23  1  0  0  0  0
 31 24  1  0  0  0  0
M  END
>  <MODEL>
2

>  <REMARK>
 VINA RESULT:      -7.1      2.684      5.623
  Name = 
  2 active torsions:
  status: ('A' for Active; 'I' for Inactive)
    1  A    between atoms: C_5  and  C_16
    2  A    between atoms: C_10  and  C_16
                            x       y       z     vdW  Elec       q    Type
                         _______ _______ _______ _____ _____    ______ ____

>  <TORSDO>
F 2

$$$$
=
 OpenBabel11122411003D

 31 35  0  0  1  0  0  0  0  0999 V2000
  187.1160  178.3180  141.6880 C   0  0  0  0  0  0  0  0  0  0  0  0
  184.1960  179.2420  139.4350 C   0  0  2  0  0  3  0  0  0  0  0  0
  184.0830  178.1410  138.3900 C   0  0  0  0  0  0  0  0  0  0  0  0
  185.0150  176.2360  137.1980 C   0  0  0  0  0  0  0  0  0  0  0  0
  184.9730  178.8140  140.6580 C   0  0  0  0  0  0  0  0  0  0  0  0
  186.4660  177.9190  142.8570 C   0  0  0  0  0  3  0  0  0  0  0  0
  185.1240  177.2220  138.1810 C   0  0  0  0  0  3  0  0  0  0  0  0
  182.0770  178.7830  140.7130 C   0  0  2  0  0  3  0  0  0  0  0  0
  188.5980  178.2630  141.6060 C   0  0  0  0  0  1  0  0  0  0  0  0
  181.9050  179.0020  137.7150 O   0  0  0  0  0  0  0  0  0  0  0  0
  186.0460  175.3250  137.0130 O   0  0  0  0  0  1  0  0  0  0  0  0
  182.8360  178.5780  142.0250 C   0  0  0  0  0  2  0  0  0  0  0  0
  182.8140  179.8020  139.8290 C   0  0  2  0  0  3  0  0  0  0  0  0
  186.3730  178.7650  140.5930 C   0  0  0  0  0  3  0  0  0  0  0  0
  183.8700  176.1650  136.4030 C   0  0  0  0  0  3  0  0  0  0  0  0
  184.3180  178.4120  141.8430 C   0  0  0  0  0  0  0  0  0  0  0  0
  185.0720  177.9750  142.9370 C   0  0  0  0  0  3  0  0  0  0  0  0
  182.0320  180.1460  138.5580 C   0  0  0  0  0  2  0  0  0  0  0  0
  182.9450  178.0830  137.5570 C   0  0  0  0  0  0  0  0  0  0  0  0
  182.8380  177.0880  136.5810 C   0  0  0  0  0  3  0  0  0  0  0  0
  180.6500  179.2230  141.0220 C   0  0  0  0  0  2  0  0  0  0  0  0
  179.6820  177.8650  142.7140 O   0  0  0  0  0  0  0  0  0  0  0  0
  179.8430  178.0510  141.4780 C   0  0  0  0  0  0  0  0  0  0  0  0
  179.5770  174.8920  138.8510 C   0  0  1  0  0  3  0  0  0  0  0  0
  179.0170  175.8380  140.9710 O   0  0  0  0  0  0  0  0  0  0  0  0
  178.9310  178.5110  138.7100 O   0  0  0  0  0  0  0  0  0  0  0  0
  180.5470  173.9690  138.1440 C   0  0  0  0  0  1  0  0  0  0  0  0
  179.9340  174.9810  140.3390 C   0  0  0  0  0  2  0  0  0  0  0  0
  179.2330  177.3640  139.1340 C   0  0  0  0  0  0  0  0  0  0  0  0
  179.3260  177.0920  140.5420 N   0  0  0  0  0  0  0  0  0  0  0  0
  179.5920  176.2710  138.1740 C   0  0  0  0  0  2  0  0  0  0  0  0
  1  6  1  0  0  0  0
  2  3  1  6  0  0  0
  2 13  1  0  0  0  0
  2  5  1  0  0  0  0
  4  7  2  0  0  0  0
  5 16  2  0  0  0  0
  6 17  2  0  0  0  0
  7  3  1  0  0  0  0
  8 21  1  1  0  0  0
  8 12  1  0  0  0  0
  9  1  1  0  0  0  0
 10 18  1  0  0  0  0
 11  4  1  0  0  0  0
 13 18  1  6  0  0  0
 13  8  1  0  0  0  0
 14  5  1  0  0  0  0
 14  1  2  0  0  0  0
 15 20  2  0  0  0  0
 15  4  1  0  0  0  0
 16 12  1  0  0  0  0
 16 17  1  0  0  0  0
 19 10  1  0  0  0  0
 19  3  2  0  0  0  0
 20 19  1  0  0  0  0
 21 23  1  0  0  0  0
 23 22  2  0  0  0  0
 24 27  1  6  0  0  0
 24 28  1  0  0  0  0
 26 29  2  0  0  0  0
 28 25  1  0  0  0  0
 29 30  1  0  0  0  0
 30 25  1  0  0  0  0
 30 23  1  0  0  0  0
 31 24  1  0  0  0  0
 31 29  1  0  0  0  0
M  END
>  <MODEL>
3

>  <REMARK>
 VINA RESULT:      -6.8      3.383      7.679
  Name = 
  2 active torsions:
  status: ('A' for Active; 'I' for Inactive)
    1  A    between atoms: C_5  and  C_16
    2  A    between atoms: C_10  and  C_16
                            x       y       z     vdW  Elec       q    Type
                         _______ _______ _______ _____ _____    ______ ____

>  <TORSDO>
F 2

$$$$
=
 OpenBabel11122411003D

 31 35  0  0  1  0  0  0  0  0999 V2000
  184.7700  178.9620  142.9630 C   0  0  0  0  0  0  0  0  0  0  0  0
  182.3250  177.2570  140.6030 C   0  0  2  0  0  3  0  0  0  0  0  0
  181.1500  178.2090  140.4260 C   0  0  0  0  0  0  0  0  0  0  0  0
  179.8550  180.1430  141.1340 C   0  0  0  0  0  0  0  0  0  0  0  0
  183.5690  177.9470  141.1130 C   0  0  0  0  0  0  0  0  0  0  0  0
  185.8020  179.3290  142.0970 C   0  0  0  0  0  3  0  0  0  0  0  0
  180.9540  179.2960  141.2930 C   0  0  0  0  0  3  0  0  0  0  0  0
  183.2890  177.3940  138.2830 C   0  0  2  0  0  3  0  0  0  0  0  0
  184.8520  179.3090  144.4060 C   0  0  0  0  0  1  0  0  0  0  0  0
  180.3390  176.8640  138.5630 O   0  0  0  0  0  0  0  0  0  0  0  0
  179.6810  181.2230  141.9880 O   0  0  0  0  0  1  0  0  0  0  0  0
  184.6450  177.8720  138.8050 C   0  0  0  0  0  2  0  0  0  0  0  0
  182.6220  176.4680  139.3130 C   0  0  2  0  0  3  0  0  0  0  0  0
  183.6590  178.2730  142.4730 C   0  0  0  0  0  3  0  0  0  0  0  0
  178.9310  179.9050  140.1140 C   0  0  0  0  0  3  0  0  0  0  0  0
  184.6150  178.3170  140.2390 C   0  0  0  0  0  0  0  0  0  0  0  0
  185.7280  178.9990  140.7410 C   0  0  0  0  0  3  0  0  0  0  0  0
  181.3210  175.8540  138.7890 C   0  0  0  0  0  2  0  0  0  0  0  0
  180.1920  177.9560  139.4210 C   0  0  0  0  0  0  0  0  0  0  0  0
  179.0990  178.8120  139.2610 C   0  0  0  0  0  3  0  0  0  0  0  0
  183.4830  176.7050  136.9370 C   0  0  0  0  0  2  0  0  0  0  0  0
  184.5800  174.7020  137.5930 O   0  0  0  0  0  0  0  0  0  0  0  0
  184.6760  175.8050  136.9930 C   0  0  0  0  0  0  0  0  0  0  0  0
  188.3460  177.6210  136.5570 C   0  0  1  0  0  3  0  0  0  0  0  0
  187.0840  175.6230  136.9050 O   0  0  0  0  0  0  0  0  0  0  0  0
  185.1950  177.5350  134.6590 O   0  0  0  0  0  0  0  0  0  0  0  0
  189.1180  178.7150  137.2620 C   0  0  0  0  0  1  0  0  0  0  0  0
  187.7900  176.6300  137.5860 C   0  0  0  0  0  2  0  0  0  0  0  0
  186.0710  177.3120  135.5370 C   0  0  0  0  0  0  0  0  0  0  0  0
  185.9430  176.2140  136.4530 N   0  0  0  0  0  0  0  0  0  0  0  0
  187.2310  178.2450  135.7030 C   0  0  0  0  0  2  0  0  0  0  0  0
  1  9  1  0  0  0  0
  2  3  1  6  0  0  0
  2  5  1  0  0  0  0
  3  7  1  0  0  0  0
  4  7  2  0  0  0  0
  4 11  1  0  0  0  0
  5 14  2  0  0  0  0
  6  1  2  0  0  0  0
  8 21  1  6  0  0  0
  8 12  1  0  0  0  0
  8 13  1  0  0  0  0
 10 18  1  0  0  0  0
 10 19  1  0  0  0  0
 12 16  1  0  0  0  0
 13 18  1  6  0  0  0
 13  2  1  0  0  0  0
 14  1  1  0  0  0  0
 15  4  1  0  0  0  0
 16 17  2  0  0  0  0
 16  5  1  0  0  0  0
 17  6  1  0  0  0  0
 19  3  2  0  0  0  0
 20 19  1  0  0  0  0
 20 15  2  0  0  0  0
 21 23  1  0  0  0  0
 23 22  2  0  0  0  0
 24 27  1  1  0  0  0
 24 28  1  0  0  0  0
 25 28  1  0  0  0  0
 26 29  2  0  0  0  0
 29 31  1  0  0  0  0
 29 30  1  0  0  0  0
 30 25  1  0  0  0  0
 30 23  1  0  0  0  0
 31 24  1  0  0  0  0
M  END
>  <MODEL>
4

>  <REMARK>
 VINA RESULT:      -6.5      2.766      5.990
  Name = 
  2 active torsions:
  status: ('A' for Active; 'I' for Inactive)
    1  A    between atoms: C_5  and  C_16
    2  A    between atoms: C_10  and  C_16
                            x       y       z     vdW  Elec       q    Type
                         _______ _______ _______ _____ _____    ______ ____

>  <TORSDO>
F 2

$$$$
=
 OpenBabel11122411003D

 31 35  0  0  1  0  0  0  0  0999 V2000
  192.5440  174.9670  135.8100 C   0  0  0  0  0  0  0  0  0  0  0  0
  189.5720  177.1640  136.7010 C   0  0  2  0  0  3  0  0  0  0  0  0
  188.3270  176.3010  136.5510 C   0  0  0  0  0  0  0  0  0  0  0  0
  187.2090  174.3100  135.7120 C   0  0  0  0  0  0  0  0  0  0  0  0
  190.8380  176.3510  136.8440 C   0  0  0  0  0  0  0  0  0  0  0  0
  193.1220  174.7380  137.0600 C   0  0  0  0  0  3  0  0  0  0  0  0
  188.3670  175.0760  135.8660 C   0  0  0  0  0  3  0  0  0  0  0  0
  189.5550  177.4380  139.2020 C   0  0  2  0  0  3  0  0  0  0  0  0
  193.1350  174.3510  134.5940 C   0  0  0  0  0  1  0  0  0  0  0  0
  187.0080  177.9990  137.6980 O   0  0  0  0  0  0  0  0  0  0  0  0
  187.2650  173.0940  135.0450 O   0  0  0  0  0  1  0  0  0  0  0  0
  190.9510  176.8280  139.3440 C   0  0  0  0  0  2  0  0  0  0  0  0
  189.4330  178.1730  137.8580 C   0  0  2  0  0  3  0  0  0  0  0  0
  191.4070  175.7710  135.7020 C   0  0  0  0  0  3  0  0  0  0  0  0
  185.9960  174.7660  136.2300 C   0  0  0  0  0  3  0  0  0  0  0  0
  191.4260  176.1200  138.1070 C   0  0  0  0  0  0  0  0  0  0  0  0
  192.5690  175.3210  138.2030 C   0  0  0  0  0  3  0  0  0  0  0  0
  188.1010  178.9170  137.7180 C   0  0  0  0  0  2  0  0  0  0  0  0
  187.0900  176.7690  137.0400 C   0  0  0  0  0  0  0  0  0  0  0  0
  185.9360  175.9950  136.8910 C   0  0  0  0  0  3  0  0  0  0  0  0
  189.2890  178.3640  140.3850 C   0  0  0  0  0  2  0  0  0  0  0  0
  186.9420  178.1920  140.7120 O   0  0  0  0  0  0  0  0  0  0  0  0
  188.0880  177.8930  141.1400 C   0  0  0  0  0  0  0  0  0  0  0  0
  188.6610  177.0620  145.1320 C   0  0  1  0  0  3  0  0  0  0  0  0
  187.1800  177.1790  143.2620 O   0  0  0  0  0  0  0  0  0  0  0  0
  190.2240  176.0320  141.9650 O   0  0  0  0  0  0  0  0  0  0  0  0
  189.1510  177.8170  146.3500 C   0  0  0  0  0  1  0  0  0  0  0  0
  187.6210  177.9040  144.3830 C   0  0  0  0  0  2  0  0  0  0  0  0
  189.4560  176.5820  142.7990 C   0  0  0  0  0  0  0  0  0  0  0  0
  188.2200  177.1860  142.3840 N   0  0  0  0  0  0  0  0  0  0  0  0
  189.8550  176.6960  144.2380 C   0  0  0  0  0  2  0  0  0  0  0  0
  1  6  1  0  0  0  0
  2  3  1  1  0  0  0
  2  5  1  0  0  0  0
  2 13  1  0  0  0  0
  3 19  1  0  0  0  0
  4  7  1  0  0  0  0
  4 15  2  0  0  0  0
  5 16  2  0  0  0  0
  6 17  2  0  0  0  0
  7  3  2  0  0  0  0
  8 12  1  0  0  0  0
  8 21  1  1  0  0  0
  9  1  1  0  0  0  0
 10 18  1  0  0  0  0
 11  4  1  0  0  0  0
 13 18  1  1  0  0  0
 13  8  1  0  0  0  0
 14  1  2  0  0  0  0
 14  5  1  0  0  0  0
 15 20  1  0  0  0  0
 16 17  1  0  0  0  0
 16 12  1  0  0  0  0
 19 10  1  0  0  0  0
 20 19  2  0  0  0  0
 21 23  1  0  0  0  0
 22 23  2  0  0  0  0
 23 30  1  0  0  0  0
 24 27  1  1  0  0  0
 25 28  1  0  0  0  0
 26 29  2  0  0  0  0
 28 24  1  0  0  0  0
 29 31  1  0  0  0  0
 30 29  1  0  0  0  0
 30 25  1  0  0  0  0
 31 24  1  0  0  0  0
M  END
>  <MODEL>
5

>  <REMARK>
 VINA RESULT:      -6.5      2.600      5.377
  Name = 
  2 active torsions:
  status: ('A' for Active; 'I' for Inactive)
    1  A    between atoms: C_5  and  C_16
    2  A    between atoms: C_10  and  C_16
                            x       y       z     vdW  Elec       q    Type
                         _______ _______ _______ _____ _____    ______ ____

>  <TORSDO>
F 2

$$$$
=
 OpenBabel11122411003D

 31 35  0  0  1  0  0  0  0  0999 V2000
  189.5570  178.0250  143.5020 C   0  0  0  0  0  0  0  0  0  0  0  0
  186.9300  179.0030  140.9340 C   0  0  2  0  0  3  0  0  0  0  0  0
  187.2010  178.1680  139.6900 C   0  0  0  0  0  0  0  0  0  0  0  0
  188.6590  176.7470  138.3580 C   0  0  0  0  0  0  0  0  0  0  0  0
  187.5610  178.4240  142.1790 C   0  0  0  0  0  0  0  0  0  0  0  0
  188.8090  177.2750  144.4130 C   0  0  0  0  0  3  0  0  0  0  0  0
  188.4160  177.4860  139.5190 C   0  0  0  0  0  3  0  0  0  0  0  0
  184.7530  177.9560  141.6380 C   0  0  2  0  0  3  0  0  0  0  0  0
  191.0160  178.2080  143.7140 C   0  0  0  0  0  1  0  0  0  0  0  0
  185.0430  178.8320  138.7730 O   0  0  0  0  0  0  0  0  0  0  0  0
  189.8580  176.0660  138.2080 O   0  0  0  0  0  1  0  0  0  0  0  0
  185.3090  177.5680  143.0100 C   0  0  0  0  0  2  0  0  0  0  0  0
  185.4230  179.2480  141.1430 C   0  0  2  0  0  3  0  0  0  0  0  0
  188.9350  178.5970  142.3910 C   0  0  0  0  0  3  0  0  0  0  0  0
  187.6950  176.6950  137.3490 C   0  0  0  0  0  3  0  0  0  0  0  0
  186.8050  177.6670  143.1030 C   0  0  0  0  0  0  0  0  0  0  0  0
  187.4350  177.1060  144.2170 C   0  0  0  0  0  3  0  0  0  0  0  0
  184.8110  179.7570  139.8340 C   0  0  0  0  0  2  0  0  0  0  0  0
  186.2480  178.1370  138.6490 C   0  0  0  0  0  0  0  0  0  0  0  0
  186.4940  177.3900  137.4940 C   0  0  0  0  0  3  0  0  0  0  0  0
  183.2380  178.0980  141.7330 C   0  0  0  0  0  2  0  0  0  0  0  0
  183.0560  176.4970  139.9870 O   0  0  0  0  0  0  0  0  0  0  0  0
  182.5970  177.5540  140.4970 C   0  0  0  0  0  0  0  0  0  0  0  0
  180.5400  180.2590  138.1710 C   0  0  1  0  0  3  0  0  0  0  0  0
  181.2880  178.0170  138.5200 O   0  0  0  0  0  0  0  0  0  0  0  0
  180.4980  179.2380  141.7060 O   0  0  0  0  0  0  0  0  0  0  0  0
  180.8580  181.5540  137.4550 C   0  0  0  0  0  1  0  0  0  0  0  0
  181.6100  179.2090  137.8480 C   0  0  0  0  0  2  0  0  0  0  0  0
  180.7860  179.3030  140.4810 C   0  0  0  0  0  0  0  0  0  0  0  0
  181.5330  178.2580  139.8370 N   0  0  0  0  0  0  0  0  0  0  0  0
  180.4310  180.5180  139.6820 C   0  0  0  0  0  2  0  0  0  0  0  0
  1  9  1  0  0  0  0
  1  6  1  0  0  0  0
  2  3  1  6  0  0  0
  2 13  1  0  0  0  0
  2  5  1  0  0  0  0
  4  7  2  0  0  0  0
  5 14  1  0  0  0  0
  5 16  2  0  0  0  0
  7  3  1  0  0  0  0
  8 21  1  1  0  0  0
  8 12  1  0  0  0  0
 10 18  1  0  0  0  0
 11  4  1  0  0  0  0
 12 16  1  0  0  0  0
 13 18  1  6  0  0  0
 13  8  1  0  0  0  0
 14  1  2  0  0  0  0
 15 20  2  0  0  0  0
 15  4  1  0  0  0  0
 16 17  1  0  0  0  0
 17  6  2  0  0  0  0
 19 10  1  0  0  0  0
 19  3  2  0  0  0  0
 20 19  1  0  0  0  0
 22 23  2  0  0  0  0
 23 21  1  0  0  0  0
 24 27  1  6  0  0  0
 24 31  1  0  0  0  0
 25 30  1  0  0  0  0
 28 24  1  0  0  0  0
 28 25  1  0  0  0  0
 29 26  2  0  0  0  0
 30 29  1  0  0  0  0
 30 23  1  0  0  0  0
 31 29  1  0  0  0  0
M  END
>  <MODEL>
6

>  <REMARK>
 VINA RESULT:      -6.4      2.996      7.417
  Name = 
  2 active torsions:
  status: ('A' for Active; 'I' for Inactive)
    1  A    between atoms: C_5  and  C_16
    2  A    between atoms: C_10  and  C_16
                            x       y       z     vdW  Elec       q    Type
                         _______ _______ _______ _____ _____    ______ ____

>  <TORSDO>
F 2

$$$$
=
 OpenBabel11122411003D

 31 35  0  0  1  0  0  0  0  0999 V2000
  190.8510  177.1090  142.2410 C   0  0  0  0  0  0  0  0  0  0  0  0
  190.0560  178.0700  138.6500 C   0  0  2  0  0  3  0  0  0  0  0  0
  190.4270  176.8750  137.7830 C   0  0  0  0  0  0  0  0  0  0  0  0
  191.5820  174.7580  137.4610 C   0  0  0  0  0  0  0  0  0  0  0  0
  189.8660  177.7060  140.1040 C   0  0  0  0  0  0  0  0  0  0  0  0
  189.5780  176.9170  142.7800 C   0  0  0  0  0  3  0  0  0  0  0  0
  191.2280  175.8340  138.2790 C   0  0  0  0  0  3  0  0  0  0  0  0
  187.5560  177.9870  138.3780 C   0  0  2  0  0  3  0  0  0  0  0  0
  192.0550  176.8890  143.0840 C   0  0  0  0  0  1  0  0  0  0  0  0
  189.2560  177.8780  135.8960 O   0  0  0  0  0  0  0  0  0  0  0  0
  192.3630  173.7290  137.9680 O   0  0  0  0  0  1  0  0  0  0  0  0
  187.3320  177.8540  139.8860 C   0  0  0  0  0  2  0  0  0  0  0  0
  188.8220  178.8140  138.1020 C   0  0  2  0  0  3  0  0  0  0  0  0
  190.9950  177.5030  140.9090 C   0  0  0  0  0  3  0  0  0  0  0  0
  191.1510  174.7180  136.1340 C   0  0  0  0  0  3  0  0  0  0  0  0
  188.5780  177.5140  140.6520 C   0  0  0  0  0  0  0  0  0  0  0  0
  188.4450  177.1280  141.9890 C   0  0  0  0  0  3  0  0  0  0  0  0
  189.0240  179.0910  136.6100 C   0  0  0  0  0  2  0  0  0  0  0  0
  190.0260  176.8420  136.4310 C   0  0  0  0  0  0  0  0  0  0  0  0
  190.3760  175.7600  135.6200 C   0  0  0  0  0  3  0  0  0  0  0  0
  186.3190  178.6070  137.7390 C   0  0  0  0  0  2  0  0  0  0  0  0
  185.3000  176.4800  137.4480 O   0  0  0  0  0  0  0  0  0  0  0  0
  185.1620  177.6670  137.8490 C   0  0  0  0  0  0  0  0  0  0  0  0
  181.4240  179.3880  137.9950 C   0  0  1  0  0  3  0  0  0  0  0  0
  182.7630  177.4100  137.9860 O   0  0  0  0  0  0  0  0  0  0  0  0
  184.5790  179.7530  139.8530 O   0  0  0  0  0  0  0  0  0  0  0  0
  180.6090  180.3130  137.1170 C   0  0  0  0  0  1  0  0  0  0  0  0
  182.0170  178.2560  137.1480 C   0  0  0  0  0  2  0  0  0  0  0  0
  183.7110  179.3480  139.0340 C   0  0  0  0  0  0  0  0  0  0  0  0
  183.8800  178.1130  138.3200 N   0  0  0  0  0  0  0  0  0  0  0  0
  182.5140  180.1930  138.7180 C   0  0  0  0  0  2  0  0  0  0  0  0
  1  6  1  0  0  0  0
  1  9  1  0  0  0  0
  2  3  1  6  0  0  0
  2  5  1  0  0  0  0
  3  7  1  0  0  0  0
  4 11  1  0  0  0  0
  4  7  2  0  0  0  0
  5 16  2  0  0  0  0
  5 14  1  0  0  0  0
  8 21  1  6  0  0  0
  8 12  1  0  0  0  0
 10 19  1  0  0  0  0
 10 18  1  0  0  0  0
 12 16  1  0  0  0  0
 13 18  1  6  0  0  0
 13  8  1  0  0  0  0
 13  2  1  0  0  0  0
 14  1  2  0  0  0  0
 15  4  1  0  0  0  0
 16 17  1  0  0  0  0
 17  6  2  0  0  0  0
 19  3  2  0  0  0  0
 20 15  2  0  0  0  0
 20 19  1  0  0  0  0
 21 23  1  0  0  0  0
 22 23  2  0  0  0  0
 23 30  1  0  0  0  0
 24 27  1  6  0  0  0
 24 31  1  0  0  0  0
 25 30  1  0  0  0  0
 28 25  1  0  0  0  0
 28 24  1  0  0  0  0
 29 26  2  0  0  0  0
 30 29  1  0  0  0  0
 31 29  1  0  0  0  0
M  END
>  <MODEL>
7

>  <REMARK>
 VINA RESULT:      -6.3      3.065      7.062
  Name = 
  2 active torsions:
  status: ('A' for Active; 'I' for Inactive)
    1  A    between atoms: C_5  and  C_16
    2  A    between atoms: C_10  and  C_16
                            x       y       z     vdW  Elec       q    Type
                         _______ _______ _______ _____ _____    ______ ____

>  <TORSDO>
F 2

$$$$
=
 OpenBabel11122411003D

 31 35  0  0  1  0  0  0  0  0999 V2000
  191.0190  176.1920  143.4760 C   0  0  0  0  0  0  0  0  0  0  0  0
  187.3730  177.0070  144.1790 C   0  0  2  0  0  3  0  0  0  0  0  0
  187.3310  177.6920  145.5380 C   0  0  0  0  0  0  0  0  0  0  0  0
  188.3610  178.2530  147.6700 C   0  0  0  0  0  0  0  0  0  0  0  0
  188.7450  177.0400  143.5470 C   0  0  0  0  0  0  0  0  0  0  0  0
  191.3420  177.1280  142.4920 C   0  0  0  0  0  3  0  0  0  0  0  0
  188.4270  177.6430  146.4140 C   0  0  0  0  0  3  0  0  0  0  0  0
  186.7420  178.9700  142.7360 C   0  0  2  0  0  3  0  0  0  0  0  0
  192.0530  175.2450  143.9690 C   0  0  0  0  0  1  0  0  0  0  0  0
  185.0230  178.3620  145.1320 O   0  0  0  0  0  0  0  0  0  0  0  0
  189.4570  178.2100  148.5200 O   0  0  0  0  0  1  0  0  0  0  0  0
  188.0330  178.8680  141.9210 C   0  0  0  0  0  2  0  0  0  0  0  0
  186.3100  177.5760  143.2180 C   0  0  2  0  0  3  0  0  0  0  0  0
  189.7260  176.1470  144.0000 C   0  0  0  0  0  3  0  0  0  0  0  0
  187.1940  178.9060  148.0690 C   0  0  0  0  0  3  0  0  0  0  0  0
  189.0730  177.9850  142.5490 C   0  0  0  0  0  0  0  0  0  0  0  0
  190.3690  178.0150  142.0240 C   0  0  0  0  0  3  0  0  0  0  0  0
  184.9530  177.5980  143.9280 C   0  0  0  0  0  2  0  0  0  0  0  0
  186.1440  178.3240  145.9650 C   0  0  0  0  0  0  0  0  0  0  0  0
  186.0870  178.9390  147.2180 C   0  0  0  0  0  3  0  0  0  0  0  0
  185.6660  179.6400  141.8900 C   0  0  0  0  0  2  0  0  0  0  0  0
  186.5270  178.6280  139.9200 O   0  0  0  0  0  0  0  0  0  0  0  0
  185.5020  178.9050  140.5980 C   0  0  0  0  0  0  0  0  0  0  0  0
  181.8290  179.2400  138.7680 C   0  0  1  0  0  3  0  0  0  0  0  0
  184.0500  178.3600  138.7460 O   0  0  0  0  0  0  0  0  0  0  0  0
  183.0450  178.2630  142.1000 O   0  0  0  0  0  0  0  0  0  0  0  0
  180.9580  180.3670  138.2550 C   0  0  0  0  0  1  0  0  0  0  0  0
  183.2650  179.4210  138.2610 C   0  0  0  0  0  2  0  0  0  0  0  0
  183.0170  178.6280  140.8940 C   0  0  0  0  0  0  0  0  0  0  0  0
  184.2000  178.5910  140.0790 N   0  0  0  0  0  0  0  0  0  0  0  0
  181.7640  179.1940  140.3020 C   0  0  0  0  0  2  0  0  0  0  0  0
  1  9  1  0  0  0  0
  1 14  1  0  0  0  0
  2  5  1  6  0  0  0
  2  3  1  0  0  0  0
  3 19  2  0  0  0  0
  3  7  1  0  0  0  0
  4 15  1  0  0  0  0
  4 11  1  0  0  0  0
  5 14  2  0  0  0  0
  6  1  2  0  0  0  0
  7  4  2  0  0  0  0
  8 21  1  6  0  0  0
  8 13  1  0  0  0  0
 10 19  1  0  0  0  0
 12 16  1  0  0  0  0
 12  8  1  0  0  0  0
 13 18  1  1  0  0  0
 13  2  1  0  0  0  0
 16  5  1  0  0  0  0
 17  6  1  0  0  0  0
 17 16  2  0  0  0  0
 18 10  1  0  0  0  0
 19 20  1  0  0  0  0
 20 15  2  0  0  0  0
 22 23  2  0  0  0  0
 23 21  1  0  0  0  0
 24 27  1  1  0  0  0
 24 31  1  0  0  0  0
 25 30  1  0  0  0  0
 28 25  1  0  0  0  0
 28 24  1  0  0  0  0
 29 26  2  0  0  0  0
 30 23  1  0  0  0  0
 30 29  1  0  0  0  0
 31 29  1  0  0  0  0
M  END
>  <MODEL>
8

>  <REMARK>
 VINA RESULT:      -6.3      4.313      7.989
  Name = 
  2 active torsions:
  status: ('A' for Active; 'I' for Inactive)
    1  A    between atoms: C_5  and  C_16
    2  A    between atoms: C_10  and  C_16
                            x       y       z     vdW  Elec       q    Type
                         _______ _______ _______ _____ _____    ______ ____

>  <TORSDO>
F 2

$$$$
=
 OpenBabel11122411003D

 31 35  0  0  1  0  0  0  0  0999 V2000
  191.3610  176.6420  145.6780 C   0  0  0  0  0  0  0  0  0  0  0  0
  187.8060  176.8580  144.3490 C   0  0  2  0  0  3  0  0  0  0  0  0
  187.0230  177.7210  145.3280 C   0  0  0  0  0  0  0  0  0  0  0  0
  186.7800  178.7820  147.5050 C   0  0  0  0  0  0  0  0  0  0  0  0
  189.3000  177.0500  144.4600 C   0  0  0  0  0  0  0  0  0  0  0  0
  192.0550  177.4620  144.7860 C   0  0  0  0  0  3  0  0  0  0  0  0
  187.5240  178.0120  146.6070 C   0  0  0  0  0  3  0  0  0  0  0  0
  187.8250  178.4260  142.3800 C   0  0  2  0  0  3  0  0  0  0  0  0
  192.0810  175.9920  146.8030 C   0  0  0  0  0  1  0  0  0  0  0  0
  185.1900  177.8780  143.7290 O   0  0  0  0  0  0  0  0  0  0  0  0
  187.2930  179.0740  148.7600 O   0  0  0  0  0  1  0  0  0  0  0  0
  189.3540  178.4450  142.3290 C   0  0  0  0  0  2  0  0  0  0  0  0
  187.3300  177.0650  142.8970 C   0  0  2  0  0  3  0  0  0  0  0  0
  189.9890  176.4360  145.5150 C   0  0  0  0  0  3  0  0  0  0  0  0
  185.5190  179.2580  147.1380 C   0  0  0  0  0  3  0  0  0  0  0  0
  190.0050  177.8780  143.5580 C   0  0  0  0  0  0  0  0  0  0  0  0
  191.3800  178.0700  143.7240 C   0  0  0  0  0  3  0  0  0  0  0  0
  185.8050  176.9410  142.8460 C   0  0  0  0  0  2  0  0  0  0  0  0
  185.7330  178.1770  144.9810 C   0  0  0  0  0  0  0  0  0  0  0  0
  184.9970  178.9540  145.8790 C   0  0  0  0  0  3  0  0  0  0  0  0
  187.2720  178.7460  140.9960 C   0  0  0  0  0  2  0  0  0  0  0  0
  185.6810  180.1280  142.0950 O   0  0  0  0  0  0  0  0  0  0  0  0
  185.9170  179.3650  141.1200 C   0  0  0  0  0  0  0  0  0  0  0  0
  182.8340  177.3870  139.2400 C   0  0  1  0  0  3  0  0  0  0  0  0
  183.5660  179.2240  140.5800 O   0  0  0  0  0  0  0  0  0  0  0  0
  186.1320  178.6880  138.2570 O   0  0  0  0  0  0  0  0  0  0  0  0
  182.2240  176.0020  139.2950 C   0  0  0  0  0  1  0  0  0  0  0  0
  183.0050  177.9370  140.6600 C   0  0  0  0  0  2  0  0  0  0  0  0
  185.1100  178.4050  138.9370 C   0  0  0  0  0  0  0  0  0  0  0  0
  184.8610  179.0380  140.2020 N   0  0  0  0  0  0  0  0  0  0  0  0
  184.1690  177.3310  138.4820 C   0  0  0  0  0  2  0  0  0  0  0  0
  1  9  1  0  0  0  0
  2  5  1  6  0  0  0
  2  3  1  0  0  0  0
  3  7  1  0  0  0  0
  4 11  1  0  0  0  0
  5 14  2  0  0  0  0
  6  1  2  0  0  0  0
  7  4  2  0  0  0  0
  8 21  1  6  0  0  0
  8 13  1  0  0  0  0
 10 19  1  0  0  0  0
 12  8  1  0  0  0  0
 12 16  1  0  0  0  0
 13 18  1  1  0  0  0
 13  2  1  0  0  0  0
 14  1  1  0  0  0  0
 15  4  1  0  0  0  0
 16 17  2  0  0  0  0
 16  5  1  0  0  0  0
 17  6  1  0  0  0  0
 18 10  1  0  0  0  0
 19  3  2  0  0  0  0
 19 20  1  0  0  0  0
 20 15  2  0  0  0  0
 21 23  1  0  0  0  0
 23 22  2  0  0  0  0
 24 27  1  1  0  0  0
 24 28  1  0  0  0  0
 25 28  1  0  0  0  0
 26 29  2  0  0  0  0
 29 30  1  0  0  0  0
 30 25  1  0  0  0  0
 30 23  1  0  0  0  0
 31 29  1  0  0  0  0
 31 24  1  0  0  0  0
M  END
>  <MODEL>
9

>  <REMARK>
 VINA RESULT:      -6.3      3.521      7.928
  Name = 
  2 active torsions:
  status: ('A' for Active; 'I' for Inactive)
    1  A    between atoms: C_5  and  C_16
    2  A    between atoms: C_10  and  C_16
                            x       y       z     vdW  Elec       q    Type
                         _______ _______ _______ _____ _____    ______ ____

>  <TORSDO>
F 2

$$$$
