=
 OpenBabel11122411513D

 28 32  0  0  1  0  0  0  0  0999 V2000
  187.1370  177.5670  136.3150 C   0  0  0  0  0  0  0  0  0  0  0  0
  182.7710  175.7000  136.7310 O   0  0  0  0  0  0  0  0  0  0  0  0
  186.8620  178.4100  142.2470 O   0  0  0  0  0  0  0  0  0  0  0  0
  186.6000  174.8780  135.7150 C   0  0  0  0  0  3  0  0  0  0  0  0
  184.9450  179.0520  140.9960 C   0  0  1  0  0  3  0  0  0  0  0  0
  187.5110  178.9920  136.6050 C   0  0  0  0  0  2  0  0  0  0  0  0
  183.0130  175.7310  139.1830 O   0  0  0  0  0  0  0  0  0  0  0  0
  182.7620  176.5660  137.9590 S   0  0  0  0  0  0  0  0  0  0  0  0
  181.1670  178.4860  138.7270 C   0  0  0  0  0  0  0  0  0  0  0  0
  183.9760  177.8650  137.7980 C   0  0  1  0  0  3  0  0  0  0  0  0
  189.8110  177.4260  138.6550 O   0  0  0  0  0  0  0  0  0  0  0  0
  186.0010  178.5880  138.8430 N   0  0  1  0  0  0  0  0  0  0  0  0
  182.3390  179.0510  139.4860 C   0  0  0  0  0  2  0  0  0  0  0  0
  181.2560  177.3720  138.0900 N   0  0  0  0  0  0  0  0  0  0  0  0
  189.0110  178.3910  138.5510 C   0  0  0  0  0  0  0  0  0  0  0  0
  186.1760  176.8480  137.0820 C   0  0  0  0  0  0  0  0  0  0  0  0
  186.3170  178.5470  141.1640 C   0  0  0  0  0  0  0  0  0  0  0  0
  179.8610  179.2000  138.7780 C   0  0  0  0  0  1  0  0  0  0  0  0
  188.2150  178.7720  139.6730 N   0  0  0  0  0  2  0  0  0  0  0  0
  185.9300  175.5060  136.7670 C   0  0  0  0  0  3  0  0  0  0  0  0
  187.7990  176.9240  135.2610 C   0  0  0  0  0  3  0  0  0  0  0  0
  187.5310  175.5890  134.9600 C   0  0  0  0  0  3  0  0  0  0  0  0
  188.8980  179.1160  137.2440 C   0  0  0  0  0  2  0  0  0  0  0  0
  184.9200  179.3440  139.4820 C   0  0  1  0  0  3  0  0  0  0  0  0
  186.9230  178.1370  139.8790 C   0  0  2  0  0  3  0  0  0  0  0  0
  183.6460  179.0830  138.6680 C   0  0  1  0  0  3  0  0  0  0  0  0
  184.0670  178.0240  141.3490 O   0  0  0  0  0  1  0  0  0  0  0  0
  185.3680  177.4280  138.2280 C   0  0  2  0  0  3  0  0  0  0  0  0
  1  6  1  0  0  0  0
  1 16  1  0  0  0  0
  2  8  2  0  0  0  0
  4 20  1  0  0  0  0
  5 17  1  0  0  0  0
  5 27  1  6  0  0  0
  6 23  1  0  0  0  0
  8 14  1  0  0  0  0
  8  7  2  0  0  0  0
  9 18  1  0  0  0  0
  9 13  1  0  0  0  0
 10  8  1  1  0  0  0
 10 28  1  0  0  0  0
 10 26  1  0  0  0  0
 12 24  1  0  0  0  0
 12 25  1  0  0  0  0
 14  9  2  0  0  0  0
 15 11  2  0  0  0  0
 15 19  1  0  0  0  0
 16 28  1  0  0  0  0
 17  3  2  0  0  0  0
 19 25  1  0  0  0  0
 20 16  2  0  0  0  0
 21  1  2  0  0  0  0
 22 21  1  0  0  0  0
 22  4  2  0  0  0  0
 23 15  1  0  0  0  0
 24  5  1  0  0  0  0
 25 17  1  0  0  0  0
 26 24  1  0  0  0  0
 26 13  1  0  0  0  0
 28 12  1  0  0  0  0
M  END
>  <MODEL>
1

>  <REMARK>
 VINA RESULT:      -6.5      0.000      0.000
  Name = 
  0 active torsions:
  status: ('A' for Active; 'I' for Inactive)
                            x       y       z     vdW  Elec       q    Type
                         _______ _______ _______ _____ _____    ______ ____

>  <TORSDO>
F 0

$$$$
=
 OpenBabel11122411513D

 28 32  0  0  1  0  0  0  0  0999 V2000
  188.4890  176.8800  142.0850 C   0  0  0  0  0  0  0  0  0  0  0  0
  186.6610  177.5430  137.7330 O   0  0  0  0  0  0  0  0  0  0  0  0
  193.8160  177.8930  139.5220 O   0  0  0  0  0  0  0  0  0  0  0  0
  186.7420  178.9990  141.5070 C   0  0  0  0  0  3  0  0  0  0  0  0
  192.3570  176.4030  138.3790 C   0  0  1  0  0  3  0  0  0  0  0  0
  189.4200  175.7720  142.4840 C   0  0  0  0  0  2  0  0  0  0  0  0
  188.8570  178.3470  136.9550 O   0  0  0  0  0  0  0  0  0  0  0  0
  188.0510  177.1360  137.3330 S   0  0  0  0  0  0  0  0  0  0  0  0
  188.9320  175.1990  135.8180 C   0  0  0  0  0  0  0  0  0  0  0  0
  188.8260  176.2270  138.6590 C   0  0  1  0  0  3  0  0  0  0  0  0
  191.3300  178.4560  143.5310 O   0  0  0  0  0  0  0  0  0  0  0  0
  190.6790  176.4360  140.1550 N   0  0  1  0  0  0  0  0  0  0  0  0
  190.1940  175.2360  136.6390 C   0  0  0  0  0  2  0  0  0  0  0  0
  187.9780  176.0400  136.0180 N   0  0  0  0  0  0  0  0  0  0  0  0
  191.3530  177.3300  142.9710 C   0  0  0  0  0  0  0  0  0  0  0  0
  188.5450  177.5180  140.8130 C   0  0  0  0  0  0  0  0  0  0  0  0
  192.7590  177.2840  139.4880 C   0  0  0  0  0  0  0  0  0  0  0  0
  188.8200  174.2150  134.7060 C   0  0  0  0  0  1  0  0  0  0  0  0
  192.2000  177.1200  141.8410 N   0  0  0  0  0  2  0  0  0  0  0  0
  187.6660  178.5770  140.5510 C   0  0  0  0  0  3  0  0  0  0  0  0
  187.5520  177.3130  143.0330 C   0  0  0  0  0  3  0  0  0  0  0  0
  186.6820  178.3650  142.7460 C   0  0  0  0  0  3  0  0  0  0  0  0
  190.4780  176.2300  143.4930 C   0  0  0  0  0  2  0  0  0  0  0  0
  191.1640  175.6570  139.0110 C   0  0  1  0  0  3  0  0  0  0  0  0
  191.6970  177.4170  140.5090 C   0  0  2  0  0  3  0  0  0  0  0  0
  189.9390  175.3000  138.1590 C   0  0  1  0  0  3  0  0  0  0  0  0
  191.9650  177.2160  137.3120 O   0  0  0  0  0  1  0  0  0  0  0  0
  189.4860  177.1310  139.6870 C   0  0  2  0  0  3  0  0  0  0  0  0
  1  6  1  0  0  0  0
  1 21  1  0  0  0  0
  4 22  1  0  0  0  0
  5 27  1  6  0  0  0
  5 24  1  0  0  0  0
  5 17  1  0  0  0  0
  6 23  1  0  0  0  0
  7  8  2  0  0  0  0
  8  2  2  0  0  0  0
  9 14  2  0  0  0  0
  9 13  1  0  0  0  0
 10  8  1  6  0  0  0
 10 28  1  0  0  0  0
 12 25  1  0  0  0  0
 13 26  1  0  0  0  0
 14  8  1  0  0  0  0
 15 23  1  0  0  0  0
 15 11  2  0  0  0  0
 16  1  2  0  0  0  0
 17  3  2  0  0  0  0
 17 25  1  0  0  0  0
 18  9  1  0  0  0  0
 19 15  1  0  0  0  0
 20 16  1  0  0  0  0
 20  4  2  0  0  0  0
 22 21  2  0  0  0  0
 24 12  1  0  0  0  0
 25 19  1  0  0  0  0
 26 10  1  0  0  0  0
 26 24  1  0  0  0  0
 28 12  1  0  0  0  0
 28 16  1  0  0  0  0
M  END
>  <MODEL>
2

>  <REMARK>
 VINA RESULT:      -6.2      3.985      6.876
  Name = 
  0 active torsions:
  status: ('A' for Active; 'I' for Inactive)
                            x       y       z     vdW  Elec       q    Type
                         _______ _______ _______ _____ _____    ______ ____

>  <TORSDO>
F 0

$$$$
=
 OpenBabel11122411513D

 28 32  0  0  1  0  0  0  0  0999 V2000
  189.4440  177.4180  137.3890 C   0  0  0  0  0  0  0  0  0  0  0  0
  193.9290  176.5130  138.7250 O   0  0  0  0  0  0  0  0  0  0  0  0
  189.4910  171.8920  135.0560 O   0  0  0  0  0  0  0  0  0  0  0  0
  190.2050  177.3120  140.0880 C   0  0  0  0  0  3  0  0  0  0  0  0
  191.3850  173.2530  134.5950 C   0  0  1  0  0  3  0  0  0  0  0  0
  188.9520  177.5020  135.9730 C   0  0  0  0  0  2  0  0  0  0  0  0
  193.6190  174.1510  138.0960 O   0  0  0  0  0  0  0  0  0  0  0  0
  193.8370  175.5450  137.5790 S   0  0  0  0  0  0  0  0  0  0  0  0
  195.2560  175.2790  135.4030 C   0  0  0  0  0  0  0  0  0  0  0  0
  192.5300  176.0380  136.4680 C   0  0  1  0  0  3  0  0  0  0  0  0
  186.7260  175.1360  137.1540 O   0  0  0  0  0  0  0  0  0  0  0  0
  190.4280  175.2250  135.6730 N   0  0  1  0  0  0  0  0  0  0  0  0
  194.0240  174.6960  134.7640 C   0  0  0  0  0  2  0  0  0  0  0  0
  195.2720  175.6120  136.6460 N   0  0  0  0  0  0  0  0  0  0  0  0
  187.4510  175.4770  136.1840 C   0  0  0  0  0  0  0  0  0  0  0  0
  190.4370  176.4870  137.8090 C   0  0  0  0  0  0  0  0  0  0  0  0
  190.0530  172.9720  135.1530 C   0  0  0  0  0  0  0  0  0  0  0  0
  196.5010  175.4030  134.5950 C   0  0  0  0  0  1  0  0  0  0  0  0
  188.1850  174.4830  135.4680 N   0  0  0  0  0  2  0  0  0  0  0  0
  190.7950  176.4500  139.1630 C   0  0  0  0  0  3  0  0  0  0  0  0
  188.8630  178.2790  138.3290 C   0  0  0  0  0  3  0  0  0  0  0  0
  189.2420  178.2290  139.6700 C   0  0  0  0  0  3  0  0  0  0  0  0
  187.5430  176.9250  135.8050 C   0  0  0  0  0  2  0  0  0  0  0  0
  191.4290  174.7910  134.6940 C   0  0  1  0  0  3  0  0  0  0  0  0
  189.5160  174.1140  135.9220 C   0  0  2  0  0  3  0  0  0  0  0  0
  192.7410  175.5040  135.0470 C   0  0  1  0  0  3  0  0  0  0  0  0
  192.3310  172.6440  135.4250 O   0  0  0  0  0  1  0  0  0  0  0  0
  191.1660  175.5210  136.8950 C   0  0  2  0  0  3  0  0  0  0  0  0
  1 16  2  0  0  0  0
  1 21  1  0  0  0  0
  3 17  2  0  0  0  0
  5 24  1  0  0  0  0
  5 17  1  0  0  0  0
  5 27  1  1  0  0  0
  6  1  1  0  0  0  0
  8  7  2  0  0  0  0
  8  2  2  0  0  0  0
  9 14  2  0  0  0  0
 10 28  1  0  0  0  0
 10  8  1  1  0  0  0
 12 25  1  0  0  0  0
 12 28  1  0  0  0  0
 13 26  1  0  0  0  0
 13  9  1  0  0  0  0
 14  8  1  0  0  0  0
 15 11  2  0  0  0  0
 16 20  1  0  0  0  0
 17 25  1  0  0  0  0
 18  9  1  0  0  0  0
 19 25  1  0  0  0  0
 19 15  1  0  0  0  0
 20  4  2  0  0  0  0
 21 22  2  0  0  0  0
 22  4  1  0  0  0  0
 23  6  1  0  0  0  0
 23 15  1  0  0  0  0
 24 26  1  0  0  0  0
 24 12  1  0  0  0  0
 26 10  1  0  0  0  0
 28 16  1  0  0  0  0
M  END
>  <MODEL>
3

>  <REMARK>
 VINA RESULT:      -6.1      5.103      9.104
  Name = 
  0 active torsions:
  status: ('A' for Active; 'I' for Inactive)
                            x       y       z     vdW  Elec       q    Type
                         _______ _______ _______ _____ _____    ______ ____

>  <TORSDO>
F 0

$$$$
=
 OpenBabel11122411513D

 28 32  0  0  1  0  0  0  0  0999 V2000
  184.3160  175.3160  137.1310 C   0  0  0  0  0  0  0  0  0  0  0  0
  186.3870  178.7000  139.7720 O   0  0  0  0  0  0  0  0  0  0  0  0
  179.4400  178.8060  137.2740 O   0  0  0  0  0  0  0  0  0  0  0  0
  186.5130  176.7960  136.2050 C   0  0  0  0  0  3  0  0  0  0  0  0
  180.5630  178.4700  139.3420 C   0  0  1  0  0  3  0  0  0  0  0  0
  183.1460  174.4720  137.5490 C   0  0  0  0  0  2  0  0  0  0  0  0
  184.4550  180.1740  139.3630 O   0  0  0  0  0  0  0  0  0  0  0  0
  184.9550  178.9820  140.1300 S   0  0  0  0  0  0  0  0  0  0  0  0
  183.7100  179.0450  142.4250 C   0  0  0  0  0  0  0  0  0  0  0  0
  183.9520  177.5390  139.8150 C   0  0  1  0  0  3  0  0  0  0  0  0
  181.8560  175.7160  134.5940 O   0  0  0  0  0  0  0  0  0  0  0  0
  182.1460  176.8640  138.4020 N   0  0  1  0  0  0  0  0  0  0  0  0
  182.4630  178.6670  141.6710 C   0  0  0  0  0  2  0  0  0  0  0  0
  184.8220  179.2640  141.8140 N   0  0  0  0  0  0  0  0  0  0  0  0
  181.5990  175.4270  135.7910 C   0  0  0  0  0  0  0  0  0  0  0  0
  184.4460  176.6880  137.4870 C   0  0  0  0  0  0  0  0  0  0  0  0
  180.3330  178.2630  137.9030 C   0  0  0  0  0  0  0  0  0  0  0  0
  183.6340  179.2380  143.8990 C   0  0  0  0  0  1  0  0  0  0  0  0
  180.7640  176.2910  136.5620 N   0  0  0  0  0  2  0  0  0  0  0  0
  185.5490  177.4070  137.0070 C   0  0  0  0  0  3  0  0  0  0  0  0
  185.2940  174.7150  136.3270 C   0  0  0  0  0  3  0  0  0  0  0  0
  186.3870  175.4490  135.8680 C   0  0  0  0  0  3  0  0  0  0  0  0
  182.1860  174.1850  136.3910 C   0  0  0  0  0  2  0  0  0  0  0  0
  181.5350  177.3150  139.6560 C   0  0  1  0  0  3  0  0  0  0  0  0
  181.3640  177.3960  137.2920 C   0  0  2  0  0  3  0  0  0  0  0  0
  182.6760  177.5190  140.6630 C   0  0  1  0  0  3  0  0  0  0  0  0
  181.1630  179.7220  139.5010 O   0  0  0  0  0  1  0  0  0  0  0  0
  183.4790  177.4530  138.3720 C   0  0  2  0  0  3  0  0  0  0  0  0
  1 16  1  0  0  0  0
  1  6  1  0  0  0  0
  2  8  2  0  0  0  0
  3 17  2  0  0  0  0
  4 20  1  0  0  0  0
  5 27  1  6  0  0  0
  5 24  1  0  0  0  0
  7  8  2  0  0  0  0
  8 14  1  0  0  0  0
  9 18  1  0  0  0  0
 10  8  1  6  0  0  0
 10 26  1  0  0  0  0
 11 15  2  0  0  0  0
 12 24  1  0  0  0  0
 13  9  1  0  0  0  0
 14  9  2  0  0  0  0
 15 23  1  0  0  0  0
 15 19  1  0  0  0  0
 16 28  1  0  0  0  0
 17  5  1  0  0  0  0
 19 25  1  0  0  0  0
 20 16  2  0  0  0  0
 21  1  2  0  0  0  0
 22  4  2  0  0  0  0
 22 21  1  0  0  0  0
 23  6  1  0  0  0  0
 24 26  1  0  0  0  0
 25 17  1  0  0  0  0
 25 12  1  0  0  0  0
 26 13  1  0  0  0  0
 28 12  1  0  0  0  0
 28 10  1  0  0  0  0
M  END
>  <MODEL>
4

>  <REMARK>
 VINA RESULT:      -6.0      2.494      5.311
  Name = 
  0 active torsions:
  status: ('A' for Active; 'I' for Inactive)
                            x       y       z     vdW  Elec       q    Type
                         _______ _______ _______ _____ _____    ______ ____

>  <TORSDO>
F 0

$$$$
=
 OpenBabel11122411513D

 28 32  0  0  1  0  0  0  0  0999 V2000
  186.3850  177.5340  143.6790 C   0  0  0  0  0  0  0  0  0  0  0  0
  186.8210  178.5540  139.0440 O   0  0  0  0  0  0  0  0  0  0  0  0
  192.2340  178.8070  144.0580 O   0  0  0  0  0  0  0  0  0  0  0  0
  185.0250  179.6810  142.4890 C   0  0  0  0  0  3  0  0  0  0  0  0
  191.5690  177.4090  142.2540 C   0  0  1  0  0  3  0  0  0  0  0  0
  187.0660  176.4040  144.3950 C   0  0  0  0  0  2  0  0  0  0  0  0
  189.0810  179.4400  139.4720 O   0  0  0  0  0  0  0  0  0  0  0  0
  188.2520  178.1940  139.3300 S   0  0  0  0  0  0  0  0  0  0  0  0
  189.8410  176.4020  138.2870 C   0  0  0  0  0  0  0  0  0  0  0  0
  188.3450  177.1810  140.7960 C   0  0  1  0  0  3  0  0  0  0  0  0
  188.1150  179.0030  146.4170 O   0  0  0  0  0  0  0  0  0  0  0  0
  189.2490  177.2750  143.0070 N   0  0  1  0  0  0  0  0  0  0  0  0
  190.5550  176.3780  139.6120 C   0  0  0  0  0  2  0  0  0  0  0  0
  188.8670  177.2150  138.0660 N   0  0  0  0  0  0  0  0  0  0  0  0
  188.4560  177.9290  145.8580 C   0  0  0  0  0  0  0  0  0  0  0  0
  187.0100  178.2790  142.6390 C   0  0  0  0  0  0  0  0  0  0  0  0
  191.3520  178.1940  143.4800 C   0  0  0  0  0  0  0  0  0  0  0  0
  190.3190  175.5160  137.1900 C   0  0  0  0  0  1  0  0  0  0  0  0
  189.7480  177.8250  145.2590 N   0  0  0  0  0  2  0  0  0  0  0  0
  186.3120  179.3500  142.0650 C   0  0  0  0  0  3  0  0  0  0  0  0
  185.0910  177.8770  144.0920 C   0  0  0  0  0  3  0  0  0  0  0  0
  184.4130  178.9420  143.5000 C   0  0  0  0  0  3  0  0  0  0  0  0
  187.4920  176.7810  145.8170 C   0  0  0  0  0  2  0  0  0  0  0  0
  190.2570  176.6020  142.1820 C   0  0  1  0  0  3  0  0  0  0  0  0
  189.9270  178.2310  143.8740 C   0  0  2  0  0  3  0  0  0  0  0  0
  189.6050  176.3090  140.8250 C   0  0  1  0  0  3  0  0  0  0  0  0
  191.6940  178.3080  141.1900 O   0  0  0  0  0  1  0  0  0  0  0  0
  188.3910  177.9990  142.0770 C   0  0  2  0  0  3  0  0  0  0  0  0
  1 21  1  0  0  0  0
  1  6  1  0  0  0  0
  2  8  2  0  0  0  0
  4 22  1  0  0  0  0
  5 27  1  6  0  0  0
  5 17  1  0  0  0  0
  6 23  1  0  0  0  0
  8  7  2  0  0  0  0
  9 13  1  0  0  0  0
 10  8  1  6  0  0  0
 10 26  1  0  0  0  0
 10 28  1  0  0  0  0
 12 25  1  0  0  0  0
 13 26  1  0  0  0  0
 14  9  2  0  0  0  0
 14  8  1  0  0  0  0
 15 11  2  0  0  0  0
 16  1  2  0  0  0  0
 17 25  1  0  0  0  0
 17  3  2  0  0  0  0
 18  9  1  0  0  0  0
 19 15  1  0  0  0  0
 20  4  2  0  0  0  0
 20 16  1  0  0  0  0
 22 21  2  0  0  0  0
 23 15  1  0  0  0  0
 24  5  1  0  0  0  0
 24 12  1  0  0  0  0
 25 19  1  0  0  0  0
 26 24  1  0  0  0  0
 28 16  1  0  0  0  0
 28 12  1  0  0  0  0
M  END
>  <MODEL>
5

>  <REMARK>
 VINA RESULT:      -5.8      4.091      7.336
  Name = 
  0 active torsions:
  status: ('A' for Active; 'I' for Inactive)
                            x       y       z     vdW  Elec       q    Type
                         _______ _______ _______ _____ _____    ______ ____

>  <TORSDO>
F 0

$$$$
=
 OpenBabel11122411513D

 28 32  0  0  1  0  0  0  0  0999 V2000
  182.1050  177.7090  139.9120 C   0  0  0  0  0  0  0  0  0  0  0  0
  179.8220  174.6860  137.0190 O   0  0  0  0  0  0  0  0  0  0  0  0
  186.3620  177.8430  135.6900 O   0  0  0  0  0  0  0  0  0  0  0  0
  179.6180  178.3280  138.7680 C   0  0  0  0  0  3  0  0  0  0  0  0
  185.5320  175.6970  136.2890 C   0  0  1  0  0  3  0  0  0  0  0  0
  183.4290  177.4570  140.5730 C   0  0  0  0  0  2  0  0  0  0  0  0
  181.4460  175.1970  135.2370 O   0  0  0  0  0  0  0  0  0  0  0  0
  181.2230  174.4550  136.5250 S   0  0  0  0  0  0  0  0  0  0  0  0
  182.6780  172.2920  136.3570 C   0  0  0  0  0  0  0  0  0  0  0  0
  182.3990  174.9490  137.7720 C   0  0  1  0  0  3  0  0  0  0  0  0
  184.1880  180.4470  139.0150 O   0  0  0  0  0  0  0  0  0  0  0  0
  184.1290  176.5690  138.0880 N   0  0  1  0  0  0  0  0  0  0  0  0
  183.8820  173.1860  136.4970 C   0  0  0  0  0  2  0  0  0  0  0  0
  181.4880  172.7780  136.2950 N   0  0  0  0  0  0  0  0  0  0  0  0
  184.6130  179.3000  139.3090 C   0  0  0  0  0  0  0  0  0  0  0  0
  181.8000  177.2630  138.5950 C   0  0  0  0  0  0  0  0  0  0  0  0
  185.6370  177.1610  136.3960 C   0  0  0  0  0  0  0  0  0  0  0  0
  182.8790  170.8240  136.2150 C   0  0  0  0  0  1  0  0  0  0  0  0
  185.3800  178.5660  138.3540 N   0  0  0  0  0  2  0  0  0  0  0  0
  180.5540  177.5900  138.0440 C   0  0  0  0  0  3  0  0  0  0  0  0
  181.1530  178.4460  140.6280 C   0  0  0  0  0  3  0  0  0  0  0  0
  179.9160  178.7520  140.0620 C   0  0  0  0  0  3  0  0  0  0  0  0
  184.2940  178.7180  140.6530 C   0  0  0  0  0  2  0  0  0  0  0  0
  184.7900  175.3570  137.5970 C   0  0  1  0  0  3  0  0  0  0  0  0
  184.6960  177.7180  137.3910 C   0  0  2  0  0  3  0  0  0  0  0  0
  183.7450  174.2330  137.6210 C   0  0  1  0  0  3  0  0  0  0  0  0
  184.7640  175.4080  135.1570 O   0  0  0  0  0  1  0  0  0  0  0  0
  182.7240  176.4340  137.7220 C   0  0  2  0  0  3  0  0  0  0  0  0
  1  6  1  0  0  0  0
  1 21  1  0  0  0  0
  3 17  2  0  0  0  0
  4 22  1  0  0  0  0
  5 27  1  6  0  0  0
  5 17  1  0  0  0  0
  5 24  1  0  0  0  0
  6 23  1  0  0  0  0
  7  8  2  0  0  0  0
  8  2  2  0  0  0  0
  9 13  1  0  0  0  0
 10  8  1  6  0  0  0
 11 15  2  0  0  0  0
 13 26  1  0  0  0  0
 14  9  2  0  0  0  0
 14  8  1  0  0  0  0
 15 23  1  0  0  0  0
 16  1  2  0  0  0  0
 17 25  1  0  0  0  0
 18  9  1  0  0  0  0
 19 15  1  0  0  0  0
 20 16  1  0  0  0  0
 20  4  2  0  0  0  0
 22 21  2  0  0  0  0
 24 26  1  0  0  0  0
 24 12  1  0  0  0  0
 25 12  1  0  0  0  0
 25 19  1  0  0  0  0
 26 10  1  0  0  0  0
 28 10  1  0  0  0  0
 28 12  1  0  0  0  0
 28 16  1  0  0  0  0
M  END
>  <MODEL>
6

>  <REMARK>
 VINA RESULT:      -5.5      2.649      5.804
  Name = 
  0 active torsions:
  status: ('A' for Active; 'I' for Inactive)
                            x       y       z     vdW  Elec       q    Type
                         _______ _______ _______ _____ _____    ______ ____

>  <TORSDO>
F 0

$$$$
=
 OpenBabel11122411513D

 28 32  0  0  1  0  0  0  0  0999 V2000
  185.4420  174.6200  137.2150 C   0  0  0  0  0  0  0  0  0  0  0  0
  184.7840  179.1090  138.6740 O   0  0  0  0  0  0  0  0  0  0  0  0
  179.5670  174.6160  136.0110 O   0  0  0  0  0  0  0  0  0  0  0  0
  186.6680  176.7980  135.9400 C   0  0  0  0  0  3  0  0  0  0  0  0
  180.2150  175.5070  138.1170 C   0  0  1  0  0  3  0  0  0  0  0  0
  184.8360  173.3980  137.8420 C   0  0  0  0  0  2  0  0  0  0  0  0
  182.5100  179.0630  137.7270 O   0  0  0  0  0  0  0  0  0  0  0  0
  183.3810  178.6040  138.8630 S   0  0  0  0  0  0  0  0  0  0  0  0
  181.8250  178.5190  140.9590 C   0  0  0  0  0  0  0  0  0  0  0  0
  183.3870  176.8250  139.0010 C   0  0  1  0  0  3  0  0  0  0  0  0
  183.7640  172.9000  134.5940 O   0  0  0  0  0  0  0  0  0  0  0  0
  182.5670  174.9150  137.8200 N   0  0  1  0  0  0  0  0  0  0  0  0
  181.1650  177.3250  140.3230 C   0  0  0  0  0  2  0  0  0  0  0  0
  182.7560  179.1700  140.3540 N   0  0  0  0  0  0  0  0  0  0  0  0
  183.4450  172.8260  135.8080 C   0  0  0  0  0  0  0  0  0  0  0  0
  184.7480  175.8580  137.1050 C   0  0  0  0  0  0  0  0  0  0  0  0
  180.4500  174.8550  136.8190 C   0  0  0  0  0  0  0  0  0  0  0  0
  181.3400  178.9950  142.2840 C   0  0  0  0  0  1  0  0  0  0  0  0
  182.1350  173.2200  136.2190 N   0  0  0  0  0  2  0  0  0  0  0  0
  185.3790  176.9290  136.4590 C   0  0  0  0  0  3  0  0  0  0  0  0
  186.7370  174.5050  136.6930 C   0  0  0  0  0  3  0  0  0  0  0  0
  187.3490  175.5880  136.0610 C   0  0  0  0  0  3  0  0  0  0  0  0
  184.4510  172.3370  136.8060 C   0  0  0  0  0  2  0  0  0  0  0  0
  181.5540  175.2350  138.8310 C   0  0  1  0  0  3  0  0  0  0  0  0
  181.8860  174.6100  136.5670 C   0  0  2  0  0  3  0  0  0  0  0  0
  182.1640  176.2950  139.7580 C   0  0  1  0  0  3  0  0  0  0  0  0
  180.0130  176.8700  137.8780 O   0  0  0  0  0  1  0  0  0  0  0  0
  183.3590  176.1280  137.6510 C   0  0  2  0  0  3  0  0  0  0  0  0
  1  6  1  0  0  0  0
  2  8  2  0  0  0  0
  3 17  2  0  0  0  0
  4 22  2  0  0  0  0
  4 20  1  0  0  0  0
  5 27  1  6  0  0  0
  5 24  1  0  0  0  0
  7  8  2  0  0  0  0
  8 14  1  0  0  0  0
  9 18  1  0  0  0  0
 10  8  1  6  0  0  0
 10 26  1  0  0  0  0
 11 15  2  0  0  0  0
 12 24  1  0  0  0  0
 13  9  1  0  0  0  0
 14  9  2  0  0  0  0
 15 19  1  0  0  0  0
 15 23  1  0  0  0  0
 16  1  1  0  0  0  0
 16 28  1  0  0  0  0
 17  5  1  0  0  0  0
 19 25  1  0  0  0  0
 20 16  2  0  0  0  0
 21  1  2  0  0  0  0
 22 21  1  0  0  0  0
 23  6  1  0  0  0  0
 24 26  1  0  0  0  0
 25 17  1  0  0  0  0
 25 12  1  0  0  0  0
 26 13  1  0  0  0  0
 28 12  1  0  0  0  0
 28 10  1  0  0  0  0
M  END
>  <MODEL>
7

>  <REMARK>
 VINA RESULT:      -5.4      2.986      5.361
  Name = 
  0 active torsions:
  status: ('A' for Active; 'I' for Inactive)
                            x       y       z     vdW  Elec       q    Type
                         _______ _______ _______ _____ _____    ______ ____

>  <TORSDO>
F 0

$$$$
=
 OpenBabel11122411513D

 28 32  0  0  1  0  0  0  0  0999 V2000
  188.7600  175.7780  135.6450 C   0  0  0  0  0  0  0  0  0  0  0  0
  185.5250  172.3120  136.1350 O   0  0  0  0  0  0  0  0  0  0  0  0
  185.2970  178.9340  139.3900 O   0  0  0  0  0  0  0  0  0  0  0  0
  189.3910  173.3000  136.8010 C   0  0  0  0  0  3  0  0  0  0  0  0
  184.1850  177.8030  137.6190 C   0  0  1  0  0  3  0  0  0  0  0  0
  188.5130  177.1260  135.0320 C   0  0  0  0  0  2  0  0  0  0  0  0
  184.4740  173.5780  137.9690 O   0  0  0  0  0  0  0  0  0  0  0  0
  184.6500  173.4840  136.4790 S   0  0  0  0  0  0  0  0  0  0  0  0
  182.4160  174.3560  135.4450 C   0  0  0  0  0  0  0  0  0  0  0  0
  185.3510  174.9840  135.8110 C   0  0  1  0  0  3  0  0  0  0  0  0
  189.7950  178.1660  138.0690 O   0  0  0  0  0  0  0  0  0  0  0  0
  186.2660  177.0540  136.5820 N   0  0  1  0  0  0  0  0  0  0  0  0
  182.8270  175.7280  135.9110 C   0  0  0  0  0  2  0  0  0  0  0  0
  183.1280  173.3170  135.7120 N   0  0  0  0  0  0  0  0  0  0  0  0
  188.9210  178.3810  137.1900 C   0  0  0  0  0  0  0  0  0  0  0  0
  187.7940  175.1030  136.4450 C   0  0  0  0  0  0  0  0  0  0  0  0
  185.3620  178.2490  138.3830 C   0  0  0  0  0  0  0  0  0  0  0  0
  181.1240  174.1930  134.7240 C   0  0  0  0  0  1  0  0  0  0  0  0
  187.5970  178.7400  137.5850 N   0  0  0  0  0  2  0  0  0  0  0  0
  188.1350  173.8700  137.0160 C   0  0  0  0  0  3  0  0  0  0  0  0
  190.0150  175.1910  135.4360 C   0  0  0  0  0  3  0  0  0  0  0  0
  190.3290  173.9590  136.0090 C   0  0  0  0  0  3  0  0  0  0  0  0
  189.2830  178.2440  135.7420 C   0  0  0  0  0  2  0  0  0  0  0  0
  184.8470  177.3090  136.3170 C   0  0  1  0  0  3  0  0  0  0  0  0
  186.6220  177.6930  137.8430 C   0  0  2  0  0  3  0  0  0  0  0  0
  184.2960  176.0740  135.5930 C   0  0  1  0  0  3  0  0  0  0  0  0
  183.5840  176.7630  138.3330 O   0  0  0  0  0  1  0  0  0  0  0  0
  186.3920  175.6080  136.7270 C   0  0  2  0  0  3  0  0  0  0  0  0
  1 16  1  0  0  0  0
  2  8  2  0  0  0  0
  4 20  1  0  0  0  0
  5 27  1  1  0  0  0
  5 17  1  0  0  0  0
  6  1  1  0  0  0  0
  6 23  1  0  0  0  0
  8  7  2  0  0  0  0
  9 14  2  0  0  0  0
  9 13  1  0  0  0  0
 10  8  1  1  0  0  0
 10 28  1  0  0  0  0
 12 28  1  0  0  0  0
 12 25  1  0  0  0  0
 14  8  1  0  0  0  0
 15 19  1  0  0  0  0
 15 11  2  0  0  0  0
 16 28  1  0  0  0  0
 16 20  2  0  0  0  0
 17  3  2  0  0  0  0
 18  9  1  0  0  0  0
 19 25  1  0  0  0  0
 21  1  2  0  0  0  0
 21 22  1  0  0  0  0
 22  4  2  0  0  0  0
 23 15  1  0  0  0  0
 24 12  1  0  0  0  0
 24  5  1  0  0  0  0
 25 17  1  0  0  0  0
 26 10  1  0  0  0  0
 26 13  1  0  0  0  0
 26 24  1  0  0  0  0
M  END
>  <MODEL>
8

>  <REMARK>
 VINA RESULT:      -5.3      2.654      3.503
  Name = 
  0 active torsions:
  status: ('A' for Active; 'I' for Inactive)
                            x       y       z     vdW  Elec       q    Type
                         _______ _______ _______ _____ _____    ______ ____

>  <TORSDO>
F 0

$$$$
=
 OpenBabel11122411513D

 28 32  0  0  1  0  0  0  0  0999 V2000
  188.6000  174.6030  135.4970 C   0  0  0  0  0  0  0  0  0  0  0  0
  184.1020  173.1630  136.1380 O   0  0  0  0  0  0  0  0  0  0  0  0
  187.4490  178.6480  139.7740 O   0  0  0  0  0  0  0  0  0  0  0  0
  187.9750  172.0320  136.4330 C   0  0  0  0  0  3  0  0  0  0  0  0
  185.8050  178.4080  138.0730 C   0  0  1  0  0  3  0  0  0  0  0  0
  189.0240  175.9520  134.9930 C   0  0  0  0  0  2  0  0  0  0  0  0
  183.9540  174.5840  138.1450 O   0  0  0  0  0  0  0  0  0  0  0  0
  183.9600  174.5710  136.6430 S   0  0  0  0  0  0  0  0  0  0  0  0
  182.4040  176.5370  135.9110 C   0  0  0  0  0  0  0  0  0  0  0  0
  185.2730  175.5880  135.9890 C   0  0  1  0  0  3  0  0  0  0  0  0
  190.8530  175.8970  137.9260 O   0  0  0  0  0  0  0  0  0  0  0  0
  187.1530  176.8400  136.7730 N   0  0  1  0  0  0  0  0  0  0  0  0
  183.4780  177.4680  136.4070 C   0  0  0  0  0  2  0  0  0  0  0  0
  182.5130  175.2610  136.0380 N   0  0  0  0  0  0  0  0  0  0  0  0
  190.1500  176.6080  137.1620 C   0  0  0  0  0  0  0  0  0  0  0  0
  187.4810  174.4150  136.3570 C   0  0  0  0  0  0  0  0  0  0  0  0
  187.0940  178.1300  138.7270 C   0  0  0  0  0  0  0  0  0  0  0  0
  181.1610  177.1110  135.3270 C   0  0  0  0  0  1  0  0  0  0  0  0
  189.2140  177.5310  137.7190 N   0  0  0  0  0  2  0  0  0  0  0  0
  187.1930  173.1230  136.8160 C   0  0  0  0  0  3  0  0  0  0  0  0
  189.3730  173.4980  135.1190 C   0  0  0  0  0  3  0  0  0  0  0  0
  189.0630  172.2190  135.5820 C   0  0  0  0  0  3  0  0  0  0  0  0
  190.2970  176.4610  135.6770 C   0  0  0  0  0  2  0  0  0  0  0  0
  186.0410  177.7900  136.6800 C   0  0  1  0  0  3  0  0  0  0  0  0
  187.8640  177.0840  138.0220 C   0  0  2  0  0  3  0  0  0  0  0  0
  184.8970  177.0730  135.9500 C   0  0  1  0  0  3  0  0  0  0  0  0
  184.8110  177.7330  138.7870 O   0  0  0  0  0  1  0  0  0  0  0  0
  186.5450  175.5160  136.8200 C   0  0  2  0  0  3  0  0  0  0  0  0
  1 16  1  0  0  0  0
  2  8  2  0  0  0  0
  4 20  1  0  0  0  0
  5 17  1  0  0  0  0
  5 27  1  1  0  0  0
  6  1  1  0  0  0  0
  6 23  1  0  0  0  0
  8  7  2  0  0  0  0
  9 14  2  0  0  0  0
  9 13  1  0  0  0  0
 10  8  1  1  0  0  0
 10 28  1  0  0  0  0
 12 28  1  0  0  0  0
 12 25  1  0  0  0  0
 14  8  1  0  0  0  0
 15 19  1  0  0  0  0
 15 11  2  0  0  0  0
 16 20  2  0  0  0  0
 16 28  1  0  0  0  0
 17  3  2  0  0  0  0
 18  9  1  0  0  0  0
 19 25  1  0  0  0  0
 21  1  2  0  0  0  0
 21 22  1  0  0  0  0
 22  4  2  0  0  0  0
 23 15  1  0  0  0  0
 24 12  1  0  0  0  0
 24  5  1  0  0  0  0
 25 17  1  0  0  0  0
 26 10  1  0  0  0  0
 26 13  1  0  0  0  0
 26 24  1  0  0  0  0
M  END
>  <MODEL>
9

>  <REMARK>
 VINA RESULT:      -5.1      2.339      3.093
  Name = 
  0 active torsions:
  status: ('A' for Active; 'I' for Inactive)
                            x       y       z     vdW  Elec       q    Type
                         _______ _______ _______ _____ _____    ______ ____

>  <TORSDO>
F 0

$$$$
