=
 OpenBabel11122410523D

 32 37  0  0  1  0  0  0  0  0999 V2000
  184.4360  177.5060  137.8690 C   0  0  1  0  0  3  0  0  0  0  0  0
  189.1950  178.3340  138.5570 C   0  0  0  0  0  3  0  0  0  0  0  0
  189.4760  177.0770  138.0220 C   0  0  0  0  0  3  0  0  0  0  0  0
  183.7080  175.6370  136.2940 C   0  0  2  0  0  3  0  0  0  0  0  0
  184.1520  174.2320  136.2170 N   0  0  2  0  0  0  0  0  0  0  0  0
  182.8770  178.7040  138.9830 C   0  0  2  0  0  3  0  0  0  0  0  0
  185.2300  179.5860  138.9810 O   0  0  0  0  0  0  0  0  0  0  0  0
  186.0560  172.8130  136.6540 C   0  0  2  0  0  3  0  0  0  0  0  0
  187.9140  178.7880  138.5660 N   0  0  0  0  0  0  0  0  0  0  0  0
  185.5010  178.5980  137.9950 C   0  0  1  0  0  3  0  0  0  0  0  0
  186.8950  178.0340  138.0750 C   0  0  0  0  0  0  0  0  0  0  0  0
  186.0700  175.8740  137.0270 C   0  0  2  0  0  3  0  0  0  0  0  0
  185.2100  172.8430  137.9020 C   0  0  0  0  0  2  0  0  0  0  0  0
  184.0840  179.2930  139.7710 C   0  0  2  0  0  3  0  0  0  0  0  0
  183.9520  173.6080  137.5250 C   0  0  0  0  0  2  0  0  0  0  0  0
  188.4670  176.3250  137.5100 N   0  0  0  0  0  0  0  0  0  0  0  0
  187.1850  176.7790  137.4950 C   0  0  0  0  0  0  0  0  0  0  0  0
  186.4290  175.1160  135.9090 O   0  0  0  0  0  0  0  0  0  0  0  0
  183.2050  178.1490  137.7210 O   0  0  0  0  0  0  0  0  0  0  0  0
  183.0820  176.0520  134.9770 C   0  0  0  0  0  1  0  0  0  0  0  0
  187.4080  172.9290  136.9810 O   0  0  0  0  0  1  0  0  0  0  0  0
  184.8030  176.6330  136.6790 C   0  0  2  0  0  3  0  0  0  0  0  0
  185.5630  173.9890  135.8260 C   0  0  2  0  0  3  0  0  0  0  0  0
  185.7410  178.7960  141.4970 C   0  0  0  0  0  2  0  0  0  0  0  0
  184.4570  178.3910  140.9390 C   0  0  1  0  0  3  0  0  0  0  0  0
  184.4970  179.1890  142.1730 N   0  0  0  0  0  0  0  0  0  0  0  0
  184.3010  178.2580  143.2710 C   0  0  0  0  0  2  0  0  0  0  0  0
  183.2800  178.7960  144.2190 C   0  0  0  0  0  0  0  0  0  0  0  0
  181.8800  179.0090  143.7570 C   0  0  0  0  0  1  0  0  0  0  0  0
  183.5920  179.0760  145.3650 O   0  0  0  0  0  0  0  0  0  0  0  0
  182.4290  181.0080  138.5670 O   0  0  0  0  0  1  0  0  0  0  0  0
  181.8200  179.7770  138.8070 C   0  0  0  0  0  2  0  0  0  0  0  0
  1 19  1  6  0  0  0
  1 10  1  0  0  0  0
  2  9  1  0  0  0  0
  3  2  2  0  0  0  0
  4 20  1  6  0  0  0
  4 22  1  0  0  0  0
  5  4  1  0  0  0  0
  5 15  1  1  0  0  0
  6 32  1  6  0  0  0
  6 14  1  0  0  0  0
  8 21  1  1  0  0  0
  8 13  1  0  0  0  0
 10 11  1  1  0  0  0
 10  7  1  0  0  0  0
 11  9  2  0  0  0  0
 12 18  1  6  0  0  0
 12 17  1  0  0  0  0
 14  7  1  6  0  0  0
 14 25  1  0  0  0  0
 15 13  1  0  0  0  0
 16  3  1  0  0  0  0
 17 16  2  0  0  0  0
 17 11  1  0  0  0  0
 19  6  1  0  0  0  0
 22 12  1  0  0  0  0
 22  1  1  0  0  0  0
 23 18  1  0  0  0  0
 23  5  1  0  0  0  0
 23  8  1  0  0  0  0
 24 26  1  0  0  0  0
 25 24  1  0  0  0  0
 25 26  1  0  0  0  0
 26 27  1  0  0  0  0
 27 28  1  0  0  0  0
 28 30  2  0  0  0  0
 29 28  1  0  0  0  0
 31 32  1  0  0  0  0
M  END
>  <MODEL>
1

>  <REMARK>
 VINA RESULT:      -7.1      0.000      0.000
  Name = 
  4 active torsions:
  status: ('A' for Active; 'I' for Inactive)
    1  A    between atoms: C_7  and  C_19
    2  A    between atoms: C_10  and  C_17
    3  A    between atoms: N_20  and  C_29
    4  A    between atoms: C_29  and  C_30
                            x       y       z     vdW  Elec       q    Type
                         _______ _______ _______ _____ _____    ______ ____

>  <TORSDO>
F 4

$$$$
=
 OpenBabel11122410523D

 32 37  0  0  1  0  0  0  0  0999 V2000
  189.1090  176.6960  138.8230 C   0  0  1  0  0  3  0  0  0  0  0  0
  184.8360  179.0450  138.6610 C   0  0  0  0  0  3  0  0  0  0  0  0
  184.9380  179.2960  140.0290 C   0  0  0  0  0  3  0  0  0  0  0  0
  190.6470  177.0360  140.8280 C   0  0  2  0  0  3  0  0  0  0  0  0
  190.3520  176.9800  142.2730 N   0  0  2  0  0  0  0  0  0  0  0  0
  189.7050  175.2570  137.1850 C   0  0  2  0  0  3  0  0  0  0  0  0
  187.7860  176.8100  136.7180 O   0  0  0  0  0  0  0  0  0  0  0  0
  188.5720  177.3380  143.8650 C   0  0  2  0  0  3  0  0  0  0  0  0
  185.8630  178.4360  138.0120 N   0  0  0  0  0  0  0  0  0  0  0  0
  188.1570  177.4800  137.9170 C   0  0  1  0  0  3  0  0  0  0  0  0
  186.9870  178.0530  138.6730 C   0  0  0  0  0  0  0  0  0  0  0  0
  188.3000  177.8500  140.8360 C   0  0  2  0  0  3  0  0  0  0  0  0
  188.5280  175.8910  143.4450 C   0  0  0  0  0  2  0  0  0  0  0  0
  188.2570  175.4690  136.6540 C   0  0  2  0  0  3  0  0  0  0  0  0
  189.7580  175.6790  142.5770 C   0  0  0  0  0  2  0  0  0  0  0  0
  186.0670  178.9350  140.6940 N   0  0  0  0  0  0  0  0  0  0  0  0
  187.1090  178.3450  140.0490 C   0  0  0  0  0  0  0  0  0  0  0  0
  188.6740  178.7320  141.8540 O   0  0  0  0  0  0  0  0  0  0  0  0
  190.1850  176.2880  138.0310 O   0  0  0  0  0  0  0  0  0  0  0  0
  191.9190  177.8270  140.5940 C   0  0  0  0  0  1  0  0  0  0  0  0
  187.2830  177.8720  143.9070 O   0  0  0  0  0  1  0  0  0  0  0  0
  189.5190  177.6090  139.9670 C   0  0  2  0  0  3  0  0  0  0  0  0
  189.4400  178.0180  142.8170 C   0  0  2  0  0  3  0  0  0  0  0  0
  185.9140  174.8540  136.9740 C   0  0  0  0  0  2  0  0  0  0  0  0
  187.2840  174.5280  137.3480 C   0  0  1  0  0  3  0  0  0  0  0  0
  186.5910  173.7170  136.3360 N   0  0  0  0  0  0  0  0  0  0  0  0
  186.1300  172.5170  137.0150 C   0  0  0  0  0  2  0  0  0  0  0  0
  184.9470  171.9510  136.3020 C   0  0  0  0  0  0  0  0  0  0  0  0
  183.6410  171.8370  137.0080 C   0  0  0  0  0  1  0  0  0  0  0  0
  185.0510  171.5660  135.1490 O   0  0  0  0  0  0  0  0  0  0  0  0
  190.7280  176.2660  135.2830 O   0  0  0  0  0  1  0  0  0  0  0  0
  190.6500  175.0800  136.0120 C   0  0  0  0  0  2  0  0  0  0  0  0
  1 19  1  6  0  0  0
  1 22  1  0  0  0  0
  2  3  1  0  0  0  0
  3 16  2  0  0  0  0
  4 20  1  1  0  0  0
  4  5  1  0  0  0  0
  5 15  1  6  0  0  0
  5 23  1  0  0  0  0
  6 32  1  6  0  0  0
  6 19  1  0  0  0  0
  8 21  1  6  0  0  0
  9  2  2  0  0  0  0
  9 11  1  0  0  0  0
 10  7  1  6  0  0  0
 10 11  1  0  0  0  0
 10  1  1  0  0  0  0
 11 17  2  0  0  0  0
 12 17  1  6  0  0  0
 12 18  1  0  0  0  0
 13  8  1  0  0  0  0
 14  7  1  1  0  0  0
 14  6  1  0  0  0  0
 14 25  1  0  0  0  0
 15 13  1  0  0  0  0
 17 16  1  0  0  0  0
 18 23  1  0  0  0  0
 22  4  1  0  0  0  0
 22 12  1  0  0  0  0
 23  8  1  0  0  0  0
 24 25  1  0  0  0  0
 26 24  1  0  0  0  0
 26 27  1  0  0  0  0
 26 25  1  0  0  0  0
 28 29  1  0  0  0  0
 28 27  1  0  0  0  0
 30 28  2  0  0  0  0
 31 32  1  0  0  0  0
M  END
>  <MODEL>
2

>  <REMARK>
 VINA RESULT:      -6.7      2.922      7.534
  Name = 
  4 active torsions:
  status: ('A' for Active; 'I' for Inactive)
    1  A    between atoms: C_7  and  C_19
    2  A    between atoms: C_10  and  C_17
    3  A    between atoms: N_20  and  C_29
    4  A    between atoms: C_29  and  C_30
                            x       y       z     vdW  Elec       q    Type
                         _______ _______ _______ _____ _____    ______ ____

>  <TORSDO>
F 4

$$$$
=
 OpenBabel11122410523D

 32 37  0  0  1  0  0  0  0  0999 V2000
  190.2140  176.3910  138.8650 C   0  0  1  0  0  3  0  0  0  0  0  0
  186.0370  178.3260  137.2470 C   0  0  0  0  0  3  0  0  0  0  0  0
  185.7260  178.7080  138.5520 C   0  0  0  0  0  3  0  0  0  0  0  0
  191.0860  177.0470  141.1690 C   0  0  2  0  0  3  0  0  0  0  0  0
  190.3900  177.0970  142.4700 N   0  0  2  0  0  0  0  0  0  0  0  0
  191.3410  174.8680  137.6330 C   0  0  2  0  0  3  0  0  0  0  0  0
  189.5490  176.1950  136.4740 O   0  0  0  0  0  0  0  0  0  0  0  0
  188.2100  177.4380  143.4490 C   0  0  2  0  0  3  0  0  0  0  0  0
  187.2420  177.7540  136.9850 N   0  0  0  0  0  0  0  0  0  0  0  0
  189.5180  177.0010  137.6460 C   0  0  1  0  0  3  0  0  0  0  0  0
  188.1490  177.5340  137.9740 C   0  0  0  0  0  0  0  0  0  0  0  0
  188.7920  177.6460  140.4270 C   0  0  2  0  0  3  0  0  0  0  0  0
  188.3740  175.9600  143.1980 C   0  0  0  0  0  2  0  0  0  0  0  0
  190.0980  174.9010  136.6960 C   0  0  2  0  0  3  0  0  0  0  0  0
  189.8120  175.7810  142.7400 C   0  0  0  0  0  2  0  0  0  0  0  0
  186.6350  178.5110  139.5430 N   0  0  0  0  0  0  0  0  0  0  0  0
  187.8510  177.9600  139.2870 C   0  0  0  0  0  0  0  0  0  0  0  0
  188.8030  178.6470  141.4030 O   0  0  0  0  0  0  0  0  0  0  0  0
  191.4950  176.0100  138.4580 O   0  0  0  0  0  0  0  0  0  0  0  0
  192.3220  177.9240  141.2140 C   0  0  0  0  0  1  0  0  0  0  0  0
  186.9330  177.8560  143.0670 O   0  0  0  0  0  1  0  0  0  0  0  0
  190.2220  177.4370  139.9680 C   0  0  2  0  0  3  0  0  0  0  0  0
  189.3000  178.0940  142.6170 C   0  0  2  0  0  3  0  0  0  0  0  0
  187.7730  174.1810  136.4820 C   0  0  0  0  0  2  0  0  0  0  0  0
  189.0240  173.9440  137.1910 C   0  0  1  0  0  3  0  0  0  0  0  0
  188.6280  173.0510  136.0910 N   0  0  0  0  0  0  0  0  0  0  0  0
  188.0640  171.8630  136.7090 C   0  0  0  0  0  2  0  0  0  0  0  0
  187.6070  170.9090  135.6550 C   0  0  0  0  0  0  0  0  0  0  0  0
  186.2200  171.0040  135.1220 C   0  0  0  0  0  1  0  0  0  0  0  0
  188.3600  170.0430  135.2400 O   0  0  0  0  0  0  0  0  0  0  0  0
  193.2200  175.8970  136.5870 O   0  0  0  0  0  1  0  0  0  0  0  0
  192.5930  174.6700  136.8000 C   0  0  0  0  0  2  0  0  0  0  0  0
  1 19  1  6  0  0  0
  1 22  1  0  0  0  0
  2  3  1  0  0  0  0
  3 16  2  0  0  0  0
  4 20  1  1  0  0  0
  4  5  1  0  0  0  0
  5 23  1  0  0  0  0
  5 15  1  6  0  0  0
  6 32  1  6  0  0  0
  6 19  1  0  0  0  0
  8 21  1  6  0  0  0
  9  2  2  0  0  0  0
  9 11  1  0  0  0  0
 10  7  1  6  0  0  0
 10 11  1  0  0  0  0
 10  1  1  0  0  0  0
 11 17  2  0  0  0  0
 12 17  1  6  0  0  0
 12 18  1  0  0  0  0
 13  8  1  0  0  0  0
 14  7  1  1  0  0  0
 14 25  1  0  0  0  0
 14  6  1  0  0  0  0
 15 13  1  0  0  0  0
 17 16  1  0  0  0  0
 18 23  1  0  0  0  0
 22 12  1  0  0  0  0
 22  4  1  0  0  0  0
 23  8  1  0  0  0  0
 24 25  1  0  0  0  0
 26 24  1  0  0  0  0
 26 27  1  0  0  0  0
 26 25  1  0  0  0  0
 28 27  1  0  0  0  0
 29 28  1  0  0  0  0
 30 28  2  0  0  0  0
 31 32  1  0  0  0  0
M  END
>  <MODEL>
3

>  <REMARK>
 VINA RESULT:      -6.5      3.594      8.303
  Name = 
  4 active torsions:
  status: ('A' for Active; 'I' for Inactive)
    1  A    between atoms: C_7  and  C_19
    2  A    between atoms: C_10  and  C_17
    3  A    between atoms: N_20  and  C_29
    4  A    between atoms: C_29  and  C_30
                            x       y       z     vdW  Elec       q    Type
                         _______ _______ _______ _____ _____    ______ ____

>  <TORSDO>
F 4

$$$$
=
 OpenBabel11122410523D

 32 37  0  0  1  0  0  0  0  0999 V2000
  186.7560  177.1440  138.3120 C   0  0  1  0  0  3  0  0  0  0  0  0
  191.6020  176.8640  137.8220 C   0  0  0  0  0  3  0  0  0  0  0  0
  191.4420  175.7200  137.0390 C   0  0  0  0  0  3  0  0  0  0  0  0
  185.2600  175.8350  136.7160 C   0  0  2  0  0  3  0  0  0  0  0  0
  185.3210  174.4200  136.3020 N   0  0  2  0  0  0  0  0  0  0  0  0
  185.8260  178.3560  139.9780 C   0  0  2  0  0  3  0  0  0  0  0  0
  188.2600  178.7440  139.4850 O   0  0  0  0  0  0  0  0  0  0  0  0
  186.8720  172.5970  135.9820 C   0  0  2  0  0  3  0  0  0  0  0  0
  190.5060  177.5460  138.2460 N   0  0  0  0  0  0  0  0  0  0  0  0
  188.0540  177.9560  138.3190 C   0  0  1  0  0  3  0  0  0  0  0  0
  189.2500  177.1270  137.9330 C   0  0  0  0  0  0  0  0  0  0  0  0
  187.7120  175.4450  136.8170 C   0  0  2  0  0  3  0  0  0  0  0  0
  186.3630  172.5230  137.3990 C   0  0  0  0  0  2  0  0  0  0  0  0
  187.2860  178.5160  140.4970 C   0  0  2  0  0  3  0  0  0  0  0  0
  185.2770  173.5810  137.4990 C   0  0  0  0  0  2  0  0  0  0  0  0
  190.1920  175.3070  136.7050 N   0  0  0  0  0  0  0  0  0  0  0  0
  189.0890  175.9940  137.1050 C   0  0  0  0  0  0  0  0  0  0  0  0
  187.6140  174.8890  135.5380 O   0  0  0  0  0  0  0  0  0  0  0  0
  185.7170  178.0310  138.6030 O   0  0  0  0  0  0  0  0  0  0  0  0
  184.4730  176.6350  135.6970 C   0  0  0  0  0  1  0  0  0  0  0  0
  188.2500  172.3760  135.9480 O   0  0  0  0  0  1  0  0  0  0  0  0
  186.6220  176.4920  136.9460 C   0  0  2  0  0  3  0  0  0  0  0  0
  186.5050  173.9960  135.5120 C   0  0  2  0  0  3  0  0  0  0  0  0
  189.0910  177.4240  141.7300 C   0  0  0  0  0  2  0  0  0  0  0  0
  187.6830  177.3300  141.3640 C   0  0  1  0  0  3  0  0  0  0  0  0
  188.0590  177.8130  142.7010 N   0  0  0  0  0  0  0  0  0  0  0  0
  187.8870  176.6900  143.6070 C   0  0  0  0  0  2  0  0  0  0  0  0
  188.1390  177.1270  145.0130 C   0  0  0  0  0  0  0  0  0  0  0  0
  187.0030  177.5820  145.8620 C   0  0  0  0  0  1  0  0  0  0  0  0
  189.2730  177.1270  145.4630 O   0  0  0  0  0  0  0  0  0  0  0  0
  184.4850  180.1130  139.0860 O   0  0  0  0  0  1  0  0  0  0  0  0
  185.0490  179.6270  140.2650 C   0  0  0  0  0  2  0  0  0  0  0  0
  1 10  1  0  0  0  0
  1 19  1  6  0  0  0
  2  9  1  0  0  0  0
  3  2  2  0  0  0  0
  4 20  1  6  0  0  0
  4 22  1  0  0  0  0
  5  4  1  0  0  0  0
  5 15  1  1  0  0  0
  6 32  1  6  0  0  0
  6 14  1  0  0  0  0
  8 21  1  1  0  0  0
  8 13  1  0  0  0  0
 10 11  1  1  0  0  0
 10  7  1  0  0  0  0
 11  9  2  0  0  0  0
 12 18  1  6  0  0  0
 12 22  1  0  0  0  0
 12 17  1  0  0  0  0
 13 15  1  0  0  0  0
 14  7  1  6  0  0  0
 14 25  1  0  0  0  0
 16  3  1  0  0  0  0
 16 17  2  0  0  0  0
 17 11  1  0  0  0  0
 19  6  1  0  0  0  0
 22  1  1  0  0  0  0
 23 18  1  0  0  0  0
 23  8  1  0  0  0  0
 23  5  1  0  0  0  0
 24 26  1  0  0  0  0
 25 24  1  0  0  0  0
 25 26  1  0  0  0  0
 26 27  1  0  0  0  0
 27 28  1  0  0  0  0
 28 30  2  0  0  0  0
 28 29  1  0  0  0  0
 31 32  1  0  0  0  0
M  END
>  <MODEL>
4

>  <REMARK>
 VINA RESULT:      -5.7      2.388      2.965
  Name = 
  4 active torsions:
  status: ('A' for Active; 'I' for Inactive)
    1  A    between atoms: C_7  and  C_19
    2  A    between atoms: C_10  and  C_17
    3  A    between atoms: N_20  and  C_29
    4  A    between atoms: C_29  and  C_30
                            x       y       z     vdW  Elec       q    Type
                         _______ _______ _______ _____ _____    ______ ____

>  <TORSDO>
F 4

$$$$
=
 OpenBabel11122410523D

 32 37  0  0  1  0  0  0  0  0999 V2000
  185.9880  176.9970  137.6600 C   0  0  1  0  0  3  0  0  0  0  0  0
  190.2160  177.0600  135.2260 C   0  0  0  0  0  3  0  0  0  0  0  0
  189.8530  175.8690  134.5950 C   0  0  0  0  0  3  0  0  0  0  0  0
  184.0940  175.5000  136.8380 C   0  0  2  0  0  3  0  0  0  0  0  0
  184.1080  174.0740  136.4560 N   0  0  2  0  0  0  0  0  0  0  0  0
  185.7140  178.2170  139.5430 C   0  0  2  0  0  3  0  0  0  0  0  0
  187.6900  178.7620  138.0880 O   0  0  0  0  0  0  0  0  0  0  0  0
  185.5490  172.3600  135.5540 C   0  0  2  0  0  3  0  0  0  0  0  0
  189.3320  177.6770  136.0530 N   0  0  0  0  0  0  0  0  0  0  0  0
  187.0970  177.9030  137.1210 C   0  0  1  0  0  3  0  0  0  0  0  0
  188.1010  177.1500  136.2900 C   0  0  0  0  0  0  0  0  0  0  0  0
  186.3980  175.3020  135.9290 C   0  0  2  0  0  3  0  0  0  0  0  0
  185.6720  172.3190  137.0560 C   0  0  0  0  0  2  0  0  0  0  0  0
  187.2380  178.5130  139.4140 C   0  0  2  0  0  3  0  0  0  0  0  0
  184.6310  173.2950  137.5780 C   0  0  0  0  0  2  0  0  0  0  0  0
  188.6180  175.3460  134.8100 N   0  0  0  0  0  0  0  0  0  0  0  0
  187.7180  175.9680  135.6180 C   0  0  0  0  0  0  0  0  0  0  0  0
  185.8370  174.6770  134.8110 O   0  0  0  0  0  0  0  0  0  0  0  0
  185.0830  177.8160  138.3390 O   0  0  0  0  0  0  0  0  0  0  0  0
  182.8920  176.1860  136.2210 C   0  0  0  0  0  1  0  0  0  0  0  0
  186.8080  172.2420  134.9610 O   0  0  0  0  0  1  0  0  0  0  0  0
  185.3670  176.2690  136.4790 C   0  0  2  0  0  3  0  0  0  0  0  0
  184.9000  173.7030  135.2570 C   0  0  2  0  0  3  0  0  0  0  0  0
  189.4790  177.7210  139.9820 C   0  0  0  0  0  2  0  0  0  0  0  0
  188.0590  177.4050  140.0580 C   0  0  1  0  0  3  0  0  0  0  0  0
  188.7510  177.9410  141.2390 N   0  0  0  0  0  0  0  0  0  0  0  0
  189.0410  176.8050  142.0980 C   0  0  0  0  0  2  0  0  0  0  0  0
  190.1520  177.1450  143.0360 C   0  0  0  0  0  0  0  0  0  0  0  0
  189.9420  178.1750  144.0900 C   0  0  0  0  0  1  0  0  0  0  0  0
  191.2350  176.5930  142.9310 O   0  0  0  0  0  0  0  0  0  0  0  0
  184.2990  180.0820  139.0930 O   0  0  0  0  0  1  0  0  0  0  0  0
  185.0110  179.4380  140.1040 C   0  0  0  0  0  2  0  0  0  0  0  0
  1 19  1  6  0  0  0
  2  9  1  0  0  0  0
  3 16  1  0  0  0  0
  3  2  2  0  0  0  0
  4 20  1  6  0  0  0
  5  4  1  0  0  0  0
  5 15  1  1  0  0  0
  6 32  1  6  0  0  0
  8 21  1  6  0  0  0
  8 13  1  0  0  0  0
  9 11  2  0  0  0  0
 10 11  1  1  0  0  0
 10  1  1  0  0  0  0
 10  7  1  0  0  0  0
 12 18  1  6  0  0  0
 12 22  1  0  0  0  0
 13 15  1  0  0  0  0
 14  7  1  6  0  0  0
 14  6  1  0  0  0  0
 14 25  1  0  0  0  0
 16 17  2  0  0  0  0
 17 12  1  0  0  0  0
 17 11  1  0  0  0  0
 18 23  1  0  0  0  0
 19  6  1  0  0  0  0
 22  4  1  0  0  0  0
 22  1  1  0  0  0  0
 23  8  1  0  0  0  0
 23  5  1  0  0  0  0
 24 25  1  0  0  0  0
 24 26  1  0  0  0  0
 25 26  1  0  0  0  0
 26 27  1  0  0  0  0
 27 28  1  0  0  0  0
 28 29  1  0  0  0  0
 30 28  2  0  0  0  0
 31 32  1  0  0  0  0
M  END
>  <MODEL>
5

>  <REMARK>
 VINA RESULT:      -5.4      2.586      3.492
  Name = 
  4 active torsions:
  status: ('A' for Active; 'I' for Inactive)
    1  A    between atoms: C_7  and  C_19
    2  A    between atoms: C_10  and  C_17
    3  A    between atoms: N_20  and  C_29
    4  A    between atoms: C_29  and  C_30
                            x       y       z     vdW  Elec       q    Type
                         _______ _______ _______ _____ _____    ______ ____

>  <TORSDO>
F 4

$$$$
=
 OpenBabel11122410523D

 32 37  0  0  1  0  0  0  0  0999 V2000
  183.6110  178.3630  140.5660 C   0  0  1  0  0  3  0  0  0  0  0  0
  187.0100  178.5790  137.0730 C   0  0  0  0  0  3  0  0  0  0  0  0
  186.2260  177.7430  136.2780 C   0  0  0  0  0  3  0  0  0  0  0  0
  181.2680  177.5450  139.9820 C   0  0  2  0  0  3  0  0  0  0  0  0
  180.8390  176.3480  139.2330 N   0  0  2  0  0  0  0  0  0  0  0  0
  184.1070  178.9050  142.7030 C   0  0  2  0  0  3  0  0  0  0  0  0
  185.7460  179.5920  140.9260 O   0  0  0  0  0  0  0  0  0  0  0  0
  181.5540  174.8340  137.4940 C   0  0  2  0  0  3  0  0  0  0  0  0
  186.5310  179.0120  138.2680 N   0  0  0  0  0  0  0  0  0  0  0  0
  184.7450  179.2130  139.9880 C   0  0  1  0  0  3  0  0  0  0  0  0
  185.3020  178.6350  138.7140 C   0  0  0  0  0  0  0  0  0  0  0  0
  183.1630  177.3070  138.3930 C   0  0  2  0  0  3  0  0  0  0  0  0
  182.0210  174.2720  138.8120 C   0  0  0  0  0  2  0  0  0  0  0  0
  185.5800  178.9850  142.2020 C   0  0  2  0  0  3  0  0  0  0  0  0
  181.4090  175.1660  139.8780 C   0  0  0  0  0  2  0  0  0  0  0  0
  184.9890  177.3780  136.7070 N   0  0  0  0  0  0  0  0  0  0  0  0
  184.4910  177.8240  137.8910 C   0  0  0  0  0  0  0  0  0  0  0  0
  182.2140  177.1900  137.3730 O   0  0  0  0  0  0  0  0  0  0  0  0
  183.1260  179.0370  141.6900 O   0  0  0  0  0  0  0  0  0  0  0  0
  180.1580  178.5780  139.9790 C   0  0  0  0  0  1  0  0  0  0  0  0
  182.5640  174.7280  136.5350 O   0  0  0  0  0  1  0  0  0  0  0  0
  182.5650  178.1820  139.4780 C   0  0  2  0  0  3  0  0  0  0  0  0
  181.2020  176.2820  137.7950 C   0  0  2  0  0  3  0  0  0  0  0  0
  187.4810  177.6330  141.4750 C   0  0  0  0  0  2  0  0  0  0  0  0
  186.2340  177.6110  142.2290 C   0  0  1  0  0  3  0  0  0  0  0  0
  187.5160  177.7010  142.9430 N   0  0  0  0  0  0  0  0  0  0  0  0
  187.8160  176.3610  143.4190 C   0  0  0  0  0  2  0  0  0  0  0  0
  189.2920  176.1890  143.5620 C   0  0  0  0  0  0  0  0  0  0  0  0
  190.0360  176.9850  144.5770 C   0  0  0  0  0  1  0  0  0  0  0  0
  189.8930  175.4120  142.8390 O   0  0  0  0  0  0  0  0  0  0  0  0
  183.8870  179.3670  145.0320 O   0  0  0  0  0  1  0  0  0  0  0  0
  183.8820  179.9600  143.7700 C   0  0  0  0  0  2  0  0  0  0  0  0
  1 19  1  1  0  0  0
  2  9  1  0  0  0  0
  3 16  1  0  0  0  0
  3  2  2  0  0  0  0
  4 20  1  6  0  0  0
  5 15  1  1  0  0  0
  5  4  1  0  0  0  0
  6 32  1  1  0  0  0
  8 21  1  6  0  0  0
  8 23  1  0  0  0  0
  8 13  1  0  0  0  0
  9 11  2  0  0  0  0
 10 11  1  6  0  0  0
 10  1  1  0  0  0  0
 10  7  1  0  0  0  0
 12 18  1  6  0  0  0
 12 22  1  0  0  0  0
 13 15  1  0  0  0  0
 14  7  1  6  0  0  0
 14 25  1  0  0  0  0
 14  6  1  0  0  0  0
 16 17  2  0  0  0  0
 17 12  1  0  0  0  0
 17 11  1  0  0  0  0
 18 23  1  0  0  0  0
 19  6  1  0  0  0  0
 22  4  1  0  0  0  0
 22  1  1  0  0  0  0
 23  5  1  0  0  0  0
 24 25  1  0  0  0  0
 24 26  1  0  0  0  0
 25 26  1  0  0  0  0
 26 27  1  0  0  0  0
 27 28  1  0  0  0  0
 28 29  1  0  0  0  0
 30 28  2  0  0  0  0
 32 31  1  0  0  0  0
M  END
>  <MODEL>
6

>  <REMARK>
 VINA RESULT:      -5.0      2.863      4.476
  Name = 
  4 active torsions:
  status: ('A' for Active; 'I' for Inactive)
    1  A    between atoms: C_7  and  C_19
    2  A    between atoms: C_10  and  C_17
    3  A    between atoms: N_20  and  C_29
    4  A    between atoms: C_29  and  C_30
                            x       y       z     vdW  Elec       q    Type
                         _______ _______ _______ _____ _____    ______ ____

>  <TORSDO>
F 4

$$$$
=
 OpenBabel11122410523D

 32 37  0  0  1  0  0  0  0  0999 V2000
  184.7000  177.7160  139.5120 C   0  0  1  0  0  3  0  0  0  0  0  0
  188.9920  178.6940  137.4070 C   0  0  0  0  0  3  0  0  0  0  0  0
  188.7260  177.7180  136.4460 C   0  0  0  0  0  3  0  0  0  0  0  0
  182.9340  176.4210  138.2070 C   0  0  2  0  0  3  0  0  0  0  0  0
  183.0510  175.1670  137.4370 N   0  0  2  0  0  0  0  0  0  0  0  0
  184.2890  178.3290  141.6480 C   0  0  2  0  0  3  0  0  0  0  0  0
  186.2720  179.3700  140.5070 O   0  0  0  0  0  0  0  0  0  0  0  0
  184.6270  173.8620  136.1560 C   0  0  2  0  0  3  0  0  0  0  0  0
  188.0440  179.0010  138.3310 N   0  0  0  0  0  0  0  0  0  0  0  0
  185.7660  178.7950  139.3080 C   0  0  1  0  0  3  0  0  0  0  0  0
  186.8420  178.3650  138.3470 C   0  0  0  0  0  0  0  0  0  0  0  0
  185.2730  176.6120  137.3930 C   0  0  2  0  0  3  0  0  0  0  0  0
  184.7040  173.3980  137.5880 C   0  0  0  0  0  2  0  0  0  0  0  0
  185.7950  178.7280  141.6840 C   0  0  2  0  0  3  0  0  0  0  0  0
  183.5860  174.1280  138.3150 C   0  0  0  0  0  2  0  0  0  0  0  0
  187.5210  177.0920  136.4430 N   0  0  0  0  0  0  0  0  0  0  0  0
  186.5570  177.4070  137.3490 C   0  0  0  0  0  0  0  0  0  0  0  0
  184.7900  176.3060  136.1170 O   0  0  0  0  0  0  0  0  0  0  0  0
  183.7240  178.2580  140.3510 O   0  0  0  0  0  0  0  0  0  0  0  0
  181.7100  177.1910  137.7530 C   0  0  0  0  0  1  0  0  0  0  0  0
  185.9090  173.9850  135.6160 O   0  0  0  0  0  1  0  0  0  0  0  0
  184.1650  177.3260  138.1440 C   0  0  2  0  0  3  0  0  0  0  0  0
  183.9030  175.1970  136.2210 C   0  0  2  0  0  3  0  0  0  0  0  0
  188.0640  177.8260  141.7590 C   0  0  0  0  0  2  0  0  0  0  0  0
  186.6630  177.5260  142.0260 C   0  0  1  0  0  3  0  0  0  0  0  0
  187.5590  177.8780  143.1380 N   0  0  0  0  0  0  0  0  0  0  0  0
  187.9370  176.6280  143.7730 C   0  0  0  0  0  2  0  0  0  0  0  0
  188.8740  176.8940  144.9050 C   0  0  0  0  0  0  0  0  0  0  0  0
  190.3450  176.8380  144.6780 C   0  0  0  0  0  1  0  0  0  0  0  0
  188.4390  177.1420  146.0180 O   0  0  0  0  0  0  0  0  0  0  0  0
  184.1520  179.5230  143.7070 O   0  0  0  0  0  1  0  0  0  0  0  0
  183.4920  179.2990  142.4990 C   0  0  0  0  0  2  0  0  0  0  0  0
  1 19  1  1  0  0  0
  2  9  1  0  0  0  0
  3  2  2  0  0  0  0
  4 20  1  6  0  0  0
  5  4  1  0  0  0  0
  5 15  1  1  0  0  0
  6 14  1  0  0  0  0
  6 32  1  1  0  0  0
  8 21  1  1  0  0  0
  8 23  1  0  0  0  0
  8 13  1  0  0  0  0
  9 11  2  0  0  0  0
 10 11  1  1  0  0  0
 10  1  1  0  0  0  0
 10  7  1  0  0  0  0
 12 18  1  6  0  0  0
 12 22  1  0  0  0  0
 13 15  1  0  0  0  0
 14  7  1  6  0  0  0
 14 25  1  0  0  0  0
 16  3  1  0  0  0  0
 16 17  2  0  0  0  0
 17 12  1  0  0  0  0
 17 11  1  0  0  0  0
 18 23  1  0  0  0  0
 19  6  1  0  0  0  0
 22  4  1  0  0  0  0
 22  1  1  0  0  0  0
 23  5  1  0  0  0  0
 24 25  1  0  0  0  0
 24 26  1  0  0  0  0
 25 26  1  0  0  0  0
 26 27  1  0  0  0  0
 27 28  1  0  0  0  0
 28 30  2  0  0  0  0
 29 28  1  0  0  0  0
 32 31  1  0  0  0  0
M  END
>  <MODEL>
7

>  <REMARK>
 VINA RESULT:      -5.0      2.333      3.125
  Name = 
  4 active torsions:
  status: ('A' for Active; 'I' for Inactive)
    1  A    between atoms: C_7  and  C_19
    2  A    between atoms: C_10  and  C_17
    3  A    between atoms: N_20  and  C_29
    4  A    between atoms: C_29  and  C_30
                            x       y       z     vdW  Elec       q    Type
                         _______ _______ _______ _____ _____    ______ ____

>  <TORSDO>
F 4

$$$$
=
 OpenBabel11122410523D

 32 37  0  0  1  0  0  0  0  0999 V2000
  181.9990  177.5510  137.8670 C   0  0  1  0  0  3  0  0  0  0  0  0
  185.8910  174.7510  136.9640 C   0  0  0  0  0  3  0  0  0  0  0  0
  185.0510  173.6410  136.8630 C   0  0  0  0  0  3  0  0  0  0  0  0
  179.6710  176.6720  137.3130 C   0  0  2  0  0  3  0  0  0  0  0  0
  179.0430  175.3760  137.6360 N   0  0  2  0  0  0  0  0  0  0  0  0
  182.2290  179.5800  138.8360 C   0  0  2  0  0  3  0  0  0  0  0  0
  184.3010  178.4980  137.9130 O   0  0  0  0  0  0  0  0  0  0  0  0
  179.5730  173.0560  138.0490 C   0  0  2  0  0  3  0  0  0  0  0  0
  185.3530  175.9860  137.1380 N   0  0  0  0  0  0  0  0  0  0  0  0
  183.4260  177.5490  137.3140 C   0  0  1  0  0  3  0  0  0  0  0  0
  184.0080  176.1630  137.2300 C   0  0  0  0  0  0  0  0  0  0  0  0
  181.6640  175.1890  137.2790 C   0  0  2  0  0  3  0  0  0  0  0  0
  179.5900  173.7730  139.3740 C   0  0  0  0  0  2  0  0  0  0  0  0
  183.7220  179.1750  139.0220 C   0  0  2  0  0  3  0  0  0  0  0  0
  179.0930  175.1800  139.0840 C   0  0  0  0  0  2  0  0  0  0  0  0
  183.7050  173.8110  136.9340 N   0  0  0  0  0  0  0  0  0  0  0  0
  183.1550  175.0460  137.0860 C   0  0  0  0  0  0  0  0  0  0  0  0
  180.9330  174.3270  136.4560 O   0  0  0  0  0  0  0  0  0  0  0  0
  181.5430  178.8700  137.8200 O   0  0  0  0  0  0  0  0  0  0  0  0
  178.9520  177.3140  136.1430 C   0  0  0  0  0  1  0  0  0  0  0  0
  180.6620  172.1870  137.9520 O   0  0  0  0  0  1  0  0  0  0  0  0
  181.1700  176.5990  137.0200 C   0  0  2  0  0  3  0  0  0  0  0  0
  179.6310  174.1650  137.0090 C   0  0  2  0  0  3  0  0  0  0  0  0
  185.2950  178.4290  140.7360 C   0  0  0  0  0  2  0  0  0  0  0  0
  183.9060  178.3660  140.2970 C   0  0  1  0  0  3  0  0  0  0  0  0
  184.2850  179.2710  141.3930 N   0  0  0  0  0  0  0  0  0  0  0  0
  183.9140  178.6000  142.6270 C   0  0  0  0  0  2  0  0  0  0  0  0
  184.7550  179.1050  143.7540 C   0  0  0  0  0  0  0  0  0  0  0  0
  185.7160  178.1900  144.4290 C   0  0  0  0  0  1  0  0  0  0  0  0
  184.6450  180.2590  144.1330 O   0  0  0  0  0  0  0  0  0  0  0  0
  181.2940  181.3060  137.4840 O   0  0  0  0  0  1  0  0  0  0  0  0
  182.1430  181.0690  138.5650 C   0  0  0  0  0  2  0  0  0  0  0  0
  1 19  1  6  0  0  0
  2  9  1  0  0  0  0
  3 16  1  0  0  0  0
  3  2  2  0  0  0  0
  4 20  1  6  0  0  0
  4  5  1  0  0  0  0
  5 15  1  1  0  0  0
  6 32  1  6  0  0  0
  6 14  1  0  0  0  0
  8 21  1  1  0  0  0
  8 13  1  0  0  0  0
  9 11  2  0  0  0  0
 10 11  1  1  0  0  0
 10  1  1  0  0  0  0
 10  7  1  0  0  0  0
 12 18  1  6  0  0  0
 14  7  1  6  0  0  0
 14 25  1  0  0  0  0
 15 13  1  0  0  0  0
 16 17  2  0  0  0  0
 17 11  1  0  0  0  0
 17 12  1  0  0  0  0
 18 23  1  0  0  0  0
 19  6  1  0  0  0  0
 22 12  1  0  0  0  0
 22  4  1  0  0  0  0
 22  1  1  0  0  0  0
 23  5  1  0  0  0  0
 23  8  1  0  0  0  0
 24 26  1  0  0  0  0
 25 24  1  0  0  0  0
 25 26  1  0  0  0  0
 26 27  1  0  0  0  0
 27 28  1  0  0  0  0
 28 30  2  0  0  0  0
 28 29  1  0  0  0  0
 31 32  1  0  0  0  0
M  END
>  <MODEL>
8

>  <REMARK>
 VINA RESULT:      -4.9      2.895      3.991
  Name = 
  4 active torsions:
  status: ('A' for Active; 'I' for Inactive)
    1  A    between atoms: C_7  and  C_19
    2  A    between atoms: C_10  and  C_17
    3  A    between atoms: N_20  and  C_29
    4  A    between atoms: C_29  and  C_30
                            x       y       z     vdW  Elec       q    Type
                         _______ _______ _______ _____ _____    ______ ____

>  <TORSDO>
F 4

$$$$
=
 OpenBabel11122410523D

 32 37  0  0  1  0  0  0  0  0999 V2000
  187.7980  176.1820  136.1780 C   0  0  1  0  0  3  0  0  0  0  0  0
  191.1130  172.8430  134.8850 C   0  0  0  0  0  3  0  0  0  0  0  0
  190.0910  171.9030  134.7470 C   0  0  0  0  0  3  0  0  0  0  0  0
  185.3340  175.7560  135.6790 C   0  0  2  0  0  3  0  0  0  0  0  0
  184.5040  174.5630  135.9390 N   0  0  2  0  0  0  0  0  0  0  0  0
  188.4090  178.0590  137.2780 C   0  0  2  0  0  3  0  0  0  0  0  0
  190.2280  176.7180  136.1770 O   0  0  0  0  0  0  0  0  0  0  0  0
  184.6410  172.1620  136.1570 C   0  0  2  0  0  3  0  0  0  0  0  0
  190.8020  174.1340  135.1740 N   0  0  0  0  0  0  0  0  0  0  0  0
  189.1820  175.9820  135.5560 C   0  0  1  0  0  3  0  0  0  0  0  0
  189.5120  174.5280  135.3450 C   0  0  0  0  0  0  0  0  0  0  0  0
  187.0390  173.9640  135.4400 C   0  0  2  0  0  3  0  0  0  0  0  0
  184.8300  172.7590  137.5290 C   0  0  0  0  0  2  0  0  0  0  0  0
  189.8160  177.3940  137.3600 C   0  0  2  0  0  3  0  0  0  0  0  0
  184.5730  174.2480  137.3650 C   0  0  0  0  0  2  0  0  0  0  0  0
  188.7980  172.2930  134.8960 N   0  0  0  0  0  0  0  0  0  0  0  0
  188.4750  173.5860  135.1640 C   0  0  0  0  0  0  0  0  0  0  0  0
  186.1400  173.3070  134.5940 O   0  0  0  0  0  0  0  0  0  0  0  0
  187.5750  177.5590  136.2480 O   0  0  0  0  0  0  0  0  0  0  0  0
  184.6940  176.6010  134.5950 C   0  0  0  0  0  1  0  0  0  0  0  0
  185.5600  171.1320  135.9450 O   0  0  0  0  0  1  0  0  0  0  0  0
  186.7870  175.4540  135.3070 C   0  0  2  0  0  3  0  0  0  0  0  0
  184.8510  173.3230  135.1980 C   0  0  2  0  0  3  0  0  0  0  0  0
  191.2940  176.1160  138.8260 C   0  0  0  0  0  2  0  0  0  0  0  0
  189.9050  176.4670  138.5630 C   0  0  1  0  0  3  0  0  0  0  0  0
  190.6370  177.1460  139.6430 N   0  0  0  0  0  0  0  0  0  0  0  0
  190.2300  176.5060  140.8820 C   0  0  0  0  0  2  0  0  0  0  0  0
  190.9880  177.0880  142.0290 C   0  0  0  0  0  0  0  0  0  0  0  0
  190.5270  176.8400  143.4230 C   0  0  0  0  0  1  0  0  0  0  0  0
  191.9730  177.7790  141.8270 O   0  0  0  0  0  0  0  0  0  0  0  0
  187.4230  180.1010  136.5430 O   0  0  0  0  0  1  0  0  0  0  0  0
  188.5710  179.5580  137.1180 C   0  0  0  0  0  2  0  0  0  0  0  0
  1 19  1  6  0  0  0
  2  9  1  0  0  0  0
  3  2  2  0  0  0  0
  3 16  1  0  0  0  0
  4 20  1  6  0  0  0
  4  5  1  0  0  0  0
  5 15  1  1  0  0  0
  6 32  1  6  0  0  0
  6 14  1  0  0  0  0
  8 21  1  6  0  0  0
  8 13  1  0  0  0  0
  9 11  2  0  0  0  0
 10 11  1  1  0  0  0
 10  7  1  0  0  0  0
 10  1  1  0  0  0  0
 12 18  1  6  0  0  0
 14  7  1  6  0  0  0
 14 25  1  0  0  0  0
 15 13  1  0  0  0  0
 16 17  2  0  0  0  0
 17 11  1  0  0  0  0
 17 12  1  0  0  0  0
 18 23  1  0  0  0  0
 19  6  1  0  0  0  0
 22 12  1  0  0  0  0
 22  4  1  0  0  0  0
 22  1  1  0  0  0  0
 23  5  1  0  0  0  0
 23  8  1  0  0  0  0
 24 26  1  0  0  0  0
 25 24  1  0  0  0  0
 25 26  1  0  0  0  0
 26 27  1  0  0  0  0
 27 28  1  0  0  0  0
 28 29  1  0  0  0  0
 30 28  2  0  0  0  0
 31 32  1  0  0  0  0
M  END
>  <MODEL>
9

>  <REMARK>
 VINA RESULT:      -4.9      4.264      5.302
  Name = 
  4 active torsions:
  status: ('A' for Active; 'I' for Inactive)
    1  A    between atoms: C_7  and  C_19
    2  A    between atoms: C_10  and  C_17
    3  A    between atoms: N_20  and  C_29
    4  A    between atoms: C_29  and  C_30
                            x       y       z     vdW  Elec       q    Type
                         _______ _______ _______ _____ _____    ______ ____

>  <TORSDO>
F 4

$$$$
