=
 OpenBabel11122410273D

 30 35  0  0  1  0  0  0  0  0999 V2000
  186.2830  178.4160  141.6120 C   0  0  0  0  0  0  0  0  0  0  0  0
  183.8270  178.9230  141.3200 C   0  0  0  0  0  0  0  0  0  0  0  0
  185.8150  178.0760  145.6860 N   0  0  0  0  0  2  0  0  0  0  0  0
  187.3730  178.0740  142.4720 C   0  0  0  0  0  0  0  0  0  0  0  0
  186.5260  178.5410  140.2830 N   0  0  0  0  0  0  0  0  0  0  0  0
  189.9230  177.6510  140.0520 O   0  0  0  0  0  0  0  0  0  0  0  0
  190.2020  178.0870  143.7450 C   0  0  1  0  0  3  0  0  0  0  0  0
  188.7940  177.9010  140.5630 C   0  0  0  0  0  0  0  0  0  0  0  0
  189.4050  178.0930  145.0370 C   0  0  2  0  0  3  0  0  0  0  0  0
  187.1200  177.9190  145.9940 C   0  0  0  0  0  0  0  0  0  0  0  0
  187.7440  178.3180  139.7420 C   0  0  0  0  0  0  0  0  0  0  0  0
  188.5890  177.7510  141.9100 N   0  0  0  0  0  0  0  0  0  0  0  0
  182.5660  179.0630  141.9040 C   0  0  0  0  0  3  0  0  0  0  0  0
  190.0720  177.0700  145.9330 C   0  0  0  0  0  2  0  0  0  0  0  0
  191.6090  177.6660  144.1410 C   0  0  0  0  0  2  0  0  0  0  0  0
  183.8730  179.1770  139.5770 Cl  0  0  0  0  0  0  0  0  0  0  0  0
  185.8350  178.1540  144.3450 C   0  0  0  0  0  0  0  0  0  0  0  0
  182.3850  178.8950  143.2740 C   0  0  0  0  0  3  0  0  0  0  0  0
  184.9590  178.5980  142.1290 C   0  0  0  0  0  0  0  0  0  0  0  0
  187.1120  178.0220  143.8620 C   0  0  0  0  0  0  0  0  0  0  0  0
  187.5230  177.8690  147.1860 O   0  0  0  0  0  0  0  0  0  0  0  0
  187.9530  177.8790  144.9210 N   0  0  0  0  0  0  0  0  0  0  0  0
  191.5380  177.1240  145.5610 C   0  0  0  0  0  2  0  0  0  0  0  0
  189.3250  175.7270  143.1400 C   0  0  0  0  0  1  0  0  0  0  0  0
  183.4720  178.5850  144.0830 C   0  0  0  0  0  3  0  0  0  0  0  0
  184.7470  178.4330  143.5260 C   0  0  0  0  0  0  0  0  0  0  0  0
  189.6720  177.1420  142.6780 C   0  0  2  0  0  3  0  0  0  0  0  0
  187.9350  178.5110  138.2740 C   0  0  0  0  0  2  0  0  0  0  0  0
  186.4410  177.4860  136.8120 C   0  0  0  0  0  1  0  0  0  0  0  0
  186.6430  178.6670  137.6290 N   0  0  0  0  0  2  0  0  0  0  0  0
  1 19  2  0  0  0  0
  1  4  1  0  0  0  0
  2 13  2  0  0  0  0
  2 19  1  0  0  0  0
  3 10  1  0  0  0  0
  4 20  2  0  0  0  0
  5  1  1  0  0  0  0
  6  8  2  0  0  0  0
  7 15  1  1  0  0  0
  7  9  1  0  0  0  0
  8 12  1  0  0  0  0
  9 14  1  1  0  0  0
 10 21  2  0  0  0  0
 11  5  2  0  0  0  0
 11  8  1  0  0  0  0
 12  4  1  0  0  0  0
 12 27  1  0  0  0  0
 13 18  1  0  0  0  0
 15 23  1  0  0  0  0
 16  2  1  0  0  0  0
 17  3  1  0  0  0  0
 18 25  2  0  0  0  0
 19 26  1  0  0  0  0
 20 17  1  0  0  0  0
 20 22  1  0  0  0  0
 22  9  1  0  0  0  0
 22 10  1  0  0  0  0
 23 14  1  0  0  0  0
 26 25  1  0  0  0  0
 26 17  2  0  0  0  0
 27 24  1  1  0  0  0
 27  7  1  0  0  0  0
 28 11  1  0  0  0  0
 29 30  1  0  0  0  0
 30 28  1  0  0  0  0
M  END
>  <MODEL>
1

>  <REMARK>
 VINA RESULT:     -10.5      0.000      0.000
  Name = 
  2 active torsions:
  status: ('A' for Active; 'I' for Inactive)
    1  A    between atoms: C_11  and  C_28
    2  A    between atoms: C_28  and  N_30
                            x       y       z     vdW  Elec       q    Type
                         _______ _______ _______ _____ _____    ______ ____

>  <TORSDO>
F 2

$$$$
=
 OpenBabel11122410273D

 30 35  0  0  1  0  0  0  0  0999 V2000
  188.8860  177.4750  143.4130 C   0  0  0  0  0  0  0  0  0  0  0  0
  190.9850  176.7820  144.6330 C   0  0  0  0  0  0  0  0  0  0  0  0
  186.8430  177.8510  146.9660 N   0  0  0  0  0  2  0  0  0  0  0  0
  187.5250  177.9120  143.4600 C   0  0  0  0  0  0  0  0  0  0  0  0
  189.4790  177.3450  142.2000 N   0  0  0  0  0  0  0  0  0  0  0  0
  186.9690  178.4810  140.0100 O   0  0  0  0  0  0  0  0  0  0  0  0
  184.5050  178.1320  142.7870 C   0  0  1  0  0  3  0  0  0  0  0  0
  187.5470  178.1570  141.0870 C   0  0  0  0  0  0  0  0  0  0  0  0
  184.3670  178.0890  144.2970 C   0  0  2  0  0  3  0  0  0  0  0  0
  185.6290  178.1090  146.4370 C   0  0  0  0  0  0  0  0  0  0  0  0
  188.8470  177.6490  141.0450 C   0  0  0  0  0  0  0  0  0  0  0  0
  186.9140  178.3150  142.2920 N   0  0  0  0  0  0  0  0  0  0  0  0
  191.6310  176.5590  145.8520 C   0  0  0  0  0  3  0  0  0  0  0  0
  183.3700  179.1750  144.6470 C   0  0  0  0  0  2  0  0  0  0  0  0
  183.1750  178.6630  142.2750 C   0  0  0  0  0  2  0  0  0  0  0  0
  191.9730  176.5020  143.2030 Cl  0  0  0  0  0  0  0  0  0  0  0  0
  187.6250  177.7510  145.8770 C   0  0  0  0  0  0  0  0  0  0  0  0
  190.9670  176.7370  147.0610 C   0  0  0  0  0  3  0  0  0  0  0  0
  189.6200  177.2040  144.6130 C   0  0  0  0  0  0  0  0  0  0  0  0
  186.9040  177.9690  144.7300 C   0  0  0  0  0  0  0  0  0  0  0  0
  184.5960  178.2100  147.1510 O   0  0  0  0  0  0  0  0  0  0  0  0
  185.6090  178.1920  145.0800 N   0  0  0  0  0  0  0  0  0  0  0  0
  182.4190  179.2230  143.4700 C   0  0  0  0  0  2  0  0  0  0  0  0
  185.7320  180.4090  142.8980 C   0  0  0  0  0  1  0  0  0  0  0  0
  189.6370  177.1410  147.0680 C   0  0  0  0  0  3  0  0  0  0  0  0
  188.9640  177.3770  145.8640 C   0  0  0  0  0  0  0  0  0  0  0  0
  185.6330  179.0160  142.2780 C   0  0  2  0  0  3  0  0  0  0  0  0
  189.5600  177.4440  139.7490 C   0  0  0  0  0  2  0  0  0  0  0  0
  191.2900  176.3240  138.6660 C   0  0  0  0  0  1  0  0  0  0  0  0
  190.4790  176.3260  139.8680 N   0  0  0  0  0  2  0  0  0  0  0  0
  1  4  2  0  0  0  0
  1 19  1  0  0  0  0
  2 13  1  0  0  0  0
  4 20  1  0  0  0  0
  5  1  1  0  0  0  0
  6  8  2  0  0  0  0
  7 15  1  6  0  0  0
  7  9  1  0  0  0  0
  8 12  1  0  0  0  0
  9 14  1  1  0  0  0
  9 22  1  0  0  0  0
 10  3  1  0  0  0  0
 10 21  2  0  0  0  0
 11  8  1  0  0  0  0
 11  5  2  0  0  0  0
 12  4  1  0  0  0  0
 13 18  2  0  0  0  0
 15 23  1  0  0  0  0
 16  2  1  0  0  0  0
 17  3  1  0  0  0  0
 18 25  1  0  0  0  0
 19  2  2  0  0  0  0
 19 26  1  0  0  0  0
 20 22  1  0  0  0  0
 20 17  2  0  0  0  0
 22 10  1  0  0  0  0
 23 14  1  0  0  0  0
 26 17  1  0  0  0  0
 26 25  2  0  0  0  0
 27 12  1  0  0  0  0
 27  7  1  0  0  0  0
 27 24  1  1  0  0  0
 28 30  1  0  0  0  0
 28 11  1  0  0  0  0
 29 30  1  0  0  0  0
M  END
>  <MODEL>
2

>  <REMARK>
 VINA RESULT:     -10.1      2.467      5.521
  Name = 
  2 active torsions:
  status: ('A' for Active; 'I' for Inactive)
    1  A    between atoms: C_11  and  C_28
    2  A    between atoms: C_28  and  N_30
                            x       y       z     vdW  Elec       q    Type
                         _______ _______ _______ _____ _____    ______ ____

>  <TORSDO>
F 2

$$$$
=
 OpenBabel11122410273D

 30 35  0  0  1  0  0  0  0  0999 V2000
  186.8220  177.8690  144.7330 C   0  0  0  0  0  0  0  0  0  0  0  0
  184.4260  178.4350  145.2940 C   0  0  0  0  0  0  0  0  0  0  0  0
  186.2010  178.7900  140.7710 N   0  0  0  0  0  2  0  0  0  0  0  0
  187.8730  177.7960  143.7670 C   0  0  0  0  0  0  0  0  0  0  0  0
  187.0990  177.5170  146.0140 N   0  0  0  0  0  0  0  0  0  0  0  0
  190.5490  176.8380  145.8770 O   0  0  0  0  0  0  0  0  0  0  0  0
  190.2910  176.7040  142.1600 C   0  0  1  0  0  3  0  0  0  0  0  0
  189.3850  177.1490  145.4950 C   0  0  0  0  0  0  0  0  0  0  0  0
  189.4630  177.1710  140.9770 C   0  0  2  0  0  3  0  0  0  0  0  0
  187.4110  178.4040  140.3150 C   0  0  0  0  0  0  0  0  0  0  0  0
  188.3330  177.1400  146.4140 C   0  0  0  0  0  0  0  0  0  0  0  0
  189.1520  177.5090  144.1930 N   0  0  0  0  0  0  0  0  0  0  0  0
  183.1850  178.9090  144.8610 C   0  0  0  0  0  3  0  0  0  0  0  0
  190.4310  177.8960  140.0630 C   0  0  0  0  0  2  0  0  0  0  0  0
  191.7010  176.5190  141.6190 C   0  0  0  0  0  2  0  0  0  0  0  0
  184.5060  178.0100  147.0020 Cl  0  0  0  0  0  0  0  0  0  0  0  0
  186.3000  178.5740  142.0940 C   0  0  0  0  0  0  0  0  0  0  0  0
  182.9790  179.2770  143.5350 C   0  0  0  0  0  3  0  0  0  0  0  0
  185.5120  178.3250  144.3730 C   0  0  0  0  0  0  0  0  0  0  0  0
  187.5430  178.0970  142.4240 C   0  0  0  0  0  0  0  0  0  0  0  0
  187.6920  178.3980  139.0880 O   0  0  0  0  0  0  0  0  0  0  0  0
  188.2660  177.9730  141.2790 N   0  0  0  0  0  0  0  0  0  0  0  0
  191.7520  177.1810  140.2500 C   0  0  0  0  0  2  0  0  0  0  0  0
  190.5890  179.1370  142.9950 C   0  0  0  0  0  1  0  0  0  0  0  0
  184.0180  179.1730  142.6180 C   0  0  0  0  0  3  0  0  0  0  0  0
  185.2740  178.7060  143.0230 C   0  0  0  0  0  0  0  0  0  0  0  0
  190.3210  177.6710  143.3340 C   0  0  2  0  0  3  0  0  0  0  0  0
  188.5460  176.7350  147.8350 C   0  0  0  0  0  2  0  0  0  0  0  0
  189.4370  178.6570  148.8040 C   0  0  0  0  0  1  0  0  0  0  0  0
  188.2350  177.8500  148.7130 N   0  0  0  0  0  2  0  0  0  0  0  0
  1  5  1  0  0  0  0
  2 16  1  0  0  0  0
  3 17  1  0  0  0  0
  4 12  1  0  0  0  0
  4  1  2  0  0  0  0
  5 11  2  0  0  0  0
  7 15  1  6  0  0  0
  7 27  1  0  0  0  0
  8  6  2  0  0  0  0
  8 11  1  0  0  0  0
  9 14  1  6  0  0  0
  9 22  1  0  0  0  0
  9  7  1  0  0  0  0
 10  3  1  0  0  0  0
 10 22  1  0  0  0  0
 11 28  1  0  0  0  0
 12  8  1  0  0  0  0
 13  2  1  0  0  0  0
 14 23  1  0  0  0  0
 17 20  2  0  0  0  0
 17 26  1  0  0  0  0
 18 13  2  0  0  0  0
 19  1  1  0  0  0  0
 19  2  2  0  0  0  0
 20  4  1  0  0  0  0
 21 10  2  0  0  0  0
 22 20  1  0  0  0  0
 23 15  1  0  0  0  0
 25 26  2  0  0  0  0
 25 18  1  0  0  0  0
 26 19  1  0  0  0  0
 27 24  1  6  0  0  0
 27 12  1  0  0  0  0
 28 30  1  0  0  0  0
 30 29  1  0  0  0  0
M  END
>  <MODEL>
3

>  <REMARK>
 VINA RESULT:      -9.2      2.201      5.408
  Name = 
  2 active torsions:
  status: ('A' for Active; 'I' for Inactive)
    1  A    between atoms: C_11  and  C_28
    2  A    between atoms: C_28  and  N_30
                            x       y       z     vdW  Elec       q    Type
                         _______ _______ _______ _____ _____    ______ ____

>  <TORSDO>
F 2

$$$$
=
 OpenBabel11122410273D

 30 35  0  0  1  0  0  0  0  0999 V2000
  185.8420  178.5450  141.0110 C   0  0  0  0  0  0  0  0  0  0  0  0
  183.7110  179.0440  139.7530 C   0  0  0  0  0  0  0  0  0  0  0  0
  183.8170  178.4970  144.5930 N   0  0  0  0  0  2  0  0  0  0  0  0
  186.5010  178.2580  142.2470 C   0  0  0  0  0  0  0  0  0  0  0  0
  186.5860  178.5740  139.8770 N   0  0  0  0  0  0  0  0  0  0  0  0
  189.7740  177.6490  141.0450 O   0  0  0  0  0  0  0  0  0  0  0  0
  188.6110  178.3440  144.5200 C   0  0  1  0  0  3  0  0  0  0  0  0
  188.5440  177.9420  141.0590 C   0  0  0  0  0  0  0  0  0  0  0  0
  187.3750  178.4470  145.3950 C   0  0  2  0  0  3  0  0  0  0  0  0
  184.8930  178.3550  145.3950 C   0  0  0  0  0  0  0  0  0  0  0  0
  187.9100  178.3060  139.8690 C   0  0  0  0  0  0  0  0  0  0  0  0
  187.8280  177.8880  142.2260 N   0  0  0  0  0  0  0  0  0  0  0  0
  182.3270  179.2330  139.7900 C   0  0  0  0  0  3  0  0  0  0  0  0
  187.6080  177.4850  146.5420 C   0  0  0  0  0  2  0  0  0  0  0  0
  189.7390  177.9440  145.4580 C   0  0  0  0  0  2  0  0  0  0  0  0
  184.4380  179.1740  138.1540 Cl  0  0  0  0  0  0  0  0  0  0  0  0
  184.3590  178.4800  143.3640 C   0  0  0  0  0  0  0  0  0  0  0  0
  181.6230  179.1640  140.9880 C   0  0  0  0  0  3  0  0  0  0  0  0
  184.4280  178.7710  140.9580 C   0  0  0  0  0  0  0  0  0  0  0  0
  185.7190  178.3060  143.4260 C   0  0  0  0  0  0  0  0  0  0  0  0
  184.8000  178.3870  146.6500 O   0  0  0  0  0  0  0  0  0  0  0  0
  186.0760  178.2340  144.7360 N   0  0  0  0  0  0  0  0  0  0  0  0
  189.1050  177.5040  146.7690 C   0  0  0  0  0  2  0  0  0  0  0  0
  187.9600  175.9520  143.7700 C   0  0  0  0  0  1  0  0  0  0  0  0
  182.2990  178.9060  142.1740 C   0  0  0  0  0  3  0  0  0  0  0  0
  183.6840  178.7070  142.1690 C   0  0  0  0  0  0  0  0  0  0  0  0
  188.5060  177.3280  143.3920 C   0  0  2  0  0  3  0  0  0  0  0  0
  188.6630  178.3930  138.5820 C   0  0  0  0  0  2  0  0  0  0  0  0
  188.0460  178.1790  136.3470 C   0  0  0  0  0  1  0  0  0  0  0  0
  187.8060  178.9510  137.5510 N   0  0  0  0  0  2  0  0  0  0  0  0
  1  4  1  0  0  0  0
  2 13  2  0  0  0  0
  2 19  1  0  0  0  0
  3 10  1  0  0  0  0
  4 20  2  0  0  0  0
  5  1  1  0  0  0  0
  6  8  2  0  0  0  0
  7  9  1  0  0  0  0
  7 15  1  1  0  0  0
  8 12  1  0  0  0  0
  9 14  1  1  0  0  0
 10 21  2  0  0  0  0
 11  5  2  0  0  0  0
 11  8  1  0  0  0  0
 12  4  1  0  0  0  0
 12 27  1  0  0  0  0
 13 18  1  0  0  0  0
 14 23  1  0  0  0  0
 15 23  1  0  0  0  0
 16  2  1  0  0  0  0
 17 20  1  0  0  0  0
 17  3  1  0  0  0  0
 18 25  2  0  0  0  0
 19  1  2  0  0  0  0
 19 26  1  0  0  0  0
 20 22  1  0  0  0  0
 22  9  1  0  0  0  0
 22 10  1  0  0  0  0
 26 25  1  0  0  0  0
 26 17  2  0  0  0  0
 27 24  1  1  0  0  0
 27  7  1  0  0  0  0
 28 11  1  0  0  0  0
 29 30  1  0  0  0  0
 30 28  1  0  0  0  0
M  END
>  <MODEL>
4

>  <REMARK>
 VINA RESULT:      -9.2      1.301      1.764
  Name = 
  2 active torsions:
  status: ('A' for Active; 'I' for Inactive)
    1  A    between atoms: C_11  and  C_28
    2  A    between atoms: C_28  and  N_30
                            x       y       z     vdW  Elec       q    Type
                         _______ _______ _______ _____ _____    ______ ____

>  <TORSDO>
F 2

$$$$
=
 OpenBabel11122410273D

 30 35  0  0  1  0  0  0  0  0999 V2000
  188.5390  177.4930  144.4060 C   0  0  0  0  0  0  0  0  0  0  0  0
  189.9390  177.1900  146.4840 C   0  0  0  0  0  0  0  0  0  0  0  0
  185.3030  178.6780  146.6550 N   0  0  0  0  0  2  0  0  0  0  0  0
  187.3030  177.8860  143.8030 C   0  0  0  0  0  0  0  0  0  0  0  0
  189.5480  177.0840  143.5970 N   0  0  0  0  0  0  0  0  0  0  0  0
  188.1820  177.5620  140.3890 O   0  0  0  0  0  0  0  0  0  0  0  0
  184.8100  177.8390  141.9580 C   0  0  1  0  0  3  0  0  0  0  0  0
  188.2670  177.5340  141.6500 C   0  0  0  0  0  0  0  0  0  0  0  0
  184.0900  178.1690  143.2530 C   0  0  2  0  0  3  0  0  0  0  0  0
  184.4130  178.7590  145.6430 C   0  0  0  0  0  0  0  0  0  0  0  0
  189.4410  177.0710  142.2500 C   0  0  0  0  0  0  0  0  0  0  0  0
  187.2270  177.9670  142.4300 N   0  0  0  0  0  0  0  0  0  0  0  0
  190.0400  177.2960  147.8740 C   0  0  0  0  0  3  0  0  0  0  0  0
  183.1160  179.2760  142.9070 C   0  0  0  0  0  2  0  0  0  0  0  0
  183.8270  178.1850  140.8500 C   0  0  0  0  0  2  0  0  0  0  0  0
  191.3850  176.5930  145.6760 Cl  0  0  0  0  0  0  0  0  0  0  0  0
  186.4380  178.3340  146.0240 C   0  0  0  0  0  0  0  0  0  0  0  0
  188.9700  177.7490  148.6400 C   0  0  0  0  0  3  0  0  0  0  0  0
  188.7240  177.5520  145.8250 C   0  0  0  0  0  0  0  0  0  0  0  0
  186.2410  178.2380  144.6700 C   0  0  0  0  0  0  0  0  0  0  0  0
  183.1940  179.0030  145.8440 O   0  0  0  0  0  0  0  0  0  0  0  0
  184.9320  178.5010  144.4140 N   0  0  0  0  0  0  0  0  0  0  0  0
  182.7060  179.0010  141.4750 C   0  0  0  0  0  2  0  0  0  0  0  0
  186.0550  180.1090  141.9960 C   0  0  0  0  0  1  0  0  0  0  0  0
  187.7760  178.1010  148.0230 C   0  0  0  0  0  3  0  0  0  0  0  0
  187.6460  178.0100  146.6330 C   0  0  0  0  0  0  0  0  0  0  0  0
  186.1070  178.6040  141.7410 C   0  0  2  0  0  3  0  0  0  0  0  0
  190.5870  176.5730  141.4330 C   0  0  0  0  0  2  0  0  0  0  0  0
  192.3590  177.5030  140.2420 C   0  0  0  0  0  1  0  0  0  0  0  0
  191.6990  177.5030  141.5330 N   0  0  0  0  0  2  0  0  0  0  0  0
  1 19  1  0  0  0  0
  2 13  1  0  0  0  0
  4  1  2  0  0  0  0
  4 20  1  0  0  0  0
  5  1  1  0  0  0  0
  6  8  2  0  0  0  0
  7 15  1  6  0  0  0
  7  9  1  0  0  0  0
  8 11  1  0  0  0  0
  8 12  1  0  0  0  0
  9 14  1  6  0  0  0
  9 22  1  0  0  0  0
 10 21  2  0  0  0  0
 10  3  1  0  0  0  0
 11  5  2  0  0  0  0
 12  4  1  0  0  0  0
 13 18  2  0  0  0  0
 15 23  1  0  0  0  0
 16  2  1  0  0  0  0
 17 26  1  0  0  0  0
 17  3  1  0  0  0  0
 19  2  2  0  0  0  0
 19 26  1  0  0  0  0
 20 17  2  0  0  0  0
 22 20  1  0  0  0  0
 22 10  1  0  0  0  0
 23 14  1  0  0  0  0
 25 18  1  0  0  0  0
 26 25  2  0  0  0  0
 27  7  1  0  0  0  0
 27 24  1  1  0  0  0
 27 12  1  0  0  0  0
 28 30  1  0  0  0  0
 28 11  1  0  0  0  0
 29 30  1  0  0  0  0
M  END
>  <MODEL>
5

>  <REMARK>
 VINA RESULT:      -9.1      2.784      5.689
  Name = 
  2 active torsions:
  status: ('A' for Active; 'I' for Inactive)
    1  A    between atoms: C_11  and  C_28
    2  A    between atoms: C_28  and  N_30
                            x       y       z     vdW  Elec       q    Type
                         _______ _______ _______ _____ _____    ______ ____

>  <TORSDO>
F 2

$$$$
=
 OpenBabel11122410273D

 30 35  0  0  1  0  0  0  0  0999 V2000
  187.6480  177.6330  142.6240 C   0  0  0  0  0  0  0  0  0  0  0  0
  186.4970  178.1090  144.8200 C   0  0  0  0  0  0  0  0  0  0  0  0
  184.5020  179.2570  140.5260 N   0  0  0  0  0  2  0  0  0  0  0  0
  187.6600  177.7270  141.1980 C   0  0  0  0  0  0  0  0  0  0  0  0
  188.7090  177.0550  143.2400 N   0  0  0  0  0  0  0  0  0  0  0  0
  190.8690  176.3840  140.5450 O   0  0  0  0  0  0  0  0  0  0  0  0
  188.0020  176.9220  138.2210 C   0  0  1  0  0  3  0  0  0  0  0  0
  189.8440  176.7680  141.1760 C   0  0  0  0  0  0  0  0  0  0  0  0
  186.6520  177.6010  138.0880 C   0  0  2  0  0  3  0  0  0  0  0  0
  184.9460  178.9480  139.2900 C   0  0  0  0  0  0  0  0  0  0  0  0
  189.7870  176.6030  142.5620 C   0  0  0  0  0  0  0  0  0  0  0  0
  188.7980  177.3580  140.5150 N   0  0  0  0  0  0  0  0  0  0  0  0
  185.4040  178.6620  145.4930 C   0  0  0  0  0  3  0  0  0  0  0  0
  186.7530  178.4710  136.8510 C   0  0  0  0  0  2  0  0  0  0  0  0
  188.5490  176.8270  136.8050 C   0  0  0  0  0  2  0  0  0  0  0  0
  187.7200  177.3830  145.8580 Cl  0  0  0  0  0  0  0  0  0  0  0  0
  185.4910  178.8050  141.3160 C   0  0  0  0  0  0  0  0  0  0  0  0
  184.3610  179.2640  144.7960 C   0  0  0  0  0  3  0  0  0  0  0  0
  186.5590  178.1570  143.3940 C   0  0  0  0  0  0  0  0  0  0  0  0
  186.5100  178.2670  140.5730 C   0  0  0  0  0  0  0  0  0  0  0  0
  184.2540  179.1610  138.2590 O   0  0  0  0  0  0  0  0  0  0  0  0
  186.1630  178.3450  139.2600 N   0  0  0  0  0  0  0  0  0  0  0  0
  187.6900  177.7240  135.9260 C   0  0  0  0  0  2  0  0  0  0  0  0
  189.1390  179.1630  138.8490 C   0  0  0  0  0  1  0  0  0  0  0  0
  184.3950  179.3180  143.4080 C   0  0  0  0  0  3  0  0  0  0  0  0
  185.4780  178.7770  142.7070 C   0  0  0  0  0  0  0  0  0  0  0  0
  188.9990  177.6620  139.1010 C   0  0  2  0  0  3  0  0  0  0  0  0
  190.8980  175.9470  143.3130 C   0  0  0  0  0  2  0  0  0  0  0  0
  191.5870  176.5760  145.4460 C   0  0  0  0  0  1  0  0  0  0  0  0
  191.6500  176.9500  144.0470 N   0  0  0  0  0  2  0  0  0  0  0  0
  1  5  1  0  0  0  0
  1 19  1  0  0  0  0
  2 13  1  0  0  0  0
  2 16  1  0  0  0  0
  3 17  1  0  0  0  0
  4  1  2  0  0  0  0
  6  8  2  0  0  0  0
  7 15  1  6  0  0  0
  7 27  1  0  0  0  0
  8 11  1  0  0  0  0
  9 14  1  6  0  0  0
  9  7  1  0  0  0  0
  9 22  1  0  0  0  0
 10  3  1  0  0  0  0
 11  5  2  0  0  0  0
 11 28  1  0  0  0  0
 12  8  1  0  0  0  0
 12  4  1  0  0  0  0
 17 26  1  0  0  0  0
 18 13  2  0  0  0  0
 19  2  2  0  0  0  0
 20  4  1  0  0  0  0
 20 17  2  0  0  0  0
 21 10  2  0  0  0  0
 22 10  1  0  0  0  0
 22 20  1  0  0  0  0
 23 15  1  0  0  0  0
 23 14  1  0  0  0  0
 25 18  1  0  0  0  0
 26 19  1  0  0  0  0
 26 25  2  0  0  0  0
 27 24  1  1  0  0  0
 27 12  1  0  0  0  0
 28 30  1  0  0  0  0
 30 29  1  0  0  0  0
M  END
>  <MODEL>
6

>  <REMARK>
 VINA RESULT:      -8.9      2.514      5.776
  Name = 
  2 active torsions:
  status: ('A' for Active; 'I' for Inactive)
    1  A    between atoms: C_11  and  C_28
    2  A    between atoms: C_28  and  N_30
                            x       y       z     vdW  Elec       q    Type
                         _______ _______ _______ _____ _____    ______ ____

>  <TORSDO>
F 2

$$$$
=
 OpenBabel11122410273D

 30 35  0  0  1  0  0  0  0  0999 V2000
  185.8630  178.3790  142.2210 C   0  0  0  0  0  0  0  0  0  0  0  0
  186.5710  178.3340  144.6440 C   0  0  0  0  0  0  0  0  0  0  0  0
  181.9130  178.8070  143.2950 N   0  0  0  0  0  2  0  0  0  0  0  0
  184.8260  178.5140  141.2470 C   0  0  0  0  0  0  0  0  0  0  0  0
  187.1370  178.2080  141.7860 N   0  0  0  0  0  0  0  0  0  0  0  0
  186.7780  178.4550  138.2950 O   0  0  0  0  0  0  0  0  0  0  0  0
  183.1040  177.9820  138.7220 C   0  0  1  0  0  3  0  0  0  0  0  0
  186.4680  178.4190  139.5200 C   0  0  0  0  0  0  0  0  0  0  0  0
  181.9630  178.1250  139.7120 C   0  0  2  0  0  3  0  0  0  0  0  0
  181.3900  178.7200  142.0540 C   0  0  0  0  0  0  0  0  0  0  0  0
  187.4630  178.2020  140.4750 C   0  0  0  0  0  0  0  0  0  0  0  0
  185.1700  178.6070  139.9160 N   0  0  0  0  0  0  0  0  0  0  0  0
  186.2070  178.4300  145.9900 C   0  0  0  0  0  3  0  0  0  0  0  0
  180.9390  179.0090  139.0290 C   0  0  0  0  0  2  0  0  0  0  0  0
  182.4700  178.1360  137.3480 C   0  0  0  0  0  2  0  0  0  0  0  0
  188.2890  178.0730  144.3550 Cl  0  0  0  0  0  0  0  0  0  0  0  0
  183.2350  178.7230  143.0650 C   0  0  0  0  0  0  0  0  0  0  0  0
  184.8810  178.6310  146.3630 C   0  0  0  0  0  3  0  0  0  0  0  0
  185.5770  178.4450  143.6240 C   0  0  0  0  0  0  0  0  0  0  0  0
  183.4970  178.6160  141.7230 C   0  0  0  0  0  0  0  0  0  0  0  0
  180.1470  178.6970  141.8540 O   0  0  0  0  0  0  0  0  0  0  0  0
  182.3090  178.6030  141.0600 N   0  0  0  0  0  0  0  0  0  0  0  0
  181.0660  178.6840  137.5550 C   0  0  0  0  0  2  0  0  0  0  0  0
  183.7770  180.4620  139.0390 C   0  0  0  0  0  1  0  0  0  0  0  0
  183.8960  178.7360  145.3900 C   0  0  0  0  0  3  0  0  0  0  0  0
  184.2300  178.6490  144.0340 C   0  0  0  0  0  0  0  0  0  0  0  0
  184.2160  179.0070  138.8840 C   0  0  2  0  0  3  0  0  0  0  0  0
  188.8850  177.9740  140.0790 C   0  0  0  0  0  2  0  0  0  0  0  0
  190.9670  177.1730  140.7460 C   0  0  0  0  0  1  0  0  0  0  0  0
  189.5650  177.2180  141.1160 N   0  0  0  0  0  2  0  0  0  0  0  0
  1 19  1  0  0  0  0
  2 13  1  0  0  0  0
  4 20  1  0  0  0  0
  4  1  2  0  0  0  0
  5  1  1  0  0  0  0
  6  8  2  0  0  0  0
  7 15  1  6  0  0  0
  7 27  1  0  0  0  0
  7  9  1  0  0  0  0
  8 12  1  0  0  0  0
  8 11  1  0  0  0  0
  9 14  1  6  0  0  0
  9 22  1  0  0  0  0
 10  3  1  0  0  0  0
 11  5  2  0  0  0  0
 12  4  1  0  0  0  0
 13 18  2  0  0  0  0
 15 23  1  0  0  0  0
 16  2  1  0  0  0  0
 17  3  1  0  0  0  0
 17 26  1  0  0  0  0
 19 26  1  0  0  0  0
 19  2  2  0  0  0  0
 20 17  2  0  0  0  0
 21 10  2  0  0  0  0
 22 20  1  0  0  0  0
 22 10  1  0  0  0  0
 23 14  1  0  0  0  0
 25 18  1  0  0  0  0
 26 25  2  0  0  0  0
 27 24  1  1  0  0  0
 27 12  1  0  0  0  0
 28 11  1  0  0  0  0
 28 30  1  0  0  0  0
 29 30  1  0  0  0  0
M  END
>  <MODEL>
7

>  <REMARK>
 VINA RESULT:      -8.6      3.084      6.250
  Name = 
  2 active torsions:
  status: ('A' for Active; 'I' for Inactive)
    1  A    between atoms: C_11  and  C_28
    2  A    between atoms: C_28  and  N_30
                            x       y       z     vdW  Elec       q    Type
                         _______ _______ _______ _____ _____    ______ ____

>  <TORSDO>
F 2

$$$$
=
 OpenBabel11122410273D

 30 35  0  0  1  0  0  0  0  0999 V2000
  188.0540  177.9620  141.9440 C   0  0  0  0  0  0  0  0  0  0  0  0
  188.9300  177.5890  144.2820 C   0  0  0  0  0  0  0  0  0  0  0  0
  191.5910  176.6320  140.3150 N   0  0  0  0  0  2  0  0  0  0  0  0
  188.2470  177.8690  140.5310 C   0  0  0  0  0  0  0  0  0  0  0  0
  186.8710  178.4420  142.4020 N   0  0  0  0  0  0  0  0  0  0  0  0
  185.0510  178.9180  139.4290 O   0  0  0  0  0  0  0  0  0  0  0  0
  188.2460  178.6440  137.5270 C   0  0  1  0  0  3  0  0  0  0  0  0
  186.0100  178.6280  140.1990 C   0  0  0  0  0  0  0  0  0  0  0  0
  189.6580  178.0900  137.5870 C   0  0  2  0  0  3  0  0  0  0  0  0
  191.2960  176.9010  139.0260 C   0  0  0  0  0  0  0  0  0  0  0  0
  185.8610  178.7960  141.5770 C   0  0  0  0  0  0  0  0  0  0  0  0
  187.1850  178.1360  139.6940 N   0  0  0  0  0  0  0  0  0  0  0  0
  189.9650  177.1350  145.1040 C   0  0  0  0  0  3  0  0  0  0  0  0
  189.8060  177.2170  136.3570 C   0  0  0  0  0  2  0  0  0  0  0  0
  187.8940  178.6920  136.0480 C   0  0  0  0  0  2  0  0  0  0  0  0
  187.5150  178.2010  145.1350 Cl  0  0  0  0  0  0  0  0  0  0  0  0
  190.4660  176.9910  140.9570 C   0  0  0  0  0  0  0  0  0  0  0  0
  191.1440  176.6310  144.5640 C   0  0  0  0  0  3  0  0  0  0  0  0
  189.0700  177.5380  142.8610 C   0  0  0  0  0  0  0  0  0  0  0  0
  189.5150  177.4370  140.0750 C   0  0  0  0  0  0  0  0  0  0  0  0
  192.1390  176.7530  138.1020 O   0  0  0  0  0  0  0  0  0  0  0  0
  190.0450  177.3920  138.8230 N   0  0  0  0  0  0  0  0  0  0  0  0
  188.9420  177.8780  135.3040 C   0  0  0  0  0  2  0  0  0  0  0  0
  187.2400  176.3090  138.0170 C   0  0  0  0  0  1  0  0  0  0  0  0
  191.3060  176.5760  143.1850 C   0  0  0  0  0  3  0  0  0  0  0  0
  190.2860  177.0190  142.3360 C   0  0  0  0  0  0  0  0  0  0  0  0
  187.2080  177.8160  138.2690 C   0  0  2  0  0  3  0  0  0  0  0  0
  184.6020  179.3470  142.1610 C   0  0  0  0  0  2  0  0  0  0  0  0
  183.8370  179.3610  144.3610 C   0  0  0  0  0  1  0  0  0  0  0  0
  184.1490  178.4910  143.2440 N   0  0  0  0  0  2  0  0  0  0  0  0
  1  5  1  0  0  0  0
  1 19  1  0  0  0  0
  2 13  1  0  0  0  0
  2 16  1  0  0  0  0
  3 17  1  0  0  0  0
  4  1  2  0  0  0  0
  6  8  2  0  0  0  0
  7 15  1  6  0  0  0
  7  9  1  0  0  0  0
  7 27  1  0  0  0  0
  8 11  1  0  0  0  0
  9 14  1  6  0  0  0
  9 22  1  0  0  0  0
 10  3  1  0  0  0  0
 11 28  1  0  0  0  0
 11  5  2  0  0  0  0
 12  8  1  0  0  0  0
 12  4  1  0  0  0  0
 17 26  1  0  0  0  0
 18 13  2  0  0  0  0
 19  2  2  0  0  0  0
 20  4  1  0  0  0  0
 20 17  2  0  0  0  0
 21 10  2  0  0  0  0
 22 10  1  0  0  0  0
 22 20  1  0  0  0  0
 23 15  1  0  0  0  0
 23 14  1  0  0  0  0
 25 18  1  0  0  0  0
 26 19  1  0  0  0  0
 26 25  2  0  0  0  0
 27 24  1  1  0  0  0
 27 12  1  0  0  0  0
 28 30  1  0  0  0  0
 30 29  1  0  0  0  0
M  END
>  <MODEL>
8

>  <REMARK>
 VINA RESULT:      -8.2      2.538      6.630
  Name = 
  2 active torsions:
  status: ('A' for Active; 'I' for Inactive)
    1  A    between atoms: C_11  and  C_28
    2  A    between atoms: C_28  and  N_30
                            x       y       z     vdW  Elec       q    Type
                         _______ _______ _______ _____ _____    ______ ____

>  <TORSDO>
F 2

$$$$
=
 OpenBabel11122410273D

 30 35  0  0  1  0  0  0  0  0999 V2000
  186.0840  178.3310  141.6400 C   0  0  0  0  0  0  0  0  0  0  0  0
  185.9190  178.2430  144.1580 C   0  0  0  0  0  0  0  0  0  0  0  0
  190.0560  177.2640  141.7790 N   0  0  0  0  0  2  0  0  0  0  0  0
  186.8590  178.1460  140.4530 C   0  0  0  0  0  0  0  0  0  0  0  0
  184.7890  178.7150  141.5110 N   0  0  0  0  0  0  0  0  0  0  0  0
  184.3610  178.7520  138.0180 O   0  0  0  0  0  0  0  0  0  0  0  0
  188.0710  178.6730  137.6460 C   0  0  1  0  0  3  0  0  0  0  0  0
  184.9240  178.6290  139.1430 C   0  0  0  0  0  0  0  0  0  0  0  0
  189.3590  178.2810  138.3460 C   0  0  2  0  0  3  0  0  0  0  0  0
  190.3130  177.3950  140.4610 C   0  0  0  0  0  0  0  0  0  0  0  0
  184.1990  178.8900  140.3080 C   0  0  0  0  0  0  0  0  0  0  0  0
  186.2320  178.2280  139.2280 N   0  0  0  0  0  0  0  0  0  0  0  0
  186.5390  177.9710  145.3800 C   0  0  0  0  0  3  0  0  0  0  0  0
  190.0660  177.3330  137.3990 C   0  0  0  0  0  2  0  0  0  0  0  0
  188.3690  178.5640  136.1590 C   0  0  0  0  0  2  0  0  0  0  0  0
  184.2400  178.7650  144.2740 Cl  0  0  0  0  0  0  0  0  0  0  0  0
  188.7450  177.5500  141.8550 C   0  0  0  0  0  0  0  0  0  0  0  0
  187.8660  177.5560  145.4360 C   0  0  0  0  0  3  0  0  0  0  0  0
  186.6450  178.0940  142.9370 C   0  0  0  0  0  0  0  0  0  0  0  0
  188.2260  177.8180  140.6140 C   0  0  0  0  0  0  0  0  0  0  0  0
  191.4740  177.2660  139.9900 O   0  0  0  0  0  0  0  0  0  0  0  0
  189.2340  177.7300  139.7050 N   0  0  0  0  0  0  0  0  0  0  0  0
  189.6830  177.8110  136.0140 C   0  0  0  0  0  2  0  0  0  0  0  0
  187.1040  176.2900  137.9500 C   0  0  0  0  0  1  0  0  0  0  0  0
  188.5960  177.4090  144.2630 C   0  0  0  0  0  3  0  0  0  0  0  0
  188.0010  177.6680  143.0230 C   0  0  0  0  0  0  0  0  0  0  0  0
  186.8730  177.8000  137.9870 C   0  0  2  0  0  3  0  0  0  0  0  0
  182.7790  179.3480  140.2530 C   0  0  0  0  0  2  0  0  0  0  0  0
  181.1780  178.9790  141.9040 C   0  0  0  0  0  1  0  0  0  0  0  0
  181.9160  178.3340  140.8350 N   0  0  0  0  0  2  0  0  0  0  0  0
  1 19  1  0  0  0  0
  2 16  1  0  0  0  0
  2 13  1  0  0  0  0
  3 17  1  0  0  0  0
  4 20  1  0  0  0  0
  4  1  2  0  0  0  0
  5  1  1  0  0  0  0
  6  8  2  0  0  0  0
  7 15  1  6  0  0  0
  7 27  1  0  0  0  0
  7  9  1  0  0  0  0
  8 12  1  0  0  0  0
  8 11  1  0  0  0  0
  9 14  1  6  0  0  0
  9 22  1  0  0  0  0
 10  3  1  0  0  0  0
 11  5  2  0  0  0  0
 12  4  1  0  0  0  0
 13 18  2  0  0  0  0
 17 26  1  0  0  0  0
 19 26  1  0  0  0  0
 19  2  2  0  0  0  0
 20 17  2  0  0  0  0
 21 10  2  0  0  0  0
 22 10  1  0  0  0  0
 22 20  1  0  0  0  0
 23 15  1  0  0  0  0
 23 14  1  0  0  0  0
 25 18  1  0  0  0  0
 26 25  2  0  0  0  0
 27 24  1  1  0  0  0
 27 12  1  0  0  0  0
 28 11  1  0  0  0  0
 28 30  1  0  0  0  0
 30 29  1  0  0  0  0
M  END
>  <MODEL>
9

>  <REMARK>
 VINA RESULT:      -8.1      2.524      5.607
  Name = 
  2 active torsions:
  status: ('A' for Active; 'I' for Inactive)
    1  A    between atoms: C_11  and  C_28
    2  A    between atoms: C_28  and  N_30
                            x       y       z     vdW  Elec       q    Type
                         _______ _______ _______ _____ _____    ______ ____

>  <TORSDO>
F 2

$$$$
