=
 OpenBabel11122412283D

 34 37  0  0  1  0  0  0  0  0999 V2000
  182.6310  178.6330  143.3790 C   0  0  2  0  0  3  0  0  0  0  0  0
  183.6670  179.3360  145.4460 O   0  0  0  0  0  0  0  0  0  0  0  0
  181.6330  177.9640  141.1760 C   0  0  0  0  0  2  0  0  0  0  0  0
  185.1060  179.2950  143.5260 C   0  0  2  0  0  3  0  0  0  0  0  0
  187.8120  177.9730  143.6630 C   0  0  0  0  0  2  0  0  0  0  0  0
  185.1710  178.4020  142.2600 C   0  0  1  0  0  3  0  0  0  0  0  0
  184.7410  178.4810  145.7280 C   0  0  0  0  0  2  0  0  0  0  0  0
  186.6840  177.5830  144.4970 N   0  0  0  0  0  0  0  0  0  0  0  0
  182.6390  178.8790  141.8670 C   0  0  2  0  0  3  0  0  0  0  0  0
  184.0380  178.7100  141.2510 C   0  0  1  0  0  3  0  0  0  0  0  0
  180.2170  177.9950  143.2490 C   0  0  0  0  0  2  0  0  0  0  0  0
  187.5500  177.5640  142.2260 C   0  0  0  0  0  2  0  0  0  0  0  0
  180.2350  178.2140  141.7360 C   0  0  0  0  0  2  0  0  0  0  0  0
  186.5350  178.4930  141.5790 C   0  0  0  0  0  2  0  0  0  0  0  0
  185.8610  178.7760  144.7470 C   0  0  1  0  0  3  0  0  0  0  0  0
  181.2340  178.9080  143.9300 C   0  0  0  0  0  2  0  0  0  0  0  0
  183.6800  179.5270  144.0530 C   0  0  1  0  0  3  0  0  0  0  0  0
  184.3450  179.7100  140.2970 O   0  0  0  0  0  0  0  0  0  0  0  0
  183.8900  179.2900  139.0350 C   0  0  0  0  0  2  0  0  0  0  0  0
  186.0450  178.7700  138.1430 O   0  0  0  0  0  1  0  0  0  0  0  0
  184.8070  178.2160  138.4830 C   0  0  2  0  0  3  0  0  0  0  0  0
  184.1640  177.5520  137.2680 C   0  0  1  0  0  3  0  0  0  0  0  0
  185.0690  176.6900  136.6430 O   0  0  0  0  0  1  0  0  0  0  0  0
  182.9140  176.7800  137.6630 C   0  0  0  0  0  2  0  0  0  0  0  0
  183.2790  175.5740  138.3890 N   0  0  0  0  0  2  0  0  0  0  0  0
  182.2700  175.3120  139.2530 O   0  0  0  0  0  0  0  0  0  0  0  0
  181.1300  175.2490  138.4510 C   0  0  0  0  0  1  0  0  0  0  0  0
  187.2790  177.1520  145.7560 C   0  0  0  0  0  2  0  0  0  0  0  0
  188.7860  177.3030  145.6890 C   0  0  0  0  0  2  0  0  0  0  0  0
  189.3630  177.4880  147.0870 C   0  0  1  0  0  3  0  0  0  0  0  0
  188.1500  178.1950  149.0490 O   0  0  0  0  0  1  0  0  0  0  0  0
  188.3590  177.1260  148.1760 C   0  0  0  0  0  2  0  0  0  0  0  0
  190.9820  176.6580  147.3230 S   0  0  0  0  0  0  0  0  0  0  0  0
  191.5170  176.7500  145.5850 C   0  0  0  0  0  1  0  0  0  0  0  0
  1 16  1  1  0  0  0
  1 17  1  0  0  0  0
  2  7  1  0  0  0  0
  3 13  1  0  0  0  0
  3  9  1  0  0  0  0
  4 17  1  0  0  0  0
  4 15  1  0  0  0  0
  5  8  1  0  0  0  0
  6  4  1  0  0  0  0
  8 15  1  0  0  0  0
  8 28  1  0  0  0  0
  9  1  1  0  0  0  0
 10  9  1  0  0  0  0
 10  6  1  0  0  0  0
 11 16  1  0  0  0  0
 12  5  1  0  0  0  0
 13 11  1  0  0  0  0
 14 12  1  0  0  0  0
 14  6  1  0  0  0  0
 15  7  1  0  0  0  0
 17  2  1  0  0  0  0
 18 10  1  0  0  0  0
 19 18  1  0  0  0  0
 20 21  1  0  0  0  0
 21 19  1  0  0  0  0
 22 24  1  0  0  0  0
 22 21  1  0  0  0  0
 23 22  1  0  0  0  0
 24 25  1  0  0  0  0
 25 26  1  0  0  0  0
 27 26  1  0  0  0  0
 29 28  1  0  0  0  0
 29 30  1  0  0  0  0
 30 33  1  0  0  0  0
 30 32  1  0  0  0  0
 32 31  1  0  0  0  0
 34 33  1  0  0  0  0
M  END
>  <MODEL>
1

>  <REMARK>
 VINA RESULT:      -7.0      0.000      0.000
  Name = 
  12 active torsions:
  status: ('A' for Active; 'I' for Inactive)
    1  A    between atoms: C_3  and  C_16
    2  A    between atoms: C_3  and  C_19
    3  A    between atoms: C_5  and  O_11
    4  A    between atoms: C_5  and  C_19
    5  A    between atoms: N_8  and  O_12
    6  A    between atoms: N_8  and  C_16
    7  A    between atoms: O_11  and  C_20
    8  A    between atoms: N_17  and  C_28
    9  A    between atoms: C_28  and  C_29
   10  A    between atoms: C_29  and  C_32
   11  A    between atoms: S_31  and  C_32
   12  A    between atoms: C_32  and  C_34
                            x       y       z     vdW  Elec       q    Type
                         _______ _______ _______ _____ _____    ______ ____

>  <TORSDO>
F 12

$$$$
=
 OpenBabel11122412283D

 34 37  0  0  1  0  0  0  0  0999 V2000
  188.1860  176.8590  138.4000 C   0  0  2  0  0  3  0  0  0  0  0  0
  187.0280  178.6330  139.5620 O   0  0  0  0  0  0  0  0  0  0  0  0
  189.4880  175.0680  137.2190 C   0  0  0  0  0  2  0  0  0  0  0  0
  189.2610  178.1860  140.3150 C   0  0  2  0  0  3  0  0  0  0  0  0
  189.8570  177.8650  143.2530 C   0  0  0  0  0  2  0  0  0  0  0  0
  190.1200  176.8980  140.4030 C   0  0  1  0  0  3  0  0  0  0  0  0
  186.9700  178.3180  140.9260 C   0  0  0  0  0  2  0  0  0  0  0  0
  188.5610  177.5670  142.6580 N   0  0  0  0  0  0  0  0  0  0  0  0
  189.5690  176.4310  137.8980 C   0  0  2  0  0  3  0  0  0  0  0  0
  190.6220  176.4170  139.0200 C   0  0  1  0  0  3  0  0  0  0  0  0
  187.1280  175.5770  136.5320 C   0  0  0  0  0  2  0  0  0  0  0  0
  190.8720  176.8290  142.8090 C   0  0  0  0  0  2  0  0  0  0  0  0
  188.5080  175.1290  136.0500 C   0  0  0  0  0  2  0  0  0  0  0  0
  191.2910  177.0690  141.3690 C   0  0  0  0  0  2  0  0  0  0  0  0
  188.3600  178.4700  141.5150 C   0  0  1  0  0  3  0  0  0  0  0  0
  187.2210  176.9380  137.2180 C   0  0  0  0  0  2  0  0  0  0  0  0
  188.2930  178.2090  139.1210 C   0  0  1  0  0  3  0  0  0  0  0  0
  191.8650  176.9580  138.6150 O   0  0  0  0  0  0  0  0  0  0  0  0
  192.7610  175.9050  138.3660 C   0  0  0  0  0  2  0  0  0  0  0  0
  192.5940  176.0750  135.9880 O   0  0  0  0  0  1  0  0  0  0  0  0
  193.4910  176.1430  137.0570 C   0  0  2  0  0  3  0  0  0  0  0  0
  194.6090  175.1160  136.8870 C   0  0  1  0  0  3  0  0  0  0  0  0
  195.7810  175.7360  136.4480 O   0  0  0  0  0  1  0  0  0  0  0  0
  194.8790  174.3790  138.1900 C   0  0  0  0  0  2  0  0  0  0  0  0
  196.1820  174.7520  138.7160 N   0  0  0  0  0  2  0  0  0  0  0  0
  195.9660  175.3740  139.9000 O   0  0  0  0  0  0  0  0  0  0  0  0
  197.1720  175.2430  140.5890 C   0  0  0  0  0  1  0  0  0  0  0  0
  187.5870  177.8970  143.6920 C   0  0  0  0  0  2  0  0  0  0  0  0
  188.0150  177.2860  145.0130 C   0  0  0  0  0  2  0  0  0  0  0  0
  187.4100  178.0600  146.1760 C   0  0  1  0  0  3  0  0  0  0  0  0
  185.3580  179.1290  146.8620 O   0  0  0  0  0  1  0  0  0  0  0  0
  185.8850  178.0590  146.1370 C   0  0  0  0  0  2  0  0  0  0  0  0
  188.0680  177.5530  147.8110 S   0  0  0  0  0  0  0  0  0  0  0  0
  189.6370  176.8630  147.1970 C   0  0  0  0  0  1  0  0  0  0  0  0
  1 16  1  6  0  0  0
  1 17  1  0  0  0  0
  2  7  1  0  0  0  0
  3  9  1  0  0  0  0
  4  6  1  0  0  0  0
  4 15  1  0  0  0  0
  6 14  1  0  0  0  0
  7 15  1  0  0  0  0
  8  5  1  0  0  0  0
  8 28  1  0  0  0  0
  9  1  1  0  0  0  0
  9 10  1  0  0  0  0
 10  6  1  0  0  0  0
 11 16  1  0  0  0  0
 12  5  1  0  0  0  0
 13 11  1  0  0  0  0
 13  3  1  0  0  0  0
 14 12  1  0  0  0  0
 15  8  1  0  0  0  0
 17  2  1  0  0  0  0
 17  4  1  0  0  0  0
 18 10  1  0  0  0  0
 19 18  1  0  0  0  0
 20 21  1  0  0  0  0
 21 19  1  0  0  0  0
 22 21  1  0  0  0  0
 22 24  1  0  0  0  0
 23 22  1  0  0  0  0
 24 25  1  0  0  0  0
 25 26  1  0  0  0  0
 26 27  1  0  0  0  0
 28 29  1  0  0  0  0
 29 30  1  0  0  0  0
 30 33  1  0  0  0  0
 32 30  1  0  0  0  0
 32 31  1  0  0  0  0
 34 33  1  0  0  0  0
M  END
>  <MODEL>
2

>  <REMARK>
 VINA RESULT:      -6.9      5.405      7.952
  Name = 
  12 active torsions:
  status: ('A' for Active; 'I' for Inactive)
    1  A    between atoms: C_3  and  C_16
    2  A    between atoms: C_3  and  C_19
    3  A    between atoms: C_5  and  O_11
    4  A    between atoms: C_5  and  C_19
    5  A    between atoms: N_8  and  O_12
    6  A    between atoms: N_8  and  C_16
    7  A    between atoms: O_11  and  C_20
    8  A    between atoms: N_17  and  C_28
    9  A    between atoms: C_28  and  C_29
   10  A    between atoms: C_29  and  C_32
   11  A    between atoms: S_31  and  C_32
   12  A    between atoms: C_32  and  C_34
                            x       y       z     vdW  Elec       q    Type
                         _______ _______ _______ _____ _____    ______ ____

>  <TORSDO>
F 12

$$$$
=
 OpenBabel11122412283D

 34 37  0  0  1  0  0  0  0  0999 V2000
  182.7150  178.5980  143.4340 C   0  0  2  0  0  3  0  0  0  0  0  0
  183.7710  179.3350  145.4790 O   0  0  0  0  0  0  0  0  0  0  0  0
  181.6960  177.8940  141.2520 C   0  0  0  0  0  2  0  0  0  0  0  0
  185.1980  179.2340  143.5530 C   0  0  2  0  0  3  0  0  0  0  0  0
  187.8890  177.8830  143.7030 C   0  0  0  0  0  2  0  0  0  0  0  0
  185.2450  178.3130  142.3060 C   0  0  1  0  0  3  0  0  0  0  0  0
  184.8360  178.4730  145.7740 C   0  0  0  0  0  2  0  0  0  0  0  0
  186.7600  177.5240  144.5520 N   0  0  0  0  0  0  0  0  0  0  0  0
  182.7160  178.8120  141.9170 C   0  0  2  0  0  3  0  0  0  0  0  0
  184.1100  178.6120  141.2970 C   0  0  1  0  0  3  0  0  0  0  0  0
  180.2920  177.9870  143.3320 C   0  0  0  0  0  2  0  0  0  0  0  0
  187.6130  177.4450  142.2770 C   0  0  0  0  0  2  0  0  0  0  0  0
  180.3040  178.1730  141.8140 C   0  0  0  0  0  2  0  0  0  0  0  0
  186.6060  178.3720  141.6160 C   0  0  0  0  0  2  0  0  0  0  0  0
  185.9540  178.7330  144.7810 C   0  0  1  0  0  3  0  0  0  0  0  0
  181.3240  178.9030  143.9870 C   0  0  0  0  0  2  0  0  0  0  0  0
  183.7780  179.4940  144.0820 C   0  0  1  0  0  3  0  0  0  0  0  0
  184.4230  179.5860  140.3200 O   0  0  0  0  0  0  0  0  0  0  0  0
  183.3330  179.7190  139.4420 C   0  0  0  0  0  2  0  0  0  0  0  0
  182.4270  178.5330  137.5760 O   0  0  0  0  0  1  0  0  0  0  0  0
  183.6200  178.9880  138.1440 C   0  0  2  0  0  3  0  0  0  0  0  0
  184.5730  177.8220  138.3990 C   0  0  1  0  0  3  0  0  0  0  0  0
  183.8990  176.6040  138.2850 O   0  0  0  0  0  1  0  0  0  0  0  0
  185.7440  177.8500  137.4290 C   0  0  0  0  0  2  0  0  0  0  0  0
  186.8620  178.5730  138.0140 N   0  0  0  0  0  2  0  0  0  0  0  0
  187.4900  179.2160  137.0010 O   0  0  0  0  0  0  0  0  0  0  0  0
  188.8460  178.9660  137.2150 C   0  0  0  0  0  1  0  0  0  0  0  0
  187.3580  177.1140  145.8180 C   0  0  0  0  0  2  0  0  0  0  0  0
  188.8230  177.5060  145.8430 C   0  0  0  0  0  2  0  0  0  0  0  0
  189.4710  177.0470  147.1430 C   0  0  1  0  0  3  0  0  0  0  0  0
  191.6080  177.2850  146.0480 O   0  0  0  0  0  1  0  0  0  0  0  0
  190.8710  176.4840  146.9210 C   0  0  0  0  0  2  0  0  0  0  0  0
  189.4310  178.3180  148.4660 S   0  0  0  0  0  0  0  0  0  0  0  0
  187.7510  177.9440  149.0600 C   0  0  0  0  0  1  0  0  0  0  0  0
  1 16  1  1  0  0  0
  1 17  1  0  0  0  0
  2  7  1  0  0  0  0
  3 13  1  0  0  0  0
  3  9  1  0  0  0  0
  4 17  1  0  0  0  0
  4 15  1  0  0  0  0
  5  8  1  0  0  0  0
  6  4  1  0  0  0  0
  8 15  1  0  0  0  0
  8 28  1  0  0  0  0
  9  1  1  0  0  0  0
 10  9  1  0  0  0  0
 10  6  1  0  0  0  0
 11 16  1  0  0  0  0
 12  5  1  0  0  0  0
 13 11  1  0  0  0  0
 14 12  1  0  0  0  0
 14  6  1  0  0  0  0
 15  7  1  0  0  0  0
 17  2  1  0  0  0  0
 18 10  1  0  0  0  0
 19 18  1  0  0  0  0
 20 21  1  0  0  0  0
 21 22  1  0  0  0  0
 21 19  1  0  0  0  0
 23 22  1  0  0  0  0
 24 25  1  0  0  0  0
 24 22  1  0  0  0  0
 26 27  1  0  0  0  0
 26 25  1  0  0  0  0
 28 29  1  0  0  0  0
 29 30  1  0  0  0  0
 30 33  1  0  0  0  0
 31 32  1  0  0  0  0
 32 30  1  0  0  0  0
 33 34  1  0  0  0  0
M  END
>  <MODEL>
3

>  <REMARK>
 VINA RESULT:      -6.4      1.682      2.658
  Name = 
  12 active torsions:
  status: ('A' for Active; 'I' for Inactive)
    1  A    between atoms: C_3  and  C_16
    2  A    between atoms: C_3  and  C_19
    3  A    between atoms: C_5  and  O_11
    4  A    between atoms: C_5  and  C_19
    5  A    between atoms: N_8  and  O_12
    6  A    between atoms: N_8  and  C_16
    7  A    between atoms: O_11  and  C_20
    8  A    between atoms: N_17  and  C_28
    9  A    between atoms: C_28  and  C_29
   10  A    between atoms: C_29  and  C_32
   11  A    between atoms: S_31  and  C_32
   12  A    between atoms: C_32  and  C_34
                            x       y       z     vdW  Elec       q    Type
                         _______ _______ _______ _____ _____    ______ ____

>  <TORSDO>
F 12

$$$$
=
 OpenBabel11122412283D

 34 37  0  0  1  0  0  0  0  0999 V2000
  190.5400  176.9840  141.4910 C   0  0  2  0  0  3  0  0  0  0  0  0
  192.2400  177.1210  139.7790 O   0  0  0  0  0  0  0  0  0  0  0  0
  188.7140  176.9210  143.2110 C   0  0  0  0  0  2  0  0  0  0  0  0
  190.0160  177.6840  139.0780 C   0  0  2  0  0  3  0  0  0  0  0  0
  188.8500  176.4960  136.5650 C   0  0  0  0  0  2  0  0  0  0  0  0
  188.6070  177.1880  139.4970 C   0  0  1  0  0  3  0  0  0  0  0  0
  191.8900  176.2690  138.7240 C   0  0  0  0  0  2  0  0  0  0  0  0
  189.8740  175.8370  137.3660 N   0  0  0  0  0  0  0  0  0  0  0  0
  189.2490  177.6460  141.9810 C   0  0  2  0  0  3  0  0  0  0  0  0
  188.1730  177.7180  140.8840 C   0  0  1  0  0  3  0  0  0  0  0  0
  191.0660  176.3050  143.8400 C   0  0  0  0  0  2  0  0  0  0  0  0
  187.5340  176.4960  137.3210 C   0  0  0  0  0  2  0  0  0  0  0  0
  189.7620  176.9420  144.3210 C   0  0  0  0  0  2  0  0  0  0  0  0
  187.5580  177.5250  138.4400 C   0  0  0  0  0  2  0  0  0  0  0  0
  190.7110  176.8750  137.9860 C   0  0  1  0  0  3  0  0  0  0  0  0
  191.5870  177.0330  142.6020 C   0  0  0  0  0  2  0  0  0  0  0  0
  191.0380  177.6970  140.2270 C   0  0  1  0  0  3  0  0  0  0  0  0
  187.4900  178.9580  140.8610 O   0  0  0  0  0  0  0  0  0  0  0  0
  186.4540  178.9250  141.8100 C   0  0  0  0  0  2  0  0  0  0  0  0
  185.0520  179.6210  140.0040 O   0  0  0  0  0  1  0  0  0  0  0  0
  185.1160  178.7710  141.1120 C   0  0  2  0  0  3  0  0  0  0  0  0
  183.9790  179.0730  142.0860 C   0  0  1  0  0  3  0  0  0  0  0  0
  182.8320  178.3560  141.7380 O   0  0  0  0  0  1  0  0  0  0  0  0
  184.3780  178.7340  143.5150 C   0  0  0  0  0  2  0  0  0  0  0  0
  183.2900  179.0490  144.4270 N   0  0  0  0  0  2  0  0  0  0  0  0
  183.8000  179.0040  145.6800 O   0  0  0  0  0  0  0  0  0  0  0  0
  185.1820  178.9590  145.4940 C   0  0  0  0  0  1  0  0  0  0  0  0
  190.6820  175.0950  136.4060 C   0  0  0  0  0  2  0  0  0  0  0  0
  190.3660  173.6150  136.5060 C   0  0  0  0  0  2  0  0  0  0  0  0
  189.7850  173.1080  135.1920 C   0  0  1  0  0  3  0  0  0  0  0  0
  191.8370  171.8450  135.0580 O   0  0  0  0  0  1  0  0  0  0  0  0
  190.4870  171.8460  134.7020 C   0  0  0  0  0  2  0  0  0  0  0  0
  187.9600  172.9260  135.2240 S   0  0  0  0  0  0  0  0  0  0  0  0
  187.8200  172.5630  137.0020 C   0  0  0  0  0  1  0  0  0  0  0  0
  1  9  1  0  0  0  0
  1 16  1  1  0  0  0
  2 17  1  0  0  0  0
  3 13  1  0  0  0  0
  4  6  1  0  0  0  0
  4 17  1  0  0  0  0
  5 12  1  0  0  0  0
  5  8  1  0  0  0  0
  6 10  1  0  0  0  0
  7  2  1  0  0  0  0
  8 15  1  0  0  0  0
  9  3  1  0  0  0  0
 10  9  1  0  0  0  0
 11 13  1  0  0  0  0
 12 14  1  0  0  0  0
 14  6  1  0  0  0  0
 15  7  1  0  0  0  0
 15  4  1  0  0  0  0
 16 11  1  0  0  0  0
 17  1  1  0  0  0  0
 18 10  1  0  0  0  0
 18 19  1  0  0  0  0
 20 21  1  0  0  0  0
 21 19  1  0  0  0  0
 21 22  1  0  0  0  0
 22 24  1  0  0  0  0
 23 22  1  0  0  0  0
 24 25  1  0  0  0  0
 25 26  1  0  0  0  0
 27 26  1  0  0  0  0
 28 29  1  0  0  0  0
 28  8  1  0  0  0  0
 30 33  1  0  0  0  0
 30 29  1  0  0  0  0
 32 31  1  0  0  0  0
 32 30  1  0  0  0  0
 33 34  1  0  0  0  0
M  END
>  <MODEL>
4

>  <REMARK>
 VINA RESULT:      -6.4      4.902      8.623
  Name = 
  12 active torsions:
  status: ('A' for Active; 'I' for Inactive)
    1  A    between atoms: C_3  and  C_16
    2  A    between atoms: C_3  and  C_19
    3  A    between atoms: C_5  and  O_11
    4  A    between atoms: C_5  and  C_19
    5  A    between atoms: N_8  and  O_12
    6  A    between atoms: N_8  and  C_16
    7  A    between atoms: O_11  and  C_20
    8  A    between atoms: N_17  and  C_28
    9  A    between atoms: C_28  and  C_29
   10  A    between atoms: C_29  and  C_32
   11  A    between atoms: S_31  and  C_32
   12  A    between atoms: C_32  and  C_34
                            x       y       z     vdW  Elec       q    Type
                         _______ _______ _______ _____ _____    ______ ____

>  <TORSDO>
F 12

$$$$
=
 OpenBabel11122412283D

 34 37  0  0  1  0  0  0  0  0999 V2000
  190.4340  177.1900  141.8870 C   0  0  2  0  0  3  0  0  0  0  0  0
  192.3020  177.3170  140.3600 O   0  0  0  0  0  0  0  0  0  0  0  0
  188.4380  177.1310  143.4070 C   0  0  0  0  0  2  0  0  0  0  0  0
  190.1470  177.7560  139.4010 C   0  0  2  0  0  3  0  0  0  0  0  0
  189.3010  176.4060  136.8420 C   0  0  0  0  0  2  0  0  0  0  0  0
  188.7210  177.2220  139.6930 C   0  0  1  0  0  3  0  0  0  0  0  0
  192.0980  176.4030  139.3180 C   0  0  0  0  0  2  0  0  0  0  0  0
  190.2560  175.8280  137.7780 N   0  0  0  0  0  0  0  0  0  0  0  0
  189.0750  177.8200  142.2050 C   0  0  2  0  0  3  0  0  0  0  0  0
  188.1210  177.7970  140.9980 C   0  0  1  0  0  3  0  0  0  0  0  0
  190.7290  176.6410  144.3090 C   0  0  0  0  0  2  0  0  0  0  0  0
  187.9130  176.3880  137.4540 C   0  0  0  0  0  2  0  0  0  0  0  0
  189.3600  177.2460  144.6180 C   0  0  0  0  0  2  0  0  0  0  0  0
  187.7790  177.4670  138.5150 C   0  0  0  0  0  2  0  0  0  0  0  0
  190.9850  176.9270  138.4300 C   0  0  1  0  0  3  0  0  0  0  0  0
  191.3540  177.3320  143.0990 C   0  0  0  0  0  2  0  0  0  0  0  0
  191.0400  177.8630  140.6490 C   0  0  1  0  0  3  0  0  0  0  0  0
  187.4010  179.0060  140.8410 O   0  0  0  0  0  0  0  0  0  0  0  0
  186.2890  178.9880  141.7000 C   0  0  0  0  0  2  0  0  0  0  0  0
  184.9670  179.6600  139.8260 O   0  0  0  0  0  1  0  0  0  0  0  0
  185.0190  178.7680  140.9000 C   0  0  2  0  0  3  0  0  0  0  0  0
  183.7970  178.9380  141.8000 C   0  0  1  0  0  3  0  0  0  0  0  0
  182.7470  178.1280  141.3610 O   0  0  0  0  0  1  0  0  0  0  0  0
  184.1300  178.6010  143.2460 C   0  0  0  0  0  2  0  0  0  0  0  0
  183.2730  179.3570  144.1470 N   0  0  0  0  0  2  0  0  0  0  0  0
  183.7170  179.1210  145.4040 O   0  0  0  0  0  0  0  0  0  0  0  0
  185.0550  178.7600  145.2410 C   0  0  0  0  0  1  0  0  0  0  0  0
  191.1890  175.0770  136.9470 C   0  0  0  0  0  2  0  0  0  0  0  0
  191.7270  175.9690  135.8440 C   0  0  0  0  0  2  0  0  0  0  0  0
  192.9050  175.3000  135.1480 C   0  0  1  0  0  3  0  0  0  0  0  0
  194.1750  176.8300  136.5150 O   0  0  0  0  0  1  0  0  0  0  0  0
  194.2030  176.0770  135.3400 C   0  0  0  0  0  2  0  0  0  0  0  0
  193.0850  173.5230  135.5660 S   0  0  0  0  0  0  0  0  0  0  0  0
  194.8930  173.5440  135.7790 C   0  0  0  0  0  1  0  0  0  0  0  0
  1  9  1  0  0  0  0
  1 16  1  1  0  0  0
  2 17  1  0  0  0  0
  3 13  1  0  0  0  0
  4  6  1  0  0  0  0
  4 17  1  0  0  0  0
  5 12  1  0  0  0  0
  5  8  1  0  0  0  0
  6 10  1  0  0  0  0
  7  2  1  0  0  0  0
  8 15  1  0  0  0  0
  9  3  1  0  0  0  0
 10  9  1  0  0  0  0
 11 13  1  0  0  0  0
 12 14  1  0  0  0  0
 14  6  1  0  0  0  0
 15  7  1  0  0  0  0
 15  4  1  0  0  0  0
 16 11  1  0  0  0  0
 17  1  1  0  0  0  0
 18 10  1  0  0  0  0
 18 19  1  0  0  0  0
 20 21  1  0  0  0  0
 21 19  1  0  0  0  0
 21 22  1  0  0  0  0
 22 24  1  0  0  0  0
 23 22  1  0  0  0  0
 24 25  1  0  0  0  0
 25 26  1  0  0  0  0
 27 26  1  0  0  0  0
 28  8  1  0  0  0  0
 29 28  1  0  0  0  0
 30 32  1  0  0  0  0
 30 33  1  0  0  0  0
 30 29  1  0  0  0  0
 32 31  1  0  0  0  0
 33 34  1  0  0  0  0
M  END
>  <MODEL>
5

>  <REMARK>
 VINA RESULT:      -6.3      5.202      8.354
  Name = 
  12 active torsions:
  status: ('A' for Active; 'I' for Inactive)
    1  A    between atoms: C_3  and  C_16
    2  A    between atoms: C_3  and  C_19
    3  A    between atoms: C_5  and  O_11
    4  A    between atoms: C_5  and  C_19
    5  A    between atoms: N_8  and  O_12
    6  A    between atoms: N_8  and  C_16
    7  A    between atoms: O_11  and  C_20
    8  A    between atoms: N_17  and  C_28
    9  A    between atoms: C_28  and  C_29
   10  A    between atoms: C_29  and  C_32
   11  A    between atoms: S_31  and  C_32
   12  A    between atoms: C_32  and  C_34
                            x       y       z     vdW  Elec       q    Type
                         _______ _______ _______ _____ _____    ______ ____

>  <TORSDO>
F 12

$$$$
=
 OpenBabel11122412283D

 34 37  0  0  1  0  0  0  0  0999 V2000
  188.4390  177.6960  144.9610 C   0  0  2  0  0  3  0  0  0  0  0  0
  186.2370  177.1620  145.8010 O   0  0  0  0  0  0  0  0  0  0  0  0
  190.6980  178.1980  143.9910 C   0  0  0  0  0  2  0  0  0  0  0  0
  186.4200  177.3460  143.4160 C   0  0  2  0  0  3  0  0  0  0  0  0
  184.4420  178.9920  141.8460 C   0  0  0  0  0  2  0  0  0  0  0  0
  187.2940  178.2170  142.4770 C   0  0  1  0  0  3  0  0  0  0  0  0
  185.3380  178.1470  145.3730 C   0  0  0  0  0  2  0  0  0  0  0  0
  184.7820  179.2550  143.2380 N   0  0  0  0  0  0  0  0  0  0  0  0
  189.3970  177.4260  143.7970 C   0  0  2  0  0  3  0  0  0  0  0  0
  188.7700  177.7550  142.4320 C   0  0  1  0  0  3  0  0  0  0  0  0
  190.3990  178.0310  146.4780 C   0  0  0  0  0  2  0  0  0  0  0  0
  185.6230  179.3410  140.9580 C   0  0  0  0  0  2  0  0  0  0  0  0
  191.3520  177.7890  145.3090 C   0  0  0  0  0  2  0  0  0  0  0  0
  186.7080  178.2830  141.0680 C   0  0  0  0  0  2  0  0  0  0  0  0
  185.1100  177.9750  143.8820 C   0  0  1  0  0  3  0  0  0  0  0  0
  189.0960  177.2610  146.2700 C   0  0  0  0  0  2  0  0  0  0  0  0
  187.1200  176.9500  144.7270 C   0  0  1  0  0  3  0  0  0  0  0  0
  189.0610  176.7840  141.4440 O   0  0  0  0  0  0  0  0  0  0  0  0
  189.9770  177.3270  140.5260 C   0  0  0  0  0  2  0  0  0  0  0  0
  190.5380  175.6280  138.9430 O   0  0  0  0  0  1  0  0  0  0  0  0
  189.7310  176.7520  139.1450 C   0  0  2  0  0  3  0  0  0  0  0  0
  190.0070  177.8110  138.0790 C   0  0  1  0  0  3  0  0  0  0  0  0
  189.8840  177.2630  136.8000 O   0  0  0  0  0  1  0  0  0  0  0  0
  189.0590  178.9910  138.2220 C   0  0  0  0  0  2  0  0  0  0  0  0
  188.1040  179.0020  137.1250 N   0  0  0  0  0  2  0  0  0  0  0  0
  186.8690  178.9210  137.6760 O   0  0  0  0  0  0  0  0  0  0  0  0
  186.3190  177.7580  137.1350 C   0  0  0  0  0  1  0  0  0  0  0  0
  183.5570  179.7780  143.8310 C   0  0  0  0  0  2  0  0  0  0  0  0
  182.4020  178.8430  143.5280 C   0  0  0  0  0  2  0  0  0  0  0  0
  181.2050  179.6300  143.0100 C   0  0  1  0  0  3  0  0  0  0  0  0
  179.7990  180.0040  141.0850 O   0  0  0  0  0  1  0  0  0  0  0  0
  181.0160  179.4650  141.5060 C   0  0  0  0  0  2  0  0  0  0  0  0
  179.6610  179.3110  143.9480 S   0  0  0  0  0  0  0  0  0  0  0  0
  180.0110  177.5670  144.3350 C   0  0  0  0  0  1  0  0  0  0  0  0
  1 16  1  1  0  0  0
  3 13  1  0  0  0  0
  4 15  1  0  0  0  0
  4 17  1  0  0  0  0
  5  8  1  0  0  0  0
  6  4  1  0  0  0  0
  7  2  1  0  0  0  0
  8 28  1  0  0  0  0
  8 15  1  0  0  0  0
  9  3  1  0  0  0  0
  9  1  1  0  0  0  0
 10  6  1  0  0  0  0
 10  9  1  0  0  0  0
 12 14  1  0  0  0  0
 12  5  1  0  0  0  0
 13 11  1  0  0  0  0
 14  6  1  0  0  0  0
 15  7  1  0  0  0  0
 16 11  1  0  0  0  0
 17  1  1  0  0  0  0
 17  2  1  0  0  0  0
 18 10  1  0  0  0  0
 19 18  1  0  0  0  0
 20 21  1  0  0  0  0
 21 19  1  0  0  0  0
 22 24  1  0  0  0  0
 22 21  1  0  0  0  0
 23 22  1  0  0  0  0
 25 26  1  0  0  0  0
 25 24  1  0  0  0  0
 27 26  1  0  0  0  0
 29 28  1  0  0  0  0
 30 29  1  0  0  0  0
 30 33  1  0  0  0  0
 31 32  1  0  0  0  0
 32 30  1  0  0  0  0
 33 34  1  0  0  0  0
M  END
>  <MODEL>
6

>  <REMARK>
 VINA RESULT:      -6.2      3.413      6.910
  Name = 
  12 active torsions:
  status: ('A' for Active; 'I' for Inactive)
    1  A    between atoms: C_3  and  C_16
    2  A    between atoms: C_3  and  C_19
    3  A    between atoms: C_5  and  O_11
    4  A    between atoms: C_5  and  C_19
    5  A    between atoms: N_8  and  O_12
    6  A    between atoms: N_8  and  C_16
    7  A    between atoms: O_11  and  C_20
    8  A    between atoms: N_17  and  C_28
    9  A    between atoms: C_28  and  C_29
   10  A    between atoms: C_29  and  C_32
   11  A    between atoms: S_31  and  C_32
   12  A    between atoms: C_32  and  C_34
                            x       y       z     vdW  Elec       q    Type
                         _______ _______ _______ _____ _____    ______ ____

>  <TORSDO>
F 12

$$$$
=
 OpenBabel11122412283D

 34 37  0  0  1  0  0  0  0  0999 V2000
  188.7560  177.7920  144.5420 C   0  0  2  0  0  3  0  0  0  0  0  0
  186.6460  177.1660  145.5390 O   0  0  0  0  0  0  0  0  0  0  0  0
  190.9150  178.3870  143.4100 C   0  0  0  0  0  2  0  0  0  0  0  0
  186.6480  177.3470  143.1470 C   0  0  2  0  0  3  0  0  0  0  0  0
  184.4920  178.8980  141.7210 C   0  0  0  0  0  2  0  0  0  0  0  0
  187.4130  178.2510  142.1460 C   0  0  1  0  0  3  0  0  0  0  0  0
  185.6760  178.1090  145.1760 C   0  0  0  0  0  2  0  0  0  0  0  0
  184.9200  179.1830  143.0850 N   0  0  0  0  0  0  0  0  0  0  0  0
  189.6380  177.5580  143.3120 C   0  0  2  0  0  3  0  0  0  0  0  0
  188.9010  177.8530  141.9950 C   0  0  1  0  0  3  0  0  0  0  0  0
  190.8030  178.2170  145.9130 C   0  0  0  0  0  2  0  0  0  0  0  0
  185.5890  179.2940  140.7500 C   0  0  0  0  0  2  0  0  0  0  0  0
  191.6800  178.0120  144.6780 C   0  0  0  0  0  2  0  0  0  0  0  0
  186.7250  178.2850  140.7830 C   0  0  0  0  0  2  0  0  0  0  0  0
  185.3480  177.9200  143.7060 C   0  0  1  0  0  3  0  0  0  0  0  0
  189.5240  177.3910  145.8000 C   0  0  0  0  0  2  0  0  0  0  0  0
  187.4560  176.9870  144.4050 C   0  0  1  0  0  3  0  0  0  0  0  0
  189.1620  176.8920  140.9900 O   0  0  0  0  0  0  0  0  0  0  0  0
  190.4040  177.1760  140.3970 C   0  0  0  0  0  2  0  0  0  0  0  0
  188.9950  176.7200  138.5220 O   0  0  0  0  0  1  0  0  0  0  0  0
  190.3090  177.0190  138.8910 C   0  0  2  0  0  3  0  0  0  0  0  0
  191.2630  175.9250  138.4180 C   0  0  1  0  0  3  0  0  0  0  0  0
  190.5490  174.8060  137.9850 O   0  0  0  0  0  1  0  0  0  0  0  0
  192.1580  176.4260  137.2950 C   0  0  0  0  0  2  0  0  0  0  0  0
  193.5180  176.6020  137.7780 N   0  0  0  0  0  2  0  0  0  0  0  0
  194.3090  176.7460  136.6880 O   0  0  0  0  0  0  0  0  0  0  0  0
  194.6020  175.4390  136.2940 C   0  0  0  0  0  1  0  0  0  0  0  0
  183.7190  179.6540  143.7640 C   0  0  0  0  0  2  0  0  0  0  0  0
  182.6090  178.6310  143.6130 C   0  0  0  0  0  2  0  0  0  0  0  0
  181.2740  179.3270  143.3850 C   0  0  1  0  0  3  0  0  0  0  0  0
  180.0960  180.7290  141.8140 O   0  0  0  0  0  1  0  0  0  0  0  0
  181.0910  179.7580  141.9330 C   0  0  0  0  0  2  0  0  0  0  0  0
  179.8390  178.3780  144.0190 S   0  0  0  0  0  0  0  0  0  0  0  0
  179.4600  177.5120  142.4630 C   0  0  0  0  0  1  0  0  0  0  0  0
  1 16  1  1  0  0  0
  3 13  1  0  0  0  0
  4 15  1  0  0  0  0
  4 17  1  0  0  0  0
  5  8  1  0  0  0  0
  6  4  1  0  0  0  0
  7  2  1  0  0  0  0
  8 15  1  0  0  0  0
  8 28  1  0  0  0  0
  9  3  1  0  0  0  0
  9  1  1  0  0  0  0
 10  6  1  0  0  0  0
 10  9  1  0  0  0  0
 12 14  1  0  0  0  0
 12  5  1  0  0  0  0
 13 11  1  0  0  0  0
 14  6  1  0  0  0  0
 15  7  1  0  0  0  0
 16 11  1  0  0  0  0
 17  1  1  0  0  0  0
 17  2  1  0  0  0  0
 18 10  1  0  0  0  0
 19 18  1  0  0  0  0
 20 21  1  0  0  0  0
 21 19  1  0  0  0  0
 22 21  1  0  0  0  0
 23 22  1  0  0  0  0
 24 25  1  0  0  0  0
 24 22  1  0  0  0  0
 26 25  1  0  0  0  0
 27 26  1  0  0  0  0
 29 28  1  0  0  0  0
 30 29  1  0  0  0  0
 30 33  1  0  0  0  0
 31 32  1  0  0  0  0
 32 30  1  0  0  0  0
 34 33  1  0  0  0  0
M  END
>  <MODEL>
7

>  <REMARK>
 VINA RESULT:      -6.1      4.378      7.740
  Name = 
  12 active torsions:
  status: ('A' for Active; 'I' for Inactive)
    1  A    between atoms: C_3  and  C_16
    2  A    between atoms: C_3  and  C_19
    3  A    between atoms: C_5  and  O_11
    4  A    between atoms: C_5  and  C_19
    5  A    between atoms: N_8  and  O_12
    6  A    between atoms: N_8  and  C_16
    7  A    between atoms: O_11  and  C_20
    8  A    between atoms: N_17  and  C_28
    9  A    between atoms: C_28  and  C_29
   10  A    between atoms: C_29  and  C_32
   11  A    between atoms: S_31  and  C_32
   12  A    between atoms: C_32  and  C_34
                            x       y       z     vdW  Elec       q    Type
                         _______ _______ _______ _____ _____    ______ ____

>  <TORSDO>
F 12

$$$$
=
 OpenBabel11122412283D

 34 37  0  0  1  0  0  0  0  0999 V2000
  185.1670  178.1160  139.9630 C   0  0  2  0  0  3  0  0  0  0  0  0
  185.4000  178.9180  142.2300 O   0  0  0  0  0  0  0  0  0  0  0  0
  185.0220  177.3380  137.5810 C   0  0  0  0  0  2  0  0  0  0  0  0
  187.4460  178.6810  140.9990 C   0  0  2  0  0  3  0  0  0  0  0  0
  189.8120  177.2590  142.2090 C   0  0  0  0  0  2  0  0  0  0  0  0
  187.9190  177.7000  139.8950 C   0  0  1  0  0  3  0  0  0  0  0  0
  186.2320  178.0400  142.9370 C   0  0  0  0  0  2  0  0  0  0  0  0
  188.4300  176.9760  142.5750 N   0  0  0  0  0  0  0  0  0  0  0  0
  185.7540  178.2560  138.5550 C   0  0  2  0  0  3  0  0  0  0  0  0
  187.2680  177.9850  138.5200 C   0  0  1  0  0  3  0  0  0  0  0  0
  182.9390  177.5740  138.9640 C   0  0  0  0  0  2  0  0  0  0  0  0
  190.0780  176.7610  140.8010 C   0  0  0  0  0  2  0  0  0  0  0  0
  183.5350  177.6860  137.5610 C   0  0  0  0  0  2  0  0  0  0  0  0
  189.4420  177.6850  139.7750 C   0  0  0  0  0  2  0  0  0  0  0  0
  187.6540  178.2180  142.4380 C   0  0  1  0  0  3  0  0  0  0  0  0
  183.6860  178.4890  139.9320 C   0  0  0  0  0  2  0  0  0  0  0  0
  185.9440  179.0100  140.9370 C   0  0  1  0  0  3  0  0  0  0  0  0
  187.9740  178.9010  137.7050 O   0  0  0  0  0  0  0  0  0  0  0  0
  187.9120  178.4650  136.3700 C   0  0  0  0  0  2  0  0  0  0  0  0
  189.7230  177.8340  134.9450 O   0  0  0  0  0  1  0  0  0  0  0  0
  189.0220  177.4680  136.0970 C   0  0  2  0  0  3  0  0  0  0  0  0
  188.4410  176.0640  135.9500 C   0  0  1  0  0  3  0  0  0  0  0  0
  188.8140  175.5050  134.7250 O   0  0  0  0  0  1  0  0  0  0  0  0
  188.9000  175.1590  137.0830 C   0  0  0  0  0  2  0  0  0  0  0  0
  190.2340  174.6490  136.8090 N   0  0  0  0  0  2  0  0  0  0  0  0
  190.9280  174.7140  137.9700 O   0  0  0  0  0  0  0  0  0  0  0  0
  191.9280  175.6560  137.7280 C   0  0  0  0  0  1  0  0  0  0  0  0
  188.4820  176.6100  143.9850 C   0  0  0  0  0  2  0  0  0  0  0  0
  189.2040  177.6890  144.7690 C   0  0  0  0  0  2  0  0  0  0  0  0
  189.7840  177.1130  146.0540 C   0  0  1  0  0  3  0  0  0  0  0  0
  191.8330  175.8650  145.7990 O   0  0  0  0  0  1  0  0  0  0  0  0
  191.3090  177.1330  146.0570 C   0  0  0  0  0  2  0  0  0  0  0  0
  189.0720  177.8570  147.5720 S   0  0  0  0  0  0  0  0  0  0  0  0
  187.3430  177.8710  147.0040 C   0  0  0  0  0  1  0  0  0  0  0  0
  1 16  1  6  0  0  0
  1 17  1  0  0  0  0
  2  7  1  0  0  0  0
  3  9  1  0  0  0  0
  4 15  1  0  0  0  0
  5  8  1  0  0  0  0
  6  4  1  0  0  0  0
  8 28  1  0  0  0  0
  9  1  1  0  0  0  0
 10  9  1  0  0  0  0
 10  6  1  0  0  0  0
 11 16  1  0  0  0  0
 12  5  1  0  0  0  0
 13  3  1  0  0  0  0
 13 11  1  0  0  0  0
 14  6  1  0  0  0  0
 14 12  1  0  0  0  0
 15  8  1  0  0  0  0
 15  7  1  0  0  0  0
 17  4  1  0  0  0  0
 17  2  1  0  0  0  0
 18 10  1  0  0  0  0
 19 18  1  0  0  0  0
 20 21  1  0  0  0  0
 21 19  1  0  0  0  0
 22 21  1  0  0  0  0
 22 24  1  0  0  0  0
 23 22  1  0  0  0  0
 25 24  1  0  0  0  0
 25 26  1  0  0  0  0
 27 26  1  0  0  0  0
 28 29  1  0  0  0  0
 29 30  1  0  0  0  0
 30 32  1  0  0  0  0
 30 33  1  0  0  0  0
 31 32  1  0  0  0  0
 34 33  1  0  0  0  0
M  END
>  <MODEL>
8

>  <REMARK>
 VINA RESULT:      -6.1      3.315      4.738
  Name = 
  12 active torsions:
  status: ('A' for Active; 'I' for Inactive)
    1  A    between atoms: C_3  and  C_16
    2  A    between atoms: C_3  and  C_19
    3  A    between atoms: C_5  and  O_11
    4  A    between atoms: C_5  and  C_19
    5  A    between atoms: N_8  and  O_12
    6  A    between atoms: N_8  and  C_16
    7  A    between atoms: O_11  and  C_20
    8  A    between atoms: N_17  and  C_28
    9  A    between atoms: C_28  and  C_29
   10  A    between atoms: C_29  and  C_32
   11  A    between atoms: S_31  and  C_32
   12  A    between atoms: C_32  and  C_34
                            x       y       z     vdW  Elec       q    Type
                         _______ _______ _______ _____ _____    ______ ____

>  <TORSDO>
F 12

$$$$
=
 OpenBabel11122412283D

 34 37  0  0  1  0  0  0  0  0999 V2000
  188.2290  177.5060  141.6990 C   0  0  2  0  0  3  0  0  0  0  0  0
  187.7390  178.9690  139.8380 O   0  0  0  0  0  0  0  0  0  0  0  0
  188.6760  176.0570  143.6980 C   0  0  0  0  0  2  0  0  0  0  0  0
  186.1230  178.9710  141.6120 C   0  0  2  0  0  3  0  0  0  0  0  0
  183.1820  178.6970  141.0120 C   0  0  0  0  0  2  0  0  0  0  0  0
  185.6220  177.8860  142.6000 C   0  0  1  0  0  3  0  0  0  0  0  0
  186.4980  178.6100  139.2950 C   0  0  0  0  0  2  0  0  0  0  0  0
  184.2310  178.1540  140.1590 N   0  0  0  0  0  0  0  0  0  0  0  0
  188.1030  177.3880  143.2210 C   0  0  2  0  0  3  0  0  0  0  0  0
  186.6540  177.5590  143.7060 C   0  0  1  0  0  3  0  0  0  0  0  0
  190.2870  176.0870  141.7720 C   0  0  0  0  0  2  0  0  0  0  0  0
  183.1170  177.9050  142.3050 C   0  0  0  0  0  2  0  0  0  0  0  0
  190.1430  175.9470  143.2870 C   0  0  0  0  0  2  0  0  0  0  0  0
  184.2770  178.2680  143.2160 C   0  0  0  0  0  2  0  0  0  0  0  0
  185.4090  179.0290  140.2640 C   0  0  1  0  0  3  0  0  0  0  0  0
  189.7020  177.4180  141.3040 C   0  0  0  0  0  2  0  0  0  0  0  0
  187.6060  178.8280  141.2310 C   0  0  1  0  0  3  0  0  0  0  0  0
  186.5530  178.3560  144.8710 O   0  0  0  0  0  0  0  0  0  0  0  0
  186.5100  177.5160  145.9960 C   0  0  0  0  0  2  0  0  0  0  0  0
  186.2260  179.6680  146.9950 O   0  0  0  0  0  1  0  0  0  0  0  0
  186.5800  178.3440  147.2650 C   0  0  2  0  0  3  0  0  0  0  0  0
  187.9860  178.2740  147.8590 C   0  0  1  0  0  3  0  0  0  0  0  0
  187.9270  178.2220  149.2530 O   0  0  0  0  0  1  0  0  0  0  0  0
  188.7430  177.0630  147.3340 C   0  0  0  0  0  2  0  0  0  0  0  0
  190.0210  177.4750  146.7750 N   0  0  0  0  0  2  0  0  0  0  0  0
  190.9730  177.1400  147.6780 O   0  0  0  0  0  0  0  0  0  0  0  0
  191.6290  176.0490  147.1080 C   0  0  0  0  0  1  0  0  0  0  0  0
  183.6990  178.2470  138.8040 C   0  0  0  0  0  2  0  0  0  0  0  0
  183.4880  176.8550  138.2400 C   0  0  0  0  0  2  0  0  0  0  0  0
  182.0030  176.5240  138.1860 C   0  0  1  0  0  3  0  0  0  0  0  0
  180.5370  176.4830  140.1020 O   0  0  0  0  0  1  0  0  0  0  0  0
  181.5340  175.7760  139.4300 C   0  0  0  0  0  2  0  0  0  0  0  0
  180.9460  177.9750  137.8040 S   0  0  0  0  0  0  0  0  0  0  0  0
  181.2880  178.0130  136.0160 C   0  0  0  0  0  1  0  0  0  0  0  0
  1 16  1  1  0  0  0
  1  9  1  0  0  0  0
  2 17  1  0  0  0  0
  4  6  1  0  0  0  0
  5 12  1  0  0  0  0
  6 14  1  0  0  0  0
  6 10  1  0  0  0  0
  7  2  1  0  0  0  0
  7 15  1  0  0  0  0
  8 15  1  0  0  0  0
  8  5  1  0  0  0  0
  9  3  1  0  0  0  0
  9 10  1  0  0  0  0
 10 18  1  0  0  0  0
 11 13  1  0  0  0  0
 12 14  1  0  0  0  0
 13  3  1  0  0  0  0
 15  4  1  0  0  0  0
 16 11  1  0  0  0  0
 17  4  1  0  0  0  0
 17  1  1  0  0  0  0
 18 19  1  0  0  0  0
 19 21  1  0  0  0  0
 20 21  1  0  0  0  0
 21 22  1  0  0  0  0
 22 23  1  0  0  0  0
 24 22  1  0  0  0  0
 25 24  1  0  0  0  0
 25 26  1  0  0  0  0
 27 26  1  0  0  0  0
 28  8  1  0  0  0  0
 29 28  1  0  0  0  0
 30 29  1  0  0  0  0
 30 32  1  0  0  0  0
 32 31  1  0  0  0  0
 33 30  1  0  0  0  0
 34 33  1  0  0  0  0
M  END
>  <MODEL>
9

>  <REMARK>
 VINA RESULT:      -5.9      3.141      8.950
  Name = 
  12 active torsions:
  status: ('A' for Active; 'I' for Inactive)
    1  A    between atoms: C_3  and  C_16
    2  A    between atoms: C_3  and  C_19
    3  A    between atoms: C_5  and  O_11
    4  A    between atoms: C_5  and  C_19
    5  A    between atoms: N_8  and  O_12
    6  A    between atoms: N_8  and  C_16
    7  A    between atoms: O_11  and  C_20
    8  A    between atoms: N_17  and  C_28
    9  A    between atoms: C_28  and  C_29
   10  A    between atoms: C_29  and  C_32
   11  A    between atoms: S_31  and  C_32
   12  A    between atoms: C_32  and  C_34
                            x       y       z     vdW  Elec       q    Type
                         _______ _______ _______ _____ _____    ______ ____

>  <TORSDO>
F 12

$$$$
