=
 OpenBabel11122410393D

 32 37  0  0  1  0  0  0  0  0999 V2000
  182.1520  180.1920  139.6910 O   0  0  0  0  0  0  0  0  0  0  0  0
  186.0400  177.9730  142.1640 N   0  0  1  0  0  0  0  0  0  0  0  0
  185.2840  178.7620  146.9900 C   0  0  0  0  0  3  0  0  0  0  0  0
  186.5520  178.2450  147.2590 C   0  0  0  0  0  3  0  0  0  0  0  0
  188.4490  177.7470  141.4020 C   0  0  0  0  0  0  0  0  0  0  0  0
  189.7230  177.0320  141.8100 C   0  0  1  0  0  3  0  0  0  0  0  0
  184.2370  178.1340  140.5280 C   0  0  1  0  0  3  0  0  0  0  0  0
  183.7300  178.2880  142.9800 C   0  0  0  0  0  2  0  0  0  0  0  0
  191.1810  176.6740  143.6030 C   0  0  2  0  0  3  0  0  0  0  0  0
  181.8210  178.4490  141.3250 C   0  0  0  0  0  2  0  0  0  0  0  0
  184.8410  178.8770  145.6700 C   0  0  0  0  0  3  0  0  0  0  0  0
  185.2030  178.6710  143.1720 C   0  0  1  0  0  3  0  0  0  0  0  0
  185.6570  178.4600  144.6060 C   0  0  0  0  0  0  0  0  0  0  0  0
  187.8050  177.5010  143.7530 C   0  0  2  0  0  3  0  0  0  0  0  0
  191.9770  177.2970  142.4680 C   0  0  0  0  0  2  0  0  0  0  0  0
  183.2090  179.8300  138.8170 C   0  0  0  0  0  2  0  0  0  0  0  0
  183.3000  178.7310  141.5870 C   0  0  2  0  0  3  0  0  0  0  0  0
  190.9540  177.8520  141.5140 C   0  0  0  0  0  2  0  0  0  0  0  0
  183.8750  178.4550  139.0710 C   0  0  0  0  0  2  0  0  0  0  0  0
  181.3720  179.0570  139.9920 C   0  0  1  0  0  3  0  0  0  0  0  0
  187.3840  177.8530  146.2080 C   0  0  0  0  0  3  0  0  0  0  0  0
  186.9540  177.9880  144.8810 C   0  0  0  0  0  0  0  0  0  0  0  0
  189.1760  177.6390  143.9970 O   0  0  0  0  0  0  0  0  0  0  0  0
  185.6710  178.5310  140.8570 C   0  0  0  0  0  2  0  0  0  0  0  0
  188.2760  178.0030  140.2210 O   0  0  0  0  0  0  0  0  0  0  0  0
  191.6570  175.2550  143.8460 C   0  0  0  0  0  1  0  0  0  0  0  0
  187.4640  178.2280  142.4590 C   0  0  2  0  0  3  0  0  0  0  0  0
  189.7660  176.6680  143.2410 N   0  0  1  0  0  0  0  0  0  0  0  0
  179.9020  179.4320  140.0730 C   0  0  0  0  0  2  0  0  0  0  0  0
  179.7410  180.7920  140.6600 C   0  0  0  0  0  0  0  0  0  0  0  0
  179.6280  181.7930  139.9070 O   0  0  0  0  0  0  0  0  0  0  0  0
  179.6840  180.9560  142.0730 N   0  0  0  0  0  1  0  0  0  0  0  0
  1 20  1  0  0  0  0
  2 24  1  6  0  0  0
  2 27  1  0  0  0  0
  2 12  1  0  0  0  0
  3  4  1  0  0  0  0
  5  6  1  0  0  0  0
  6 18  1  1  0  0  0
  6 28  1  0  0  0  0
  7 19  1  6  0  0  0
  7 24  1  0  0  0  0
  7 17  1  0  0  0  0
  9 26  1  6  0  0  0
 11  3  2  0  0  0  0
 12  8  1  1  0  0  0
 12 13  1  0  0  0  0
 13 22  2  0  0  0  0
 13 11  1  0  0  0  0
 14 23  1  1  0  0  0
 14 22  1  0  0  0  0
 15  9  1  0  0  0  0
 16 19  1  0  0  0  0
 16  1  1  0  0  0  0
 17 10  1  6  0  0  0
 17  8  1  0  0  0  0
 18 15  1  0  0  0  0
 20 29  1  1  0  0  0
 20 10  1  0  0  0  0
 21  4  2  0  0  0  0
 22 21  1  0  0  0  0
 25  5  2  0  0  0  0
 27  5  1  6  0  0  0
 27 14  1  0  0  0  0
 28  9  1  0  0  0  0
 28 23  1  1  0  0  0
 29 30  1  0  0  0  0
 30 32  1  0  0  0  0
 31 30  2  0  0  0  0
M  END
>  <MODEL>
1

>  <REMARK>
 VINA RESULT:     -10.1      0.000      0.000
  Name = 
  2 active torsions:
  status: ('A' for Active; 'I' for Inactive)
    1  A    between atoms: C_20  and  C_29
    2  A    between atoms: C_29  and  C_30
                            x       y       z     vdW  Elec       q    Type
                         _______ _______ _______ _____ _____    ______ ____

>  <TORSDO>
F 2

$$$$
=
 OpenBabel11122410393D

 32 37  0  0  1  0  0  0  0  0999 V2000
  189.8670  178.3070  145.8660 O   0  0  0  0  0  0  0  0  0  0  0  0
  185.5570  177.9570  143.1350 N   0  0  1  0  0  0  0  0  0  0  0  0
  186.8450  178.4680  138.3850 C   0  0  0  0  0  3  0  0  0  0  0  0
  185.4940  178.5290  138.0390 C   0  0  0  0  0  3  0  0  0  0  0  0
  183.2310  178.7340  143.7830 C   0  0  0  0  0  0  0  0  0  0  0  0
  181.8010  178.6210  143.2900 C   0  0  1  0  0  3  0  0  0  0  0  0
  187.1690  177.3190  144.8520 C   0  0  1  0  0  3  0  0  0  0  0  0
  187.8340  177.3030  142.4330 C   0  0  0  0  0  2  0  0  0  0  0  0
  180.4300  178.9400  141.4230 C   0  0  2  0  0  3  0  0  0  0  0  0
  189.5400  176.6210  144.1730 C   0  0  0  0  0  2  0  0  0  0  0  0
  187.2200  178.3590  139.7270 C   0  0  0  0  0  3  0  0  0  0  0  0
  186.6640  178.2670  142.1950 C   0  0  1  0  0  3  0  0  0  0  0  0
  186.2460  178.2950  140.7350 C   0  0  0  0  0  0  0  0  0  0  0  0
  183.8490  178.2960  141.4530 C   0  0  2  0  0  3  0  0  0  0  0  0
  179.8990  179.8120  142.5490 C   0  0  0  0  0  2  0  0  0  0  0  0
  188.7070  178.3970  146.6780 C   0  0  0  0  0  2  0  0  0  0  0  0
  188.3280  177.4970  143.8600 C   0  0  2  0  0  3  0  0  0  0  0  0
  181.0040  179.8710  143.5690 C   0  0  0  0  0  2  0  0  0  0  0  0
  187.5490  177.4290  146.3350 C   0  0  0  0  0  2  0  0  0  0  0  0
  190.1240  176.9580  145.5490 C   0  0  1  0  0  3  0  0  0  0  0  0
  184.5160  178.4950  139.0360 C   0  0  0  0  0  3  0  0  0  0  0  0
  184.8870  178.4100  140.3850 C   0  0  0  0  0  0  0  0  0  0  0  0
  182.6730  178.9950  141.1570 O   0  0  0  0  0  0  0  0  0  0  0  0
  186.0490  178.2830  144.4800 C   0  0  0  0  0  2  0  0  0  0  0  0
  183.4270  178.8690  144.9810 O   0  0  0  0  0  0  0  0  0  0  0  0
  179.4250  177.8530  141.0980 C   0  0  0  0  0  1  0  0  0  0  0  0
  184.3850  178.7860  142.7920 C   0  0  2  0  0  3  0  0  0  0  0  0
  181.6930  178.3400  141.8440 N   0  0  1  0  0  0  0  0  0  0  0  0
  191.6200  176.6910  145.5470 C   0  0  0  0  0  2  0  0  0  0  0  0
  192.0470  176.1000  146.8460 C   0  0  0  0  0  0  0  0  0  0  0  0
  192.4450  174.9070  146.8950 O   0  0  0  0  0  0  0  0  0  0  0  0
  192.0350  176.8930  148.0280 N   0  0  0  0  0  1  0  0  0  0  0  0
  1 16  1  0  0  0  0
  2 24  1  1  0  0  0
  3 11  1  0  0  0  0
  4  3  2  0  0  0  0
  4 21  1  0  0  0  0
  5 25  2  0  0  0  0
  6 18  1  6  0  0  0
  6  5  1  0  0  0  0
  7 24  1  6  0  0  0
  7 19  1  0  0  0  0
  9 26  1  1  0  0  0
  9 28  1  0  0  0  0
  9 15  1  0  0  0  0
 10 20  1  0  0  0  0
 11 13  2  0  0  0  0
 12  8  1  6  0  0  0
 12  2  1  0  0  0  0
 13 12  1  0  0  0  0
 14 22  1  6  0  0  0
 14 27  1  0  0  0  0
 15 18  1  0  0  0  0
 17  8  1  6  0  0  0
 17 10  1  0  0  0  0
 17  7  1  0  0  0  0
 19 16  1  0  0  0  0
 20 29  1  6  0  0  0
 20  1  1  0  0  0  0
 21 22  2  0  0  0  0
 22 13  1  0  0  0  0
 23 14  1  0  0  0  0
 27  2  1  0  0  0  0
 27  5  1  1  0  0  0
 28 23  1  6  0  0  0
 28  6  1  0  0  0  0
 29 30  1  0  0  0  0
 30 31  2  0  0  0  0
 30 32  1  0  0  0  0
M  END
>  <MODEL>
2

>  <REMARK>
 VINA RESULT:      -9.1      2.332      8.923
  Name = 
  2 active torsions:
  status: ('A' for Active; 'I' for Inactive)
    1  A    between atoms: C_20  and  C_29
    2  A    between atoms: C_29  and  C_30
                            x       y       z     vdW  Elec       q    Type
                         _______ _______ _______ _____ _____    ______ ____

>  <TORSDO>
F 2

$$$$
=
 OpenBabel11122410393D

 32 37  0  0  1  0  0  0  0  0999 V2000
  189.6960  178.2530  145.4190 O   0  0  0  0  0  0  0  0  0  0  0  0
  186.5420  177.8370  141.4140 N   0  0  1  0  0  0  0  0  0  0  0  0
  189.2780  178.6250  137.3680 C   0  0  0  0  0  3  0  0  0  0  0  0
  188.1120  178.6420  136.6000 C   0  0  0  0  0  3  0  0  0  0  0  0
  184.0900  178.4770  141.2850 C   0  0  0  0  0  0  0  0  0  0  0  0
  182.9090  178.3240  140.3460 C   0  0  1  0  0  3  0  0  0  0  0  0
  187.5390  177.1930  143.5460 C   0  0  1  0  0  3  0  0  0  0  0  0
  188.9560  177.3200  141.4800 C   0  0  0  0  0  2  0  0  0  0  0  0
  182.2060  178.6670  138.1430 C   0  0  2  0  0  3  0  0  0  0  0  0
  190.0380  176.6350  143.6630 C   0  0  0  0  0  2  0  0  0  0  0  0
  189.2000  178.4710  138.7540 C   0  0  0  0  0  3  0  0  0  0  0  0
  187.8750  178.2400  140.8990 C   0  0  1  0  0  3  0  0  0  0  0  0
  187.9550  178.3170  139.3850 C   0  0  0  0  0  0  0  0  0  0  0  0
  185.4590  178.1760  139.2750 C   0  0  2  0  0  3  0  0  0  0  0  0
  181.2870  179.4610  139.0560 C   0  0  0  0  0  2  0  0  0  0  0  0
  188.3310  178.2530  145.8070 C   0  0  0  0  0  2  0  0  0  0  0  0
  188.9450  177.4690  142.9960 C   0  0  2  0  0  3  0  0  0  0  0  0
  181.9940  179.5220  140.3850 C   0  0  0  0  0  2  0  0  0  0  0  0
  187.4060  177.2500  145.0740 C   0  0  0  0  0  2  0  0  0  0  0  0
  190.1200  176.9330  145.1640 C   0  0  1  0  0  3  0  0  0  0  0  0
  186.8670  178.5180  137.2180 C   0  0  0  0  0  3  0  0  0  0  0  0
  186.7810  178.3870  138.6110 C   0  0  0  0  0  0  0  0  0  0  0  0
  184.4060  178.8350  138.6300 O   0  0  0  0  0  0  0  0  0  0  0  0
  186.5480  178.1210  142.8550 C   0  0  0  0  0  2  0  0  0  0  0  0
  183.8770  178.5660  142.4840 O   0  0  0  0  0  0  0  0  0  0  0  0
  181.4260  177.5520  137.4740 C   0  0  0  0  0  1  0  0  0  0  0  0
  185.5000  178.6280  140.7290 C   0  0  2  0  0  3  0  0  0  0  0  0
  183.2950  178.1050  138.9380 N   0  0  1  0  0  0  0  0  0  0  0  0
  191.5470  176.7340  145.6460 C   0  0  0  0  0  2  0  0  0  0  0  0
  191.5630  176.3230  147.0780 C   0  0  0  0  0  0  0  0  0  0  0  0
  190.4840  176.2300  147.7190 O   0  0  0  0  0  0  0  0  0  0  0  0
  192.7960  176.0030  147.7130 N   0  0  0  0  0  1  0  0  0  0  0  0
  1 16  1  0  0  0  0
  2 24  1  1  0  0  0
  3 11  1  0  0  0  0
  4 21  1  0  0  0  0
  4  3  2  0  0  0  0
  5 25  2  0  0  0  0
  6 18  1  6  0  0  0
  6  5  1  0  0  0  0
  7 24  1  6  0  0  0
  7 19  1  0  0  0  0
  9 26  1  1  0  0  0
  9 28  1  0  0  0  0
  9 15  1  0  0  0  0
 10 20  1  0  0  0  0
 11 13  2  0  0  0  0
 12  2  1  0  0  0  0
 12  8  1  6  0  0  0
 13 12  1  0  0  0  0
 14 22  1  6  0  0  0
 14 27  1  0  0  0  0
 15 18  1  0  0  0  0
 17  8  1  6  0  0  0
 17  7  1  0  0  0  0
 17 10  1  0  0  0  0
 19 16  1  0  0  0  0
 20  1  1  0  0  0  0
 20 29  1  6  0  0  0
 21 22  2  0  0  0  0
 22 13  1  0  0  0  0
 23 14  1  0  0  0  0
 27  5  1  1  0  0  0
 27  2  1  0  0  0  0
 28 23  1  6  0  0  0
 28  6  1  0  0  0  0
 29 30  1  0  0  0  0
 30 32  1  0  0  0  0
 30 31  2  0  0  0  0
M  END
>  <MODEL>
3

>  <REMARK>
 VINA RESULT:      -9.0      2.555      8.823
  Name = 
  2 active torsions:
  status: ('A' for Active; 'I' for Inactive)
    1  A    between atoms: C_20  and  C_29
    2  A    between atoms: C_29  and  C_30
                            x       y       z     vdW  Elec       q    Type
                         _______ _______ _______ _____ _____    ______ ____

>  <TORSDO>
F 2

$$$$
=
 OpenBabel11122410393D

 32 37  0  0  1  0  0  0  0  0999 V2000
  190.8880  175.7260  138.4090 O   0  0  0  0  0  0  0  0  0  0  0  0
  189.3120  177.4760  142.9500 N   0  0  1  0  0  0  0  0  0  0  0  0
  192.4120  175.6280  146.3340 C   0  0  0  0  0  3  0  0  0  0  0  0
  191.5790  176.1150  147.3430 C   0  0  0  0  0  3  0  0  0  0  0  0
  186.9340  177.9400  143.7030 C   0  0  0  0  0  0  0  0  0  0  0  0
  186.2000  178.5890  144.8610 C   0  0  1  0  0  3  0  0  0  0  0  0
  189.9080  177.6180  140.5880 C   0  0  1  0  0  3  0  0  0  0  0  0
  191.6220  176.9150  142.2800 C   0  0  0  0  0  2  0  0  0  0  0  0
  186.0030  178.5940  147.1910 C   0  0  2  0  0  3  0  0  0  0  0  0
  192.2960  177.0590  139.8450 C   0  0  0  0  0  2  0  0  0  0  0  0
  192.0550  175.7900  144.9930 C   0  0  0  0  0  3  0  0  0  0  0  0
  190.4450  176.5480  143.1920 C   0  0  1  0  0  3  0  0  0  0  0  0
  190.8680  176.4550  144.6470 C   0  0  0  0  0  0  0  0  0  0  0  0
  188.7660  177.6460  145.3030 C   0  0  2  0  0  3  0  0  0  0  0  0
  184.6410  178.2600  146.6060 C   0  0  0  0  0  2  0  0  0  0  0  0
  189.5940  176.3040  138.3430 C   0  0  0  0  0  2  0  0  0  0  0  0
  191.1660  176.7740  140.8330 C   0  0  2  0  0  3  0  0  0  0  0  0
  184.8970  177.8940  145.1690 C   0  0  0  0  0  2  0  0  0  0  0  0
  189.3810  177.6110  139.1470 C   0  0  0  0  0  2  0  0  0  0  0  0
  191.8650  176.7420  138.4080 C   0  0  1  0  0  3  0  0  0  0  0  0
  190.3820  176.7530  147.0120 C   0  0  0  0  0  3  0  0  0  0  0  0
  190.0070  176.8970  145.6700 C   0  0  0  0  0  0  0  0  0  0  0  0
  187.7380  177.5020  146.2410 O   0  0  0  0  0  0  0  0  0  0  0  0
  188.8340  177.2050  141.5870 C   0  0  0  0  0  2  0  0  0  0  0  0
  186.4070  177.9420  142.6020 O   0  0  0  0  0  0  0  0  0  0  0  0
  185.9470  179.9400  147.8870 C   0  0  0  0  0  1  0  0  0  0  0  0
  188.2480  177.2080  143.9390 C   0  0  2  0  0  3  0  0  0  0  0  0
  186.9850  178.6330  146.1110 N   0  0  1  0  0  0  0  0  0  0  0  0
  193.0750  176.3110  137.5970 C   0  0  0  0  0  2  0  0  0  0  0  0
  192.6550  175.4790  136.4340 C   0  0  0  0  0  0  0  0  0  0  0  0
  192.0040  175.9980  135.4910 O   0  0  0  0  0  0  0  0  0  0  0  0
  193.0170  174.1040  136.3750 N   0  0  0  0  0  1  0  0  0  0  0  0
  2 24  1  6  0  0  0
  2 12  1  0  0  0  0
  2 27  1  0  0  0  0
  3  4  1  0  0  0  0
  5  6  1  0  0  0  0
  6 18  1  1  0  0  0
  6 28  1  0  0  0  0
  7 19  1  6  0  0  0
  7 17  1  0  0  0  0
  7 24  1  0  0  0  0
  9 26  1  6  0  0  0
 11  3  2  0  0  0  0
 12  8  1  6  0  0  0
 12 13  1  0  0  0  0
 13 11  1  0  0  0  0
 13 22  2  0  0  0  0
 14 22  1  1  0  0  0
 14 23  1  0  0  0  0
 15  9  1  0  0  0  0
 16  1  1  0  0  0  0
 16 19  1  0  0  0  0
 17 10  1  6  0  0  0
 17  8  1  0  0  0  0
 18 15  1  0  0  0  0
 20 29  1  6  0  0  0
 20  1  1  0  0  0  0
 20 10  1  0  0  0  0
 21  4  2  0  0  0  0
 22 21  1  0  0  0  0
 25  5  2  0  0  0  0
 27  5  1  6  0  0  0
 27 14  1  0  0  0  0
 28 23  1  1  0  0  0
 28  9  1  0  0  0  0
 30 29  1  0  0  0  0
 31 30  2  0  0  0  0
 32 30  1  0  0  0  0
M  END
>  <MODEL>
4

>  <REMARK>
 VINA RESULT:      -9.0      4.022      7.938
  Name = 
  2 active torsions:
  status: ('A' for Active; 'I' for Inactive)
    1  A    between atoms: C_20  and  C_29
    2  A    between atoms: C_29  and  C_30
                            x       y       z     vdW  Elec       q    Type
                         _______ _______ _______ _____ _____    ______ ____

>  <TORSDO>
F 2

$$$$
=
 OpenBabel11122410393D

 32 37  0  0  1  0  0  0  0  0999 V2000
  187.3680  176.6250  144.5860 O   0  0  0  0  0  0  0  0  0  0  0  0
  183.7840  178.7910  141.6500 N   0  0  1  0  0  0  0  0  0  0  0  0
  179.6360  178.9260  144.3440 C   0  0  0  0  0  3  0  0  0  0  0  0
  178.9310  179.3380  143.2120 C   0  0  0  0  0  3  0  0  0  0  0  0
  183.5130  178.6160  139.1330 C   0  0  0  0  0  0  0  0  0  0  0  0
  182.7010  179.2450  138.0170 C   0  0  1  0  0  3  0  0  0  0  0  0
  185.9850  178.5530  142.6740 C   0  0  1  0  0  3  0  0  0  0  0  0
  183.9560  178.8760  144.1120 C   0  0  0  0  0  2  0  0  0  0  0  0
  180.5210  179.7410  137.3320 C   0  0  2  0  0  3  0  0  0  0  0  0
  186.2180  178.6470  145.2250 C   0  0  0  0  0  2  0  0  0  0  0  0
  181.0000  178.6370  144.2510 C   0  0  0  0  0  3  0  0  0  0  0  0
  183.1360  178.3720  142.9180 C   0  0  1  0  0  3  0  0  0  0  0  0
  181.6760  178.7730  143.0280 C   0  0  0  0  0  0  0  0  0  0  0  0
  181.6750  179.3290  140.5880 C   0  0  2  0  0  3  0  0  0  0  0  0
  181.1530  178.8500  136.2760 C   0  0  0  0  0  2  0  0  0  0  0  0
  187.7670  176.7140  143.2280 C   0  0  0  0  0  2  0  0  0  0  0  0
  185.3430  178.2520  144.0350 C   0  0  2  0  0  3  0  0  0  0  0  0
  182.3740  178.2560  136.9260 C   0  0  0  0  0  2  0  0  0  0  0  0
  187.4170  178.0290  142.4900 C   0  0  0  0  0  2  0  0  0  0  0  0
  187.5410  177.8730  145.2170 C   0  0  1  0  0  3  0  0  0  0  0  0
  179.5850  179.4500  141.9840 C   0  0  0  0  0  3  0  0  0  0  0  0
  180.9480  179.1390  141.8800 C   0  0  0  0  0  0  0  0  0  0  0  0
  180.8770  179.0850  139.4650 O   0  0  0  0  0  0  0  0  0  0  0  0
  185.0560  178.0620  141.5710 C   0  0  0  0  0  2  0  0  0  0  0  0
  184.6240  178.1830  138.8750 O   0  0  0  0  0  0  0  0  0  0  0  0
  180.2650  181.1190  136.7540 C   0  0  0  0  0  1  0  0  0  0  0  0
  182.9060  178.4340  140.5180 C   0  0  2  0  0  3  0  0  0  0  0  0
  181.4290  179.8410  138.4720 N   0  0  1  0  0  0  0  0  0  0  0  0
  188.0270  177.6820  146.6430 C   0  0  0  0  0  2  0  0  0  0  0  0
  189.5110  177.5410  146.6760 C   0  0  0  0  0  0  0  0  0  0  0  0
  190.0790  177.1020  147.7080 O   0  0  0  0  0  0  0  0  0  0  0  0
  190.2820  177.8740  145.5270 N   0  0  0  0  0  1  0  0  0  0  0  0
  1 20  1  0  0  0  0
  2 24  1  6  0  0  0
  2 12  1  0  0  0  0
  4  3  2  0  0  0  0
  6 18  1  6  0  0  0
  6 28  1  0  0  0  0
  6  5  1  0  0  0  0
  7 24  1  6  0  0  0
  7 17  1  0  0  0  0
  9 26  1  6  0  0  0
  9 28  1  0  0  0  0
 11  3  1  0  0  0  0
 12 13  1  0  0  0  0
 12  8  1  1  0  0  0
 13 11  2  0  0  0  0
 14 23  1  6  0  0  0
 14 22  1  0  0  0  0
 15 18  1  0  0  0  0
 15  9  1  0  0  0  0
 16  1  1  0  0  0  0
 17  8  1  1  0  0  0
 17 10  1  0  0  0  0
 19  7  1  0  0  0  0
 19 16  1  0  0  0  0
 20 10  1  0  0  0  0
 20 29  1  1  0  0  0
 21  4  1  0  0  0  0
 22 21  2  0  0  0  0
 22 13  1  0  0  0  0
 25  5  2  0  0  0  0
 27  5  1  6  0  0  0
 27 14  1  0  0  0  0
 27  2  1  0  0  0  0
 28 23  1  1  0  0  0
 29 30  1  0  0  0  0
 30 31  2  0  0  0  0
 32 30  1  0  0  0  0
M  END
>  <MODEL>
5

>  <REMARK>
 VINA RESULT:      -9.0      2.236      8.181
  Name = 
  2 active torsions:
  status: ('A' for Active; 'I' for Inactive)
    1  A    between atoms: C_20  and  C_29
    2  A    between atoms: C_29  and  C_30
                            x       y       z     vdW  Elec       q    Type
                         _______ _______ _______ _____ _____    ______ ____

>  <TORSDO>
F 2

$$$$
=
 OpenBabel11122410393D

 32 37  0  0  1  0  0  0  0  0999 V2000
  187.4690  178.9200  146.9030 O   0  0  0  0  0  0  0  0  0  0  0  0
  185.3740  178.0960  142.3100 N   0  0  1  0  0  0  0  0  0  0  0  0
  189.0560  178.3190  139.0130 C   0  0  0  0  0  3  0  0  0  0  0  0
  188.1160  178.2710  137.9810 C   0  0  0  0  0  3  0  0  0  0  0  0
  183.0670  178.7750  141.5020 C   0  0  0  0  0  0  0  0  0  0  0  0
  182.1450  178.5370  140.3220 C   0  0  1  0  0  3  0  0  0  0  0  0
  185.7820  177.6920  144.6810 C   0  0  1  0  0  3  0  0  0  0  0  0
  187.6670  177.5320  143.0340 C   0  0  0  0  0  2  0  0  0  0  0  0
  182.0230  178.6260  137.9880 C   0  0  2  0  0  3  0  0  0  0  0  0
  188.1420  177.0920  145.4800 C   0  0  0  0  0  2  0  0  0  0  0  0
  188.6320  178.3370  140.3440 C   0  0  0  0  0  3  0  0  0  0  0  0
  186.8120  178.4010  142.1020 C   0  0  1  0  0  3  0  0  0  0  0  0
  187.2640  178.2910  140.6570 C   0  0  0  0  0  0  0  0  0  0  0  0
  184.8670  178.1980  139.9450 C   0  0  2  0  0  3  0  0  0  0  0  0
  180.9520  179.5480  138.5490 C   0  0  0  0  0  2  0  0  0  0  0  0
  186.0530  179.0000  146.9350 C   0  0  0  0  0  2  0  0  0  0  0  0
  187.2930  177.8650  144.4720 C   0  0  2  0  0  3  0  0  0  0  0  0
  181.3140  179.7530  139.9960 C   0  0  0  0  0  2  0  0  0  0  0  0
  185.2830  177.9380  146.1120 C   0  0  0  0  0  2  0  0  0  0  0  0
  187.8700  177.5690  146.9110 C   0  0  1  0  0  3  0  0  0  0  0  0
  186.7520  178.2530  138.2790 C   0  0  0  0  0  3  0  0  0  0  0  0
  186.3210  178.2940  139.6120 C   0  0  0  0  0  0  0  0  0  0  0  0
  184.0420  178.7990  138.9870 O   0  0  0  0  0  0  0  0  0  0  0  0
  185.0420  178.5530  143.6660 C   0  0  0  0  0  2  0  0  0  0  0  0
  182.5710  179.0140  142.5920 O   0  0  0  0  0  0  0  0  0  0  0  0
  181.3720  177.4570  137.2760 C   0  0  0  0  0  1  0  0  0  0  0  0
  184.5760  178.8230  141.3030 C   0  0  2  0  0  3  0  0  0  0  0  0
  182.8510  178.1390  139.0880 N   0  0  1  0  0  0  0  0  0  0  0  0
  189.1230  177.3960  147.7530 C   0  0  0  0  0  2  0  0  0  0  0  0
  190.3040  177.1280  146.8830 C   0  0  0  0  0  0  0  0  0  0  0  0
  190.5460  177.8770  145.9020 O   0  0  0  0  0  0  0  0  0  0  0  0
  191.1770  176.0440  147.1820 N   0  0  0  0  0  1  0  0  0  0  0  0
  1 20  1  0  0  0  0
  1 16  1  0  0  0  0
  2 24  1  1  0  0  0
  3 11  1  0  0  0  0
  4 21  1  0  0  0  0
  4  3  2  0  0  0  0
  5 25  2  0  0  0  0
  6 18  1  6  0  0  0
  6  5  1  0  0  0  0
  7 24  1  6  0  0  0
  7 19  1  0  0  0  0
  9 26  1  1  0  0  0
  9 15  1  0  0  0  0
  9 28  1  0  0  0  0
 10 20  1  0  0  0  0
 11 13  2  0  0  0  0
 12  2  1  0  0  0  0
 12  8  1  1  0  0  0
 13 12  1  0  0  0  0
 14 23  1  6  0  0  0
 14 27  1  0  0  0  0
 15 18  1  0  0  0  0
 17  8  1  6  0  0  0
 17  7  1  0  0  0  0
 17 10  1  0  0  0  0
 19 16  1  0  0  0  0
 20 29  1  1  0  0  0
 21 22  2  0  0  0  0
 22 14  1  0  0  0  0
 22 13  1  0  0  0  0
 27  5  1  1  0  0  0
 27  2  1  0  0  0  0
 28 23  1  1  0  0  0
 28  6  1  0  0  0  0
 30 32  1  0  0  0  0
 30 29  1  0  0  0  0
 31 30  2  0  0  0  0
M  END
>  <MODEL>
6

>  <REMARK>
 VINA RESULT:      -8.2      2.376      8.322
  Name = 
  2 active torsions:
  status: ('A' for Active; 'I' for Inactive)
    1  A    between atoms: C_20  and  C_29
    2  A    between atoms: C_29  and  C_30
                            x       y       z     vdW  Elec       q    Type
                         _______ _______ _______ _____ _____    ______ ____

>  <TORSDO>
F 2

$$$$
=
 OpenBabel11122410393D

 32 37  0  0  1  0  0  0  0  0999 V2000
  188.8040  176.4400  138.4130 O   0  0  0  0  0  0  0  0  0  0  0  0
  184.8880  178.5180  140.9640 N   0  0  1  0  0  0  0  0  0  0  0  0
  186.0020  178.2000  145.7740 C   0  0  0  0  0  3  0  0  0  0  0  0
  184.7110  178.6280  146.0880 C   0  0  0  0  0  3  0  0  0  0  0  0
  182.4270  178.4740  140.3510 C   0  0  0  0  0  0  0  0  0  0  0  0
  181.1200  179.1090  140.7880 C   0  0  1  0  0  3  0  0  0  0  0  0
  186.5960  178.3750  139.2280 C   0  0  1  0  0  3  0  0  0  0  0  0
  187.2620  178.4690  141.6440 C   0  0  0  0  0  2  0  0  0  0  0  0
  179.7470  179.4890  142.6420 C   0  0  2  0  0  3  0  0  0  0  0  0
  189.0740  178.3350  139.8820 C   0  0  0  0  0  2  0  0  0  0  0  0
  186.3740  178.0140  144.4400 C   0  0  0  0  0  3  0  0  0  0  0  0
  185.8440  177.9790  141.9640 C   0  0  1  0  0  3  0  0  0  0  0  0
  185.4600  178.2700  143.4050 C   0  0  0  0  0  0  0  0  0  0  0  0
  183.1870  178.9680  142.6270 C   0  0  2  0  0  3  0  0  0  0  0  0
  178.9430  178.7090  141.6150 C   0  0  0  0  0  2  0  0  0  0  0  0
  187.6680  176.6370  137.5870 C   0  0  0  0  0  2  0  0  0  0  0  0
  187.6450  177.9500  140.2640 C   0  0  2  0  0  3  0  0  0  0  0  0
  179.9530  178.1650  140.6400 C   0  0  0  0  0  2  0  0  0  0  0  0
  186.8970  177.9660  137.7790 C   0  0  0  0  0  2  0  0  0  0  0  0
  189.4950  177.6580  138.5720 C   0  0  1  0  0  3  0  0  0  0  0  0
  183.7860  178.8580  145.0680 C   0  0  0  0  0  3  0  0  0  0  0  0
  184.1450  178.6510  143.7300 C   0  0  0  0  0  0  0  0  0  0  0  0
  181.8510  178.7340  142.9730 O   0  0  0  0  0  0  0  0  0  0  0  0
  185.2260  177.8860  139.6820 C   0  0  0  0  0  2  0  0  0  0  0  0
  182.5510  178.1360  139.1840 O   0  0  0  0  0  0  0  0  0  0  0  0
  179.1600  180.8770  142.8050 C   0  0  0  0  0  1  0  0  0  0  0  0
  183.5130  178.1670  141.3730 C   0  0  2  0  0  3  0  0  0  0  0  0
  181.1310  179.5850  142.1860 N   0  0  1  0  0  0  0  0  0  0  0  0
  190.9950  177.4180  138.5830 C   0  0  0  0  0  2  0  0  0  0  0  0
  191.3360  176.2030  137.7890 C   0  0  0  0  0  0  0  0  0  0  0  0
  191.3570  175.0740  138.3440 O   0  0  0  0  0  0  0  0  0  0  0  0
  191.6060  176.3160  136.3960 N   0  0  0  0  0  1  0  0  0  0  0  0
  1 20  1  0  0  0  0
  2 24  1  6  0  0  0
  2 27  1  0  0  0  0
  2 12  1  0  0  0  0
  3  4  1  0  0  0  0
  5  6  1  0  0  0  0
  6 18  1  1  0  0  0
  6 28  1  0  0  0  0
  7 19  1  6  0  0  0
  7 24  1  0  0  0  0
  7 17  1  0  0  0  0
  9 26  1  6  0  0  0
 11  3  2  0  0  0  0
 12  8  1  6  0  0  0
 12 13  1  0  0  0  0
 13 22  2  0  0  0  0
 13 11  1  0  0  0  0
 14 23  1  1  0  0  0
 14 22  1  0  0  0  0
 15  9  1  0  0  0  0
 16 19  1  0  0  0  0
 16  1  1  0  0  0  0
 17 10  1  6  0  0  0
 17  8  1  0  0  0  0
 18 15  1  0  0  0  0
 20 29  1  1  0  0  0
 20 10  1  0  0  0  0
 21  4  2  0  0  0  0
 22 21  1  0  0  0  0
 25  5  2  0  0  0  0
 27  5  1  6  0  0  0
 27 14  1  0  0  0  0
 28  9  1  0  0  0  0
 28 23  1  1  0  0  0
 30 31  2  0  0  0  0
 30 29  1  0  0  0  0
 32 30  1  0  0  0  0
M  END
>  <MODEL>
7

>  <REMARK>
 VINA RESULT:      -8.0      2.621      7.797
  Name = 
  2 active torsions:
  status: ('A' for Active; 'I' for Inactive)
    1  A    between atoms: C_20  and  C_29
    2  A    between atoms: C_29  and  C_30
                            x       y       z     vdW  Elec       q    Type
                         _______ _______ _______ _____ _____    ______ ____

>  <TORSDO>
F 2

$$$$
=
 OpenBabel11122410393D

 32 37  0  0  1  0  0  0  0  0999 V2000
  188.2180  179.2710  137.2180 O   0  0  0  0  0  0  0  0  0  0  0  0
  187.5470  177.8560  142.0870 N   0  0  1  0  0  0  0  0  0  0  0  0
  183.0120  179.3490  143.3840 C   0  0  0  0  0  3  0  0  0  0  0  0
  183.2910  179.0020  144.7070 C   0  0  0  0  0  3  0  0  0  0  0  0
  189.2860  177.7340  143.9310 C   0  0  0  0  0  0  0  0  0  0  0  0
  189.4230  177.2170  145.3500 C   0  0  1  0  0  3  0  0  0  0  0  0
  188.2010  177.5800  139.7530 C   0  0  1  0  0  3  0  0  0  0  0  0
  185.8150  178.0850  140.3410 C   0  0  0  0  0  2  0  0  0  0  0  0
  188.4550  177.2930  147.4770 C   0  0  2  0  0  3  0  0  0  0  0  0
  186.4380  177.7950  137.9050 C   0  0  0  0  0  2  0  0  0  0  0  0
  183.9940  179.2050  142.4010 C   0  0  0  0  0  3  0  0  0  0  0  0
  186.3490  178.6290  141.6720 C   0  0  1  0  0  3  0  0  0  0  0  0
  185.2610  178.6980  142.7290 C   0  0  0  0  0  0  0  0  0  0  0  0
  186.8860  177.8170  144.4160 C   0  0  2  0  0  3  0  0  0  0  0  0
  189.8850  177.7930  147.5950 C   0  0  0  0  0  2  0  0  0  0  0  0
  189.4320  178.8710  137.8340 C   0  0  0  0  0  2  0  0  0  0  0  0
  186.9020  178.2530  139.2870 C   0  0  2  0  0  3  0  0  0  0  0  0
  190.3270  178.0880  146.1860 C   0  0  0  0  0  2  0  0  0  0  0  0
  189.3620  177.6240  138.7500 C   0  0  0  0  0  2  0  0  0  0  0  0
  187.4800  178.1330  136.8340 C   0  0  1  0  0  3  0  0  0  0  0  0
  184.5570  178.5240  145.0510 C   0  0  0  0  0  3  0  0  0  0  0  0
  185.5530  178.4000  144.0740 C   0  0  0  0  0  0  0  0  0  0  0  0
  187.3020  178.1190  145.7180 O   0  0  0  0  0  0  0  0  0  0  0  0
  188.5980  178.1570  141.1060 C   0  0  0  0  0  2  0  0  0  0  0  0
  190.2810  177.7770  143.2250 O   0  0  0  0  0  0  0  0  0  0  0  0
  188.3060  175.9830  148.2260 C   0  0  0  0  0  1  0  0  0  0  0  0
  187.9550  178.2880  143.4390 C   0  0  2  0  0  3  0  0  0  0  0  0
  188.1370  177.0970  146.0650 N   0  0  1  0  0  0  0  0  0  0  0  0
  186.7850  178.3790  135.5060 C   0  0  0  0  0  2  0  0  0  0  0  0
  186.1120  177.1360  135.0310 C   0  0  0  0  0  0  0  0  0  0  0  0
  184.8740  177.1370  134.8080 O   0  0  0  0  0  0  0  0  0  0  0  0
  186.8760  175.9580  134.7980 N   0  0  0  0  0  1  0  0  0  0  0  0
  1 16  1  0  0  0  0
  2 24  1  6  0  0  0
  2 27  1  0  0  0  0
  3  4  1  0  0  0  0
  4 21  2  0  0  0  0
  5  6  1  0  0  0  0
  6 28  1  0  0  0  0
  6 18  1  1  0  0  0
  7 19  1  6  0  0  0
  7 24  1  0  0  0  0
  9 15  1  0  0  0  0
  9 26  1  1  0  0  0
 11 13  1  0  0  0  0
 11  3  2  0  0  0  0
 12  8  1  6  0  0  0
 12  2  1  0  0  0  0
 12 13  1  0  0  0  0
 13 22  2  0  0  0  0
 14 22  1  6  0  0  0
 14 23  1  0  0  0  0
 16 19  1  0  0  0  0
 17 10  1  6  0  0  0
 17  7  1  0  0  0  0
 17  8  1  0  0  0  0
 18 15  1  0  0  0  0
 20 29  1  6  0  0  0
 20  1  1  0  0  0  0
 20 10  1  0  0  0  0
 22 21  1  0  0  0  0
 25  5  2  0  0  0  0
 27  5  1  1  0  0  0
 27 14  1  0  0  0  0
 28 23  1  6  0  0  0
 28  9  1  0  0  0  0
 30 29  1  0  0  0  0
 31 30  2  0  0  0  0
 32 30  1  0  0  0  0
M  END
>  <MODEL>
8

>  <REMARK>
 VINA RESULT:      -7.9      3.273      5.129
  Name = 
  2 active torsions:
  status: ('A' for Active; 'I' for Inactive)
    1  A    between atoms: C_20  and  C_29
    2  A    between atoms: C_29  and  C_30
                            x       y       z     vdW  Elec       q    Type
                         _______ _______ _______ _____ _____    ______ ____

>  <TORSDO>
F 2

$$$$
=
 OpenBabel11122410393D

 32 37  0  0  1  0  0  0  0  0999 V2000
  190.4550  176.3650  141.3080 O   0  0  0  0  0  0  0  0  0  0  0  0
  185.9060  178.6490  140.8030 N   0  0  1  0  0  0  0  0  0  0  0  0
  183.7480  178.5070  145.2530 C   0  0  0  0  0  3  0  0  0  0  0  0
  182.5670  178.9810  144.6800 C   0  0  0  0  0  3  0  0  0  0  0  0
  184.3720  178.6410  138.7820 C   0  0  0  0  0  0  0  0  0  0  0  0
  183.1110  179.3280  138.2930 C   0  0  1  0  0  3  0  0  0  0  0  0
  188.3160  178.3900  140.5240 C   0  0  1  0  0  3  0  0  0  0  0  0
  187.3270  178.5690  142.8220 C   0  0  0  0  0  2  0  0  0  0  0  0
  180.8990  179.8210  138.8680 C   0  0  2  0  0  3  0  0  0  0  0  0
  189.8340  178.3130  142.5880 C   0  0  0  0  0  2  0  0  0  0  0  0
  184.8630  178.2550  144.4500 C   0  0  0  0  0  3  0  0  0  0  0  0
  185.9990  178.1290  142.1910 C   0  0  1  0  0  3  0  0  0  0  0  0
  184.8130  178.4900  143.0670 C   0  0  0  0  0  0  0  0  0  0  0  0
  183.5620  179.2120  141.0230 C   0  0  2  0  0  3  0  0  0  0  0  0
  180.8800  179.0190  137.5780 C   0  0  0  0  0  2  0  0  0  0  0  0
  190.0970  176.5560  139.9490 C   0  0  0  0  0  2  0  0  0  0  0  0
  188.4640  177.9820  141.9970 C   0  0  2  0  0  3  0  0  0  0  0  0
  182.2510  178.4090  137.4610 C   0  0  0  0  0  2  0  0  0  0  0  0
  189.4390  177.9120  139.5920 C   0  0  0  0  0  2  0  0  0  0  0  0
  190.9500  177.5710  141.8450 C   0  0  1  0  0  3  0  0  0  0  0  0
  182.4950  179.1910  143.3010 C   0  0  0  0  0  3  0  0  0  0  0  0
  183.6030  178.9180  142.4880 C   0  0  0  0  0  0  0  0  0  0  0  0
  182.2940  179.0280  140.4590 O   0  0  0  0  0  0  0  0  0  0  0  0
  186.9430  177.9550  140.0280 C   0  0  0  0  0  2  0  0  0  0  0  0
  185.1830  178.2510  137.9580 O   0  0  0  0  0  0  0  0  0  0  0  0
  180.4040  181.2300  138.6040 C   0  0  0  0  0  1  0  0  0  0  0  0
  184.5640  178.3510  140.2650 C   0  0  2  0  0  3  0  0  0  0  0  0
  182.2670  179.8630  139.3790 N   0  0  1  0  0  0  0  0  0  0  0  0
  192.1000  177.2940  142.7980 C   0  0  0  0  0  2  0  0  0  0  0  0
  191.6440  176.4390  143.9310 C   0  0  0  0  0  0  0  0  0  0  0  0
  191.8100  175.1930  143.8850 O   0  0  0  0  0  0  0  0  0  0  0  0
  191.0510  177.0360  145.0790 N   0  0  0  0  0  1  0  0  0  0  0  0
  1 20  1  0  0  0  0
  2 24  1  6  0  0  0
  2 12  1  0  0  0  0
  4  3  1  0  0  0  0
  6 18  1  1  0  0  0
  6  5  1  0  0  0  0
  6 28  1  0  0  0  0
  7 19  1  6  0  0  0
  7 17  1  0  0  0  0
  9 26  1  6  0  0  0
  9 28  1  0  0  0  0
 11  3  2  0  0  0  0
 12  8  1  1  0  0  0
 12 13  1  0  0  0  0
 13 11  1  0  0  0  0
 14 23  1  6  0  0  0
 14 22  1  0  0  0  0
 15  9  1  0  0  0  0
 16  1  1  0  0  0  0
 17 10  1  1  0  0  0
 17  8  1  0  0  0  0
 18 15  1  0  0  0  0
 19 16  1  0  0  0  0
 20 10  1  0  0  0  0
 20 29  1  1  0  0  0
 21  4  2  0  0  0  0
 22 13  2  0  0  0  0
 22 21  1  0  0  0  0
 24  7  1  0  0  0  0
 25  5  2  0  0  0  0
 27  5  1  6  0  0  0
 27  2  1  0  0  0  0
 27 14  1  0  0  0  0
 28 23  1  1  0  0  0
 29 30  1  0  0  0  0
 30 32  1  0  0  0  0
 31 30  2  0  0  0  0
M  END
>  <MODEL>
9

>  <REMARK>
 VINA RESULT:      -7.8      1.901      7.982
  Name = 
  2 active torsions:
  status: ('A' for Active; 'I' for Inactive)
    1  A    between atoms: C_20  and  C_29
    2  A    between atoms: C_29  and  C_30
                            x       y       z     vdW  Elec       q    Type
                         _______ _______ _______ _____ _____    ______ ____

>  <TORSDO>
F 2

$$$$
