=
 OpenBabel11122410373D

 32 37  0  0  1  0  0  0  0  0999 V2000
  191.3940  175.9670  136.9460 N   0  0  0  0  0  2  0  0  0  0  0  0
  189.0830  177.6170  141.6220 C   0  0  1  0  0  3  0  0  0  0  0  0
  184.2970  178.9240  141.7390 C   0  0  0  0  0  3  0  0  0  0  0  0
  184.2190  178.4730  143.0550 C   0  0  0  0  0  3  0  0  0  0  0  0
  190.3900  177.2190  143.7810 C   0  0  2  0  0  3  0  0  0  0  0  0
  190.2200  177.1030  145.2700 C   0  0  0  0  0  0  0  0  0  0  0  0
  190.2150  177.2290  139.7130 C   0  0  1  0  0  3  0  0  0  0  0  0
  187.8540  178.0680  139.5050 C   0  0  0  0  0  2  0  0  0  0  0  0
  189.2450  177.1280  147.2320 N   0  0  0  0  0  0  0  0  0  0  0  0
  189.1050  177.5020  137.4560 N   0  0  0  0  0  2  0  0  0  0  0  0
  185.5240  178.9170  141.0720 C   0  0  0  0  0  3  0  0  0  0  0  0
  188.0020  178.4950  140.9690 C   0  0  1  0  0  3  0  0  0  0  0  0
  186.6850  178.4490  141.7080 C   0  0  0  0  0  0  0  0  0  0  0  0
  187.8370  177.5240  143.7930 C   0  0  2  0  0  3  0  0  0  0  0  0
  190.5120  176.6780  147.3430 C   0  0  0  0  0  3  0  0  0  0  0  0
  191.7530  175.8130  138.3540 C   0  0  0  0  0  2  0  0  0  0  0  0
  189.2230  178.0170  138.8250 C   0  0  2  0  0  3  0  0  0  0  0  0
  191.1410  176.6440  146.1410 N   0  0  0  0  0  0  0  0  0  0  0  0
  191.5990  177.1370  139.0880 C   0  0  0  0  0  2  0  0  0  0  0  0
  188.9420  176.0510  137.4590 C   0  0  0  0  0  2  0  0  0  0  0  0
  185.3700  178.0330  143.7120 C   0  0  0  0  0  3  0  0  0  0  0  0
  186.6180  178.0500  143.0650 C   0  0  0  0  0  0  0  0  0  0  0  0
  187.8300  177.9190  145.2780 C   0  0  0  0  0  2  0  0  0  0  0  0
  190.3110  177.8450  140.9730 O   0  0  0  0  0  0  0  0  0  0  0  0
  191.6660  177.9930  143.4930 C   0  0  0  0  0  1  0  0  0  0  0  0
  188.2890  177.2930  148.3130 C   0  0  0  0  0  1  0  0  0  0  0  0
  189.1750  177.9270  143.1200 C   0  0  2  0  0  3  0  0  0  0  0  0
  189.0560  177.3750  145.9300 C   0  0  0  0  0  0  0  0  0  0  0  0
  190.0680  175.4010  136.6570 C   0  0  2  0  0  3  0  0  0  0  0  0
  190.0550  173.9090  136.7740 C   0  0  0  0  0  0  0  0  0  0  0  0
  191.1450  173.1560  136.3530 O   0  0  0  0  0  0  0  0  0  0  0  0
  189.0350  173.3290  137.2280 O   0  0  0  0  0  1  0  0  0  0  0  0
  1 16  1  0  0  0  0
  2 24  1  6  0  0  0
  2 27  1  0  0  0  0
  3  4  1  0  0  0  0
  4 21  2  0  0  0  0
  5 25  1  1  0  0  0
  5  6  1  0  0  0  0
  6 28  2  0  0  0  0
  6 18  1  0  0  0  0
  7 19  1  6  0  0  0
  7 24  1  0  0  0  0
  9 15  1  0  0  0  0
  9 26  1  0  0  0  0
 10 20  1  0  0  0  0
 10 17  1  0  0  0  0
 11 13  1  0  0  0  0
 11  3  2  0  0  0  0
 12  8  1  6  0  0  0
 12  2  1  0  0  0  0
 12 13  1  0  0  0  0
 13 22  2  0  0  0  0
 14 23  1  1  0  0  0
 16 19  1  0  0  0  0
 17  8  1  1  0  0  0
 17  7  1  0  0  0  0
 18 15  2  0  0  0  0
 22 21  1  0  0  0  0
 22 14  1  0  0  0  0
 23 28  1  0  0  0  0
 27  5  1  0  0  0  0
 27 14  1  0  0  0  0
 28  9  1  0  0  0  0
 29 30  1  0  0  0  0
 29  1  1  0  0  0  0
 29 20  1  0  0  0  0
 30 32  1  0  0  0  0
 31 30  2  0  0  0  0
M  END
>  <MODEL>
1

>  <REMARK>
 VINA RESULT:     -11.5      0.000      0.000
  Name = 
  1 active torsions:
  status: ('A' for Active; 'I' for Inactive)
    1  A    between atoms: CA_29  and  C_30
                            x       y       z     vdW  Elec       q    Type
                         _______ _______ _______ _____ _____    ______ ____

>  <TORSDO>
F 1

$$$$
=
 OpenBabel11122410373D

 32 37  0  0  1  0  0  0  0  0999 V2000
  189.7700  175.8490  136.0910 N   0  0  0  0  0  2  0  0  0  0  0  0
  188.6970  177.5340  141.1850 C   0  0  1  0  0  3  0  0  0  0  0  0
  184.1360  179.0410  142.4270 C   0  0  0  0  0  3  0  0  0  0  0  0
  184.3490  178.5760  143.7240 C   0  0  0  0  0  3  0  0  0  0  0  0
  190.4560  177.0530  142.9740 C   0  0  2  0  0  3  0  0  0  0  0  0
  190.6360  176.9250  144.4600 C   0  0  0  0  0  0  0  0  0  0  0  0
  189.3310  177.1240  139.0610 C   0  0  1  0  0  3  0  0  0  0  0  0
  187.0260  178.0640  139.4170 C   0  0  0  0  0  2  0  0  0  0  0  0
  190.1510  176.9650  146.5970 N   0  0  0  0  0  0  0  0  0  0  0  0
  187.7340  177.4730  137.1300 N   0  0  0  0  0  2  0  0  0  0  0  0
  185.1690  178.9910  141.4910 C   0  0  0  0  0  3  0  0  0  0  0  0
  187.5330  178.4650  140.8070 C   0  0  1  0  0  3  0  0  0  0  0  0
  186.4260  178.4660  141.8350 C   0  0  0  0  0  0  0  0  0  0  0  0
  187.9930  177.4650  143.5870 C   0  0  2  0  0  3  0  0  0  0  0  0
  191.3870  176.4600  146.4050 C   0  0  0  0  0  3  0  0  0  0  0  0
  190.4420  175.6620  137.3750 C   0  0  0  0  0  2  0  0  0  0  0  0
  188.1940  177.9650  138.4340 C   0  0  2  0  0  3  0  0  0  0  0  0
  191.7140  176.4150  145.0890 N   0  0  0  0  0  0  0  0  0  0  0  0
  190.5240  176.9820  138.1280 C   0  0  0  0  0  2  0  0  0  0  0  0
  187.5130  176.0300  137.1670 C   0  0  0  0  0  2  0  0  0  0  0  0
  185.6010  178.0800  144.0900 C   0  0  0  0  0  3  0  0  0  0  0  0
  186.6610  178.0520  143.1680 C   0  0  0  0  0  0  0  0  0  0  0  0
  188.3530  177.8410  145.0330 C   0  0  0  0  0  2  0  0  0  0  0  0
  189.7470  177.7190  140.2650 O   0  0  0  0  0  0  0  0  0  0  0  0
  191.6610  177.7760  142.3960 C   0  0  0  0  0  1  0  0  0  0  0  0
  189.4830  177.1560  147.8730 C   0  0  0  0  0  1  0  0  0  0  0  0
  189.1520  177.8200  142.6190 C   0  0  2  0  0  3  0  0  0  0  0  0
  189.6730  177.2370  145.3760 C   0  0  0  0  0  0  0  0  0  0  0  0
  188.3900  175.3440  136.1210 C   0  0  2  0  0  3  0  0  0  0  0  0
  188.3380  173.8530  136.2330 C   0  0  0  0  0  0  0  0  0  0  0  0
  187.5650  173.2430  137.2150 O   0  0  0  0  0  1  0  0  0  0  0  0
  189.0230  173.1440  135.4510 O   0  0  0  0  0  0  0  0  0  0  0  0
  1 29  1  0  0  0  0
  1 16  1  0  0  0  0
  2 24  1  6  0  0  0
  2 27  1  0  0  0  0
  3  4  1  0  0  0  0
  4 21  2  0  0  0  0
  5 25  1  1  0  0  0
  5  6  1  0  0  0  0
  6 18  1  0  0  0  0
  6 28  2  0  0  0  0
  7 19  1  6  0  0  0
  7 24  1  0  0  0  0
  9 26  1  0  0  0  0
 10 20  1  0  0  0  0
 10 17  1  0  0  0  0
 11 13  1  0  0  0  0
 11  3  2  0  0  0  0
 12  8  1  6  0  0  0
 12  2  1  0  0  0  0
 12 13  1  0  0  0  0
 13 22  2  0  0  0  0
 14 23  1  1  0  0  0
 15  9  1  0  0  0  0
 16 19  1  0  0  0  0
 17  7  1  0  0  0  0
 17  8  1  1  0  0  0
 18 15  2  0  0  0  0
 22 14  1  0  0  0  0
 22 21  1  0  0  0  0
 23 28  1  0  0  0  0
 27  5  1  0  0  0  0
 27 14  1  0  0  0  0
 28  9  1  0  0  0  0
 29 30  1  0  0  0  0
 29 20  1  0  0  0  0
 30 31  1  0  0  0  0
 32 30  2  0  0  0  0
M  END
>  <MODEL>
2

>  <REMARK>
 VINA RESULT:     -10.6      1.102      1.272
  Name = 
  1 active torsions:
  status: ('A' for Active; 'I' for Inactive)
    1  A    between atoms: CA_29  and  C_30
                            x       y       z     vdW  Elec       q    Type
                         _______ _______ _______ _____ _____    ______ ____

>  <TORSDO>
F 1

$$$$
=
 OpenBabel11122410373D

 32 37  0  0  1  0  0  0  0  0999 V2000
  183.3970  177.5180  136.9000 N   0  0  0  0  0  2  0  0  0  0  0  0
  186.1940  178.1700  141.5570 C   0  0  1  0  0  3  0  0  0  0  0  0
  183.8060  178.9050  145.8430 C   0  0  0  0  0  3  0  0  0  0  0  0
  184.8380  178.2530  146.5160 C   0  0  0  0  0  3  0  0  0  0  0  0
  188.6830  177.5940  141.5210 C   0  0  2  0  0  3  0  0  0  0  0  0
  189.8330  177.2350  142.4180 C   0  0  0  0  0  0  0  0  0  0  0  0
  185.1740  178.2050  139.5480 C   0  0  1  0  0  3  0  0  0  0  0  0
  183.7850  178.7990  141.5590 C   0  0  0  0  0  2  0  0  0  0  0  0
  190.9580  176.8510  144.2590 N   0  0  0  0  0  0  0  0  0  0  0  0
  182.6990  178.6940  139.3470 N   0  0  0  0  0  2  0  0  0  0  0  0
  183.9060  179.1360  144.4710 C   0  0  0  0  0  3  0  0  0  0  0  0
  185.1250  179.0110  142.2730 C   0  0  1  0  0  3  0  0  0  0  0  0
  185.0330  178.7080  143.7500 C   0  0  0  0  0  0  0  0  0  0  0  0
  187.3390  177.6090  143.7130 C   0  0  2  0  0  3  0  0  0  0  0  0
  191.7020  176.5330  143.1800 C   0  0  0  0  0  3  0  0  0  0  0  0
  184.7620  177.1920  137.3070 C   0  0  0  0  0  2  0  0  0  0  0  0
  183.9490  179.0050  140.0520 C   0  0  2  0  0  3  0  0  0  0  0  0
  191.0290  176.7530  142.0220 N   0  0  0  0  0  0  0  0  0  0  0  0
  185.3870  178.3640  138.0500 C   0  0  0  0  0  2  0  0  0  0  0  0
  182.5130  177.2510  139.2300 C   0  0  0  0  0  2  0  0  0  0  0  0
  185.9780  177.8480  145.8200 C   0  0  0  0  0  3  0  0  0  0  0  0
  186.1080  178.1010  144.4440 C   0  0  0  0  0  0  0  0  0  0  0  0
  188.6100  177.7700  144.5610 C   0  0  0  0  0  2  0  0  0  0  0  0
  186.3260  178.6290  140.2320 O   0  0  0  0  0  0  0  0  0  0  0  0
  189.1820  178.5390  140.4400 C   0  0  0  0  0  1  0  0  0  0  0  0
  191.3620  176.7430  145.6500 C   0  0  0  0  0  1  0  0  0  0  0  0
  187.5220  178.2560  142.3150 C   0  0  2  0  0  3  0  0  0  0  0  0
  189.7800  177.2720  143.7810 C   0  0  0  0  0  0  0  0  0  0  0  0
  182.4010  176.8590  137.7570 C   0  0  2  0  0  3  0  0  0  0  0  0
  182.3880  175.3750  137.5680 C   0  0  0  0  0  0  0  0  0  0  0  0
  183.2150  174.5570  138.3300 O   0  0  0  0  0  1  0  0  0  0  0  0
  181.6440  174.8650  136.6920 O   0  0  0  0  0  0  0  0  0  0  0  0
  1 16  1  0  0  0  0
  1 29  1  0  0  0  0
  2 24  1  6  0  0  0
  2 12  1  0  0  0  0
  2 27  1  0  0  0  0
  3  4  1  0  0  0  0
  5 25  1  6  0  0  0
  5 27  1  0  0  0  0
  5  6  1  0  0  0  0
  6 28  2  0  0  0  0
  7 19  1  6  0  0  0
  7 17  1  0  0  0  0
  7 24  1  0  0  0  0
  9 26  1  0  0  0  0
 10 17  1  0  0  0  0
 11  3  2  0  0  0  0
 12  8  1  6  0  0  0
 12 13  1  0  0  0  0
 13 22  2  0  0  0  0
 13 11  1  0  0  0  0
 14 22  1  0  0  0  0
 14 23  1  1  0  0  0
 15  9  1  0  0  0  0
 16 19  1  0  0  0  0
 17  8  1  1  0  0  0
 18  6  1  0  0  0  0
 18 15  2  0  0  0  0
 20 10  1  0  0  0  0
 21  4  2  0  0  0  0
 22 21  1  0  0  0  0
 27 14  1  0  0  0  0
 28  9  1  0  0  0  0
 28 23  1  0  0  0  0
 29 20  1  0  0  0  0
 30 29  1  0  0  0  0
 30 31  1  0  0  0  0
 32 30  2  0  0  0  0
M  END
>  <MODEL>
3

>  <REMARK>
 VINA RESULT:     -10.2      3.283      4.935
  Name = 
  1 active torsions:
  status: ('A' for Active; 'I' for Inactive)
    1  A    between atoms: CA_29  and  C_30
                            x       y       z     vdW  Elec       q    Type
                         _______ _______ _______ _____ _____    ______ ____

>  <TORSDO>
F 1

$$$$
=
 OpenBabel11122410373D

 32 37  0  0  1  0  0  0  0  0999 V2000
  190.2300  175.8330  136.5150 N   0  0  0  0  0  2  0  0  0  0  0  0
  187.1620  177.9180  140.5360 C   0  0  1  0  0  3  0  0  0  0  0  0
  182.4510  179.2250  139.6860 C   0  0  0  0  0  3  0  0  0  0  0  0
  182.1370  178.9020  141.0050 C   0  0  0  0  0  3  0  0  0  0  0  0
  188.0640  177.7290  142.9190 C   0  0  2  0  0  3  0  0  0  0  0  0
  187.6350  177.7550  144.3580 C   0  0  0  0  0  0  0  0  0  0  0  0
  188.6060  177.3520  138.9000 C   0  0  1  0  0  3  0  0  0  0  0  0
  186.3300  178.1640  138.2020 C   0  0  0  0  0  2  0  0  0  0  0  0
  186.3320  177.9650  146.1070 N   0  0  0  0  0  0  0  0  0  0  0  0
  187.9120  177.4070  136.4680 N   0  0  0  0  0  2  0  0  0  0  0  0
  183.7750  179.1560  139.2490 C   0  0  0  0  0  3  0  0  0  0  0  0
  186.2260  178.7290  139.6240 C   0  0  1  0  0  3  0  0  0  0  0  0
  184.8000  178.7520  140.1200 C   0  0  0  0  0  0  0  0  0  0  0  0
  185.5540  178.0310  142.4520 C   0  0  2  0  0  3  0  0  0  0  0  0
  187.5520  177.5300  146.4810 C   0  0  0  0  0  3  0  0  0  0  0  0
  190.3350  175.8140  137.9720 C   0  0  0  0  0  2  0  0  0  0  0  0
  187.7960  178.0510  137.7820 C   0  0  2  0  0  3  0  0  0  0  0  0
  188.3820  177.3820  145.4170 N   0  0  0  0  0  0  0  0  0  0  0  0
  190.0760  177.2020  138.5390 C   0  0  0  0  0  2  0  0  0  0  0  0
  187.7280  175.9630  136.5780 C   0  0  0  0  0  2  0  0  0  0  0  0
  183.1480  178.5270  141.8910 C   0  0  0  0  0  3  0  0  0  0  0  0
  184.4890  178.4840  141.4750 C   0  0  0  0  0  0  0  0  0  0  0  0
  185.2940  178.5660  143.8700 C   0  0  0  0  0  2  0  0  0  0  0  0
  188.4890  178.0850  140.0940 O   0  0  0  0  0  0  0  0  0  0  0  0
  189.3830  178.4730  142.7880 C   0  0  0  0  0  1  0  0  0  0  0  0
  185.2040  178.2320  146.9830 C   0  0  0  0  0  1  0  0  0  0  0  0
  186.9950  178.3690  141.9900 C   0  0  2  0  0  3  0  0  0  0  0  0
  186.3780  178.0880  144.7750 C   0  0  0  0  0  0  0  0  0  0  0  0
  188.9670  175.2400  136.0520 C   0  0  2  0  0  3  0  0  0  0  0  0
  188.9100  173.7670  136.3040 C   0  0  0  0  0  0  0  0  0  0  0  0
  189.9250  172.9310  135.8510 O   0  0  0  0  0  0  0  0  0  0  0  0
  187.9200  173.2750  136.9050 O   0  0  0  0  0  1  0  0  0  0  0  0
  1 16  1  0  0  0  0
  2 24  1  6  0  0  0
  2 27  1  0  0  0  0
  3  4  1  0  0  0  0
  4 21  2  0  0  0  0
  5 25  1  1  0  0  0
  5  6  1  0  0  0  0
  6 28  2  0  0  0  0
  6 18  1  0  0  0  0
  7 19  1  6  0  0  0
  7 24  1  0  0  0  0
  9 15  1  0  0  0  0
  9 26  1  0  0  0  0
 10 20  1  0  0  0  0
 10 17  1  0  0  0  0
 11  3  2  0  0  0  0
 11 13  1  0  0  0  0
 12  8  1  6  0  0  0
 12 13  1  0  0  0  0
 12  2  1  0  0  0  0
 13 22  2  0  0  0  0
 14 23  1  1  0  0  0
 16 19  1  0  0  0  0
 17  8  1  1  0  0  0
 17  7  1  0  0  0  0
 18 15  2  0  0  0  0
 22 21  1  0  0  0  0
 22 14  1  0  0  0  0
 23 28  1  0  0  0  0
 27 14  1  0  0  0  0
 27  5  1  0  0  0  0
 28  9  1  0  0  0  0
 29 30  1  0  0  0  0
 29  1  1  0  0  0  0
 29 20  1  0  0  0  0
 30 32  1  0  0  0  0
 31 30  2  0  0  0  0
M  END
>  <MODEL>
4

>  <REMARK>
 VINA RESULT:      -8.9      1.643      2.370
  Name = 
  1 active torsions:
  status: ('A' for Active; 'I' for Inactive)
    1  A    between atoms: CA_29  and  C_30
                            x       y       z     vdW  Elec       q    Type
                         _______ _______ _______ _____ _____    ______ ____

>  <TORSDO>
F 1

$$$$
=
 OpenBabel11122410373D

 32 37  0  0  1  0  0  0  0  0999 V2000
  182.2020  178.8580  139.3950 N   0  0  0  0  0  2  0  0  0  0  0  0
  187.5730  178.0290  140.0260 C   0  0  1  0  0  3  0  0  0  0  0  0
  189.4740  177.1700  144.5280 C   0  0  0  0  0  3  0  0  0  0  0  0
  190.4610  176.3770  143.9460 C   0  0  0  0  0  3  0  0  0  0  0  0
  188.9520  177.6130  137.9160 C   0  0  2  0  0  3  0  0  0  0  0  0
  190.2500  177.0250  137.4410 C   0  0  0  0  0  0  0  0  0  0  0  0
  185.4470  178.6930  139.6840 C   0  0  1  0  0  3  0  0  0  0  0  0
  186.2310  178.5120  142.0670 C   0  0  0  0  0  2  0  0  0  0  0  0
  192.2330  176.0950  137.5200 N   0  0  0  0  0  0  0  0  0  0  0  0
  183.8790  179.1090  141.6270 N   0  0  0  0  0  2  0  0  0  0  0  0
  188.5640  177.8540  143.7200 C   0  0  0  0  0  3  0  0  0  0  0  0
  187.6460  178.5320  141.4780 C   0  0  1  0  0  3  0  0  0  0  0  0
  188.6220  177.7450  142.3210 C   0  0  0  0  0  0  0  0  0  0  0  0
  189.7620  176.8280  140.2270 C   0  0  2  0  0  3  0  0  0  0  0  0
  191.8110  176.1930  136.2430 C   0  0  0  0  0  3  0  0  0  0  0  0
  183.2750  178.4750  138.4790 C   0  0  0  0  0  2  0  0  0  0  0  0
  185.2550  179.2200  141.1270 C   0  0  2  0  0  3  0  0  0  0  0  0
  190.5810  176.7590  136.1600 N   0  0  0  0  0  0  0  0  0  0  0  0
  184.4970  179.3560  138.6980 C   0  0  0  0  0  2  0  0  0  0  0  0
  183.3330  177.7820  141.3560 C   0  0  0  0  0  2  0  0  0  0  0  0
  190.5510  176.2820  142.5570 C   0  0  0  0  0  3  0  0  0  0  0  0
  189.6620  176.9900  141.7290 C   0  0  0  0  0  0  0  0  0  0  0  0
  191.2230  176.7520  139.7550 C   0  0  0  0  0  2  0  0  0  0  0  0
  186.7740  178.9130  139.2760 O   0  0  0  0  0  0  0  0  0  0  0  0
  188.6780  178.8880  137.1360 C   0  0  0  0  0  1  0  0  0  0  0  0
  193.4980  175.5430  137.9730 C   0  0  0  0  0  1  0  0  0  0  0  0
  188.9840  177.9150  139.4400 C   0  0  2  0  0  3  0  0  0  0  0  0
  191.2460  176.5990  138.2720 C   0  0  0  0  0  0  0  0  0  0  0  0
  182.0690  177.9040  140.5060 C   0  0  2  0  0  3  0  0  0  0  0  0
  181.5670  176.5710  140.0490 C   0  0  0  0  0  0  0  0  0  0  0  0
  182.4560  175.5720  139.6690 O   0  0  0  0  0  0  0  0  0  0  0  0
  180.3280  176.3630  139.9770 O   0  0  0  0  0  1  0  0  0  0  0  0
  1 29  1  0  0  0  0
  2 24  1  6  0  0  0
  2 12  1  0  0  0  0
  4  3  1  0  0  0  0
  5 25  1  6  0  0  0
  5 27  1  0  0  0  0
  6  5  1  0  0  0  0
  6 28  2  0  0  0  0
  7 19  1  6  0  0  0
  7 17  1  0  0  0  0
  9 26  1  0  0  0  0
  9 28  1  0  0  0  0
 11  3  2  0  0  0  0
 12  8  1  1  0  0  0
 12 13  1  0  0  0  0
 13 11  1  0  0  0  0
 14 23  1  6  0  0  0
 14 22  1  0  0  0  0
 15  9  1  0  0  0  0
 16 19  1  0  0  0  0
 16  1  1  0  0  0  0
 17 10  1  0  0  0  0
 17  8  1  1  0  0  0
 18 15  2  0  0  0  0
 18  6  1  0  0  0  0
 20 10  1  0  0  0  0
 21  4  2  0  0  0  0
 22 13  2  0  0  0  0
 22 21  1  0  0  0  0
 24  7  1  0  0  0  0
 27  2  1  0  0  0  0
 27 14  1  0  0  0  0
 28 23  1  0  0  0  0
 29 20  1  0  0  0  0
 30 29  1  0  0  0  0
 31 30  2  0  0  0  0
 32 30  1  0  0  0  0
M  END
>  <MODEL>
5

>  <REMARK>
 VINA RESULT:      -8.7      3.252      7.221
  Name = 
  1 active torsions:
  status: ('A' for Active; 'I' for Inactive)
    1  A    between atoms: CA_29  and  C_30
                            x       y       z     vdW  Elec       q    Type
                         _______ _______ _______ _____ _____    ______ ____

>  <TORSDO>
F 1

$$$$
=
 OpenBabel11122410373D

 32 37  0  0  1  0  0  0  0  0999 V2000
  180.2760  178.0550  139.5410 N   0  0  0  0  0  2  0  0  0  0  0  0
  185.0980  178.3350  142.1110 C   0  0  1  0  0  3  0  0  0  0  0  0
  185.2970  178.6160  147.0610 C   0  0  0  0  0  3  0  0  0  0  0  0
  186.5090  177.9280  147.0390 C   0  0  0  0  0  3  0  0  0  0  0  0
  187.1910  177.8230  140.7380 C   0  0  2  0  0  3  0  0  0  0  0  0
  188.6280  177.4080  140.8730 C   0  0  0  0  0  0  0  0  0  0  0  0
  183.1860  178.5340  140.9350 C   0  0  1  0  0  3  0  0  0  0  0  0
  183.0570  178.9070  143.4180 C   0  0  0  0  0  2  0  0  0  0  0  0
  190.5320  176.8810  141.8210 N   0  0  0  0  0  0  0  0  0  0  0  0
  180.9800  178.9830  142.0910 N   0  0  0  0  0  2  0  0  0  0  0  0
  184.6780  178.9750  145.8630 C   0  0  0  0  0  3  0  0  0  0  0  0
  184.5790  179.0830  143.3510 C   0  0  1  0  0  3  0  0  0  0  0  0
  185.2560  178.6420  144.6270 C   0  0  0  0  0  0  0  0  0  0  0  0
  187.1770  177.6040  143.3000 C   0  0  2  0  0  3  0  0  0  0  0  0
  190.6000  176.6810  140.4890 C   0  0  0  0  0  3  0  0  0  0  0  0
  181.6450  177.7240  139.1500 C   0  0  0  0  0  2  0  0  0  0  0  0
  182.4230  179.2550  142.0710 C   0  0  2  0  0  3  0  0  0  0  0  0
  189.4320  176.9920  139.8720 N   0  0  0  0  0  0  0  0  0  0  0  0
  182.5970  178.8350  139.5640 C   0  0  0  0  0  2  0  0  0  0  0  0
  180.7190  177.5530  141.9570 C   0  0  0  0  0  2  0  0  0  0  0  0
  187.1110  177.6150  145.8200 C   0  0  0  0  0  3  0  0  0  0  0  0
  186.5170  177.9980  144.6050 C   0  0  0  0  0  0  0  0  0  0  0  0
  188.7080  177.7140  143.3780 C   0  0  0  0  0  2  0  0  0  0  0  0
  184.5380  178.9180  140.9580 O   0  0  0  0  0  0  0  0  0  0  0  0
  187.0850  178.8750  139.6470 C   0  0  0  0  0  1  0  0  0  0  0  0
  191.5950  176.6530  142.7850 C   0  0  0  0  0  1  0  0  0  0  0  0
  186.6280  178.3810  142.0750 C   0  0  2  0  0  3  0  0  0  0  0  0
  189.2900  177.3180  142.0630 C   0  0  0  0  0  0  0  0  0  0  0  0
  179.8500  177.2970  140.7260 C   0  0  2  0  0  3  0  0  0  0  0  0
  179.6980  175.8370  140.4370 C   0  0  0  0  0  0  0  0  0  0  0  0
  179.9880  175.3310  139.1750 O   0  0  0  0  0  0  0  0  0  0  0  0
  179.2750  175.0640  141.3360 O   0  0  0  0  0  1  0  0  0  0  0  0
  1 29  1  0  0  0  0
  2 24  1  6  0  0  0
  2 12  1  0  0  0  0
  4  3  1  0  0  0  0
  5 25  1  6  0  0  0
  5  6  1  0  0  0  0
  5 27  1  0  0  0  0
  6 28  2  0  0  0  0
  7 19  1  6  0  0  0
  7 24  1  0  0  0  0
  7 17  1  0  0  0  0
  9 28  1  0  0  0  0
  9 26  1  0  0  0  0
 11  3  2  0  0  0  0
 12  8  1  1  0  0  0
 12 13  1  0  0  0  0
 13 11  1  0  0  0  0
 14 23  1  1  0  0  0
 14 22  1  0  0  0  0
 15  9  1  0  0  0  0
 16  1  1  0  0  0  0
 16 19  1  0  0  0  0
 17 10  1  0  0  0  0
 17  8  1  1  0  0  0
 18 15  2  0  0  0  0
 18  6  1  0  0  0  0
 20 10  1  0  0  0  0
 21  4  2  0  0  0  0
 22 13  2  0  0  0  0
 22 21  1  0  0  0  0
 27  2  1  0  0  0  0
 27 14  1  0  0  0  0
 28 23  1  0  0  0  0
 29 20  1  0  0  0  0
 30 29  1  0  0  0  0
 30 32  1  0  0  0  0
 31 30  2  0  0  0  0
M  END
>  <MODEL>
6

>  <REMARK>
 VINA RESULT:      -8.5      4.228      7.046
  Name = 
  1 active torsions:
  status: ('A' for Active; 'I' for Inactive)
    1  A    between atoms: CA_29  and  C_30
                            x       y       z     vdW  Elec       q    Type
                         _______ _______ _______ _____ _____    ______ ____

>  <TORSDO>
F 1

$$$$
