=
 OpenBabel11122410403D

 32 37  0  0  1  0  0  0  0  0999 V2000
  188.5400  177.7430  140.5310 C   0  0  0  0  0  2  0  0  0  0  0  0
  191.7780  176.2110  136.1920 C   0  0  1  0  0  3  0  0  0  0  0  0
  188.6440  172.9130  136.8650 C   0  0  0  0  0  2  0  0  0  0  0  0
  188.8120  172.2170  135.5100 C   0  0  0  0  0  2  0  0  0  0  0  0
  194.1810  175.3660  136.1830 C   0  0  1  0  0  3  0  0  0  0  0  0
  195.0440  174.1990  135.8210 C   0  0  0  0  0  0  0  0  0  0  0  0
  190.8340  177.2780  138.2150 C   0  0  1  0  0  3  0  0  0  0  0  0
  189.5190  177.1340  136.0650 C   0  0  0  0  0  2  0  0  0  0  0  0
  195.6250  172.2140  135.1540 N   0  0  0  0  0  0  0  0  0  0  0  0
  188.5030  178.2620  138.0590 C   0  0  0  0  0  2  0  0  0  0  0  0
  189.3720  174.2610  136.9530 C   0  0  0  0  0  2  0  0  0  0  0  0
  190.4480  176.1060  135.5650 N   0  0  2  0  0  0  0  0  0  0  0  0
  189.8700  174.7440  135.5800 C   0  0  1  0  0  3  0  0  0  0  0  0
  192.2260  173.7750  135.5630 C   0  0  1  0  0  3  0  0  0  0  0  0
  196.6880  172.8320  135.6500 N   0  0  0  0  0  0  0  0  0  0  0  0
  189.6700  176.7250  140.4450 C   0  0  0  0  0  2  0  0  0  0  0  0
  189.4340  177.1560  137.5950 C   0  0  2  0  0  3  0  0  0  0  0  0
  196.3610  174.0480  136.0770 N   0  0  0  0  0  0  0  0  0  0  0  0
  190.8740  177.3500  139.7480 C   0  0  0  0  0  2  0  0  0  0  0  0
  187.6970  177.7760  139.2560 C   0  0  2  0  0  3  0  0  0  0  0  0
  190.2690  172.2710  135.0540 C   0  0  0  0  0  2  0  0  0  0  0  0
  190.8210  173.7080  134.9450 C   0  0  1  0  0  3  0  0  0  0  0  0
  193.1770  172.8280  134.8070 C   0  0  0  0  0  2  0  0  0  0  0  0
  191.7120  176.1400  137.7210 C   0  0  0  0  0  2  0  0  0  0  0  0
  194.8310  176.6550  135.7130 C   0  0  0  0  0  1  0  0  0  0  0  0
  195.6360  170.8740  134.5940 C   0  0  0  0  0  1  0  0  0  0  0  0
  192.7710  175.2280  135.5580 C   0  0  1  0  0  3  0  0  0  0  0  0
  194.5780  173.0400  135.2710 C   0  0  0  0  0  0  0  0  0  0  0  0
  186.5540  178.6550  139.4470 N   0  0  0  0  0  2  0  0  0  0  0  0
  185.3060  178.4530  138.7800 C   0  0  0  0  0  0  0  0  0  0  0  0
  185.1570  177.5010  137.9690 O   0  0  0  0  0  0  0  0  0  0  0  0
  184.1740  179.3770  139.0440 C   0  0  0  0  0  1  0  0  0  0  0  0
  2 24  1  1  0  0  0
  3 11  1  0  0  0  0
  4  3  1  0  0  0  0
  5 25  1  6  0  0  0
  6 18  1  0  0  0  0
  6  5  1  0  0  0  0
  7 24  1  1  0  0  0
  7 19  1  0  0  0  0
  9 28  1  0  0  0  0
  9 15  1  0  0  0  0
 10 20  1  0  0  0  0
 12 13  1  0  0  0  0
 12  8  1  1  0  0  0
 12  2  1  0  0  0  0
 13 11  1  1  0  0  0
 14 23  1  6  0  0  0
 15 18  2  0  0  0  0
 16  1  1  0  0  0  0
 17  8  1  6  0  0  0
 17 10  1  0  0  0  0
 17  7  1  0  0  0  0
 19 16  1  0  0  0  0
 20 29  1  1  0  0  0
 20  1  1  0  0  0  0
 21  4  1  0  0  0  0
 22 21  1  1  0  0  0
 22 14  1  0  0  0  0
 22 13  1  0  0  0  0
 23 28  1  0  0  0  0
 26  9  1  0  0  0  0
 27 14  1  0  0  0  0
 27  5  1  0  0  0  0
 27  2  1  0  0  0  0
 28  6  2  0  0  0  0
 30 32  1  0  0  0  0
 30 29  1  0  0  0  0
 31 30  2  0  0  0  0
M  END
>  <MODEL>
1

>  <REMARK>
 VINA RESULT:      -6.2      0.000      0.000
  Name = 
  1 active torsions:
  status: ('A' for Active; 'I' for Inactive)
    1  A    between atoms: C_20  and  N_29
                            x       y       z     vdW  Elec       q    Type
                         _______ _______ _______ _____ _____    ______ ____

>  <TORSDO>
F 1

$$$$
=
 OpenBabel11122410403D

 32 37  0  0  1  0  0  0  0  0999 V2000
  191.2400  173.5550  136.1620 C   0  0  0  0  0  2  0  0  0  0  0  0
  186.9910  177.2220  136.5580 C   0  0  1  0  0  3  0  0  0  0  0  0
  189.1870  177.1450  140.5980 C   0  0  0  0  0  2  0  0  0  0  0  0
  188.6000  178.4460  141.1540 C   0  0  0  0  0  2  0  0  0  0  0  0
  184.4870  176.7880  136.7350 C   0  0  1  0  0  3  0  0  0  0  0  0
  183.2910  176.9850  137.6120 C   0  0  0  0  0  0  0  0  0  0  0  0
  188.5320  175.4080  135.8830 C   0  0  1  0  0  3  0  0  0  0  0  0
  189.3550  177.7640  136.2610 C   0  0  0  0  0  2  0  0  0  0  0  0
  182.0870  177.5360  139.3350 N   0  0  0  0  0  0  0  0  0  0  0  0
  190.9750  175.9910  135.5450 C   0  0  0  0  0  2  0  0  0  0  0  0
  188.8770  176.9220  139.1110 C   0  0  0  0  0  2  0  0  0  0  0  0
  188.1100  178.0840  136.9790 N   0  0  2  0  0  0  0  0  0  0  0  0
  188.2930  178.1780  138.4440 C   0  0  1  0  0  3  0  0  0  0  0  0
  185.7980  177.7610  138.7520 C   0  0  1  0  0  3  0  0  0  0  0  0
  181.3360  176.8510  138.4830 N   0  0  0  0  0  0  0  0  0  0  0  0
  189.8810  173.4320  136.8380 C   0  0  0  0  0  2  0  0  0  0  0  0
  189.7140  176.2760  136.3400 C   0  0  2  0  0  3  0  0  0  0  0  0
  182.0500  176.4910  137.4210 N   0  0  0  0  0  0  0  0  0  0  0  0
  188.7850  173.8940  135.8830 C   0  0  0  0  0  2  0  0  0  0  0  0
  191.8200  174.9640  136.2880 C   0  0  2  0  0  3  0  0  0  0  0  0
  187.1540  178.6250  140.6930 C   0  0  0  0  0  2  0  0  0  0  0  0
  187.0000  178.6290  139.1580 C   0  0  1  0  0  3  0  0  0  0  0  0
  184.5080  178.3290  139.3740 C   0  0  0  0  0  2  0  0  0  0  0  0
  187.3060  175.7320  136.7220 C   0  0  0  0  0  2  0  0  0  0  0  0
  184.1360  177.1280  135.2970 C   0  0  0  0  0  1  0  0  0  0  0  0
  181.6160  178.0860  140.5930 C   0  0  0  0  0  1  0  0  0  0  0  0
  185.6730  177.6640  137.2090 C   0  0  1  0  0  3  0  0  0  0  0  0
  183.3220  177.6140  138.8220 C   0  0  0  0  0  0  0  0  0  0  0  0
  193.1730  174.9860  135.7540 N   0  0  0  0  0  2  0  0  0  0  0  0
  194.1850  175.8610  136.2570 C   0  0  0  0  0  0  0  0  0  0  0  0
  193.9300  176.6760  137.1820 O   0  0  0  0  0  0  0  0  0  0  0  0
  195.5530  175.8110  135.6790 C   0  0  0  0  0  1  0  0  0  0  0  0
  1 20  1  0  0  0  0
  1 16  1  0  0  0  0
  2 24  1  1  0  0  0
  2 12  1  0  0  0  0
  2 27  1  0  0  0  0
  3  4  1  0  0  0  0
  5 25  1  6  0  0  0
  5 27  1  0  0  0  0
  5  6  1  0  0  0  0
  6 28  2  0  0  0  0
  7 19  1  1  0  0  0
  7 17  1  0  0  0  0
  7 24  1  0  0  0  0
  8 17  1  0  0  0  0
  9 26  1  0  0  0  0
 10 20  1  0  0  0  0
 11  3  1  0  0  0  0
 12  8  1  6  0  0  0
 12 13  1  0  0  0  0
 13 11  1  1  0  0  0
 13 22  1  0  0  0  0
 14 22  1  0  0  0  0
 14 23  1  6  0  0  0
 15  9  1  0  0  0  0
 17 10  1  6  0  0  0
 18  6  1  0  0  0  0
 18 15  2  0  0  0  0
 19 16  1  0  0  0  0
 20 29  1  6  0  0  0
 21  4  1  0  0  0  0
 22 21  1  1  0  0  0
 27 14  1  0  0  0  0
 28  9  1  0  0  0  0
 28 23  1  0  0  0  0
 29 30  1  0  0  0  0
 30 31  2  0  0  0  0
 32 30  1  0  0  0  0
M  END
>  <MODEL>
2

>  <REMARK>
 VINA RESULT:      -5.9      2.844      9.105
  Name = 
  1 active torsions:
  status: ('A' for Active; 'I' for Inactive)
    1  A    between atoms: C_20  and  N_29
                            x       y       z     vdW  Elec       q    Type
                         _______ _______ _______ _____ _____    ______ ____

>  <TORSDO>
F 1

$$$$
=
 OpenBabel11122410403D

 32 37  0  0  1  0  0  0  0  0999 V2000
  187.3900  176.7550  143.5680 C   0  0  0  0  0  2  0  0  0  0  0  0
  191.0000  177.5610  139.3280 C   0  0  1  0  0  3  0  0  0  0  0  0
  187.2330  175.5420  137.6280 C   0  0  0  0  0  2  0  0  0  0  0  0
  187.5050  175.8530  136.1530 C   0  0  0  0  0  2  0  0  0  0  0  0
  193.1630  176.3310  138.7870 C   0  0  1  0  0  3  0  0  0  0  0  0
  193.8430  175.4890  137.7540 C   0  0  0  0  0  0  0  0  0  0  0  0
  189.9290  177.2960  141.5430 C   0  0  1  0  0  3  0  0  0  0  0  0
  189.0130  178.8970  139.8190 C   0  0  0  0  0  2  0  0  0  0  0  0
  194.1500  174.3190  135.9490 N   0  0  0  0  0  0  0  0  0  0  0  0
  187.8900  178.7130  142.0520 C   0  0  0  0  0  2  0  0  0  0  0  0
  188.1740  176.2790  138.5910 C   0  0  0  0  0  2  0  0  0  0  0  0
  189.8060  178.2260  138.7750 N   0  0  2  0  0  0  0  0  0  0  0  0
  188.9890  177.3750  137.8820 C   0  0  1  0  0  3  0  0  0  0  0  0
  191.0870  176.0720  137.2530 C   0  0  1  0  0  3  0  0  0  0  0  0
  195.2050  174.1790  136.7400 N   0  0  0  0  0  0  0  0  0  0  0  0
  188.3050  175.7770  142.8440 C   0  0  0  0  0  2  0  0  0  0  0  0
  188.6630  177.9620  140.9830 C   0  0  2  0  0  3  0  0  0  0  0  0
  195.0410  174.8780  137.8600 N   0  0  0  0  0  0  0  0  0  0  0  0
  189.7100  176.3640  142.7420 C   0  0  0  0  0  2  0  0  0  0  0  0
  186.8080  177.8070  142.6230 C   0  0  2  0  0  3  0  0  0  0  0  0
  189.0040  175.8060  135.8590 C   0  0  0  0  0  2  0  0  0  0  0  0
  189.8260  176.7790  136.7300 C   0  0  1  0  0  3  0  0  0  0  0  0
  191.9610  175.6180  136.0690 C   0  0  0  0  0  2  0  0  0  0  0  0
  190.6510  176.5550  140.4300 C   0  0  0  0  0  2  0  0  0  0  0  0
  194.1170  177.4010  139.2910 C   0  0  0  0  0  1  0  0  0  0  0  0
  194.0080  173.6970  134.6440 C   0  0  0  0  0  1  0  0  0  0  0  0
  191.8870  176.9930  138.2120 C   0  0  1  0  0  3  0  0  0  0  0  0
  193.2730  175.1160  136.5720 C   0  0  0  0  0  0  0  0  0  0  0  0
  185.8340  178.6200  143.3360 N   0  0  0  0  0  2  0  0  0  0  0  0
  184.4390  178.5980  143.0280 C   0  0  0  0  0  0  0  0  0  0  0  0
  183.9970  177.8780  142.0930 O   0  0  0  0  0  0  0  0  0  0  0  0
  183.5000  179.4370  143.8150 C   0  0  0  0  0  1  0  0  0  0  0  0
  2 24  1  1  0  0  0
  3 11  1  0  0  0  0
  4  3  1  0  0  0  0
  5 25  1  6  0  0  0
  6 18  1  0  0  0  0
  6  5  1  0  0  0  0
  7 24  1  6  0  0  0
  7 19  1  0  0  0  0
  9 28  1  0  0  0  0
  9 15  1  0  0  0  0
 10 20  1  0  0  0  0
 12  2  1  0  0  0  0
 12  8  1  1  0  0  0
 13 11  1  1  0  0  0
 13 12  1  0  0  0  0
 14 23  1  6  0  0  0
 14 27  1  0  0  0  0
 15 18  2  0  0  0  0
 16  1  1  0  0  0  0
 17  8  1  6  0  0  0
 17  7  1  0  0  0  0
 17 10  1  0  0  0  0
 19 16  1  0  0  0  0
 20 29  1  1  0  0  0
 20  1  1  0  0  0  0
 21  4  1  0  0  0  0
 22 21  1  1  0  0  0
 22 14  1  0  0  0  0
 22 13  1  0  0  0  0
 23 28  1  0  0  0  0
 26  9  1  0  0  0  0
 27  5  1  0  0  0  0
 27  2  1  0  0  0  0
 28  6  2  0  0  0  0
 30 29  1  0  0  0  0
 30 32  1  0  0  0  0
 31 30  2  0  0  0  0
M  END
>  <MODEL>
3

>  <REMARK>
 VINA RESULT:      -5.4      2.354      3.472
  Name = 
  1 active torsions:
  status: ('A' for Active; 'I' for Inactive)
    1  A    between atoms: C_20  and  N_29
                            x       y       z     vdW  Elec       q    Type
                         _______ _______ _______ _____ _____    ______ ____

>  <TORSDO>
F 1

$$$$
=
 OpenBabel11122410403D

 32 37  0  0  1  0  0  0  0  0999 V2000
  196.3980  175.6800  134.9380 C   0  0  0  0  0  2  0  0  0  0  0  0
  191.5950  175.8060  137.8660 C   0  0  1  0  0  3  0  0  0  0  0  0
  191.1870  172.5950  134.5990 C   0  0  0  0  0  2  0  0  0  0  0  0
  189.9730  171.8760  135.1950 C   0  0  0  0  0  2  0  0  0  0  0  0
  189.7320  177.5420  137.8470 C   0  0  1  0  0  3  0  0  0  0  0  0
  188.2780  177.7430  137.5560 C   0  0  0  0  0  0  0  0  0  0  0  0
  193.7920  176.3160  136.8460 C   0  0  1  0  0  3  0  0  0  0  0  0
  193.3770  174.1450  138.0670 C   0  0  0  0  0  2  0  0  0  0  0  0
  186.2450  177.3270  136.9100 N   0  0  0  0  0  0  0  0  0  0  0  0
  195.6400  174.5990  137.0920 C   0  0  0  0  0  2  0  0  0  0  0  0
  191.8120  173.6280  135.5480 C   0  0  0  0  0  2  0  0  0  0  0  0
  191.9240  174.3740  137.9800 N   0  0  2  0  0  0  0  0  0  0  0  0
  191.2600  173.5110  136.9780 C   0  0  1  0  0  3  0  0  0  0  0  0
  189.3270  175.1690  136.8760 C   0  0  1  0  0  3  0  0  0  0  0  0
  186.3620  178.6240  137.1630 N   0  0  0  0  0  0  0  0  0  0  0  0
  195.0400  176.2780  134.5940 C   0  0  0  0  0  2  0  0  0  0  0  0
  194.1480  174.8240  136.9290 C   0  0  2  0  0  3  0  0  0  0  0  0
  187.6010  178.9110  137.5510 N   0  0  0  0  0  0  0  0  0  0  0  0
  194.5330  177.1130  135.7650 C   0  0  0  0  0  2  0  0  0  0  0  0
  196.2700  174.3750  135.7240 C   0  0  2  0  0  3  0  0  0  0  0  0
  189.0380  172.8730  135.8780 C   0  0  0  0  0  2  0  0  0  0  0  0
  189.7260  173.6900  136.9920 C   0  0  1  0  0  3  0  0  0  0  0  0
  187.8020  175.3140  137.0360 C   0  0  0  0  0  2  0  0  0  0  0  0
  192.2890  176.4730  136.6750 C   0  0  0  0  0  2  0  0  0  0  0  0
  190.0960  178.2220  139.1550 C   0  0  0  0  0  1  0  0  0  0  0  0
  185.0220  176.6780  136.4730 C   0  0  0  0  0  1  0  0  0  0  0  0
  190.0790  176.0350  137.9220 C   0  0  1  0  0  3  0  0  0  0  0  0
  187.4380  176.7580  137.1260 C   0  0  0  0  0  0  0  0  0  0  0  0
  197.5850  173.7770  135.8980 N   0  0  0  0  0  2  0  0  0  0  0  0
  197.7750  172.3720  136.0740 C   0  0  0  0  0  0  0  0  0  0  0  0
  196.7890  171.5880  136.1100 O   0  0  0  0  0  0  0  0  0  0  0  0
  199.1500  171.8290  136.2220 C   0  0  0  0  0  1  0  0  0  0  0  0
  1 20  1  0  0  0  0
  2 24  1  6  0  0  0
  2 27  1  0  0  0  0
  2 12  1  0  0  0  0
  3  4  1  0  0  0  0
  3 11  1  0  0  0  0
  4 21  1  0  0  0  0
  5 27  1  0  0  0  0
  5 25  1  1  0  0  0
  6  5  1  0  0  0  0
  7 19  1  6  0  0  0
  7 17  1  0  0  0  0
  9 28  1  0  0  0  0
  9 15  1  0  0  0  0
 12  8  1  6  0  0  0
 13 11  1  6  0  0  0
 13 22  1  0  0  0  0
 13 12  1  0  0  0  0
 14 22  1  0  0  0  0
 14 23  1  1  0  0  0
 14 27  1  0  0  0  0
 15 18  2  0  0  0  0
 16  1  1  0  0  0  0
 16 19  1  0  0  0  0
 17 10  1  1  0  0  0
 17  8  1  0  0  0  0
 18  6  1  0  0  0  0
 20 29  1  1  0  0  0
 20 10  1  0  0  0  0
 22 21  1  6  0  0  0
 23 28  1  0  0  0  0
 24  7  1  0  0  0  0
 26  9  1  0  0  0  0
 28  6  2  0  0  0  0
 29 30  1  0  0  0  0
 30 31  2  0  0  0  0
 30 32  1  0  0  0  0
M  END
>  <MODEL>
4

>  <REMARK>
 VINA RESULT:      -5.2      2.932      8.029
  Name = 
  1 active torsions:
  status: ('A' for Active; 'I' for Inactive)
    1  A    between atoms: C_20  and  N_29
                            x       y       z     vdW  Elec       q    Type
                         _______ _______ _______ _____ _____    ______ ____

>  <TORSDO>
F 1

$$$$
=
 OpenBabel11122410403D

 32 37  0  0  1  0  0  0  0  0999 V2000
  191.3050  175.6860  144.3370 C   0  0  0  0  0  2  0  0  0  0  0  0
  188.6080  178.5620  140.3220 C   0  0  1  0  0  3  0  0  0  0  0  0
  185.5420  177.4040  143.5490 C   0  0  0  0  0  2  0  0  0  0  0  0
  184.4450  178.3840  143.1240 C   0  0  0  0  0  2  0  0  0  0  0  0
  187.9560  177.8350  137.9700 C   0  0  1  0  0  3  0  0  0  0  0  0
  186.7890  177.6120  137.0600 C   0  0  0  0  0  0  0  0  0  0  0  0
  190.2320  177.2360  141.6370 C   0  0  1  0  0  3  0  0  0  0  0  0
  189.2970  179.4140  142.5070 C   0  0  0  0  0  2  0  0  0  0  0  0
  184.7350  177.4440  136.3730 N   0  0  0  0  0  0  0  0  0  0  0  0
  190.9640  178.1480  143.8860 C   0  0  0  0  0  2  0  0  0  0  0  0
  186.8840  177.6450  142.8430 C   0  0  0  0  0  2  0  0  0  0  0  0
  188.2190  179.3510  141.5050 N   0  0  2  0  0  0  0  0  0  0  0  0
  186.9090  178.9820  142.0840 C   0  0  1  0  0  3  0  0  0  0  0  0
  186.1340  178.2300  139.7760 C   0  0  1  0  0  3  0  0  0  0  0  0
  185.5460  176.9990  135.4240 N   0  0  0  0  0  0  0  0  0  0  0  0
  190.3880  175.2080  143.2190 C   0  0  0  0  0  2  0  0  0  0  0  0
  189.8250  178.0260  142.8900 C   0  0  2  0  0  3  0  0  0  0  0  0
  186.8130  177.0800  135.8200 N   0  0  0  0  0  0  0  0  0  0  0  0
  190.8140  175.8400  141.8970 C   0  0  0  0  0  2  0  0  0  0  0  0
  190.8590  177.0300  144.9130 C   0  0  2  0  0  3  0  0  0  0  0  0
  184.4310  178.5520  141.6060 C   0  0  0  0  0  2  0  0  0  0  0  0
  185.7790  179.0390  141.0340 C   0  0  1  0  0  3  0  0  0  0  0  0
  185.0480  178.4280  138.7020 C   0  0  0  0  0  2  0  0  0  0  0  0
  189.0490  177.1410  140.6870 C   0  0  0  0  0  2  0  0  0  0  0  0
  189.0500  178.5860  137.2320 C   0  0  0  0  0  1  0  0  0  0  0  0
  183.2880  177.5030  136.2620 C   0  0  0  0  0  1  0  0  0  0  0  0
  187.5310  178.6280  139.2310 C   0  0  1  0  0  3  0  0  0  0  0  0
  185.4870  177.8120  137.4170 C   0  0  0  0  0  0  0  0  0  0  0  0
  191.6810  177.3650  146.0660 N   0  0  0  0  0  2  0  0  0  0  0  0
  191.4990  176.7540  147.3450 C   0  0  0  0  0  0  0  0  0  0  0  0
  190.5870  175.9040  147.5300 O   0  0  0  0  0  0  0  0  0  0  0  0
  192.3920  177.1280  148.4710 C   0  0  0  0  0  1  0  0  0  0  0  0
  1 20  1  0  0  0  0
  2 24  1  1  0  0  0
  2 12  1  0  0  0  0
  4  3  1  0  0  0  0
  5 25  1  6  0  0  0
  5 27  1  0  0  0  0
  6 28  2  0  0  0  0
  6  5  1  0  0  0  0
  7 24  1  6  0  0  0
  7 19  1  0  0  0  0
  7 17  1  0  0  0  0
  9 28  1  0  0  0  0
 10 20  1  0  0  0  0
 11  3  1  0  0  0  0
 12 13  1  0  0  0  0
 12  8  1  1  0  0  0
 13 11  1  6  0  0  0
 14 23  1  6  0  0  0
 14 22  1  0  0  0  0
 15 18  2  0  0  0  0
 15  9  1  0  0  0  0
 16  1  1  0  0  0  0
 17  8  1  6  0  0  0
 17 10  1  0  0  0  0
 18  6  1  0  0  0  0
 19 16  1  0  0  0  0
 20 29  1  1  0  0  0
 21  4  1  0  0  0  0
 22 21  1  1  0  0  0
 22 13  1  0  0  0  0
 26  9  1  0  0  0  0
 27 14  1  0  0  0  0
 27  2  1  0  0  0  0
 28 23  1  0  0  0  0
 29 30  1  0  0  0  0
 30 31  2  0  0  0  0
 30 32  1  0  0  0  0
M  END
>  <MODEL>
5

>  <REMARK>
 VINA RESULT:      -5.0      5.872      8.681
  Name = 
  1 active torsions:
  status: ('A' for Active; 'I' for Inactive)
    1  A    between atoms: C_20  and  N_29
                            x       y       z     vdW  Elec       q    Type
                         _______ _______ _______ _____ _____    ______ ____

>  <TORSDO>
F 1

$$$$
=
 OpenBabel11122410403D

 32 37  0  0  1  0  0  0  0  0999 V2000
  183.0730  178.8030  142.8160 C   0  0  0  0  0  2  0  0  0  0  0  0
  185.6220  178.3830  137.8170 C   0  0  1  0  0  3  0  0  0  0  0  0
  182.9540  174.6770  138.3720 C   0  0  0  0  0  2  0  0  0  0  0  0
  182.9420  174.2360  136.9060 C   0  0  0  0  0  2  0  0  0  0  0  0
  188.0500  177.8360  137.2790 C   0  0  1  0  0  3  0  0  0  0  0  0
  188.9350  176.8520  136.5810 C   0  0  0  0  0  0  0  0  0  0  0  0
  184.9570  178.9910  140.1220 C   0  0  1  0  0  3  0  0  0  0  0  0
  183.3030  179.0450  138.2160 C   0  0  0  0  0  2  0  0  0  0  0  0
  189.5620  175.0830  135.4850 N   0  0  0  0  0  0  0  0  0  0  0  0
  182.5580  179.7090  140.5140 C   0  0  0  0  0  2  0  0  0  0  0  0
  183.5660  176.0690  138.5850 C   0  0  0  0  0  2  0  0  0  0  0  0
  184.2170  178.2270  137.4000 N   0  0  2  0  0  0  0  0  0  0  0  0
  183.7710  176.8240  137.2610 C   0  0  1  0  0  3  0  0  0  0  0  0
  186.1640  176.1510  136.6980 C   0  0  1  0  0  3  0  0  0  0  0  0
  190.6370  175.7320  135.9110 N   0  0  0  0  0  0  0  0  0  0  0  0
  184.2550  177.9510  142.3720 C   0  0  0  0  0  2  0  0  0  0  0  0
  183.4860  178.8080  139.7190 C   0  0  2  0  0  3  0  0  0  0  0  0
  190.2840  176.8160  136.5950 N   0  0  0  0  0  0  0  0  0  0  0  0
  185.2590  178.8160  141.6170 C   0  0  0  0  0  2  0  0  0  0  0  0
  182.0200  178.9450  141.7170 C   0  0  2  0  0  3  0  0  0  0  0  0
  184.2870  174.5310  136.2420 C   0  0  0  0  0  2  0  0  0  0  0  0
  184.6830  176.0220  136.3070 C   0  0  1  0  0  3  0  0  0  0  0  0
  187.0460  175.4560  135.6440 C   0  0  0  0  0  2  0  0  0  0  0  0
  185.8310  178.0580  139.3000 C   0  0  0  0  0  2  0  0  0  0  0  0
  188.4930  179.2520  136.9510 C   0  0  0  0  0  1  0  0  0  0  0  0
  189.5910  173.8620  134.6990 C   0  0  0  0  0  1  0  0  0  0  0  0
  186.5700  177.6390  136.8680 C   0  0  1  0  0  3  0  0  0  0  0  0
  188.4830  175.7520  135.9120 C   0  0  0  0  0  0  0  0  0  0  0  0
  180.8560  179.6420  142.2410 N   0  0  0  0  0  2  0  0  0  0  0  0
  180.0970  179.1510  143.3480 C   0  0  0  0  0  0  0  0  0  0  0  0
  180.4020  178.0630  143.9050 O   0  0  0  0  0  0  0  0  0  0  0  0
  178.9340  179.9300  143.8450 C   0  0  0  0  0  1  0  0  0  0  0  0
  2 24  1  1  0  0  0
  3 11  1  0  0  0  0
  4  3  1  0  0  0  0
  5 25  1  6  0  0  0
  6 18  1  0  0  0  0
  6  5  1  0  0  0  0
  7 24  1  6  0  0  0
  7 19  1  0  0  0  0
  9 15  1  0  0  0  0
  9 28  1  0  0  0  0
 10 20  1  0  0  0  0
 12  2  1  0  0  0  0
 12  8  1  1  0  0  0
 13 12  1  0  0  0  0
 13 11  1  1  0  0  0
 14 23  1  6  0  0  0
 14 27  1  0  0  0  0
 15 18  2  0  0  0  0
 16  1  1  0  0  0  0
 17  8  1  6  0  0  0
 17  7  1  0  0  0  0
 17 10  1  0  0  0  0
 19 16  1  0  0  0  0
 20 29  1  1  0  0  0
 20  1  1  0  0  0  0
 21  4  1  0  0  0  0
 22 21  1  1  0  0  0
 22 14  1  0  0  0  0
 22 13  1  0  0  0  0
 23 28  1  0  0  0  0
 26  9  1  0  0  0  0
 27  5  1  0  0  0  0
 27  2  1  0  0  0  0
 28  6  2  0  0  0  0
 29 30  1  0  0  0  0
 30 32  1  0  0  0  0
 30 31  2  0  0  0  0
M  END
>  <MODEL>
6

>  <REMARK>
 VINA RESULT:      -4.9      3.856      6.617
  Name = 
  1 active torsions:
  status: ('A' for Active; 'I' for Inactive)
    1  A    between atoms: C_20  and  N_29
                            x       y       z     vdW  Elec       q    Type
                         _______ _______ _______ _____ _____    ______ ____

>  <TORSDO>
F 1

$$$$
=
 OpenBabel11122410403D

 32 37  0  0  1  0  0  0  0  0999 V2000
  192.5130  173.7700  137.1680 C   0  0  0  0  0  2  0  0  0  0  0  0
  188.9630  177.9670  138.3700 C   0  0  1  0  0  3  0  0  0  0  0  0
  190.2120  175.9810  142.3260 C   0  0  0  0  0  2  0  0  0  0  0  0
  189.7510  177.1090  143.2540 C   0  0  0  0  0  2  0  0  0  0  0  0
  186.4420  178.1030  138.0340 C   0  0  1  0  0  3  0  0  0  0  0  0
  185.1390  178.2620  138.7530 C   0  0  0  0  0  0  0  0  0  0  0  0
  190.2800  176.1890  137.2640 C   0  0  1  0  0  3  0  0  0  0  0  0
  191.3940  178.0030  138.6200 C   0  0  0  0  0  2  0  0  0  0  0  0
  183.7110  178.4500  140.3790 N   0  0  0  0  0  0  0  0  0  0  0  0
  192.8020  176.2580  137.5020 C   0  0  0  0  0  2  0  0  0  0  0  0
  190.1890  176.3660  140.8400 C   0  0  0  0  0  2  0  0  0  0  0  0
  190.0980  178.3400  139.2340 N   0  0  2  0  0  0  0  0  0  0  0  0
  189.9810  177.8760  140.6330 C   0  0  1  0  0  3  0  0  0  0  0  0
  187.4440  177.9790  140.4250 C   0  0  1  0  0  3  0  0  0  0  0  0
  183.0510  178.3000  139.2390 N   0  0  0  0  0  0  0  0  0  0  0  0
  191.0410  173.7450  137.5590 C   0  0  0  0  0  2  0  0  0  0  0  0
  191.4690  176.5390  138.1700 C   0  0  2  0  0  3  0  0  0  0  0  0
  183.9010  178.1720  138.2240 N   0  0  0  0  0  0  0  0  0  0  0  0
  190.2670  174.7540  136.7170 C   0  0  0  0  0  2  0  0  0  0  0  0
  193.2840  174.8690  137.9000 C   0  0  2  0  0  3  0  0  0  0  0  0
  188.4870  177.7720  142.7100 C   0  0  0  0  0  2  0  0  0  0  0  0
  188.6630  178.3430  141.2870 C   0  0  1  0  0  3  0  0  0  0  0  0
  186.1680  178.5850  141.0400 C   0  0  0  0  0  2  0  0  0  0  0  0
  188.9790  176.4830  137.9920 C   0  0  0  0  0  2  0  0  0  0  0  0
  186.4650  178.9920  136.8030 C   0  0  0  0  0  1  0  0  0  0  0  0
  183.0860  178.6260  141.6780 C   0  0  0  0  0  1  0  0  0  0  0  0
  187.6330  178.4540  138.9600 C   0  0  1  0  0  3  0  0  0  0  0  0
  185.0210  178.4070  140.1040 C   0  0  0  0  0  0  0  0  0  0  0  0
  194.7030  174.7540  137.5990 N   0  0  0  0  0  2  0  0  0  0  0  0
  195.5470  173.7850  138.2250 C   0  0  0  0  0  0  0  0  0  0  0  0
  195.0880  172.9960  139.0930 O   0  0  0  0  0  0  0  0  0  0  0  0
  196.9820  173.7090  137.8500 C   0  0  0  0  0  1  0  0  0  0  0  0
  1 16  1  0  0  0  0
  1 20  1  0  0  0  0
  2 24  1  1  0  0  0
  2 27  1  0  0  0  0
  2 12  1  0  0  0  0
  3  4  1  0  0  0  0
  5 25  1  6  0  0  0
  5  6  1  0  0  0  0
  5 27  1  0  0  0  0
  6 28  2  0  0  0  0
  7 19  1  1  0  0  0
  7 24  1  0  0  0  0
  7 17  1  0  0  0  0
  9 26  1  0  0  0  0
 10 20  1  0  0  0  0
 11  3  1  0  0  0  0
 12  8  1  6  0  0  0
 12 13  1  0  0  0  0
 13 11  1  6  0  0  0
 13 22  1  0  0  0  0
 14 23  1  1  0  0  0
 14 22  1  0  0  0  0
 15  9  1  0  0  0  0
 17 10  1  6  0  0  0
 17  8  1  0  0  0  0
 18  6  1  0  0  0  0
 18 15  2  0  0  0  0
 19 16  1  0  0  0  0
 20 29  1  6  0  0  0
 21  4  1  0  0  0  0
 22 21  1  1  0  0  0
 27 14  1  0  0  0  0
 28  9  1  0  0  0  0
 28 23  1  0  0  0  0
 29 30  1  0  0  0  0
 30 31  2  0  0  0  0
 32 30  1  0  0  0  0
M  END
>  <MODEL>
7

>  <REMARK>
 VINA RESULT:      -4.7      2.986      9.018
  Name = 
  1 active torsions:
  status: ('A' for Active; 'I' for Inactive)
    1  A    between atoms: C_20  and  N_29
                            x       y       z     vdW  Elec       q    Type
                         _______ _______ _______ _____ _____    ______ ____

>  <TORSDO>
F 1

$$$$
=
 OpenBabel11122410403D

 32 37  0  0  1  0  0  0  0  0999 V2000
  191.8590  175.2350  146.8210 C   0  0  0  0  0  2  0  0  0  0  0  0
  190.7310  177.6640  141.8730 C   0  0  1  0  0  3  0  0  0  0  0  0
  186.7940  177.3340  144.2270 C   0  0  0  0  0  2  0  0  0  0  0  0
  185.9910  178.3320  143.3880 C   0  0  0  0  0  2  0  0  0  0  0  0
  190.6330  176.6320  139.5470 C   0  0  1  0  0  3  0  0  0  0  0  0
  189.7290  176.3740  138.3820 C   0  0  0  0  0  0  0  0  0  0  0  0
  191.7560  176.4220  143.7520 C   0  0  1  0  0  3  0  0  0  0  0  0
  190.9250  178.7890  144.0340 C   0  0  0  0  0  2  0  0  0  0  0  0
  187.9260  176.2900  137.1720 N   0  0  0  0  0  0  0  0  0  0  0  0
  191.9830  177.6130  145.9780 C   0  0  0  0  0  2  0  0  0  0  0  0
  188.2950  177.3320  143.9030 C   0  0  0  0  0  2  0  0  0  0  0  0
  190.1530  178.6670  142.7860 N   0  0  2  0  0  0  0  0  0  0  0  0
  188.6990  178.5210  143.0150 C   0  0  1  0  0  3  0  0  0  0  0  0
  188.4680  177.4810  140.6990 C   0  0  1  0  0  3  0  0  0  0  0  0
  188.8930  175.6240  136.5550 N   0  0  0  0  0  0  0  0  0  0  0  0
  191.2140  174.6710  145.5610 C   0  0  0  0  0  2  0  0  0  0  0  0
  191.1420  177.4380  144.7260 C   0  0  2  0  0  3  0  0  0  0  0  0
  190.0080  175.6490  137.2780 N   0  0  0  0  0  0  0  0  0  0  0  0
  192.0560  175.0380  144.3430 C   0  0  0  0  0  2  0  0  0  0  0  0
  191.4600  176.6890  147.0700 C   0  0  2  0  0  3  0  0  0  0  0  0
  186.4010  178.2520  141.9180 C   0  0  0  0  0  2  0  0  0  0  0  0
  187.9050  178.5120  141.6910 C   0  0  1  0  0  3  0  0  0  0  0  0
  187.7420  177.6040  139.3470 C   0  0  0  0  0  2  0  0  0  0  0  0
  190.8650  176.2860  142.5270 C   0  0  0  0  0  2  0  0  0  0  0  0
  191.9740  177.1480  139.0560 C   0  0  0  0  0  1  0  0  0  0  0  0
  186.5820  176.4660  136.6510 C   0  0  0  0  0  1  0  0  0  0  0  0
  190.0000  177.6540  140.5240 C   0  0  1  0  0  3  0  0  0  0  0  0
  188.4190  176.7500  138.3290 C   0  0  0  0  0  0  0  0  0  0  0  0
  191.9850  177.1280  148.3540 N   0  0  0  0  0  2  0  0  0  0  0  0
  193.1590  176.5620  148.9400 C   0  0  0  0  0  0  0  0  0  0  0  0
  193.7790  175.6280  148.3660 O   0  0  0  0  0  0  0  0  0  0  0  0
  193.6510  177.0770  150.2430 C   0  0  0  0  0  1  0  0  0  0  0  0
  1 20  1  0  0  0  0
  2 24  1  1  0  0  0
  2 12  1  0  0  0  0
  4  3  1  0  0  0  0
  5 25  1  6  0  0  0
  5 27  1  0  0  0  0
  6  5  1  0  0  0  0
  7 24  1  6  0  0  0
  7 19  1  0  0  0  0
  7 17  1  0  0  0  0
  9 28  1  0  0  0  0
 10 20  1  0  0  0  0
 11  3  1  0  0  0  0
 12 13  1  0  0  0  0
 12  8  1  1  0  0  0
 13 11  1  6  0  0  0
 14 23  1  6  0  0  0
 14 22  1  0  0  0  0
 15  9  1  0  0  0  0
 15 18  2  0  0  0  0
 16  1  1  0  0  0  0
 17  8  1  6  0  0  0
 17 10  1  0  0  0  0
 18  6  1  0  0  0  0
 19 16  1  0  0  0  0
 20 29  1  1  0  0  0
 21  4  1  0  0  0  0
 22 21  1  1  0  0  0
 22 13  1  0  0  0  0
 26  9  1  0  0  0  0
 27 14  1  0  0  0  0
 27  2  1  0  0  0  0
 28  6  2  0  0  0  0
 28 23  1  0  0  0  0
 29 30  1  0  0  0  0
 30 32  1  0  0  0  0
 31 30  2  0  0  0  0
M  END
>  <MODEL>
8

>  <REMARK>
 VINA RESULT:      -4.7      5.188      8.550
  Name = 
  1 active torsions:
  status: ('A' for Active; 'I' for Inactive)
    1  A    between atoms: C_20  and  N_29
                            x       y       z     vdW  Elec       q    Type
                         _______ _______ _______ _____ _____    ______ ____

>  <TORSDO>
F 1

$$$$
=
 OpenBabel11122410403D

 32 37  0  0  1  0  0  0  0  0999 V2000
  183.5080  178.6960  140.3490 C   0  0  0  0  0  2  0  0  0  0  0  0
  186.4820  176.7940  135.9670 C   0  0  1  0  0  3  0  0  0  0  0  0
  184.4210  173.1970  137.9580 C   0  0  0  0  0  2  0  0  0  0  0  0
  184.5980  172.2150  136.7960 C   0  0  0  0  0  2  0  0  0  0  0  0
  189.0020  176.5290  135.7130 C   0  0  1  0  0  3  0  0  0  0  0  0
  190.0890  175.5280  135.4800 C   0  0  0  0  0  0  0  0  0  0  0  0
  185.5450  178.1360  137.8230 C   0  0  1  0  0  3  0  0  0  0  0  0
  184.0620  177.1270  136.0470 C   0  0  0  0  0  2  0  0  0  0  0  0
  191.0810  173.6150  135.1990 N   0  0  0  0  0  0  0  0  0  0  0  0
  183.0380  178.5020  137.8750 C   0  0  0  0  0  2  0  0  0  0  0  0
  184.7780  174.6450  137.5930 C   0  0  0  0  0  2  0  0  0  0  0  0
  185.1590  176.2330  135.6390 N   0  0  2  0  0  0  0  0  0  0  0  0
  184.9610  174.8340  136.0780 C   0  0  1  0  0  3  0  0  0  0  0  0
  187.4690  174.4400  135.8530 C   0  0  1  0  0  3  0  0  0  0  0  0
  191.9990  174.5630  135.3320 N   0  0  0  0  0  0  0  0  0  0  0  0
  184.8450  177.9680  140.2970 C   0  0  0  0  0  2  0  0  0  0  0  0
  184.1610  177.5450  137.5190 C   0  0  2  0  0  3  0  0  0  0  0  0
  191.4200  175.7470  135.5160 N   0  0  0  0  0  0  0  0  0  0  0  0
  185.7510  178.6280  139.2620 C   0  0  0  0  0  2  0  0  0  0  0  0
  182.5380  178.1950  139.2800 C   0  0  2  0  0  3  0  0  0  0  0  0
  185.9250  172.4620  136.0790 C   0  0  0  0  0  2  0  0  0  0  0  0
  186.0660  173.9000  135.5370 C   0  0  1  0  0  3  0  0  0  0  0  0
  188.5340  173.5570  135.1770 C   0  0  0  0  0  2  0  0  0  0  0  0
  186.6230  177.1290  137.4550 C   0  0  0  0  0  2  0  0  0  0  0  0
  189.2320  177.7530  134.8420 C   0  0  0  0  0  1  0  0  0  0  0  0
  191.3720  172.2100  134.9760 C   0  0  0  0  0  1  0  0  0  0  0  0
  187.6120  175.9200  135.4080 C   0  0  1  0  0  3  0  0  0  0  0  0
  189.8780  174.1910  135.3110 C   0  0  0  0  0  0  0  0  0  0  0  0
  181.2370  178.8180  139.4680 N   0  0  0  0  0  2  0  0  0  0  0  0
  180.2270  178.2550  140.3080 C   0  0  0  0  0  0  0  0  0  0  0  0
  180.4220  177.1650  140.9070 O   0  0  0  0  0  0  0  0  0  0  0  0
  178.9310  178.9610  140.4730 C   0  0  0  0  0  1  0  0  0  0  0  0
  2 24  1  1  0  0  0
  4  3  1  0  0  0  0
  5 25  1  6  0  0  0
  6 18  1  0  0  0  0
  6  5  1  0  0  0  0
  7 24  1  1  0  0  0
  7 19  1  0  0  0  0
  9 28  1  0  0  0  0
  9 15  1  0  0  0  0
 10 20  1  0  0  0  0
 11  3  1  0  0  0  0
 12  2  1  0  0  0  0
 12  8  1  1  0  0  0
 12 13  1  0  0  0  0
 13 11  1  1  0  0  0
 14 23  1  6  0  0  0
 15 18  2  0  0  0  0
 16  1  1  0  0  0  0
 17  8  1  6  0  0  0
 17  7  1  0  0  0  0
 17 10  1  0  0  0  0
 19 16  1  0  0  0  0
 20 29  1  1  0  0  0
 20  1  1  0  0  0  0
 21  4  1  0  0  0  0
 22 14  1  0  0  0  0
 22 13  1  0  0  0  0
 22 21  1  1  0  0  0
 23 28  1  0  0  0  0
 26  9  1  0  0  0  0
 27  5  1  0  0  0  0
 27 14  1  0  0  0  0
 27  2  1  0  0  0  0
 28  6  2  0  0  0  0
 29 30  1  0  0  0  0
 30 32  1  0  0  0  0
 30 31  2  0  0  0  0
M  END
>  <MODEL>
9

>  <REMARK>
 VINA RESULT:      -4.6      3.176      5.094
  Name = 
  1 active torsions:
  status: ('A' for Active; 'I' for Inactive)
    1  A    between atoms: C_20  and  N_29
                            x       y       z     vdW  Elec       q    Type
                         _______ _______ _______ _____ _____    ______ ____

>  <TORSDO>
F 1

$$$$
