=
 OpenBabel11122411203D

 31 35  0  0  1  0  0  0  0  0999 V2000
  192.6760  175.4170  135.8670 C   0  0  2  0  0  3  0  0  0  0  0  0
  189.4660  177.3960  136.7470 C   0  0  2  0  0  3  0  0  0  0  0  0
  187.9950  177.0370  136.6560 C   0  0  0  0  0  0  0  0  0  0  0  0
  186.1820  175.7830  135.6340 C   0  0  0  0  0  0  0  0  0  0  0  0
  190.3790  176.1820  136.5080 C   0  0  1  0  0  3  0  0  0  0  0  0
  192.7380  174.5360  137.1110 C   0  0  0  0  0  2  0  0  0  0  0  0
  187.5420  176.0900  135.7250 C   0  0  0  0  0  3  0  0  0  0  0  0
  189.8630  177.1350  139.1810 N   0  0  0  0  0  0  0  0  0  0  0  0
  194.0720  175.8800  135.5070 C   0  0  0  0  0  1  0  0  0  0  0  0
  187.4740  178.6940  138.3660 O   0  0  0  0  0  0  0  0  0  0  0  0
  185.7560  174.8570  134.7410 F   0  0  0  0  0  0  0  0  0  0  0  0
  190.7360  175.9740  139.0120 C   0  0  0  0  0  2  0  0  0  0  0  0
  189.8150  178.1020  138.0760 C   0  0  2  0  0  3  0  0  0  0  0  0
  191.7910  176.6310  136.1280 C   0  0  0  0  0  2  0  0  0  0  0  0
  185.2620  176.4280  136.4630 C   0  0  0  0  0  3  0  0  0  0  0  0
  190.3870  175.2340  137.7230 C   0  0  2  0  0  3  0  0  0  0  0  0
  191.3380  174.0570  137.4920 C   0  0  0  0  0  2  0  0  0  0  0  0
  188.8000  179.2200  138.3370 C   0  0  0  0  0  2  0  0  0  0  0  0
  187.0560  177.7120  137.4620 C   0  0  0  0  0  0  0  0  0  0  0  0
  185.6980  177.3920  137.3750 C   0  0  0  0  0  3  0  0  0  0  0  0
  191.8170  177.4780  141.2770 C   0  0  0  0  0  1  0  0  0  0  0  0
  190.3560  177.7700  141.4390 C   0  0  0  0  0  0  0  0  0  0  0  0
  189.5080  177.5520  140.4780 N   0  0  0  0  0  0  0  0  0  0  0  0
  191.3520  177.2500  145.0590 C   0  0  0  0  0  0  0  0  0  0  0  0
  190.7670  179.1290  143.5220 C   0  0  0  0  0  2  0  0  0  0  0  0
  188.0890  176.1550  143.2860 S   0  0  0  0  0  0  0  0  0  0  0  0
  192.0650  176.8380  146.1340 F   0  0  0  0  0  0  0  0  0  0  0  0
  191.8970  178.3580  144.2040 C   0  0  0  0  0  2  0  0  0  0  0  0
  189.4410  177.0090  143.6270 C   0  0  0  0  0  0  0  0  0  0  0  0
  189.8170  178.1890  142.7750 C   0  0  2  0  0  3  0  0  0  0  0  0
  190.2530  176.6310  144.7480 N   0  0  0  0  0  0  0  0  0  0  0  0
  1  9  1  1  0  0  0
  1 14  1  0  0  0  0
  1  6  1  0  0  0  0
  2  3  1  1  0  0  0
  2 13  1  0  0  0  0
  3 19  1  0  0  0  0
  4  7  1  0  0  0  0
  4 15  2  0  0  0  0
  5 14  1  1  0  0  0
  5  2  1  0  0  0  0
  5 16  1  0  0  0  0
  6 17  1  0  0  0  0
  7  3  2  0  0  0  0
  8 23  1  0  0  0  0
 11  4  1  0  0  0  0
 12  8  1  0  0  0  0
 13 18  1  1  0  0  0
 13  8  1  0  0  0  0
 15 20  1  0  0  0  0
 16 17  1  6  0  0  0
 16 12  1  0  0  0  0
 18 10  1  0  0  0  0
 19 10  1  0  0  0  0
 20 19  2  0  0  0  0
 21 22  1  0  0  0  0
 23 22  2  0  0  0  0
 24 27  1  0  0  0  0
 25 28  1  0  0  0  0
 26 29  2  0  0  0  0
 28 24  1  0  0  0  0
 29 31  1  0  0  0  0
 30 22  1  6  0  0  0
 30 25  1  0  0  0  0
 30 29  1  0  0  0  0
 31 24  2  0  0  0  0
M  END
>  <MODEL>
1

>  <REMARK>
 VINA RESULT:      -7.3      0.000      0.000
  Name = 
  2 active torsions:
  status: ('A' for Active; 'I' for Inactive)
    1  A    between atoms: C_5  and  C_30
    2  A    between atoms: N_10  and  N_16
                            x       y       z     vdW  Elec       q    Type
                         _______ _______ _______ _____ _____    ______ ____

>  <TORSDO>
F 2

$$$$
=
 OpenBabel11122411203D

 31 35  0  0  1  0  0  0  0  0999 V2000
  183.2420  179.1170  143.2170 C   0  0  2  0  0  3  0  0  0  0  0  0
  180.9550  178.8570  140.1020 C   0  0  2  0  0  3  0  0  0  0  0  0
  180.8520  179.7000  138.8450 C   0  0  0  0  0  0  0  0  0  0  0  0
  181.1110  181.8250  137.6950 C   0  0  0  0  0  0  0  0  0  0  0  0
  182.1890  179.2160  140.9460 C   0  0  1  0  0  3  0  0  0  0  0  0
  184.5030  178.5060  142.6150 C   0  0  0  0  0  2  0  0  0  0  0  0
  181.2310  181.0510  138.8520 C   0  0  0  0  0  3  0  0  0  0  0  0
  182.1930  176.8860  139.2460 N   0  0  0  0  0  0  0  0  0  0  0  0
  183.0650  178.6150  144.6350 C   0  0  0  0  0  1  0  0  0  0  0  0
  179.8720  177.8160  137.6500 O   0  0  0  0  0  0  0  0  0  0  0  0
  181.4920  183.1240  137.7070 F   0  0  0  0  0  0  0  0  0  0  0  0
  183.3950  177.1830  140.0240 C   0  0  0  0  0  2  0  0  0  0  0  0
  180.9100  177.3430  139.7970 C   0  0  2  0  0  3  0  0  0  0  0  0
  182.0220  178.7300  142.3870 C   0  0  0  0  0  2  0  0  0  0  0  0
  180.6000  181.2580  136.5250 C   0  0  0  0  0  3  0  0  0  0  0  0
  183.4850  178.6800  140.3080 C   0  0  2  0  0  3  0  0  0  0  0  0
  184.6990  179.0010  141.1820 C   0  0  0  0  0  2  0  0  0  0  0  0
  179.7430  177.0530  138.8490 C   0  0  0  0  0  2  0  0  0  0  0  0
  180.3010  179.1470  137.6720 C   0  0  0  0  0  0  0  0  0  0  0  0
  180.1940  179.9220  136.5140 C   0  0  0  0  0  3  0  0  0  0  0  0
  183.1940  177.1850  136.5570 C   0  0  0  0  0  1  0  0  0  0  0  0
  182.6950  175.8910  137.1240 C   0  0  0  0  0  0  0  0  0  0  0  0
  182.2080  175.8190  138.3270 N   0  0  0  0  0  0  0  0  0  0  0  0
  180.6700  172.6870  137.1150 C   0  0  0  0  0  0  0  0  0  0  0  0
  181.2640  174.5400  135.5490 C   0  0  0  0  0  2  0  0  0  0  0  0
  184.5080  173.1010  137.4140 S   0  0  0  0  0  0  0  0  0  0  0  0
  179.7560  171.7610  137.4870 F   0  0  0  0  0  0  0  0  0  0  0  0
  180.1980  173.9640  136.4800 C   0  0  0  0  0  2  0  0  0  0  0  0
  182.9550  173.4170  137.0140 C   0  0  0  0  0  0  0  0  0  0  0  0
  182.6160  174.6700  136.2560 C   0  0  2  0  0  3  0  0  0  0  0  0
  181.9270  172.4860  137.3790 N   0  0  0  0  0  0  0  0  0  0  0  0
  1  9  1  1  0  0  0
  2  3  1  6  0  0  0
  2  5  1  0  0  0  0
  3  7  1  0  0  0  0
  4 11  1  0  0  0  0
  4  7  2  0  0  0  0
  5 14  1  1  0  0  0
  6  1  1  0  0  0  0
  8 13  1  0  0  0  0
  8 12  1  0  0  0  0
 10 19  1  0  0  0  0
 10 18  1  0  0  0  0
 13 18  1  6  0  0  0
 13  2  1  0  0  0  0
 14  1  1  0  0  0  0
 15  4  1  0  0  0  0
 16 12  1  1  0  0  0
 16  5  1  0  0  0  0
 16 17  1  0  0  0  0
 17  6  1  0  0  0  0
 19  3  2  0  0  0  0
 20 15  2  0  0  0  0
 20 19  1  0  0  0  0
 21 22  1  0  0  0  0
 22 23  2  0  0  0  0
 23  8  1  0  0  0  0
 24 31  2  0  0  0  0
 24 27  1  0  0  0  0
 25 30  1  0  0  0  0
 25 28  1  0  0  0  0
 28 24  1  0  0  0  0
 29 31  1  0  0  0  0
 29 26  2  0  0  0  0
 30 29  1  0  0  0  0
 30 22  1  1  0  0  0
M  END
>  <MODEL>
2

>  <REMARK>
 VINA RESULT:      -7.3      7.398     10.172
  Name = 
  2 active torsions:
  status: ('A' for Active; 'I' for Inactive)
    1  A    between atoms: C_5  and  C_30
    2  A    between atoms: N_10  and  N_16
                            x       y       z     vdW  Elec       q    Type
                         _______ _______ _______ _____ _____    ______ ____

>  <TORSDO>
F 2

$$$$
=
 OpenBabel11122411203D

 31 35  0  0  1  0  0  0  0  0999 V2000
  186.8510  177.8190  135.9360 C   0  0  2  0  0  3  0  0  0  0  0  0
  189.5420  177.7860  138.7200 C   0  0  2  0  0  3  0  0  0  0  0  0
  189.4590  177.5130  140.2100 C   0  0  0  0  0  0  0  0  0  0  0  0
  188.2100  177.5110  142.2940 C   0  0  0  0  0  0  0  0  0  0  0  0
  188.2350  177.4400  137.9890 C   0  0  1  0  0  3  0  0  0  0  0  0
  186.7320  176.3130  135.7290 C   0  0  0  0  0  2  0  0  0  0  0  0
  188.2700  177.7440  140.9170 C   0  0  0  0  0  3  0  0  0  0  0  0
  190.4910  175.6460  137.9030 N   0  0  0  0  0  0  0  0  0  0  0  0
  186.8060  178.5180  134.5940 C   0  0  0  0  0  1  0  0  0  0  0  0
  191.8180  176.9010  140.2400 O   0  0  0  0  0  0  0  0  0  0  0  0
  187.0530  177.7240  142.9670 F   0  0  0  0  0  0  0  0  0  0  0  0
  189.2710  175.2640  137.1940 C   0  0  0  0  0  2  0  0  0  0  0  0
  190.7510  177.0820  138.0630 C   0  0  2  0  0  3  0  0  0  0  0  0
  188.1650  178.1510  136.6360 C   0  0  0  0  0  2  0  0  0  0  0  0
  189.3410  177.0580  142.9760 C   0  0  0  0  0  3  0  0  0  0  0  0
  188.0540  175.9170  137.8460 C   0  0  2  0  0  3  0  0  0  0  0  0
  186.7750  175.5880  137.0740 C   0  0  0  0  0  2  0  0  0  0  0  0
  192.0070  177.3480  138.8990 C   0  0  0  0  0  2  0  0  0  0  0  0
  190.6070  177.0940  140.9130 C   0  0  0  0  0  0  0  0  0  0  0  0
  190.5380  176.8510  142.2880 C   0  0  0  0  0  3  0  0  0  0  0  0
  192.2660  175.1990  135.6730 C   0  0  0  0  0  1  0  0  0  0  0  0
  192.4220  174.5410  137.0100 C   0  0  0  0  0  0  0  0  0  0  0  0
  191.5660  174.7390  137.9690 N   0  0  0  0  0  0  0  0  0  0  0  0
  195.9390  173.9870  135.7090 C   0  0  0  0  0  0  0  0  0  0  0  0
  194.7430  174.1140  137.8980 C   0  0  0  0  0  2  0  0  0  0  0  0
  192.8490  171.6860  135.3310 S   0  0  0  0  0  0  0  0  0  0  0  0
  197.0890  174.1980  135.0270 F   0  0  0  0  0  0  0  0  0  0  0  0
  195.6240  174.8560  136.8930 C   0  0  0  0  0  2  0  0  0  0  0  0
  193.8630  172.8070  135.9540 C   0  0  0  0  0  0  0  0  0  0  0  0
  193.5010  173.5220  137.2250 C   0  0  2  0  0  3  0  0  0  0  0  0
  195.1000  173.0900  135.2840 N   0  0  0  0  0  0  0  0  0  0  0  0
  1  9  1  6  0  0  0
  1 14  1  0  0  0  0
  2  3  1  1  0  0  0
  3 19  2  0  0  0  0
  3  7  1  0  0  0  0
  4 11  1  0  0  0  0
  4 15  1  0  0  0  0
  5 14  1  6  0  0  0
  5  2  1  0  0  0  0
  6  1  1  0  0  0  0
  6 17  1  0  0  0  0
  7  4  2  0  0  0  0
  8 23  1  0  0  0  0
  8 13  1  0  0  0  0
 10 19  1  0  0  0  0
 12 16  1  0  0  0  0
 12  8  1  0  0  0  0
 13  2  1  0  0  0  0
 13 18  1  1  0  0  0
 16 17  1  6  0  0  0
 16  5  1  0  0  0  0
 18 10  1  0  0  0  0
 19 20  1  0  0  0  0
 20 15  2  0  0  0  0
 21 22  1  0  0  0  0
 22 23  2  0  0  0  0
 24 28  1  0  0  0  0
 26 29  2  0  0  0  0
 27 24  1  0  0  0  0
 28 25  1  0  0  0  0
 29 30  1  0  0  0  0
 30 22  1  6  0  0  0
 30 25  1  0  0  0  0
 31 24  2  0  0  0  0
 31 29  1  0  0  0  0
M  END
>  <MODEL>
3

>  <REMARK>
 VINA RESULT:      -7.1      3.742      6.880
  Name = 
  2 active torsions:
  status: ('A' for Active; 'I' for Inactive)
    1  A    between atoms: C_5  and  C_30
    2  A    between atoms: N_10  and  N_16
                            x       y       z     vdW  Elec       q    Type
                         _______ _______ _______ _____ _____    ______ ____

>  <TORSDO>
F 2

$$$$
=
 OpenBabel11122411203D

 31 35  0  0  1  0  0  0  0  0999 V2000
  191.3870  177.7060  143.2620 C   0  0  2  0  0  3  0  0  0  0  0  0
  190.6420  177.8090  139.4630 C   0  0  2  0  0  3  0  0  0  0  0  0
  190.7470  176.7540  138.3790 C   0  0  0  0  0  0  0  0  0  0  0  0
  191.7570  174.7330  137.4840 C   0  0  0  0  0  0  0  0  0  0  0  0
  190.8180  177.2190  140.8720 C   0  0  1  0  0  3  0  0  0  0  0  0
  190.1100  177.0050  143.7170 C   0  0  0  0  0  2  0  0  0  0  0  0
  191.6510  175.6880  138.4990 C   0  0  0  0  0  3  0  0  0  0  0  0
  188.1930  177.8390  139.8530 N   0  0  0  0  0  0  0  0  0  0  0  0
  191.7370  178.8030  144.2450 C   0  0  0  0  0  1  0  0  0  0  0  0
  189.1100  177.9580  137.0340 O   0  0  0  0  0  0  0  0  0  0  0  0
  192.6230  173.7000  137.6140 F   0  0  0  0  0  0  0  0  0  0  0  0
  188.3020  177.2750  141.1970 C   0  0  0  0  0  2  0  0  0  0  0  0
  189.3330  178.6240  139.3620 C   0  0  2  0  0  3  0  0  0  0  0  0
  191.1880  178.3110  141.8770 C   0  0  0  0  0  2  0  0  0  0  0  0
  190.9690  174.8430  136.3360 C   0  0  0  0  0  3  0  0  0  0  0  0
  189.5700  176.4320  141.3150 C   0  0  2  0  0  3  0  0  0  0  0  0
  189.7390  175.8920  142.7370 C   0  0  0  0  0  2  0  0  0  0  0  0
  189.1330  179.0810  137.9130 C   0  0  0  0  0  2  0  0  0  0  0  0
  189.9840  176.8790  137.2000 C   0  0  0  0  0  0  0  0  0  0  0  0
  190.0860  175.9150  136.1930 C   0  0  0  0  0  3  0  0  0  0  0  0
  186.0480  179.0920  141.3220 C   0  0  0  0  0  1  0  0  0  0  0  0
  185.9380  178.6530  139.8930 C   0  0  0  0  0  0  0  0  0  0  0  0
  186.9190  178.0480  139.2910 N   0  0  0  0  0  0  0  0  0  0  0  0
  182.7330  176.6390  139.7000 C   0  0  0  0  0  0  0  0  0  0  0  0
  183.4510  178.9940  140.1170 C   0  0  0  0  0  2  0  0  0  0  0  0
  185.2140  177.4820  136.8500 S   0  0  0  0  0  0  0  0  0  0  0  0
  181.8290  175.6630  139.9510 F   0  0  0  0  0  0  0  0  0  0  0  0
  182.9910  177.6820  140.7500 C   0  0  0  0  0  2  0  0  0  0  0  0
  184.3830  177.6100  138.2520 C   0  0  0  0  0  0  0  0  0  0  0  0
  184.6310  178.7770  139.1670 C   0  0  2  0  0  3  0  0  0  0  0  0
  183.4100  176.6120  138.5910 N   0  0  0  0  0  0  0  0  0  0  0  0
  1  6  1  0  0  0  0
  1  9  1  1  0  0  0
  2  3  1  6  0  0  0
  2  5  1  0  0  0  0
  3  7  1  0  0  0  0
  4 11  1  0  0  0  0
  4  7  2  0  0  0  0
  5 16  1  0  0  0  0
  5 14  1  1  0  0  0
  8 12  1  0  0  0  0
 10 19  1  0  0  0  0
 10 18  1  0  0  0  0
 13 18  1  6  0  0  0
 13  2  1  0  0  0  0
 13  8  1  0  0  0  0
 14  1  1  0  0  0  0
 15  4  1  0  0  0  0
 16 12  1  1  0  0  0
 16 17  1  0  0  0  0
 17  6  1  0  0  0  0
 19  3  2  0  0  0  0
 20 15  2  0  0  0  0
 20 19  1  0  0  0  0
 22 21  1  0  0  0  0
 23  8  1  0  0  0  0
 23 22  2  0  0  0  0
 24 27  1  0  0  0  0
 24 28  1  0  0  0  0
 25 28  1  0  0  0  0
 26 29  2  0  0  0  0
 29 31  1  0  0  0  0
 29 30  1  0  0  0  0
 30 22  1  1  0  0  0
 30 25  1  0  0  0  0
 31 24  2  0  0  0  0
M  END
>  <MODEL>
4

>  <REMARK>
 VINA RESULT:      -7.0      3.186      6.334
  Name = 
  2 active torsions:
  status: ('A' for Active; 'I' for Inactive)
    1  A    between atoms: C_5  and  C_30
    2  A    between atoms: N_10  and  N_16
                            x       y       z     vdW  Elec       q    Type
                         _______ _______ _______ _____ _____    ______ ____

>  <TORSDO>
F 2

$$$$
=
 OpenBabel11122411203D

 31 35  0  0  1  0  0  0  0  0999 V2000
  180.8600  179.0560  139.2220 C   0  0  2  0  0  3  0  0  0  0  0  0
  184.7250  179.0600  139.4710 C   0  0  2  0  0  3  0  0  0  0  0  0
  185.6710  178.6700  140.5910 C   0  0  0  0  0  0  0  0  0  0  0  0
  186.1500  178.3980  142.9570 C   0  0  0  0  0  0  0  0  0  0  0  0
  183.2720  178.6520  139.7640 C   0  0  1  0  0  3  0  0  0  0  0  0
  180.6580  177.5640  138.9730 C   0  0  0  0  0  2  0  0  0  0  0  0
  185.2640  178.7370  141.9310 C   0  0  0  0  0  3  0  0  0  0  0  0
  184.9130  177.0820  137.9870 N   0  0  0  0  0  0  0  0  0  0  0  0
  179.9110  179.8460  138.3460 C   0  0  0  0  0  1  0  0  0  0  0  0
  187.4450  178.2740  138.9680 O   0  0  0  0  0  0  0  0  0  0  0  0
  185.7440  178.4530  144.2480 F   0  0  0  0  0  0  0  0  0  0  0  0
  183.5390  176.6450  138.2350 C   0  0  0  0  0  2  0  0  0  0  0  0
  185.1880  178.5200  138.0990 C   0  0  2  0  0  3  0  0  0  0  0  0
  182.2970  179.4520  138.8990 C   0  0  0  0  0  2  0  0  0  0  0  0
  187.4530  178.0000  142.6520 C   0  0  0  0  0  3  0  0  0  0  0  0
  183.0680  177.1330  139.6030 C   0  0  2  0  0  3  0  0  0  0  0  0
  181.6080  176.7480  139.8500 C   0  0  0  0  0  2  0  0  0  0  0  0
  186.6740  178.8360  137.9070 C   0  0  0  0  0  2  0  0  0  0  0  0
  186.9990  178.3050  140.2930 C   0  0  0  0  0  0  0  0  0  0  0  0
  187.8780  177.9550  141.3220 C   0  0  0  0  0  3  0  0  0  0  0  0
  184.5990  176.8050  135.1320 C   0  0  0  0  0  1  0  0  0  0  0  0
  185.6980  176.1590  135.9190 C   0  0  0  0  0  0  0  0  0  0  0  0
  185.7670  176.2740  137.2120 N   0  0  0  0  0  0  0  0  0  0  0  0
  187.5780  173.0060  136.8660 C   0  0  0  0  0  0  0  0  0  0  0  0
  186.0980  173.8330  135.0320 C   0  0  0  0  0  2  0  0  0  0  0  0
  189.0240  176.4490  135.8450 S   0  0  0  0  0  0  0  0  0  0  0  0
  187.9970  171.9500  137.6010 F   0  0  0  0  0  0  0  0  0  0  0  0
  186.1820  173.0000  136.3110 C   0  0  0  0  0  2  0  0  0  0  0  0
  187.9900  175.1870  135.9520 C   0  0  0  0  0  0  0  0  0  0  0  0
  186.6680  175.2380  135.2390 C   0  0  2  0  0  3  0  0  0  0  0  0
  188.3610  174.0330  136.7180 N   0  0  0  0  0  0  0  0  0  0  0  0
  1  9  1  6  0  0  0
  2  5  1  0  0  0  0
  2  3  1  1  0  0  0
  3  7  1  0  0  0  0
  4 11  1  0  0  0  0
  5 14  1  6  0  0  0
  6  1  1  0  0  0  0
  6 17  1  0  0  0  0
  7  4  2  0  0  0  0
  8 13  1  0  0  0  0
  8 12  1  0  0  0  0
 10 19  1  0  0  0  0
 13 18  1  1  0  0  0
 13  2  1  0  0  0  0
 14  1  1  0  0  0  0
 15  4  1  0  0  0  0
 16 12  1  6  0  0  0
 16  5  1  0  0  0  0
 16 17  1  0  0  0  0
 18 10  1  0  0  0  0
 19  3  2  0  0  0  0
 19 20  1  0  0  0  0
 20 15  2  0  0  0  0
 21 22  1  0  0  0  0
 22 23  2  0  0  0  0
 23  8  1  0  0  0  0
 24 27  1  0  0  0  0
 25 30  1  0  0  0  0
 25 28  1  0  0  0  0
 26 29  2  0  0  0  0
 28 24  1  0  0  0  0
 29 31  1  0  0  0  0
 30 22  1  1  0  0  0
 30 29  1  0  0  0  0
 31 24  2  0  0  0  0
M  END
>  <MODEL>
5

>  <REMARK>
 VINA RESULT:      -6.9      4.076      8.500
  Name = 
  2 active torsions:
  status: ('A' for Active; 'I' for Inactive)
    1  A    between atoms: C_5  and  C_30
    2  A    between atoms: N_10  and  N_16
                            x       y       z     vdW  Elec       q    Type
                         _______ _______ _______ _____ _____    ______ ____

>  <TORSDO>
F 2

$$$$
=
 OpenBabel11122411203D

 31 35  0  0  1  0  0  0  0  0999 V2000
  193.4160  175.6770  135.6750 C   0  0  2  0  0  3  0  0  0  0  0  0
  189.6020  176.1370  136.1670 C   0  0  2  0  0  3  0  0  0  0  0  0
  188.4990  175.1580  136.5220 C   0  0  0  0  0  0  0  0  0  0  0  0
  187.5880  172.9050  136.5200 C   0  0  0  0  0  0  0  0  0  0  0  0
  191.0020  175.5220  136.3260 C   0  0  1  0  0  3  0  0  0  0  0  0
  193.8230  175.6360  137.1450 C   0  0  0  0  0  2  0  0  0  0  0  0
  188.6190  173.7960  136.2100 C   0  0  0  0  0  3  0  0  0  0  0  0
  189.9300  177.2830  138.3420 N   0  0  0  0  0  0  0  0  0  0  0  0
  194.4300  176.4850  134.8930 C   0  0  0  0  0  1  0  0  0  0  0  0
  187.1380  176.9880  137.3830 O   0  0  0  0  0  0  0  0  0  0  0  0
  187.7180  171.5890  136.2280 F   0  0  0  0  0  0  0  0  0  0  0  0
  191.2640  176.7220  138.5460 C   0  0  0  0  0  2  0  0  0  0  0  0
  189.4840  177.4610  136.9540 C   0  0  2  0  0  3  0  0  0  0  0  0
  192.0390  176.3160  135.5300 C   0  0  0  0  0  2  0  0  0  0  0  0
  186.4230  173.3720  137.1330 C   0  0  0  0  0  3  0  0  0  0  0  0
  191.3970  175.3910  137.8100 C   0  0  2  0  0  3  0  0  0  0  0  0
  192.8110  174.8240  137.9520 C   0  0  0  0  0  2  0  0  0  0  0  0
  188.0410  177.9690  136.8760 C   0  0  0  0  0  2  0  0  0  0  0  0
  187.3040  175.6270  137.1040 C   0  0  0  0  0  0  0  0  0  0  0  0
  186.2800  174.7310  137.4230 C   0  0  0  0  0  3  0  0  0  0  0  0
  189.7380  176.3520  141.0660 C   0  0  0  0  0  1  0  0  0  0  0  0
  189.2770  177.7020  140.6100 C   0  0  0  0  0  0  0  0  0  0  0  0
  189.3400  178.0560  139.3610 N   0  0  0  0  0  0  0  0  0  0  0  0
  187.4000  177.3250  143.8820 C   0  0  0  0  0  0  0  0  0  0  0  0
  189.2830  178.6670  142.9390 C   0  0  0  0  0  2  0  0  0  0  0  0
  186.0940  178.7110  140.5110 S   0  0  0  0  0  0  0  0  0  0  0  0
  186.8550  176.7380  144.9730 F   0  0  0  0  0  0  0  0  0  0  0  0
  188.8930  177.4640  143.7970 C   0  0  0  0  0  2  0  0  0  0  0  0
  187.1310  178.3170  141.7130 C   0  0  0  0  0  0  0  0  0  0  0  0
  188.5940  178.6290  141.5730 C   0  0  2  0  0  3  0  0  0  0  0  0
  186.6290  177.6870  142.9000 N   0  0  0  0  0  0  0  0  0  0  0  0
  1  9  1  6  0  0  0
  1  6  1  0  0  0  0
  2  5  1  0  0  0  0
  2  3  1  1  0  0  0
  2 13  1  0  0  0  0
  3 19  1  0  0  0  0
  4 15  2  0  0  0  0
  5 14  1  6  0  0  0
  5 16  1  0  0  0  0
  6 17  1  0  0  0  0
  7  4  1  0  0  0  0
  7  3  2  0  0  0  0
  8 12  1  0  0  0  0
  8 23  1  0  0  0  0
 11  4  1  0  0  0  0
 13 18  1  1  0  0  0
 13  8  1  0  0  0  0
 14  1  1  0  0  0  0
 15 20  1  0  0  0  0
 16 17  1  6  0  0  0
 16 12  1  0  0  0  0
 18 10  1  0  0  0  0
 19 10  1  0  0  0  0
 19 20  2  0  0  0  0
 22 21  1  0  0  0  0
 23 22  2  0  0  0  0
 24 27  1  0  0  0  0
 25 28  1  0  0  0  0
 26 29  2  0  0  0  0
 28 24  1  0  0  0  0
 29 31  1  0  0  0  0
 30 22  1  6  0  0  0
 30 29  1  0  0  0  0
 30 25  1  0  0  0  0
 31 24  2  0  0  0  0
M  END
>  <MODEL>
6

>  <REMARK>
 VINA RESULT:      -6.9      2.192      2.549
  Name = 
  2 active torsions:
  status: ('A' for Active; 'I' for Inactive)
    1  A    between atoms: C_5  and  C_30
    2  A    between atoms: N_10  and  N_16
                            x       y       z     vdW  Elec       q    Type
                         _______ _______ _______ _____ _____    ______ ____

>  <TORSDO>
F 2

$$$$
=
 OpenBabel11122411203D

 31 35  0  0  1  0  0  0  0  0999 V2000
  191.8210  175.6760  135.0770 C   0  0  2  0  0  3  0  0  0  0  0  0
  189.2190  177.6460  137.1610 C   0  0  2  0  0  3  0  0  0  0  0  0
  187.7100  177.5310  137.2730 C   0  0  0  0  0  0  0  0  0  0  0  0
  185.5570  176.9370  136.3160 C   0  0  0  0  0  0  0  0  0  0  0  0
  189.8370  176.4750  136.3820 C   0  0  1  0  0  3  0  0  0  0  0  0
  191.9060  174.4310  135.9530 C   0  0  0  0  0  2  0  0  0  0  0  0
  186.9480  177.0170  136.2130 C   0  0  0  0  0  3  0  0  0  0  0  0
  189.9300  176.5380  139.2630 N   0  0  0  0  0  0  0  0  0  0  0  0
  193.2070  176.0490  134.5940 C   0  0  0  0  0  1  0  0  0  0  0  0
  187.7830  178.5750  139.4740 O   0  0  0  0  0  0  0  0  0  0  0  0
  184.8310  176.4270  135.2930 F   0  0  0  0  0  0  0  0  0  0  0  0
  190.5300  175.3980  138.5720 C   0  0  0  0  0  2  0  0  0  0  0  0
  189.8960  177.8160  138.5400 C   0  0  2  0  0  3  0  0  0  0  0  0
  191.2330  176.8380  135.8710 C   0  0  0  0  0  2  0  0  0  0  0  0
  184.9150  177.3820  137.4740 C   0  0  0  0  0  3  0  0  0  0  0  0
  189.8530  175.1830  137.2210 C   0  0  2  0  0  3  0  0  0  0  0  0
  190.5150  174.0380  136.4510 C   0  0  0  0  0  2  0  0  0  0  0  0
  189.1640  178.9040  139.3320 C   0  0  0  0  0  2  0  0  0  0  0  0
  187.0520  178.0140  138.4220 C   0  0  0  0  0  0  0  0  0  0  0  0
  185.6610  177.9210  138.5250 C   0  0  0  0  0  3  0  0  0  0  0  0
  192.1670  177.3220  140.9080 C   0  0  0  0  0  1  0  0  0  0  0  0
  190.8260  176.9330  141.4510 C   0  0  0  0  0  0  0  0  0  0  0  0
  189.8640  176.5400  140.6700 N   0  0  0  0  0  0  0  0  0  0  0  0
  187.8870  177.3920  143.8000 C   0  0  0  0  0  0  0  0  0  0  0  0
  189.6710  175.7090  143.3280 C   0  0  0  0  0  2  0  0  0  0  0  0
  191.1940  179.4020  143.6710 S   0  0  0  0  0  0  0  0  0  0  0  0
  186.6210  177.6210  144.2210 F   0  0  0  0  0  0  0  0  0  0  0  0
  188.2060  176.0910  143.1200 C   0  0  0  0  0  2  0  0  0  0  0  0
  190.1420  178.1600  143.5060 C   0  0  0  0  0  0  0  0  0  0  0  0
  190.6100  176.8520  142.9330 C   0  0  2  0  0  3  0  0  0  0  0  0
  188.7800  178.3280  143.9250 N   0  0  0  0  0  0  0  0  0  0  0  0
  1  9  1  1  0  0  0
  1 14  1  0  0  0  0
  1  6  1  0  0  0  0
  2  3  1  1  0  0  0
  2 13  1  0  0  0  0
  3 19  1  0  0  0  0
  4 15  2  0  0  0  0
  5 14  1  1  0  0  0
  5  2  1  0  0  0  0
  5 16  1  0  0  0  0
  6 17  1  0  0  0  0
  7  4  1  0  0  0  0
  7  3  2  0  0  0  0
  8 23  1  0  0  0  0
 11  4  1  0  0  0  0
 12  8  1  0  0  0  0
 13  8  1  0  0  0  0
 13 18  1  1  0  0  0
 15 20  1  0  0  0  0
 16 17  1  6  0  0  0
 16 12  1  0  0  0  0
 18 10  1  0  0  0  0
 19 20  2  0  0  0  0
 19 10  1  0  0  0  0
 21 22  1  0  0  0  0
 23 22  2  0  0  0  0
 24 31  2  0  0  0  0
 24 27  1  0  0  0  0
 28 25  1  0  0  0  0
 28 24  1  0  0  0  0
 29 26  2  0  0  0  0
 29 31  1  0  0  0  0
 30 22  1  6  0  0  0
 30 25  1  0  0  0  0
 30 29  1  0  0  0  0
M  END
>  <MODEL>
7

>  <REMARK>
 VINA RESULT:      -6.7      1.762      2.110
  Name = 
  2 active torsions:
  status: ('A' for Active; 'I' for Inactive)
    1  A    between atoms: C_5  and  C_30
    2  A    between atoms: N_10  and  N_16
                            x       y       z     vdW  Elec       q    Type
                         _______ _______ _______ _____ _____    ______ ____

>  <TORSDO>
F 2

$$$$
=
 OpenBabel11122411203D

 31 35  0  0  1  0  0  0  0  0999 V2000
  183.5780  179.1270  143.5590 C   0  0  2  0  0  3  0  0  0  0  0  0
  181.5360  178.5850  140.3130 C   0  0  2  0  0  3  0  0  0  0  0  0
  181.3380  179.4480  139.0820 C   0  0  0  0  0  0  0  0  0  0  0  0
  181.2500  181.6330  138.0210 C   0  0  0  0  0  0  0  0  0  0  0  0
  182.6380  179.1280  141.2370 C   0  0  1  0  0  3  0  0  0  0  0  0
  184.9590  178.7870  143.0080 C   0  0  0  0  0  2  0  0  0  0  0  0
  181.4560  180.8440  139.1560 C   0  0  0  0  0  3  0  0  0  0  0  0
  183.1610  176.9170  139.4620 N   0  0  0  0  0  0  0  0  0  0  0  0
  183.4290  178.5380  144.9460 C   0  0  0  0  0  1  0  0  0  0  0  0
  180.7880  177.4700  137.7700 O   0  0  0  0  0  0  0  0  0  0  0  0
  181.3800  182.9790  138.0990 F   0  0  0  0  0  0  0  0  0  0  0  0
  184.2470  177.3960  140.3150 C   0  0  0  0  0  2  0  0  0  0  0  0
  181.7900  177.1040  139.9550 C   0  0  2  0  0  3  0  0  0  0  0  0
  182.4950  178.5570  142.6490 C   0  0  0  0  0  2  0  0  0  0  0  0
  180.9120  181.0330  136.8060 C   0  0  0  0  0  3  0  0  0  0  0  0
  184.0410  178.8710  140.6540 C   0  0  2  0  0  3  0  0  0  0  0  0
  185.1290  179.3720  141.6060 C   0  0  0  0  0  2  0  0  0  0  0  0
  180.7460  176.6440  138.9330 C   0  0  0  0  0  2  0  0  0  0  0  0
  180.9580  178.8550  137.8610 C   0  0  0  0  0  0  0  0  0  0  0  0
  180.7650  179.6470  136.7260 C   0  0  0  0  0  3  0  0  0  0  0  0
  184.0560  177.5260  136.7870 C   0  0  0  0  0  1  0  0  0  0  0  0
  183.8740  176.1350  137.3110 C   0  0  0  0  0  0  0  0  0  0  0  0
  183.4200  175.9130  138.5090 N   0  0  0  0  0  0  0  0  0  0  0  0
  186.2280  173.1660  137.1950 C   0  0  0  0  0  0  0  0  0  0  0  0
  183.7750  173.6250  137.0940 C   0  0  0  0  0  2  0  0  0  0  0  0
  185.8150  176.0050  134.5950 S   0  0  0  0  0  0  0  0  0  0  0  0
  187.2120  172.3100  137.5580 F   0  0  0  0  0  0  0  0  0  0  0  0
  184.9410  173.1700  137.9710 C   0  0  0  0  0  2  0  0  0  0  0  0
  185.4500  174.9500  135.7900 C   0  0  0  0  0  0  0  0  0  0  0  0
  184.0780  174.9570  136.4030 C   0  0  2  0  0  3  0  0  0  0  0  0
  186.4420  174.0140  136.2340 N   0  0  0  0  0  0  0  0  0  0  0  0
  1  9  1  1  0  0  0
  2  3  1  6  0  0  0
  2  5  1  0  0  0  0
  3  7  1  0  0  0  0
  4 11  1  0  0  0  0
  4  7  2  0  0  0  0
  5 14  1  1  0  0  0
  6  1  1  0  0  0  0
  8 13  1  0  0  0  0
  8 12  1  0  0  0  0
 10 19  1  0  0  0  0
 10 18  1  0  0  0  0
 13 18  1  6  0  0  0
 13  2  1  0  0  0  0
 14  1  1  0  0  0  0
 15  4  1  0  0  0  0
 16 12  1  1  0  0  0
 16  5  1  0  0  0  0
 16 17  1  0  0  0  0
 17  6  1  0  0  0  0
 19  3  2  0  0  0  0
 20 15  2  0  0  0  0
 20 19  1  0  0  0  0
 21 22  1  0  0  0  0
 22 23  2  0  0  0  0
 23  8  1  0  0  0  0
 24 27  1  0  0  0  0
 24 28  1  0  0  0  0
 25 28  1  0  0  0  0
 26 29  2  0  0  0  0
 29 31  1  0  0  0  0
 29 30  1  0  0  0  0
 30 25  1  0  0  0  0
 30 22  1  1  0  0  0
 31 24  2  0  0  0  0
M  END
>  <MODEL>
8

>  <REMARK>
 VINA RESULT:      -6.4      5.948      9.128
  Name = 
  2 active torsions:
  status: ('A' for Active; 'I' for Inactive)
    1  A    between atoms: C_5  and  C_30
    2  A    between atoms: N_10  and  N_16
                            x       y       z     vdW  Elec       q    Type
                         _______ _______ _______ _____ _____    ______ ____

>  <TORSDO>
F 2

$$$$
=
 OpenBabel11122411203D

 31 35  0  0  1  0  0  0  0  0999 V2000
  182.3600  179.3790  139.5200 C   0  0  2  0  0  3  0  0  0  0  0  0
  185.9970  178.7810  138.3320 C   0  0  2  0  0  3  0  0  0  0  0  0
  187.2090  178.1930  139.0290 C   0  0  0  0  0  0  0  0  0  0  0  0
  188.4650  177.7280  141.0560 C   0  0  0  0  0  0  0  0  0  0  0  0
  184.7050  178.5840  139.1410 C   0  0  1  0  0  3  0  0  0  0  0  0
  181.8440  177.9510  139.3730 C   0  0  0  0  0  2  0  0  0  0  0  0
  187.3340  178.2520  140.4250 C   0  0  0  0  0  3  0  0  0  0  0  0
  185.3120  176.8780  136.8970 N   0  0  0  0  0  0  0  0  0  0  0  0
  181.2980  180.3490  139.0480 C   0  0  0  0  0  1  0  0  0  0  0  0
  188.1840  177.6180  136.8710 O   0  0  0  0  0  0  0  0  0  0  0  0
  188.5710  177.7760  142.4060 F   0  0  0  0  0  0  0  0  0  0  0  0
  184.0710  176.6430  137.6350 C   0  0  0  0  0  2  0  0  0  0  0  0
  185.8360  178.2500  136.8900 C   0  0  2  0  0  3  0  0  0  0  0  0
  183.6240  179.5680  138.6890 C   0  0  0  0  0  2  0  0  0  0  0  0
  189.4860  177.1530  140.2960 C   0  0  0  0  0  3  0  0  0  0  0  0
  184.2150  177.1250  139.0770 C   0  0  2  0  0  3  0  0  0  0  0  0
  182.9020  176.9540  139.8460 C   0  0  0  0  0  2  0  0  0  0  0  0
  187.1810  178.3450  136.1630 C   0  0  0  0  0  2  0  0  0  0  0  0
  188.2610  177.6470  138.2670 C   0  0  0  0  0  0  0  0  0  0  0  0
  189.3860  177.1130  138.9040 C   0  0  0  0  0  3  0  0  0  0  0  0
  186.7370  174.4240  137.4190 C   0  0  0  0  0  1  0  0  0  0  0  0
  186.2800  174.8520  136.0580 C   0  0  0  0  0  0  0  0  0  0  0  0
  185.6840  175.9920  135.8680 N   0  0  0  0  0  0  0  0  0  0  0  0
  187.4550  171.3020  135.4380 C   0  0  0  0  0  0  0  0  0  0  0  0
  185.6700  172.8570  134.6430 C   0  0  0  0  0  2  0  0  0  0  0  0
  189.2720  174.6150  134.5940 S   0  0  0  0  0  0  0  0  0  0  0  0
  187.8220  170.0230  135.6890 F   0  0  0  0  0  0  0  0  0  0  0  0
  186.0070  171.6830  135.5610 C   0  0  0  0  0  2  0  0  0  0  0  0
  188.0580  173.5600  134.8900 C   0  0  0  0  0  0  0  0  0  0  0  0
  186.6310  174.0290  134.8540 C   0  0  2  0  0  3  0  0  0  0  0  0
  188.3680  172.1870  135.1690 N   0  0  0  0  0  0  0  0  0  0  0  0
  1  9  1  6  0  0  0
  2  3  1  1  0  0  0
  2  5  1  0  0  0  0
  3  7  1  0  0  0  0
  4 11  1  0  0  0  0
  5 14  1  6  0  0  0
  6  1  1  0  0  0  0
  6 17  1  0  0  0  0
  7  4  2  0  0  0  0
  8 12  1  0  0  0  0
 10 19  1  0  0  0  0
 13 18  1  1  0  0  0
 13  8  1  0  0  0  0
 13  2  1  0  0  0  0
 14  1  1  0  0  0  0
 15  4  1  0  0  0  0
 16 12  1  6  0  0  0
 16  5  1  0  0  0  0
 16 17  1  0  0  0  0
 18 10  1  0  0  0  0
 19 20  1  0  0  0  0
 19  3  2  0  0  0  0
 20 15  2  0  0  0  0
 22 21  1  0  0  0  0
 23 22  2  0  0  0  0
 23  8  1  0  0  0  0
 24 28  1  0  0  0  0
 24 27  1  0  0  0  0
 25 30  1  0  0  0  0
 25 28  1  0  0  0  0
 26 29  2  0  0  0  0
 29 31  1  0  0  0  0
 30 29  1  0  0  0  0
 30 22  1  1  0  0  0
 31 24  2  0  0  0  0
M  END
>  <MODEL>
9

>  <REMARK>
 VINA RESULT:      -6.1      4.055      8.370
  Name = 
  2 active torsions:
  status: ('A' for Active; 'I' for Inactive)
    1  A    between atoms: C_5  and  C_30
    2  A    between atoms: N_10  and  N_16
                            x       y       z     vdW  Elec       q    Type
                         _______ _______ _______ _____ _____    ______ ____

>  <TORSDO>
F 2

$$$$
