=
 OpenBabel11122411523D

 28 32  0  0  1  0  0  0  0  0999 V2000
  190.5060  177.0850  140.2660 C   0  0  0  0  0  0  0  0  0  0  0  0
  187.5650  178.8860  136.8980 C   0  0  0  0  0  1  0  0  0  0  0  0
  191.8890  173.2570  135.3640 O   0  0  0  0  0  0  0  0  0  0  0  0
  188.0810  178.3310  140.9180 C   0  0  0  0  0  3  0  0  0  0  0  0
  189.7710  173.3840  136.3810 N   0  0  0  0  0  0  0  0  0  0  0  0
  191.8020  176.3780  140.0510 C   0  0  0  0  0  2  0  0  0  0  0  0
  188.8230  177.8770  135.0470 C   0  0  0  0  0  1  0  0  0  0  0  0
  187.8110  177.5910  136.1530 C   0  0  0  0  0  0  0  0  0  0  0  0
  186.6510  175.8200  135.1040 C   0  0  2  0  0  3  0  0  0  0  0  0
  188.3180  176.5070  137.1110 C   0  0  1  0  0  3  0  0  0  0  0  0
  193.9300  177.0460  137.1700 O   0  0  0  0  0  0  0  0  0  0  0  0
  190.1870  175.2110  137.8280 C   0  0  1  0  0  3  0  0  0  0  0  0
  187.0870  174.9220  136.1090 O   0  0  0  0  0  0  0  0  0  0  0  0
  186.5710  177.1600  135.5940 O   0  0  0  0  0  0  0  0  0  0  0  0
  193.1460  176.4320  137.9390 C   0  0  0  0  0  0  0  0  0  0  0  0
  189.4760  177.1520  139.2860 C   0  0  0  0  0  0  0  0  0  0  0  0
  191.0910  173.8320  136.1510 C   0  0  0  0  0  0  0  0  0  0  0  0
  185.2940  175.3870  134.5940 C   0  0  0  0  0  1  0  0  0  0  0  0
  192.7110  175.0430  137.5940 C   0  0  0  0  0  2  0  0  0  0  0  0
  188.2720  177.7890  139.6470 C   0  0  0  0  0  3  0  0  0  0  0  0
  190.3030  177.6310  141.5380 C   0  0  0  0  0  3  0  0  0  0  0  0
  189.0990  178.2540  141.8640 C   0  0  0  0  0  3  0  0  0  0  0  0
  192.6330  177.0910  139.0970 N   0  0  0  0  0  2  0  0  0  0  0  0
  189.0700  174.3560  137.2000 C   0  0  1  0  0  3  0  0  0  0  0  0
  191.3810  175.0960  136.8600 C   0  0  2  0  0  3  0  0  0  0  0  0
  188.3720  175.2890  136.3390 N   0  0  2  0  0  0  0  0  0  0  0  0
  189.1140  172.3310  135.6240 C   0  0  0  0  0  1  0  0  0  0  0  0
  189.6550  176.6480  137.8500 C   0  0  2  0  0  3  0  0  0  0  0  0
  1 21  1  0  0  0  0
  3 17  2  0  0  0  0
  4 22  1  0  0  0  0
  5 24  1  0  0  0  0
  6  1  1  0  0  0  0
  7  8  1  0  0  0  0
  8  2  1  0  0  0  0
  9 18  1  1  0  0  0
  9 14  1  0  0  0  0
  9 13  1  0  0  0  0
 10  8  1  6  0  0  0
 10 28  1  0  0  0  0
 11 15  2  0  0  0  0
 12 28  1  0  0  0  0
 13 26  1  0  0  0  0
 14  8  1  0  0  0  0
 15 23  1  0  0  0  0
 16 20  1  0  0  0  0
 16  1  2  0  0  0  0
 17  5  1  0  0  0  0
 17 25  1  0  0  0  0
 19 15  1  0  0  0  0
 20  4  2  0  0  0  0
 21 22  2  0  0  0  0
 23  6  1  0  0  0  0
 24 12  1  0  0  0  0
 25 19  1  0  0  0  0
 25 12  1  0  0  0  0
 26 10  1  0  0  0  0
 26 24  1  0  0  0  0
 27  5  1  0  0  0  0
 28 16  1  0  0  0  0
M  END
>  <MODEL>
1

>  <REMARK>
 VINA RESULT:      -5.8      0.000      0.000
  Name = 
  0 active torsions:
  status: ('A' for Active; 'I' for Inactive)
                            x       y       z     vdW  Elec       q    Type
                         _______ _______ _______ _____ _____    ______ ____

>  <TORSDO>
F 0

$$$$
=
 OpenBabel11122411523D

 28 32  0  0  1  0  0  0  0  0999 V2000
  186.3290  174.0390  136.2380 C   0  0  0  0  0  0  0  0  0  0  0  0
  190.8060  173.3320  134.5940 C   0  0  0  0  0  1  0  0  0  0  0  0
  189.1570  179.3740  138.2720 O   0  0  0  0  0  0  0  0  0  0  0  0
  187.4070  171.4720  135.9060 C   0  0  0  0  0  3  0  0  0  0  0  0
  189.7540  177.2110  138.9830 N   0  0  0  0  0  0  0  0  0  0  0  0
  185.6520  175.3440  136.4840 C   0  0  0  0  0  2  0  0  0  0  0  0
  191.3990  175.7090  134.7510 C   0  0  0  0  0  1  0  0  0  0  0  0
  191.2110  174.4280  135.5580 C   0  0  0  0  0  0  0  0  0  0  0  0
  192.7550  174.8830  137.2860 C   0  0  2  0  0  3  0  0  0  0  0  0
  190.1490  174.6040  136.6500 C   0  0  1  0  0  3  0  0  0  0  0  0
  186.4710  178.3510  134.5950 O   0  0  0  0  0  0  0  0  0  0  0  0
  188.3880  175.9670  137.5020 C   0  0  1  0  0  3  0  0  0  0  0  0
  191.7050  174.9120  138.2360 O   0  0  0  0  0  0  0  0  0  0  0  0
  192.4380  174.0430  136.1750 O   0  0  0  0  0  0  0  0  0  0  0  0
  186.3910  177.5530  135.5660 C   0  0  0  0  0  0  0  0  0  0  0  0
  187.7440  173.8760  136.2340 C   0  0  0  0  0  0  0  0  0  0  0  0
  189.0760  178.1220  138.1430 C   0  0  0  0  0  0  0  0  0  0  0  0
  194.0220  174.3870  137.9490 C   0  0  0  0  0  1  0  0  0  0  0  0
  186.9310  177.9590  136.9000 C   0  0  0  0  0  2  0  0  0  0  0  0
  188.2500  172.5730  136.0610 C   0  0  0  0  0  3  0  0  0  0  0  0
  185.4940  172.9270  136.0830 C   0  0  0  0  0  3  0  0  0  0  0  0
  186.0260  171.6500  135.9150 C   0  0  0  0  0  3  0  0  0  0  0  0
  185.8430  176.2510  135.3650 N   0  0  0  0  0  2  0  0  0  0  0  0
  189.5870  175.8660  138.4650 C   0  0  1  0  0  3  0  0  0  0  0  0
  188.3520  177.4400  137.0500 C   0  0  2  0  0  3  0  0  0  0  0  0
  190.6980  175.5510  137.5900 N   0  0  2  0  0  0  0  0  0  0  0  0
  190.7530  177.5850  139.9700 C   0  0  0  0  0  1  0  0  0  0  0  0
  188.7200  175.0530  136.3180 C   0  0  2  0  0  3  0  0  0  0  0  0
  1  6  1  0  0  0  0
  2  8  1  0  0  0  0
  4 22  2  0  0  0  0
  4 20  1  0  0  0  0
  5 27  1  0  0  0  0
  7  8  1  0  0  0  0
  8 14  1  0  0  0  0
  9 18  1  1  0  0  0
  9 13  1  0  0  0  0
 10  8  1  6  0  0  0
 10 26  1  0  0  0  0
 11 15  2  0  0  0  0
 12 24  1  0  0  0  0
 14  9  1  0  0  0  0
 15 19  1  0  0  0  0
 16  1  1  0  0  0  0
 16 28  1  0  0  0  0
 17  3  2  0  0  0  0
 17  5  1  0  0  0  0
 19 25  1  0  0  0  0
 20 16  2  0  0  0  0
 21  1  2  0  0  0  0
 22 21  1  0  0  0  0
 23 15  1  0  0  0  0
 23  6  1  0  0  0  0
 24  5  1  0  0  0  0
 25 12  1  0  0  0  0
 25 17  1  0  0  0  0
 26 13  1  0  0  0  0
 26 24  1  0  0  0  0
 28 10  1  0  0  0  0
 28 12  1  0  0  0  0
M  END
>  <MODEL>
2

>  <REMARK>
 VINA RESULT:      -5.8      2.010      6.234
  Name = 
  0 active torsions:
  status: ('A' for Active; 'I' for Inactive)
                            x       y       z     vdW  Elec       q    Type
                         _______ _______ _______ _____ _____    ______ ____

>  <TORSDO>
F 0

$$$$
=
 OpenBabel11122411523D

 28 32  0  0  1  0  0  0  0  0999 V2000
  181.4880  178.6520  135.4390 C   0  0  0  0  0  0  0  0  0  0  0  0
  181.3510  178.8490  140.2540 C   0  0  0  0  0  1  0  0  0  0  0  0
  186.3210  174.7620  136.8880 O   0  0  0  0  0  0  0  0  0  0  0  0
  180.5530  180.9100  136.8120 C   0  0  0  0  0  3  0  0  0  0  0  0
  186.2670  177.0530  137.4230 N   0  0  0  0  0  0  0  0  0  0  0  0
  181.9860  177.5290  134.5940 C   0  0  0  0  0  2  0  0  0  0  0  0
  182.6370  176.7760  140.5240 C   0  0  0  0  0  1  0  0  0  0  0  0
  182.7460  178.2640  140.2040 C   0  0  0  0  0  0  0  0  0  0  0  0
  184.9280  178.6310  141.0310 C   0  0  2  0  0  3  0  0  0  0  0  0
  183.3790  178.4970  138.8270 C   0  0  1  0  0  3  0  0  0  0  0  0
  181.8640  174.0590  135.6970 O   0  0  0  0  0  0  0  0  0  0  0  0
  184.0420  177.5140  136.7580 C   0  0  1  0  0  3  0  0  0  0  0  0
  185.3850  178.9410  139.7260 O   0  0  0  0  0  0  0  0  0  0  0  0
  183.5390  178.9280  141.1870 O   0  0  0  0  0  0  0  0  0  0  0  0
  182.3420  175.1780  135.3760 C   0  0  0  0  0  0  0  0  0  0  0  0
  181.9070  178.8700  136.7820 C   0  0  0  0  0  0  0  0  0  0  0  0
  185.6840  175.8450  136.9790 C   0  0  0  0  0  0  0  0  0  0  0  0
  185.7290  179.4180  142.0460 C   0  0  0  0  0  1  0  0  0  0  0  0
  183.8240  175.3790  135.3980 C   0  0  0  0  0  2  0  0  0  0  0  0
  181.4140  180.0130  137.4420 C   0  0  0  0  0  3  0  0  0  0  0  0
  180.6250  179.5610  134.8160 C   0  0  0  0  0  3  0  0  0  0  0  0
  180.1560  180.6830  135.4970 C   0  0  0  0  0  3  0  0  0  0  0  0
  181.4630  176.2560  135.0570 N   0  0  0  0  0  2  0  0  0  0  0  0
  185.2320  178.0590  137.5710 C   0  0  1  0  0  3  0  0  0  0  0  0
  184.2330  175.9850  136.7310 C   0  0  2  0  0  3  0  0  0  0  0  0
  184.7450  178.0440  138.9360 N   0  0  2  0  0  0  0  0  0  0  0  0
  187.5990  177.1640  137.9940 C   0  0  0  0  0  1  0  0  0  0  0  0
  182.7850  177.8800  137.5540 C   0  0  2  0  0  3  0  0  0  0  0  0
  1 16  1  0  0  0  0
  3 17  2  0  0  0  0
  4 20  1  0  0  0  0
  5 24  1  0  0  0  0
  5 27  1  0  0  0  0
  6 23  1  0  0  0  0
  6  1  1  0  0  0  0
  8  2  1  0  0  0  0
  8  7  1  0  0  0  0
  8 14  1  0  0  0  0
  9 14  1  0  0  0  0
  9 18  1  1  0  0  0
 10 26  1  0  0  0  0
 10  8  1  1  0  0  0
 12 28  1  0  0  0  0
 12 24  1  0  0  0  0
 13  9  1  0  0  0  0
 15 19  1  0  0  0  0
 15 11  2  0  0  0  0
 16 20  2  0  0  0  0
 16 28  1  0  0  0  0
 17  5  1  0  0  0  0
 19 25  1  0  0  0  0
 21  1  2  0  0  0  0
 21 22  1  0  0  0  0
 22  4  2  0  0  0  0
 23 15  1  0  0  0  0
 24 26  1  0  0  0  0
 25 12  1  0  0  0  0
 25 17  1  0  0  0  0
 26 13  1  0  0  0  0
 28 10  1  0  0  0  0
M  END
>  <MODEL>
3

>  <REMARK>
 VINA RESULT:      -5.2      4.810      8.302
  Name = 
  0 active torsions:
  status: ('A' for Active; 'I' for Inactive)
                            x       y       z     vdW  Elec       q    Type
                         _______ _______ _______ _____ _____    ______ ____

>  <TORSDO>
F 0

$$$$
=
 OpenBabel11122411523D

 28 32  0  0  1  0  0  0  0  0999 V2000
  180.7490  180.4550  136.6370 C   0  0  0  0  0  0  0  0  0  0  0  0
  180.5510  179.3100  141.3150 C   0  0  0  0  0  1  0  0  0  0  0  0
  185.2740  175.9770  136.9190 O   0  0  0  0  0  0  0  0  0  0  0  0
  179.9530  182.3010  138.5900 C   0  0  0  0  0  3  0  0  0  0  0  0
  185.3720  178.0260  138.0720 N   0  0  0  0  0  0  0  0  0  0  0  0
  181.1800  179.5790  135.5090 C   0  0  0  0  0  2  0  0  0  0  0  0
  181.6840  177.1570  140.9900 C   0  0  0  0  0  1  0  0  0  0  0  0
  181.9030  178.6630  141.0980 C   0  0  0  0  0  0  0  0  0  0  0  0
  184.0920  178.6280  141.9840 C   0  0  2  0  0  3  0  0  0  0  0  0
  182.5710  179.2250  139.8380 C   0  0  1  0  0  3  0  0  0  0  0  0
  180.7970  175.9570  135.6000 O   0  0  0  0  0  0  0  0  0  0  0  0
  183.1960  178.8130  137.5730 C   0  0  1  0  0  3  0  0  0  0  0  0
  184.5900  179.2550  140.8160 O   0  0  0  0  0  0  0  0  0  0  0  0
  182.7250  178.9680  142.2230 O   0  0  0  0  0  0  0  0  0  0  0  0
  181.3580  177.0830  135.6020 C   0  0  0  0  0  0  0  0  0  0  0  0
  181.1620  180.2590  137.9860 C   0  0  0  0  0  0  0  0  0  0  0  0
  184.7130  177.0360  137.3110 C   0  0  0  0  0  0  0  0  0  0  0  0
  184.9300  179.0400  143.1750 C   0  0  0  0  0  1  0  0  0  0  0  0
  182.8490  177.1640  135.6720 C   0  0  0  0  0  2  0  0  0  0  0  0
  180.7390  181.2040  138.9410 C   0  0  0  0  0  3  0  0  0  0  0  0
  179.9620  181.5600  136.2960 C   0  0  0  0  0  3  0  0  0  0  0  0
  179.5620  182.4790  137.2660 C   0  0  0  0  0  3  0  0  0  0  0  0
  180.5620  178.2680  135.6010 N   0  0  0  0  0  2  0  0  0  0  0  0
  184.4080  179.0230  138.5010 C   0  0  1  0  0  3  0  0  0  0  0  0
  183.2800  177.3430  137.1190 C   0  0  2  0  0  3  0  0  0  0  0  0
  183.9000  178.6630  139.8090 N   0  0  2  0  0  0  0  0  0  0  0  0
  186.7000  177.8780  138.6450 C   0  0  0  0  0  1  0  0  0  0  0  0
  181.9550  179.0320  138.4460 C   0  0  2  0  0  3  0  0  0  0  0  0
  1 16  1  0  0  0  0
  3 17  2  0  0  0  0
  4 20  1  0  0  0  0
  5 24  1  0  0  0  0
  5 27  1  0  0  0  0
  6 23  1  0  0  0  0
  6  1  1  0  0  0  0
  7  8  1  0  0  0  0
  8  2  1  0  0  0  0
  8 14  1  0  0  0  0
  9 14  1  0  0  0  0
  9 18  1  1  0  0  0
 10  8  1  1  0  0  0
 11 15  2  0  0  0  0
 12 28  1  0  0  0  0
 12 24  1  0  0  0  0
 13  9  1  0  0  0  0
 15 19  1  0  0  0  0
 16 28  1  0  0  0  0
 16 20  2  0  0  0  0
 17  5  1  0  0  0  0
 19 25  1  0  0  0  0
 21  1  2  0  0  0  0
 21 22  1  0  0  0  0
 22  4  2  0  0  0  0
 23 15  1  0  0  0  0
 24 26  1  0  0  0  0
 25 17  1  0  0  0  0
 25 12  1  0  0  0  0
 26 10  1  0  0  0  0
 26 13  1  0  0  0  0
 28 10  1  0  0  0  0
M  END
>  <MODEL>
4

>  <REMARK>
 VINA RESULT:      -5.0      5.967      9.200
  Name = 
  0 active torsions:
  status: ('A' for Active; 'I' for Inactive)
                            x       y       z     vdW  Elec       q    Type
                         _______ _______ _______ _____ _____    ______ ____

>  <TORSDO>
F 0

$$$$
=
 OpenBabel11122411523D

 28 32  0  0  1  0  0  0  0  0999 V2000
  180.6300  176.1140  137.6070 C   0  0  0  0  0  0  0  0  0  0  0  0
  185.0850  177.9290  137.9120 C   0  0  0  0  0  1  0  0  0  0  0  0
  179.6870  180.7650  141.8570 O   0  0  0  0  0  0  0  0  0  0  0  0
  182.9110  174.5450  137.1660 C   0  0  0  0  0  3  0  0  0  0  0  0
  181.0970  178.9160  142.2170 N   0  0  0  0  0  0  0  0  0  0  0  0
  179.3430  176.8290  137.8440 C   0  0  0  0  0  2  0  0  0  0  0  0
  184.3140  180.0550  138.8670 C   0  0  0  0  0  1  0  0  0  0  0  0
  184.6050  178.5920  139.1860 C   0  0  0  0  0  0  0  0  0  0  0  0
  185.1870  178.8480  141.4610 C   0  0  2  0  0  3  0  0  0  0  0  0
  183.3620  177.8780  139.7290 C   0  0  1  0  0  3  0  0  0  0  0  0
  178.9680  180.4060  137.2600 O   0  0  0  0  0  0  0  0  0  0  0  0
  181.0000  177.9750  140.0470 C   0  0  1  0  0  3  0  0  0  0  0  0
  184.0650  178.0760  141.8490 O   0  0  0  0  0  0  0  0  0  0  0  0
  185.6460  178.4910  140.1560 O   0  0  0  0  0  0  0  0  0  0  0  0
  179.0580  179.3160  137.8830 C   0  0  0  0  0  0  0  0  0  0  0  0
  181.8720  176.5240  138.1680 C   0  0  0  0  0  0  0  0  0  0  0  0
  180.2950  179.7540  141.4120 C   0  0  0  0  0  0  0  0  0  0  0  0
  186.3060  178.6510  142.4610 C   0  0  0  0  0  1  0  0  0  0  0  0
  178.9450  179.3090  139.3740 C   0  0  0  0  0  2  0  0  0  0  0  0
  182.9980  175.7140  137.9220 C   0  0  0  0  0  3  0  0  0  0  0  0
  180.5540  174.9380  136.8510 C   0  0  0  0  0  3  0  0  0  0  0  0
  181.6870  174.1580  136.6270 C   0  0  0  0  0  3  0  0  0  0  0  0
  179.3270  178.1130  137.1640 N   0  0  0  0  0  2  0  0  0  0  0  0
  181.7830  177.9550  141.3730 C   0  0  1  0  0  3  0  0  0  0  0  0
  180.3350  179.3640  139.9870 C   0  0  2  0  0  3  0  0  0  0  0  0
  183.0820  178.4830  141.0080 N   0  0  2  0  0  0  0  0  0  0  0  0
  181.4670  179.2020  143.5930 C   0  0  0  0  0  1  0  0  0  0  0  0
  182.0480  177.8370  138.9370 C   0  0  2  0  0  3  0  0  0  0  0  0
  1  6  1  0  0  0  0
  1 16  1  0  0  0  0
  2  8  1  0  0  0  0
  4 20  1  0  0  0  0
  5 27  1  0  0  0  0
  7  8  1  0  0  0  0
  8 14  1  0  0  0  0
  9 13  1  0  0  0  0
  9 18  1  1  0  0  0
 10  8  1  6  0  0  0
 10 26  1  0  0  0  0
 11 15  2  0  0  0  0
 12 24  1  0  0  0  0
 14  9  1  0  0  0  0
 15 19  1  0  0  0  0
 16 28  1  0  0  0  0
 17  3  2  0  0  0  0
 17  5  1  0  0  0  0
 19 25  1  0  0  0  0
 20 16  2  0  0  0  0
 21  1  2  0  0  0  0
 22 21  1  0  0  0  0
 22  4  2  0  0  0  0
 23  6  1  0  0  0  0
 23 15  1  0  0  0  0
 24  5  1  0  0  0  0
 25 12  1  0  0  0  0
 25 17  1  0  0  0  0
 26 24  1  0  0  0  0
 26 13  1  0  0  0  0
 28 10  1  0  0  0  0
 28 12  1  0  0  0  0
M  END
>  <MODEL>
5

>  <REMARK>
 VINA RESULT:      -5.0      6.535     10.286
  Name = 
  0 active torsions:
  status: ('A' for Active; 'I' for Inactive)
                            x       y       z     vdW  Elec       q    Type
                         _______ _______ _______ _____ _____    ______ ____

>  <TORSDO>
F 0

$$$$
=
 OpenBabel11122411523D

 28 32  0  0  1  0  0  0  0  0999 V2000
  182.6410  173.6130  136.7750 C   0  0  0  0  0  0  0  0  0  0  0  0
  186.6470  175.3970  134.7730 C   0  0  0  0  0  1  0  0  0  0  0  0
  181.8110  179.8320  137.8840 O   0  0  0  0  0  0  0  0  0  0  0  0
  185.0190  172.1360  136.6310 C   0  0  0  0  0  3  0  0  0  0  0  0
  183.5790  178.5590  138.7720 N   0  0  0  0  0  0  0  0  0  0  0  0
  181.3280  174.3010  136.9390 C   0  0  0  0  0  2  0  0  0  0  0  0
  185.7260  177.6660  134.5940 C   0  0  0  0  0  1  0  0  0  0  0  0
  186.3430  176.6560  135.5570 C   0  0  0  0  0  0  0  0  0  0  0  0
  187.3480  178.1810  137.0540 C   0  0  2  0  0  3  0  0  0  0  0  0
  185.3990  176.3460  136.7250 C   0  0  1  0  0  3  0  0  0  0  0  0
  180.1870  176.8910  134.6440 O   0  0  0  0  0  0  0  0  0  0  0  0
  183.1860  176.5440  137.5920 C   0  0  1  0  0  3  0  0  0  0  0  0
  186.4980  177.7390  138.0970 O   0  0  0  0  0  0  0  0  0  0  0  0
  187.5700  177.1550  136.0850 O   0  0  0  0  0  0  0  0  0  0  0  0
  180.6080  176.3560  135.7020 C   0  0  0  0  0  0  0  0  0  0  0  0
  183.8800  174.3040  136.6450 C   0  0  0  0  0  0  0  0  0  0  0  0
  182.4810  178.7650  137.9080 C   0  0  0  0  0  0  0  0  0  0  0  0
  188.6740  178.6220  137.6360 C   0  0  0  0  0  1  0  0  0  0  0  0
  180.8260  177.1990  136.9180 C   0  0  0  0  0  2  0  0  0  0  0  0
  185.0540  173.5300  136.5710 C   0  0  0  0  0  3  0  0  0  0  0  0
  182.6190  172.2150  136.8350 C   0  0  0  0  0  3  0  0  0  0  0  0
  183.8000  171.4780  136.7610 C   0  0  0  0  0  3  0  0  0  0  0  0
  180.9310  174.9650  135.7100 N   0  0  0  0  0  2  0  0  0  0  0  0
  184.2290  177.3070  138.4320 C   0  0  1  0  0  3  0  0  0  0  0  0
  182.2810  177.6320  136.9800 C   0  0  2  0  0  3  0  0  0  0  0  0
  185.2990  177.5670  137.4890 N   0  0  2  0  0  0  0  0  0  0  0  0
  184.1810  179.5900  139.6020 C   0  0  0  0  0  1  0  0  0  0  0  0
  183.9750  175.8250  136.4930 C   0  0  2  0  0  3  0  0  0  0  0  0
  1 21  1  0  0  0  0
  1  6  1  0  0  0  0
  2  8  1  0  0  0  0
  3 17  2  0  0  0  0
  4 22  1  0  0  0  0
  5 27  1  0  0  0  0
  7  8  1  0  0  0  0
  8 14  1  0  0  0  0
  9 18  1  1  0  0  0
  9 13  1  0  0  0  0
 10  8  1  6  0  0  0
 10 26  1  0  0  0  0
 11 15  2  0  0  0  0
 12 24  1  0  0  0  0
 14  9  1  0  0  0  0
 15 23  1  0  0  0  0
 15 19  1  0  0  0  0
 16  1  2  0  0  0  0
 17  5  1  0  0  0  0
 19 25  1  0  0  0  0
 20  4  2  0  0  0  0
 20 16  1  0  0  0  0
 22 21  2  0  0  0  0
 23  6  1  0  0  0  0
 24  5  1  0  0  0  0
 25 12  1  0  0  0  0
 25 17  1  0  0  0  0
 26 13  1  0  0  0  0
 26 24  1  0  0  0  0
 28 16  1  0  0  0  0
 28 10  1  0  0  0  0
 28 12  1  0  0  0  0
M  END
>  <MODEL>
6

>  <REMARK>
 VINA RESULT:      -5.0      4.116      8.372
  Name = 
  0 active torsions:
  status: ('A' for Active; 'I' for Inactive)
                            x       y       z     vdW  Elec       q    Type
                         _______ _______ _______ _____ _____    ______ ____

>  <TORSDO>
F 0

$$$$
=
 OpenBabel11122411523D

 28 32  0  0  1  0  0  0  0  0999 V2000
  184.3840  176.5730  137.3750 C   0  0  0  0  0  0  0  0  0  0  0  0
  181.5190  180.2430  138.6200 C   0  0  0  0  0  1  0  0  0  0  0  0
  178.9310  173.4590  138.4550 O   0  0  0  0  0  0  0  0  0  0  0  0
  185.3790  178.8910  138.5980 C   0  0  0  0  0  3  0  0  0  0  0  0
  180.1170  174.6530  140.1010 N   0  0  0  0  0  0  0  0  0  0  0  0
  183.9800  175.2810  136.7480 C   0  0  0  0  0  2  0  0  0  0  0  0
  179.4590  178.9820  138.1770 C   0  0  0  0  0  1  0  0  0  0  0  0
  180.5930  179.1830  139.1790 C   0  0  0  0  0  0  0  0  0  0  0  0
  179.4140  178.6170  141.1460 C   0  0  2  0  0  3  0  0  0  0  0  0
  181.3590  177.8780  139.4290 C   0  0  1  0  0  3  0  0  0  0  0  0
  181.0560  174.9950  134.5940 O   0  0  0  0  0  0  0  0  0  0  0  0
  181.7540  175.6410  138.7050 C   0  0  1  0  0  3  0  0  0  0  0  0
  180.2560  177.4960  141.3450 O   0  0  0  0  0  0  0  0  0  0  0  0
  180.0800  179.6550  140.4240 O   0  0  0  0  0  0  0  0  0  0  0  0
  181.7960  174.8530  135.6010 C   0  0  0  0  0  0  0  0  0  0  0  0
  183.5040  177.3800  138.1500 C   0  0  0  0  0  0  0  0  0  0  0  0
  179.8460  174.2680  138.7690 C   0  0  0  0  0  0  0  0  0  0  0  0
  178.9580  179.1490  142.4880 C   0  0  0  0  0  1  0  0  0  0  0  0
  181.3060  174.0580  136.7690 C   0  0  0  0  0  2  0  0  0  0  0  0
  184.0370  178.5400  138.7460 C   0  0  0  0  0  3  0  0  0  0  0  0
  185.7290  176.9340  137.2350 C   0  0  0  0  0  3  0  0  0  0  0  0
  186.2260  178.0880  137.8390 C   0  0  0  0  0  3  0  0  0  0  0  0
  183.0660  175.5030  135.6410 N   0  0  0  0  0  2  0  0  0  0  0  0
  181.1070  175.7130  140.1020 C   0  0  1  0  0  3  0  0  0  0  0  0
  180.6900  174.9930  137.7970 C   0  0  2  0  0  3  0  0  0  0  0  0
  180.4330  176.9960  140.0970 N   0  0  2  0  0  0  0  0  0  0  0  0
  179.2810  174.3180  141.2420 C   0  0  0  0  0  1  0  0  0  0  0  0
  182.0050  177.0920  138.2810 C   0  0  2  0  0  3  0  0  0  0  0  0
  1 16  1  0  0  0  0
  2  8  1  0  0  0  0
  3 17  2  0  0  0  0
  4 20  1  0  0  0  0
  5 24  1  0  0  0  0
  5 27  1  0  0  0  0
  6  1  1  0  0  0  0
  7  8  1  0  0  0  0
  8 14  1  0  0  0  0
  9 13  1  0  0  0  0
  9 18  1  1  0  0  0
 10  8  1  6  0  0  0
 10 26  1  0  0  0  0
 11 15  2  0  0  0  0
 12 24  1  0  0  0  0
 14  9  1  0  0  0  0
 15 23  1  0  0  0  0
 15 19  1  0  0  0  0
 16 28  1  0  0  0  0
 16 20  2  0  0  0  0
 17  5  1  0  0  0  0
 19 25  1  0  0  0  0
 21  1  2  0  0  0  0
 21 22  1  0  0  0  0
 22  4  2  0  0  0  0
 23  6  1  0  0  0  0
 25 12  1  0  0  0  0
 25 17  1  0  0  0  0
 26 24  1  0  0  0  0
 26 13  1  0  0  0  0
 28 12  1  0  0  0  0
 28 10  1  0  0  0  0
M  END
>  <MODEL>
7

>  <REMARK>
 VINA RESULT:      -4.9      6.490      9.222
  Name = 
  0 active torsions:
  status: ('A' for Active; 'I' for Inactive)
                            x       y       z     vdW  Elec       q    Type
                         _______ _______ _______ _____ _____    ______ ____

>  <TORSDO>
F 0

$$$$
=
 OpenBabel11122411523D

 28 32  0  0  1  0  0  0  0  0999 V2000
  186.5710  178.1760  139.4590 C   0  0  0  0  0  0  0  0  0  0  0  0
  182.0590  179.8650  139.3380 C   0  0  0  0  0  1  0  0  0  0  0  0
  184.2100  174.7980  134.6000 O   0  0  0  0  0  0  0  0  0  0  0  0
  185.2760  179.1310  141.7540 C   0  0  0  0  0  3  0  0  0  0  0  0
  183.4230  174.6520  136.8140 N   0  0  0  0  0  0  0  0  0  0  0  0
  187.3590  177.6160  138.3230 C   0  0  0  0  0  2  0  0  0  0  0  0
  181.6740  179.0980  137.0380 C   0  0  0  0  0  1  0  0  0  0  0  0
  181.7460  178.6470  138.4940 C   0  0  0  0  0  0  0  0  0  0  0  0
  180.2390  176.8330  138.3650 C   0  0  2  0  0  3  0  0  0  0  0  0
  182.8140  177.5650  138.6950 C   0  0  1  0  0  3  0  0  0  0  0  0
  186.8140  178.6620  134.8760 O   0  0  0  0  0  0  0  0  0  0  0  0
  184.6830  176.4250  137.7500 C   0  0  1  0  0  3  0  0  0  0  0  0
  181.2840  175.9260  138.6700 O   0  0  0  0  0  0  0  0  0  0  0  0
  180.4870  178.1270  138.9170 O   0  0  0  0  0  0  0  0  0  0  0  0
  186.8200  177.9280  135.8980 C   0  0  0  0  0  0  0  0  0  0  0  0
  185.1480  178.1950  139.4950 C   0  0  0  0  0  0  0  0  0  0  0  0
  184.1820  175.2440  135.7790 C   0  0  0  0  0  0  0  0  0  0  0  0
  178.9310  176.2960  138.9050 C   0  0  0  0  0  1  0  0  0  0  0  0
  186.3100  176.5260  135.8020 C   0  0  0  0  0  2  0  0  0  0  0  0
  184.5320  178.6860  140.6620 C   0  0  0  0  0  3  0  0  0  0  0  0
  187.3080  178.6230  140.5620 C   0  0  0  0  0  3  0  0  0  0  0  0
  186.6670  179.1020  141.7030 C   0  0  0  0  0  3  0  0  0  0  0  0
  187.2530  178.4640  137.1480 N   0  0  0  0  0  2  0  0  0  0  0  0
  183.4750  175.4990  137.9910 C   0  0  1  0  0  3  0  0  0  0  0  0
  184.8490  176.4870  136.2190 C   0  0  2  0  0  3  0  0  0  0  0  0
  182.3450  176.4060  137.9760 N   0  0  2  0  0  0  0  0  0  0  0  0
  182.4560  173.5850  136.6200 C   0  0  0  0  0  1  0  0  0  0  0  0
  184.2780  177.7970  138.2990 C   0  0  2  0  0  3  0  0  0  0  0  0
  1 16  2  0  0  0  0
  1 21  1  0  0  0  0
  3 17  2  0  0  0  0
  5 24  1  0  0  0  0
  6  1  1  0  0  0  0
  7  8  1  0  0  0  0
  8 14  1  0  0  0  0
  8  2  1  0  0  0  0
  9 13  1  0  0  0  0
  9 18  1  1  0  0  0
  9 14  1  0  0  0  0
 10  8  1  6  0  0  0
 11 15  2  0  0  0  0
 12 24  1  0  0  0  0
 12 28  1  0  0  0  0
 15 23  1  0  0  0  0
 16 20  1  0  0  0  0
 17 25  1  0  0  0  0
 17  5  1  0  0  0  0
 19 15  1  0  0  0  0
 19 25  1  0  0  0  0
 20  4  2  0  0  0  0
 21 22  2  0  0  0  0
 22  4  1  0  0  0  0
 23  6  1  0  0  0  0
 25 12  1  0  0  0  0
 26 24  1  0  0  0  0
 26 13  1  0  0  0  0
 26 10  1  0  0  0  0
 27  5  1  0  0  0  0
 28 10  1  0  0  0  0
 28 16  1  0  0  0  0
M  END
>  <MODEL>
8

>  <REMARK>
 VINA RESULT:      -4.8      4.312      6.111
  Name = 
  0 active torsions:
  status: ('A' for Active; 'I' for Inactive)
                            x       y       z     vdW  Elec       q    Type
                         _______ _______ _______ _____ _____    ______ ____

>  <TORSDO>
F 0

$$$$
=
 OpenBabel11122411523D

 28 32  0  0  1  0  0  0  0  0999 V2000
  189.1600  176.5660  135.9270 C   0  0  0  0  0  0  0  0  0  0  0  0
  187.3240  172.1730  136.6840 C   0  0  0  0  0  1  0  0  0  0  0  0
  183.1740  178.0770  137.5050 O   0  0  0  0  0  0  0  0  0  0  0  0
  190.1270  174.2970  134.5950 C   0  0  0  0  0  3  0  0  0  0  0  0
  183.7590  176.8140  135.6070 N   0  0  0  0  0  0  0  0  0  0  0  0
  188.7190  177.8490  136.5460 C   0  0  0  0  0  2  0  0  0  0  0  0
  185.4340  173.0260  137.9980 C   0  0  0  0  0  1  0  0  0  0  0  0
  185.9710  172.8450  136.5810 C   0  0  0  0  0  0  0  0  0  0  0  0
  183.9040  172.6600  135.4530 C   0  0  2  0  0  3  0  0  0  0  0  0
  186.0910  174.1870  135.8500 C   0  0  1  0  0  3  0  0  0  0  0  0
  187.2050  177.9950  139.8570 O   0  0  0  0  0  0  0  0  0  0  0  0
  186.0710  176.5630  136.0530 C   0  0  1  0  0  3  0  0  0  0  0  0
  184.1670  173.8580  134.7450 O   0  0  0  0  0  0  0  0  0  0  0  0
  185.1100  171.9930  135.8270 O   0  0  0  0  0  0  0  0  0  0  0  0
  187.3080  178.0520  138.6040 C   0  0  0  0  0  0  0  0  0  0  0  0
  188.3150  175.4270  135.7950 C   0  0  0  0  0  0  0  0  0  0  0  0
  184.0360  177.4350  136.8450 C   0  0  0  0  0  0  0  0  0  0  0  0
  183.0630  171.7400  134.5940 C   0  0  0  0  0  1  0  0  0  0  0  0
  186.1140  178.4230  137.7830 C   0  0  0  0  0  2  0  0  0  0  0  0
  188.8360  174.3030  135.1230 C   0  0  0  0  0  3  0  0  0  0  0  0
  190.4520  176.5480  135.3910 C   0  0  0  0  0  3  0  0  0  0  0  0
  190.9370  175.4210  134.7310 C   0  0  0  0  0  3  0  0  0  0  0  0
  188.5430  177.7030  137.9800 N   0  0  0  0  0  2  0  0  0  0  0  0
  184.9070  176.0250  135.1990 C   0  0  1  0  0  3  0  0  0  0  0  0
  185.4110  177.1610  137.3110 C   0  0  2  0  0  3  0  0  0  0  0  0
  184.7410  174.6650  135.6720 N   0  0  2  0  0  0  0  0  0  0  0  0
  182.4320  176.6800  135.0300 C   0  0  0  0  0  1  0  0  0  0  0  0
  186.9210  175.3440  136.4230 C   0  0  2  0  0  3  0  0  0  0  0  0
  1  6  1  0  0  0  0
  4 22  2  0  0  0  0
  4 20  1  0  0  0  0
  5 17  1  0  0  0  0
  6 23  1  0  0  0  0
  8  2  1  0  0  0  0
  8  7  1  0  0  0  0
  9 18  1  6  0  0  0
  9 14  1  0  0  0  0
 10 28  1  0  0  0  0
 10  8  1  1  0  0  0
 12 28  1  0  0  0  0
 12 25  1  0  0  0  0
 13  9  1  0  0  0  0
 13 26  1  0  0  0  0
 14  8  1  0  0  0  0
 15 11  2  0  0  0  0
 16  1  1  0  0  0  0
 16 28  1  0  0  0  0
 17 25  1  0  0  0  0
 17  3  2  0  0  0  0
 19 15  1  0  0  0  0
 20 16  2  0  0  0  0
 21  1  2  0  0  0  0
 22 21  1  0  0  0  0
 23 15  1  0  0  0  0
 24  5  1  0  0  0  0
 24 26  1  0  0  0  0
 24 12  1  0  0  0  0
 25 19  1  0  0  0  0
 26 10  1  0  0  0  0
 27  5  1  0  0  0  0
M  END
>  <MODEL>
9

>  <REMARK>
 VINA RESULT:      -4.6      3.403      6.018
  Name = 
  0 active torsions:
  status: ('A' for Active; 'I' for Inactive)
                            x       y       z     vdW  Elec       q    Type
                         _______ _______ _______ _____ _____    ______ ____

>  <TORSDO>
F 0

$$$$
