=
 OpenBabel11122411513D

 28 32  0  0  1  0  0  0  0  0999 V2000
  180.7570  177.0060  137.0930 C   0  0  0  0  0  0  0  0  0  0  0  0
  185.5350  178.2780  138.3410 O   0  0  0  0  0  0  0  0  0  0  0  0
  179.4760  181.1510  141.7540 O   0  0  0  0  0  0  0  0  0  0  0  0
  183.1350  175.7420  136.3170 C   0  0  0  0  0  3  0  0  0  0  0  0
  180.7300  179.1910  142.0860 N   0  0  0  0  0  0  0  0  0  0  0  0
  179.4450  177.6410  137.3970 C   0  0  0  0  0  2  0  0  0  0  0  0
  184.5580  180.4000  139.1390 O   0  0  0  0  0  0  0  0  0  0  0  0
  184.7910  178.9490  139.4600 S   0  0  0  0  0  0  0  0  0  0  0  0
  185.1070  178.4000  142.0560 C   0  0  0  0  0  0  0  0  0  0  0  0
  183.2650  178.1200  139.7850 C   0  0  1  0  0  3  0  0  0  0  0  0
  179.0940  181.2590  137.1350 O   0  0  0  0  0  0  0  0  0  0  0  0
  180.8760  178.4820  139.8120 C   0  0  1  0  0  3  0  0  0  0  0  0
  183.7240  178.1360  142.1290 O   0  0  0  0  0  0  0  0  0  0  0  0
  185.6760  178.7930  140.9470 N   0  0  0  0  0  0  0  0  0  0  0  0
  179.1290  180.1130  137.6500 C   0  0  0  0  0  0  0  0  0  0  0  0
  181.9660  177.3300  137.7720 C   0  0  0  0  0  0  0  0  0  0  0  0
  180.0960  180.1620  141.2800 C   0  0  0  0  0  0  0  0  0  0  0  0
  185.9400  178.2150  143.2710 C   0  0  0  0  0  1  0  0  0  0  0  0
  178.9310  179.9600  139.1230 C   0  0  0  0  0  2  0  0  0  0  0  0
  183.1450  176.6890  137.3400 C   0  0  0  0  0  3  0  0  0  0  0  0
  180.7600  176.0550  136.0660 C   0  0  0  0  0  3  0  0  0  0  0  0
  181.9390  175.4220  135.6820 C   0  0  0  0  0  3  0  0  0  0  0  0
  179.3950  178.9780  136.8300 N   0  0  0  0  0  2  0  0  0  0  0  0
  181.4030  178.2240  141.2460 C   0  0  1  0  0  3  0  0  0  0  0  0
  180.2750  179.9060  139.8330 C   0  0  2  0  0  3  0  0  0  0  0  0
  182.8480  178.6190  141.1200 C   0  0  2  0  0  3  0  0  0  0  0  0
  180.3860  178.9400  143.4750 C   0  0  0  0  0  1  0  0  0  0  0  0
  182.0870  178.4120  138.8530 C   0  0  2  0  0  3  0  0  0  0  0  0
  1  6  1  0  0  0  0
  1 16  1  0  0  0  0
  2  8  2  0  0  0  0
  4 20  1  0  0  0  0
  5 27  1  0  0  0  0
  7  8  2  0  0  0  0
  8 14  1  0  0  0  0
  9 13  1  0  0  0  0
  9 18  1  0  0  0  0
 10  8  1  6  0  0  0
 10 26  1  0  0  0  0
 11 15  2  0  0  0  0
 12 25  1  0  0  0  0
 12 24  1  0  0  0  0
 14  9  2  0  0  0  0
 15 19  1  0  0  0  0
 16 28  1  0  0  0  0
 17  3  2  0  0  0  0
 17  5  1  0  0  0  0
 19 25  1  0  0  0  0
 20 16  2  0  0  0  0
 21  1  2  0  0  0  0
 22 21  1  0  0  0  0
 22  4  2  0  0  0  0
 23  6  1  0  0  0  0
 23 15  1  0  0  0  0
 24  5  1  0  0  0  0
 25 17  1  0  0  0  0
 26 24  1  0  0  0  0
 26 13  1  0  0  0  0
 28 10  1  0  0  0  0
 28 12  1  0  0  0  0
M  END
>  <MODEL>
1

>  <REMARK>
 VINA RESULT:      -6.3      0.000      0.000
  Name = 
  0 active torsions:
  status: ('A' for Active; 'I' for Inactive)
                            x       y       z     vdW  Elec       q    Type
                         _______ _______ _______ _____ _____    ______ ____

>  <TORSDO>
F 0

$$$$
=
 OpenBabel11122411513D

 28 32  0  0  1  0  0  0  0  0999 V2000
  190.2320  176.9070  140.1920 C   0  0  0  0  0  0  0  0  0  0  0  0
  186.7440  179.0030  137.1190 O   0  0  0  0  0  0  0  0  0  0  0  0
  191.5490  173.6660  134.8730 O   0  0  0  0  0  0  0  0  0  0  0  0
  188.0590  178.5270  140.9050 C   0  0  0  0  0  3  0  0  0  0  0  0
  189.4530  173.5980  135.9320 N   0  0  0  0  0  0  0  0  0  0  0  0
  191.4460  176.0930  139.9120 C   0  0  0  0  0  2  0  0  0  0  0  0
  188.2760  178.3930  135.2810 O   0  0  0  0  0  0  0  0  0  0  0  0
  187.2280  177.8890  136.2350 S   0  0  0  0  0  0  0  0  0  0  0  0
  185.7030  175.9060  135.2950 C   0  0  0  0  0  0  0  0  0  0  0  0
  187.8460  176.5450  137.2010 C   0  0  1  0  0  3  0  0  0  0  0  0
  193.6770  177.0650  137.1980 O   0  0  0  0  0  0  0  0  0  0  0  0
  189.8520  175.2580  137.6000 C   0  0  1  0  0  3  0  0  0  0  0  0
  186.5990  174.9900  135.8830 O   0  0  0  0  0  0  0  0  0  0  0  0
  185.8970  177.1960  135.3590 N   0  0  0  0  0  0  0  0  0  0  0  0
  192.8620  176.3780  137.8650 C   0  0  0  0  0  0  0  0  0  0  0  0
  189.2110  177.1550  139.2320 C   0  0  0  0  0  0  0  0  0  0  0  0
  190.7480  174.1230  135.7310 C   0  0  0  0  0  0  0  0  0  0  0  0
  184.5010  175.3870  134.5940 C   0  0  0  0  0  1  0  0  0  0  0  0
  192.3680  175.0800  137.3150 C   0  0  0  0  0  2  0  0  0  0  0  0
  188.1440  177.9920  139.6200 C   0  0  0  0  0  3  0  0  0  0  0  0
  190.1370  177.4520  141.4780 C   0  0  0  0  0  3  0  0  0  0  0  0
  189.0560  178.2530  141.8360 C   0  0  0  0  0  3  0  0  0  0  0  0
  192.3910  176.8630  139.1200 N   0  0  0  0  0  2  0  0  0  0  0  0
  188.7630  174.3760  136.9400 C   0  0  1  0  0  3  0  0  0  0  0  0
  191.0370  175.2800  136.6070 C   0  0  2  0  0  3  0  0  0  0  0  0
  187.9080  175.4030  136.2530 C   0  0  2  0  0  3  0  0  0  0  0  0
  189.0510  172.2560  135.5470 C   0  0  0  0  0  1  0  0  0  0  0  0
  189.2570  176.6750  137.7760 C   0  0  2  0  0  3  0  0  0  0  0  0
  1 21  1  0  0  0  0
  3 17  2  0  0  0  0
  4 22  1  0  0  0  0
  5 24  1  0  0  0  0
  6  1  1  0  0  0  0
  7  8  2  0  0  0  0
  8  2  2  0  0  0  0
  9 14  2  0  0  0  0
  9 13  1  0  0  0  0
 10  8  1  6  0  0  0
 10 28  1  0  0  0  0
 11 15  2  0  0  0  0
 12 28  1  0  0  0  0
 13 26  1  0  0  0  0
 14  8  1  0  0  0  0
 15 23  1  0  0  0  0
 16 20  1  0  0  0  0
 16  1  2  0  0  0  0
 17  5  1  0  0  0  0
 17 25  1  0  0  0  0
 18  9  1  0  0  0  0
 19 15  1  0  0  0  0
 20  4  2  0  0  0  0
 21 22  2  0  0  0  0
 23  6  1  0  0  0  0
 24 12  1  0  0  0  0
 25 19  1  0  0  0  0
 25 12  1  0  0  0  0
 26 24  1  0  0  0  0
 26 10  1  0  0  0  0
 27  5  1  0  0  0  0
 28 16  1  0  0  0  0
M  END
>  <MODEL>
2

>  <REMARK>
 VINA RESULT:      -5.6      6.040     10.252
  Name = 
  0 active torsions:
  status: ('A' for Active; 'I' for Inactive)
                            x       y       z     vdW  Elec       q    Type
                         _______ _______ _______ _____ _____    ______ ____

>  <TORSDO>
F 0

$$$$
=
 OpenBabel11122411513D

 28 32  0  0  1  0  0  0  0  0999 V2000
  186.2910  178.1970  138.5800 C   0  0  0  0  0  0  0  0  0  0  0  0
  187.1280  177.3620  143.5400 O   0  0  0  0  0  0  0  0  0  0  0  0
  191.7380  174.9340  138.1110 O   0  0  0  0  0  0  0  0  0  0  0  0
  185.0070  179.3880  140.7680 C   0  0  0  0  0  3  0  0  0  0  0  0
  191.5550  176.9680  139.2740 N   0  0  0  0  0  0  0  0  0  0  0  0
  186.8670  177.5790  137.3540 C   0  0  0  0  0  2  0  0  0  0  0  0
  188.4090  175.3880  142.7950 O   0  0  0  0  0  0  0  0  0  0  0  0
  188.4340  176.8800  142.9750 S   0  0  0  0  0  0  0  0  0  0  0  0
  190.8290  177.9090  143.5610 C   0  0  0  0  0  0  0  0  0  0  0  0
  188.7970  177.6950  141.4500 C   0  0  1  0  0  3  0  0  0  0  0  0
  187.2980  173.9630  137.1960 O   0  0  0  0  0  0  0  0  0  0  0  0
  189.1910  177.2530  139.1080 C   0  0  1  0  0  3  0  0  0  0  0  0
  191.0300  178.1280  142.1820 O   0  0  0  0  0  0  0  0  0  0  0  0
  189.7450  177.3410  144.0180 N   0  0  0  0  0  0  0  0  0  0  0  0
  187.5930  175.1860  137.2210 C   0  0  0  0  0  0  0  0  0  0  0  0
  186.8580  178.0510  139.8770 C   0  0  0  0  0  0  0  0  0  0  0  0
  191.0210  175.8420  138.6100 C   0  0  0  0  0  0  0  0  0  0  0  0
  191.8770  178.3460  144.5180 C   0  0  0  0  0  1  0  0  0  0  0  0
  189.0280  175.5990  137.1890 C   0  0  0  0  0  2  0  0  0  0  0  0
  186.1720  178.6460  140.9560 C   0  0  0  0  0  3  0  0  0  0  0  0
  185.1190  178.9430  138.4040 C   0  0  0  0  0  3  0  0  0  0  0  0
  184.4820  179.5400  139.4880 C   0  0  0  0  0  3  0  0  0  0  0  0
  186.5570  176.1600  137.3190 N   0  0  0  0  0  2  0  0  0  0  0  0
  190.4780  177.7900  139.7830 C   0  0  1  0  0  3  0  0  0  0  0  0
  189.5410  175.8350  138.6010 C   0  0  2  0  0  3  0  0  0  0  0  0
  190.2420  177.4350  141.2240 C   0  0  2  0  0  3  0  0  0  0  0  0
  192.9100  177.4570  139.0810 C   0  0  0  0  0  1  0  0  0  0  0  0
  188.0890  177.1920  140.1910 C   0  0  2  0  0  3  0  0  0  0  0  0
  1 16  1  0  0  0  0
  3 17  2  0  0  0  0
  4 20  1  0  0  0  0
  5 24  1  0  0  0  0
  6  1  1  0  0  0  0
  7  8  2  0  0  0  0
  8  2  2  0  0  0  0
  8 14  1  0  0  0  0
  9 14  2  0  0  0  0
  9 18  1  0  0  0  0
 10  8  1  1  0  0  0
 11 15  2  0  0  0  0
 12 24  1  0  0  0  0
 12 28  1  0  0  0  0
 13  9  1  0  0  0  0
 15 23  1  0  0  0  0
 16 28  1  0  0  0  0
 16 20  2  0  0  0  0
 17  5  1  0  0  0  0
 19 15  1  0  0  0  0
 19 25  1  0  0  0  0
 21  1  2  0  0  0  0
 21 22  1  0  0  0  0
 22  4  2  0  0  0  0
 23  6  1  0  0  0  0
 24 26  1  0  0  0  0
 25 17  1  0  0  0  0
 25 12  1  0  0  0  0
 26 10  1  0  0  0  0
 26 13  1  0  0  0  0
 27  5  1  0  0  0  0
 28 10  1  0  0  0  0
M  END
>  <MODEL>
3

>  <REMARK>
 VINA RESULT:      -5.6      5.323      8.375
  Name = 
  0 active torsions:
  status: ('A' for Active; 'I' for Inactive)
                            x       y       z     vdW  Elec       q    Type
                         _______ _______ _______ _____ _____    ______ ____

>  <TORSDO>
F 0

$$$$
=
 OpenBabel11122411513D

 28 32  0  0  1  0  0  0  0  0999 V2000
  186.9830  173.6690  136.2630 C   0  0  0  0  0  0  0  0  0  0  0  0
  191.7970  173.3370  134.6120 O   0  0  0  0  0  0  0  0  0  0  0  0
  189.1150  179.2960  138.3430 O   0  0  0  0  0  0  0  0  0  0  0  0
  188.3210  171.4030  135.2980 C   0  0  0  0  0  3  0  0  0  0  0  0
  190.0240  177.2420  139.0350 N   0  0  0  0  0  0  0  0  0  0  0  0
  186.1670  174.8230  136.7310 C   0  0  0  0  0  2  0  0  0  0  0  0
  191.7580  175.8050  134.5940 O   0  0  0  0  0  0  0  0  0  0  0  0
  191.8980  174.5790  135.4520 S   0  0  0  0  0  0  0  0  0  0  0  0
  193.4890  174.8630  137.5800 C   0  0  0  0  0  0  0  0  0  0  0  0
  190.6900  174.5660  136.7400 C   0  0  1  0  0  3  0  0  0  0  0  0
  186.2980  177.9750  134.9060 O   0  0  0  0  0  0  0  0  0  0  0  0
  188.7940  175.8080  137.5770 C   0  0  1  0  0  3  0  0  0  0  0  0
  192.3490  175.1950  138.3400 O   0  0  0  0  0  0  0  0  0  0  0  0
  193.4140  174.6050  136.3010 N   0  0  0  0  0  0  0  0  0  0  0  0
  186.4300  177.1520  135.8480 C   0  0  0  0  0  0  0  0  0  0  0  0
  188.3990  173.7090  136.1240 C   0  0  0  0  0  0  0  0  0  0  0  0
  189.2140  178.0470  138.2050 C   0  0  0  0  0  0  0  0  0  0  0  0
  194.8100  174.7930  138.2560 C   0  0  0  0  0  1  0  0  0  0  0  0
  187.0460  177.5950  137.1340 C   0  0  0  0  0  2  0  0  0  0  0  0
  189.0340  172.5580  135.6150 C   0  0  0  0  0  3  0  0  0  0  0  0
  186.2770  172.5040  135.9390 C   0  0  0  0  0  3  0  0  0  0  0  0
  186.9400  171.3750  135.4640 C   0  0  0  0  0  3  0  0  0  0  0  0
  186.0250  175.7980  135.6630 N   0  0  0  0  0  2  0  0  0  0  0  0
  189.9700  175.8680  138.5840 C   0  0  1  0  0  3  0  0  0  0  0  0
  188.5320  177.2700  137.1470 C   0  0  2  0  0  3  0  0  0  0  0  0
  191.1520  175.6070  137.6940 C   0  0  2  0  0  3  0  0  0  0  0  0
  190.4590  177.6290  140.3670 C   0  0  0  0  0  1  0  0  0  0  0  0
  189.2570  174.9560  136.3730 C   0  0  2  0  0  3  0  0  0  0  0  0
  1  6  1  0  0  0  0
  2  8  2  0  0  0  0
  4 22  2  0  0  0  0
  4 20  1  0  0  0  0
  5 27  1  0  0  0  0
  7  8  2  0  0  0  0
  8 14  1  0  0  0  0
  9 18  1  0  0  0  0
  9 13  1  0  0  0  0
 10  8  1  6  0  0  0
 10 26  1  0  0  0  0
 11 15  2  0  0  0  0
 12 24  1  0  0  0  0
 14  9  2  0  0  0  0
 15 19  1  0  0  0  0
 16  1  1  0  0  0  0
 16 28  1  0  0  0  0
 17  3  2  0  0  0  0
 17  5  1  0  0  0  0
 19 25  1  0  0  0  0
 20 16  2  0  0  0  0
 21  1  2  0  0  0  0
 22 21  1  0  0  0  0
 23 15  1  0  0  0  0
 23  6  1  0  0  0  0
 24  5  1  0  0  0  0
 25 12  1  0  0  0  0
 25 17  1  0  0  0  0
 26 13  1  0  0  0  0
 26 24  1  0  0  0  0
 28 10  1  0  0  0  0
 28 12  1  0  0  0  0
M  END
>  <MODEL>
4

>  <REMARK>
 VINA RESULT:      -5.5      6.748      8.823
  Name = 
  0 active torsions:
  status: ('A' for Active; 'I' for Inactive)
                            x       y       z     vdW  Elec       q    Type
                         _______ _______ _______ _____ _____    ______ ____

>  <TORSDO>
F 0

$$$$
=
 OpenBabel11122411513D

 28 32  0  0  1  0  0  0  0  0999 V2000
  180.2370  181.1860  137.0600 C   0  0  0  0  0  0  0  0  0  0  0  0
  179.9110  179.7100  141.9310 O   0  0  0  0  0  0  0  0  0  0  0  0
  184.0990  176.1310  136.8050 O   0  0  0  0  0  0  0  0  0  0  0  0
  179.1530  182.6040  139.2210 C   0  0  0  0  0  3  0  0  0  0  0  0
  184.4970  177.9830  138.1970 N   0  0  0  0  0  0  0  0  0  0  0  0
  180.7310  180.4920  135.8400 C   0  0  0  0  0  2  0  0  0  0  0  0
  180.4750  177.4600  141.0860 O   0  0  0  0  0  0  0  0  0  0  0  0
  181.0190  178.8100  141.4630 S   0  0  0  0  0  0  0  0  0  0  0  0
  183.5000  178.7920  142.4560 C   0  0  0  0  0  0  0  0  0  0  0  0
  181.8930  179.5390  140.1120 C   0  0  1  0  0  3  0  0  0  0  0  0
  179.8190  177.0110  135.2570 O   0  0  0  0  0  0  0  0  0  0  0  0
  182.4630  179.1640  137.7950 C   0  0  1  0  0  3  0  0  0  0  0  0
  183.9820  179.0250  141.1510 O   0  0  0  0  0  0  0  0  0  0  0  0
  182.2250  178.6500  142.7040 N   0  0  0  0  0  0  0  0  0  0  0  0
  180.5360  178.0210  135.4780 C   0  0  0  0  0  0  0  0  0  0  0  0
  180.4970  180.7330  138.3840 C   0  0  0  0  0  0  0  0  0  0  0  0
  183.6980  177.2030  137.3330 C   0  0  0  0  0  0  0  0  0  0  0  0
  184.4690  178.7190  143.5790 C   0  0  0  0  0  1  0  0  0  0  0  0
  182.0080  177.8540  135.6680 C   0  0  0  0  0  2  0  0  0  0  0  0
  179.9170  181.4600  139.4440 C   0  0  0  0  0  3  0  0  0  0  0  0
  179.4660  182.3350  136.8480 C   0  0  0  0  0  3  0  0  0  0  0  0
  178.9310  183.0450  137.9200 C   0  0  0  0  0  3  0  0  0  0  0  0
  179.9300  179.3080  135.5810 N   0  0  0  0  0  2  0  0  0  0  0  0
  183.7320  179.1130  138.6810 C   0  0  1  0  0  3  0  0  0  0  0  0
  182.3410  177.7640  137.1500 C   0  0  2  0  0  3  0  0  0  0  0  0
  183.1570  178.7630  140.0250 C   0  0  2  0  0  3  0  0  0  0  0  0
  185.9490  177.9290  138.2310 C   0  0  0  0  0  1  0  0  0  0  0  0
  181.2590  179.4460  138.7240 C   0  0  2  0  0  3  0  0  0  0  0  0
  1 16  1  0  0  0  0
  3 17  2  0  0  0  0
  4 20  1  0  0  0  0
  5 27  1  0  0  0  0
  5 24  1  0  0  0  0
  6  1  1  0  0  0  0
  7  8  2  0  0  0  0
  8  2  2  0  0  0  0
  8 14  1  0  0  0  0
  9 14  2  0  0  0  0
  9 18  1  0  0  0  0
 10  8  1  1  0  0  0
 11 15  2  0  0  0  0
 12 24  1  0  0  0  0
 12 28  1  0  0  0  0
 13  9  1  0  0  0  0
 15 23  1  0  0  0  0
 15 19  1  0  0  0  0
 16 28  1  0  0  0  0
 16 20  2  0  0  0  0
 17  5  1  0  0  0  0
 19 25  1  0  0  0  0
 21  1  2  0  0  0  0
 21 22  1  0  0  0  0
 22  4  2  0  0  0  0
 23  6  1  0  0  0  0
 24 26  1  0  0  0  0
 25 17  1  0  0  0  0
 25 12  1  0  0  0  0
 26 10  1  0  0  0  0
 26 13  1  0  0  0  0
 28 10  1  0  0  0  0
M  END
>  <MODEL>
5

>  <REMARK>
 VINA RESULT:      -5.5      2.301      4.949
  Name = 
  0 active torsions:
  status: ('A' for Active; 'I' for Inactive)
                            x       y       z     vdW  Elec       q    Type
                         _______ _______ _______ _____ _____    ______ ____

>  <TORSDO>
F 0

$$$$
=
 OpenBabel11122411513D

 28 32  0  0  1  0  0  0  0  0999 V2000
  187.8910  177.4020  136.2180 C   0  0  0  0  0  0  0  0  0  0  0  0
  187.0680  172.3850  136.6260 O   0  0  0  0  0  0  0  0  0  0  0  0
  181.8720  177.5680  138.2880 O   0  0  0  0  0  0  0  0  0  0  0  0
  189.4680  175.3100  135.2210 C   0  0  0  0  0  3  0  0  0  0  0  0
  182.5130  176.5200  136.2850 N   0  0  0  0  0  0  0  0  0  0  0  0
  187.1580  178.5790  136.7590 C   0  0  0  0  0  2  0  0  0  0  0  0
  185.3810  172.9950  138.3220 O   0  0  0  0  0  0  0  0  0  0  0  0
  185.6720  172.8930  136.8510 S   0  0  0  0  0  0  0  0  0  0  0  0
  183.5640  172.3070  135.3170 C   0  0  0  0  0  0  0  0  0  0  0  0
  185.4340  174.4500  136.0500 C   0  0  1  0  0  3  0  0  0  0  0  0
  185.9800  178.5350  140.2080 O   0  0  0  0  0  0  0  0  0  0  0  0
  184.8770  176.7560  136.5090 C   0  0  1  0  0  3  0  0  0  0  0  0
  183.3670  173.6900  135.1250 O   0  0  0  0  0  0  0  0  0  0  0  0
  184.5220  171.8460  136.0770 N   0  0  0  0  0  0  0  0  0  0  0  0
  185.9460  178.5680  138.9510 C   0  0  0  0  0  0  0  0  0  0  0  0
  187.3510  176.0850  136.1810 C   0  0  0  0  0  0  0  0  0  0  0  0
  182.7790  177.1350  137.5270 C   0  0  0  0  0  0  0  0  0  0  0  0
  182.6630  171.3500  134.6260 C   0  0  0  0  0  1  0  0  0  0  0  0
  184.6280  178.5880  138.2490 C   0  0  0  0  0  2  0  0  0  0  0  0
  188.1810  175.0560  135.6930 C   0  0  0  0  0  3  0  0  0  0  0  0
  189.1860  177.6440  135.7440 C   0  0  0  0  0  3  0  0  0  0  0  0
  189.9690  176.6080  135.2430 C   0  0  0  0  0  3  0  0  0  0  0  0
  187.1650  178.5460  138.2110 N   0  0  0  0  0  2  0  0  0  0  0  0
  183.7550  176.0800  135.6830 C   0  0  1  0  0  3  0  0  0  0  0  0
  184.2240  177.1780  137.8450 C   0  0  2  0  0  3  0  0  0  0  0  0
  183.9600  174.6280  136.0130 C   0  0  2  0  0  3  0  0  0  0  0  0
  181.2840  176.7060  135.5320 C   0  0  0  0  0  1  0  0  0  0  0  0
  185.9790  175.6970  136.7480 C   0  0  2  0  0  3  0  0  0  0  0  0
  1  6  1  0  0  0  0
  2  8  2  0  0  0  0
  4 22  2  0  0  0  0
  4 20  1  0  0  0  0
  5 17  1  0  0  0  0
  6 23  1  0  0  0  0
  8  7  2  0  0  0  0
  9 14  2  0  0  0  0
 10 28  1  0  0  0  0
 10  8  1  1  0  0  0
 12 28  1  0  0  0  0
 12 25  1  0  0  0  0
 13  9  1  0  0  0  0
 13 26  1  0  0  0  0
 14  8  1  0  0  0  0
 15 11  2  0  0  0  0
 16  1  1  0  0  0  0
 16 28  1  0  0  0  0
 17 25  1  0  0  0  0
 17  3  2  0  0  0  0
 18  9  1  0  0  0  0
 19 15  1  0  0  0  0
 20 16  2  0  0  0  0
 21  1  2  0  0  0  0
 22 21  1  0  0  0  0
 23 15  1  0  0  0  0
 24 26  1  0  0  0  0
 24  5  1  0  0  0  0
 24 12  1  0  0  0  0
 25 19  1  0  0  0  0
 26 10  1  0  0  0  0
 27  5  1  0  0  0  0
M  END
>  <MODEL>
6

>  <REMARK>
 VINA RESULT:      -5.1      4.440      7.182
  Name = 
  0 active torsions:
  status: ('A' for Active; 'I' for Inactive)
                            x       y       z     vdW  Elec       q    Type
                         _______ _______ _______ _____ _____    ______ ____

>  <TORSDO>
F 0

$$$$
=
 OpenBabel11122411513D

 28 32  0  0  1  0  0  0  0  0999 V2000
  182.6920  173.5960  136.9520 C   0  0  0  0  0  0  0  0  0  0  0  0
  187.0750  175.3440  135.0190 O   0  0  0  0  0  0  0  0  0  0  0  0
  181.7600  179.8220  137.9020 O   0  0  0  0  0  0  0  0  0  0  0  0
  184.9840  172.1300  136.2770 C   0  0  0  0  0  3  0  0  0  0  0  0
  183.5480  178.6310  138.8540 N   0  0  0  0  0  0  0  0  0  0  0  0
  181.4090  174.2730  137.2830 C   0  0  0  0  0  2  0  0  0  0  0  0
  185.8310  177.4340  134.5940 O   0  0  0  0  0  0  0  0  0  0  0  0
  186.5420  176.6090  135.6300 S   0  0  0  0  0  0  0  0  0  0  0  0
  187.7560  178.0100  137.5540 C   0  0  0  0  0  0  0  0  0  0  0  0
  185.4750  176.2470  136.9910 C   0  0  1  0  0  3  0  0  0  0  0  0
  180.0050  176.7020  134.9560 O   0  0  0  0  0  0  0  0  0  0  0  0
  183.2010  176.5430  137.7520 C   0  0  1  0  0  3  0  0  0  0  0  0
  186.5880  177.8800  138.3330 O   0  0  0  0  0  0  0  0  0  0  0  0
  187.8370  177.5200  136.3460 N   0  0  0  0  0  0  0  0  0  0  0  0
  180.5090  176.2320  136.0080 C   0  0  0  0  0  0  0  0  0  0  0  0
  183.9090  174.2910  136.7010 C   0  0  0  0  0  0  0  0  0  0  0  0
  182.4600  178.7760  137.9660 C   0  0  0  0  0  0  0  0  0  0  0  0
  188.9310  178.7130  138.1310 C   0  0  0  0  0  1  0  0  0  0  0  0
  180.8090  177.1440  137.1530 C   0  0  0  0  0  2  0  0  0  0  0  0
  185.0350  173.5220  136.3440 C   0  0  0  0  0  3  0  0  0  0  0  0
  182.6530  172.1980  136.8800 C   0  0  0  0  0  3  0  0  0  0  0  0
  183.7910  171.4670  136.5510 C   0  0  0  0  0  3  0  0  0  0  0  0
  180.8230  174.8440  136.0820 N   0  0  0  0  0  2  0  0  0  0  0  0
  184.1810  177.3460  138.6430 C   0  0  1  0  0  3  0  0  0  0  0  0
  182.2630  177.5880  137.1060 C   0  0  2  0  0  3  0  0  0  0  0  0
  185.3540  177.5340  137.7210 C   0  0  2  0  0  3  0  0  0  0  0  0
  183.7170  179.4150  140.0660 C   0  0  0  0  0  1  0  0  0  0  0  0
  184.0410  175.8190  136.6740 C   0  0  2  0  0  3  0  0  0  0  0  0
  1  6  1  0  0  0  0
  2  8  2  0  0  0  0
  3 17  2  0  0  0  0
  4 20  2  0  0  0  0
  4 22  1  0  0  0  0
  5 27  1  0  0  0  0
  7  8  2  0  0  0  0
  8 14  1  0  0  0  0
  9 18  1  0  0  0  0
  9 13  1  0  0  0  0
 10  8  1  6  0  0  0
 10 26  1  0  0  0  0
 11 15  2  0  0  0  0
 12 24  1  0  0  0  0
 14  9  2  0  0  0  0
 15 23  1  0  0  0  0
 15 19  1  0  0  0  0
 16  1  2  0  0  0  0
 17  5  1  0  0  0  0
 20 16  1  0  0  0  0
 21  1  1  0  0  0  0
 22 21  2  0  0  0  0
 23  6  1  0  0  0  0
 24  5  1  0  0  0  0
 25 19  1  0  0  0  0
 25 12  1  0  0  0  0
 25 17  1  0  0  0  0
 26 13  1  0  0  0  0
 26 24  1  0  0  0  0
 28 16  1  0  0  0  0
 28 10  1  0  0  0  0
 28 12  1  0  0  0  0
M  END
>  <MODEL>
7

>  <REMARK>
 VINA RESULT:      -5.0      3.241      4.485
  Name = 
  0 active torsions:
  status: ('A' for Active; 'I' for Inactive)
                            x       y       z     vdW  Elec       q    Type
                         _______ _______ _______ _____ _____    ______ ____

>  <TORSDO>
F 0

$$$$
=
 OpenBabel11122411513D

 28 32  0  0  1  0  0  0  0  0999 V2000
  188.9440  176.5600  135.6980 C   0  0  0  0  0  0  0  0  0  0  0  0
  187.1620  171.8400  136.4420 O   0  0  0  0  0  0  0  0  0  0  0  0
  183.1430  178.0410  137.8650 O   0  0  0  0  0  0  0  0  0  0  0  0
  190.0460  174.1420  134.8070 C   0  0  0  0  0  3  0  0  0  0  0  0
  183.5020  176.7700  135.9220 N   0  0  0  0  0  0  0  0  0  0  0  0
  188.4740  177.8890  136.1760 C   0  0  0  0  0  2  0  0  0  0  0  0
  185.6810  172.8720  138.1260 O   0  0  0  0  0  0  0  0  0  0  0  0
  185.9010  172.6280  136.6590 S   0  0  0  0  0  0  0  0  0  0  0  0
  183.6720  172.3820  135.2060 C   0  0  0  0  0  0  0  0  0  0  0  0
  185.9500  174.1510  135.7650 C   0  0  1  0  0  3  0  0  0  0  0  0
  187.4180  178.2840  139.6420 O   0  0  0  0  0  0  0  0  0  0  0  0
  185.8720  176.5440  136.0860 C   0  0  1  0  0  3  0  0  0  0  0  0
  183.7450  173.7630  134.9300 O   0  0  0  0  0  0  0  0  0  0  0  0
  184.5430  171.7860  135.9760 N   0  0  0  0  0  0  0  0  0  0  0  0
  187.3530  178.2480  138.3870 C   0  0  0  0  0  0  0  0  0  0  0  0
  188.1540  175.3770  135.7560 C   0  0  0  0  0  0  0  0  0  0  0  0
  183.9230  177.3920  137.1170 C   0  0  0  0  0  0  0  0  0  0  0  0
  182.5790  171.5830  134.5950 C   0  0  0  0  0  1  0  0  0  0  0  0
  186.0430  178.4890  137.7090 C   0  0  0  0  0  2  0  0  0  0  0  0
  188.7490  174.1770  135.3180 C   0  0  0  0  0  3  0  0  0  0  0  0
  190.2450  176.5130  135.1850 C   0  0  0  0  0  3  0  0  0  0  0  0
  190.7930  175.3140  134.7360 C   0  0  0  0  0  3  0  0  0  0  0  0
  188.5190  177.9420  137.6270 N   0  0  0  0  0  2  0  0  0  0  0  0
  184.6130  176.0570  135.3270 C   0  0  1  0  0  3  0  0  0  0  0  0
  185.3570  177.1660  137.4040 C   0  0  2  0  0  3  0  0  0  0  0  0
  184.5390  174.6150  135.7440 C   0  0  2  0  0  3  0  0  0  0  0  0
  182.3110  177.1510  135.1820 C   0  0  0  0  0  1  0  0  0  0  0  0
  186.7510  175.3040  136.3720 C   0  0  2  0  0  3  0  0  0  0  0  0
  1 16  1  0  0  0  0
  1  6  1  0  0  0  0
  2  8  2  0  0  0  0
  4 20  1  0  0  0  0
  5 17  1  0  0  0  0
  6 23  1  0  0  0  0
  8  7  2  0  0  0  0
  9 14  2  0  0  0  0
 10 28  1  0  0  0  0
 10  8  1  1  0  0  0
 12 28  1  0  0  0  0
 12 25  1  0  0  0  0
 13  9  1  0  0  0  0
 13 26  1  0  0  0  0
 14  8  1  0  0  0  0
 15 11  2  0  0  0  0
 16 28  1  0  0  0  0
 17 25  1  0  0  0  0
 17  3  2  0  0  0  0
 18  9  1  0  0  0  0
 19 15  1  0  0  0  0
 20 16  2  0  0  0  0
 21  1  2  0  0  0  0
 22  4  2  0  0  0  0
 22 21  1  0  0  0  0
 23 15  1  0  0  0  0
 24 26  1  0  0  0  0
 24  5  1  0  0  0  0
 24 12  1  0  0  0  0
 25 19  1  0  0  0  0
 26 10  1  0  0  0  0
 27  5  1  0  0  0  0
M  END
>  <MODEL>
8

>  <REMARK>
 VINA RESULT:      -5.0      4.967      7.878
  Name = 
  0 active torsions:
  status: ('A' for Active; 'I' for Inactive)
                            x       y       z     vdW  Elec       q    Type
                         _______ _______ _______ _____ _____    ______ ____

>  <TORSDO>
F 0

$$$$
=
 OpenBabel11122411513D

 28 32  0  0  1  0  0  0  0  0999 V2000
  184.8020  176.1610  137.4470 C   0  0  0  0  0  0  0  0  0  0  0  0
  182.4380  180.5040  138.6950 O   0  0  0  0  0  0  0  0  0  0  0  0
  178.9310  173.8580  138.3200 O   0  0  0  0  0  0  0  0  0  0  0  0
  185.9620  178.6240  138.1120 C   0  0  0  0  0  3  0  0  0  0  0  0
  180.1520  174.9370  140.0130 N   0  0  0  0  0  0  0  0  0  0  0  0
  184.2840  174.8320  137.0220 C   0  0  0  0  0  2  0  0  0  0  0  0
  180.3950  179.4130  137.8420 O   0  0  0  0  0  0  0  0  0  0  0  0
  181.3450  179.5200  139.0020 S   0  0  0  0  0  0  0  0  0  0  0  0
  180.2400  179.1610  141.4080 C   0  0  0  0  0  0  0  0  0  0  0  0
  182.0210  177.9410  139.4150 C   0  0  1  0  0  3  0  0  0  0  0  0
  181.5720  174.6510  134.5940 O   0  0  0  0  0  0  0  0  0  0  0  0
  182.0220  175.6310  138.7040 C   0  0  1  0  0  3  0  0  0  0  0  0
  180.5880  177.7970  141.3220 O   0  0  0  0  0  0  0  0  0  0  0  0
  180.4940  179.9990  140.4390 N   0  0  0  0  0  0  0  0  0  0  0  0
  182.1900  174.5260  135.6820 C   0  0  0  0  0  0  0  0  0  0  0  0
  183.9920  177.1680  138.0440 C   0  0  0  0  0  0  0  0  0  0  0  0
  179.9210  174.5520  138.6740 C   0  0  0  0  0  0  0  0  0  0  0  0
  179.5760  179.6570  142.6400 C   0  0  0  0  0  1  0  0  0  0  0  0
  181.4850  173.9600  136.8700 C   0  0  0  0  0  2  0  0  0  0  0  0
  184.6050  178.4010  138.3440 C   0  0  0  0  0  3  0  0  0  0  0  0
  186.1620  176.3970  137.2170 C   0  0  0  0  0  3  0  0  0  0  0  0
  186.7420  177.6180  137.5510 C   0  0  0  0  0  3  0  0  0  0  0  0
  183.5450  174.9590  135.7780 N   0  0  0  0  0  2  0  0  0  0  0  0
  181.3300  175.7750  140.0820 C   0  0  1  0  0  3  0  0  0  0  0  0
  180.9430  175.0810  137.7440 C   0  0  2  0  0  3  0  0  0  0  0  0
  180.8990  177.2150  140.0630 C   0  0  2  0  0  3  0  0  0  0  0  0
  179.5920  174.2500  141.1640 C   0  0  0  0  0  1  0  0  0  0  0  0
  182.4790  177.0430  138.2650 C   0  0  2  0  0  3  0  0  0  0  0  0
  1 16  1  0  0  0  0
  2  8  2  0  0  0  0
  3 17  2  0  0  0  0
  4 20  1  0  0  0  0
  5 24  1  0  0  0  0
  5 27  1  0  0  0  0
  6  1  1  0  0  0  0
  7  8  2  0  0  0  0
  8 14  1  0  0  0  0
  9 18  1  0  0  0  0
 10  8  1  6  0  0  0
 10 26  1  0  0  0  0
 11 15  2  0  0  0  0
 12 24  1  0  0  0  0
 13  9  1  0  0  0  0
 14  9  2  0  0  0  0
 15 23  1  0  0  0  0
 15 19  1  0  0  0  0
 16 28  1  0  0  0  0
 16 20  2  0  0  0  0
 17  5  1  0  0  0  0
 19 25  1  0  0  0  0
 21  1  2  0  0  0  0
 21 22  1  0  0  0  0
 22  4  2  0  0  0  0
 23  6  1  0  0  0  0
 25 17  1  0  0  0  0
 25 12  1  0  0  0  0
 26 24  1  0  0  0  0
 26 13  1  0  0  0  0
 28 12  1  0  0  0  0
 28 10  1  0  0  0  0
M  END
>  <MODEL>
9

>  <REMARK>
 VINA RESULT:      -4.9      3.222      4.959
  Name = 
  0 active torsions:
  status: ('A' for Active; 'I' for Inactive)
                            x       y       z     vdW  Elec       q    Type
                         _______ _______ _______ _____ _____    ______ ____

>  <TORSDO>
F 0

$$$$
