=
 OpenBabel11122412083D

 34 40  0  0  1  0  0  0  0  0999 V2000
  184.3460  178.6700  144.1730 C   0  0  0  0  0  0  0  0  0  0  0  0
  181.9150  179.0270  143.4210 C   0  0  0  0  0  2  0  0  0  0  0  0
  190.6110  177.7230  142.7440 C   0  0  2  0  0  3  0  0  0  0  0  0
  186.6120  177.9380  144.7100 C   0  0  0  0  0  0  0  0  0  0  0  0
  188.0820  177.2020  142.8600 C   0  0  2  0  0  3  0  0  0  0  0  0
  189.7400  175.4550  142.6600 O   0  0  0  0  0  1  0  0  0  0  0  0
  191.6920  177.7040  141.6820 C   0  0  0  0  0  1  0  0  0  0  0  0
  190.1840  177.0520  145.1670 C   0  0  0  0  0  2  0  0  0  0  0  0
  183.5750  178.3760  141.8750 C   0  0  2  0  0  3  0  0  0  0  0  0
  183.6410  179.5210  138.9170 C   0  0  0  0  0  2  0  0  0  0  0  0
  187.4020  178.2250  141.9620 C   0  0  0  0  0  2  0  0  0  0  0  0
  189.0500  178.0580  145.1240 C   0  0  0  0  0  2  0  0  0  0  0  0
  184.9780  178.6410  141.3150 C   0  0  1  0  0  3  0  0  0  0  0  0
  181.2690  179.0720  142.0390 C   0  0  0  0  0  2  0  0  0  0  0  0
  187.9430  177.5950  144.2800 N   0  0  0  0  0  0  0  0  0  0  0  0
  191.2270  177.3780  144.1030 C   0  0  0  0  0  2  0  0  0  0  0  0
  182.5850  179.8280  140.0000 C   0  0  2  0  0  3  0  0  0  0  0  0
  185.6470  178.3160  143.7540 C   0  0  0  0  0  0  0  0  0  0  0  0
  189.4670  176.7890  142.3440 C   0  0  2  0  0  3  0  0  0  0  0  0
  185.9910  178.3260  142.3410 N   0  0  0  0  0  0  0  0  0  0  0  0
  184.9890  178.3100  146.4810 C   0  0  0  0  0  3  0  0  0  0  0  0
  184.1660  178.0830  138.9370 C   0  0  0  0  0  2  0  0  0  0  0  0
  186.2720  177.9400  146.0720 C   0  0  0  0  0  3  0  0  0  0  0  0
  185.2290  177.8560  140.0180 C   0  0  0  0  0  2  0  0  0  0  0  0
  182.3510  178.6920  141.0190 C   0  0  1  0  0  3  0  0  0  0  0  0
  184.0310  178.6840  145.5370 C   0  0  0  0  0  3  0  0  0  0  0  0
  183.3890  179.1710  143.1340 C   0  0  2  0  0  3  0  0  0  0  0  0
  181.3340  180.1770  139.3470 N   0  0  0  0  0  2  0  0  0  0  0  0
  181.6690  180.6510  138.0110 C   0  0  0  0  0  2  0  0  0  0  0  0
  180.7380  182.9810  135.4800 N   0  0  0  0  0  2  0  0  0  0  0  0
  181.4410  183.1380  137.7600 C   0  0  0  0  0  2  0  0  0  0  0  0
  180.7630  181.8040  137.5880 C   0  0  1  0  0  3  0  0  0  0  0  0
  180.9970  183.9290  136.5550 C   0  0  0  0  0  2  0  0  0  0  0  0
  180.3880  181.7170  136.1200 C   0  0  0  0  0  2  0  0  0  0  0  0
  1 26  1  0  0  0  0
  3  7  1  6  0  0  0
  3 16  1  0  0  0  0
  4 23  2  0  0  0  0
  5 11  1  6  0  0  0
  5 15  1  0  0  0  0
  9 27  1  0  0  0  0
 10 22  1  0  0  0  0
 10 17  1  0  0  0  0
 11 20  1  0  0  0  0
 12  8  1  0  0  0  0
 13  9  1  0  0  0  0
 13 20  1  0  0  0  0
 14  2  1  0  0  0  0
 15  4  1  0  0  0  0
 15 12  1  0  0  0  0
 16  8  1  0  0  0  0
 17 25  1  0  0  0  0
 18  1  2  0  0  0  0
 18  4  1  0  0  0  0
 19  6  1  0  0  0  0
 19  3  1  0  0  0  0
 19  5  1  0  0  0  0
 20 18  1  0  0  0  0
 22 24  1  0  0  0  0
 23 21  1  0  0  0  0
 24 13  1  0  0  0  0
 25  9  1  0  0  0  0
 25 14  1  0  0  0  0
 26 21  2  0  0  0  0
 27  2  1  0  0  0  0
 27  1  1  0  0  0  0
 28 17  1  0  0  0  0
 29 28  1  0  0  0  0
 30 34  1  0  0  0  0
 30 33  1  0  0  0  0
 32 31  1  0  0  0  0
 32 29  1  0  0  0  0
 33 31  1  0  0  0  0
 34 32  1  0  0  0  0
M  END
>  <MODEL>
1

>  <REMARK>
 VINA RESULT:     -10.1      0.000      0.000
  Name = 
  3 active torsions:
  status: ('A' for Active; 'I' for Inactive)
    1  A    between atoms: C_17  and  N_28
    2  A    between atoms: N_28  and  C_29
    3  A    between atoms: C_29  and  C_32
                            x       y       z     vdW  Elec       q    Type
                         _______ _______ _______ _____ _____    ______ ____

>  <TORSDO>
F 3

$$$$
=
 OpenBabel11122412083D

 34 40  0  0  1  0  0  0  0  0999 V2000
  184.3810  178.6280  144.2970 C   0  0  0  0  0  0  0  0  0  0  0  0
  181.9520  178.9910  143.5450 C   0  0  0  0  0  2  0  0  0  0  0  0
  190.6480  177.6870  142.8670 C   0  0  2  0  0  3  0  0  0  0  0  0
  186.6460  177.8890  144.8310 C   0  0  0  0  0  0  0  0  0  0  0  0
  188.1190  177.1670  142.9770 C   0  0  2  0  0  3  0  0  0  0  0  0
  189.7750  175.4200  142.7650 O   0  0  0  0  0  1  0  0  0  0  0  0
  191.7290  177.6760  141.8070 C   0  0  0  0  0  1  0  0  0  0  0  0
  190.2170  176.9980  145.2850 C   0  0  0  0  0  2  0  0  0  0  0  0
  183.6140  178.3520  141.9960 C   0  0  2  0  0  3  0  0  0  0  0  0
  183.6830  179.5190  139.0470 C   0  0  0  0  0  2  0  0  0  0  0  0
  187.4390  178.1980  142.0860 C   0  0  0  0  0  2  0  0  0  0  0  0
  189.0840  178.0040  145.2480 C   0  0  0  0  0  2  0  0  0  0  0  0
  185.0160  178.6200  141.4400 C   0  0  1  0  0  3  0  0  0  0  0  0
  181.3070  179.0480  142.1620 C   0  0  0  0  0  2  0  0  0  0  0  0
  187.9780  177.5490  144.3990 N   0  0  0  0  0  0  0  0  0  0  0  0
  191.2620  177.3310  144.2250 C   0  0  0  0  0  2  0  0  0  0  0  0
  182.6260  179.8190  140.1310 C   0  0  2  0  0  3  0  0  0  0  0  0
  185.6830  178.2750  143.8770 C   0  0  0  0  0  0  0  0  0  0  0  0
  189.5040  176.7570  142.4590 C   0  0  2  0  0  3  0  0  0  0  0  0
  186.0280  178.2960  142.4650 N   0  0  0  0  0  0  0  0  0  0  0  0
  185.0220  178.2490  146.6030 C   0  0  0  0  0  3  0  0  0  0  0  0
  184.2070  178.0810  139.0560 C   0  0  0  0  0  2  0  0  0  0  0  0
  186.3050  177.8810  146.1930 C   0  0  0  0  0  3  0  0  0  0  0  0
  185.2690  177.8450  140.1370 C   0  0  0  0  0  2  0  0  0  0  0  0
  182.3900  178.6750  141.1410 C   0  0  1  0  0  3  0  0  0  0  0  0
  184.0650  178.6310  145.6610 C   0  0  0  0  0  3  0  0  0  0  0  0
  183.4260  179.1370  143.2610 C   0  0  2  0  0  3  0  0  0  0  0  0
  181.3760  180.1740  139.4790 N   0  0  0  0  0  2  0  0  0  0  0  0
  181.3710  179.5130  138.1810 C   0  0  0  0  0  2  0  0  0  0  0  0
  178.9310  177.5310  139.8580 N   0  0  0  0  0  2  0  0  0  0  0  0
  180.6890  177.1000  138.2960 C   0  0  0  0  0  2  0  0  0  0  0  0
  180.2220  178.5140  138.0710 C   0  0  1  0  0  3  0  0  0  0  0  0
  179.5730  176.4720  139.0920 C   0  0  0  0  0  2  0  0  0  0  0  0
  179.1540  178.7690  139.1180 C   0  0  0  0  0  2  0  0  0  0  0  0
  1 26  1  0  0  0  0
  3  7  1  6  0  0  0
  3 16  1  0  0  0  0
  4 23  2  0  0  0  0
  5 11  1  6  0  0  0
  5 15  1  0  0  0  0
  9 27  1  0  0  0  0
 10 22  1  0  0  0  0
 10 17  1  0  0  0  0
 11 20  1  0  0  0  0
 12  8  1  0  0  0  0
 13  9  1  0  0  0  0
 13 20  1  0  0  0  0
 14  2  1  0  0  0  0
 15  4  1  0  0  0  0
 15 12  1  0  0  0  0
 16  8  1  0  0  0  0
 17 25  1  0  0  0  0
 18  1  2  0  0  0  0
 18  4  1  0  0  0  0
 19  6  1  0  0  0  0
 19  3  1  0  0  0  0
 19  5  1  0  0  0  0
 20 18  1  0  0  0  0
 22 24  1  0  0  0  0
 23 21  1  0  0  0  0
 24 13  1  0  0  0  0
 25  9  1  0  0  0  0
 25 14  1  0  0  0  0
 26 21  2  0  0  0  0
 27  2  1  0  0  0  0
 27  1  1  0  0  0  0
 28 17  1  0  0  0  0
 29 28  1  0  0  0  0
 31 33  1  0  0  0  0
 32 29  1  0  0  0  0
 32 31  1  0  0  0  0
 32 34  1  0  0  0  0
 33 30  1  0  0  0  0
 34 30  1  0  0  0  0
M  END
>  <MODEL>
2

>  <REMARK>
 VINA RESULT:      -9.7      1.513      2.339
  Name = 
  3 active torsions:
  status: ('A' for Active; 'I' for Inactive)
    1  A    between atoms: C_17  and  N_28
    2  A    between atoms: N_28  and  C_29
    3  A    between atoms: C_29  and  C_32
                            x       y       z     vdW  Elec       q    Type
                         _______ _______ _______ _____ _____    ______ ____

>  <TORSDO>
F 3

$$$$
=
 OpenBabel11122412083D

 34 40  0  0  1  0  0  0  0  0999 V2000
  181.9120  178.7740  143.4110 C   0  0  0  0  0  0  0  0  0  0  0  0
  183.4710  178.9570  145.4460 C   0  0  0  0  0  2  0  0  0  0  0  0
  181.0490  178.0190  137.0170 C   0  0  2  0  0  3  0  0  0  0  0  0
  180.6130  178.9740  141.3540 C   0  0  0  0  0  0  0  0  0  0  0  0
  181.8290  179.1530  139.2050 C   0  0  2  0  0  3  0  0  0  0  0  0
  181.4340  180.4140  137.1820 O   0  0  0  0  0  1  0  0  0  0  0  0
  181.6630  177.6750  135.6760 C   0  0  0  0  0  1  0  0  0  0  0  0
  178.9310  178.9940  138.0490 C   0  0  0  0  0  2  0  0  0  0  0  0
  184.3340  179.0360  143.2510 C   0  0  2  0  0  3  0  0  0  0  0  0
  187.0810  177.6430  142.4880 C   0  0  0  0  0  2  0  0  0  0  0  0
  182.9090  178.2500  139.7840 C   0  0  0  0  0  2  0  0  0  0  0  0
  179.3690  178.2980  139.3230 C   0  0  0  0  0  2  0  0  0  0  0  0
  184.3660  178.3850  141.8630 C   0  0  1  0  0  3  0  0  0  0  0  0
  184.9910  178.9450  145.5720 C   0  0  0  0  0  2  0  0  0  0  0  0
  180.5480  178.9390  139.9150 N   0  0  0  0  0  0  0  0  0  0  0  0
  179.5600  178.3260  136.8310 C   0  0  0  0  0  2  0  0  0  0  0  0
  186.4380  177.7050  143.8900 C   0  0  2  0  0  3  0  0  0  0  0  0
  181.8480  178.7580  142.0000 C   0  0  0  0  0  0  0  0  0  0  0  0
  181.8250  179.1640  137.6700 C   0  0  2  0  0  3  0  0  0  0  0  0
  183.0490  178.5340  141.2130 N   0  0  0  0  0  0  0  0  0  0  0  0
  179.5250  179.1760  143.5180 C   0  0  0  0  0  3  0  0  0  0  0  0
  186.8780  178.9040  141.6440 C   0  0  0  0  0  2  0  0  0  0  0  0
  179.4570  179.1800  142.1230 C   0  0  0  0  0  3  0  0  0  0  0  0
  185.4920  178.9610  140.9910 C   0  0  0  0  0  2  0  0  0  0  0  0
  185.5660  178.9520  144.1490 C   0  0  1  0  0  3  0  0  0  0  0  0
  180.7460  178.9630  144.1620 C   0  0  0  0  0  3  0  0  0  0  0  0
  183.2220  178.4300  144.0550 C   0  0  2  0  0  3  0  0  0  0  0  0
  187.4890  177.6150  144.8910 N   0  0  0  0  0  2  0  0  0  0  0  0
  188.7490  177.4770  144.1720 C   0  0  0  0  0  2  0  0  0  0  0  0
  191.7600  176.3370  145.6990 N   0  0  0  0  0  2  0  0  0  0  0  0
  189.7180  177.3030  146.4810 C   0  0  0  0  0  2  0  0  0  0  0  0
  189.9390  177.7930  145.0740 C   0  0  1  0  0  3  0  0  0  0  0  0
  191.0700  176.7830  146.9010 C   0  0  0  0  0  2  0  0  0  0  0  0
  191.2070  177.1120  144.5930 C   0  0  0  0  0  2  0  0  0  0  0  0
  1 27  1  0  0  0  0
  1 26  1  0  0  0  0
  2 14  1  0  0  0  0
  3  7  1  6  0  0  0
  3 19  1  0  0  0  0
  4 18  1  0  0  0  0
  4 23  2  0  0  0  0
  5 11  1  6  0  0  0
  5 15  1  0  0  0  0
  6 19  1  0  0  0  0
  8 12  1  0  0  0  0
  9 27  1  0  0  0  0
  9 25  1  0  0  0  0
 10 17  1  0  0  0  0
 11 20  1  0  0  0  0
 12 15  1  0  0  0  0
 13  9  1  0  0  0  0
 15  4  1  0  0  0  0
 16  3  1  0  0  0  0
 16  8  1  0  0  0  0
 17 25  1  0  0  0  0
 17 28  1  0  0  0  0
 18  1  2  0  0  0  0
 19  5  1  0  0  0  0
 20 13  1  0  0  0  0
 20 18  1  0  0  0  0
 21 26  2  0  0  0  0
 22 10  1  0  0  0  0
 23 21  1  0  0  0  0
 24 22  1  0  0  0  0
 24 13  1  0  0  0  0
 25 14  1  0  0  0  0
 27  2  1  0  0  0  0
 29 28  1  0  0  0  0
 29 32  1  0  0  0  0
 30 33  1  0  0  0  0
 31 33  1  0  0  0  0
 32 31  1  0  0  0  0
 34 32  1  0  0  0  0
 34 30  1  0  0  0  0
M  END
>  <MODEL>
3

>  <REMARK>
 VINA RESULT:      -9.5      2.844      8.928
  Name = 
  3 active torsions:
  status: ('A' for Active; 'I' for Inactive)
    1  A    between atoms: C_17  and  N_28
    2  A    between atoms: N_28  and  C_29
    3  A    between atoms: C_29  and  C_32
                            x       y       z     vdW  Elec       q    Type
                         _______ _______ _______ _____ _____    ______ ____

>  <TORSDO>
F 3

$$$$
=
 OpenBabel11122412083D

 34 40  0  0  1  0  0  0  0  0999 V2000
  190.2010  177.1400  143.4440 C   0  0  0  0  0  0  0  0  0  0  0  0
  192.2150  176.8500  141.8740 C   0  0  0  0  0  2  0  0  0  0  0  0
  183.8840  178.3520  144.3500 C   0  0  2  0  0  3  0  0  0  0  0  0
  188.2920  177.8290  144.8010 C   0  0  0  0  0  0  0  0  0  0  0  0
  186.3310  178.8170  143.6590 C   0  0  2  0  0  3  0  0  0  0  0  0
  184.8040  180.5990  144.2400 O   0  0  0  0  0  1  0  0  0  0  0  0
  182.5130  178.5220  143.7290 C   0  0  0  0  0  1  0  0  0  0  0  0
  185.1370  178.6980  146.5440 C   0  0  0  0  0  2  0  0  0  0  0  0
  190.1720  177.7170  141.0720 C   0  0  2  0  0  3  0  0  0  0  0  0
  189.0530  176.9650  138.2000 C   0  0  0  0  0  2  0  0  0  0  0  0
  186.6120  177.9090  142.4710 C   0  0  0  0  0  2  0  0  0  0  0  0
  186.1320  177.6910  146.0010 C   0  0  0  0  0  2  0  0  0  0  0  0
  188.6500  177.5470  140.9950 C   0  0  1  0  0  3  0  0  0  0  0  0
  192.3560  176.9740  140.3590 C   0  0  0  0  0  2  0  0  0  0  0  0
  186.9150  178.2430  144.8910 N   0  0  0  0  0  0  0  0  0  0  0  0
  183.7800  178.5270  145.8680 C   0  0  0  0  0  2  0  0  0  0  0  0
  190.3910  176.5060  138.8160 C   0  0  2  0  0  3  0  0  0  0  0  0
  188.8570  177.5640  143.5360 C   0  0  0  0  0  0  0  0  0  0  0  0
  184.8790  179.3130  143.6970 C   0  0  2  0  0  3  0  0  0  0  0  0
  188.0600  177.7410  142.3340 N   0  0  0  0  0  0  0  0  0  0  0  0
  190.3910  177.2080  145.8580 C   0  0  0  0  0  3  0  0  0  0  0  0
  188.6480  178.3950  138.5650 C   0  0  0  0  0  2  0  0  0  0  0  0
  189.0680  177.6460  145.9560 C   0  0  0  0  0  3  0  0  0  0  0  0
  188.0240  178.4960  139.9610 C   0  0  0  0  0  2  0  0  0  0  0  0
  191.0180  177.4970  139.8200 C   0  0  1  0  0  3  0  0  0  0  0  0
  190.9540  176.9460  144.6080 C   0  0  0  0  0  3  0  0  0  0  0  0
  190.7240  176.7640  142.0900 C   0  0  2  0  0  3  0  0  0  0  0  0
  191.3300  176.2260  137.7400 N   0  0  0  0  0  2  0  0  0  0  0  0
  191.4380  174.7770  137.6370 C   0  0  0  0  0  2  0  0  0  0  0  0
  194.9420  175.2720  137.2160 N   0  0  0  0  0  2  0  0  0  0  0  0
  193.0370  175.2860  135.7710 C   0  0  0  0  0  2  0  0  0  0  0  0
  192.7230  174.3680  136.9220 C   0  0  1  0  0  3  0  0  0  0  0  0
  194.5360  175.4390  135.8270 C   0  0  0  0  0  2  0  0  0  0  0  0
  193.9260  174.4340  137.8450 C   0  0  0  0  0  2  0  0  0  0  0  0
  1 18  2  0  0  0  0
  1 26  1  0  0  0  0
  2 27  1  0  0  0  0
  3  7  1  6  0  0  0
  3 16  1  0  0  0  0
  4 15  1  0  0  0  0
  4 23  2  0  0  0  0
  5 11  1  6  0  0  0
  5 19  1  0  0  0  0
  5 15  1  0  0  0  0
  9 27  1  0  0  0  0
 10 22  1  0  0  0  0
 10 17  1  0  0  0  0
 12  8  1  0  0  0  0
 13  9  1  0  0  0  0
 13 20  1  0  0  0  0
 14  2  1  0  0  0  0
 15 12  1  0  0  0  0
 16  8  1  0  0  0  0
 17 25  1  0  0  0  0
 18  4  1  0  0  0  0
 19  6  1  0  0  0  0
 19  3  1  0  0  0  0
 20 11  1  0  0  0  0
 20 18  1  0  0  0  0
 21 23  1  0  0  0  0
 22 24  1  0  0  0  0
 24 13  1  0  0  0  0
 25 14  1  0  0  0  0
 25  9  1  0  0  0  0
 26 21  2  0  0  0  0
 27  1  1  0  0  0  0
 28 17  1  0  0  0  0
 29 28  1  0  0  0  0
 30 34  1  0  0  0  0
 31 33  1  0  0  0  0
 31 32  1  0  0  0  0
 32 29  1  0  0  0  0
 32 34  1  0  0  0  0
 33 30  1  0  0  0  0
M  END
>  <MODEL>
4

>  <REMARK>
 VINA RESULT:      -8.8      4.361      8.507
  Name = 
  3 active torsions:
  status: ('A' for Active; 'I' for Inactive)
    1  A    between atoms: C_17  and  N_28
    2  A    between atoms: N_28  and  C_29
    3  A    between atoms: C_29  and  C_32
                            x       y       z     vdW  Elec       q    Type
                         _______ _______ _______ _____ _____    ______ ____

>  <TORSDO>
F 3

$$$$
=
 OpenBabel11122412083D

 34 40  0  0  1  0  0  0  0  0999 V2000
  186.3480  178.2490  139.5780 C   0  0  0  0  0  0  0  0  0  0  0  0
  184.0470  179.0040  138.7200 C   0  0  0  0  0  2  0  0  0  0  0  0
  190.3560  176.8710  144.5010 C   0  0  2  0  0  3  0  0  0  0  0  0
  188.5630  177.9350  140.5560 C   0  0  0  0  0  0  0  0  0  0  0  0
  188.8440  178.3180  142.9860 C   0  0  2  0  0  3  0  0  0  0  0  0
  190.6190  179.2800  144.3130 O   0  0  0  0  0  1  0  0  0  0  0  0
  190.5210  176.6330  145.9870 C   0  0  0  0  0  1  0  0  0  0  0  0
  191.7200  177.2590  142.3810 C   0  0  0  0  0  2  0  0  0  0  0  0
  184.6030  179.1860  141.0050 C   0  0  2  0  0  3  0  0  0  0  0  0
  182.4810  178.5980  143.2910 C   0  0  0  0  0  2  0  0  0  0  0  0
  187.4270  177.8040  143.1930 C   0  0  0  0  0  2  0  0  0  0  0  0
  190.4790  176.8010  141.6380 C   0  0  0  0  0  2  0  0  0  0  0  0
  185.1670  178.4850  142.2460 C   0  0  1  0  0  3  0  0  0  0  0  0
  182.7770  179.4380  139.4460 C   0  0  0  0  0  2  0  0  0  0  0  0
  189.4000  177.7910  141.7200 N   0  0  0  0  0  0  0  0  0  0  0  0
  191.7150  176.7230  143.8090 C   0  0  0  0  0  2  0  0  0  0  0  0
  182.2290  178.5620  141.7680 C   0  0  2  0  0  3  0  0  0  0  0  0
  187.1750  178.1250  140.7170 C   0  0  0  0  0  0  0  0  0  0  0  0
  189.6980  178.2300  144.2570 C   0  0  2  0  0  3  0  0  0  0  0  0
  186.6030  178.2070  142.0510 N   0  0  0  0  0  0  0  0  0  0  0  0
  188.2770  177.9530  138.1420 C   0  0  0  0  0  3  0  0  0  0  0  0
  183.4540  179.6900  143.7430 C   0  0  0  0  0  2  0  0  0  0  0  0
  189.1030  177.8480  139.2640 C   0  0  0  0  0  3  0  0  0  0  0  0
  184.9210  179.3040  143.5230 C   0  0  0  0  0  2  0  0  0  0  0  0
  183.1130  179.5190  140.9410 C   0  0  1  0  0  3  0  0  0  0  0  0
  186.9020  178.1420  138.2980 C   0  0  0  0  0  3  0  0  0  0  0  0
  184.8670  178.3390  139.7960 C   0  0  2  0  0  3  0  0  0  0  0  0
  180.8240  178.8430  141.5200 N   0  0  0  0  0  2  0  0  0  0  0  0
  180.0960  177.6020  141.7510 C   0  0  0  0  0  2  0  0  0  0  0  0
  180.8980  176.4560  138.4740 N   0  0  0  0  0  2  0  0  0  0  0  0
  179.3710  178.0510  139.3910 C   0  0  0  0  0  2  0  0  0  0  0  0
  179.6040  176.9960  140.4400 C   0  0  1  0  0  3  0  0  0  0  0  0
  179.8570  177.4090  138.1160 C   0  0  0  0  0  2  0  0  0  0  0  0
  180.6220  176.0400  139.8460 C   0  0  0  0  0  2  0  0  0  0  0  0
  1 27  1  0  0  0  0
  1 18  1  0  0  0  0
  2 14  1  0  0  0  0
  2 27  1  0  0  0  0
  3  7  1  1  0  0  0
  4 18  2  0  0  0  0
  4 15  1  0  0  0  0
  5 11  1  1  0  0  0
  5 19  1  0  0  0  0
  8 16  1  0  0  0  0
  9 13  1  0  0  0  0
 10 22  1  0  0  0  0
 12 15  1  0  0  0  0
 12  8  1  0  0  0  0
 13 24  1  0  0  0  0
 14 25  1  0  0  0  0
 15  5  1  0  0  0  0
 16  3  1  0  0  0  0
 17 10  1  0  0  0  0
 18 20  1  0  0  0  0
 19  6  1  0  0  0  0
 19  3  1  0  0  0  0
 20 13  1  0  0  0  0
 20 11  1  0  0  0  0
 21 26  1  0  0  0  0
 21 23  2  0  0  0  0
 23  4  1  0  0  0  0
 24 22  1  0  0  0  0
 25  9  1  0  0  0  0
 25 17  1  0  0  0  0
 26  1  2  0  0  0  0
 27  9  1  0  0  0  0
 28 29  1  0  0  0  0
 28 17  1  0  0  0  0
 30 34  1  0  0  0  0
 31 32  1  0  0  0  0
 32 29  1  0  0  0  0
 33 30  1  0  0  0  0
 33 31  1  0  0  0  0
 34 32  1  0  0  0  0
M  END
>  <MODEL>
5

>  <REMARK>
 VINA RESULT:      -8.1      2.544      4.554
  Name = 
  3 active torsions:
  status: ('A' for Active; 'I' for Inactive)
    1  A    between atoms: C_17  and  N_28
    2  A    between atoms: N_28  and  C_29
    3  A    between atoms: C_29  and  C_32
                            x       y       z     vdW  Elec       q    Type
                         _______ _______ _______ _____ _____    ______ ____

>  <TORSDO>
F 3

$$$$
=
 OpenBabel11122412083D

 34 40  0  0  1  0  0  0  0  0999 V2000
  188.1410  178.1410  139.6800 C   0  0  0  0  0  0  0  0  0  0  0  0
  190.4530  177.5140  140.6110 C   0  0  0  0  0  2  0  0  0  0  0  0
  181.8420  179.4230  140.6160 C   0  0  2  0  0  3  0  0  0  0  0  0
  185.8270  178.3390  138.9270 C   0  0  0  0  0  0  0  0  0  0  0  0
  184.0170  178.0270  140.5870 C   0  0  2  0  0  3  0  0  0  0  0  0
  181.8340  176.9960  140.4780 O   0  0  0  0  0  1  0  0  0  0  0  0
  180.7280  179.7040  141.6030 C   0  0  0  0  0  1  0  0  0  0  0  0
  182.2380  178.8660  138.1590 C   0  0  0  0  0  2  0  0  0  0  0  0
  188.5260  177.3780  141.9670 C   0  0  2  0  0  3  0  0  0  0  0  0
  188.5840  178.1930  145.0330 C   0  0  0  0  0  2  0  0  0  0  0  0
  184.9270  178.6440  141.6390 C   0  0  0  0  0  2  0  0  0  0  0  0
  183.6460  179.3790  138.3890 C   0  0  0  0  0  2  0  0  0  0  0  0
  187.2630  178.0840  142.4720 C   0  0  1  0  0  3  0  0  0  0  0  0
  190.9330  177.1940  142.0230 C   0  0  0  0  0  2  0  0  0  0  0  0
  184.4260  178.4690  139.2350 N   0  0  0  0  0  0  0  0  0  0  0  0
  181.2800  179.4520  139.1910 C   0  0  0  0  0  2  0  0  0  0  0  0
  189.7800  178.1900  144.0580 C   0  0  2  0  0  3  0  0  0  0  0  0
  186.7650  178.2500  139.9770 C   0  0  0  0  0  0  0  0  0  0  0  0
  182.5330  178.1030  140.9670 C   0  0  2  0  0  3  0  0  0  0  0  0
  186.3100  178.2560  141.3580 N   0  0  0  0  0  0  0  0  0  0  0  0
  187.6420  178.2520  137.3120 C   0  0  0  0  0  3  0  0  0  0  0  0
  187.5850  177.0550  144.8090 C   0  0  0  0  0  2  0  0  0  0  0  0
  186.2770  178.3410  137.5970 C   0  0  0  0  0  3  0  0  0  0  0  0
  186.6230  177.3310  143.6480 C   0  0  0  0  0  2  0  0  0  0  0  0
  189.6930  177.1450  142.9250 C   0  0  1  0  0  3  0  0  0  0  0  0
  188.5730  178.1630  138.3490 C   0  0  0  0  0  3  0  0  0  0  0  0
  189.1070  178.1610  140.8260 C   0  0  2  0  0  3  0  0  0  0  0  0
  191.0040  177.9970  144.8200 N   0  0  0  0  0  2  0  0  0  0  0  0
  191.2630  176.5630  144.8500 C   0  0  0  0  0  2  0  0  0  0  0  0
  192.0940  176.9750  148.2910 N   0  0  0  0  0  2  0  0  0  0  0  0
  192.4310  175.2650  146.6530 C   0  0  0  0  0  2  0  0  0  0  0  0
  191.1820  176.0150  146.2720 C   0  0  1  0  0  3  0  0  0  0  0  0
  192.6570  175.6460  148.0950 C   0  0  0  0  0  2  0  0  0  0  0  0
  191.0370  177.1260  147.2960 C   0  0  0  0  0  2  0  0  0  0  0  0
  1 18  1  0  0  0  0
  1 27  1  0  0  0  0
  2 27  1  0  0  0  0
  2 14  1  0  0  0  0
  3 19  1  0  0  0  0
  3  7  1  1  0  0  0
  4 15  1  0  0  0  0
  4 18  2  0  0  0  0
  5 19  1  0  0  0  0
  5 11  1  1  0  0  0
  6 19  1  0  0  0  0
  8 12  1  0  0  0  0
  8 16  1  0  0  0  0
  9 13  1  0  0  0  0
  9 25  1  0  0  0  0
 12 15  1  0  0  0  0
 13 24  1  0  0  0  0
 14 25  1  0  0  0  0
 15  5  1  0  0  0  0
 16  3  1  0  0  0  0
 17 28  1  0  0  0  0
 17 10  1  0  0  0  0
 18 20  1  0  0  0  0
 20 11  1  0  0  0  0
 20 13  1  0  0  0  0
 21 23  2  0  0  0  0
 21 26  1  0  0  0  0
 22 10  1  0  0  0  0
 23  4  1  0  0  0  0
 24 22  1  0  0  0  0
 25 17  1  0  0  0  0
 26  1  2  0  0  0  0
 27  9  1  0  0  0  0
 28 29  1  0  0  0  0
 29 32  1  0  0  0  0
 31 33  1  0  0  0  0
 32 31  1  0  0  0  0
 32 34  1  0  0  0  0
 33 30  1  0  0  0  0
 34 30  1  0  0  0  0
M  END
>  <MODEL>
6

>  <REMARK>
 VINA RESULT:      -8.1      2.836      9.755
  Name = 
  3 active torsions:
  status: ('A' for Active; 'I' for Inactive)
    1  A    between atoms: C_17  and  N_28
    2  A    between atoms: N_28  and  C_29
    3  A    between atoms: C_29  and  C_32
                            x       y       z     vdW  Elec       q    Type
                         _______ _______ _______ _____ _____    ______ ____

>  <TORSDO>
F 3

$$$$
=
 OpenBabel11122412083D

 34 40  0  0  1  0  0  0  0  0999 V2000
  187.2450  177.8810  141.9300 C   0  0  0  0  0  0  0  0  0  0  0  0
  189.7830  177.4890  142.0010 C   0  0  0  0  0  2  0  0  0  0  0  0
  181.7850  178.8860  138.5570 C   0  0  2  0  0  3  0  0  0  0  0  0
  184.9370  178.6460  141.7060 C   0  0  0  0  0  0  0  0  0  0  0  0
  184.1490  179.3780  139.4760 C   0  0  2  0  0  3  0  0  0  0  0  0
  182.6690  181.1430  138.7430 O   0  0  0  0  0  1  0  0  0  0  0  0
  181.1030  178.9060  137.2050 C   0  0  0  0  0  1  0  0  0  0  0  0
  181.4210  179.5770  140.9850 C   0  0  0  0  0  2  0  0  0  0  0  0
  188.7160  178.1420  140.0000 C   0  0  2  0  0  3  0  0  0  0  0  0
  189.5880  176.9680  137.1840 C   0  0  0  0  0  2  0  0  0  0  0  0
  185.0680  178.3380  138.8520 C   0  0  0  0  0  2  0  0  0  0  0  0
  182.4940  178.5580  141.3150 C   0  0  0  0  0  2  0  0  0  0  0  0
  187.5650  177.8880  139.0200 C   0  0  1  0  0  3  0  0  0  0  0  0
  190.8380  177.4220  140.9000 C   0  0  0  0  0  2  0  0  0  0  0  0
  183.8190  179.0000  140.8680 N   0  0  0  0  0  0  0  0  0  0  0  0
  180.7690  179.2530  139.6440 C   0  0  0  0  0  2  0  0  0  0  0  0
  190.2360  176.6600  138.5510 C   0  0  2  0  0  3  0  0  0  0  0  0
  186.1520  178.2460  141.1130 C   0  0  0  0  0  0  0  0  0  0  0  0
  183.0100  179.8020  138.5400 C   0  0  2  0  0  3  0  0  0  0  0  0
  186.2800  178.2260  139.6650 N   0  0  0  0  0  0  0  0  0  0  0  0
  185.8990  178.2730  143.9070 C   0  0  0  0  0  3  0  0  0  0  0  0
  189.1050  178.4120  137.0260 C   0  0  0  0  0  2  0  0  0  0  0  0
  184.8210  178.6540  143.1050 C   0  0  0  0  0  3  0  0  0  0  0  0
  187.7550  178.6620  137.7070 C   0  0  0  0  0  2  0  0  0  0  0  0
  190.1460  177.8030  139.5840 C   0  0  1  0  0  3  0  0  0  0  0  0
  187.1050  177.8780  143.3230 C   0  0  0  0  0  3  0  0  0  0  0  0
  188.4780  177.3580  141.2560 C   0  0  2  0  0  3  0  0  0  0  0  0
  191.6260  176.2890  138.3370 N   0  0  0  0  0  2  0  0  0  0  0  0
  191.6250  174.9470  137.7710 C   0  0  0  0  0  2  0  0  0  0  0  0
  195.0620  175.6260  137.1200 N   0  0  0  0  0  2  0  0  0  0  0  0
  193.0220  175.8600  135.8960 C   0  0  0  0  0  2  0  0  0  0  0  0
  192.8360  174.7250  136.8690 C   0  0  1  0  0  3  0  0  0  0  0  0
  194.5170  176.0470  135.8370 C   0  0  0  0  0  2  0  0  0  0  0  0
  194.1250  174.6490  137.6660 C   0  0  0  0  0  2  0  0  0  0  0  0
  1 26  1  0  0  0  0
  3  7  1  6  0  0  0
  3 16  1  0  0  0  0
  4 23  2  0  0  0  0
  5 11  1  6  0  0  0
  5 15  1  0  0  0  0
  8 12  1  0  0  0  0
  9 27  1  0  0  0  0
 10 17  1  0  0  0  0
 11 20  1  0  0  0  0
 13 20  1  0  0  0  0
 13  9  1  0  0  0  0
 14  2  1  0  0  0  0
 15 12  1  0  0  0  0
 15  4  1  0  0  0  0
 16  8  1  0  0  0  0
 17 25  1  0  0  0  0
 18  4  1  0  0  0  0
 18  1  2  0  0  0  0
 19  3  1  0  0  0  0
 19  6  1  0  0  0  0
 19  5  1  0  0  0  0
 20 18  1  0  0  0  0
 22 10  1  0  0  0  0
 22 24  1  0  0  0  0
 23 21  1  0  0  0  0
 24 13  1  0  0  0  0
 25  9  1  0  0  0  0
 25 14  1  0  0  0  0
 26 21  2  0  0  0  0
 27  1  1  0  0  0  0
 27  2  1  0  0  0  0
 28 17  1  0  0  0  0
 29 28  1  0  0  0  0
 30 34  1  0  0  0  0
 31 32  1  0  0  0  0
 32 34  1  0  0  0  0
 32 29  1  0  0  0  0
 33 31  1  0  0  0  0
 33 30  1  0  0  0  0
M  END
>  <MODEL>
7

>  <REMARK>
 VINA RESULT:      -7.9      4.050      8.883
  Name = 
  3 active torsions:
  status: ('A' for Active; 'I' for Inactive)
    1  A    between atoms: C_17  and  N_28
    2  A    between atoms: N_28  and  C_29
    3  A    between atoms: C_29  and  C_32
                            x       y       z     vdW  Elec       q    Type
                         _______ _______ _______ _____ _____    ______ ____

>  <TORSDO>
F 3

$$$$
=
 OpenBabel11122412083D

 34 40  0  0  1  0  0  0  0  0999 V2000
  189.2250  176.3290  137.0510 C   0  0  0  0  0  0  0  0  0  0  0  0
  187.4140  177.6810  138.2740 C   0  0  0  0  0  2  0  0  0  0  0  0
  195.0680  173.4910  136.9900 C   0  0  2  0  0  3  0  0  0  0  0  0
  191.1830  175.4070  135.9210 C   0  0  0  0  0  0  0  0  0  0  0  0
  193.3490  175.4160  137.1200 C   0  0  2  0  0  3  0  0  0  0  0  0
  195.6290  175.7840  136.4090 O   0  0  0  0  0  1  0  0  0  0  0  0
  196.2790  173.0410  137.7810 C   0  0  0  0  0  1  0  0  0  0  0  0
  194.2600  173.8190  134.5940 C   0  0  0  0  0  2  0  0  0  0  0  0
  189.5770  177.4520  139.1900 C   0  0  2  0  0  3  0  0  0  0  0  0
  190.0380  177.0810  142.3070 C   0  0  0  0  0  2  0  0  0  0  0  0
  192.5870  175.2120  138.4210 C   0  0  0  0  0  2  0  0  0  0  0  0
  192.8620  173.7470  135.1780 C   0  0  0  0  0  2  0  0  0  0  0  0
  190.7140  176.4950  139.5660 C   0  0  1  0  0  3  0  0  0  0  0  0
  187.3670  178.2980  139.6690 C   0  0  0  0  0  2  0  0  0  0  0  0
  192.5430  174.9360  135.9750 N   0  0  0  0  0  0  0  0  0  0  0  0
  195.2600  173.1270  135.5140 C   0  0  0  0  0  2  0  0  0  0  0  0
  188.6840  177.2890  141.5940 C   0  0  2  0  0  3  0  0  0  0  0  0
  190.5640  175.8840  137.0950 C   0  0  0  0  0  0  0  0  0  0  0  0
  194.8180  174.9830  137.2180 C   0  0  2  0  0  3  0  0  0  0  0  0
  191.3110  175.9280  138.3420 N   0  0  0  0  0  0  0  0  0  0  0  0
  189.1190  175.7850  134.6930 C   0  0  0  0  0  3  0  0  0  0  0  0
  191.2020  177.8620  141.6920 C   0  0  0  0  0  2  0  0  0  0  0  0
  190.4500  175.3600  134.7250 C   0  0  0  0  0  3  0  0  0  0  0  0
  191.7720  177.1850  140.4400 C   0  0  0  0  0  2  0  0  0  0  0  0
  188.7570  178.1170  140.2940 C   0  0  1  0  0  3  0  0  0  0  0  0
  188.5040  176.2580  135.8540 C   0  0  0  0  0  3  0  0  0  0  0  0
  188.5760  176.7220  138.3440 C   0  0  2  0  0  3  0  0  0  0  0  0
  187.7550  177.9070  142.5270 N   0  0  0  0  0  2  0  0  0  0  0  0
  187.9090  177.2170  143.8010 C   0  0  0  0  0  2  0  0  0  0  0  0
  185.1880  179.2050  144.9580 N   0  0  0  0  0  2  0  0  0  0  0  0
  186.8920  177.8870  145.9950 C   0  0  0  0  0  2  0  0  0  0  0  0
  186.6330  177.2980  144.6330 C   0  0  1  0  0  3  0  0  0  0  0  0
  185.6860  178.7550  146.2500 C   0  0  0  0  0  2  0  0  0  0  0  0
  185.5950  178.1960  143.9850 C   0  0  0  0  0  2  0  0  0  0  0  0
  1 18  1  0  0  0  0
  1 27  1  0  0  0  0
  2 27  1  0  0  0  0
  2 14  1  0  0  0  0
  3 19  1  0  0  0  0
  3  7  1  1  0  0  0
  4 15  1  0  0  0  0
  4 18  2  0  0  0  0
  5 19  1  0  0  0  0
  5 11  1  1  0  0  0
  6 19  1  0  0  0  0
  8 12  1  0  0  0  0
  8 16  1  0  0  0  0
  9 13  1  0  0  0  0
  9 25  1  0  0  0  0
 12 15  1  0  0  0  0
 13 24  1  0  0  0  0
 14 25  1  0  0  0  0
 15  5  1  0  0  0  0
 16  3  1  0  0  0  0
 17 10  1  0  0  0  0
 17 28  1  0  0  0  0
 18 20  1  0  0  0  0
 20 11  1  0  0  0  0
 20 13  1  0  0  0  0
 21 23  2  0  0  0  0
 21 26  1  0  0  0  0
 22 10  1  0  0  0  0
 23  4  1  0  0  0  0
 24 22  1  0  0  0  0
 25 17  1  0  0  0  0
 26  1  2  0  0  0  0
 27  9  1  0  0  0  0
 28 29  1  0  0  0  0
 29 32  1  0  0  0  0
 30 33  1  0  0  0  0
 31 33  1  0  0  0  0
 32 31  1  0  0  0  0
 34 32  1  0  0  0  0
 34 30  1  0  0  0  0
M  END
>  <MODEL>
8

>  <REMARK>
 VINA RESULT:      -7.9      5.165      9.109
  Name = 
  3 active torsions:
  status: ('A' for Active; 'I' for Inactive)
    1  A    between atoms: C_17  and  N_28
    2  A    between atoms: N_28  and  C_29
    3  A    between atoms: C_29  and  C_32
                            x       y       z     vdW  Elec       q    Type
                         _______ _______ _______ _____ _____    ______ ____

>  <TORSDO>
F 3

$$$$
=
 OpenBabel11122412083D

 34 40  0  0  1  0  0  0  0  0999 V2000
  185.9870  178.5430  142.3250 C   0  0  0  0  0  0  0  0  0  0  0  0
  185.7730  178.3810  139.7690 C   0  0  0  0  0  2  0  0  0  0  0  0
  189.5560  178.0410  147.7290 C   0  0  2  0  0  3  0  0  0  0  0  0
  186.2550  178.2670  144.7360 C   0  0  0  0  0  0  0  0  0  0  0  0
  188.3520  177.2580  145.5810 C   0  0  2  0  0  3  0  0  0  0  0  0
  188.8420  175.7420  147.3970 O   0  0  0  0  0  1  0  0  0  0  0  0
  190.9310  177.8780  148.3420 C   0  0  0  0  0  1  0  0  0  0  0  0
  187.0800  177.9870  148.3400 C   0  0  0  0  0  2  0  0  0  0  0  0
  187.6870  177.5580  140.8770 C   0  0  2  0  0  3  0  0  0  0  0  0
  190.5940  177.8780  139.6450 C   0  0  0  0  0  2  0  0  0  0  0  0
  189.0900  177.9140  144.4230 C   0  0  0  0  0  2  0  0  0  0  0  0
  186.8690  178.7950  147.0750 C   0  0  0  0  0  2  0  0  0  0  0  0
  188.7960  177.8380  141.8980 C   0  0  1  0  0  3  0  0  0  0  0  0
  186.7680  177.9780  138.6840 C   0  0  0  0  0  2  0  0  0  0  0  0
  187.0990  177.9920  145.8700 N   0  0  0  0  0  0  0  0  0  0  0  0
  188.5110  178.1480  148.8440 C   0  0  0  0  0  2  0  0  0  0  0  0
  189.2650  178.3270  138.9990 C   0  0  2  0  0  3  0  0  0  0  0  0
  186.8070  178.2550  143.4380 C   0  0  0  0  0  0  0  0  0  0  0  0
  189.2800  176.9000  146.7490 C   0  0  2  0  0  3  0  0  0  0  0  0
  188.2120  177.9340  143.2510 N   0  0  0  0  0  0  0  0  0  0  0  0
  184.0980  178.8880  143.8020 C   0  0  0  0  0  3  0  0  0  0  0  0
  190.5000  176.5740  140.4410 C   0  0  0  0  0  2  0  0  0  0  0  0
  184.8990  178.5870  144.9070 C   0  0  0  0  0  3  0  0  0  0  0  0
  189.9050  176.7760  141.8390 C   0  0  0  0  0  2  0  0  0  0  0  0
  188.0350  177.4800  139.3910 C   0  0  1  0  0  3  0  0  0  0  0  0
  184.6410  178.8770  142.5160 C   0  0  0  0  0  3  0  0  0  0  0  0
  186.6400  178.6270  140.9780 C   0  0  2  0  0  3  0  0  0  0  0  0
  189.4260  178.3310  137.5540 N   0  0  0  0  0  2  0  0  0  0  0  0
  190.1560  177.1200  137.2040 C   0  0  0  0  0  2  0  0  0  0  0  0
  187.1890  176.6440  135.2870 N   0  0  0  0  0  2  0  0  0  0  0  0
  188.5680  175.2540  136.6600 C   0  0  0  0  0  2  0  0  0  0  0  0
  189.4430  176.3440  136.1000 C   0  0  1  0  0  3  0  0  0  0  0  0
  187.3440  175.2820  135.7790 C   0  0  0  0  0  2  0  0  0  0  0  0
  188.5230  177.2370  135.2880 C   0  0  0  0  0  2  0  0  0  0  0  0
  1 26  2  0  0  0  0
  1 18  1  0  0  0  0
  2 27  1  0  0  0  0
  3  7  1  1  0  0  0
  3 16  1  0  0  0  0
  4 23  1  0  0  0  0
  4 15  1  0  0  0  0
  5 11  1  6  0  0  0
  5 15  1  0  0  0  0
  5 19  1  0  0  0  0
  8 16  1  0  0  0  0
  9 27  1  0  0  0  0
  9 13  1  0  0  0  0
 10 22  1  0  0  0  0
 12  8  1  0  0  0  0
 13 20  1  0  0  0  0
 14 25  1  0  0  0  0
 14  2  1  0  0  0  0
 15 12  1  0  0  0  0
 17 25  1  0  0  0  0
 17 10  1  0  0  0  0
 18  4  2  0  0  0  0
 19  6  1  0  0  0  0
 19  3  1  0  0  0  0
 20 18  1  0  0  0  0
 20 11  1  0  0  0  0
 21 23  2  0  0  0  0
 22 24  1  0  0  0  0
 24 13  1  0  0  0  0
 25  9  1  0  0  0  0
 26 21  1  0  0  0  0
 27  1  1  0  0  0  0
 28 17  1  0  0  0  0
 29 28  1  0  0  0  0
 30 34  1  0  0  0  0
 30 33  1  0  0  0  0
 32 31  1  0  0  0  0
 32 29  1  0  0  0  0
 33 31  1  0  0  0  0
 34 32  1  0  0  0  0
M  END
>  <MODEL>
9

>  <REMARK>
 VINA RESULT:      -7.8      3.760      5.990
  Name = 
  3 active torsions:
  status: ('A' for Active; 'I' for Inactive)
    1  A    between atoms: C_17  and  N_28
    2  A    between atoms: N_28  and  C_29
    3  A    between atoms: C_29  and  C_32
                            x       y       z     vdW  Elec       q    Type
                         _______ _______ _______ _____ _____    ______ ____

>  <TORSDO>
F 3

$$$$
