=
 OpenBabel11122410363D

 32 37  0  0  1  0  0  0  0  0999 V2000
  190.8680  174.8590  137.7240 C   0  0  0  0  0  2  0  0  0  0  0  0
  188.9550  178.0770  141.2520 C   0  0  1  0  0  3  0  0  0  0  0  0
  191.7880  176.1410  144.8780 C   0  0  0  0  0  3  0  0  0  0  0  0
  190.8130  176.4500  145.8280 C   0  0  0  0  0  3  0  0  0  0  0  0
  186.4970  178.5340  141.8500 C   0  0  0  0  0  0  0  0  0  0  0  0
  185.5100  178.7090  142.9150 C   0  0  0  0  0  0  0  0  0  0  0  0
  189.8600  177.5520  138.9810 C   0  0  1  0  0  3  0  0  0  0  0  0
  191.3550  177.4980  140.8250 C   0  0  0  0  0  2  0  0  0  0  0  0
  184.6900  178.6340  144.8590 C   0  0  0  0  0  0  0  0  0  0  0  0
  192.1520  176.8490  138.7160 C   0  0  0  0  0  2  0  0  0  0  0  0
  191.5940  176.4900  143.5400 C   0  0  0  0  0  3  0  0  0  0  0  0
  190.2220  177.5070  141.7500 N   0  0  0  0  0  0  0  0  0  0  0  0
  190.4210  177.1480  143.1350 C   0  0  0  0  0  0  0  0  0  0  0  0
  188.2150  178.2090  143.6720 C   0  0  2  0  0  3  0  0  0  0  0  0
  183.7020  179.0270  144.0230 N   0  0  0  0  0  0  0  0  0  0  0  0
  189.5170  175.5260  137.4190 C   0  0  0  0  0  2  0  0  0  0  0  0
  190.9800  176.8150  139.5910 N   0  0  2  0  0  0  0  0  0  0  0  0
  184.2180  179.0710  142.7950 N   0  0  0  0  0  0  0  0  0  0  0  0
  189.5020  177.0530  137.5720 C   0  0  0  0  0  2  0  0  0  0  0  0
  192.0720  175.8060  137.5860 C   0  0  1  0  0  3  0  0  0  0  0  0
  189.6420  177.1040  145.4390 C   0  0  0  0  0  3  0  0  0  0  0  0
  189.4290  177.4360  144.0920 C   0  0  0  0  0  0  0  0  0  0  0  0
  187.0980  178.0550  144.6130 N   0  0  0  0  0  2  0  0  0  0  0  0
  188.6350  177.4660  139.8860 C   0  0  0  0  0  2  0  0  0  0  0  0
  186.2340  178.8760  140.6660 O   0  0  0  0  0  0  0  0  0  0  0  0
  184.5350  178.4660  146.3300 C   0  0  0  0  0  1  0  0  0  0  0  0
  187.7920  177.8320  142.2300 C   0  0  2  0  0  3  0  0  0  0  0  0
  185.8230  178.4370  144.1780 N   0  0  0  0  0  0  0  0  0  0  0  0
  193.3670  175.0120  137.5520 C   0  0  0  0  0  2  0  0  0  0  0  0
  194.3420  175.6300  136.6080 C   0  0  0  0  0  0  0  0  0  0  0  0
  195.7010  175.3940  136.7610 O   0  0  0  0  0  1  0  0  0  0  0  0
  193.9310  176.3400  135.6540 O   0  0  0  0  0  0  0  0  0  0  0  0
  2 24  1  6  0  0  0
  2 12  1  0  0  0  0
  2 27  1  0  0  0  0
  3  4  1  0  0  0  0
  5  6  1  0  0  0  0
  6 28  1  0  0  0  0
  7 19  1  6  0  0  0
  7 17  1  0  0  0  0
  7 24  1  0  0  0  0
  8 12  1  0  0  0  0
  9 26  1  0  0  0  0
 11  3  2  0  0  0  0
 12 13  1  0  0  0  0
 13 11  1  0  0  0  0
 13 22  2  0  0  0  0
 14 22  1  1  0  0  0
 14 23  1  0  0  0  0
 15  9  2  0  0  0  0
 16 19  1  0  0  0  0
 16  1  1  0  0  0  0
 17 10  1  6  0  0  0
 17  8  1  0  0  0  0
 18  6  2  0  0  0  0
 18 15  1  0  0  0  0
 20 29  1  1  0  0  0
 20  1  1  0  0  0  0
 20 10  1  0  0  0  0
 21  4  2  0  0  0  0
 22 21  1  0  0  0  0
 25  5  2  0  0  0  0
 27  5  1  6  0  0  0
 27 14  1  0  0  0  0
 28 23  1  0  0  0  0
 28  9  1  0  0  0  0
 30 31  1  0  0  0  0
 30 29  1  0  0  0  0
 32 30  2  0  0  0  0
M  END
>  <MODEL>
1

>  <REMARK>
 VINA RESULT:      -9.9      0.000      0.000
  Name = 
  2 active torsions:
  status: ('A' for Active; 'I' for Inactive)
    1  A    between atoms: C_20  and  C_29
    2  A    between atoms: C_29  and  C_30
                            x       y       z     vdW  Elec       q    Type
                         _______ _______ _______ _____ _____    ______ ____

>  <TORSDO>
F 2

$$$$
=
 OpenBabel11122410363D

 32 37  0  0  1  0  0  0  0  0999 V2000
  189.0410  175.7730  137.8920 C   0  0  0  0  0  2  0  0  0  0  0  0
  185.8240  178.7990  140.5290 C   0  0  1  0  0  3  0  0  0  0  0  0
  187.6990  177.3440  144.9210 C   0  0  0  0  0  3  0  0  0  0  0  0
  186.4620  177.5460  145.5360 C   0  0  0  0  0  3  0  0  0  0  0  0
  183.2610  178.9440  140.3770 C   0  0  0  0  0  0  0  0  0  0  0  0
  181.9960  179.0140  141.1070 C   0  0  0  0  0  0  0  0  0  0  0  0
  187.4000  178.3400  138.6430 C   0  0  1  0  0  3  0  0  0  0  0  0
  188.2950  178.5300  140.8350 C   0  0  0  0  0  2  0  0  0  0  0  0
  180.6650  178.8810  142.7410 C   0  0  0  0  0  0  0  0  0  0  0  0
  189.7380  177.9390  139.0810 C   0  0  0  0  0  2  0  0  0  0  0  0
  187.8600  177.6310  143.5630 C   0  0  0  0  0  3  0  0  0  0  0  0
  186.9510  178.4130  141.4000 N   0  0  0  0  0  0  0  0  0  0  0  0
  186.7840  178.1180  142.8030 C   0  0  0  0  0  0  0  0  0  0  0  0
  184.4070  178.8940  142.6280 C   0  0  2  0  0  3  0  0  0  0  0  0
  179.9210  179.1190  141.6370 N   0  0  0  0  0  0  0  0  0  0  0  0
  187.7660  176.2480  137.1770 C   0  0  0  0  0  2  0  0  0  0  0  0
  188.3760  177.7720  139.5900 N   0  0  2  0  0  0  0  0  0  0  0  0
  180.7600  179.2000  140.6050 N   0  0  0  0  0  0  0  0  0  0  0  0
  187.5270  177.7630  137.2240 C   0  0  0  0  0  2  0  0  0  0  0  0
  190.1120  176.8660  138.0420 C   0  0  1  0  0  3  0  0  0  0  0  0
  185.3840  178.0300  144.7910 C   0  0  0  0  0  3  0  0  0  0  0  0
  185.5300  178.2980  143.4210 C   0  0  0  0  0  0  0  0  0  0  0  0
  183.0920  178.6170  143.2220 N   0  0  0  0  0  2  0  0  0  0  0  0
  185.9860  178.1170  139.1680 C   0  0  0  0  0  2  0  0  0  0  0  0
  183.3120  179.2190  139.1490 O   0  0  0  0  0  0  0  0  0  0  0  0
  180.1130  178.7300  144.1150 C   0  0  0  0  0  1  0  0  0  0  0  0
  184.4650  178.4280  141.1510 C   0  0  2  0  0  3  0  0  0  0  0  0
  181.9610  178.8180  142.4220 N   0  0  0  0  0  0  0  0  0  0  0  0
  191.4470  176.2490  138.4240 C   0  0  0  0  0  2  0  0  0  0  0  0
  192.4150  176.3390  137.2950 C   0  0  0  0  0  0  0  0  0  0  0  0
  193.7200  176.7500  137.5300 O   0  0  0  0  0  1  0  0  0  0  0  0
  192.0590  176.0150  136.1320 O   0  0  0  0  0  0  0  0  0  0  0  0
  1 20  1  0  0  0  0
  2 24  1  6  0  0  0
  2 27  1  0  0  0  0
  2 12  1  0  0  0  0
  3  4  1  0  0  0  0
  5  6  1  0  0  0  0
  6 28  1  0  0  0  0
  7 19  1  6  0  0  0
  7 24  1  0  0  0  0
  7 17  1  0  0  0  0
  8 12  1  0  0  0  0
  9 26  1  0  0  0  0
 11  3  2  0  0  0  0
 12 13  1  0  0  0  0
 13 22  2  0  0  0  0
 13 11  1  0  0  0  0
 14 23  1  1  0  0  0
 14 22  1  0  0  0  0
 15  9  2  0  0  0  0
 16 19  1  0  0  0  0
 16  1  1  0  0  0  0
 17 10  1  6  0  0  0
 17  8  1  0  0  0  0
 18  6  2  0  0  0  0
 18 15  1  0  0  0  0
 20 29  1  1  0  0  0
 20 10  1  0  0  0  0
 21  4  2  0  0  0  0
 22 21  1  0  0  0  0
 25  5  2  0  0  0  0
 27  5  1  6  0  0  0
 27 14  1  0  0  0  0
 28  9  1  0  0  0  0
 28 23  1  0  0  0  0
 30 31  1  0  0  0  0
 30 29  1  0  0  0  0
 32 30  2  0  0  0  0
M  END
>  <MODEL>
2

>  <REMARK>
 VINA RESULT:      -9.4      2.431      3.497
  Name = 
  2 active torsions:
  status: ('A' for Active; 'I' for Inactive)
    1  A    between atoms: C_20  and  C_29
    2  A    between atoms: C_29  and  C_30
                            x       y       z     vdW  Elec       q    Type
                         _______ _______ _______ _____ _____    ______ ____

>  <TORSDO>
F 2

$$$$
=
 OpenBabel11122410363D

 32 37  0  0  1  0  0  0  0  0999 V2000
  188.3190  175.6950  136.6290 C   0  0  0  0  0  2  0  0  0  0  0  0
  187.6390  178.4920  140.8920 C   0  0  1  0  0  3  0  0  0  0  0  0
  191.3620  176.1740  143.2760 C   0  0  0  0  0  3  0  0  0  0  0  0
  190.7240  176.3710  144.5010 C   0  0  0  0  0  3  0  0  0  0  0  0
  185.4840  178.8710  142.2420 C   0  0  0  0  0  0  0  0  0  0  0  0
  184.8640  178.9220  143.5650 C   0  0  0  0  0  0  0  0  0  0  0  0
  187.8110  178.2270  138.4110 C   0  0  1  0  0  3  0  0  0  0  0  0
  189.7840  177.9730  139.7070 C   0  0  0  0  0  2  0  0  0  0  0  0
  184.6570  178.6280  145.6460 C   0  0  0  0  0  0  0  0  0  0  0  0
  189.8990  177.5660  137.3990 C   0  0  0  0  0  2  0  0  0  0  0  0
  190.7900  176.6690  142.1020 C   0  0  0  0  0  3  0  0  0  0  0  0
  188.9780  177.8740  140.9250 N   0  0  0  0  0  0  0  0  0  0  0  0
  189.5700  177.3640  142.1390 C   0  0  0  0  0  0  0  0  0  0  0  0
  187.6560  178.3510  143.4210 C   0  0  2  0  0  3  0  0  0  0  0  0
  183.4780  179.1070  145.1910 N   0  0  0  0  0  0  0  0  0  0  0  0
  186.9590  176.3870  136.8150 C   0  0  0  0  0  2  0  0  0  0  0  0
  189.0390  177.4300  138.5760 N   0  0  2  0  0  0  0  0  0  0  0  0
  183.6060  179.2900  143.8770 N   0  0  0  0  0  0  0  0  0  0  0  0
  187.0360  177.8870  137.1280 C   0  0  0  0  0  2  0  0  0  0  0  0
  189.4550  176.6550  136.2400 C   0  0  1  0  0  3  0  0  0  0  0  0
  189.5100  177.0600  144.5520 C   0  0  0  0  0  3  0  0  0  0  0  0
  188.9160  177.5400  143.3750 C   0  0  0  0  0  0  0  0  0  0  0  0
  186.8650  178.0880  144.6310 N   0  0  0  0  0  2  0  0  0  0  0  0
  186.9080  178.0360  139.6260 C   0  0  0  0  0  2  0  0  0  0  0  0
  184.8910  179.3420  141.2350 O   0  0  0  0  0  0  0  0  0  0  0  0
  184.9410  178.2950  147.0690 C   0  0  0  0  0  1  0  0  0  0  0  0
  186.8120  178.1350  142.1400 C   0  0  2  0  0  3  0  0  0  0  0  0
  185.5300  178.5120  144.6410 N   0  0  0  0  0  0  0  0  0  0  0  0
  190.6580  175.8760  135.7350 C   0  0  0  0  0  2  0  0  0  0  0  0
  191.5660  175.5140  136.8610 C   0  0  0  0  0  0  0  0  0  0  0  0
  191.2060  174.5060  137.7450 O   0  0  0  0  0  1  0  0  0  0  0  0
  192.6710  176.1010  136.9920 O   0  0  0  0  0  0  0  0  0  0  0  0
  1 16  1  0  0  0  0
  2 24  1  6  0  0  0
  2 12  1  0  0  0  0
  2 27  1  0  0  0  0
  3  4  1  0  0  0  0
  4 21  2  0  0  0  0
  5  6  1  0  0  0  0
  6 18  2  0  0  0  0
  6 28  1  0  0  0  0
  7 19  1  6  0  0  0
  7 17  1  0  0  0  0
  7 24  1  0  0  0  0
  8 12  1  0  0  0  0
  9 26  1  0  0  0  0
 11 13  1  0  0  0  0
 11  3  2  0  0  0  0
 12 13  1  0  0  0  0
 13 22  2  0  0  0  0
 14 22  1  6  0  0  0
 14 23  1  0  0  0  0
 15  9  2  0  0  0  0
 16 19  1  0  0  0  0
 17 10  1  6  0  0  0
 17  8  1  0  0  0  0
 18 15  1  0  0  0  0
 20 29  1  1  0  0  0
 20  1  1  0  0  0  0
 20 10  1  0  0  0  0
 22 21  1  0  0  0  0
 23 28  1  0  0  0  0
 25  5  2  0  0  0  0
 27  5  1  1  0  0  0
 27 14  1  0  0  0  0
 28  9  1  0  0  0  0
 29 30  1  0  0  0  0
 30 32  2  0  0  0  0
 30 31  1  0  0  0  0
M  END
>  <MODEL>
3

>  <REMARK>
 VINA RESULT:      -9.2      1.512      1.996
  Name = 
  2 active torsions:
  status: ('A' for Active; 'I' for Inactive)
    1  A    between atoms: C_20  and  C_29
    2  A    between atoms: C_29  and  C_30
                            x       y       z     vdW  Elec       q    Type
                         _______ _______ _______ _____ _____    ______ ____

>  <TORSDO>
F 2

$$$$
=
 OpenBabel11122410363D

 32 37  0  0  1  0  0  0  0  0999 V2000
  187.0130  176.7880  143.7930 C   0  0  0  0  0  2  0  0  0  0  0  0
  189.8760  177.7720  139.6340 C   0  0  1  0  0  3  0  0  0  0  0  0
  186.0570  176.9350  136.5310 C   0  0  0  0  0  3  0  0  0  0  0  0
  186.9360  176.4980  135.5390 C   0  0  0  0  0  3  0  0  0  0  0  0
  192.1380  176.7530  138.9580 C   0  0  0  0  0  0  0  0  0  0  0  0
  192.9450  176.1760  137.8850 C   0  0  0  0  0  0  0  0  0  0  0  0
  189.0990  178.2520  141.9620 C   0  0  1  0  0  3  0  0  0  0  0  0
  187.5840  178.6280  140.1730 C   0  0  0  0  0  2  0  0  0  0  0  0
  193.3830  175.3050  136.0110 C   0  0  0  0  0  0  0  0  0  0  0  0
  186.8170  178.9160  142.3710 C   0  0  0  0  0  2  0  0  0  0  0  0
  186.5540  177.3850  137.7560 C   0  0  0  0  0  3  0  0  0  0  0  0
  188.4480  177.8630  139.2740 N   0  0  0  0  0  0  0  0  0  0  0  0
  187.9360  177.3980  138.0060 C   0  0  0  0  0  0  0  0  0  0  0  0
  190.2960  177.0240  137.2510 C   0  0  2  0  0  3  0  0  0  0  0  0
  194.5220  175.2790  136.7400 N   0  0  0  0  0  0  0  0  0  0  0  0
  188.5400  176.6960  143.9440 C   0  0  0  0  0  2  0  0  0  0  0  0
  187.6980  178.1050  141.5310 N   0  0  2  0  0  0  0  0  0  0  0  0
  194.2450  175.8250  137.9240 N   0  0  0  0  0  0  0  0  0  0  0  0
  189.3120  177.9270  143.4490 C   0  0  0  0  0  2  0  0  0  0  0  0
  186.4840  178.2290  143.7080 C   0  0  1  0  0  3  0  0  0  0  0  0
  188.3130  176.5050  135.7740 C   0  0  0  0  0  3  0  0  0  0  0  0
  188.8190  176.9330  137.0110 C   0  0  0  0  0  0  0  0  0  0  0  0
  191.0620  176.1290  136.3730 N   0  0  0  0  0  2  0  0  0  0  0  0
  189.9960  177.3650  141.1050 C   0  0  0  0  0  2  0  0  0  0  0  0
  192.6720  177.1310  140.0340 O   0  0  0  0  0  0  0  0  0  0  0  0
  193.2600  174.7970  134.6180 C   0  0  0  0  0  1  0  0  0  0  0  0
  190.6320  176.7720  138.7420 C   0  0  2  0  0  3  0  0  0  0  0  0
  192.3950  175.8660  136.7150 N   0  0  0  0  0  0  0  0  0  0  0  0
  184.9790  178.2530  143.9170 C   0  0  0  0  0  2  0  0  0  0  0  0
  184.6350  178.8860  145.2210 C   0  0  0  0  0  0  0  0  0  0  0  0
  185.6420  179.3770  146.0420 O   0  0  0  0  0  1  0  0  0  0  0  0
  183.4310  179.0030  145.5660 O   0  0  0  0  0  0  0  0  0  0  0  0
  1 16  1  0  0  0  0
  2 24  1  1  0  0  0
  3 11  1  0  0  0  0
  4 21  1  0  0  0  0
  4  3  2  0  0  0  0
  5 25  2  0  0  0  0
  6 18  2  0  0  0  0
  6  5  1  0  0  0  0
  7 24  1  6  0  0  0
  7 19  1  0  0  0  0
  9 28  1  0  0  0  0
  9 15  2  0  0  0  0
 10 20  1  0  0  0  0
 11 13  2  0  0  0  0
 12  2  1  0  0  0  0
 12  8  1  0  0  0  0
 13 12  1  0  0  0  0
 14 23  1  6  0  0  0
 14 27  1  0  0  0  0
 15 18  1  0  0  0  0
 17  8  1  6  0  0  0
 17  7  1  0  0  0  0
 17 10  1  0  0  0  0
 19 16  1  0  0  0  0
 20  1  1  0  0  0  0
 20 29  1  6  0  0  0
 21 22  2  0  0  0  0
 22 14  1  0  0  0  0
 22 13  1  0  0  0  0
 23 28  1  0  0  0  0
 26  9  1  0  0  0  0
 27  5  1  6  0  0  0
 27  2  1  0  0  0  0
 28  6  1  0  0  0  0
 29 30  1  0  0  0  0
 30 32  2  0  0  0  0
 30 31  1  0  0  0  0
M  END
>  <MODEL>
4

>  <REMARK>
 VINA RESULT:      -8.9      2.637      9.089
  Name = 
  2 active torsions:
  status: ('A' for Active; 'I' for Inactive)
    1  A    between atoms: C_20  and  C_29
    2  A    between atoms: C_29  and  C_30
                            x       y       z     vdW  Elec       q    Type
                         _______ _______ _______ _____ _____    ______ ____

>  <TORSDO>
F 2

$$$$
=
 OpenBabel11122410363D

 32 37  0  0  1  0  0  0  0  0999 V2000
  182.6450  177.0580  139.5220 C   0  0  0  0  0  2  0  0  0  0  0  0
  186.4300  178.6180  142.6370 C   0  0  1  0  0  3  0  0  0  0  0  0
  189.9710  177.0730  139.4750 C   0  0  0  0  0  3  0  0  0  0  0  0
  190.8370  176.8240  140.5400 C   0  0  0  0  0  3  0  0  0  0  0  0
  186.8020  178.0660  145.1200 C   0  0  0  0  0  0  0  0  0  0  0  0
  187.7560  177.6670  146.1530 C   0  0  0  0  0  0  0  0  0  0  0  0
  184.2250  178.9170  141.4950 C   0  0  1  0  0  3  0  0  0  0  0  0
  186.1960  179.0030  140.1730 C   0  0  0  0  0  2  0  0  0  0  0  0
  189.5450  176.9140  146.9840 C   0  0  0  0  0  0  0  0  0  0  0  0
  184.1150  179.1180  139.0940 C   0  0  0  0  0  2  0  0  0  0  0  0
  188.7010  177.6020  139.7170 C   0  0  0  0  0  3  0  0  0  0  0  0
  186.9670  178.4290  141.2760 N   0  0  0  0  0  0  0  0  0  0  0  0
  188.2810  177.8840  141.0270 C   0  0  0  0  0  0  0  0  0  0  0  0
  188.7290  177.9850  143.4910 C   0  0  2  0  0  3  0  0  0  0  0  0
  188.6800  177.1060  148.0060 N   0  0  0  0  0  0  0  0  0  0  0  0
  182.3030  177.2660  141.0070 C   0  0  0  0  0  2  0  0  0  0  0  0
  184.8250  178.5020  140.2150 N   0  0  2  0  0  0  0  0  0  0  0  0
  187.5490  177.5770  147.4820 N   0  0  0  0  0  0  0  0  0  0  0  0
  182.7180  178.6280  141.5790 C   0  0  0  0  0  2  0  0  0  0  0  0
  182.8190  178.3680  138.7370 C   0  0  1  0  0  3  0  0  0  0  0  0
  190.4320  177.1000  141.8480 C   0  0  0  0  0  3  0  0  0  0  0  0
  189.1490  177.6080  142.1020 C   0  0  0  0  0  0  0  0  0  0  0  0
  189.4890  177.2640  144.5210 N   0  0  0  0  0  2  0  0  0  0  0  0
  184.9490  178.2300  142.6480 C   0  0  0  0  0  2  0  0  0  0  0  0
  185.6740  178.5330  145.4310 O   0  0  0  0  0  0  0  0  0  0  0  0
  190.9350  176.4030  147.1390 C   0  0  0  0  0  1  0  0  0  0  0  0
  187.2040  177.7910  143.6790 C   0  0  2  0  0  3  0  0  0  0  0  0
  188.9800  177.2650  145.8260 N   0  0  0  0  0  0  0  0  0  0  0  0
  182.8000  178.0950  137.2420 C   0  0  0  0  0  2  0  0  0  0  0  0
  181.5550  178.6320  136.6210 C   0  0  0  0  0  0  0  0  0  0  0  0
  181.1800  179.9490  136.8450 O   0  0  0  0  0  1  0  0  0  0  0  0
  180.8600  177.8990  135.8700 O   0  0  0  0  0  0  0  0  0  0  0  0
  1 16  1  0  0  0  0
  2 24  1  6  0  0  0
  2 27  1  0  0  0  0
  3 11  2  0  0  0  0
  3  4  1  0  0  0  0
  4 21  2  0  0  0  0
  5 25  2  0  0  0  0
  5  6  1  0  0  0  0
  6 18  2  0  0  0  0
  7 19  1  6  0  0  0
  7 24  1  0  0  0  0
  8 17  1  0  0  0  0
  8 12  1  0  0  0  0
  9 26  1  0  0  0  0
  9 15  2  0  0  0  0
 11 13  1  0  0  0  0
 12  2  1  0  0  0  0
 13 12  1  0  0  0  0
 13 22  2  0  0  0  0
 14 22  1  6  0  0  0
 14 27  1  0  0  0  0
 14 23  1  0  0  0  0
 16 19  1  0  0  0  0
 17 10  1  6  0  0  0
 17  7  1  0  0  0  0
 18 15  1  0  0  0  0
 20 29  1  6  0  0  0
 20 10  1  0  0  0  0
 20  1  1  0  0  0  0
 21 22  1  0  0  0  0
 23 28  1  0  0  0  0
 27  5  1  1  0  0  0
 28  6  1  0  0  0  0
 28  9  1  0  0  0  0
 30 31  1  0  0  0  0
 30 29  1  0  0  0  0
 32 30  2  0  0  0  0
M  END
>  <MODEL>
5

>  <REMARK>
 VINA RESULT:      -8.9      4.191      6.996
  Name = 
  2 active torsions:
  status: ('A' for Active; 'I' for Inactive)
    1  A    between atoms: C_20  and  C_29
    2  A    between atoms: C_29  and  C_30
                            x       y       z     vdW  Elec       q    Type
                         _______ _______ _______ _____ _____    ______ ____

>  <TORSDO>
F 2

$$$$
=
 OpenBabel11122410363D

 32 37  0  0  1  0  0  0  0  0999 V2000
  181.5720  176.9880  138.8850 C   0  0  0  0  0  2  0  0  0  0  0  0
  185.3770  178.7780  141.8470 C   0  0  1  0  0  3  0  0  0  0  0  0
  188.8560  177.6370  138.4540 C   0  0  0  0  0  3  0  0  0  0  0  0
  189.7980  177.4340  139.4640 C   0  0  0  0  0  3  0  0  0  0  0  0
  185.9300  178.1900  144.2880 C   0  0  0  0  0  0  0  0  0  0  0  0
  186.9710  177.8440  145.2560 C   0  0  0  0  0  0  0  0  0  0  0  0
  183.0950  178.9190  140.8330 C   0  0  1  0  0  3  0  0  0  0  0  0
  184.9750  179.2120  139.4130 C   0  0  0  0  0  2  0  0  0  0  0  0
  188.8600  177.2260  145.9660 C   0  0  0  0  0  0  0  0  0  0  0  0
  182.8360  179.1790  138.4490 C   0  0  0  0  0  2  0  0  0  0  0  0
  187.5610  178.0470  138.7800 C   0  0  0  0  0  3  0  0  0  0  0  0
  185.8520  178.6760  140.4540 N   0  0  0  0  0  0  0  0  0  0  0  0
  187.1920  178.2540  140.1190 C   0  0  0  0  0  0  0  0  0  0  0  0
  187.7650  178.3220  142.5580 C   0  0  2  0  0  3  0  0  0  0  0  0
  188.0400  177.3120  147.0370 N   0  0  0  0  0  0  0  0  0  0  0  0
  181.2950  177.1220  140.3920 C   0  0  0  0  0  2  0  0  0  0  0  0
  183.6570  178.5940  139.5100 N   0  0  2  0  0  0  0  0  0  0  0  0
  186.8450  177.6990  146.5890 N   0  0  0  0  0  0  0  0  0  0  0  0
  181.6250  178.4980  140.9870 C   0  0  0  0  0  2  0  0  0  0  0  0
  181.5900  178.3300  138.1360 C   0  0  1  0  0  3  0  0  0  0  0  0
  189.4440  177.6350  140.7990 C   0  0  0  0  0  3  0  0  0  0  0  0
  188.1380  178.0230  141.1370 C   0  0  0  0  0  0  0  0  0  0  0  0
  188.6390  177.6400  143.5220 N   0  0  0  0  0  2  0  0  0  0  0  0
  183.9370  178.2630  141.9240 C   0  0  0  0  0  2  0  0  0  0  0  0
  184.7860  178.5480  144.6730 O   0  0  0  0  0  0  0  0  0  0  0  0
  190.2950  176.8320  146.0310 C   0  0  0  0  0  1  0  0  0  0  0  0
  186.2750  177.9920  142.8190 C   0  0  2  0  0  3  0  0  0  0  0  0
  188.2040  177.5590  144.8510 N   0  0  0  0  0  0  0  0  0  0  0  0
  181.5120  178.1000  136.6360 C   0  0  0  0  0  2  0  0  0  0  0  0
  180.5780  179.0700  135.9990 C   0  0  0  0  0  0  0  0  0  0  0  0
  180.9870  179.8050  134.8940 O   0  0  0  0  0  0  0  0  0  0  0  0
  179.4080  179.2030  136.4430 O   0  0  0  0  0  1  0  0  0  0  0  0
  1 16  1  0  0  0  0
  2 24  1  6  0  0  0
  2 27  1  0  0  0  0
  3 11  2  0  0  0  0
  3  4  1  0  0  0  0
  4 21  2  0  0  0  0
  5 25  2  0  0  0  0
  5  6  1  0  0  0  0
  6 18  2  0  0  0  0
  7 19  1  6  0  0  0
  7 24  1  0  0  0  0
  8 17  1  0  0  0  0
  8 12  1  0  0  0  0
  9 26  1  0  0  0  0
  9 15  2  0  0  0  0
 11 13  1  0  0  0  0
 12  2  1  0  0  0  0
 13 12  1  0  0  0  0
 13 22  2  0  0  0  0
 14 22  1  6  0  0  0
 14 27  1  0  0  0  0
 14 23  1  0  0  0  0
 16 19  1  0  0  0  0
 17 10  1  6  0  0  0
 17  7  1  0  0  0  0
 18 15  1  0  0  0  0
 20 29  1  6  0  0  0
 20 10  1  0  0  0  0
 20  1  1  0  0  0  0
 21 22  1  0  0  0  0
 23 28  1  0  0  0  0
 27  5  1  1  0  0  0
 28  6  1  0  0  0  0
 28  9  1  0  0  0  0
 30 32  1  0  0  0  0
 30 29  1  0  0  0  0
 31 30  2  0  0  0  0
M  END
>  <MODEL>
6

>  <REMARK>
 VINA RESULT:      -8.5      4.236      7.565
  Name = 
  2 active torsions:
  status: ('A' for Active; 'I' for Inactive)
    1  A    between atoms: C_20  and  C_29
    2  A    between atoms: C_29  and  C_30
                            x       y       z     vdW  Elec       q    Type
                         _______ _______ _______ _____ _____    ______ ____

>  <TORSDO>
F 2

$$$$
=
 OpenBabel11122410363D

 32 37  0  0  1  0  0  0  0  0999 V2000
  187.8310  176.4680  143.3150 C   0  0  0  0  0  2  0  0  0  0  0  0
  190.8240  177.2290  139.2010 C   0  0  1  0  0  3  0  0  0  0  0  0
  187.1790  175.9600  136.0350 C   0  0  0  0  0  3  0  0  0  0  0  0
  188.1180  175.4810  135.1200 C   0  0  0  0  0  3  0  0  0  0  0  0
  193.1540  176.2610  138.7030 C   0  0  0  0  0  0  0  0  0  0  0  0
  194.0300  175.6330  137.7160 C   0  0  0  0  0  0  0  0  0  0  0  0
  189.9300  177.8670  141.4480 C   0  0  1  0  0  3  0  0  0  0  0  0
  188.4770  178.0210  139.5750 C   0  0  0  0  0  2  0  0  0  0  0  0
  194.5840  174.6300  135.9420 C   0  0  0  0  0  0  0  0  0  0  0  0
  187.6050  178.4580  141.7090 C   0  0  0  0  0  2  0  0  0  0  0  0
  187.6050  176.5340  137.2360 C   0  0  0  0  0  3  0  0  0  0  0  0
  189.4110  177.2230  138.7790 N   0  0  0  0  0  0  0  0  0  0  0  0
  188.9730  176.6310  137.5370 C   0  0  0  0  0  0  0  0  0  0  0  0
  191.3770  176.3030  136.9090 C   0  0  2  0  0  3  0  0  0  0  0  0
  195.6910  174.7170  136.7140 N   0  0  0  0  0  0  0  0  0  0  0  0
  189.3530  176.4590  143.5330 C   0  0  0  0  0  2  0  0  0  0  0  0
  188.5550  177.6200  140.9760 N   0  0  2  0  0  0  0  0  0  0  0  0
  195.3410  175.3470  137.8360 N   0  0  0  0  0  0  0  0  0  0  0  0
  190.0930  177.6780  142.9640 C   0  0  0  0  0  2  0  0  0  0  0  0
  187.2460  177.8710  143.0860 C   0  0  1  0  0  3  0  0  0  0  0  0
  189.4820  175.5720  135.4070 C   0  0  0  0  0  3  0  0  0  0  0  0
  189.9170  176.1250  136.6210 C   0  0  0  0  0  0  0  0  0  0  0  0
  192.2170  175.3730  136.1420 N   0  0  0  0  0  2  0  0  0  0  0  0
  190.8990  176.9530  140.7050 C   0  0  0  0  0  2  0  0  0  0  0  0
  193.6250  176.7530  139.7630 O   0  0  0  0  0  0  0  0  0  0  0  0
  194.5420  174.0010  134.5940 C   0  0  0  0  0  1  0  0  0  0  0  0
  191.6590  176.1930  138.4280 C   0  0  2  0  0  3  0  0  0  0  0  0
  193.5440  175.2020  136.5560 N   0  0  0  0  0  0  0  0  0  0  0  0
  185.7340  177.8430  143.2330 C   0  0  0  0  0  2  0  0  0  0  0  0
  185.3200  178.3900  144.5570 C   0  0  0  0  0  0  0  0  0  0  0  0
  184.0230  178.8500  144.7440 O   0  0  0  0  0  0  0  0  0  0  0  0
  186.1370  178.4080  145.5140 O   0  0  0  0  0  1  0  0  0  0  0  0
  1 16  1  0  0  0  0
  2 24  1  1  0  0  0
  3 11  1  0  0  0  0
  4 21  1  0  0  0  0
  4  3  2  0  0  0  0
  5 25  2  0  0  0  0
  6 18  2  0  0  0  0
  6  5  1  0  0  0  0
  7 24  1  6  0  0  0
  7 19  1  0  0  0  0
  9 28  1  0  0  0  0
  9 15  2  0  0  0  0
 10 20  1  0  0  0  0
 11 13  2  0  0  0  0
 12  2  1  0  0  0  0
 12  8  1  0  0  0  0
 13 12  1  0  0  0  0
 14 23  1  6  0  0  0
 14 27  1  0  0  0  0
 15 18  1  0  0  0  0
 17  8  1  6  0  0  0
 17  7  1  0  0  0  0
 17 10  1  0  0  0  0
 19 16  1  0  0  0  0
 20 29  1  6  0  0  0
 20  1  1  0  0  0  0
 21 22  2  0  0  0  0
 22 14  1  0  0  0  0
 22 13  1  0  0  0  0
 23 28  1  0  0  0  0
 26  9  1  0  0  0  0
 27  5  1  6  0  0  0
 27  2  1  0  0  0  0
 28  6  1  0  0  0  0
 29 30  1  0  0  0  0
 30 31  2  0  0  0  0
 30 32  1  0  0  0  0
M  END
>  <MODEL>
7

>  <REMARK>
 VINA RESULT:      -8.3      2.549      9.236
  Name = 
  2 active torsions:
  status: ('A' for Active; 'I' for Inactive)
    1  A    between atoms: C_20  and  C_29
    2  A    between atoms: C_29  and  C_30
                            x       y       z     vdW  Elec       q    Type
                         _______ _______ _______ _____ _____    ______ ____

>  <TORSDO>
F 2

$$$$
=
 OpenBabel11122410363D

 32 37  0  0  1  0  0  0  0  0999 V2000
  186.9250  176.7530  145.0860 C   0  0  0  0  0  2  0  0  0  0  0  0
  184.0920  178.8500  141.3390 C   0  0  1  0  0  3  0  0  0  0  0  0
  179.9150  178.6220  144.0640 C   0  0  0  0  0  3  0  0  0  0  0  0
  179.1480  178.4800  142.9070 C   0  0  0  0  0  3  0  0  0  0  0  0
  183.8880  178.1300  138.8800 C   0  0  0  0  0  0  0  0  0  0  0  0
  182.9930  177.8680  137.7530 C   0  0  0  0  0  0  0  0  0  0  0  0
  186.1430  178.7120  142.7630 C   0  0  1  0  0  3  0  0  0  0  0  0
  184.1230  179.4430  143.7730 C   0  0  0  0  0  2  0  0  0  0  0  0
  181.1810  177.5020  136.7330 C   0  0  0  0  0  0  0  0  0  0  0  0
  186.0140  179.1520  145.1310 C   0  0  0  0  0  2  0  0  0  0  0  0
  181.3000  178.7820  143.9680 C   0  0  0  0  0  3  0  0  0  0  0  0
  183.3650  178.9600  142.6180 N   0  0  0  0  0  0  0  0  0  0  0  0
  181.9330  178.7960  142.7150 C   0  0  0  0  0  0  0  0  0  0  0  0
  181.8270  178.7250  140.2120 C   0  0  2  0  0  3  0  0  0  0  0  0
  182.1820  177.3500  135.8360 N   0  0  0  0  0  0  0  0  0  0  0  0
  187.4850  176.6960  143.6550 C   0  0  0  0  0  2  0  0  0  0  0  0
  185.3060  178.6110  143.9700 N   0  0  2  0  0  0  0  0  0  0  0  0
  183.3260  177.5780  136.4810 N   0  0  0  0  0  0  0  0  0  0  0  0
  187.5180  178.0440  142.9220 C   0  0  0  0  0  2  0  0  0  0  0  0
  187.0120  178.1450  145.7310 C   0  0  1  0  0  3  0  0  0  0  0  0
  179.7650  178.4920  141.6540 C   0  0  0  0  0  3  0  0  0  0  0  0
  181.1580  178.6280  141.5500 C   0  0  0  0  0  0  0  0  0  0  0  0
  181.0320  178.1060  139.1430 N   0  0  0  0  0  2  0  0  0  0  0  0
  185.4070  178.1020  141.5740 C   0  0  0  0  0  2  0  0  0  0  0  0
  185.1280  178.2580  138.7000 O   0  0  0  0  0  0  0  0  0  0  0  0
  179.7350  177.3430  136.4180 C   0  0  0  0  0  1  0  0  0  0  0  0
  183.2570  178.1320  140.2640 C   0  0  2  0  0  3  0  0  0  0  0  0
  181.6760  177.8290  137.9300 N   0  0  0  0  0  0  0  0  0  0  0  0
  186.7780  178.0490  147.2290 C   0  0  0  0  0  2  0  0  0  0  0  0
  188.0710  177.9200  147.9600 C   0  0  0  0  0  0  0  0  0  0  0  0
  189.2660  177.8770  147.2550 O   0  0  0  0  0  0  0  0  0  0  0  0
  188.0820  177.8790  149.2180 O   0  0  0  0  0  1  0  0  0  0  0  0
  1 20  1  0  0  0  0
  2 24  1  1  0  0  0
  2 12  1  0  0  0  0
  4  3  2  0  0  0  0
  6 28  1  0  0  0  0
  6  5  1  0  0  0  0
  7 24  1  6  0  0  0
  7 19  1  0  0  0  0
  7 17  1  0  0  0  0
  9 28  1  0  0  0  0
 10 20  1  0  0  0  0
 11  3  1  0  0  0  0
 12 13  1  0  0  0  0
 12  8  1  0  0  0  0
 13 11  2  0  0  0  0
 14 23  1  6  0  0  0
 14 27  1  0  0  0  0
 14 22  1  0  0  0  0
 15 18  1  0  0  0  0
 15  9  2  0  0  0  0
 16  1  1  0  0  0  0
 17  8  1  6  0  0  0
 17 10  1  0  0  0  0
 18  6  2  0  0  0  0
 19 16  1  0  0  0  0
 20 29  1  1  0  0  0
 21  4  1  0  0  0  0
 22 21  2  0  0  0  0
 22 13  1  0  0  0  0
 25  5  2  0  0  0  0
 26  9  1  0  0  0  0
 27  5  1  6  0  0  0
 27  2  1  0  0  0  0
 28 23  1  0  0  0  0
 29 30  1  0  0  0  0
 30 32  1  0  0  0  0
 31 30  2  0  0  0  0
M  END
>  <MODEL>
8

>  <REMARK>
 VINA RESULT:      -8.0      5.099      8.863
  Name = 
  2 active torsions:
  status: ('A' for Active; 'I' for Inactive)
    1  A    between atoms: C_20  and  C_29
    2  A    between atoms: C_29  and  C_30
                            x       y       z     vdW  Elec       q    Type
                         _______ _______ _______ _____ _____    ______ ____

>  <TORSDO>
F 2

$$$$
=
 OpenBabel11122410363D

 32 37  0  0  1  0  0  0  0  0999 V2000
  181.7790  180.9410  139.6600 C   0  0  0  0  0  2  0  0  0  0  0  0
  185.4950  177.8770  141.4650 C   0  0  1  0  0  3  0  0  0  0  0  0
  184.2550  178.7940  146.2120 C   0  0  0  0  0  3  0  0  0  0  0  0
  185.5790  178.6090  146.6120 C   0  0  0  0  0  3  0  0  0  0  0  0
  188.0070  177.8990  140.9190 C   0  0  0  0  0  0  0  0  0  0  0  0
  189.3710  177.8360  141.4410 C   0  0  0  0  0  0  0  0  0  0  0  0
  183.6280  178.4170  139.8910 C   0  0  1  0  0  3  0  0  0  0  0  0
  183.0900  177.9670  142.1600 C   0  0  0  0  0  2  0  0  0  0  0  0
  190.9310  177.8930  142.8640 C   0  0  0  0  0  0  0  0  0  0  0  0
  181.3700  178.6350  140.7110 C   0  0  0  0  0  2  0  0  0  0  0  0
  183.9000  178.6280  144.8720 C   0  0  0  0  0  3  0  0  0  0  0  0
  184.4990  178.1110  142.5280 N   0  0  0  0  0  0  0  0  0  0  0  0
  184.8670  178.2800  143.9140 C   0  0  0  0  0  0  0  0  0  0  0  0
  187.2200  177.6680  143.3080 C   0  0  2  0  0  3  0  0  0  0  0  0
  191.5060  177.8050  141.6430 N   0  0  0  0  0  0  0  0  0  0  0  0
  182.9480  180.6130  138.7180 C   0  0  0  0  0  2  0  0  0  0  0  0
  182.7850  178.8330  141.0260 N   0  0  2  0  0  0  0  0  0  0  0  0
  190.5230  177.7730  140.7440 N   0  0  0  0  0  0  0  0  0  0  0  0
  183.2590  179.1170  138.5740 C   0  0  0  0  0  2  0  0  0  0  0  0
  180.7930  179.7780  139.8550 C   0  0  1  0  0  3  0  0  0  0  0  0
  186.5500  178.2630  145.6700 C   0  0  0  0  0  3  0  0  0  0  0  0
  186.2070  178.1180  144.3170 C   0  0  0  0  0  0  0  0  0  0  0  0
  188.5970  177.9650  143.7250 N   0  0  0  0  0  2  0  0  0  0  0  0
  185.0950  178.6740  140.2200 C   0  0  0  0  0  2  0  0  0  0  0  0
  187.7800  177.7400  139.6900 O   0  0  0  0  0  0  0  0  0  0  0  0
  191.6810  177.9450  144.1490 C   0  0  0  0  0  1  0  0  0  0  0  0
  186.9150  178.2670  141.9120 C   0  0  2  0  0  3  0  0  0  0  0  0
  189.6000  177.9090  142.7490 N   0  0  0  0  0  0  0  0  0  0  0  0
  179.5070  180.2750  140.4930 C   0  0  0  0  0  2  0  0  0  0  0  0
  179.5180  180.0360  141.9640 C   0  0  0  0  0  0  0  0  0  0  0  0
  178.9650  178.8730  142.4830 O   0  0  0  0  0  0  0  0  0  0  0  0
  180.0550  180.8740  142.7340 O   0  0  0  0  0  1  0  0  0  0  0  0
  1 20  1  0  0  0  0
  2 24  1  6  0  0  0
  2 27  1  0  0  0  0
  2 12  1  0  0  0  0
  3  4  1  0  0  0  0
  5  6  1  0  0  0  0
  6 28  1  0  0  0  0
  7 19  1  6  0  0  0
  7 24  1  0  0  0  0
  7 17  1  0  0  0  0
  8 12  1  0  0  0  0
  9 26  1  0  0  0  0
 11  3  2  0  0  0  0
 12 13  1  0  0  0  0
 13 22  2  0  0  0  0
 13 11  1  0  0  0  0
 14 23  1  1  0  0  0
 14 22  1  0  0  0  0
 15  9  2  0  0  0  0
 16  1  1  0  0  0  0
 17 10  1  6  0  0  0
 17  8  1  0  0  0  0
 18  6  2  0  0  0  0
 18 15  1  0  0  0  0
 19 16  1  0  0  0  0
 20 29  1  1  0  0  0
 20 10  1  0  0  0  0
 21  4  2  0  0  0  0
 22 21  1  0  0  0  0
 25  5  2  0  0  0  0
 27  5  1  6  0  0  0
 27 14  1  0  0  0  0
 28  9  1  0  0  0  0
 28 23  1  0  0  0  0
 29 30  1  0  0  0  0
 30 31  2  0  0  0  0
 30 32  1  0  0  0  0
M  END
>  <MODEL>
9

>  <REMARK>
 VINA RESULT:      -8.0      3.485      8.511
  Name = 
  2 active torsions:
  status: ('A' for Active; 'I' for Inactive)
    1  A    between atoms: C_20  and  C_29
    2  A    between atoms: C_29  and  C_30
                            x       y       z     vdW  Elec       q    Type
                         _______ _______ _______ _____ _____    ______ ____

>  <TORSDO>
F 2

$$$$
