=
 OpenBabel11122412003D

 28 32  0  0  1  0  0  0  0  0999 V2000
  189.4150  177.9070  137.7060 C   0  0  0  0  0  0  0  0  0  0  0  0
  193.3190  176.1560  134.7120 O   0  0  0  0  0  0  0  0  0  0  0  0
  187.2720  173.7950  137.3240 C   0  0  0  0  0  1  0  0  0  0  0  0
  189.8580  176.8610  140.2640 C   0  0  0  0  0  3  0  0  0  0  0  0
  189.4170  173.1680  136.2620 C   0  0  2  0  0  3  0  0  0  0  0  0
  189.1660  178.3880  136.4180 O   0  0  0  0  0  0  0  0  0  0  0  0
  194.2220  176.9970  136.8360 O   0  0  0  0  0  0  0  0  0  0  0  0
  193.6220  175.8070  136.1420 S   0  0  0  0  0  0  0  0  0  0  0  0
  194.0670  173.2000  136.7240 C   0  0  2  0  0  3  0  0  0  0  0  0
  192.1240  175.2960  136.9910 C   0  0  2  0  0  3  0  0  0  0  0  0
  185.7850  177.4950  135.0930 C   0  0  0  0  0  1  0  0  0  0  0  0
  190.0510  175.4320  135.7400 C   0  0  1  0  0  3  0  0  0  0  0  0
  192.7010  173.0490  136.0650 C   0  0  0  0  0  2  0  0  0  0  0  0
  194.7640  174.4420  136.1880 C   0  0  0  0  0  2  0  0  0  0  0  0
  187.0740  177.2740  135.8560 C   0  0  1  0  0  3  0  0  0  0  0  0
  190.3230  176.8490  137.8760 C   0  0  0  0  0  0  0  0  0  0  0  0
  188.2010  174.0560  136.1520 C   0  0  2  0  0  3  0  0  0  0  0  0
  194.9150  171.9830  136.4200 C   0  0  0  0  0  1  0  0  0  0  0  0
  187.8820  176.1710  135.1790 C   0  0  0  0  0  2  0  0  0  0  0  0
  190.5290  176.3240  139.1640 C   0  0  0  0  0  3  0  0  0  0  0  0
  188.7360  178.4360  138.8120 C   0  0  0  0  0  3  0  0  0  0  0  0
  188.9620  177.9180  140.0890 C   0  0  0  0  0  3  0  0  0  0  0  0
  187.8460  178.5930  135.9250 C   0  0  0  0  0  2  0  0  0  0  0  0
  190.5660  174.0070  135.7610 C   0  0  1  0  0  3  0  0  0  0  0  0
  188.6530  175.4400  136.1790 N   0  0  2  0  0  0  0  0  0  0  0  0
  191.6880  173.9140  136.6890 N   0  0  2  0  0  0  0  0  0  0  0  0
  189.2610  172.0460  135.4490 O   0  0  0  0  0  1  0  0  0  0  0  0
  190.9810  176.2360  136.6540 C   0  0  1  0  0  3  0  0  0  0  0  0
  1 16  2  0  0  0  0
  1 21  1  0  0  0  0
  2  8  2  0  0  0  0
  5 27  1  6  0  0  0
  6  1  1  0  0  0  0
  8 14  1  0  0  0  0
  8  7  2  0  0  0  0
  9 18  1  6  0  0  0
 10  8  1  6  0  0  0
 11 15  1  0  0  0  0
 12 24  1  0  0  0  0
 12 25  1  0  0  0  0
 12 28  1  0  0  0  0
 13 26  1  0  0  0  0
 13  9  1  0  0  0  0
 14  9  1  0  0  0  0
 15 23  1  0  0  0  0
 16 20  1  0  0  0  0
 17 25  1  0  0  0  0
 17  5  1  0  0  0  0
 17  3  1  0  0  0  0
 19 15  1  0  0  0  0
 19 25  1  0  0  0  0
 20  4  2  0  0  0  0
 21 22  2  0  0  0  0
 22  4  1  0  0  0  0
 23  6  1  0  0  0  0
 24  5  1  0  0  0  0
 24 26  1  0  0  0  0
 26 10  1  0  0  0  0
 28 10  1  0  0  0  0
 28 16  1  0  0  0  0
M  END
>  <MODEL>
1

>  <REMARK>
 VINA RESULT:      -6.1      0.000      0.000
  Name = 
  0 active torsions:
  status: ('A' for Active; 'I' for Inactive)
                            x       y       z     vdW  Elec       q    Type
                         _______ _______ _______ _____ _____    ______ ____

>  <TORSDO>
F 0

$$$$
=
 OpenBabel11122412003D

 28 32  0  0  1  0  0  0  0  0999 V2000
  179.3140  177.2040  138.3440 C   0  0  0  0  0  0  0  0  0  0  0  0
  180.0590  180.5140  142.3140 O   0  0  0  0  0  0  0  0  0  0  0  0
  183.8460  177.4110  137.3150 C   0  0  0  0  0  1  0  0  0  0  0  0
  180.1570  174.6920  139.2480 C   0  0  0  0  0  3  0  0  0  0  0  0
  183.9200  178.6480  139.4560 C   0  0  2  0  0  3  0  0  0  0  0  0
  178.9400  178.4650  137.8760 O   0  0  0  0  0  0  0  0  0  0  0  0
  178.9700  178.4710  143.1360 O   0  0  0  0  0  0  0  0  0  0  0  0
  180.2890  179.1140  142.8110 S   0  0  0  0  0  0  0  0  0  0  0  0
  182.6800  178.5740  143.9610 C   0  0  2  0  0  3  0  0  0  0  0  0
  181.1520  178.1450  141.5690 C   0  0  2  0  0  3  0  0  0  0  0  0
  180.7020  179.5060  134.7450 C   0  0  0  0  0  1  0  0  0  0  0  0
  181.5810  179.2180  139.4380 C   0  0  1  0  0  3  0  0  0  0  0  0
  183.1920  179.1180  142.6310 C   0  0  0  0  0  2  0  0  0  0  0  0
  181.3120  179.1650  144.2670 C   0  0  0  0  0  2  0  0  0  0  0  0
  180.5670  178.8530  136.1050 C   0  0  1  0  0  3  0  0  0  0  0  0
  180.0980  177.1100  139.5060 C   0  0  0  0  0  0  0  0  0  0  0  0
  183.3790  178.6560  138.0460 C   0  0  2  0  0  3  0  0  0  0  0  0
  183.6430  178.9500  145.0670 C   0  0  0  0  0  1  0  0  0  0  0  0
  181.4380  179.5960  137.1140 C   0  0  0  0  0  2  0  0  0  0  0  0
  180.5260  175.8450  139.9440 C   0  0  0  0  0  3  0  0  0  0  0  0
  178.9550  176.0450  137.6420 C   0  0  0  0  0  3  0  0  0  0  0  0
  179.3710  174.7920  138.0970 C   0  0  0  0  0  3  0  0  0  0  0  0
  179.0920  178.8470  136.5130 C   0  0  0  0  0  2  0  0  0  0  0  0
  182.8240  179.2420  140.3040 C   0  0  1  0  0  3  0  0  0  0  0  0
  181.9240  178.6650  138.1260 N   0  0  2  0  0  0  0  0  0  0  0  0
  182.6050  178.4110  141.4830 N   0  0  2  0  0  0  0  0  0  0  0  0
  185.0610  179.4470  139.5300 O   0  0  0  0  0  1  0  0  0  0  0  0
  180.5450  178.3840  140.1990 C   0  0  1  0  0  3  0  0  0  0  0  0
  1 16  1  0  0  0  0
  2  8  2  0  0  0  0
  3 17  1  0  0  0  0
  4 20  1  0  0  0  0
  5 27  1  6  0  0  0
  5 24  1  0  0  0  0
  6  1  1  0  0  0  0
  8  7  2  0  0  0  0
  8 14  1  0  0  0  0
  9 14  1  0  0  0  0
  9 18  1  1  0  0  0
 10  8  1  1  0  0  0
 11 15  1  0  0  0  0
 12 28  1  0  0  0  0
 12 24  1  0  0  0  0
 13  9  1  0  0  0  0
 15 23  1  0  0  0  0
 15 19  1  0  0  0  0
 16 20  2  0  0  0  0
 16 28  1  0  0  0  0
 17 25  1  0  0  0  0
 17  5  1  0  0  0  0
 19 25  1  0  0  0  0
 21 22  1  0  0  0  0
 21  1  2  0  0  0  0
 22  4  2  0  0  0  0
 23  6  1  0  0  0  0
 24 26  1  0  0  0  0
 25 12  1  0  0  0  0
 26 10  1  0  0  0  0
 26 13  1  0  0  0  0
 28 10  1  0  0  0  0
M  END
>  <MODEL>
2

>  <REMARK>
 VINA RESULT:      -6.0      8.115     11.174
  Name = 
  0 active torsions:
  status: ('A' for Active; 'I' for Inactive)
                            x       y       z     vdW  Elec       q    Type
                         _______ _______ _______ _____ _____    ______ ____

>  <TORSDO>
F 0

$$$$
=
 OpenBabel11122412003D

 28 32  0  0  1  0  0  0  0  0999 V2000
  181.0630  176.3140  136.5970 C   0  0  0  0  0  0  0  0  0  0  0  0
  185.9390  174.6730  137.4970 O   0  0  0  0  0  0  0  0  0  0  0  0
  181.8580  180.1040  139.1740 C   0  0  0  0  0  1  0  0  0  0  0  0
  181.2480  178.2620  134.5950 C   0  0  0  0  0  3  0  0  0  0  0  0
  184.1760  179.2420  139.1020 C   0  0  2  0  0  3  0  0  0  0  0  0
  180.9760  175.3780  137.6310 O   0  0  0  0  0  0  0  0  0  0  0  0
  185.5330  174.7670  135.0760 O   0  0  0  0  0  0  0  0  0  0  0  0
  185.9510  175.5590  136.2830 S   0  0  0  0  0  0  0  0  0  0  0  0
  187.6010  177.7050  136.3200 C   0  0  2  0  0  3  0  0  0  0  0  0
  184.8380  176.9500  136.5150 C   0  0  2  0  0  3  0  0  0  0  0  0
  179.2690  176.6630  140.7000 C   0  0  0  0  0  1  0  0  0  0  0  0
  183.5320  176.9860  138.5580 C   0  0  1  0  0  3  0  0  0  0  0  0
  186.8280  177.9990  137.6010 C   0  0  0  0  0  2  0  0  0  0  0  0
  187.5900  176.2100  136.0420 C   0  0  0  0  0  2  0  0  0  0  0  0
  180.1620  176.7390  139.4800 C   0  0  1  0  0  3  0  0  0  0  0  0
  182.3120  176.8780  136.2890 C   0  0  0  0  0  0  0  0  0  0  0  0
  182.7680  178.9550  139.5690 C   0  0  2  0  0  3  0  0  0  0  0  0
  189.0330  178.1730  136.4720 C   0  0  0  0  0  1  0  0  0  0  0  0
  181.6090  176.9420  139.9220 C   0  0  0  0  0  2  0  0  0  0  0  0
  182.3910  177.8640  135.2910 C   0  0  0  0  0  3  0  0  0  0  0  0
  179.9160  176.7230  135.9040 C   0  0  0  0  0  3  0  0  0  0  0  0
  180.0100  177.6910  134.9010 C   0  0  0  0  0  3  0  0  0  0  0  0
  179.9890  175.4630  138.6520 C   0  0  0  0  0  2  0  0  0  0  0  0
  184.7310  177.9050  138.6780 C   0  0  1  0  0  3  0  0  0  0  0  0
  182.3230  177.7280  138.9220 N   0  0  2  0  0  0  0  0  0  0  0  0
  185.3750  178.0290  137.3740 N   0  0  2  0  0  0  0  0  0  0  0  0
  184.9300  179.7530  140.1580 O   0  0  0  0  0  1  0  0  0  0  0  0
  183.5240  176.4810  137.1110 C   0  0  1  0  0  3  0  0  0  0  0  0
  1  6  1  0  0  0  0
  3 17  1  0  0  0  0
  4 22  2  0  0  0  0
  4 20  1  0  0  0  0
  5 17  1  0  0  0  0
  5 27  1  1  0  0  0
  6 23  1  0  0  0  0
  7  8  2  0  0  0  0
  8  2  2  0  0  0  0
  9 18  1  1  0  0  0
  9 13  1  0  0  0  0
 10  8  1  1  0  0  0
 10 28  1  0  0  0  0
 10 26  1  0  0  0  0
 12 24  1  0  0  0  0
 12 25  1  0  0  0  0
 14  8  1  0  0  0  0
 14  9  1  0  0  0  0
 15 19  1  0  0  0  0
 15 11  1  0  0  0  0
 16  1  1  0  0  0  0
 16 28  1  0  0  0  0
 20 16  2  0  0  0  0
 21  1  2  0  0  0  0
 22 21  1  0  0  0  0
 23 15  1  0  0  0  0
 24  5  1  0  0  0  0
 25 17  1  0  0  0  0
 25 19  1  0  0  0  0
 26 13  1  0  0  0  0
 26 24  1  0  0  0  0
 28 12  1  0  0  0  0
M  END
>  <MODEL>
3

>  <REMARK>
 VINA RESULT:      -5.3      5.306      8.418
  Name = 
  0 active torsions:
  status: ('A' for Active; 'I' for Inactive)
                            x       y       z     vdW  Elec       q    Type
                         _______ _______ _______ _____ _____    ______ ____

>  <TORSDO>
F 0

$$$$
=
 OpenBabel11122412003D

 28 32  0  0  1  0  0  0  0  0999 V2000
  180.1790  178.5390  140.2180 C   0  0  0  0  0  0  0  0  0  0  0  0
  183.6060  180.4860  143.6430 O   0  0  0  0  0  0  0  0  0  0  0  0
  183.6380  177.7120  137.2200 C   0  0  0  0  0  1  0  0  0  0  0  0
  180.3690  175.7530  140.4160 C   0  0  0  0  0  3  0  0  0  0  0  0
  185.0170  178.3420  139.1750 C   0  0  2  0  0  3  0  0  0  0  0  0
  180.1180  179.9280  140.0840 O   0  0  0  0  0  0  0  0  0  0  0  0
  182.3050  178.6940  144.7070 O   0  0  0  0  0  0  0  0  0  0  0  0
  183.5080  179.0030  143.8590 S   0  0  0  0  0  0  0  0  0  0  0  0
  185.7980  177.5650  143.7160 C   0  0  2  0  0  3  0  0  0  0  0  0
  183.3800  178.1500  142.2840 C   0  0  2  0  0  3  0  0  0  0  0  0
  180.6830  181.1390  136.5910 C   0  0  0  0  0  1  0  0  0  0  0  0
  183.2460  179.5290  140.2940 C   0  0  1  0  0  3  0  0  0  0  0  0
  185.8750  178.2400  142.3510 C   0  0  0  0  0  2  0  0  0  0  0  0
  184.9830  178.4240  144.6710 C   0  0  0  0  0  2  0  0  0  0  0  0
  180.8970  180.2510  137.7980 C   0  0  1  0  0  3  0  0  0  0  0  0
  181.2810  177.9620  140.8700 C   0  0  0  0  0  0  0  0  0  0  0  0
  183.9860  178.8300  138.1850 C   0  0  2  0  0  3  0  0  0  0  0  0
  187.1940  177.3880  144.2730 C   0  0  0  0  0  1  0  0  0  0  0  0
  182.3050  180.4650  138.3440 C   0  0  0  0  0  2  0  0  0  0  0  0
  181.3730  176.5620  140.9530 C   0  0  0  0  0  3  0  0  0  0  0  0
  179.1780  177.7230  139.6720 C   0  0  0  0  0  3  0  0  0  0  0  0
  179.2710  176.3340  139.7760 C   0  0  0  0  0  3  0  0  0  0  0  0
  179.8220  180.5600  138.8430 C   0  0  0  0  0  2  0  0  0  0  0  0
  184.6540  179.0030  140.4810 C   0  0  1  0  0  3  0  0  0  0  0  0
  182.8000  179.2250  138.9320 N   0  0  2  0  0  0  0  0  0  0  0  0
  184.6600  178.0130  141.5540 N   0  0  2  0  0  0  0  0  0  0  0  0
  186.2890  178.7520  138.7750 O   0  0  0  0  0  1  0  0  0  0  0  0
  182.3920  178.8620  141.3780 C   0  0  1  0  0  3  0  0  0  0  0  0
  1 16  1  0  0  0  0
  2  8  2  0  0  0  0
  3 17  1  0  0  0  0
  4 20  1  0  0  0  0
  5 27  1  6  0  0  0
  5 24  1  0  0  0  0
  6  1  1  0  0  0  0
  8 14  1  0  0  0  0
  8  7  2  0  0  0  0
  9 18  1  1  0  0  0
  9 14  1  0  0  0  0
 10  8  1  1  0  0  0
 11 15  1  0  0  0  0
 12 24  1  0  0  0  0
 12 28  1  0  0  0  0
 13  9  1  0  0  0  0
 15 19  1  0  0  0  0
 15 23  1  0  0  0  0
 16 20  2  0  0  0  0
 16 28  1  0  0  0  0
 17 25  1  0  0  0  0
 17  5  1  0  0  0  0
 19 25  1  0  0  0  0
 21 22  1  0  0  0  0
 21  1  2  0  0  0  0
 22  4  2  0  0  0  0
 23  6  1  0  0  0  0
 24 26  1  0  0  0  0
 25 12  1  0  0  0  0
 26 10  1  0  0  0  0
 26 13  1  0  0  0  0
 28 10  1  0  0  0  0
M  END
>  <MODEL>
4

>  <REMARK>
 VINA RESULT:      -5.1      7.446      9.916
  Name = 
  0 active torsions:
  status: ('A' for Active; 'I' for Inactive)
                            x       y       z     vdW  Elec       q    Type
                         _______ _______ _______ _____ _____    ______ ____

>  <TORSDO>
F 0

$$$$
=
 OpenBabel11122412003D

 28 32  0  0  1  0  0  0  0  0999 V2000
  182.2850  178.7050  138.0380 C   0  0  0  0  0  0  0  0  0  0  0  0
  186.5510  178.0260  135.1030 O   0  0  0  0  0  0  0  0  0  0  0  0
  181.3340  174.1630  137.7130 C   0  0  0  0  0  1  0  0  0  0  0  0
  182.9640  177.8560  140.6170 C   0  0  0  0  0  3  0  0  0  0  0  0
  183.5810  174.1210  136.6780 C   0  0  2  0  0  3  0  0  0  0  0  0
  181.9310  179.0820  136.7400 O   0  0  0  0  0  0  0  0  0  0  0  0
  187.1690  179.1120  137.2190 O   0  0  0  0  0  0  0  0  0  0  0  0
  186.9200  177.7940  136.5410 S   0  0  0  0  0  0  0  0  0  0  0  0
  188.0450  175.4130  137.1720 C   0  0  2  0  0  3  0  0  0  0  0  0
  185.6050  176.9110  137.3880 C   0  0  2  0  0  3  0  0  0  0  0  0
  178.9310  177.2900  135.4070 C   0  0  0  0  0  1  0  0  0  0  0  0
  183.5870  176.4640  136.1200 C   0  0  1  0  0  3  0  0  0  0  0  0
  186.7770  174.8890  136.5060 C   0  0  0  0  0  2  0  0  0  0  0  0
  188.3870  176.7880  136.6190 C   0  0  0  0  0  2  0  0  0  0  0  0
  180.2230  177.4360  136.1830 C   0  0  1  0  0  3  0  0  0  0  0  0
  183.4430  177.9340  138.2330 C   0  0  0  0  0  0  0  0  0  0  0  0
  182.1720  174.6470  136.5430 C   0  0  2  0  0  3  0  0  0  0  0  0
  189.1920  174.4650  136.8950 C   0  0  0  0  0  1  0  0  0  0  0  0
  181.3060  176.5830  135.5310 C   0  0  0  0  0  2  0  0  0  0  0  0
  183.7680  177.5030  139.5310 C   0  0  0  0  0  3  0  0  0  0  0  0
  181.4760  179.0480  139.1290 C   0  0  0  0  0  3  0  0  0  0  0  0
  181.8190  178.6290  140.4170 C   0  0  0  0  0  3  0  0  0  0  0  0
  180.6110  178.9160  136.2340 C   0  0  0  0  0  2  0  0  0  0  0  0
  184.4660  175.2310  136.1700 C   0  0  1  0  0  3  0  0  0  0  0  0
  182.2340  176.1020  136.5490 N   0  0  2  0  0  0  0  0  0  0  0  0
  185.5620  175.4580  137.1070 N   0  0  2  0  0  0  0  0  0  0  0  0
  183.7420  172.9870  135.8830 O   0  0  0  0  0  1  0  0  0  0  0  0
  184.2560  177.5030  137.0270 C   0  0  1  0  0  3  0  0  0  0  0  0
  1 16  2  0  0  0  0
  1 21  1  0  0  0  0
  2  8  2  0  0  0  0
  5 27  1  6  0  0  0
  6  1  1  0  0  0  0
  8 14  1  0  0  0  0
  8  7  2  0  0  0  0
  9 18  1  6  0  0  0
 10  8  1  6  0  0  0
 11 15  1  0  0  0  0
 12 24  1  0  0  0  0
 12 25  1  0  0  0  0
 12 28  1  0  0  0  0
 13 26  1  0  0  0  0
 13  9  1  0  0  0  0
 14  9  1  0  0  0  0
 15 23  1  0  0  0  0
 16 20  1  0  0  0  0
 17 25  1  0  0  0  0
 17  5  1  0  0  0  0
 17  3  1  0  0  0  0
 19 15  1  0  0  0  0
 19 25  1  0  0  0  0
 20  4  2  0  0  0  0
 21 22  2  0  0  0  0
 22  4  1  0  0  0  0
 23  6  1  0  0  0  0
 24  5  1  0  0  0  0
 24 26  1  0  0  0  0
 26 10  1  0  0  0  0
 28 10  1  0  0  0  0
 28 16  1  0  0  0  0
M  END
>  <MODEL>
5

>  <REMARK>
 VINA RESULT:      -4.6      4.700      6.702
  Name = 
  0 active torsions:
  status: ('A' for Active; 'I' for Inactive)
                            x       y       z     vdW  Elec       q    Type
                         _______ _______ _______ _____ _____    ______ ____

>  <TORSDO>
F 0

$$$$
=
 OpenBabel11122412003D

 28 32  0  0  1  0  0  0  0  0999 V2000
  182.5240  177.9270  137.2780 C   0  0  0  0  0  0  0  0  0  0  0  0
  187.1660  177.9610  134.8850 O   0  0  0  0  0  0  0  0  0  0  0  0
  182.7000  173.2870  137.5620 C   0  0  0  0  0  1  0  0  0  0  0  0
  183.0510  177.6030  140.0080 C   0  0  0  0  0  3  0  0  0  0  0  0
  185.0070  173.6730  136.7560 C   0  0  2  0  0  3  0  0  0  0  0  0
  182.2580  178.0390  135.9110 O   0  0  0  0  0  0  0  0  0  0  0  0
  187.2450  179.4220  136.8590 O   0  0  0  0  0  0  0  0  0  0  0  0
  187.3950  178.0090  136.3700 S   0  0  0  0  0  0  0  0  0  0  0  0
  188.9520  176.0780  137.4560 C   0  0  2  0  0  3  0  0  0  0  0  0
  186.2240  176.9420  137.2160 C   0  0  2  0  0  3  0  0  0  0  0  0
  179.9470  175.4090  134.5960 C   0  0  0  0  0  1  0  0  0  0  0  0
  184.5410  175.8550  135.8520 C   0  0  1  0  0  3  0  0  0  0  0  0
  187.9340  175.1780  136.7640 C   0  0  0  0  0  2  0  0  0  0  0  0
  189.0330  177.4150  136.7350 C   0  0  0  0  0  2  0  0  0  0  0  0
  181.0620  175.9660  135.4550 C   0  0  1  0  0  3  0  0  0  0  0  0
  183.7950  177.4970  137.6940 C   0  0  0  0  0  0  0  0  0  0  0  0
  183.5430  173.8120  136.4140 C   0  0  2  0  0  3  0  0  0  0  0  0
  190.3130  175.4160  137.4330 C   0  0  0  0  0  1  0  0  0  0  0  0
  182.3870  175.3320  135.0440 C   0  0  0  0  0  2  0  0  0  0  0  0
  184.0450  177.3260  139.0670 C   0  0  0  0  0  3  0  0  0  0  0  0
  181.5270  178.1940  138.2250 C   0  0  0  0  0  3  0  0  0  0  0  0
  181.7920  178.0380  139.5870 C   0  0  0  0  0  3  0  0  0  0  0  0
  181.0870  177.4900  135.3170 C   0  0  0  0  0  2  0  0  0  0  0  0
  185.6680  174.8940  136.1690 C   0  0  1  0  0  3  0  0  0  0  0  0
  183.2650  175.2270  136.2040 N   0  0  2  0  0  0  0  0  0  0  0  0
  186.5540  175.5010  137.1570 N   0  0  2  0  0  0  0  0  0  0  0  0
  185.5250  172.5230  136.1610 O   0  0  0  0  0  1  0  0  0  0  0  0
  184.8310  177.1320  136.6470 C   0  0  1  0  0  3  0  0  0  0  0  0
  1 16  2  0  0  0  0
  1 21  1  0  0  0  0
  2  8  2  0  0  0  0
  5 27  1  6  0  0  0
  6  1  1  0  0  0  0
  8 14  1  0  0  0  0
  8  7  2  0  0  0  0
  9 18  1  6  0  0  0
 10  8  1  6  0  0  0
 11 15  1  0  0  0  0
 12 24  1  0  0  0  0
 12 25  1  0  0  0  0
 12 28  1  0  0  0  0
 13 26  1  0  0  0  0
 13  9  1  0  0  0  0
 14  9  1  0  0  0  0
 16 20  1  0  0  0  0
 17  5  1  0  0  0  0
 17  3  1  0  0  0  0
 19 15  1  0  0  0  0
 19 25  1  0  0  0  0
 20  4  2  0  0  0  0
 21 22  2  0  0  0  0
 22  4  1  0  0  0  0
 23 15  1  0  0  0  0
 23  6  1  0  0  0  0
 24  5  1  0  0  0  0
 24 26  1  0  0  0  0
 25 17  1  0  0  0  0
 26 10  1  0  0  0  0
 28 10  1  0  0  0  0
 28 16  1  0  0  0  0
M  END
>  <MODEL>
6

>  <REMARK>
 VINA RESULT:      -4.4      4.056      6.075
  Name = 
  0 active torsions:
  status: ('A' for Active; 'I' for Inactive)
                            x       y       z     vdW  Elec       q    Type
                         _______ _______ _______ _____ _____    ______ ____

>  <TORSDO>
F 0

$$$$
=
 OpenBabel11122412003D

 28 32  0  0  1  0  0  0  0  0999 V2000
  184.8130  176.2690  136.0750 C   0  0  0  0  0  0  0  0  0  0  0  0
  182.3090  180.0500  138.6650 O   0  0  0  0  0  0  0  0  0  0  0  0
  188.4160  176.6510  138.9920 C   0  0  0  0  0  1  0  0  0  0  0  0
  184.4930  173.9360  137.5890 C   0  0  0  0  0  3  0  0  0  0  0  0
  186.8370  178.1250  140.1980 C   0  0  2  0  0  3  0  0  0  0  0  0
  185.0150  177.4430  135.3450 O   0  0  0  0  0  0  0  0  0  0  0  0
  180.8900  178.0480  138.5520 O   0  0  0  0  0  0  0  0  0  0  0  0
  181.9880  178.7340  139.3150 S   0  0  0  0  0  0  0  0  0  0  0  0
  182.5230  178.4840  141.9580 C   0  0  2  0  0  3  0  0  0  0  0  0
  183.4470  177.6870  139.3590 C   0  0  2  0  0  3  0  0  0  0  0  0
  188.6150  178.2330  134.7110 C   0  0  0  0  0  1  0  0  0  0  0  0
  185.4440  178.5370  138.2770 C   0  0  1  0  0  3  0  0  0  0  0  0
  183.9120  178.9050  141.4900 C   0  0  0  0  0  2  0  0  0  0  0  0
  181.4710  179.0160  140.9950 C   0  0  0  0  0  2  0  0  0  0  0  0
  187.4290  177.7320  135.5060 C   0  0  1  0  0  3  0  0  0  0  0  0
  184.3740  176.3600  137.4070 C   0  0  0  0  0  0  0  0  0  0  0  0
  187.6150  177.9380  138.9170 C   0  0  2  0  0  3  0  0  0  0  0  0
  182.2620  179.0440  143.3400 C   0  0  0  0  0  1  0  0  0  0  0  0
  187.2060  178.6390  136.7120 C   0  0  0  0  0  2  0  0  0  0  0  0
  184.2280  175.1830  138.1610 C   0  0  0  0  0  3  0  0  0  0  0  0
  185.0870  175.0170  135.5080 C   0  0  0  0  0  3  0  0  0  0  0  0
  184.9220  173.8530  136.2620 C   0  0  0  0  0  3  0  0  0  0  0  0
  186.2020  177.6760  134.5940 C   0  0  0  0  0  2  0  0  0  0  0  0
  185.5260  178.7400  139.7770 C   0  0  1  0  0  3  0  0  0  0  0  0
  186.6600  177.8620  137.8200 N   0  0  2  0  0  0  0  0  0  0  0  0
  184.4200  178.0360  140.4180 N   0  0  2  0  0  0  0  0  0  0  0  0
  187.5180  179.0000  141.0440 O   0  0  0  0  0  1  0  0  0  0  0  0
  184.1660  177.7300  138.0240 C   0  0  1  0  0  3  0  0  0  0  0  0
  1 16  1  0  0  0  0
  2  8  2  0  0  0  0
  4 20  1  0  0  0  0
  5 27  1  1  0  0  0
  6  1  1  0  0  0  0
  7  8  2  0  0  0  0
  8 14  1  0  0  0  0
  9 18  1  1  0  0  0
 10  8  1  6  0  0  0
 10 26  1  0  0  0  0
 11 15  1  0  0  0  0
 12 24  1  0  0  0  0
 13  9  1  0  0  0  0
 14  9  1  0  0  0  0
 15 19  1  0  0  0  0
 16 28  1  0  0  0  0
 16 20  2  0  0  0  0
 17  3  1  0  0  0  0
 17  5  1  0  0  0  0
 19 25  1  0  0  0  0
 21  1  2  0  0  0  0
 21 22  1  0  0  0  0
 22  4  2  0  0  0  0
 23  6  1  0  0  0  0
 23 15  1  0  0  0  0
 24  5  1  0  0  0  0
 24 26  1  0  0  0  0
 25 12  1  0  0  0  0
 25 17  1  0  0  0  0
 26 13  1  0  0  0  0
 28 12  1  0  0  0  0
 28 10  1  0  0  0  0
M  END
>  <MODEL>
7

>  <REMARK>
 VINA RESULT:      -4.4      5.193      8.599
  Name = 
  0 active torsions:
  status: ('A' for Active; 'I' for Inactive)
                            x       y       z     vdW  Elec       q    Type
                         _______ _______ _______ _____ _____    ______ ____

>  <TORSDO>
F 0

$$$$
=
 OpenBabel11122412003D

 28 32  0  0  1  0  0  0  0  0999 V2000
  186.1600  175.4190  136.6760 C   0  0  0  0  0  0  0  0  0  0  0  0
  183.6750  177.4610  140.7910 O   0  0  0  0  0  0  0  0  0  0  0  0
  182.0740  174.5970  134.6110 C   0  0  0  0  0  1  0  0  0  0  0  0
  186.1760  177.4060  134.7050 C   0  0  0  0  0  3  0  0  0  0  0  0
  181.2360  175.9360  136.5160 C   0  0  2  0  0  3  0  0  0  0  0  0
  186.1090  174.4100  137.6410 O   0  0  0  0  0  0  0  0  0  0  0  0
  185.3060  179.0810  139.9250 O   0  0  0  0  0  0  0  0  0  0  0  0
  183.9060  178.5520  139.7840 S   0  0  0  0  0  0  0  0  0  0  0  0
  181.7400  179.9190  138.9060 C   0  0  2  0  0  3  0  0  0  0  0  0
  183.6530  177.9290  138.1190 C   0  0  2  0  0  3  0  0  0  0  0  0
  184.5680  171.2270  136.4270 C   0  0  0  0  0  1  0  0  0  0  0  0
  183.1770  175.5620  137.8910 C   0  0  1  0  0  3  0  0  0  0  0  0
  181.2650  178.5110  138.5660 C   0  0  0  0  0  2  0  0  0  0  0  0
  182.7340  179.8640  140.0560 C   0  0  0  0  0  2  0  0  0  0  0  0
  184.7320  172.7270  136.5430 C   0  0  1  0  0  3  0  0  0  0  0  0
  185.3040  176.5260  136.7980 C   0  0  0  0  0  0  0  0  0  0  0  0
  181.9380  174.6580  136.1220 C   0  0  2  0  0  3  0  0  0  0  0  0
  180.5550  180.7690  139.3120 C   0  0  0  0  0  1  0  0  0  0  0  0
  183.5110  173.3190  137.2410 C   0  0  0  0  0  2  0  0  0  0  0  0
  185.3120  177.5120  135.7960 C   0  0  0  0  0  3  0  0  0  0  0  0
  187.0190  175.3120  135.5740 C   0  0  0  0  0  3  0  0  0  0  0  0
  187.0310  176.3070  134.5940 C   0  0  0  0  0  3  0  0  0  0  0  0
  186.0290  173.0320  137.2970 C   0  0  0  0  0  2  0  0  0  0  0  0
  181.9000  176.3710  137.7980 C   0  0  1  0  0  3  0  0  0  0  0  0
  183.2580  174.6640  136.7360 N   0  0  2  0  0  0  0  0  0  0  0  0
  182.2330  177.7900  137.7250 N   0  0  2  0  0  0  0  0  0  0  0  0
  179.8840  175.6830  136.7460 O   0  0  0  0  0  1  0  0  0  0  0  0
  184.3230  176.5770  137.9550 C   0  0  1  0  0  3  0  0  0  0  0  0
  1 16  1  0  0  0  0
  1  6  1  0  0  0  0
  3 17  1  0  0  0  0
  4 20  1  0  0  0  0
  5 27  1  1  0  0  0
  5 24  1  0  0  0  0
  8  7  2  0  0  0  0
  8 14  1  0  0  0  0
  8  2  2  0  0  0  0
  9 18  1  1  0  0  0
  9 14  1  0  0  0  0
 10  8  1  1  0  0  0
 11 15  1  0  0  0  0
 12 28  1  0  0  0  0
 13  9  1  0  0  0  0
 15 19  1  0  0  0  0
 15 23  1  0  0  0  0
 16 28  1  0  0  0  0
 17  5  1  0  0  0  0
 17 25  1  0  0  0  0
 20 16  2  0  0  0  0
 21  1  2  0  0  0  0
 22  4  2  0  0  0  0
 22 21  1  0  0  0  0
 23  6  1  0  0  0  0
 24 12  1  0  0  0  0
 25 19  1  0  0  0  0
 25 12  1  0  0  0  0
 26 24  1  0  0  0  0
 26 10  1  0  0  0  0
 26 13  1  0  0  0  0
 28 10  1  0  0  0  0
M  END
>  <MODEL>
8

>  <REMARK>
 VINA RESULT:      -4.2      5.540      8.849
  Name = 
  0 active torsions:
  status: ('A' for Active; 'I' for Inactive)
                            x       y       z     vdW  Elec       q    Type
                         _______ _______ _______ _____ _____    ______ ____

>  <TORSDO>
F 0

$$$$
=
 OpenBabel11122412003D

 28 32  0  0  1  0  0  0  0  0999 V2000
  183.3290  177.0710  136.2920 C   0  0  0  0  0  0  0  0  0  0  0  0
  183.8800  177.5250  141.4650 O   0  0  0  0  0  0  0  0  0  0  0  0
  179.7050  174.2240  136.9240 C   0  0  0  0  0  1  0  0  0  0  0  0
  181.2180  178.7660  135.5770 C   0  0  0  0  0  3  0  0  0  0  0  0
  180.0020  174.9330  139.2750 C   0  0  2  0  0  3  0  0  0  0  0  0
  184.3490  176.1880  136.6550 O   0  0  0  0  0  0  0  0  0  0  0  0
  183.6640  179.7560  140.4600 O   0  0  0  0  0  0  0  0  0  0  0  0
  182.9100  178.5720  140.9960 S   0  0  0  0  0  0  0  0  0  0  0  0
  180.4540  178.5990  142.1370 C   0  0  2  0  0  3  0  0  0  0  0  0
  181.8380  177.9020  139.7200 C   0  0  2  0  0  3  0  0  0  0  0  0
  183.7710  172.6650  135.5430 C   0  0  0  0  0  1  0  0  0  0  0  0
  182.2870  175.6360  138.9840 C   0  0  1  0  0  3  0  0  0  0  0  0
  180.4620  177.1490  141.6640 C   0  0  0  0  0  2  0  0  0  0  0  0
  181.8810  179.0770  142.3580 C   0  0  0  0  0  2  0  0  0  0  0  0
  183.3830  174.0290  136.0710 C   0  0  1  0  0  3  0  0  0  0  0  0
  182.4680  177.5670  137.2860 C   0  0  0  0  0  0  0  0  0  0  0  0
  180.6450  174.2100  138.1160 C   0  0  2  0  0  3  0  0  0  0  0  0
  179.6860  178.7050  143.4370 C   0  0  0  0  0  1  0  0  0  0  0  0
  182.8930  173.8970  137.5100 C   0  0  0  0  0  2  0  0  0  0  0  0
  181.4040  178.4070  136.9130 C   0  0  0  0  0  3  0  0  0  0  0  0
  183.1330  177.4250  134.9500 C   0  0  0  0  0  3  0  0  0  0  0  0
  182.0830  178.2750  134.5950 C   0  0  0  0  0  3  0  0  0  0  0  0
  184.5840  174.9710  135.9570 C   0  0  0  0  0  2  0  0  0  0  0  0
  181.1310  175.6560  139.9640 C   0  0  1  0  0  3  0  0  0  0  0  0
  181.8780  174.9090  137.7800 N   0  0  2  0  0  0  0  0  0  0  0  0
  180.7470  177.0400  140.2260 N   0  0  2  0  0  0  0  0  0  0  0  0
  179.4280  174.0110  140.1500 O   0  0  0  0  0  1  0  0  0  0  0  0
  182.6480  177.1010  138.7180 C   0  0  1  0  0  3  0  0  0  0  0  0
  1  6  1  0  0  0  0
  1 16  1  0  0  0  0
  3 17  1  0  0  0  0
  4 20  1  0  0  0  0
  5 24  1  0  0  0  0
  5 27  1  1  0  0  0
  7  8  2  0  0  0  0
  8  2  2  0  0  0  0
  8 14  1  0  0  0  0
  9 14  1  0  0  0  0
  9 18  1  1  0  0  0
 10 26  1  0  0  0  0
 10  8  1  1  0  0  0
 11 15  1  0  0  0  0
 12 24  1  0  0  0  0
 13  9  1  0  0  0  0
 15 19  1  0  0  0  0
 16 28  1  0  0  0  0
 17  5  1  0  0  0  0
 19 25  1  0  0  0  0
 20 16  2  0  0  0  0
 21  1  2  0  0  0  0
 22 21  1  0  0  0  0
 22  4  2  0  0  0  0
 23 15  1  0  0  0  0
 23  6  1  0  0  0  0
 24 26  1  0  0  0  0
 25 17  1  0  0  0  0
 25 12  1  0  0  0  0
 26 13  1  0  0  0  0
 28 12  1  0  0  0  0
 28 10  1  0  0  0  0
M  END
>  <MODEL>
9

>  <REMARK>
 VINA RESULT:      -4.2      7.209     10.133
  Name = 
  0 active torsions:
  status: ('A' for Active; 'I' for Inactive)
                            x       y       z     vdW  Elec       q    Type
                         _______ _______ _______ _____ _____    ______ ____

>  <TORSDO>
F 0

$$$$
