=
 OpenBabel11122410243D

 30 35  0  0  1  0  0  0  0  0999 V2000
  189.2400  177.4910  143.3760 C   0  0  1  0  0  3  0  0  0  0  0  0
  191.1010  176.4050  144.7510 C   0  0  0  0  0  0  0  0  0  0  0  0
  187.1150  178.2100  146.9610 O   0  0  0  0  0  0  0  0  0  0  0  0
  187.9850  178.3860  143.4500 C   0  0  1  0  0  3  0  0  0  0  0  0
  190.1660  178.0460  142.3890 N   0  0  0  0  0  2  0  0  0  0  0  0
  187.5900  178.4670  139.7400 O   0  0  0  0  0  1  0  0  0  0  0  0
  184.7740  178.0820  142.7030 C   0  0  1  0  0  3  0  0  0  0  0  0
  188.1860  178.6620  140.9890 C   0  0  2  0  0  3  0  0  0  0  0  0
  184.7050  178.0540  144.2450 C   0  0  2  0  0  3  0  0  0  0  0  0
  185.8640  178.5300  146.4580 C   0  0  0  0  0  0  0  0  0  0  0  0
  189.5590  177.9530  141.0490 C   0  0  2  0  0  3  0  0  0  0  0  0
  187.2530  178.1990  142.1200 C   0  0  2  0  0  3  0  0  0  0  0  0
  191.6470  176.0170  145.9790 C   0  0  0  0  0  3  0  0  0  0  0  0
  183.3940  178.7280  144.6040 C   0  0  0  0  0  2  0  0  0  0  0  0
  183.4200  178.5590  142.2090 C   0  0  0  0  0  2  0  0  0  0  0  0
  191.7440  176.0240  143.5800 O   0  0  0  0  0  1  0  0  0  0  0  0
  188.0240  178.3010  145.8850 C   0  0  2  0  0  3  0  0  0  0  0  0
  191.0100  176.3540  147.1760 C   0  0  0  0  0  3  0  0  0  0  0  0
  189.9100  177.1570  144.7120 C   0  0  0  0  0  0  0  0  0  0  0  0
  187.1840  177.9770  144.6700 C   0  0  1  0  0  3  0  0  0  0  0  0
  184.8550  178.6960  147.1930 O   0  0  0  0  0  0  0  0  0  0  0  0
  185.8850  178.7110  144.9690 C   0  0  1  0  0  3  0  0  0  0  0  0
  182.4970  178.5240  143.4060 C   0  0  0  0  0  2  0  0  0  0  0  0
  185.9450  180.2200  142.5110 O   0  0  0  0  0  1  0  0  0  0  0  0
  189.8130  177.0700  147.1530 C   0  0  0  0  0  3  0  0  0  0  0  0
  189.2440  177.4430  145.9320 C   0  0  0  0  0  0  0  0  0  0  0  0
  185.8930  178.9030  142.0420 C   0  0  2  0  0  3  0  0  0  0  0  0
  189.4860  176.4990  140.5790 C   0  0  0  0  0  2  0  0  0  0  0  0
  190.6250  176.8940  138.7330 C   0  0  0  0  0  1  0  0  0  0  0  0
  190.6620  176.1550  139.9150 O   0  0  0  0  0  0  0  0  0  0  0  0
  1  5  1  6  0  0  0
  1  4  1  0  0  0  0
  1 19  1  0  0  0  0
  2 13  1  0  0  0  0
  4 20  1  0  0  0  0
  6  8  1  0  0  0  0
  7  9  1  0  0  0  0
  8 11  1  0  0  0  0
  8 12  1  0  0  0  0
  9 14  1  0  0  0  0
  9 22  1  0  0  0  0
 10  3  1  0  0  0  0
 10 21  2  0  0  0  0
 11  5  1  0  0  0  0
 12  4  1  0  0  0  0
 13 18  2  0  0  0  0
 15  7  1  0  0  0  0
 15 23  1  0  0  0  0
 16  2  1  0  0  0  0
 17 26  1  0  0  0  0
 17  3  1  0  0  0  0
 19  2  2  0  0  0  0
 19 26  1  0  0  0  0
 20 22  1  0  0  0  0
 20 17  1  0  0  0  0
 22 10  1  0  0  0  0
 23 14  1  0  0  0  0
 25 18  1  0  0  0  0
 26 25  2  0  0  0  0
 27 12  1  0  0  0  0
 27 24  1  0  0  0  0
 27  7  1  0  0  0  0
 28 11  1  0  0  0  0
 29 30  1  0  0  0  0
 30 28  1  0  0  0  0
M  END
>  <MODEL>
1

>  <REMARK>
 VINA RESULT:     -10.5      0.000      0.000
  Name = 
  2 active torsions:
  status: ('A' for Active; 'I' for Inactive)
    1  A    between atoms: C_11  and  C_28
    2  A    between atoms: C_28  and  O_30
                            x       y       z     vdW  Elec       q    Type
                         _______ _______ _______ _____ _____    ______ ____

>  <TORSDO>
F 2

$$$$
=
 OpenBabel11122410243D

 30 35  0  0  1  0  0  0  0  0999 V2000
  188.2560  177.8040  144.0090 C   0  0  1  0  0  3  0  0  0  0  0  0
  189.3620  177.1130  146.2080 C   0  0  0  0  0  0  0  0  0  0  0  0
  184.7760  178.8470  146.1750 O   0  0  0  0  0  0  0  0  0  0  0  0
  187.0750  178.5800  143.3890 C   0  0  1  0  0  3  0  0  0  0  0  0
  189.5060  178.2910  143.4250 N   0  0  0  0  0  2  0  0  0  0  0  0
  188.3200  178.0720  139.9080 O   0  0  0  0  0  1  0  0  0  0  0  0
  184.5100  177.8710  141.4200 C   0  0  1  0  0  3  0  0  0  0  0  0
  188.3140  178.5050  141.2360 C   0  0  2  0  0  3  0  0  0  0  0  0
  183.7810  178.0660  142.7670 C   0  0  2  0  0  3  0  0  0  0  0  0
  183.8600  178.9710  145.1430 C   0  0  0  0  0  0  0  0  0  0  0  0
  189.5400  177.9430  141.9940 C   0  0  2  0  0  3  0  0  0  0  0  0
  186.9940  178.1300  141.9280 C   0  0  2  0  0  3  0  0  0  0  0  0
  189.3300  176.9640  147.5980 C   0  0  0  0  0  3  0  0  0  0  0  0
  182.4300  178.6600  142.4150 C   0  0  0  0  0  2  0  0  0  0  0  0
  183.4930  178.1400  140.3250 C   0  0  0  0  0  2  0  0  0  0  0  0
  190.4550  176.6240  145.5030 O   0  0  0  0  0  1  0  0  0  0  0  0
  186.0590  178.8610  145.5860 C   0  0  2  0  0  3  0  0  0  0  0  0
  188.2330  177.4140  148.3340 C   0  0  0  0  0  3  0  0  0  0  0  0
  188.2890  177.7370  145.5380 C   0  0  0  0  0  0  0  0  0  0  0  0
  185.8340  178.2840  144.2060 C   0  0  1  0  0  3  0  0  0  0  0  0
  182.6290  179.1490  145.3410 O   0  0  0  0  0  0  0  0  0  0  0  0
  184.5180  178.9300  143.7960 C   0  0  1  0  0  3  0  0  0  0  0  0
  182.1440  178.1980  141.0060 C   0  0  0  0  0  2  0  0  0  0  0  0
  185.6050  180.0560  141.3710 O   0  0  0  0  0  1  0  0  0  0  0  0
  187.1490  178.0050  147.6840 C   0  0  0  0  0  3  0  0  0  0  0  0
  187.1560  178.1370  146.2920 C   0  0  0  0  0  0  0  0  0  0  0  0
  185.7870  178.6850  141.1620 C   0  0  2  0  0  3  0  0  0  0  0  0
  189.7070  176.4350  141.7980 C   0  0  0  0  0  2  0  0  0  0  0  0
  191.5760  177.1610  140.8820 C   0  0  0  0  0  1  0  0  0  0  0  0
  190.5890  176.1870  140.7470 O   0  0  0  0  0  0  0  0  0  0  0  0
  1  5  1  1  0  0  0
  1 19  1  0  0  0  0
  2 13  1  0  0  0  0
  4  1  1  0  0  0  0
  4 20  1  0  0  0  0
  6  8  1  0  0  0  0
  7  9  1  0  0  0  0
  8 12  1  0  0  0  0
  8 11  1  0  0  0  0
  9 22  1  0  0  0  0
 10 21  2  0  0  0  0
 10  3  1  0  0  0  0
 11  5  1  0  0  0  0
 12  4  1  0  0  0  0
 13 18  2  0  0  0  0
 14  9  1  0  0  0  0
 15 23  1  0  0  0  0
 15  7  1  0  0  0  0
 16  2  1  0  0  0  0
 17  3  1  0  0  0  0
 17 26  1  0  0  0  0
 19  2  2  0  0  0  0
 19 26  1  0  0  0  0
 20 17  1  0  0  0  0
 22 20  1  0  0  0  0
 22 10  1  0  0  0  0
 23 14  1  0  0  0  0
 25 18  1  0  0  0  0
 26 25  2  0  0  0  0
 27 24  1  0  0  0  0
 27  7  1  0  0  0  0
 27 12  1  0  0  0  0
 28 11  1  0  0  0  0
 30 29  1  0  0  0  0
 30 28  1  0  0  0  0
M  END
>  <MODEL>
2

>  <REMARK>
 VINA RESULT:      -9.8      1.358      1.950
  Name = 
  2 active torsions:
  status: ('A' for Active; 'I' for Inactive)
    1  A    between atoms: C_11  and  C_28
    2  A    between atoms: C_28  and  O_30
                            x       y       z     vdW  Elec       q    Type
                         _______ _______ _______ _____ _____    ______ ____

>  <TORSDO>
F 2

$$$$
=
 OpenBabel11122410243D

 30 35  0  0  1  0  0  0  0  0999 V2000
  187.4710  177.9510  142.4800 C   0  0  1  0  0  3  0  0  0  0  0  0
  188.5680  177.3380  144.7060 C   0  0  0  0  0  0  0  0  0  0  0  0
  183.8610  178.6990  144.5520 O   0  0  0  0  0  0  0  0  0  0  0  0
  186.2490  178.6330  141.8300 C   0  0  1  0  0  3  0  0  0  0  0  0
  188.6940  178.5400  141.9330 N   0  0  0  0  0  2  0  0  0  0  0  0
  187.6260  178.2470  138.3830 O   0  0  0  0  0  1  0  0  0  0  0  0
  183.8040  177.7320  139.7880 C   0  0  1  0  0  3  0  0  0  0  0  0
  187.5480  178.6700  139.7120 C   0  0  2  0  0  3  0  0  0  0  0  0
  183.0250  177.8610  141.1150 C   0  0  2  0  0  3  0  0  0  0  0  0
  182.9660  178.7560  143.4950 C   0  0  0  0  0  0  0  0  0  0  0  0
  188.7940  178.2040  140.5010 C   0  0  2  0  0  3  0  0  0  0  0  0
  186.2440  178.1860  140.3660 C   0  0  2  0  0  3  0  0  0  0  0  0
  188.5110  177.1790  146.0940 C   0  0  0  0  0  3  0  0  0  0  0  0
  181.6410  178.3470  140.7280 C   0  0  0  0  0  2  0  0  0  0  0  0
  182.7990  177.9260  138.6670 C   0  0  0  0  0  2  0  0  0  0  0  0
  189.7160  176.9420  144.0310 O   0  0  0  0  0  1  0  0  0  0  0  0
  185.1540  178.8190  143.9990 C   0  0  2  0  0  3  0  0  0  0  0  0
  187.3610  177.5360  146.8020 C   0  0  0  0  0  3  0  0  0  0  0  0
  187.4680  177.8780  144.0090 C   0  0  0  0  0  0  0  0  0  0  0  0
  185.0140  178.2340  142.6120 C   0  0  1  0  0  3  0  0  0  0  0  0
  181.7200  178.8330  143.6600 O   0  0  0  0  0  0  0  0  0  0  0  0
  183.6620  178.7750  142.1670 C   0  0  1  0  0  3  0  0  0  0  0  0
  181.4310  177.8710  139.3100 C   0  0  0  0  0  2  0  0  0  0  0  0
  184.7210  179.9980  139.7780 O   0  0  0  0  0  1  0  0  0  0  0  0
  186.2510  178.0410  146.1230 C   0  0  0  0  0  3  0  0  0  0  0  0
  186.2860  178.1810  144.7320 C   0  0  0  0  0  0  0  0  0  0  0  0
  185.0180  178.6470  139.5690 C   0  0  2  0  0  3  0  0  0  0  0  0
  189.0870  176.7160  140.3050 C   0  0  0  0  0  2  0  0  0  0  0  0
  191.2150  177.0820  139.8580 C   0  0  0  0  0  1  0  0  0  0  0  0
  190.3740  176.4210  140.7530 O   0  0  0  0  0  0  0  0  0  0  0  0
  1  5  1  1  0  0  0
  1 19  1  0  0  0  0
  2 13  1  0  0  0  0
  4  1  1  0  0  0  0
  4 20  1  0  0  0  0
  6  8  1  0  0  0  0
  7  9  1  0  0  0  0
  8 12  1  0  0  0  0
  8 11  1  0  0  0  0
  9 22  1  0  0  0  0
 10 21  2  0  0  0  0
 10  3  1  0  0  0  0
 11  5  1  0  0  0  0
 12  4  1  0  0  0  0
 13 18  2  0  0  0  0
 14  9  1  0  0  0  0
 15 23  1  0  0  0  0
 15  7  1  0  0  0  0
 16  2  1  0  0  0  0
 17  3  1  0  0  0  0
 17 26  1  0  0  0  0
 19  2  2  0  0  0  0
 19 26  1  0  0  0  0
 20 17  1  0  0  0  0
 22 20  1  0  0  0  0
 22 10  1  0  0  0  0
 23 14  1  0  0  0  0
 25 18  1  0  0  0  0
 26 25  2  0  0  0  0
 27 24  1  0  0  0  0
 27  7  1  0  0  0  0
 27 12  1  0  0  0  0
 28 11  1  0  0  0  0
 28 30  1  0  0  0  0
 29 30  1  0  0  0  0
M  END
>  <MODEL>
3

>  <REMARK>
 VINA RESULT:      -9.5      1.928      3.018
  Name = 
  2 active torsions:
  status: ('A' for Active; 'I' for Inactive)
    1  A    between atoms: C_11  and  C_28
    2  A    between atoms: C_28  and  O_30
                            x       y       z     vdW  Elec       q    Type
                         _______ _______ _______ _____ _____    ______ ____

>  <TORSDO>
F 2

$$$$
=
 OpenBabel11122410243D

 30 35  0  0  1  0  0  0  0  0999 V2000
  188.0660  177.8230  142.7480 C   0  0  1  0  0  3  0  0  0  0  0  0
  186.8640  177.8060  145.0050 C   0  0  0  0  0  0  0  0  0  0  0  0
  184.5170  179.2660  140.9550 O   0  0  0  0  0  0  0  0  0  0  0  0
  188.0040  178.3480  141.2980 C   0  0  1  0  0  3  0  0  0  0  0  0
  189.3570  178.1860  143.3330 N   0  0  0  0  0  2  0  0  0  0  0  0
  191.3640  176.9640  140.4500 O   0  0  0  0  0  1  0  0  0  0  0  0
  187.8880  177.0180  138.2690 C   0  0  1  0  0  3  0  0  0  0  0  0
  190.4060  177.7420  141.1050 C   0  0  2  0  0  3  0  0  0  0  0  0
  186.4410  177.5420  138.3990 C   0  0  2  0  0  3  0  0  0  0  0  0
  184.8060  179.0640  139.6160 C   0  0  0  0  0  0  0  0  0  0  0  0
  190.4290  177.4620  142.6260 C   0  0  2  0  0  3  0  0  0  0  0  0
  189.0100  177.5140  140.5030 C   0  0  2  0  0  3  0  0  0  0  0  0
  185.7300  178.0410  145.7870 C   0  0  0  0  0  3  0  0  0  0  0  0
  186.0340  177.9590  136.9980 C   0  0  0  0  0  2  0  0  0  0  0  0
  188.1950  176.9350  136.7840 C   0  0  0  0  0  2  0  0  0  0  0  0
  187.9670  177.1910  145.5860 O   0  0  0  0  0  1  0  0  0  0  0  0
  185.7400  179.1740  141.6560 C   0  0  2  0  0  3  0  0  0  0  0  0
  184.5920  178.6270  145.2280 C   0  0  0  0  0  3  0  0  0  0  0  0
  186.8760  178.1770  143.6440 C   0  0  0  0  0  0  0  0  0  0  0  0
  186.5720  178.2330  140.8150 C   0  0  1  0  0  3  0  0  0  0  0  0
  183.9580  179.2360  138.7010 O   0  0  0  0  0  0  0  0  0  0  0  0
  186.2420  178.6850  139.3990 C   0  0  1  0  0  3  0  0  0  0  0  0
  186.8760  177.1180  136.0680 C   0  0  0  0  0  2  0  0  0  0  0  0
  189.0010  179.1530  138.6970 O   0  0  0  0  0  1  0  0  0  0  0  0
  184.5760  178.9710  143.8750 C   0  0  0  0  0  3  0  0  0  0  0  0
  185.6940  178.7180  143.0760 C   0  0  0  0  0  0  0  0  0  0  0  0
  189.0040  177.7860  138.9940 C   0  0  2  0  0  3  0  0  0  0  0  0
  190.3860  175.9670  142.9450 C   0  0  0  0  0  2  0  0  0  0  0  0
  191.5530  176.1820  144.8030 C   0  0  0  0  0  1  0  0  0  0  0  0
  191.5800  175.5750  143.5490 O   0  0  0  0  0  0  0  0  0  0  0  0
  1  5  1  1  0  0  0
  1 19  1  0  0  0  0
  2 16  1  0  0  0  0
  2 13  1  0  0  0  0
  3 17  1  0  0  0  0
  4  1  1  0  0  0  0
  6  8  1  0  0  0  0
  7  9  1  0  0  0  0
  7 27  1  0  0  0  0
  8 11  1  0  0  0  0
  9 22  1  0  0  0  0
 10  3  1  0  0  0  0
 11 28  1  0  0  0  0
 11  5  1  0  0  0  0
 12  8  1  0  0  0  0
 12  4  1  0  0  0  0
 14  9  1  0  0  0  0
 15  7  1  0  0  0  0
 17 26  1  0  0  0  0
 18 13  2  0  0  0  0
 19  2  2  0  0  0  0
 20  4  1  0  0  0  0
 20 17  1  0  0  0  0
 21 10  2  0  0  0  0
 22 10  1  0  0  0  0
 22 20  1  0  0  0  0
 23 15  1  0  0  0  0
 23 14  1  0  0  0  0
 24 27  1  0  0  0  0
 25 18  1  0  0  0  0
 26 19  1  0  0  0  0
 26 25  2  0  0  0  0
 27 12  1  0  0  0  0
 28 30  1  0  0  0  0
 30 29  1  0  0  0  0
M  END
>  <MODEL>
4

>  <REMARK>
 VINA RESULT:      -9.0      2.121      5.318
  Name = 
  2 active torsions:
  status: ('A' for Active; 'I' for Inactive)
    1  A    between atoms: C_11  and  C_28
    2  A    between atoms: C_28  and  O_30
                            x       y       z     vdW  Elec       q    Type
                         _______ _______ _______ _____ _____    ______ ____

>  <TORSDO>
F 2

$$$$
=
 OpenBabel11122410243D

 30 35  0  0  1  0  0  0  0  0999 V2000
  186.5910  178.2240  142.6910 C   0  0  1  0  0  3  0  0  0  0  0  0
  187.0690  177.8430  145.1740 C   0  0  0  0  0  0  0  0  0  0  0  0
  182.5470  178.9850  143.6630 O   0  0  0  0  0  0  0  0  0  0  0  0
  185.5730  178.7970  141.6830 C   0  0  1  0  0  3  0  0  0  0  0  0
  187.9040  178.8170  142.4340 N   0  0  0  0  0  2  0  0  0  0  0  0
  187.8250  178.1870  138.7700 O   0  0  0  0  0  1  0  0  0  0  0  0
  183.7770  177.6270  139.1610 C   0  0  1  0  0  3  0  0  0  0  0  0
  187.3880  178.7150  139.9880 C   0  0  2  0  0  3  0  0  0  0  0  0
  182.6710  177.8310  140.2190 C   0  0  2  0  0  3  0  0  0  0  0  0
  181.9640  178.9160  142.4080 C   0  0  0  0  0  0  0  0  0  0  0  0
  188.3880  178.3690  141.1160 C   0  0  2  0  0  3  0  0  0  0  0  0
  185.9670  178.2310  140.3170 C   0  0  2  0  0  3  0  0  0  0  0  0
  186.6470  177.7970  146.5060 C   0  0  0  0  0  3  0  0  0  0  0  0
  181.4310  178.2240  139.4380 C   0  0  0  0  0  2  0  0  0  0  0  0
  183.1030  177.6850  137.8010 C   0  0  0  0  0  2  0  0  0  0  0  0
  188.3620  177.4430  144.8630 O   0  0  0  0  0  1  0  0  0  0  0  0
  183.9380  179.1140  143.4610 C   0  0  2  0  0  3  0  0  0  0  0  0
  185.3440  178.1610  146.8510 C   0  0  0  0  0  3  0  0  0  0  0  0
  186.1830  178.2760  144.1660 C   0  0  0  0  0  0  0  0  0  0  0  0
  184.1830  178.4110  142.1450 C   0  0  1  0  0  3  0  0  0  0  0  0
  180.7180  178.9530  142.2310 O   0  0  0  0  0  0  0  0  0  0  0  0
  182.9880  178.8550  141.3130 C   0  0  1  0  0  3  0  0  0  0  0  0
  181.6150  177.6250  138.0640 C   0  0  0  0  0  2  0  0  0  0  0  0
  184.6200  179.9220  139.1860 O   0  0  0  0  0  1  0  0  0  0  0  0
  184.4450  178.5610  145.8610 C   0  0  0  0  0  3  0  0  0  0  0  0
  184.8460  178.5880  144.5220 C   0  0  0  0  0  0  0  0  0  0  0  0
  184.9880  178.5720  139.1870 C   0  0  2  0  0  3  0  0  0  0  0  0
  188.7520  176.8830  141.1400 C   0  0  0  0  0  2  0  0  0  0  0  0
  190.5340  176.3530  142.3230 C   0  0  0  0  0  1  0  0  0  0  0  0
  190.1340  176.7300  141.0430 O   0  0  0  0  0  0  0  0  0  0  0  0
  1  5  1  1  0  0  0
  1 19  1  0  0  0  0
  2 13  1  0  0  0  0
  4 20  1  0  0  0  0
  4  1  1  0  0  0  0
  6  8  1  0  0  0  0
  7 27  1  0  0  0  0
  7  9  1  0  0  0  0
  8 12  1  0  0  0  0
  8 11  1  0  0  0  0
  9 22  1  0  0  0  0
 10  3  1  0  0  0  0
 11 28  1  0  0  0  0
 11  5  1  0  0  0  0
 12  4  1  0  0  0  0
 13 18  2  0  0  0  0
 14  9  1  0  0  0  0
 15 23  1  0  0  0  0
 15  7  1  0  0  0  0
 16  2  1  0  0  0  0
 17  3  1  0  0  0  0
 17 26  1  0  0  0  0
 19 26  1  0  0  0  0
 19  2  2  0  0  0  0
 20 17  1  0  0  0  0
 21 10  2  0  0  0  0
 22 20  1  0  0  0  0
 22 10  1  0  0  0  0
 23 14  1  0  0  0  0
 24 27  1  0  0  0  0
 25 18  1  0  0  0  0
 26 25  2  0  0  0  0
 27 12  1  0  0  0  0
 30 28  1  0  0  0  0
 30 29  1  0  0  0  0
M  END
>  <MODEL>
5

>  <REMARK>
 VINA RESULT:      -8.8      2.377      4.164
  Name = 
  2 active torsions:
  status: ('A' for Active; 'I' for Inactive)
    1  A    between atoms: C_11  and  C_28
    2  A    between atoms: C_28  and  O_30
                            x       y       z     vdW  Elec       q    Type
                         _______ _______ _______ _____ _____    ______ ____

>  <TORSDO>
F 2

$$$$
=
 OpenBabel11122410243D

 30 35  0  0  1  0  0  0  0  0999 V2000
  187.0910  178.1520  140.6370 C   0  0  1  0  0  3  0  0  0  0  0  0
  184.8090  179.0850  139.9580 C   0  0  0  0  0  0  0  0  0  0  0  0
  185.6520  177.7130  144.5890 O   0  0  0  0  0  0  0  0  0  0  0  0
  187.8550  177.3820  141.7340 C   0  0  1  0  0  3  0  0  0  0  0  0
  187.3070  177.4910  139.3490 N   0  0  0  0  0  2  0  0  0  0  0  0
  191.0000  177.2620  139.7280 O   0  0  0  0  0  1  0  0  0  0  0  0
  190.4290  177.9750  143.7300 C   0  0  1  0  0  3  0  0  0  0  0  0
  189.6620  177.0370  140.0630 C   0  0  2  0  0  3  0  0  0  0  0  0
  189.2680  178.0410  144.7450 C   0  0  2  0  0  3  0  0  0  0  0  0
  186.8390  177.5030  145.2720 C   0  0  0  0  0  0  0  0  0  0  0  0
  188.7270  177.6140  138.9740 C   0  0  2  0  0  3  0  0  0  0  0  0
  189.3420  177.6110  141.4530 C   0  0  2  0  0  3  0  0  0  0  0  0
  183.4940  179.4440  140.2690 C   0  0  0  0  0  3  0  0  0  0  0  0
  189.8360  177.5030  146.0450 C   0  0  0  0  0  2  0  0  0  0  0  0
  191.6810  177.6190  144.5120 C   0  0  0  0  0  2  0  0  0  0  0  0
  185.3060  179.3780  138.6940 O   0  0  0  0  0  1  0  0  0  0  0  0
  185.9280  177.5140  143.2190 C   0  0  2  0  0  3  0  0  0  0  0  0
  182.9730  179.1940  141.5400 C   0  0  0  0  0  3  0  0  0  0  0  0
  185.6170  178.4480  140.9230 C   0  0  0  0  0  0  0  0  0  0  0  0
  187.3860  177.8910  143.0820 C   0  0  1  0  0  3  0  0  0  0  0  0
  186.9030  177.4490  146.5280 O   0  0  0  0  0  0  0  0  0  0  0  0
  187.9960  177.2900  144.3410 C   0  0  1  0  0  3  0  0  0  0  0  0
  191.3210  177.7660  145.9740 C   0  0  0  0  0  2  0  0  0  0  0  0
  189.9410  175.7320  142.8880 O   0  0  0  0  0  1  0  0  0  0  0  0
  183.7690  178.5940  142.5170 C   0  0  0  0  0  3  0  0  0  0  0  0
  185.0930  178.2530  142.2270 C   0  0  0  0  0  0  0  0  0  0  0  0
  190.2820  177.0380  142.5210 C   0  0  2  0  0  3  0  0  0  0  0  0
  189.0760  179.0580  138.6100 C   0  0  0  0  0  2  0  0  0  0  0  0
  189.0560  178.3520  136.5220 C   0  0  0  0  0  1  0  0  0  0  0  0
  188.5710  179.3650  137.3470 O   0  0  0  0  0  0  0  0  0  0  0  0
  1  5  1  6  0  0  0
  1 19  1  0  0  0  0
  1  4  1  0  0  0  0
  2 13  2  0  0  0  0
  2 19  1  0  0  0  0
  3 10  1  0  0  0  0
  4 20  1  0  0  0  0
  6  8  1  0  0  0  0
  7 15  1  0  0  0  0
  7  9  1  0  0  0  0
  8 12  1  0  0  0  0
  9 14  1  0  0  0  0
 10 21  2  0  0  0  0
 11  5  1  0  0  0  0
 11  8  1  0  0  0  0
 12  4  1  0  0  0  0
 12 27  1  0  0  0  0
 13 18  1  0  0  0  0
 15 23  1  0  0  0  0
 16  2  1  0  0  0  0
 17  3  1  0  0  0  0
 18 25  2  0  0  0  0
 19 26  2  0  0  0  0
 20 17  1  0  0  0  0
 20 22  1  0  0  0  0
 22  9  1  0  0  0  0
 22 10  1  0  0  0  0
 23 14  1  0  0  0  0
 26 25  1  0  0  0  0
 26 17  1  0  0  0  0
 27 24  1  0  0  0  0
 27  7  1  0  0  0  0
 28 11  1  0  0  0  0
 29 30  1  0  0  0  0
 30 28  1  0  0  0  0
M  END
>  <MODEL>
6

>  <REMARK>
 VINA RESULT:      -8.6      1.813      5.626
  Name = 
  2 active torsions:
  status: ('A' for Active; 'I' for Inactive)
    1  A    between atoms: C_11  and  C_28
    2  A    between atoms: C_28  and  O_30
                            x       y       z     vdW  Elec       q    Type
                         _______ _______ _______ _____ _____    ______ ____

>  <TORSDO>
F 2

$$$$
=
 OpenBabel11122410243D

 30 35  0  0  1  0  0  0  0  0999 V2000
  186.9830  177.8550  139.5500 C   0  0  1  0  0  3  0  0  0  0  0  0
  188.6950  176.7320  138.0180 C   0  0  0  0  0  0  0  0  0  0  0  0
  189.8050  177.6940  142.6950 O   0  0  0  0  0  0  0  0  0  0  0  0
  186.7940  178.5900  140.8930 C   0  0  1  0  0  3  0  0  0  0  0  0
  186.4180  178.6710  138.4750 N   0  0  0  0  0  2  0  0  0  0  0  0
  183.1940  179.3010  140.2170 O   0  0  0  0  0  1  0  0  0  0  0  0
  185.0610  178.1020  143.6710 C   0  0  1  0  0  3  0  0  0  0  0  0
  184.5800  179.3260  140.0400 C   0  0  2  0  0  3  0  0  0  0  0  0
  186.4860  177.7890  144.1740 C   0  0  2  0  0  3  0  0  0  0  0  0
  188.9930  177.9710  143.7830 C   0  0  0  0  0  0  0  0  0  0  0  0
  184.9580  178.7610  138.6510 C   0  0  2  0  0  3  0  0  0  0  0  0
  185.2910  178.5730  141.1760 C   0  0  2  0  0  3  0  0  0  0  0  0
  189.9630  176.1860  137.7950 C   0  0  0  0  0  3  0  0  0  0  0  0
  186.5160  178.2490  145.6190 C   0  0  0  0  0  2  0  0  0  0  0  0
  184.2470  178.5210  144.8820 C   0  0  0  0  0  2  0  0  0  0  0  0
  187.7360  176.6370  137.0170 O   0  0  0  0  0  1  0  0  0  0  0  0
  189.0850  178.0690  141.5410 C   0  0  2  0  0  3  0  0  0  0  0  0
  190.9410  176.2340  138.7910 C   0  0  0  0  0  3  0  0  0  0  0  0
  188.3980  177.3550  139.2480 C   0  0  0  0  0  0  0  0  0  0  0  0
  187.6370  177.8870  141.9380 C   0  0  1  0  0  3  0  0  0  0  0  0
  189.3970  177.8980  144.9730 O   0  0  0  0  0  0  0  0  0  0  0  0
  187.6240  178.4190  143.3650 C   0  0  1  0  0  3  0  0  0  0  0  0
  185.0840  178.1760  146.0940 C   0  0  0  0  0  2  0  0  0  0  0  0
  185.5440  180.3470  142.8320 O   0  0  0  0  0  1  0  0  0  0  0  0
  190.6530  176.8180  140.0250 C   0  0  0  0  0  3  0  0  0  0  0  0
  189.3820  177.3450  140.2700 C   0  0  0  0  0  0  0  0  0  0  0  0
  184.9000  179.1380  142.5470 C   0  0  2  0  0  3  0  0  0  0  0  0
  184.2860  177.4160  138.3650 C   0  0  0  0  0  2  0  0  0  0  0  0
  184.3180  175.7140  136.9650 C   0  0  0  0  0  1  0  0  0  0  0  0
  184.4030  177.1040  137.0120 O   0  0  0  0  0  0  0  0  0  0  0  0
  1  5  1  6  0  0  0
  1  4  1  0  0  0  0
  2 19  1  0  0  0  0
  3 10  1  0  0  0  0
  4 12  1  0  0  0  0
  4 20  1  0  0  0  0
  5 11  1  0  0  0  0
  7  9  1  0  0  0  0
  7 15  1  0  0  0  0
  8  6  1  0  0  0  0
  8 12  1  0  0  0  0
  9 14  1  0  0  0  0
 10 21  2  0  0  0  0
 11  8  1  0  0  0  0
 12 27  1  0  0  0  0
 13  2  2  0  0  0  0
 13 18  1  0  0  0  0
 14 23  1  0  0  0  0
 15 23  1  0  0  0  0
 16  2  1  0  0  0  0
 17 20  1  0  0  0  0
 17  3  1  0  0  0  0
 18 25  2  0  0  0  0
 19  1  1  0  0  0  0
 19 26  2  0  0  0  0
 20 22  1  0  0  0  0
 22 10  1  0  0  0  0
 22  9  1  0  0  0  0
 25 26  1  0  0  0  0
 26 17  1  0  0  0  0
 27 24  1  0  0  0  0
 27  7  1  0  0  0  0
 28 11  1  0  0  0  0
 29 30  1  0  0  0  0
 30 28  1  0  0  0  0
M  END
>  <MODEL>
7

>  <REMARK>
 VINA RESULT:      -8.2      2.507      5.027
  Name = 
  2 active torsions:
  status: ('A' for Active; 'I' for Inactive)
    1  A    between atoms: C_11  and  C_28
    2  A    between atoms: C_28  and  O_30
                            x       y       z     vdW  Elec       q    Type
                         _______ _______ _______ _____ _____    ______ ____

>  <TORSDO>
F 2

$$$$
=
 OpenBabel11122410243D

 30 35  0  0  1  0  0  0  0  0999 V2000
  187.9330  177.6610  140.4700 C   0  0  1  0  0  3  0  0  0  0  0  0
  189.7170  176.7610  142.0640 C   0  0  0  0  0  0  0  0  0  0  0  0
  185.4380  178.4040  143.8030 O   0  0  0  0  0  0  0  0  0  0  0  0
  186.6260  178.4770  140.3830 C   0  0  1  0  0  3  0  0  0  0  0  0
  188.9130  178.2300  139.5450 N   0  0  0  0  0  2  0  0  0  0  0  0
  186.5800  178.3640  136.6530 O   0  0  0  0  0  1  0  0  0  0  0  0
  183.5240  177.9330  139.3600 C   0  0  1  0  0  3  0  0  0  0  0  0
  187.0420  178.6530  137.9400 C   0  0  2  0  0  3  0  0  0  0  0  0
  183.3110  177.9710  140.8890 C   0  0  2  0  0  3  0  0  0  0  0  0
  184.2240  178.6200  143.1720 C   0  0  0  0  0  0  0  0  0  0  0  0
  188.4430  178.0370  138.1620 C   0  0  2  0  0  3  0  0  0  0  0  0
  186.0350  178.1820  139.0020 C   0  0  2  0  0  3  0  0  0  0  0  0
  190.1660  176.4650  143.3550 C   0  0  0  0  0  3  0  0  0  0  0  0
  181.9330  178.5740  141.0910 C   0  0  0  0  0  2  0  0  0  0  0  0
  182.1970  178.2990  138.7200 C   0  0  0  0  0  2  0  0  0  0  0  0
  190.4900  176.3700  140.9780 O   0  0  0  0  0  1  0  0  0  0  0  0
  186.4380  178.5040  142.8120 C   0  0  2  0  0  3  0  0  0  0  0  0
  189.4000  176.8140  144.4690 C   0  0  0  0  0  3  0  0  0  0  0  0
  188.4910  177.4320  141.8770 C   0  0  0  0  0  0  0  0  0  0  0  0
  185.7380  178.0720  141.5430 C   0  0  1  0  0  3  0  0  0  0  0  0
  183.1410  178.7540  143.8010 O   0  0  0  0  0  0  0  0  0  0  0  0
  184.3750  178.7340  141.6840 C   0  0  1  0  0  3  0  0  0  0  0  0
  181.1680  178.2590  139.8270 C   0  0  0  0  0  2  0  0  0  0  0  0
  184.5770  180.1310  139.1670 O   0  0  0  0  0  1  0  0  0  0  0  0
  188.1690  177.4510  144.3000 C   0  0  0  0  0  3  0  0  0  0  0  0
  187.6970  177.7300  143.0140 C   0  0  0  0  0  0  0  0  0  0  0  0
  184.6490  178.7930  138.7640 C   0  0  2  0  0  3  0  0  0  0  0  0
  188.5020  176.5610  137.7620 C   0  0  0  0  0  2  0  0  0  0  0  0
  189.7510  174.7880  137.3690 C   0  0  0  0  0  1  0  0  0  0  0  0
  189.8300  176.1450  137.6780 O   0  0  0  0  0  0  0  0  0  0  0  0
  1  5  1  6  0  0  0
  1 19  1  0  0  0  0
  2 13  1  0  0  0  0
  4  1  1  0  0  0  0
  4 20  1  0  0  0  0
  6  8  1  0  0  0  0
  7  9  1  0  0  0  0
  8 11  1  0  0  0  0
  8 12  1  0  0  0  0
  9 14  1  0  0  0  0
  9 22  1  0  0  0  0
 10 21  2  0  0  0  0
 10  3  1  0  0  0  0
 11  5  1  0  0  0  0
 12  4  1  0  0  0  0
 13 18  2  0  0  0  0
 15  7  1  0  0  0  0
 15 23  1  0  0  0  0
 16  2  1  0  0  0  0
 17 26  1  0  0  0  0
 17  3  1  0  0  0  0
 19  2  2  0  0  0  0
 19 26  1  0  0  0  0
 20 22  1  0  0  0  0
 20 17  1  0  0  0  0
 22 10  1  0  0  0  0
 23 14  1  0  0  0  0
 25 18  1  0  0  0  0
 26 25  2  0  0  0  0
 27 12  1  0  0  0  0
 27 24  1  0  0  0  0
 27  7  1  0  0  0  0
 28 11  1  0  0  0  0
 29 30  1  0  0  0  0
 30 28  1  0  0  0  0
M  END
>  <MODEL>
8

>  <REMARK>
 VINA RESULT:      -8.2      2.329      3.346
  Name = 
  2 active torsions:
  status: ('A' for Active; 'I' for Inactive)
    1  A    between atoms: C_11  and  C_28
    2  A    between atoms: C_28  and  O_30
                            x       y       z     vdW  Elec       q    Type
                         _______ _______ _______ _____ _____    ______ ____

>  <TORSDO>
F 2

$$$$
=
 OpenBabel11122410243D

 30 35  0  0  1  0  0  0  0  0999 V2000
  187.2420  178.1060  141.5610 C   0  0  1  0  0  3  0  0  0  0  0  0
  186.3220  178.1480  143.9460 C   0  0  0  0  0  0  0  0  0  0  0  0
  183.3560  178.9570  140.1270 O   0  0  0  0  0  0  0  0  0  0  0  0
  186.9470  178.4890  140.0960 C   0  0  1  0  0  3  0  0  0  0  0  0
  188.5360  178.6680  141.9510 N   0  0  0  0  0  2  0  0  0  0  0  0
  190.3360  177.4400  138.9380 O   0  0  0  0  0  1  0  0  0  0  0  0
  186.6520  176.8910  137.2120 C   0  0  1  0  0  3  0  0  0  0  0  0
  189.3680  178.1550  139.6480 C   0  0  2  0  0  3  0  0  0  0  0  0
  185.1760  177.2510  137.4830 C   0  0  2  0  0  3  0  0  0  0  0  0
  183.5120  178.6720  138.7800 C   0  0  0  0  0  0  0  0  0  0  0  0
  189.6020  178.0160  141.1710 C   0  0  2  0  0  3  0  0  0  0  0  0
  187.9530  177.7110  139.2450 C   0  0  2  0  0  3  0  0  0  0  0  0
  185.2650  178.3170  144.8450 C   0  0  0  0  0  3  0  0  0  0  0  0
  184.5590  177.4910  136.1170 C   0  0  0  0  0  2  0  0  0  0  0  0
  186.7950  176.7130  135.7110 C   0  0  0  0  0  2  0  0  0  0  0  0
  187.5530  177.7220  144.4280 O   0  0  0  0  0  1  0  0  0  0  0  0
  184.6530  179.0720  140.6730 C   0  0  2  0  0  3  0  0  0  0  0  0
  184.0050  178.7140  144.3910 C   0  0  0  0  0  3  0  0  0  0  0  0
  186.1290  178.3950  142.5710 C   0  0  0  0  0  0  0  0  0  0  0  0
  185.4960  178.1640  139.8060 C   0  0  1  0  0  3  0  0  0  0  0  0
  182.5490  178.6610  137.9690 O   0  0  0  0  0  0  0  0  0  0  0  0
  184.9490  178.4470  138.4140 C   0  0  1  0  0  3  0  0  0  0  0  0
  185.3890  176.6750  135.1540 C   0  0  0  0  0  2  0  0  0  0  0  0
  187.5260  179.1710  137.3380 O   0  0  0  0  0  1  0  0  0  0  0  0
  183.7880  178.9310  143.0300 C   0  0  0  0  0  3  0  0  0  0  0  0
  184.8300  178.7410  142.1170 C   0  0  0  0  0  0  0  0  0  0  0  0
  187.7380  177.8460  137.7320 C   0  0  2  0  0  3  0  0  0  0  0  0
  189.7880  176.5600  141.6020 C   0  0  0  0  0  2  0  0  0  0  0  0
  191.6670  177.1110  142.6140 C   0  0  0  0  0  1  0  0  0  0  0  0
  190.4310  176.5090  142.8380 O   0  0  0  0  0  0  0  0  0  0  0  0
  1  5  1  1  0  0  0
  1 19  1  0  0  0  0
  2 16  1  0  0  0  0
  2 13  1  0  0  0  0
  3 17  1  0  0  0  0
  4  1  1  0  0  0  0
  6  8  1  0  0  0  0
  7  9  1  0  0  0  0
  7 27  1  0  0  0  0
  8 11  1  0  0  0  0
  9 22  1  0  0  0  0
 10  3  1  0  0  0  0
 11 28  1  0  0  0  0
 11  5  1  0  0  0  0
 12  8  1  0  0  0  0
 12  4  1  0  0  0  0
 14  9  1  0  0  0  0
 15  7  1  0  0  0  0
 17 26  1  0  0  0  0
 18 13  2  0  0  0  0
 19  2  2  0  0  0  0
 20  4  1  0  0  0  0
 20 17  1  0  0  0  0
 21 10  2  0  0  0  0
 22 10  1  0  0  0  0
 22 20  1  0  0  0  0
 23 15  1  0  0  0  0
 23 14  1  0  0  0  0
 24 27  1  0  0  0  0
 25 18  1  0  0  0  0
 26 19  1  0  0  0  0
 26 25  2  0  0  0  0
 27 12  1  0  0  0  0
 28 30  1  0  0  0  0
 29 30  1  0  0  0  0
M  END
>  <MODEL>
9

>  <REMARK>
 VINA RESULT:      -8.0      3.018      5.814
  Name = 
  2 active torsions:
  status: ('A' for Active; 'I' for Inactive)
    1  A    between atoms: C_11  and  C_28
    2  A    between atoms: C_28  and  O_30
                            x       y       z     vdW  Elec       q    Type
                         _______ _______ _______ _____ _____    ______ ____

>  <TORSDO>
F 2

$$$$
