=
 OpenBabel11122412293D

 34 37  0  0  1  0  0  0  0  0999 V2000
  187.8320  177.1290  138.4090 C   0  0  2  0  0  3  0  0  0  0  0  0
  186.6670  178.4470  140.0560 O   0  0  0  0  0  0  0  0  0  0  0  0
  189.1580  175.6330  136.8780 C   0  0  0  0  0  2  0  0  0  0  0  0
  188.9800  178.0810  140.5020 C   0  0  2  0  0  3  0  0  0  0  0  0
  189.2480  176.8570  143.3300 C   0  0  0  0  0  2  0  0  0  0  0  0
  189.6590  176.7000  140.4390 C   0  0  1  0  0  3  0  0  0  0  0  0
  186.9680  179.0170  141.3000 C   0  0  0  0  0  2  0  0  0  0  0  0
  188.0090  177.2080  142.6390 N   0  0  0  0  0  0  0  0  0  0  0  0
  189.2370  176.7660  137.8980 C   0  0  2  0  0  3  0  0  0  0  0  0
  190.2050  176.3870  139.0310 C   0  0  1  0  0  3  0  0  0  0  0  0
  186.8590  176.3790  136.2270 C   0  0  0  0  0  2  0  0  0  0  0  0
  190.0740  175.9040  142.4760 C   0  0  0  0  0  2  0  0  0  0  0  0
  188.2540  176.0350  135.7150 C   0  0  0  0  0  2  0  0  0  0  0  0
  190.6620  176.5970  141.4120 O   0  0  0  0  0  0  0  0  0  0  0  0
  188.2650  178.4050  141.8120 C   0  0  1  0  0  3  0  0  0  0  0  0
  186.9360  177.5220  137.2370 C   0  0  0  0  0  2  0  0  0  0  0  0
  187.9080  178.2760  139.4240 C   0  0  1  0  0  3  0  0  0  0  0  0
  191.6070  176.9450  138.7690 C   0  0  0  0  0  2  0  0  0  0  0  0
  192.5840  175.8670  138.3170 C   0  0  0  0  0  2  0  0  0  0  0  0
  192.6060  175.7830  135.8120 C   0  0  0  0  0  1  0  0  0  0  0  0
  193.3160  176.3070  137.0620 C   0  0  2  0  0  3  0  0  0  0  0  0
  194.7240  175.8980  137.1340 N   0  0  0  0  0  0  0  0  0  0  0  0
  194.8930  175.0580  138.1850 O   0  0  0  0  0  1  0  0  0  0  0  0
  195.0610  175.1600  135.9240 C   0  0  0  0  0  2  0  0  0  0  0  0
  196.5350  174.7930  135.9290 C   0  0  0  0  0  2  0  0  0  0  0  0
  197.3070  175.9220  136.2110 O   0  0  0  0  0  0  0  0  0  0  0  0
  198.5310  175.4600  136.3470 O   0  0  0  0  0  1  0  0  0  0  0  0
  187.0730  177.5460  143.7070 C   0  0  0  0  0  2  0  0  0  0  0  0
  187.7890  177.5150  145.0460 C   0  0  0  0  0  2  0  0  0  0  0  0
  186.7930  177.6680  146.1880 C   0  0  0  0  0  3  0  0  0  0  0  0
  188.8880  177.9040  147.3630 O   0  0  0  0  0  1  0  0  0  0  0  0
  187.5010  177.9410  147.5140 C   0  0  0  0  0  2  0  0  0  0  0  0
  185.7120  178.7090  145.8890 C   0  0  0  0  0  2  0  0  0  0  0  0
  184.7260  178.7110  146.8800 O   0  0  0  0  0  1  0  0  0  0  0  0
  1 16  1  6  0  0  0
  1 17  1  0  0  0  0
  2  7  1  0  0  0  0
  3  9  1  0  0  0  0
  4 15  1  0  0  0  0
  6  4  1  0  0  0  0
  6 14  1  0  0  0  0
  7 15  1  0  0  0  0
  8  5  1  0  0  0  0
  8 28  1  0  0  0  0
  9  1  1  0  0  0  0
  9 10  1  0  0  0  0
 10  6  1  0  0  0  0
 11 16  1  0  0  0  0
 12  5  1  0  0  0  0
 13 11  1  0  0  0  0
 13  3  1  0  0  0  0
 14 12  1  0  0  0  0
 15  8  1  0  0  0  0
 17  2  1  0  0  0  0
 17  4  1  0  0  0  0
 18 10  1  0  0  0  0
 19 18  1  0  0  0  0
 20 21  1  0  0  0  0
 21 22  1  0  0  0  0
 21 19  1  0  0  0  0
 22 23  1  0  0  0  0
 24 25  1  0  0  0  0
 24 22  1  0  0  0  0
 25 26  1  0  0  0  0
 26 27  1  0  0  0  0
 28 29  1  0  0  0  0
 29 30  1  0  0  0  0
 30 32  1  0  0  0  0
 31 32  1  0  0  0  0
 33 30  1  0  0  0  0
 33 34  1  0  0  0  0
M  END
>  <MODEL>
1

>  <REMARK>
 VINA RESULT:      -7.1      0.000      0.000
  Name = 
  12 active torsions:
  status: ('A' for Active; 'I' for Inactive)
    1  A    between atoms: N_3  and  C_16
    2  A    between atoms: N_3  and  C_19
    3  A    between atoms: C_5  and  C_11
    4  A    between atoms: C_5  and  C_19
    5  A    between atoms: C_8  and  O_12
    6  A    between atoms: C_8  and  C_16
    7  A    between atoms: C_11  and  C_20
    8  A    between atoms: N_17  and  C_28
    9  A    between atoms: C_28  and  C_29
   10  A    between atoms: C_29  and  C_32
   11  A    between atoms: C_31  and  C_32
   12  A    between atoms: C_32  and  C_34
                            x       y       z     vdW  Elec       q    Type
                         _______ _______ _______ _____ _____    ______ ____

>  <TORSDO>
F 12

$$$$
=
 OpenBabel11122412293D

 34 37  0  0  1  0  0  0  0  0999 V2000
  187.6480  177.9380  146.3510 C   0  0  2  0  0  3  0  0  0  0  0  0
  185.2660  178.2360  146.5550 O   0  0  0  0  0  0  0  0  0  0  0  0
  190.1170  177.7170  145.9080 C   0  0  0  0  0  2  0  0  0  0  0  0
  185.9980  177.3120  144.4840 C   0  0  2  0  0  3  0  0  0  0  0  0
  184.8720  179.0510  142.1870 C   0  0  0  0  0  2  0  0  0  0  0  0
  187.1390  177.9030  143.6350 C   0  0  1  0  0  3  0  0  0  0  0  0
  184.1470  178.0840  145.7250 C   0  0  0  0  0  2  0  0  0  0  0  0
  184.7000  179.2730  143.6210 N   0  0  0  0  0  0  0  0  0  0  0  0
  188.7280  177.2030  145.5380 C   0  0  2  0  0  3  0  0  0  0  0  0
  188.5120  177.3170  144.0200 C   0  0  1  0  0  3  0  0  0  0  0  0
  189.2970  178.2820  148.2050 C   0  0  0  0  0  2  0  0  0  0  0  0
  186.3540  178.9650  141.8420 C   0  0  0  0  0  2  0  0  0  0  0  0
  190.3620  177.5390  147.4040 C   0  0  0  0  0  2  0  0  0  0  0  0
  186.8760  177.7390  142.2690 O   0  0  0  0  0  0  0  0  0  0  0  0
  184.6270  177.9560  144.2850 C   0  0  1  0  0  3  0  0  0  0  0  0
  187.9090  177.7580  147.8450 C   0  0  0  0  0  2  0  0  0  0  0  0
  186.2530  177.4140  145.9920 C   0  0  1  0  0  3  0  0  0  0  0  0
  188.8440  175.9980  143.3150 C   0  0  0  0  0  2  0  0  0  0  0  0
  190.1580  176.0680  142.5470 C   0  0  0  0  0  2  0  0  0  0  0  0
  189.4280  176.9910  140.3320 C   0  0  0  0  0  1  0  0  0  0  0  0
  190.1740  177.2840  141.6360 C   0  0  2  0  0  3  0  0  0  0  0  0
  191.5570  177.7260  141.4160 N   0  0  0  0  0  0  0  0  0  0  0  0
  192.3870  177.0210  142.2250 O   0  0  0  0  0  1  0  0  0  0  0  0
  191.9320  177.4290  140.0400 C   0  0  0  0  0  2  0  0  0  0  0  0
  193.4180  177.1270  139.9570 C   0  0  0  0  0  2  0  0  0  0  0  0
  193.7550  176.7390  138.6580 O   0  0  0  0  0  0  0  0  0  0  0  0
  194.5990  175.7430  138.8200 O   0  0  0  0  0  1  0  0  0  0  0  0
  183.4120  179.9500  143.7390 C   0  0  0  0  0  2  0  0  0  0  0  0
  182.3700  179.2140  142.9160 C   0  0  0  0  0  2  0  0  0  0  0  0
  180.9670  179.6690  143.3000 C   0  0  0  0  0  3  0  0  0  0  0  0
  179.5550  181.2180  142.1030 O   0  0  0  0  0  1  0  0  0  0  0  0
  180.1080  179.9360  142.0670 C   0  0  0  0  0  2  0  0  0  0  0  0
  180.2860  178.7090  144.2780 C   0  0  0  0  0  2  0  0  0  0  0  0
  179.6680  177.6540  143.6010 O   0  0  0  0  0  1  0  0  0  0  0  0
  1 16  1  1  0  0  0
  3 13  1  0  0  0  0
  4 17  1  0  0  0  0
  5  8  1  0  0  0  0
  6 10  1  0  0  0  0
  6  4  1  0  0  0  0
  7  2  1  0  0  0  0
  8 28  1  0  0  0  0
  8 15  1  0  0  0  0
  9  3  1  0  0  0  0
  9  1  1  0  0  0  0
 10  9  1  0  0  0  0
 12  5  1  0  0  0  0
 12 14  1  0  0  0  0
 13 11  1  0  0  0  0
 14  6  1  0  0  0  0
 15  4  1  0  0  0  0
 15  7  1  0  0  0  0
 16 11  1  0  0  0  0
 17  1  1  0  0  0  0
 17  2  1  0  0  0  0
 18 10  1  0  0  0  0
 19 18  1  0  0  0  0
 20 21  1  0  0  0  0
 21 19  1  0  0  0  0
 22 21  1  0  0  0  0
 22 23  1  0  0  0  0
 24 22  1  0  0  0  0
 25 24  1  0  0  0  0
 26 27  1  0  0  0  0
 26 25  1  0  0  0  0
 29 30  1  0  0  0  0
 29 28  1  0  0  0  0
 30 33  1  0  0  0  0
 32 31  1  0  0  0  0
 32 30  1  0  0  0  0
 34 33  1  0  0  0  0
M  END
>  <MODEL>
2

>  <REMARK>
 VINA RESULT:      -6.9      3.104      6.809
  Name = 
  12 active torsions:
  status: ('A' for Active; 'I' for Inactive)
    1  A    between atoms: N_3  and  C_16
    2  A    between atoms: N_3  and  C_19
    3  A    between atoms: C_5  and  C_11
    4  A    between atoms: C_5  and  C_19
    5  A    between atoms: C_8  and  O_12
    6  A    between atoms: C_8  and  C_16
    7  A    between atoms: C_11  and  C_20
    8  A    between atoms: N_17  and  C_28
    9  A    between atoms: C_28  and  C_29
   10  A    between atoms: C_29  and  C_32
   11  A    between atoms: C_31  and  C_32
   12  A    between atoms: C_32  and  C_34
                            x       y       z     vdW  Elec       q    Type
                         _______ _______ _______ _____ _____    ______ ____

>  <TORSDO>
F 12

$$$$
=
 OpenBabel11122412293D

 34 37  0  0  1  0  0  0  0  0999 V2000
  182.6260  178.5270  143.5140 C   0  0  2  0  0  3  0  0  0  0  0  0
  183.7550  179.0400  145.5800 O   0  0  0  0  0  0  0  0  0  0  0  0
  181.6510  177.8680  141.2880 C   0  0  0  0  0  2  0  0  0  0  0  0
  185.0830  179.2710  143.6150 C   0  0  2  0  0  3  0  0  0  0  0  0
  187.6430  177.5710  143.9600 C   0  0  0  0  0  2  0  0  0  0  0  0
  185.1810  178.2000  142.5130 C   0  0  1  0  0  3  0  0  0  0  0  0
  185.0570  179.3760  145.9700 C   0  0  0  0  0  2  0  0  0  0  0  0
  186.5360  177.6930  144.9070 N   0  0  0  0  0  0  0  0  0  0  0  0
  182.7110  178.7140  141.9900 C   0  0  2  0  0  3  0  0  0  0  0  0
  184.1030  178.3850  141.4260 C   0  0  1  0  0  3  0  0  0  0  0  0
  180.1780  178.0410  143.3040 C   0  0  0  0  0  2  0  0  0  0  0  0
  187.1250  177.1180  142.6010 C   0  0  0  0  0  2  0  0  0  0  0  0
  180.2600  178.2430  141.7940 C   0  0  0  0  0  2  0  0  0  0  0  0
  186.4680  178.1740  141.9600 O   0  0  0  0  0  0  0  0  0  0  0  0
  186.0030  179.0680  144.8170 C   0  0  1  0  0  3  0  0  0  0  0  0
  181.2280  178.8970  144.0070 C   0  0  0  0  0  2  0  0  0  0  0  0
  183.6800  179.3850  144.2230 C   0  0  1  0  0  3  0  0  0  0  0  0
  184.4970  179.3720  140.3220 C   0  0  0  0  0  2  0  0  0  0  0  0
  183.3540  179.6420  139.3530 C   0  0  0  0  0  2  0  0  0  0  0  0
  182.1230  178.4570  137.5180 C   0  0  0  0  0  1  0  0  0  0  0  0
  183.4960  178.7790  138.1110 C   0  0  2  0  0  3  0  0  0  0  0  0
  184.2810  177.5780  138.4240 N   0  0  0  0  0  0  0  0  0  0  0  0
  183.4500  176.5080  138.5030 O   0  0  0  0  0  1  0  0  0  0  0  0
  185.2130  177.3280  137.3320 C   0  0  0  0  0  2  0  0  0  0  0  0
  186.6280  177.6740  137.7630 C   0  0  0  0  0  2  0  0  0  0  0  0
  186.9480  178.9690  137.3530 O   0  0  0  0  0  0  0  0  0  0  0  0
  188.1970  179.1360  137.7340 O   0  0  0  0  0  1  0  0  0  0  0  0
  187.1460  177.4930  146.2170 C   0  0  0  0  0  2  0  0  0  0  0  0
  188.6590  177.5310  146.0900 C   0  0  0  0  0  2  0  0  0  0  0  0
  189.3160  177.0810  147.3890 C   0  0  0  0  0  3  0  0  0  0  0  0
  191.6610  177.1500  147.9580 O   0  0  0  0  0  1  0  0  0  0  0  0
  190.7160  176.5230  147.1430 C   0  0  0  0  0  2  0  0  0  0  0  0
  189.3140  178.1760  148.4580 C   0  0  0  0  0  2  0  0  0  0  0  0
  188.1790  178.0860  149.2690 O   0  0  0  0  0  1  0  0  0  0  0  0
  1 16  1  1  0  0  0
  1 17  1  0  0  0  0
  2  7  1  0  0  0  0
  3 13  1  0  0  0  0
  3  9  1  0  0  0  0
  4 17  1  0  0  0  0
  4 15  1  0  0  0  0
  5  8  1  0  0  0  0
  6  4  1  0  0  0  0
  8 28  1  0  0  0  0
  9  1  1  0  0  0  0
 10  9  1  0  0  0  0
 10  6  1  0  0  0  0
 11 16  1  0  0  0  0
 12  5  1  0  0  0  0
 13 11  1  0  0  0  0
 14  6  1  0  0  0  0
 14 12  1  0  0  0  0
 15  8  1  0  0  0  0
 15  7  1  0  0  0  0
 17  2  1  0  0  0  0
 18 10  1  0  0  0  0
 19 18  1  0  0  0  0
 20 21  1  0  0  0  0
 21 22  1  0  0  0  0
 21 19  1  0  0  0  0
 22 23  1  0  0  0  0
 24 25  1  0  0  0  0
 24 22  1  0  0  0  0
 26 27  1  0  0  0  0
 26 25  1  0  0  0  0
 29 28  1  0  0  0  0
 29 30  1  0  0  0  0
 30 33  1  0  0  0  0
 32 30  1  0  0  0  0
 32 31  1  0  0  0  0
 33 34  1  0  0  0  0
M  END
>  <MODEL>
3

>  <REMARK>
 VINA RESULT:      -6.7      5.091      7.484
  Name = 
  12 active torsions:
  status: ('A' for Active; 'I' for Inactive)
    1  A    between atoms: N_3  and  C_16
    2  A    between atoms: N_3  and  C_19
    3  A    between atoms: C_5  and  C_11
    4  A    between atoms: C_5  and  C_19
    5  A    between atoms: C_8  and  O_12
    6  A    between atoms: C_8  and  C_16
    7  A    between atoms: C_11  and  C_20
    8  A    between atoms: N_17  and  C_28
    9  A    between atoms: C_28  and  C_29
   10  A    between atoms: C_29  and  C_32
   11  A    between atoms: C_31  and  C_32
   12  A    between atoms: C_32  and  C_34
                            x       y       z     vdW  Elec       q    Type
                         _______ _______ _______ _____ _____    ______ ____

>  <TORSDO>
F 12

$$$$
=
 OpenBabel11122412293D

 34 37  0  0  1  0  0  0  0  0999 V2000
  187.6040  177.1570  138.3520 C   0  0  2  0  0  3  0  0  0  0  0  0
  186.5620  178.4870  140.0690 O   0  0  0  0  0  0  0  0  0  0  0  0
  188.8160  175.6500  136.7380 C   0  0  0  0  0  2  0  0  0  0  0  0
  188.9030  178.1320  140.3420 C   0  0  2  0  0  3  0  0  0  0  0  0
  189.3880  176.9350  143.1530 C   0  0  0  0  0  2  0  0  0  0  0  0
  189.5810  176.7520  140.2410 C   0  0  1  0  0  3  0  0  0  0  0  0
  186.9540  179.0700  141.2820 C   0  0  0  0  0  2  0  0  0  0  0  0
  188.0990  177.2760  142.5550 N   0  0  0  0  0  0  0  0  0  0  0  0
  188.9680  176.7930  137.7390 C   0  0  2  0  0  3  0  0  0  0  0  0
  190.0190  176.4270  138.7990 C   0  0  1  0  0  3  0  0  0  0  0  0
  186.4710  176.3840  136.2560 C   0  0  0  0  0  2  0  0  0  0  0  0
  190.1510  175.9760  142.2480 C   0  0  0  0  0  2  0  0  0  0  0  0
  187.8250  176.0380  135.6430 C   0  0  0  0  0  2  0  0  0  0  0  0
  190.6540  176.6610  141.1360 O   0  0  0  0  0  0  0  0  0  0  0  0
  188.2880  178.4660  141.7000 C   0  0  1  0  0  3  0  0  0  0  0  0
  186.6210  177.5360  137.2460 C   0  0  0  0  0  2  0  0  0  0  0  0
  187.7520  178.3140  139.3470 C   0  0  1  0  0  3  0  0  0  0  0  0
  191.3960  176.9870  138.4270 C   0  0  0  0  0  2  0  0  0  0  0  0
  191.9860  176.3020  137.2010 C   0  0  0  0  0  2  0  0  0  0  0  0
  194.1760  176.6320  136.0260 C   0  0  0  0  0  1  0  0  0  0  0  0
  193.4970  176.2000  137.3270 C   0  0  2  0  0  3  0  0  0  0  0  0
  193.8740  174.8450  137.7470 N   0  0  0  0  0  0  0  0  0  0  0  0
  192.8920  173.9770  137.3980 O   0  0  0  0  0  1  0  0  0  0  0  0
  195.0800  174.4500  137.0320 C   0  0  0  0  0  2  0  0  0  0  0  0
  196.0860  173.8460  137.9970 C   0  0  0  0  0  2  0  0  0  0  0  0
  195.4200  173.2550  139.0720 O   0  0  0  0  0  0  0  0  0  0  0  0
  195.3400  171.9810  138.7520 O   0  0  0  0  0  1  0  0  0  0  0  0
  187.2450  177.6210  143.6870 C   0  0  0  0  0  2  0  0  0  0  0  0
  188.0060  177.4140  144.9850 C   0  0  0  0  0  2  0  0  0  0  0  0
  187.2970  178.1140  146.1380 C   0  0  0  0  0  3  0  0  0  0  0  0
  185.1380  178.8040  146.9670 O   0  0  0  0  0  1  0  0  0  0  0  0
  185.8070  178.2860  145.8550 C   0  0  0  0  0  2  0  0  0  0  0  0
  187.5520  177.4330  147.4840 C   0  0  0  0  0  2  0  0  0  0  0  0
  188.8990  177.0890  147.6280 O   0  0  0  0  0  1  0  0  0  0  0  0
  1 16  1  6  0  0  0
  1 17  1  0  0  0  0
  2  7  1  0  0  0  0
  3  9  1  0  0  0  0
  4 15  1  0  0  0  0
  6  4  1  0  0  0  0
  6 14  1  0  0  0  0
  7 15  1  0  0  0  0
  8  5  1  0  0  0  0
  8 28  1  0  0  0  0
  9  1  1  0  0  0  0
  9 10  1  0  0  0  0
 10  6  1  0  0  0  0
 11 16  1  0  0  0  0
 12  5  1  0  0  0  0
 13 11  1  0  0  0  0
 13  3  1  0  0  0  0
 14 12  1  0  0  0  0
 15  8  1  0  0  0  0
 17  2  1  0  0  0  0
 17  4  1  0  0  0  0
 18 10  1  0  0  0  0
 19 21  1  0  0  0  0
 19 18  1  0  0  0  0
 20 21  1  0  0  0  0
 21 22  1  0  0  0  0
 23 22  1  0  0  0  0
 24 22  1  0  0  0  0
 24 25  1  0  0  0  0
 25 26  1  0  0  0  0
 27 26  1  0  0  0  0
 28 29  1  0  0  0  0
 29 30  1  0  0  0  0
 30 33  1  0  0  0  0
 32 30  1  0  0  0  0
 32 31  1  0  0  0  0
 33 34  1  0  0  0  0
M  END
>  <MODEL>
4

>  <REMARK>
 VINA RESULT:      -6.4      1.332      1.863
  Name = 
  12 active torsions:
  status: ('A' for Active; 'I' for Inactive)
    1  A    between atoms: N_3  and  C_16
    2  A    between atoms: N_3  and  C_19
    3  A    between atoms: C_5  and  C_11
    4  A    between atoms: C_5  and  C_19
    5  A    between atoms: C_8  and  O_12
    6  A    between atoms: C_8  and  C_16
    7  A    between atoms: C_11  and  C_20
    8  A    between atoms: N_17  and  C_28
    9  A    between atoms: C_28  and  C_29
   10  A    between atoms: C_29  and  C_32
   11  A    between atoms: C_31  and  C_32
   12  A    between atoms: C_32  and  C_34
                            x       y       z     vdW  Elec       q    Type
                         _______ _______ _______ _____ _____    ______ ____

>  <TORSDO>
F 12

$$$$
=
 OpenBabel11122412293D

 34 37  0  0  1  0  0  0  0  0999 V2000
  182.6520  178.5240  143.4810 C   0  0  2  0  0  3  0  0  0  0  0  0
  183.7730  178.9220  145.5760 O   0  0  0  0  0  0  0  0  0  0  0  0
  181.6860  177.9920  141.2170 C   0  0  0  0  0  2  0  0  0  0  0  0
  185.1020  179.2840  143.6300 C   0  0  2  0  0  3  0  0  0  0  0  0
  187.6770  177.5890  143.8770 C   0  0  0  0  0  2  0  0  0  0  0  0
  185.2110  178.2810  142.4660 C   0  0  1  0  0  3  0  0  0  0  0  0
  185.0730  179.2460  145.9880 C   0  0  0  0  0  2  0  0  0  0  0  0
  186.5680  177.6440  144.8280 N   0  0  0  0  0  0  0  0  0  0  0  0
  182.7380  178.8030  141.9700 C   0  0  2  0  0  3  0  0  0  0  0  0
  184.1330  178.5220  141.3900 C   0  0  1  0  0  3  0  0  0  0  0  0
  180.2090  178.0300  143.2370 C   0  0  0  0  0  2  0  0  0  0  0  0
  187.1650  177.2140  142.4920 C   0  0  0  0  0  2  0  0  0  0  0  0
  180.2910  178.3220  141.7420 C   0  0  0  0  0  2  0  0  0  0  0  0
  186.4990  178.3010  141.9150 O   0  0  0  0  0  0  0  0  0  0  0  0
  186.0220  179.0160  144.8190 C   0  0  1  0  0  3  0  0  0  0  0  0
  181.2510  178.8510  143.9920 C   0  0  0  0  0  2  0  0  0  0  0  0
  183.6970  179.3480  144.2410 C   0  0  1  0  0  3  0  0  0  0  0  0
  184.5200  179.5760  140.3480 C   0  0  0  0  0  2  0  0  0  0  0  0
  184.0530  179.2030  138.9470 C   0  0  0  0  0  2  0  0  0  0  0  0
  186.1030  178.1880  137.9220 C   0  0  0  0  0  1  0  0  0  0  0  0
  184.7110  177.9120  138.4960 C   0  0  2  0  0  3  0  0  0  0  0  0
  183.8340  177.2050  137.5540 N   0  0  0  0  0  0  0  0  0  0  0  0
  183.6880  175.9180  137.9560 O   0  0  0  0  0  1  0  0  0  0  0  0
  182.5160  177.8250  137.5850 C   0  0  0  0  0  2  0  0  0  0  0  0
  181.7940  177.5820  136.2700 C   0  0  0  0  0  2  0  0  0  0  0  0
  181.1480  178.7500  135.8590 O   0  0  0  0  0  0  0  0  0  0  0  0
  181.3770  179.6120  136.8250 O   0  0  0  0  0  1  0  0  0  0  0  0
  187.1780  177.3710  146.1250 C   0  0  0  0  0  2  0  0  0  0  0  0
  188.6880  177.4940  146.0170 C   0  0  0  0  0  2  0  0  0  0  0  0
  189.3530  177.0830  147.3260 C   0  0  0  0  0  3  0  0  0  0  0  0
  191.6540  177.1760  148.0460 O   0  0  0  0  0  1  0  0  0  0  0  0
  190.7890  176.6190  147.1020 C   0  0  0  0  0  2  0  0  0  0  0  0
  189.2610  178.1720  148.3970 C   0  0  0  0  0  2  0  0  0  0  0  0
  188.1300  177.9960  149.1990 O   0  0  0  0  0  1  0  0  0  0  0  0
  1 16  1  1  0  0  0
  1 17  1  0  0  0  0
  2  7  1  0  0  0  0
  3 13  1  0  0  0  0
  3  9  1  0  0  0  0
  4 17  1  0  0  0  0
  4 15  1  0  0  0  0
  5  8  1  0  0  0  0
  6  4  1  0  0  0  0
  8 28  1  0  0  0  0
  9  1  1  0  0  0  0
 10  9  1  0  0  0  0
 10  6  1  0  0  0  0
 11 16  1  0  0  0  0
 12  5  1  0  0  0  0
 13 11  1  0  0  0  0
 14  6  1  0  0  0  0
 14 12  1  0  0  0  0
 15  8  1  0  0  0  0
 15  7  1  0  0  0  0
 17  2  1  0  0  0  0
 18 10  1  0  0  0  0
 19 18  1  0  0  0  0
 20 21  1  0  0  0  0
 21 19  1  0  0  0  0
 22 24  1  0  0  0  0
 22 23  1  0  0  0  0
 22 21  1  0  0  0  0
 25 24  1  0  0  0  0
 26 25  1  0  0  0  0
 26 27  1  0  0  0  0
 29 28  1  0  0  0  0
 29 30  1  0  0  0  0
 30 33  1  0  0  0  0
 32 30  1  0  0  0  0
 32 31  1  0  0  0  0
 33 34  1  0  0  0  0
M  END
>  <MODEL>
5

>  <REMARK>
 VINA RESULT:      -6.4      5.755      8.242
  Name = 
  12 active torsions:
  status: ('A' for Active; 'I' for Inactive)
    1  A    between atoms: N_3  and  C_16
    2  A    between atoms: N_3  and  C_19
    3  A    between atoms: C_5  and  C_11
    4  A    between atoms: C_5  and  C_19
    5  A    between atoms: C_8  and  O_12
    6  A    between atoms: C_8  and  C_16
    7  A    between atoms: C_11  and  C_20
    8  A    between atoms: N_17  and  C_28
    9  A    between atoms: C_28  and  C_29
   10  A    between atoms: C_29  and  C_32
   11  A    between atoms: C_31  and  C_32
   12  A    between atoms: C_32  and  C_34
                            x       y       z     vdW  Elec       q    Type
                         _______ _______ _______ _____ _____    ______ ____

>  <TORSDO>
F 12

$$$$
=
 OpenBabel11122412293D

 34 37  0  0  1  0  0  0  0  0999 V2000
  185.7680  178.5200  145.0390 C   0  0  2  0  0  3  0  0  0  0  0  0
  183.7430  178.8840  143.7840 O   0  0  0  0  0  0  0  0  0  0  0  0
  188.0070  178.1830  146.1400 C   0  0  0  0  0  2  0  0  0  0  0  0
  185.3920  177.5600  142.6860 C   0  0  2  0  0  3  0  0  0  0  0  0
  185.9810  178.8270  139.9260 C   0  0  0  0  0  2  0  0  0  0  0  0
  186.8760  177.9570  142.5710 C   0  0  1  0  0  3  0  0  0  0  0  0
  183.2770  178.5860  142.4970 C   0  0  0  0  0  2  0  0  0  0  0  0
  185.0610  179.3300  140.9440 N   0  0  0  0  0  0  0  0  0  0  0  0
  187.0160  177.6250  145.1220 C   0  0  2  0  0  3  0  0  0  0  0  0
  187.7080  177.4400  143.7620 C   0  0  1  0  0  3  0  0  0  0  0  0
  186.1150  179.2010  147.4240 C   0  0  0  0  0  2  0  0  0  0  0  0
  187.3750  178.6540  140.5160 C   0  0  0  0  0  2  0  0  0  0  0  0
  187.3430  178.3010  147.5100 C   0  0  0  0  0  2  0  0  0  0  0  0
  187.4100  177.5290  141.3480 O   0  0  0  0  0  0  0  0  0  0  0  0
  184.4640  178.1700  141.6380 C   0  0  1  0  0  3  0  0  0  0  0  0
  185.1170  178.6350  146.4160 C   0  0  0  0  0  2  0  0  0  0  0  0
  184.7640  177.9540  144.0270 C   0  0  1  0  0  3  0  0  0  0  0  0
  188.2120  176.0040  143.5900 C   0  0  0  0  0  2  0  0  0  0  0  0
  189.5900  175.9480  142.9420 C   0  0  0  0  0  2  0  0  0  0  0  0
  191.6790  177.3230  142.7750 C   0  0  0  0  0  1  0  0  0  0  0  0
  190.5700  176.8240  143.7030 C   0  0  2  0  0  3  0  0  0  0  0  0
  191.0840  176.1010  144.8720 N   0  0  0  0  0  0  0  0  0  0  0  0
  192.0650  175.2510  144.4780 O   0  0  0  0  0  1  0  0  0  0  0  0
  191.6790  177.0600  145.7930 C   0  0  0  0  0  2  0  0  0  0  0  0
  191.2870  176.7260  147.2220 C   0  0  0  0  0  2  0  0  0  0  0  0
  191.9650  175.5820  147.6490 O   0  0  0  0  0  0  0  0  0  0  0  0
  192.9720  176.0420  148.3590 O   0  0  0  0  0  1  0  0  0  0  0  0
  184.0270  180.0330  140.1930 C   0  0  0  0  0  2  0  0  0  0  0  0
  183.7770  179.3210  138.8740 C   0  0  0  0  0  2  0  0  0  0  0  0
  182.3060  179.4150  138.4870 C   0  0  0  0  0  3  0  0  0  0  0  0
  181.0600  181.0410  137.2110 O   0  0  0  0  0  1  0  0  0  0  0  0
  181.8570  180.8670  138.3450 C   0  0  0  0  0  2  0  0  0  0  0  0
  181.9720  178.5850  137.2450 C   0  0  0  0  0  2  0  0  0  0  0  0
  181.0330  177.5930  137.5390 O   0  0  0  0  0  1  0  0  0  0  0  0
  1  9  1  0  0  0  0
  1 16  1  1  0  0  0
  2 17  1  0  0  0  0
  3 13  1  0  0  0  0
  4 17  1  0  0  0  0
  5 12  1  0  0  0  0
  5  8  1  0  0  0  0
  6  4  1  0  0  0  0
  6 10  1  0  0  0  0
  7  2  1  0  0  0  0
  8 15  1  0  0  0  0
  9  3  1  0  0  0  0
 10  9  1  0  0  0  0
 11 13  1  0  0  0  0
 12 14  1  0  0  0  0
 14  6  1  0  0  0  0
 15  7  1  0  0  0  0
 15  4  1  0  0  0  0
 16 11  1  0  0  0  0
 17  1  1  0  0  0  0
 18 10  1  0  0  0  0
 19 18  1  0  0  0  0
 19 21  1  0  0  0  0
 20 21  1  0  0  0  0
 21 22  1  0  0  0  0
 22 24  1  0  0  0  0
 23 22  1  0  0  0  0
 24 25  1  0  0  0  0
 25 26  1  0  0  0  0
 26 27  1  0  0  0  0
 28  8  1  0  0  0  0
 29 28  1  0  0  0  0
 30 29  1  0  0  0  0
 31 32  1  0  0  0  0
 32 30  1  0  0  0  0
 33 34  1  0  0  0  0
 33 30  1  0  0  0  0
M  END
>  <MODEL>
6

>  <REMARK>
 VINA RESULT:      -6.3      4.820      8.297
  Name = 
  12 active torsions:
  status: ('A' for Active; 'I' for Inactive)
    1  A    between atoms: N_3  and  C_16
    2  A    between atoms: N_3  and  C_19
    3  A    between atoms: C_5  and  C_11
    4  A    between atoms: C_5  and  C_19
    5  A    between atoms: C_8  and  O_12
    6  A    between atoms: C_8  and  C_16
    7  A    between atoms: C_11  and  C_20
    8  A    between atoms: N_17  and  C_28
    9  A    between atoms: C_28  and  C_29
   10  A    between atoms: C_29  and  C_32
   11  A    between atoms: C_31  and  C_32
   12  A    between atoms: C_32  and  C_34
                            x       y       z     vdW  Elec       q    Type
                         _______ _______ _______ _____ _____    ______ ____

>  <TORSDO>
F 12

$$$$
=
 OpenBabel11122412293D

 34 37  0  0  1  0  0  0  0  0999 V2000
  190.8210  177.0440  142.4330 C   0  0  2  0  0  3  0  0  0  0  0  0
  192.8650  176.9950  141.1590 O   0  0  0  0  0  0  0  0  0  0  0  0
  188.5750  176.9830  143.5710 C   0  0  0  0  0  2  0  0  0  0  0  0
  190.9230  177.6300  139.9340 C   0  0  2  0  0  3  0  0  0  0  0  0
  190.6770  175.7820  137.4660 C   0  0  0  0  0  2  0  0  0  0  0  0
  189.5950  176.8500  139.9640 C   0  0  1  0  0  3  0  0  0  0  0  0
  193.2320  177.1680  139.8180 C   0  0  0  0  0  2  0  0  0  0  0  0
  191.7000  175.7240  138.5070 N   0  0  0  0  0  0  0  0  0  0  0  0
  189.3810  177.5870  142.4230 C   0  0  2  0  0  3  0  0  0  0  0  0
  188.6600  177.3400  141.0880 C   0  0  1  0  0  3  0  0  0  0  0  0
  190.6730  176.7340  144.9140 C   0  0  0  0  0  2  0  0  0  0  0  0
  189.2890  175.6920  138.0870 C   0  0  0  0  0  2  0  0  0  0  0  0
  189.2520  177.2880  144.9050 C   0  0  0  0  0  2  0  0  0  0  0  0
  188.9630  176.9000  138.7140 O   0  0  0  0  0  0  0  0  0  0  0  0
  191.9750  177.1020  138.9610 C   0  0  1  0  0  3  0  0  0  0  0  0
  191.4830  177.3480  143.7750 C   0  0  0  0  0  2  0  0  0  0  0  0
  191.6370  177.6580  141.2900 C   0  0  1  0  0  3  0  0  0  0  0  0
  187.7960  178.5430  140.6980 C   0  0  0  0  0  2  0  0  0  0  0  0
  186.9280  179.0300  141.8520 C   0  0  0  0  0  2  0  0  0  0  0  0
  184.9970  179.0000  140.2530 C   0  0  0  0  0  1  0  0  0  0  0  0
  185.4850  178.6020  141.6470 C   0  0  2  0  0  3  0  0  0  0  0  0
  184.6460  179.1430  142.7230 N   0  0  0  0  0  0  0  0  0  0  0  0
  183.3390  178.9870  142.3940 O   0  0  0  0  0  1  0  0  0  0  0  0
  184.8850  178.3740  143.9380 C   0  0  0  0  0  2  0  0  0  0  0  0
  184.1480  179.0030  145.1080 C   0  0  0  0  0  2  0  0  0  0  0  0
  184.6000  178.4510  146.3080 O   0  0  0  0  0  0  0  0  0  0  0  0
  185.3770  179.3780  146.8260 O   0  0  0  0  0  1  0  0  0  0  0  0
  192.8810  175.1880  137.8370 C   0  0  0  0  0  2  0  0  0  0  0  0
  193.1400  175.9630  136.5570 C   0  0  0  0  0  2  0  0  0  0  0  0
  194.3650  175.4130  135.8380 C   0  0  0  0  0  3  0  0  0  0  0  0
  194.9310  177.7580  135.7650 O   0  0  0  0  0  1  0  0  0  0  0  0
  195.1570  176.5240  135.1520 C   0  0  0  0  0  2  0  0  0  0  0  0
  195.2470  174.5580  136.7500 C   0  0  0  0  0  2  0  0  0  0  0  0
  196.3950  175.2530  137.1380 O   0  0  0  0  0  1  0  0  0  0  0  0
  1 16  1  1  0  0  0
  2 17  1  0  0  0  0
  3 13  1  0  0  0  0
  4  6  1  0  0  0  0
  4 17  1  0  0  0  0
  5 12  1  0  0  0  0
  5  8  1  0  0  0  0
  6 10  1  0  0  0  0
  7  2  1  0  0  0  0
  8 15  1  0  0  0  0
  9  1  1  0  0  0  0
  9  3  1  0  0  0  0
 10  9  1  0  0  0  0
 12 14  1  0  0  0  0
 13 11  1  0  0  0  0
 14  6  1  0  0  0  0
 15  7  1  0  0  0  0
 15  4  1  0  0  0  0
 16 11  1  0  0  0  0
 17  1  1  0  0  0  0
 18 10  1  0  0  0  0
 18 19  1  0  0  0  0
 20 21  1  0  0  0  0
 21 19  1  0  0  0  0
 21 22  1  0  0  0  0
 22 24  1  0  0  0  0
 23 22  1  0  0  0  0
 24 25  1  0  0  0  0
 25 26  1  0  0  0  0
 26 27  1  0  0  0  0
 28  8  1  0  0  0  0
 29 28  1  0  0  0  0
 30 29  1  0  0  0  0
 30 33  1  0  0  0  0
 32 31  1  0  0  0  0
 32 30  1  0  0  0  0
 33 34  1  0  0  0  0
M  END
>  <MODEL>
7

>  <REMARK>
 VINA RESULT:      -6.3      2.027      9.855
  Name = 
  12 active torsions:
  status: ('A' for Active; 'I' for Inactive)
    1  A    between atoms: N_3  and  C_16
    2  A    between atoms: N_3  and  C_19
    3  A    between atoms: C_5  and  C_11
    4  A    between atoms: C_5  and  C_19
    5  A    between atoms: C_8  and  O_12
    6  A    between atoms: C_8  and  C_16
    7  A    between atoms: C_11  and  C_20
    8  A    between atoms: N_17  and  C_28
    9  A    between atoms: C_28  and  C_29
   10  A    between atoms: C_29  and  C_32
   11  A    between atoms: C_31  and  C_32
   12  A    between atoms: C_32  and  C_34
                            x       y       z     vdW  Elec       q    Type
                         _______ _______ _______ _____ _____    ______ ____

>  <TORSDO>
F 12

$$$$
=
 OpenBabel11122412293D

 34 37  0  0  1  0  0  0  0  0999 V2000
  188.8050  177.6240  145.1170 C   0  0  2  0  0  3  0  0  0  0  0  0
  186.5360  177.6220  145.9290 O   0  0  0  0  0  0  0  0  0  0  0  0
  191.0940  177.7610  144.0770 C   0  0  0  0  0  2  0  0  0  0  0  0
  186.7750  177.2400  143.5890 C   0  0  2  0  0  3  0  0  0  0  0  0
  185.0300  179.3000  142.0800 C   0  0  0  0  0  2  0  0  0  0  0  0
  187.6390  178.1140  142.6600 C   0  0  1  0  0  3  0  0  0  0  0  0
  185.2560  177.5340  145.3670 C   0  0  0  0  0  2  0  0  0  0  0  0
  185.2090  179.1940  143.5260 N   0  0  0  0  0  0  0  0  0  0  0  0
  189.6830  177.1950  143.9300 C   0  0  2  0  0  3  0  0  0  0  0  0
  189.0920  177.6050  142.5710 C   0  0  1  0  0  3  0  0  0  0  0  0
  190.8430  177.7370  146.5680 C   0  0  0  0  0  2  0  0  0  0  0  0
  186.3820  179.4430  141.3920 C   0  0  0  0  0  2  0  0  0  0  0  0
  191.7120  177.2960  145.3940 C   0  0  0  0  0  2  0  0  0  0  0  0
  187.0540  178.2160  141.3910 O   0  0  0  0  0  0  0  0  0  0  0  0
  185.3680  177.7650  143.8660 C   0  0  1  0  0  3  0  0  0  0  0  0
  189.4370  177.1590  146.4280 C   0  0  0  0  0  2  0  0  0  0  0  0
  187.3920  177.0450  144.9790 C   0  0  1  0  0  3  0  0  0  0  0  0
  189.3040  176.5080  141.5240 C   0  0  0  0  0  2  0  0  0  0  0  0
  190.4150  176.8540  140.5410 C   0  0  0  0  0  2  0  0  0  0  0  0
  190.7410  175.4940  138.4600 C   0  0  0  0  0  1  0  0  0  0  0  0
  189.9490  176.6280  139.1130 C   0  0  2  0  0  3  0  0  0  0  0  0
  190.0220  177.8850  138.3580 N   0  0  0  0  0  0  0  0  0  0  0  0
  190.1080  177.6080  137.0330 O   0  0  0  0  0  1  0  0  0  0  0  0
  188.7890  178.6320  138.5690 C   0  0  0  0  0  2  0  0  0  0  0  0
  187.6040  177.8480  138.0330 C   0  0  0  0  0  2  0  0  0  0  0  0
  186.5560  178.7170  137.7260 O   0  0  0  0  0  0  0  0  0  0  0  0
  185.4860  178.1320  138.2190 O   0  0  0  0  0  1  0  0  0  0  0  0
  183.9590  179.6920  144.0910 C   0  0  0  0  0  2  0  0  0  0  0  0
  182.8880  178.6190  143.9920 C   0  0  0  0  0  2  0  0  0  0  0  0
  181.6190  179.1880  143.3700 C   0  0  0  0  0  3  0  0  0  0  0  0
  180.8080  179.7940  141.1790 O   0  0  0  0  0  1  0  0  0  0  0  0
  181.5060  178.8180  141.8930 C   0  0  0  0  0  2  0  0  0  0  0  0
  180.3600  178.8100  144.1550 C   0  0  0  0  0  2  0  0  0  0  0  0
  179.6900  177.7440  143.5500 O   0  0  0  0  0  1  0  0  0  0  0  0
  1 16  1  1  0  0  0
  3 13  1  0  0  0  0
  4 15  1  0  0  0  0
  4 17  1  0  0  0  0
  5  8  1  0  0  0  0
  6  4  1  0  0  0  0
  7  2  1  0  0  0  0
  8 15  1  0  0  0  0
  8 28  1  0  0  0  0
  9  3  1  0  0  0  0
  9  1  1  0  0  0  0
 10  6  1  0  0  0  0
 10  9  1  0  0  0  0
 12  5  1  0  0  0  0
 13 11  1  0  0  0  0
 14 12  1  0  0  0  0
 14  6  1  0  0  0  0
 15  7  1  0  0  0  0
 16 11  1  0  0  0  0
 17  1  1  0  0  0  0
 17  2  1  0  0  0  0
 18 10  1  0  0  0  0
 19 18  1  0  0  0  0
 20 21  1  0  0  0  0
 21 19  1  0  0  0  0
 22 24  1  0  0  0  0
 22 21  1  0  0  0  0
 23 22  1  0  0  0  0
 25 24  1  0  0  0  0
 26 25  1  0  0  0  0
 26 27  1  0  0  0  0
 29 28  1  0  0  0  0
 30 29  1  0  0  0  0
 30 33  1  0  0  0  0
 31 32  1  0  0  0  0
 32 30  1  0  0  0  0
 34 33  1  0  0  0  0
M  END
>  <MODEL>
8

>  <REMARK>
 VINA RESULT:      -6.1      3.295      6.816
  Name = 
  12 active torsions:
  status: ('A' for Active; 'I' for Inactive)
    1  A    between atoms: N_3  and  C_16
    2  A    between atoms: N_3  and  C_19
    3  A    between atoms: C_5  and  C_11
    4  A    between atoms: C_5  and  C_19
    5  A    between atoms: C_8  and  O_12
    6  A    between atoms: C_8  and  C_16
    7  A    between atoms: C_11  and  C_20
    8  A    between atoms: N_17  and  C_28
    9  A    between atoms: C_28  and  C_29
   10  A    between atoms: C_29  and  C_32
   11  A    between atoms: C_31  and  C_32
   12  A    between atoms: C_32  and  C_34
                            x       y       z     vdW  Elec       q    Type
                         _______ _______ _______ _____ _____    ______ ____

>  <TORSDO>
F 12

$$$$
=
 OpenBabel11122412293D

 34 37  0  0  1  0  0  0  0  0999 V2000
  181.0590  177.8380  141.2490 C   0  0  2  0  0  3  0  0  0  0  0  0
  181.8140  178.2210  143.5050 O   0  0  0  0  0  0  0  0  0  0  0  0
  180.5100  177.4370  138.8250 C   0  0  0  0  0  2  0  0  0  0  0  0
  182.9280  179.5020  141.8330 C   0  0  2  0  0  3  0  0  0  0  0  0
  185.9720  179.0270  142.1060 C   0  0  0  0  0  2  0  0  0  0  0  0
  183.5080  178.9040  140.5370 C   0  0  1  0  0  3  0  0  0  0  0  0
  182.8260  178.9630  144.1260 C   0  0  0  0  0  2  0  0  0  0  0  0
  184.9130  178.4140  142.9050 N   0  0  0  0  0  0  0  0  0  0  0  0
  181.0740  178.4360  139.8320 C   0  0  2  0  0  3  0  0  0  0  0  0
  182.4750  178.8920  139.3920 C   0  0  1  0  0  3  0  0  0  0  0  0
  179.0850  176.4310  140.6200 C   0  0  0  0  0  2  0  0  0  0  0  0
  185.7290  178.7710  140.6240 C   0  0  0  0  0  2  0  0  0  0  0  0
  179.0910  177.0370  139.2200 C   0  0  0  0  0  2  0  0  0  0  0  0
  184.6800  179.5750  140.1630 O   0  0  0  0  0  0  0  0  0  0  0  0
  183.8260  179.4010  143.0640 C   0  0  1  0  0  3  0  0  0  0  0  0
  179.6360  177.4350  141.6300 C   0  0  0  0  0  2  0  0  0  0  0  0
  181.6130  178.8440  142.2650 C   0  0  1  0  0  3  0  0  0  0  0  0
  182.4060  180.2030  138.6030 C   0  0  0  0  0  2  0  0  0  0  0  0
  181.1330  180.9870  138.8950 C   0  0  0  0  0  2  0  0  0  0  0  0
  180.9210  180.5650  136.4320 C   0  0  0  0  0  1  0  0  0  0  0  0
  180.1690  180.8850  137.7250 C   0  0  2  0  0  3  0  0  0  0  0  0
  179.3650  182.1100  137.6310 N   0  0  0  0  0  0  0  0  0  0  0  0
  179.5140  182.8330  138.7690 O   0  0  0  0  0  1  0  0  0  0  0  0
  179.8700  182.9200  136.5300 C   0  0  0  0  0  2  0  0  0  0  0  0
  180.3800  184.2530  137.0510 C   0  0  0  0  0  2  0  0  0  0  0  0
  181.6620  184.5000  136.5570 O   0  0  0  0  0  0  0  0  0  0  0  0
  182.4040  184.6590  137.6320 O   0  0  0  0  0  1  0  0  0  0  0  0
  185.5300  178.1560  144.2020 C   0  0  0  0  0  2  0  0  0  0  0  0
  186.8540  177.4380  144.0070 C   0  0  0  0  0  2  0  0  0  0  0  0
  187.8620  177.8810  145.0600 C   0  0  0  0  0  3  0  0  0  0  0  0
  188.3770  176.9180  147.2130 O   0  0  0  0  0  1  0  0  0  0  0  0
  187.3780  177.5520  146.4700 C   0  0  0  0  0  2  0  0  0  0  0  0
  189.2670  177.3360  144.7930 C   0  0  0  0  0  2  0  0  0  0  0  0
  190.1330  178.3540  144.3840 O   0  0  0  0  0  1  0  0  0  0  0  0
  1 16  1  1  0  0  0
  1 17  1  0  0  0  0
  2  7  1  0  0  0  0
  3 13  1  0  0  0  0
  3  9  1  0  0  0  0
  4 17  1  0  0  0  0
  4 15  1  0  0  0  0
  5  8  1  0  0  0  0
  6  4  1  0  0  0  0
  8 15  1  0  0  0  0
  8 28  1  0  0  0  0
  9  1  1  0  0  0  0
 10  9  1  0  0  0  0
 10  6  1  0  0  0  0
 11 16  1  0  0  0  0
 12  5  1  0  0  0  0
 13 11  1  0  0  0  0
 14  6  1  0  0  0  0
 14 12  1  0  0  0  0
 15  7  1  0  0  0  0
 17  2  1  0  0  0  0
 18 19  1  0  0  0  0
 18 10  1  0  0  0  0
 20 21  1  0  0  0  0
 21 19  1  0  0  0  0
 22 21  1  0  0  0  0
 22 23  1  0  0  0  0
 24 25  1  0  0  0  0
 24 22  1  0  0  0  0
 26 25  1  0  0  0  0
 26 27  1  0  0  0  0
 29 28  1  0  0  0  0
 29 30  1  0  0  0  0
 30 32  1  0  0  0  0
 32 31  1  0  0  0  0
 33 30  1  0  0  0  0
 34 33  1  0  0  0  0
M  END
>  <MODEL>
9

>  <REMARK>
 VINA RESULT:      -6.0      6.105      9.988
  Name = 
  12 active torsions:
  status: ('A' for Active; 'I' for Inactive)
    1  A    between atoms: N_3  and  C_16
    2  A    between atoms: N_3  and  C_19
    3  A    between atoms: C_5  and  C_11
    4  A    between atoms: C_5  and  C_19
    5  A    between atoms: C_8  and  O_12
    6  A    between atoms: C_8  and  C_16
    7  A    between atoms: C_11  and  C_20
    8  A    between atoms: N_17  and  C_28
    9  A    between atoms: C_28  and  C_29
   10  A    between atoms: C_29  and  C_32
   11  A    between atoms: C_31  and  C_32
   12  A    between atoms: C_32  and  C_34
                            x       y       z     vdW  Elec       q    Type
                         _______ _______ _______ _____ _____    ______ ____

>  <TORSDO>
F 12

$$$$
