=
 OpenBabel11122410533D

 32 36  0  0  1  0  0  0  0  0999 V2000
  187.1810  178.1090  140.0800 C   0  0  1  0  0  3  0  0  0  0  0  0
  190.4270  176.9770  143.7870 C   0  0  0  0  0  2  0  0  0  0  0  0
  191.5750  177.1630  142.8120 C   0  0  0  0  0  2  0  0  0  0  0  0
  188.0390  178.1960  137.6860 C   0  0  2  0  0  3  0  0  0  0  0  0
  188.8110  177.1610  136.9710 N   0  0  2  0  0  0  0  0  0  0  0  0
  184.9780  178.4450  140.4180 C   0  0  2  0  0  3  0  0  0  0  0  0
  186.4290  178.0560  142.4310 C   0  0  0  0  0  2  0  0  0  0  0  0
  190.4720  175.4510  137.3480 C   0  0  2  0  0  3  0  0  0  0  0  0
  189.2910  177.9160  143.4000 C   0  0  0  0  0  2  0  0  0  0  0  0
  187.5920  178.4390  141.5200 C   0  0  1  0  0  3  0  0  0  0  0  0
  188.9040  177.7960  141.9420 C   0  0  1  0  0  3  0  0  0  0  0  0
  189.4330  177.3160  139.5510 C   0  0  2  0  0  3  0  0  0  0  0  0
  189.1160  174.8130  137.4970 C   0  0  0  0  0  2  0  0  0  0  0  0
  185.1330  178.7030  141.9300 C   0  0  2  0  0  3  0  0  0  0  0  0
  188.1130  175.8820  137.0960 C   0  0  0  0  0  2  0  0  0  0  0  0
  191.1180  176.7450  141.4200 C   0  0  0  0  0  2  0  0  0  0  0  0
  189.8210  177.4040  141.0090 C   0  0  2  0  0  3  0  0  0  0  0  0
  190.5270  177.4990  138.6960 O   0  0  0  0  0  0  0  0  0  0  0  0
  186.1010  178.9320  139.7170 O   0  0  0  0  0  0  0  0  0  0  0  0
  188.2130  179.5360  136.9970 C   0  0  0  0  0  1  0  0  0  0  0  0
  191.3280  175.0160  138.3620 O   0  0  0  0  0  1  0  0  0  0  0  0
  188.3790  178.3320  139.1740 C   0  0  2  0  0  3  0  0  0  0  0  0
  190.2080  176.9460  137.4230 C   0  0  2  0  0  3  0  0  0  0  0  0
  183.3120  178.5100  138.5690 C   0  0  0  0  0  1  0  0  0  0  0  0
  183.7270  179.1270  139.8890 C   0  0  0  0  0  2  0  0  0  0  0  0
  184.0490  178.1600  142.6330 O   0  0  0  0  0  0  0  0  0  0  0  0
  184.4560  179.3020  144.6880 C   0  0  0  0  0  1  0  0  0  0  0  0
  183.5780  179.1920  143.4560 C   0  0  2  0  0  3  0  0  0  0  0  0
  182.1550  178.8940  143.9020 C   0  0  0  0  0  2  0  0  0  0  0  0
  181.1740  179.2270  142.8310 C   0  0  0  0  0  0  0  0  0  0  0  0
  180.9800  178.4280  141.8790 O   0  0  0  0  0  0  0  0  0  0  0  0
  180.4630  180.4180  142.8910 O   0  0  0  0  0  1  0  0  0  0  0  0
  1 19  1  6  0  0  0
  1 10  1  0  0  0  0
  3  2  1  0  0  0  0
  4 20  1  6  0  0  0
  4 22  1  0  0  0  0
  5 15  1  1  0  0  0
  5 23  1  0  0  0  0
  5  4  1  0  0  0  0
  6 25  1  6  0  0  0
  6 14  1  0  0  0  0
  8 23  1  0  0  0  0
  8 13  1  0  0  0  0
  8 21  1  1  0  0  0
  9  2  1  0  0  0  0
 10 11  1  0  0  0  0
 10  7  1  1  0  0  0
 11  9  1  1  0  0  0
 12 18  1  6  0  0  0
 12 17  1  0  0  0  0
 14  7  1  0  0  0  0
 14 26  1  1  0  0  0
 15 13  1  0  0  0  0
 16  3  1  0  0  0  0
 17 16  1  1  0  0  0
 17 11  1  0  0  0  0
 19  6  1  0  0  0  0
 22 12  1  0  0  0  0
 22  1  1  0  0  0  0
 23 18  1  0  0  0  0
 24 25  1  0  0  0  0
 26 28  1  0  0  0  0
 28 29  1  0  0  0  0
 28 27  1  0  0  0  0
 30 32  1  0  0  0  0
 30 29  1  0  0  0  0
 31 30  2  0  0  0  0
M  END
>  <MODEL>
1

>  <REMARK>
 VINA RESULT:      -8.0      0.000      0.000
  Name = 
  5 active torsions:
  status: ('A' for Active; 'I' for Inactive)
    1  A    between atoms: C_7  and  C_19
    2  A    between atoms: O_10  and  C_17
    3  A    between atoms: O_10  and  C_20
    4  A    between atoms: C_20  and  C_29
    5  A    between atoms: C_29  and  C_30
                            x       y       z     vdW  Elec       q    Type
                         _______ _______ _______ _____ _____    ______ ____

>  <TORSDO>
F 5

$$$$
=
 OpenBabel11122410533D

 32 36  0  0  1  0  0  0  0  0999 V2000
  189.0440  177.0730  139.3440 C   0  0  1  0  0  3  0  0  0  0  0  0
  193.7890  175.8440  138.1070 C   0  0  0  0  0  2  0  0  0  0  0  0
  193.4450  176.0670  136.6460 C   0  0  0  0  0  2  0  0  0  0  0  0
  187.3020  177.2410  137.4970 C   0  0  2  0  0  3  0  0  0  0  0  0
  186.9890  176.2330  136.4650 N   0  0  2  0  0  0  0  0  0  0  0  0
  188.3550  177.3850  141.4670 C   0  0  2  0  0  3  0  0  0  0  0  0
  190.7970  176.9410  141.0780 C   0  0  0  0  0  2  0  0  0  0  0  0
  188.0340  174.5210  135.1220 C   0  0  2  0  0  3  0  0  0  0  0  0
  192.9540  176.7880  138.9620 C   0  0  0  0  0  2  0  0  0  0  0  0
  190.5220  177.3600  139.6360 C   0  0  1  0  0  3  0  0  0  0  0  0
  191.4760  176.7120  138.6460 C   0  0  1  0  0  3  0  0  0  0  0  0
  189.5730  176.3100  137.0810 C   0  0  2  0  0  3  0  0  0  0  0  0
  187.5350  173.8710  136.3860 C   0  0  0  0  0  2  0  0  0  0  0  0
  189.7800  177.5970  142.0190 C   0  0  2  0  0  3  0  0  0  0  0  0
  186.7500  174.9470  137.1190 C   0  0  0  0  0  2  0  0  0  0  0  0
  191.9880  175.6900  136.4150 C   0  0  0  0  0  2  0  0  0  0  0  0
  191.0510  176.3540  137.3980 C   0  0  2  0  0  3  0  0  0  0  0  0
  189.3120  176.5260  135.7230 O   0  0  0  0  0  0  0  0  0  0  0  0
  188.2530  177.9000  140.1590 O   0  0  0  0  0  0  0  0  0  0  0  0
  186.8010  178.6020  137.0560 C   0  0  0  0  0  1  0  0  0  0  0  0
  189.3140  174.0590  134.8090 O   0  0  0  0  0  1  0  0  0  0  0  0
  188.7860  177.3310  137.8700 C   0  0  2  0  0  3  0  0  0  0  0  0
  188.0190  176.0120  135.4200 C   0  0  2  0  0  3  0  0  0  0  0  0
  186.3230  178.8220  141.5100 C   0  0  0  0  0  1  0  0  0  0  0  0
  187.3350  178.0770  142.3560 C   0  0  0  0  0  2  0  0  0  0  0  0
  189.9010  177.0260  143.2930 O   0  0  0  0  0  0  0  0  0  0  0  0
  191.1380  178.9920  143.8400 C   0  0  0  0  0  1  0  0  0  0  0  0
  189.9570  178.1040  144.1850 C   0  0  2  0  0  3  0  0  0  0  0  0
  190.1360  177.5940  145.6070 C   0  0  0  0  0  2  0  0  0  0  0  0
  188.8270  177.4860  146.3100 C   0  0  0  0  0  0  0  0  0  0  0  0
  187.7870  177.9630  145.7860 O   0  0  0  0  0  0  0  0  0  0  0  0
  188.7520  176.8450  147.5390 O   0  0  0  0  0  1  0  0  0  0  0  0
  1 10  1  0  0  0  0
  1 19  1  1  0  0  0
  2  9  1  0  0  0  0
  3  2  1  0  0  0  0
  4 20  1  6  0  0  0
  4 22  1  0  0  0  0
  5 15  1  1  0  0  0
  5  4  1  0  0  0  0
  6 14  1  0  0  0  0
  6 25  1  1  0  0  0
  7 14  1  0  0  0  0
  8 21  1  1  0  0  0
  8 23  1  0  0  0  0
  8 13  1  0  0  0  0
 10  7  1  1  0  0  0
 11  9  1  6  0  0  0
 11 10  1  0  0  0  0
 12 18  1  6  0  0  0
 12 17  1  0  0  0  0
 12 22  1  0  0  0  0
 13 15  1  0  0  0  0
 14 26  1  1  0  0  0
 16  3  1  0  0  0  0
 17 16  1  1  0  0  0
 17 11  1  0  0  0  0
 19  6  1  0  0  0  0
 22  1  1  0  0  0  0
 23 18  1  0  0  0  0
 23  5  1  0  0  0  0
 24 25  1  0  0  0  0
 26 28  1  0  0  0  0
 27 28  1  0  0  0  0
 28 29  1  0  0  0  0
 29 30  1  0  0  0  0
 30 32  1  0  0  0  0
 31 30  2  0  0  0  0
M  END
>  <MODEL>
2

>  <REMARK>
 VINA RESULT:      -7.8      3.120      5.035
  Name = 
  5 active torsions:
  status: ('A' for Active; 'I' for Inactive)
    1  A    between atoms: C_7  and  C_19
    2  A    between atoms: O_10  and  C_17
    3  A    between atoms: O_10  and  C_20
    4  A    between atoms: C_20  and  C_29
    5  A    between atoms: C_29  and  C_30
                            x       y       z     vdW  Elec       q    Type
                         _______ _______ _______ _____ _____    ______ ____

>  <TORSDO>
F 5

$$$$
=
 OpenBabel11122410533D

 32 36  0  0  1  0  0  0  0  0999 V2000
  187.0900  178.0830  140.0710 C   0  0  1  0  0  3  0  0  0  0  0  0
  190.7720  177.1760  143.4140 C   0  0  0  0  0  2  0  0  0  0  0  0
  191.7930  177.3270  142.3010 C   0  0  0  0  0  2  0  0  0  0  0  0
  187.6570  178.0620  137.5910 C   0  0  2  0  0  3  0  0  0  0  0  0
  188.3560  177.0020  136.8400 N   0  0  2  0  0  0  0  0  0  0  0  0
  184.9370  178.4100  140.6530 C   0  0  2  0  0  3  0  0  0  0  0  0
  186.6230  178.1380  142.4950 C   0  0  0  0  0  2  0  0  0  0  0  0
  190.0800  175.3320  137.0970 C   0  0  2  0  0  3  0  0  0  0  0  0
  189.5820  178.0810  143.1210 C   0  0  0  0  0  2  0  0  0  0  0  0
  187.6630  178.4890  141.4350 C   0  0  1  0  0  3  0  0  0  0  0  0
  189.0270  177.8840  141.7280 C   0  0  1  0  0  3  0  0  0  0  0  0
  189.2770  177.2920  139.3160 C   0  0  2  0  0  3  0  0  0  0  0  0
  188.7630  174.6860  137.4370 C   0  0  0  0  0  2  0  0  0  0  0  0
  185.2660  178.7450  142.1220 C   0  0  2  0  0  3  0  0  0  0  0  0
  187.7010  175.7220  137.1070 C   0  0  0  0  0  2  0  0  0  0  0  0
  191.1820  176.8340  140.9960 C   0  0  0  0  0  2  0  0  0  0  0  0
  189.8340  177.4570  140.7120 C   0  0  2  0  0  3  0  0  0  0  0  0
  190.2580  177.4450  138.3290 O   0  0  0  0  0  0  0  0  0  0  0  0
  185.9600  178.8740  139.8010 O   0  0  0  0  0  0  0  0  0  0  0  0
  187.7240  179.3670  136.8230 C   0  0  0  0  0  1  0  0  0  0  0  0
  191.0590  174.9580  138.0210 O   0  0  0  0  0  1  0  0  0  0  0  0
  188.1680  178.2760  139.0190 C   0  0  2  0  0  3  0  0  0  0  0  0
  189.8000  176.8260  137.1310 C   0  0  2  0  0  3  0  0  0  0  0  0
  183.4340  178.9530  138.7440 C   0  0  0  0  0  1  0  0  0  0  0  0
  183.6210  179.0500  140.2460 C   0  0  0  0  0  2  0  0  0  0  0  0
  184.2820  178.2240  142.9740 O   0  0  0  0  0  0  0  0  0  0  0  0
  185.1110  180.2650  143.8940 C   0  0  0  0  0  1  0  0  0  0  0  0
  183.9770  179.2560  143.8720 C   0  0  2  0  0  3  0  0  0  0  0  0
  183.8060  178.6920  145.2740 C   0  0  0  0  0  2  0  0  0  0  0  0
  185.1150  178.5970  145.9790 C   0  0  0  0  0  0  0  0  0  0  0  0
  185.9180  177.6690  145.6990 O   0  0  0  0  0  0  0  0  0  0  0  0
  185.4550  179.5410  146.9380 O   0  0  0  0  0  1  0  0  0  0  0  0
  1 19  1  6  0  0  0
  1 10  1  0  0  0  0
  3  2  1  0  0  0  0
  4 20  1  6  0  0  0
  4 22  1  0  0  0  0
  5 15  1  1  0  0  0
  5 23  1  0  0  0  0
  5  4  1  0  0  0  0
  6 25  1  6  0  0  0
  6 14  1  0  0  0  0
  8 23  1  0  0  0  0
  8 13  1  0  0  0  0
  8 21  1  1  0  0  0
  9  2  1  0  0  0  0
 10 11  1  0  0  0  0
 10  7  1  1  0  0  0
 11  9  1  6  0  0  0
 12 18  1  6  0  0  0
 12 17  1  0  0  0  0
 14  7  1  0  0  0  0
 14 26  1  1  0  0  0
 15 13  1  0  0  0  0
 16  3  1  0  0  0  0
 17 16  1  1  0  0  0
 17 11  1  0  0  0  0
 19  6  1  0  0  0  0
 22 12  1  0  0  0  0
 22  1  1  0  0  0  0
 23 18  1  0  0  0  0
 24 25  1  0  0  0  0
 26 28  1  0  0  0  0
 28 27  1  0  0  0  0
 28 29  1  0  0  0  0
 29 30  1  0  0  0  0
 30 32  1  0  0  0  0
 31 30  2  0  0  0  0
M  END
>  <MODEL>
3

>  <REMARK>
 VINA RESULT:      -7.6      1.240      1.924
  Name = 
  5 active torsions:
  status: ('A' for Active; 'I' for Inactive)
    1  A    between atoms: C_7  and  C_19
    2  A    between atoms: O_10  and  C_17
    3  A    between atoms: O_10  and  C_20
    4  A    between atoms: C_20  and  C_29
    5  A    between atoms: C_29  and  C_30
                            x       y       z     vdW  Elec       q    Type
                         _______ _______ _______ _____ _____    ______ ____

>  <TORSDO>
F 5

$$$$
=
 OpenBabel11122410533D

 32 36  0  0  1  0  0  0  0  0999 V2000
  185.9020  178.1250  140.8520 C   0  0  1  0  0  3  0  0  0  0  0  0
  190.5610  176.9780  139.2590 C   0  0  0  0  0  2  0  0  0  0  0  0
  190.1920  177.4830  137.8760 C   0  0  0  0  0  2  0  0  0  0  0  0
  184.1250  178.6980  139.1240 C   0  0  2  0  0  3  0  0  0  0  0  0
  183.7450  177.9130  137.9340 N   0  0  2  0  0  0  0  0  0  0  0  0
  185.2790  178.0600  143.0170 C   0  0  2  0  0  3  0  0  0  0  0  0
  187.6900  177.6090  142.4750 C   0  0  0  0  0  2  0  0  0  0  0  0
  184.6850  176.4450  136.2640 C   0  0  2  0  0  3  0  0  0  0  0  0
  189.7870  177.7750  140.3010 C   0  0  0  0  0  2  0  0  0  0  0  0
  187.3980  178.2990  141.1450 C   0  0  1  0  0  3  0  0  0  0  0  0
  188.3000  177.8130  140.0220 C   0  0  1  0  0  3  0  0  0  0  0  0
  186.3440  177.7800  138.4720 C   0  0  2  0  0  3  0  0  0  0  0  0
  184.1910  175.5890  137.4000 C   0  0  0  0  0  2  0  0  0  0  0  0
  186.7240  178.1130  143.5530 C   0  0  2  0  0  3  0  0  0  0  0  0
  183.4700  176.5360  138.3440 C   0  0  0  0  0  2  0  0  0  0  0  0
  188.7150  177.2080  137.6260 C   0  0  0  0  0  2  0  0  0  0  0  0
  187.8300  177.7110  138.7440 C   0  0  2  0  0  3  0  0  0  0  0  0
  186.0590  178.2550  137.1860 O   0  0  0  0  0  0  0  0  0  0  0  0
  185.1660  178.8140  141.8310 O   0  0  0  0  0  0  0  0  0  0  0  0
  183.6700  180.1340  138.9600 C   0  0  0  0  0  1  0  0  0  0  0  0
  185.9380  176.0040  135.8300 O   0  0  0  0  0  1  0  0  0  0  0  0
  185.6190  178.6640  139.4610 C   0  0  2  0  0  3  0  0  0  0  0  0
  184.7390  177.8530  136.8340 C   0  0  2  0  0  3  0  0  0  0  0  0
  183.0050  179.0030  143.3880 C   0  0  0  0  0  1  0  0  0  0  0  0
  184.3100  178.6100  144.0500 C   0  0  0  0  0  2  0  0  0  0  0  0
  186.8520  177.3100  144.6950 O   0  0  0  0  0  0  0  0  0  0  0  0
  189.0450  177.6050  145.5880 C   0  0  0  0  0  1  0  0  0  0  0  0
  187.6000  178.0670  145.6060 C   0  0  2  0  0  3  0  0  0  0  0  0
  187.0510  177.8800  147.0120 C   0  0  0  0  0  2  0  0  0  0  0  0
  185.8800  178.7680  147.2560 C   0  0  0  0  0  0  0  0  0  0  0  0
  186.0540  179.9860  147.5210 O   0  0  0  0  0  1  0  0  0  0  0  0
  184.5940  178.2530  147.1760 O   0  0  0  0  0  0  0  0  0  0  0  0
  1 10  1  0  0  0  0
  1 19  1  1  0  0  0
  2  9  1  0  0  0  0
  3  2  1  0  0  0  0
  4 20  1  6  0  0  0
  4 22  1  0  0  0  0
  5 15  1  1  0  0  0
  5  4  1  0  0  0  0
  6 14  1  0  0  0  0
  6 25  1  1  0  0  0
  7 14  1  0  0  0  0
  8 21  1  1  0  0  0
  8 23  1  0  0  0  0
  8 13  1  0  0  0  0
 10  7  1  1  0  0  0
 11  9  1  6  0  0  0
 11 10  1  0  0  0  0
 12 18  1  6  0  0  0
 12 17  1  0  0  0  0
 12 22  1  0  0  0  0
 13 15  1  0  0  0  0
 14 26  1  1  0  0  0
 16  3  1  0  0  0  0
 17 16  1  1  0  0  0
 17 11  1  0  0  0  0
 19  6  1  0  0  0  0
 22  1  1  0  0  0  0
 23 18  1  0  0  0  0
 23  5  1  0  0  0  0
 24 25  1  0  0  0  0
 26 28  1  0  0  0  0
 27 28  1  0  0  0  0
 28 29  1  0  0  0  0
 29 30  1  0  0  0  0
 30 31  1  0  0  0  0
 32 30  2  0  0  0  0
M  END
>  <MODEL>
4

>  <REMARK>
 VINA RESULT:      -7.5      2.581      4.518
  Name = 
  5 active torsions:
  status: ('A' for Active; 'I' for Inactive)
    1  A    between atoms: C_7  and  C_19
    2  A    between atoms: O_10  and  C_17
    3  A    between atoms: O_10  and  C_20
    4  A    between atoms: C_20  and  C_29
    5  A    between atoms: C_29  and  C_30
                            x       y       z     vdW  Elec       q    Type
                         _______ _______ _______ _____ _____    ______ ____

>  <TORSDO>
F 5

$$$$
=
 OpenBabel11122410533D

 32 36  0  0  1  0  0  0  0  0999 V2000
  184.3830  178.3260  139.8790 C   0  0  1  0  0  3  0  0  0  0  0  0
  184.9600  179.3120  144.8040 C   0  0  0  0  0  2  0  0  0  0  0  0
  183.5310  178.8580  145.0420 C   0  0  0  0  0  2  0  0  0  0  0  0
  182.0430  177.8730  138.9880 C   0  0  2  0  0  3  0  0  0  0  0  0
  180.8370  178.7020  139.1720 N   0  0  2  0  0  0  0  0  0  0  0  0
  186.0810  178.3650  138.3970 C   0  0  2  0  0  3  0  0  0  0  0  0
  186.6300  178.7260  140.8220 C   0  0  0  0  0  2  0  0  0  0  0  0
  179.7830  180.1690  140.7730 C   0  0  2  0  0  3  0  0  0  0  0  0
  185.5420  178.5240  143.6380 C   0  0  0  0  0  2  0  0  0  0  0  0
  185.2740  178.0820  141.1030 C   0  0  1  0  0  3  0  0  0  0  0  0
  184.6600  178.5560  142.4100 C   0  0  1  0  0  3  0  0  0  0  0  0
  182.4300  178.7110  141.2990 C   0  0  2  0  0  3  0  0  0  0  0  0
  180.6360  181.0180  139.8680 C   0  0  0  0  0  2  0  0  0  0  0  0
  187.1760  178.2370  139.4760 C   0  0  2  0  0  3  0  0  0  0  0  0
  181.1470  180.0790  138.7870 C   0  0  0  0  0  2  0  0  0  0  0  0
  182.6900  179.2010  143.8190 C   0  0  0  0  0  2  0  0  0  0  0  0
  183.3080  178.7100  142.5300 C   0  0  2  0  0  3  0  0  0  0  0  0
  181.1260  178.2800  141.5740 O   0  0  0  0  0  0  0  0  0  0  0  0
  184.9290  177.6460  138.7770 O   0  0  0  0  0  0  0  0  0  0  0  0
  181.6440  176.4610  138.6050 C   0  0  0  0  0  1  0  0  0  0  0  0
  179.9380  180.5670  142.1030 O   0  0  0  0  0  1  0  0  0  0  0  0
  182.9820  177.8350  140.1980 C   0  0  2  0  0  3  0  0  0  0  0  0
  180.2650  178.7460  140.5400 C   0  0  2  0  0  3  0  0  0  0  0  0
  185.8880  176.5290  136.7270 C   0  0  0  0  0  1  0  0  0  0  0  0
  186.5840  177.8320  137.0660 C   0  0  0  0  0  2  0  0  0  0  0  0
  188.2960  179.0050  139.1300 O   0  0  0  0  0  0  0  0  0  0  0  0
  189.7850  177.4820  138.0550 C   0  0  0  0  0  1  0  0  0  0  0  0
  189.4040  178.1770  139.3490 C   0  0  2  0  0  3  0  0  0  0  0  0
  189.0630  177.1150  140.3840 C   0  0  0  0  0  2  0  0  0  0  0  0
  190.2350  176.8190  141.2560 C   0  0  0  0  0  0  0  0  0  0  0  0
  191.2950  177.4850  141.1390 O   0  0  0  0  0  0  0  0  0  0  0  0
  190.1510  175.8120  142.2080 O   0  0  0  0  0  1  0  0  0  0  0  0
  1 19  1  6  0  0  0
  1 22  1  0  0  0  0
  1 10  1  0  0  0  0
  2  3  1  0  0  0  0
  4 20  1  1  0  0  0
  4  5  1  0  0  0  0
  4 22  1  0  0  0  0
  5 15  1  1  0  0  0
  5 23  1  0  0  0  0
  6 25  1  6  0  0  0
  6 19  1  0  0  0  0
  6 14  1  0  0  0  0
  8 21  1  1  0  0  0
  9  2  1  0  0  0  0
 10  7  1  6  0  0  0
 10 11  1  0  0  0  0
 11 17  1  0  0  0  0
 11  9  1  1  0  0  0
 12 18  1  1  0  0  0
 12 17  1  0  0  0  0
 13  8  1  0  0  0  0
 14 26  1  6  0  0  0
 14  7  1  0  0  0  0
 15 13  1  0  0  0  0
 16  3  1  0  0  0  0
 17 16  1  6  0  0  0
 22 12  1  0  0  0  0
 23  8  1  0  0  0  0
 23 18  1  0  0  0  0
 24 25  1  0  0  0  0
 26 28  1  0  0  0  0
 27 28  1  0  0  0  0
 28 29  1  0  0  0  0
 29 30  1  0  0  0  0
 30 32  1  0  0  0  0
 31 30  2  0  0  0  0
M  END
>  <MODEL>
5

>  <REMARK>
 VINA RESULT:      -7.4      2.340      7.583
  Name = 
  5 active torsions:
  status: ('A' for Active; 'I' for Inactive)
    1  A    between atoms: C_7  and  C_19
    2  A    between atoms: O_10  and  C_17
    3  A    between atoms: O_10  and  C_20
    4  A    between atoms: C_20  and  C_29
    5  A    between atoms: C_29  and  C_30
                            x       y       z     vdW  Elec       q    Type
                         _______ _______ _______ _____ _____    ______ ____

>  <TORSDO>
F 5

$$$$
=
 OpenBabel11122410533D

 32 36  0  0  1  0  0  0  0  0999 V2000
  185.5010  178.3290  141.3930 C   0  0  1  0  0  3  0  0  0  0  0  0
  190.3700  177.0830  140.8450 C   0  0  0  0  0  2  0  0  0  0  0  0
  190.3260  177.6150  139.4250 C   0  0  0  0  0  2  0  0  0  0  0  0
  184.1620  178.9700  139.3270 C   0  0  2  0  0  3  0  0  0  0  0  0
  184.0370  178.2120  138.0680 N   0  0  2  0  0  0  0  0  0  0  0  0
  184.4130  178.2500  143.3660 C   0  0  2  0  0  3  0  0  0  0  0  0
  186.8740  177.7440  143.3610 C   0  0  0  0  0  2  0  0  0  0  0  0
  185.2900  176.7430  136.6190 C   0  0  2  0  0  3  0  0  0  0  0  0
  189.4020  177.8850  141.7050 C   0  0  0  0  0  2  0  0  0  0  0  0
  186.8980  178.4590  142.0130 C   0  0  1  0  0  3  0  0  0  0  0  0
  188.0150  177.9660  141.1070 C   0  0  1  0  0  3  0  0  0  0  0  0
  186.4500  178.0040  139.1630 C   0  0  2  0  0  3  0  0  0  0  0  0
  184.5380  175.8850  137.6010 C   0  0  0  0  0  2  0  0  0  0  0  0
  185.7050  178.2590  144.2090 C   0  0  2  0  0  3  0  0  0  0  0  0
  183.6470  176.8370  138.3820 C   0  0  0  0  0  2  0  0  0  0  0  0
  188.9350  177.3830  138.8500 C   0  0  0  0  0  2  0  0  0  0  0  0
  187.8370  177.8930  139.7550 C   0  0  2  0  0  3  0  0  0  0  0  0
  186.4660  178.5040  137.8550 O   0  0  0  0  0  0  0  0  0  0  0  0
  184.5820  179.0230  142.1990 O   0  0  0  0  0  0  0  0  0  0  0  0
  183.7870  180.4210  139.0940 C   0  0  0  0  0  1  0  0  0  0  0  0
  186.5970  176.2750  136.4640 O   0  0  0  0  0  1  0  0  0  0  0  0
  185.5440  178.8930  139.9850 C   0  0  2  0  0  3  0  0  0  0  0  0
  185.2480  178.1420  137.2140 C   0  0  2  0  0  3  0  0  0  0  0  0
  182.0420  179.0030  143.2800 C   0  0  0  0  0  1  0  0  0  0  0  0
  183.2530  178.8110  144.1710 C   0  0  0  0  0  2  0  0  0  0  0  0
  185.5610  177.4370  145.3350 O   0  0  0  0  0  0  0  0  0  0  0  0
  185.9860  179.5480  146.3640 C   0  0  0  0  0  1  0  0  0  0  0  0
  186.2920  178.0620  146.3530 C   0  0  2  0  0  3  0  0  0  0  0  0
  187.7820  177.8780  146.1120 C   0  0  0  0  0  2  0  0  0  0  0  0
  188.4710  177.3940  147.3410 C   0  0  0  0  0  0  0  0  0  0  0  0
  187.9230  177.5240  148.4660 O   0  0  0  0  0  1  0  0  0  0  0  0
  189.7150  176.7860  147.2430 O   0  0  0  0  0  0  0  0  0  0  0  0
  1 10  1  0  0  0  0
  1 19  1  1  0  0  0
  2  9  1  0  0  0  0
  3  2  1  0  0  0  0
  4 20  1  6  0  0  0
  4 22  1  0  0  0  0
  5 15  1  1  0  0  0
  5  4  1  0  0  0  0
  6 25  1  1  0  0  0
  6 14  1  0  0  0  0
  7 14  1  0  0  0  0
  8 21  1  1  0  0  0
  8 23  1  0  0  0  0
  8 13  1  0  0  0  0
 10  7  1  1  0  0  0
 11  9  1  6  0  0  0
 11 10  1  0  0  0  0
 12 18  1  6  0  0  0
 12 17  1  0  0  0  0
 12 22  1  0  0  0  0
 13 15  1  0  0  0  0
 14 26  1  1  0  0  0
 16  3  1  0  0  0  0
 17 16  1  1  0  0  0
 17 11  1  0  0  0  0
 19  6  1  0  0  0  0
 22  1  1  0  0  0  0
 23 18  1  0  0  0  0
 23  5  1  0  0  0  0
 24 25  1  0  0  0  0
 26 28  1  0  0  0  0
 28 27  1  0  0  0  0
 29 28  1  0  0  0  0
 29 30  1  0  0  0  0
 30 31  1  0  0  0  0
 32 30  2  0  0  0  0
M  END
>  <MODEL>
6

>  <REMARK>
 VINA RESULT:      -7.3      2.768      4.695
  Name = 
  5 active torsions:
  status: ('A' for Active; 'I' for Inactive)
    1  A    between atoms: C_7  and  C_19
    2  A    between atoms: O_10  and  C_17
    3  A    between atoms: O_10  and  C_20
    4  A    between atoms: C_20  and  C_29
    5  A    between atoms: C_29  and  C_30
                            x       y       z     vdW  Elec       q    Type
                         _______ _______ _______ _____ _____    ______ ____

>  <TORSDO>
F 5

$$$$
=
 OpenBabel11122410533D

 32 36  0  0  1  0  0  0  0  0999 V2000
  185.6970  178.0680  141.2340 C   0  0  1  0  0  3  0  0  0  0  0  0
  189.4470  178.0000  137.8440 C   0  0  0  0  0  2  0  0  0  0  0  0
  188.4860  178.5390  136.8000 C   0  0  0  0  0  2  0  0  0  0  0  0
  183.3140  178.4260  140.4160 C   0  0  2  0  0  3  0  0  0  0  0  0
  182.6110  177.6870  139.3500 N   0  0  2  0  0  0  0  0  0  0  0  0
  186.0060  177.6960  143.4360 C   0  0  2  0  0  3  0  0  0  0  0  0
  188.0390  177.7760  141.9610 C   0  0  0  0  0  2  0  0  0  0  0  0
  183.0120  176.5820  137.2420 C   0  0  2  0  0  3  0  0  0  0  0  0
  189.0440  178.5370  139.2120 C   0  0  0  0  0  2  0  0  0  0  0  0
  187.1420  178.5060  140.9650 C   0  0  1  0  0  3  0  0  0  0  0  0
  187.5820  178.3060  139.5240 C   0  0  1  0  0  3  0  0  0  0  0  0
  185.1980  178.0220  138.8410 C   0  0  2  0  0  3  0  0  0  0  0  0
  183.1440  175.5510  138.3320 C   0  0  0  0  0  2  0  0  0  0  0  0
  187.5200  177.9860  143.3890 C   0  0  2  0  0  3  0  0  0  0  0  0
  182.7280  176.2530  139.6140 C   0  0  0  0  0  2  0  0  0  0  0  0
  187.0900  178.0020  137.0850 C   0  0  0  0  0  2  0  0  0  0  0  0
  186.6610  178.2230  138.5180 C   0  0  2  0  0  3  0  0  0  0  0  0
  184.3570  178.5400  137.8480 O   0  0  0  0  0  0  0  0  0  0  0  0
  185.3200  178.5120  142.5130 O   0  0  0  0  0  0  0  0  0  0  0  0
  182.6260  179.7550  140.6620 C   0  0  0  0  0  1  0  0  0  0  0  0
  184.0370  176.4350  136.3050 O   0  0  0  0  0  1  0  0  0  0  0  0
  184.8060  178.6580  140.1550 C   0  0  2  0  0  3  0  0  0  0  0  0
  183.0810  177.9190  137.9620 C   0  0  2  0  0  3  0  0  0  0  0  0
  184.3290  178.9600  144.7720 C   0  0  0  0  0  1  0  0  0  0  0  0
  185.4610  177.9540  144.8300 C   0  0  0  0  0  2  0  0  0  0  0  0
  188.2100  177.1290  144.2570 O   0  0  0  0  0  0  0  0  0  0  0  0
  190.1970  178.4220  144.5240 C   0  0  0  0  0  1  0  0  0  0  0  0
  188.8920  177.9650  145.1490 C   0  0  2  0  0  3  0  0  0  0  0  0
  189.2090  177.2110  146.4310 C   0  0  0  0  0  2  0  0  0  0  0  0
  188.5940  177.8770  147.6140 C   0  0  0  0  0  0  0  0  0  0  0  0
  189.3220  178.3180  148.5410 O   0  0  0  0  0  1  0  0  0  0  0  0
  187.2160  178.0230  147.6860 O   0  0  0  0  0  0  0  0  0  0  0  0
  1 19  1  1  0  0  0
  2  9  1  0  0  0  0
  3 16  1  0  0  0  0
  3  2  1  0  0  0  0
  4 20  1  6  0  0  0
  5 15  1  1  0  0  0
  5  4  1  0  0  0  0
  6 25  1  1  0  0  0
  7 14  1  0  0  0  0
  8 21  1  6  0  0  0
  8 23  1  0  0  0  0
  8 13  1  0  0  0  0
 10  1  1  0  0  0  0
 10  7  1  1  0  0  0
 11  9  1  6  0  0  0
 11 10  1  0  0  0  0
 12 18  1  6  0  0  0
 12 22  1  0  0  0  0
 13 15  1  0  0  0  0
 14  6  1  0  0  0  0
 14 26  1  1  0  0  0
 17 16  1  6  0  0  0
 17 12  1  0  0  0  0
 17 11  1  0  0  0  0
 18 23  1  0  0  0  0
 19  6  1  0  0  0  0
 22  4  1  0  0  0  0
 22  1  1  0  0  0  0
 23  5  1  0  0  0  0
 24 25  1  0  0  0  0
 26 28  1  0  0  0  0
 27 28  1  0  0  0  0
 28 29  1  0  0  0  0
 29 30  1  0  0  0  0
 30 32  2  0  0  0  0
 30 31  1  0  0  0  0
M  END
>  <MODEL>
7

>  <REMARK>
 VINA RESULT:      -7.2      2.910      5.900
  Name = 
  5 active torsions:
  status: ('A' for Active; 'I' for Inactive)
    1  A    between atoms: C_7  and  C_19
    2  A    between atoms: O_10  and  C_17
    3  A    between atoms: O_10  and  C_20
    4  A    between atoms: C_20  and  C_29
    5  A    between atoms: C_29  and  C_30
                            x       y       z     vdW  Elec       q    Type
                         _______ _______ _______ _____ _____    ______ ____

>  <TORSDO>
F 5

$$$$
=
 OpenBabel11122410533D

 32 36  0  0  1  0  0  0  0  0999 V2000
  183.1260  178.1550  139.8670 C   0  0  1  0  0  3  0  0  0  0  0  0
  185.0530  179.3870  144.3750 C   0  0  0  0  0  2  0  0  0  0  0  0
  183.7510  178.9590  145.0270 C   0  0  0  0  0  2  0  0  0  0  0  0
  180.6320  177.6780  139.6900 C   0  0  2  0  0  3  0  0  0  0  0  0
  179.5210  178.5270  140.1610 N   0  0  2  0  0  0  0  0  0  0  0  0
  184.3410  178.1020  137.9690 C   0  0  2  0  0  3  0  0  0  0  0  0
  185.5440  178.5820  140.1210 C   0  0  0  0  0  2  0  0  0  0  0  0
  178.9500  180.0830  141.9150 C   0  0  2  0  0  3  0  0  0  0  0  0
  185.2900  178.5340  143.1350 C   0  0  0  0  0  2  0  0  0  0  0  0
  184.3250  177.9650  140.8030 C   0  0  1  0  0  3  0  0  0  0  0  0
  184.0980  178.5120  142.2030 C   0  0  1  0  0  3  0  0  0  0  0  0
  181.6460  178.6300  141.7550 C   0  0  2  0  0  3  0  0  0  0  0  0
  179.5110  180.8770  140.7640 C   0  0  0  0  0  2  0  0  0  0  0  0
  185.6950  178.0190  138.7030 C   0  0  2  0  0  3  0  0  0  0  0  0
  179.7040  179.8790  139.6340 C   0  0  0  0  0  2  0  0  0  0  0  0
  182.5990  179.2470  144.0720 C   0  0  0  0  0  2  0  0  0  0  0  0
  182.8330  178.6840  142.6890 C   0  0  2  0  0  3  0  0  0  0  0  0
  180.4730  178.2260  142.4050 O   0  0  0  0  0  0  0  0  0  0  0  0
  183.3450  177.4140  138.6930 O   0  0  0  0  0  0  0  0  0  0  0  0
  180.1500  176.2520  139.5080 C   0  0  0  0  0  1  0  0  0  0  0  0
  179.4690  180.5480  143.1260 O   0  0  0  0  0  1  0  0  0  0  0  0
  181.8730  177.6930  140.5900 C   0  0  2  0  0  3  0  0  0  0  0  0
  179.3550  178.6460  141.6310 C   0  0  2  0  0  3  0  0  0  0  0  0
  183.5950  176.2520  136.4790 C   0  0  0  0  0  1  0  0  0  0  0  0
  184.4540  177.4970  136.5800 C   0  0  0  0  0  2  0  0  0  0  0  0
  186.6680  178.7590  138.0190 O   0  0  0  0  0  0  0  0  0  0  0  0
  189.0480  178.9030  138.1250 C   0  0  0  0  0  1  0  0  0  0  0  0
  187.8370  177.9890  138.0790 C   0  0  2  0  0  3  0  0  0  0  0  0
  187.9450  177.1080  136.8440 C   0  0  0  0  0  2  0  0  0  0  0  0
  188.1320  175.6780  137.2180 C   0  0  0  0  0  0  0  0  0  0  0  0
  189.2680  175.2570  137.5600 O   0  0  0  0  0  1  0  0  0  0  0  0
  187.0490  174.8110  137.2010 O   0  0  0  0  0  0  0  0  0  0  0  0
  1 19  1  6  0  0  0
  1 22  1  0  0  0  0
  1 10  1  0  0  0  0
  2  3  1  0  0  0  0
  4 20  1  1  0  0  0
  4  5  1  0  0  0  0
  4 22  1  0  0  0  0
  5 15  1  1  0  0  0
  5 23  1  0  0  0  0
  6 25  1  6  0  0  0
  6 19  1  0  0  0  0
  6 14  1  0  0  0  0
  8 21  1  1  0  0  0
  9  2  1  0  0  0  0
 10  7  1  6  0  0  0
 10 11  1  0  0  0  0
 11 17  1  0  0  0  0
 11  9  1  1  0  0  0
 12 18  1  1  0  0  0
 12 17  1  0  0  0  0
 13  8  1  0  0  0  0
 14 26  1  6  0  0  0
 14  7  1  0  0  0  0
 15 13  1  0  0  0  0
 16  3  1  0  0  0  0
 17 16  1  6  0  0  0
 22 12  1  0  0  0  0
 23  8  1  0  0  0  0
 23 18  1  0  0  0  0
 24 25  1  0  0  0  0
 26 28  1  0  0  0  0
 28 27  1  0  0  0  0
 29 30  1  0  0  0  0
 29 28  1  0  0  0  0
 30 31  1  0  0  0  0
 32 30  2  0  0  0  0
M  END
>  <MODEL>
8

>  <REMARK>
 VINA RESULT:      -7.2      3.027      8.106
  Name = 
  5 active torsions:
  status: ('A' for Active; 'I' for Inactive)
    1  A    between atoms: C_7  and  C_19
    2  A    between atoms: O_10  and  C_17
    3  A    between atoms: O_10  and  C_20
    4  A    between atoms: C_20  and  C_29
    5  A    between atoms: C_29  and  C_30
                            x       y       z     vdW  Elec       q    Type
                         _______ _______ _______ _____ _____    ______ ____

>  <TORSDO>
F 5

$$$$
=
 OpenBabel11122410533D

 32 36  0  0  1  0  0  0  0  0999 V2000
  185.3500  178.2460  140.5730 C   0  0  1  0  0  3  0  0  0  0  0  0
  189.7290  177.6860  138.1090 C   0  0  0  0  0  2  0  0  0  0  0  0
  189.0190  178.0240  136.8110 C   0  0  0  0  0  2  0  0  0  0  0  0
  183.2000  178.4150  139.2240 C   0  0  2  0  0  3  0  0  0  0  0  0
  182.7250  177.4950  138.1730 N   0  0  2  0  0  0  0  0  0  0  0  0
  185.1820  178.2530  142.8210 C   0  0  2  0  0  3  0  0  0  0  0  0
  187.4800  178.1250  141.8160 C   0  0  0  0  0  2  0  0  0  0  0  0
  183.5430  176.0610  136.4120 C   0  0  2  0  0  3  0  0  0  0  0  0
  189.0560  178.4360  139.2520 C   0  0  0  0  0  2  0  0  0  0  0  0
  186.8260  178.6610  140.5450 C   0  0  1  0  0  3  0  0  0  0  0  0
  187.5570  178.2310  139.2830 C   0  0  1  0  0  3  0  0  0  0  0  0
  185.3660  177.7910  138.1700 C   0  0  2  0  0  3  0  0  0  0  0  0
  183.4250  175.2290  137.6610 C   0  0  0  0  0  2  0  0  0  0  0  0
  186.6760  178.5600  143.0460 C   0  0  2  0  0  3  0  0  0  0  0  0
  182.7600  176.1280  138.6910 C   0  0  0  0  0  2  0  0  0  0  0  0
  187.5850  177.5150  136.8810 C   0  0  0  0  0  2  0  0  0  0  0  0
  186.8680  177.9640  138.1350 C   0  0  2  0  0  3  0  0  0  0  0  0
  184.7620  178.1190  136.9510 O   0  0  0  0  0  0  0  0  0  0  0  0
  184.7190  178.8890  141.6510 O   0  0  0  0  0  0  0  0  0  0  0  0
  182.4970  179.7520  139.0930 C   0  0  0  0  0  1  0  0  0  0  0  0
  184.7410  175.7790  135.7500 O   0  0  0  0  0  1  0  0  0  0  0  0
  184.7170  178.6290  139.2470 C   0  0  2  0  0  3  0  0  0  0  0  0
  183.4810  177.5010  136.8960 C   0  0  2  0  0  3  0  0  0  0  0  0
  182.9310  179.0030  143.5760 C   0  0  0  0  0  1  0  0  0  0  0  0
  184.3590  178.7290  144.0060 C   0  0  0  0  0  2  0  0  0  0  0  0
  187.1530  177.8740  144.1710 O   0  0  0  0  0  0  0  0  0  0  0  0
  188.6240  176.0860  143.5930 C   0  0  0  0  0  1  0  0  0  0  0  0
  188.4900  177.5690  143.8870 C   0  0  2  0  0  3  0  0  0  0  0  0
  189.3660  177.9040  145.0850 C   0  0  0  0  0  2  0  0  0  0  0  0
  190.7680  178.1820  144.6650 C   0  0  0  0  0  0  0  0  0  0  0  0
  191.6830  177.3590  144.9280 O   0  0  0  0  0  1  0  0  0  0  0  0
  191.0640  179.3470  143.9700 O   0  0  0  0  0  0  0  0  0  0  0  0
  1 19  1  1  0  0  0
  2  9  1  0  0  0  0
  3 16  1  0  0  0  0
  3  2  1  0  0  0  0
  4 20  1  6  0  0  0
  4 22  1  0  0  0  0
  5 15  1  1  0  0  0
  5  4  1  0  0  0  0
  6 14  1  0  0  0  0
  6 25  1  1  0  0  0
  7 14  1  0  0  0  0
  8 21  1  1  0  0  0
  8 23  1  0  0  0  0
  8 13  1  0  0  0  0
 10  1  1  0  0  0  0
 10  7  1  1  0  0  0
 11  9  1  6  0  0  0
 11 10  1  0  0  0  0
 12 18  1  6  0  0  0
 12 22  1  0  0  0  0
 13 15  1  0  0  0  0
 14 26  1  1  0  0  0
 17 16  1  1  0  0  0
 17 12  1  0  0  0  0
 17 11  1  0  0  0  0
 19  6  1  0  0  0  0
 22  1  1  0  0  0  0
 23 18  1  0  0  0  0
 23  5  1  0  0  0  0
 24 25  1  0  0  0  0
 27 28  1  0  0  0  0
 28 26  1  0  0  0  0
 28 29  1  0  0  0  0
 30 31  1  0  0  0  0
 30 29  1  0  0  0  0
 32 30  2  0  0  0  0
M  END
>  <MODEL>
9

>  <REMARK>
 VINA RESULT:      -7.0      2.652      5.749
  Name = 
  5 active torsions:
  status: ('A' for Active; 'I' for Inactive)
    1  A    between atoms: C_7  and  C_19
    2  A    between atoms: O_10  and  C_17
    3  A    between atoms: O_10  and  C_20
    4  A    between atoms: C_20  and  C_29
    5  A    between atoms: C_29  and  C_30
                            x       y       z     vdW  Elec       q    Type
                         _______ _______ _______ _____ _____    ______ ____

>  <TORSDO>
F 5

$$$$
