=
 OpenBabel11122411593D

 28 32  0  0  1  0  0  0  0  0999 V2000
  188.3790  176.8590  142.3870 C   0  0  0  0  0  0  0  0  0  0  0  0
  186.5650  178.2930  138.6430 O   0  0  0  0  0  0  0  0  0  0  0  0
  193.6020  178.4590  139.5940 O   0  0  0  0  0  1  0  0  0  0  0  0
  186.7190  179.1160  142.2240 C   0  0  0  0  0  3  0  0  0  0  0  0
  192.3380  176.7290  138.6640 N   0  0  0  0  0  0  0  0  0  0  0  0
  189.3220  175.7190  142.6330 C   0  0  0  0  0  2  0  0  0  0  0  0
  188.6070  179.2130  137.6280 O   0  0  0  0  0  0  0  0  0  0  0  0
  187.8490  177.9530  137.9430 S   0  0  0  0  0  0  0  0  0  0  0  0
  189.0490  176.2890  135.8510 C   0  0  2  0  0  3  0  0  0  0  0  0
  188.8020  176.8780  138.9200 N   0  0  1  0  0  0  0  0  0  0  0  0
  191.0710  178.3540  143.8330 O   0  0  0  0  0  0  0  0  0  0  0  0
  190.6550  176.7210  140.3660 C   0  0  1  0  0  3  0  0  0  0  0  0
  189.6290  175.5370  137.0420 C   0  0  0  0  0  2  0  0  0  0  0  0
  187.3630  176.9270  136.1720 S   0  0  0  0  0  0  0  0  0  0  0  0
  191.2310  177.2410  143.2680 C   0  0  0  0  0  0  0  0  0  0  0  0
  188.4680  177.7200  141.2520 C   0  0  0  0  0  0  0  0  0  0  0  0
  192.9200  177.2780  139.8850 C   0  0  2  0  0  3  0  0  0  0  0  0
  189.0110  175.3720  134.6480 C   0  0  0  0  0  1  0  0  0  0  0  0
  192.1600  177.1160  142.1910 N   0  0  0  0  0  2  0  0  0  0  0  0
  187.6440  178.8530  141.2120 C   0  0  0  0  0  3  0  0  0  0  0  0
  187.4420  177.1340  143.3920 C   0  0  0  0  0  3  0  0  0  0  0  0
  186.6100  178.2490  143.3090 C   0  0  0  0  0  3  0  0  0  0  0  0
  190.3870  176.0720  143.6800 C   0  0  0  0  0  2  0  0  0  0  0  0
  191.0720  176.1190  139.0520 C   0  0  1  0  0  3  0  0  0  0  0  0
  191.7960  177.5660  140.8560 C   0  0  2  0  0  3  0  0  0  0  0  0
  189.9690  176.5530  138.1120 C   0  0  2  0  0  3  0  0  0  0  0  0
  193.2100  175.6520  138.2260 C   0  0  0  0  0  1  0  0  0  0  0  0
  189.4120  177.5410  140.0690 C   0  0  2  0  0  3  0  0  0  0  0  0
  1  6  1  0  0  0  0
  1 21  1  0  0  0  0
  3 17  1  0  0  0  0
  4 22  1  0  0  0  0
  5 24  1  0  0  0  0
  5 17  1  0  0  0  0
  6 23  1  0  0  0  0
  7  8  2  0  0  0  0
  8  2  2  0  0  0  0
  9 18  1  6  0  0  0
  9 14  1  0  0  0  0
  9 13  1  0  0  0  0
 10  8  1  6  0  0  0
 10 28  1  0  0  0  0
 12 25  1  0  0  0  0
 13 26  1  0  0  0  0
 14  8  1  0  0  0  0
 15 23  1  0  0  0  0
 15 11  2  0  0  0  0
 16  1  2  0  0  0  0
 17 25  1  0  0  0  0
 19 15  1  0  0  0  0
 20 16  1  0  0  0  0
 20  4  2  0  0  0  0
 22 21  2  0  0  0  0
 24 12  1  0  0  0  0
 25 19  1  0  0  0  0
 26 10  1  0  0  0  0
 26 24  1  0  0  0  0
 27  5  1  0  0  0  0
 28 12  1  0  0  0  0
 28 16  1  0  0  0  0
M  END
>  <MODEL>
1

>  <REMARK>
 VINA RESULT:      -7.8      0.000      0.000
  Name = 
  0 active torsions:
  status: ('A' for Active; 'I' for Inactive)
                            x       y       z     vdW  Elec       q    Type
                         _______ _______ _______ _____ _____    ______ ____

>  <TORSDO>
F 0

$$$$
=
 OpenBabel11122411593D

 28 32  0  0  1  0  0  0  0  0999 V2000
  182.0080  175.6850  138.0630 C   0  0  0  0  0  0  0  0  0  0  0  0
  185.6480  178.0200  138.8780 O   0  0  0  0  0  0  0  0  0  0  0  0
  179.2060  180.7320  140.1410 O   0  0  0  0  0  1  0  0  0  0  0  0
  183.7690  176.5730  136.0670 C   0  0  0  0  0  3  0  0  0  0  0  0
  180.5510  179.5280  141.6220 N   0  0  0  0  0  0  0  0  0  0  0  0
  180.9450  175.1880  138.9980 C   0  0  0  0  0  2  0  0  0  0  0  0
  184.5470  180.1490  139.4290 O   0  0  0  0  0  0  0  0  0  0  0  0
  184.8780  178.7690  139.9270 S   0  0  0  0  0  0  0  0  0  0  0  0
  184.7400  179.3870  142.7870 C   0  0  2  0  0  3  0  0  0  0  0  0
  183.4380  177.8970  140.3560 N   0  0  1  0  0  0  0  0  0  0  0  0
  179.1570  177.0690  136.8290 O   0  0  0  0  0  0  0  0  0  0  0  0
  181.1010  177.7820  140.0790 C   0  0  1  0  0  3  0  0  0  0  0  0
  183.5450  178.4440  142.7440 C   0  0  0  0  0  2  0  0  0  0  0  0
  186.0810  178.8810  141.6490 S   0  0  0  0  0  0  0  0  0  0  0  0
  179.1790  176.7100  138.0340 C   0  0  0  0  0  0  0  0  0  0  0  0
  182.6200  176.9690  138.1820 C   0  0  0  0  0  0  0  0  0  0  0  0
  179.4930  179.4530  140.6180 C   0  0  2  0  0  3  0  0  0  0  0  0
  185.2830  179.4440  144.1990 C   0  0  0  0  0  1  0  0  0  0  0  0
  178.9310  177.6660  139.0660 N   0  0  0  0  0  2  0  0  0  0  0  0
  183.4750  177.3940  137.1560 C   0  0  0  0  0  3  0  0  0  0  0  0
  182.3180  174.8700  136.9660 C   0  0  0  0  0  3  0  0  0  0  0  0
  183.2000  175.3050  135.9780 C   0  0  0  0  0  3  0  0  0  0  0  0
  179.5440  175.2980  138.3820 C   0  0  0  0  0  2  0  0  0  0  0  0
  181.3530  178.3200  141.4610 C   0  0  1  0  0  3  0  0  0  0  0  0
  179.9820  178.5830  139.4800 C   0  0  2  0  0  3  0  0  0  0  0  0
  182.8250  178.6670  141.4300 C   0  0  2  0  0  3  0  0  0  0  0  0
  179.9090  179.4390  142.9220 C   0  0  0  0  0  1  0  0  0  0  0  0
  182.4070  177.9560  139.3240 C   0  0  2  0  0  3  0  0  0  0  0  0
  1 16  1  0  0  0  0
  1  6  1  0  0  0  0
  2  8  2  0  0  0  0
  3 17  1  0  0  0  0
  4 20  1  0  0  0  0
  5 27  1  0  0  0  0
  7  8  2  0  0  0  0
  8 14  1  0  0  0  0
  9 18  1  1  0  0  0
 10  8  1  6  0  0  0
 10 26  1  0  0  0  0
 11 15  2  0  0  0  0
 12 24  1  0  0  0  0
 13  9  1  0  0  0  0
 14  9  1  0  0  0  0
 15 23  1  0  0  0  0
 15 19  1  0  0  0  0
 16 28  1  0  0  0  0
 17  5  1  0  0  0  0
 19 25  1  0  0  0  0
 20 16  2  0  0  0  0
 21  1  2  0  0  0  0
 22  4  2  0  0  0  0
 22 21  1  0  0  0  0
 23  6  1  0  0  0  0
 24  5  1  0  0  0  0
 25 12  1  0  0  0  0
 25 17  1  0  0  0  0
 26 24  1  0  0  0  0
 26 13  1  0  0  0  0
 28 12  1  0  0  0  0
 28 10  1  0  0  0  0
M  END
>  <MODEL>
2

>  <REMARK>
 VINA RESULT:      -6.1      6.309      9.861
  Name = 
  0 active torsions:
  status: ('A' for Active; 'I' for Inactive)
                            x       y       z     vdW  Elec       q    Type
                         _______ _______ _______ _____ _____    ______ ____

>  <TORSDO>
F 0

$$$$
=
 OpenBabel11122411593D

 28 32  0  0  1  0  0  0  0  0999 V2000
  184.2840  175.3240  137.1680 C   0  0  0  0  0  0  0  0  0  0  0  0
  186.4290  178.5900  139.1910 O   0  0  0  0  0  0  0  0  0  0  0  0
  179.4180  178.9400  138.1060 O   0  0  0  0  0  1  0  0  0  0  0  0
  186.1950  176.9480  135.9090 C   0  0  0  0  0  3  0  0  0  0  0  0
  180.5210  178.0690  139.9710 N   0  0  0  0  0  0  0  0  0  0  0  0
  183.2070  174.4100  137.6740 C   0  0  0  0  0  2  0  0  0  0  0  0
  184.5560  180.1790  139.3110 O   0  0  0  0  0  0  0  0  0  0  0  0
  185.1500  178.9290  139.9010 S   0  0  0  0  0  0  0  0  0  0  0  0
  183.8720  179.1420  142.5290 C   0  0  2  0  0  3  0  0  0  0  0  0
  184.0350  177.6010  139.8040 N   0  0  1  0  0  0  0  0  0  0  0  0
  181.7120  175.8550  135.0060 O   0  0  0  0  0  0  0  0  0  0  0  0
  182.1070  176.7780  138.7280 C   0  0  1  0  0  3  0  0  0  0  0  0
  183.1540  177.8780  142.0750 C   0  0  0  0  0  2  0  0  0  0  0  0
  185.6020  179.2230  141.9350 S   0  0  0  0  0  0  0  0  0  0  0  0
  181.4540  175.3880  136.1460 C   0  0  0  0  0  0  0  0  0  0  0  0
  184.3480  176.7130  137.4870 C   0  0  0  0  0  0  0  0  0  0  0  0
  179.9470  177.7750  138.6610 C   0  0  2  0  0  3  0  0  0  0  0  0
  183.8640  179.2080  144.0410 C   0  0  0  0  0  1  0  0  0  0  0  0
  180.5700  176.0910  137.0200 N   0  0  0  0  0  2  0  0  0  0  0  0
  185.2970  177.5030  136.8220 C   0  0  0  0  0  3  0  0  0  0  0  0
  185.1960  174.7800  136.2540 C   0  0  0  0  0  3  0  0  0  0  0  0
  186.1520  175.5830  135.6340 C   0  0  0  0  0  3  0  0  0  0  0  0
  182.1390  174.1360  136.6070 C   0  0  0  0  0  2  0  0  0  0  0  0
  181.6900  177.2070  140.1070 C   0  0  1  0  0  3  0  0  0  0  0  0
  181.0480  177.2420  137.7710 C   0  0  2  0  0  3  0  0  0  0  0  0
  182.8790  178.0080  140.5910 C   0  0  2  0  0  3  0  0  0  0  0  0
  179.5550  177.6330  140.9650 C   0  0  0  0  0  1  0  0  0  0  0  0
  183.4480  177.4440  138.4760 C   0  0  2  0  0  3  0  0  0  0  0  0
  1 16  1  0  0  0  0
  1  6  1  0  0  0  0
  2  8  2  0  0  0  0
  3 17  1  0  0  0  0
  4 20  1  0  0  0  0
  5 24  1  0  0  0  0
  5 27  1  0  0  0  0
  7  8  2  0  0  0  0
  8 14  1  0  0  0  0
  9 18  1  1  0  0  0
 10  8  1  6  0  0  0
 10 26  1  0  0  0  0
 11 15  2  0  0  0  0
 12 24  1  0  0  0  0
 13  9  1  0  0  0  0
 14  9  1  0  0  0  0
 15 23  1  0  0  0  0
 15 19  1  0  0  0  0
 16 28  1  0  0  0  0
 17  5  1  0  0  0  0
 19 25  1  0  0  0  0
 20 16  2  0  0  0  0
 21  1  2  0  0  0  0
 22  4  2  0  0  0  0
 22 21  1  0  0  0  0
 23  6  1  0  0  0  0
 24 26  1  0  0  0  0
 25 17  1  0  0  0  0
 25 12  1  0  0  0  0
 26 13  1  0  0  0  0
 28 12  1  0  0  0  0
 28 10  1  0  0  0  0
M  END
>  <MODEL>
3

>  <REMARK>
 VINA RESULT:      -5.6      5.620      9.315
  Name = 
  0 active torsions:
  status: ('A' for Active; 'I' for Inactive)
                            x       y       z     vdW  Elec       q    Type
                         _______ _______ _______ _____ _____    ______ ____

>  <TORSDO>
F 0

$$$$
=
 OpenBabel11122411593D

 28 32  0  0  1  0  0  0  0  0999 V2000
  182.0970  177.8840  140.0360 C   0  0  0  0  0  0  0  0  0  0  0  0
  179.5290  175.6470  137.2490 O   0  0  0  0  0  0  0  0  0  0  0  0
  186.0870  177.6370  135.3830 O   0  0  0  0  0  1  0  0  0  0  0  0
  179.7260  178.9070  138.9380 C   0  0  0  0  0  3  0  0  0  0  0  0
  185.4500  175.6320  136.3970 N   0  0  0  0  0  0  0  0  0  0  0  0
  183.4070  177.5080  140.6620 C   0  0  0  0  0  2  0  0  0  0  0  0
  180.9910  175.7940  135.2770 O   0  0  0  0  0  0  0  0  0  0  0  0
  180.7740  175.1140  136.6010 S   0  0  0  0  0  0  0  0  0  0  0  0
  182.2830  172.6770  135.9940 C   0  0  2  0  0  3  0  0  0  0  0  0
  182.1420  175.3350  137.6490 N   0  0  1  0  0  0  0  0  0  0  0  0
  184.1940  180.3680  139.0360 O   0  0  0  0  0  0  0  0  0  0  0  0
  184.0590  176.6400  138.0650 C   0  0  1  0  0  3  0  0  0  0  0  0
  183.2100  173.2020  137.0820 C   0  0  0  0  0  2  0  0  0  0  0  0
  180.5210  173.0430  136.3280 S   0  0  0  0  0  0  0  0  0  0  0  0
  184.6890  179.2650  139.3830 C   0  0  0  0  0  0  0  0  0  0  0  0
  181.7570  177.5790  138.6840 C   0  0  0  0  0  0  0  0  0  0  0  0
  185.9110  177.0010  136.6120 C   0  0  2  0  0  3  0  0  0  0  0  0
  182.4620  171.1800  135.8610 C   0  0  0  0  0  1  0  0  0  0  0  0
  185.4900  178.5230  138.4630 N   0  0  0  0  0  2  0  0  0  0  0  0
  180.5790  178.1270  138.1570 C   0  0  0  0  0  3  0  0  0  0  0  0
  181.2270  178.6640  140.8100 C   0  0  0  0  0  3  0  0  0  0  0  0
  180.0440  179.1660  140.2690 C   0  0  0  0  0  3  0  0  0  0  0  0
  184.3700  178.7010  140.7350 C   0  0  0  0  0  2  0  0  0  0  0  0
  184.5340  175.3330  137.4920 C   0  0  1  0  0  3  0  0  0  0  0  0
  184.8590  177.7340  137.4160 C   0  0  2  0  0  3  0  0  0  0  0  0
  183.2630  174.7100  136.9590 C   0  0  2  0  0  3  0  0  0  0  0  0
  186.6050  174.7660  136.5620 C   0  0  0  0  0  1  0  0  0  0  0  0
  182.5810  176.7260  137.7280 C   0  0  2  0  0  3  0  0  0  0  0  0
  1  6  1  0  0  0  0
  1 21  1  0  0  0  0
  3 17  1  0  0  0  0
  4 22  1  0  0  0  0
  5 27  1  0  0  0  0
  5 17  1  0  0  0  0
  5 24  1  0  0  0  0
  6 23  1  0  0  0  0
  7  8  2  0  0  0  0
  8  2  2  0  0  0  0
  9 18  1  1  0  0  0
  9 14  1  0  0  0  0
  9 13  1  0  0  0  0
 10  8  1  6  0  0  0
 10 28  1  0  0  0  0
 11 15  2  0  0  0  0
 14  8  1  0  0  0  0
 15 23  1  0  0  0  0
 16  1  2  0  0  0  0
 17 25  1  0  0  0  0
 19 15  1  0  0  0  0
 20 16  1  0  0  0  0
 20  4  2  0  0  0  0
 22 21  2  0  0  0  0
 24 12  1  0  0  0  0
 25 12  1  0  0  0  0
 25 19  1  0  0  0  0
 26 13  1  0  0  0  0
 26 24  1  0  0  0  0
 26 10  1  0  0  0  0
 28 12  1  0  0  0  0
 28 16  1  0  0  0  0
M  END
>  <MODEL>
4

>  <REMARK>
 VINA RESULT:      -5.5      5.828      7.495
  Name = 
  0 active torsions:
  status: ('A' for Active; 'I' for Inactive)
                            x       y       z     vdW  Elec       q    Type
                         _______ _______ _______ _____ _____    ______ ____

>  <TORSDO>
F 0

$$$$
=
 OpenBabel11122411593D

 28 32  0  0  1  0  0  0  0  0999 V2000
  186.5660  177.6660  142.9230 C   0  0  0  0  0  0  0  0  0  0  0  0
  183.0010  179.3070  140.9330 O   0  0  0  0  0  0  0  0  0  0  0  0
  189.4310  179.8760  137.9680 O   0  0  0  0  0  1  0  0  0  0  0  0
  185.0620  179.8060  143.9370 C   0  0  0  0  0  3  0  0  0  0  0  0
  187.8800  178.1540  137.6710 N   0  0  0  0  0  0  0  0  0  0  0  0
  187.5020  176.5760  142.4920 C   0  0  0  0  0  2  0  0  0  0  0  0
  184.1600  180.4560  139.0940 O   0  0  0  0  0  0  0  0  0  0  0  0
  183.7050  179.1220  139.6190 S   0  0  0  0  0  0  0  0  0  0  0  0
  183.5970  177.7460  137.0360 C   0  0  2  0  0  3  0  0  0  0  0  0
  185.0450  178.0320  139.8010 N   0  0  1  0  0  0  0  0  0  0  0  0
  189.5980  179.2060  142.8580 O   0  0  0  0  0  0  0  0  0  0  0  0
  187.3870  177.8730  139.9960 C   0  0  1  0  0  3  0  0  0  0  0  0
  184.7350  176.9300  137.6330 C   0  0  0  0  0  2  0  0  0  0  0  0
  182.3470  178.2320  138.2820 S   0  0  0  0  0  0  0  0  0  0  0  0
  189.4370  178.1640  142.1730 C   0  0  0  0  0  0  0  0  0  0  0  0
  186.0190  178.6310  142.0250 C   0  0  0  0  0  0  0  0  0  0  0  0
  189.0260  178.6280  138.4430 C   0  0  2  0  0  3  0  0  0  0  0  0
  182.9220  176.9430  135.9450 C   0  0  0  0  0  1  0  0  0  0  0  0
  189.6370  178.2030  140.7590 N   0  0  0  0  0  2  0  0  0  0  0  0
  185.2940  179.7020  142.5650 C   0  0  0  0  0  3  0  0  0  0  0  0
  186.3200  177.7810  144.2980 C   0  0  0  0  0  3  0  0  0  0  0  0
  185.5650  178.8380  144.8030 C   0  0  0  0  0  3  0  0  0  0  0  0
  188.9620  176.9060  142.8350 C   0  0  0  0  0  2  0  0  0  0  0  0
  187.0320  177.4240  138.6050 C   0  0  1  0  0  3  0  0  0  0  0  0
  188.6040  178.7470  139.8910 C   0  0  2  0  0  3  0  0  0  0  0  0
  185.5910  177.8650  138.4610 C   0  0  2  0  0  3  0  0  0  0  0  0
  188.3860  177.1860  136.7130 C   0  0  0  0  0  1  0  0  0  0  0  0
  186.1740  178.6280  140.5100 C   0  0  2  0  0  3  0  0  0  0  0  0
  1 21  1  0  0  0  0
  3 17  1  0  0  0  0
  4 22  1  0  0  0  0
  5 17  1  0  0  0  0
  5 24  1  0  0  0  0
  6 23  1  0  0  0  0
  6  1  1  0  0  0  0
  7  8  2  0  0  0  0
  8  2  2  0  0  0  0
  9 18  1  6  0  0  0
  9 13  1  0  0  0  0
  9 14  1  0  0  0  0
 10  8  1  6  0  0  0
 10 28  1  0  0  0  0
 12 28  1  0  0  0  0
 13 26  1  0  0  0  0
 14  8  1  0  0  0  0
 15 23  1  0  0  0  0
 15 11  2  0  0  0  0
 16 20  1  0  0  0  0
 16  1  2  0  0  0  0
 17 25  1  0  0  0  0
 19 15  1  0  0  0  0
 20  4  2  0  0  0  0
 21 22  2  0  0  0  0
 24 12  1  0  0  0  0
 25 12  1  0  0  0  0
 25 19  1  0  0  0  0
 26 24  1  0  0  0  0
 26 10  1  0  0  0  0
 27  5  1  0  0  0  0
 28 16  1  0  0  0  0
M  END
>  <MODEL>
5

>  <REMARK>
 VINA RESULT:      -5.3      3.031      3.955
  Name = 
  0 active torsions:
  status: ('A' for Active; 'I' for Inactive)
                            x       y       z     vdW  Elec       q    Type
                         _______ _______ _______ _____ _____    ______ ____

>  <TORSDO>
F 0

$$$$
=
 OpenBabel11122411593D

 28 32  0  0  1  0  0  0  0  0999 V2000
  191.5040  174.5020  137.3780 C   0  0  0  0  0  0  0  0  0  0  0  0
  193.4220  176.3880  140.8600 O   0  0  0  0  0  0  0  0  0  0  0  0
  188.3370  179.7530  137.2170 O   0  0  0  0  0  1  0  0  0  0  0  0
  194.2060  175.2570  137.4500 C   0  0  0  0  0  3  0  0  0  0  0  0
  188.0650  178.3570  139.0690 N   0  0  0  0  0  0  0  0  0  0  0  0
  190.0780  174.0940  137.1590 C   0  0  0  0  0  2  0  0  0  0  0  0
  192.3830  178.6060  140.6370 O   0  0  0  0  0  0  0  0  0  0  0  0
  192.1630  177.1820  141.0660 S   0  0  0  0  0  0  0  0  0  0  0  0
  189.9650  177.7120  142.9280 C   0  0  2  0  0  3  0  0  0  0  0  0
  190.8460  176.4610  140.1930 N   0  0  1  0  0  0  0  0  0  0  0  0
  190.6020  176.2360  134.5940 O   0  0  0  0  0  0  0  0  0  0  0  0
  189.4980  176.6160  138.2670 C   0  0  1  0  0  3  0  0  0  0  0  0
  189.1600  176.9090  141.9150 C   0  0  0  0  0  2  0  0  0  0  0  0
  191.6810  177.0990  143.1120 S   0  0  0  0  0  0  0  0  0  0  0  0
  189.6990  175.8350  135.3730 C   0  0  0  0  0  0  0  0  0  0  0  0
  191.8820  175.7050  138.0450 C   0  0  0  0  0  0  0  0  0  0  0  0
  188.1090  178.4350  137.6110 C   0  0  2  0  0  3  0  0  0  0  0  0
  189.2730  177.6590  144.2740 C   0  0  0  0  0  1  0  0  0  0  0  0
  188.8100  176.7770  135.9750 N   0  0  0  0  0  2  0  0  0  0  0  0
  193.2370  176.0680  138.0420 C   0  0  0  0  0  3  0  0  0  0  0  0
  192.4900  173.6950  136.7920 C   0  0  0  0  0  3  0  0  0  0  0  0
  193.8330  174.0640  136.8350 C   0  0  0  0  0  3  0  0  0  0  0  0
  189.6130  174.3800  135.7240 C   0  0  0  0  0  2  0  0  0  0  0  0
  188.6590  177.0740  139.4280 C   0  0  1  0  0  3  0  0  0  0  0  0
  189.2410  177.5560  137.1250 C   0  0  2  0  0  3  0  0  0  0  0  0
  189.6750  177.2570  140.5340 C   0  0  2  0  0  3  0  0  0  0  0  0
  186.6630  178.2950  139.4480 C   0  0  0  0  0  1  0  0  0  0  0  0
  190.9360  176.6690  138.7500 C   0  0  2  0  0  3  0  0  0  0  0  0
  1 16  1  0  0  0  0
  2  8  2  0  0  0  0
  3 17  1  0  0  0  0
  4 20  1  0  0  0  0
  5 24  1  0  0  0  0
  5 27  1  0  0  0  0
  6  1  1  0  0  0  0
  7  8  2  0  0  0  0
  8 14  1  0  0  0  0
  9 14  1  0  0  0  0
  9 18  1  1  0  0  0
 10 26  1  0  0  0  0
 10  8  1  1  0  0  0
 11 15  2  0  0  0  0
 12 28  1  0  0  0  0
 12 24  1  0  0  0  0
 13  9  1  0  0  0  0
 15 23  1  0  0  0  0
 15 19  1  0  0  0  0
 16 28  1  0  0  0  0
 17  5  1  0  0  0  0
 19 25  1  0  0  0  0
 20 16  2  0  0  0  0
 21 22  1  0  0  0  0
 21  1  2  0  0  0  0
 22  4  2  0  0  0  0
 23  6  1  0  0  0  0
 24 26  1  0  0  0  0
 25 17  1  0  0  0  0
 25 12  1  0  0  0  0
 26 13  1  0  0  0  0
 28 10  1  0  0  0  0
M  END
>  <MODEL>
6

>  <REMARK>
 VINA RESULT:      -5.2      2.441      6.675
  Name = 
  0 active torsions:
  status: ('A' for Active; 'I' for Inactive)
                            x       y       z     vdW  Elec       q    Type
                         _______ _______ _______ _____ _____    ______ ____

>  <TORSDO>
F 0

$$$$
=
 OpenBabel11122411593D

 28 32  0  0  1  0  0  0  0  0999 V2000
  188.7520  175.9710  135.5970 C   0  0  0  0  0  0  0  0  0  0  0  0
  186.6830  172.1890  136.4760 O   0  0  0  0  0  0  0  0  0  0  0  0
  184.8180  178.2190  139.7330 O   0  0  0  0  0  1  0  0  0  0  0  0
  189.9790  173.7770  136.8430 C   0  0  0  0  0  3  0  0  0  0  0  0
  183.9530  177.3580  137.7410 N   0  0  0  0  0  0  0  0  0  0  0  0
  188.2340  177.2430  134.9950 C   0  0  0  0  0  2  0  0  0  0  0  0
  185.3050  173.0030  138.3430 O   0  0  0  0  0  0  0  0  0  0  0  0
  185.4700  172.9910  136.8490 S   0  0  0  0  0  0  0  0  0  0  0  0
  182.6640  173.5070  136.1840 C   0  0  2  0  0  3  0  0  0  0  0  0
  185.5990  174.6060  136.2220 N   0  0  1  0  0  0  0  0  0  0  0  0
  189.4320  178.3080  137.9740 O   0  0  0  0  0  0  0  0  0  0  0  0
  186.0770  176.8500  136.7600 C   0  0  1  0  0  3  0  0  0  0  0  0
  183.2260  174.8160  135.6440 C   0  0  0  0  0  2  0  0  0  0  0  0
  183.8010  172.0940  135.9350 S   0  0  0  0  0  0  0  0  0  0  0  0
  188.5260  178.5480  137.1340 C   0  0  0  0  0  0  0  0  0  0  0  0
  188.0120  175.1870  136.5310 C   0  0  0  0  0  0  0  0  0  0  0  0
  184.9580  178.2300  138.3450 C   0  0  2  0  0  3  0  0  0  0  0  0
  181.3460  173.2080  135.5030 C   0  0  0  0  0  1  0  0  0  0  0  0
  187.1940  178.8070  137.5790 N   0  0  0  0  0  2  0  0  0  0  0  0
  188.6620  174.1130  137.1560 C   0  0  0  0  0  3  0  0  0  0  0  0
  190.0730  175.6190  135.2890 C   0  0  0  0  0  3  0  0  0  0  0  0
  190.6820  174.5240  135.9000 C   0  0  0  0  0  3  0  0  0  0  0  0
  188.8360  178.4840  135.6690 C   0  0  0  0  0  2  0  0  0  0  0  0
  184.5870  176.7500  136.5770 C   0  0  1  0  0  3  0  0  0  0  0  0
  186.3270  177.7050  137.9680 C   0  0  2  0  0  3  0  0  0  0  0  0
  184.3430  175.2570  136.5670 C   0  0  2  0  0  3  0  0  0  0  0  0
  182.8910  178.2170  137.2450 C   0  0  0  0  0  1  0  0  0  0  0  0
  186.5660  175.4250  136.9480 C   0  0  2  0  0  3  0  0  0  0  0  0
  1 16  1  0  0  0  0
  2  8  2  0  0  0  0
  4 20  1  0  0  0  0
  5 17  1  0  0  0  0
  6  1  1  0  0  0  0
  6 23  1  0  0  0  0
  8  7  2  0  0  0  0
  9 18  1  6  0  0  0
 10 26  1  0  0  0  0
 10  8  1  1  0  0  0
 10 28  1  0  0  0  0
 12 28  1  0  0  0  0
 12 25  1  0  0  0  0
 13  9  1  0  0  0  0
 13 26  1  0  0  0  0
 14  9  1  0  0  0  0
 14  8  1  0  0  0  0
 15 19  1  0  0  0  0
 15 11  2  0  0  0  0
 16 28  1  0  0  0  0
 16 20  2  0  0  0  0
 17  3  1  0  0  0  0
 19 25  1  0  0  0  0
 21  1  2  0  0  0  0
 21 22  1  0  0  0  0
 22  4  2  0  0  0  0
 23 15  1  0  0  0  0
 24 12  1  0  0  0  0
 24  5  1  0  0  0  0
 25 17  1  0  0  0  0
 26 24  1  0  0  0  0
 27  5  1  0  0  0  0
M  END
>  <MODEL>
7

>  <REMARK>
 VINA RESULT:      -5.1      4.557      7.215
  Name = 
  0 active torsions:
  status: ('A' for Active; 'I' for Inactive)
                            x       y       z     vdW  Elec       q    Type
                         _______ _______ _______ _____ _____    ______ ____

>  <TORSDO>
F 0

$$$$
=
 OpenBabel11122411593D

 28 32  0  0  1  0  0  0  0  0999 V2000
  192.8360  174.6170  135.2390 C   0  0  0  0  0  0  0  0  0  0  0  0
  189.0140  172.4630  134.9050 O   0  0  0  0  0  0  0  0  0  0  0  0
  190.4270  176.5500  140.5400 O   0  0  0  0  0  1  0  0  0  0  0  0
  192.6140  171.8200  135.2890 C   0  0  0  0  0  3  0  0  0  0  0  0
  189.3790  177.1890  138.5530 N   0  0  0  0  0  0  0  0  0  0  0  0
  193.1190  176.0890  135.2850 C   0  0  0  0  0  2  0  0  0  0  0  0
  188.1550  172.9820  137.1500 O   0  0  0  0  0  0  0  0  0  0  0  0
  188.3920  173.5240  135.7670 S   0  0  0  0  0  0  0  0  0  0  0  0
  186.3480  175.6200  135.8560 C   0  0  2  0  0  3  0  0  0  0  0  0
  189.4060  174.9330  135.8130 N   0  0  1  0  0  0  0  0  0  0  0  0
  194.4880  175.0140  138.1860 O   0  0  0  0  0  0  0  0  0  0  0  0
  190.9670  176.1430  137.0990 C   0  0  1  0  0  3  0  0  0  0  0  0
  187.5570  176.5430  135.7860 C   0  0  0  0  0  2  0  0  0  0  0  0
  186.5710  174.0880  134.8790 S   0  0  0  0  0  0  0  0  0  0  0  0
  193.9110  176.0110  137.6800 C   0  0  0  0  0  0  0  0  0  0  0  0
  191.7290  174.0090  135.9030 C   0  0  0  0  0  0  0  0  0  0  0  0
  190.6480  177.0740  139.2670 C   0  0  2  0  0  3  0  0  0  0  0  0
  185.1250  176.3550  135.3520 C   0  0  0  0  0  1  0  0  0  0  0  0
  192.8950  176.6950  138.4140 N   0  0  0  0  0  2  0  0  0  0  0  0
  191.6600  172.6090  135.9320 C   0  0  0  0  0  3  0  0  0  0  0  0
  193.7840  173.8110  134.5930 C   0  0  0  0  0  3  0  0  0  0  0  0
  193.6700  172.4220  134.6090 C   0  0  0  0  0  3  0  0  0  0  0  0
  194.2410  176.4260  136.2770 C   0  0  0  0  0  2  0  0  0  0  0  0
  189.6700  176.9040  137.1530 C   0  0  1  0  0  3  0  0  0  0  0  0
  191.5490  176.1450  138.4830 C   0  0  2  0  0  3  0  0  0  0  0  0
  188.6690  175.9140  136.5990 C   0  0  2  0  0  3  0  0  0  0  0  0
  188.9760  178.5830  138.6260 C   0  0  0  0  0  1  0  0  0  0  0  0
  190.6070  174.7470  136.6240 C   0  0  2  0  0  3  0  0  0  0  0  0
  1  6  1  0  0  0  0
  1 16  1  0  0  0  0
  2  8  2  0  0  0  0
  4 20  1  0  0  0  0
  5 27  1  0  0  0  0
  5 17  1  0  0  0  0
  6 23  1  0  0  0  0
  8  7  2  0  0  0  0
  9 18  1  6  0  0  0
 10  8  1  1  0  0  0
 10 26  1  0  0  0  0
 10 28  1  0  0  0  0
 12 24  1  0  0  0  0
 12 25  1  0  0  0  0
 13  9  1  0  0  0  0
 13 26  1  0  0  0  0
 14  8  1  0  0  0  0
 14  9  1  0  0  0  0
 15 11  2  0  0  0  0
 15 19  1  0  0  0  0
 16 20  2  0  0  0  0
 16 28  1  0  0  0  0
 17  3  1  0  0  0  0
 19 25  1  0  0  0  0
 21 22  1  0  0  0  0
 21  1  2  0  0  0  0
 22  4  2  0  0  0  0
 23 15  1  0  0  0  0
 24  5  1  0  0  0  0
 25 17  1  0  0  0  0
 26 24  1  0  0  0  0
 28 12  1  0  0  0  0
M  END
>  <MODEL>
8

>  <REMARK>
 VINA RESULT:      -5.1      3.281      6.447
  Name = 
  0 active torsions:
  status: ('A' for Active; 'I' for Inactive)
                            x       y       z     vdW  Elec       q    Type
                         _______ _______ _______ _____ _____    ______ ____

>  <TORSDO>
F 0

$$$$
=
 OpenBabel11122411593D

 28 32  0  0  1  0  0  0  0  0999 V2000
  188.4610  176.4720  136.0540 C   0  0  0  0  0  0  0  0  0  0  0  0
  185.1730  173.5610  135.7810 O   0  0  0  0  0  0  0  0  0  0  0  0
  185.5290  178.1790  141.1660 O   0  0  0  0  0  1  0  0  0  0  0  0
  188.8130  173.6980  136.2820 C   0  0  0  0  0  3  0  0  0  0  0  0
  184.4400  178.4700  139.1200 N   0  0  0  0  0  0  0  0  0  0  0  0
  188.4360  177.9720  136.0100 C   0  0  0  0  0  2  0  0  0  0  0  0
  184.1500  174.0260  137.9690 O   0  0  0  0  0  0  0  0  0  0  0  0
  184.3190  174.5210  136.5590 S   0  0  0  0  0  0  0  0  0  0  0  0
  181.8880  176.1530  136.4670 C   0  0  2  0  0  3  0  0  0  0  0  0
  185.0210  176.1090  136.5340 N   0  0  1  0  0  0  0  0  0  0  0  0
  189.8950  177.3760  139.0030 O   0  0  0  0  0  0  0  0  0  0  0  0
  186.2570  177.6890  137.7700 C   0  0  1  0  0  3  0  0  0  0  0  0
  182.8840  177.2990  136.3630 C   0  0  0  0  0  2  0  0  0  0  0  0
  182.4520  174.6440  135.5970 S   0  0  0  0  0  0  0  0  0  0  0  0
  189.1450  178.2010  138.4210 C   0  0  0  0  0  0  0  0  0  0  0  0
  187.4790  175.6910  136.7330 C   0  0  0  0  0  0  0  0  0  0  0  0
  185.6810  178.6620  139.8660 C   0  0  2  0  0  3  0  0  0  0  0  0
  180.5580  176.5890  135.8910 C   0  0  0  0  0  1  0  0  0  0  0  0
  187.9860  178.7030  139.0880 N   0  0  0  0  0  2  0  0  0  0  0  0
  187.6970  174.3110  136.8520 C   0  0  0  0  0  3  0  0  0  0  0  0
  189.5740  175.8420  135.4830 C   0  0  0  0  0  3  0  0  0  0  0  0
  189.7470  174.4630  135.5860 C   0  0  0  0  0  3  0  0  0  0  0  0
  189.4300  178.5910  137.0020 C   0  0  0  0  0  2  0  0  0  0  0  0
  184.8310  178.1680  137.7480 C   0  0  1  0  0  3  0  0  0  0  0  0
  186.7790  177.8930  139.1630 C   0  0  2  0  0  3  0  0  0  0  0  0
  184.0730  176.9620  137.2380 C   0  0  2  0  0  3  0  0  0  0  0  0
  183.7590  179.7530  139.0930 C   0  0  0  0  0  1  0  0  0  0  0  0
  186.2060  176.2230  137.3800 C   0  0  2  0  0  3  0  0  0  0  0  0
  1 16  1  0  0  0  0
  2  8  2  0  0  0  0
  4 20  1  0  0  0  0
  5 17  1  0  0  0  0
  6  1  1  0  0  0  0
  6 23  1  0  0  0  0
  8  7  2  0  0  0  0
  9 18  1  6  0  0  0
 10  8  1  1  0  0  0
 10 26  1  0  0  0  0
 10 28  1  0  0  0  0
 12 25  1  0  0  0  0
 13  9  1  0  0  0  0
 13 26  1  0  0  0  0
 14  9  1  0  0  0  0
 14  8  1  0  0  0  0
 15 11  2  0  0  0  0
 15 19  1  0  0  0  0
 16 20  2  0  0  0  0
 16 28  1  0  0  0  0
 17  3  1  0  0  0  0
 19 25  1  0  0  0  0
 21 22  1  0  0  0  0
 21  1  2  0  0  0  0
 22  4  2  0  0  0  0
 23 15  1  0  0  0  0
 24 12  1  0  0  0  0
 24  5  1  0  0  0  0
 25 17  1  0  0  0  0
 26 24  1  0  0  0  0
 27  5  1  0  0  0  0
 28 12  1  0  0  0  0
M  END
>  <MODEL>
9

>  <REMARK>
 VINA RESULT:      -5.0      4.037      6.796
  Name = 
  0 active torsions:
  status: ('A' for Active; 'I' for Inactive)
                            x       y       z     vdW  Elec       q    Type
                         _______ _______ _______ _____ _____    ______ ____

>  <TORSDO>
F 0

$$$$
