=
 OpenBabel11122411563D

 28 32  0  0  1  0  0  0  0  0999 V2000
  180.6060  177.7040  138.0340 C   0  0  0  0  0  0  0  0  0  0  0  0
  183.9550  173.7390  137.4620 C   0  0  0  0  0  1  0  0  0  0  0  0
  184.5710  180.0110  139.4610 O   0  0  0  0  0  0  0  0  0  0  0  0
  181.0040  179.4020  135.8410 C   0  0  0  0  0  3  0  0  0  0  0  0
  185.4400  178.3390  137.9820 C   0  0  0  0  0  0  0  0  0  0  0  0
  180.4180  176.8640  139.2600 C   0  0  0  0  0  2  0  0  0  0  0  0
  182.3130  173.7780  135.6330 C   0  0  0  0  0  1  0  0  0  0  0  0
  183.6140  174.3830  136.1200 C   0  0  0  0  0  0  0  0  0  0  0  0
  186.0220  174.6910  135.4700 C   0  0  1  0  0  3  0  0  0  0  0  0
  183.4340  175.9260  136.2040 C   0  0  2  0  0  3  0  0  0  0  0  0
  181.6400  179.6980  139.9640 F   0  0  0  0  0  0  0  0  0  0  0  0
  183.8030  176.6820  138.4980 C   0  0  1  0  0  3  0  0  0  0  0  0
  185.8670  176.1990  135.3570 C   0  0  0  0  0  2  0  0  0  0  0  0
  184.7020  174.0190  135.1110 C   0  0  0  0  0  2  0  0  0  0  0  0
  181.6700  178.5630  140.7570 C   0  0  2  0  0  3  0  0  0  0  0  0
  181.7240  177.5100  137.1960 C   0  0  0  0  0  0  0  0  0  0  0  0
  184.5110  178.8640  138.9440 C   0  0  0  0  0  0  0  0  0  0  0  0
  187.0160  174.2600  134.5940 O   0  0  0  0  0  1  0  0  0  0  0  0
  182.9890  177.8020  140.6370 C   0  0  0  0  0  2  0  0  0  0  0  0
  181.9210  178.3840  136.1130 C   0  0  0  0  0  3  0  0  0  0  0  0
  179.6820  178.7170  137.7440 C   0  0  0  0  0  3  0  0  0  0  0  0
  179.8800  179.5620  136.6510 C   0  0  0  0  0  3  0  0  0  0  0  0
  180.4280  177.6900  140.5490 C   0  0  0  0  0  2  0  0  0  0  0  0
  185.1090  176.9160  137.6990 C   0  0  1  0  0  3  0  0  0  0  0  0
  183.5450  177.8870  139.2910 N   0  0  0  0  0  0  0  0  0  0  0  0
  184.7360  176.7320  136.2390 C   0  0  2  0  0  3  0  0  0  0  0  0
  186.4120  178.9730  137.4930 O   0  0  0  0  0  0  0  0  0  0  0  0
  182.6950  176.3720  137.4670 C   0  0  1  0  0  3  0  0  0  0  0  0
  1  6  1  0  0  0  0
  4 20  2  0  0  0  0
  4 22  1  0  0  0  0
  5 17  1  0  0  0  0
  6 23  1  0  0  0  0
  7  8  1  0  0  0  0
  8  2  1  0  0  0  0
  9 18  1  6  0  0  0
 10  8  1  1  0  0  0
 10 26  1  0  0  0  0
 10 28  1  0  0  0  0
 12 25  1  6  0  0  0
 13  9  1  0  0  0  0
 14  9  1  0  0  0  0
 14  8  1  0  0  0  0
 15 11  1  6  0  0  0
 16  1  2  0  0  0  0
 17 25  1  0  0  0  0
 17  3  2  0  0  0  0
 19 15  1  0  0  0  0
 20 16  1  0  0  0  0
 21  1  1  0  0  0  0
 22 21  2  0  0  0  0
 23 15  1  0  0  0  0
 24  5  1  6  0  0  0
 24 12  1  0  0  0  0
 25 19  1  0  0  0  0
 26 13  1  6  0  0  0
 26 24  1  0  0  0  0
 27  5  2  0  0  0  0
 28 16  1  6  0  0  0
 28 12  1  0  0  0  0
M  END
>  <MODEL>
1

>  <REMARK>
 VINA RESULT:      -5.3      0.000      0.000
  Name = 
  0 active torsions:
  status: ('A' for Active; 'I' for Inactive)
                            x       y       z     vdW  Elec       q    Type
                         _______ _______ _______ _____ _____    ______ ____

>  <TORSDO>
F 0

$$$$
=
 OpenBabel11122411563D

 28 32  0  0  1  0  0  0  0  0999 V2000
  182.3250  179.1830  138.7450 C   0  0  0  0  0  0  0  0  0  0  0  0
  179.4150  175.8960  135.9180 C   0  0  0  0  0  1  0  0  0  0  0  0
  179.1610  178.0300  142.1710 O   0  0  0  0  0  0  0  0  0  0  0  0
  183.9410  177.5960  140.3940 C   0  0  0  0  0  3  0  0  0  0  0  0
  179.1470  176.0890  140.7690 C   0  0  0  0  0  0  0  0  0  0  0  0
  181.4250  180.0670  137.9370 C   0  0  0  0  0  2  0  0  0  0  0  0
  181.8030  175.6310  135.3990 C   0  0  0  0  0  1  0  0  0  0  0  0
  180.7150  175.2400  136.3790 C   0  0  0  0  0  0  0  0  0  0  0  0
  179.5520  173.2380  137.3530 C   0  0  1  0  0  3  0  0  0  0  0  0
  181.1590  175.6820  137.8030 C   0  0  2  0  0  3  0  0  0  0  0  0
  180.7870  180.2670  141.0320 F   0  0  0  0  0  0  0  0  0  0  0  0
  179.5370  177.2590  138.7270 C   0  0  1  0  0  3  0  0  0  0  0  0
  180.1010  173.5120  138.7430 C   0  0  0  0  0  2  0  0  0  0  0  0
  180.5500  173.7230  136.3090 C   0  0  0  0  0  2  0  0  0  0  0  0
  179.9550  180.6390  139.9890 C   0  0  2  0  0  3  0  0  0  0  0  0
  182.0650  177.8010  138.8540 C   0  0  0  0  0  0  0  0  0  0  0  0
  179.2730  177.4940  141.0360 C   0  0  0  0  0  0  0  0  0  0  0  0
  179.3460  171.8680  137.1970 O   0  0  0  0  0  1  0  0  0  0  0  0
  178.9320  179.5570  139.6440 C   0  0  0  0  0  2  0  0  0  0  0  0
  182.8720  177.0230  139.7020 C   0  0  0  0  0  3  0  0  0  0  0  0
  183.4110  179.7470  139.4300 C   0  0  0  0  0  3  0  0  0  0  0  0
  184.2160  178.9560  140.2490 C   0  0  0  0  0  3  0  0  0  0  0  0
  180.7480  181.1510  138.7820 C   0  0  0  0  0  2  0  0  0  0  0  0
  179.2230  175.8550  139.3010 C   0  0  1  0  0  3  0  0  0  0  0  0
  179.4740  178.2170  139.8340 N   0  0  0  0  0  0  0  0  0  0  0  0
  180.4240  174.9920  138.9560 C   0  0  2  0  0  3  0  0  0  0  0  0
  178.9550  175.1990  141.6390 O   0  0  0  0  0  0  0  0  0  0  0  0
  180.9290  177.1720  138.0630 C   0  0  1  0  0  3  0  0  0  0  0  0
  1 16  2  0  0  0  0
  1 21  1  0  0  0  0
  2  8  1  0  0  0  0
  5 17  1  0  0  0  0
  5 27  2  0  0  0  0
  6  1  1  0  0  0  0
  6 23  1  0  0  0  0
  7  8  1  0  0  0  0
  9 18  1  1  0  0  0
  9 13  1  0  0  0  0
 10  8  1  6  0  0  0
 10 28  1  0  0  0  0
 10 26  1  0  0  0  0
 12 24  1  0  0  0  0
 12 25  1  1  0  0  0
 14  8  1  0  0  0  0
 14  9  1  0  0  0  0
 15 11  1  1  0  0  0
 16 20  1  0  0  0  0
 17  3  2  0  0  0  0
 19 25  1  0  0  0  0
 19 15  1  0  0  0  0
 20  4  2  0  0  0  0
 21 22  2  0  0  0  0
 22  4  1  0  0  0  0
 23 15  1  0  0  0  0
 24  5  1  1  0  0  0
 25 17  1  0  0  0  0
 26 13  1  6  0  0  0
 26 24  1  0  0  0  0
 28 12  1  0  0  0  0
 28 16  1  1  0  0  0
M  END
>  <MODEL>
2

>  <REMARK>
 VINA RESULT:      -5.3      3.482      5.086
  Name = 
  0 active torsions:
  status: ('A' for Active; 'I' for Inactive)
                            x       y       z     vdW  Elec       q    Type
                         _______ _______ _______ _____ _____    ______ ____

>  <TORSDO>
F 0

$$$$
=
 OpenBabel11122411563D

 28 32  0  0  1  0  0  0  0  0999 V2000
  181.9990  177.5890  137.2210 C   0  0  0  0  0  0  0  0  0  0  0  0
  186.1940  175.4690  134.9490 C   0  0  0  0  0  1  0  0  0  0  0  0
  180.1920  173.1920  136.5300 O   0  0  0  0  0  0  0  0  0  0  0  0
  181.9650  176.6500  139.8600 C   0  0  0  0  0  3  0  0  0  0  0  0
  182.5440  172.7740  136.6940 C   0  0  0  0  0  0  0  0  0  0  0  0
  181.9370  178.0510  135.7970 C   0  0  0  0  0  2  0  0  0  0  0  0
  186.8470  176.9660  136.7860 C   0  0  0  0  0  1  0  0  0  0  0  0
  186.3650  175.5650  136.4630 C   0  0  0  0  0  0  0  0  0  0  0  0
  186.9960  173.1460  136.7110 C   0  0  1  0  0  3  0  0  0  0  0  0
  185.0490  175.3090  137.2510 C   0  0  2  0  0  3  0  0  0  0  0  0
  179.5370  176.1100  136.4980 F   0  0  0  0  0  0  0  0  0  0  0  0
  183.2280  174.8270  135.6920 C   0  0  1  0  0  3  0  0  0  0  0  0
  185.8240  172.8670  137.6370 C   0  0  0  0  0  2  0  0  0  0  0  0
  187.4550  174.5870  136.8970 C   0  0  0  0  0  2  0  0  0  0  0  0
  180.0010  176.4290  135.2340 C   0  0  2  0  0  3  0  0  0  0  0  0
  182.8630  176.5410  137.5980 C   0  0  0  0  0  0  0  0  0  0  0  0
  181.3860  173.5530  136.3550 C   0  0  0  0  0  0  0  0  0  0  0  0
  188.0450  172.2810  137.0170 O   0  0  0  0  0  1  0  0  0  0  0  0
  180.9560  175.3730  134.6780 C   0  0  0  0  0  2  0  0  0  0  0  0
  182.8180  176.0670  138.9210 C   0  0  0  0  0  3  0  0  0  0  0  0
  181.1580  178.1810  138.1740 C   0  0  0  0  0  3  0  0  0  0  0  0
  181.1430  177.7140  139.4890 C   0  0  0  0  0  3  0  0  0  0  0  0
  180.5520  177.8580  135.1720 C   0  0  0  0  0  2  0  0  0  0  0  0
  183.7700  173.4800  136.2310 C   0  0  1  0  0  3  0  0  0  0  0  0
  181.7650  174.7660  135.7300 N   0  0  0  0  0  0  0  0  0  0  0  0
  184.6620  173.8350  137.4070 C   0  0  2  0  0  3  0  0  0  0  0  0
  182.5210  171.6450  137.2530 O   0  0  0  0  0  0  0  0  0  0  0  0
  183.8240  175.9390  136.5860 C   0  0  1  0  0  3  0  0  0  0  0  0
  1 16  2  0  0  0  0
  1 21  1  0  0  0  0
  2  8  1  0  0  0  0
  5 27  2  0  0  0  0
  6  1  1  0  0  0  0
  8  7  1  0  0  0  0
  8 14  1  0  0  0  0
  9 14  1  0  0  0  0
  9 18  1  1  0  0  0
  9 13  1  0  0  0  0
 10  8  1  6  0  0  0
 10 26  1  0  0  0  0
 12 25  1  1  0  0  0
 12 24  1  0  0  0  0
 12 28  1  0  0  0  0
 15 11  1  1  0  0  0
 16 20  1  0  0  0  0
 17  3  2  0  0  0  0
 17  5  1  0  0  0  0
 19 15  1  0  0  0  0
 19 25  1  0  0  0  0
 20  4  2  0  0  0  0
 21 22  2  0  0  0  0
 22  4  1  0  0  0  0
 23 15  1  0  0  0  0
 23  6  1  0  0  0  0
 24  5  1  1  0  0  0
 24 26  1  0  0  0  0
 25 17  1  0  0  0  0
 26 13  1  6  0  0  0
 28 10  1  0  0  0  0
 28 16  1  1  0  0  0
M  END
>  <MODEL>
3

>  <REMARK>
 VINA RESULT:      -4.6      2.903      4.680
  Name = 
  0 active torsions:
  status: ('A' for Active; 'I' for Inactive)
                            x       y       z     vdW  Elec       q    Type
                         _______ _______ _______ _____ _____    ______ ____

>  <TORSDO>
F 0

$$$$
=
 OpenBabel11122411563D

 28 32  0  0  1  0  0  0  0  0999 V2000
  181.7070  179.2190  138.5320 C   0  0  0  0  0  0  0  0  0  0  0  0
  185.0620  176.8510  135.3070 C   0  0  0  0  0  1  0  0  0  0  0  0
  179.0080  175.3760  137.5200 O   0  0  0  0  0  0  0  0  0  0  0  0
  181.8560  177.8560  140.9740 C   0  0  0  0  0  3  0  0  0  0  0  0
  181.2350  174.5460  137.2270 C   0  0  0  0  0  0  0  0  0  0  0  0
  181.5410  179.9250  137.2210 C   0  0  0  0  0  2  0  0  0  0  0  0
  186.2370  177.8740  137.2080 C   0  0  0  0  0  1  0  0  0  0  0  0
  185.4550  176.6520  136.7700 C   0  0  0  0  0  0  0  0  0  0  0  0
  185.6350  174.1560  136.5540 C   0  0  1  0  0  3  0  0  0  0  0  0
  184.2340  176.4880  137.7200 C   0  0  2  0  0  3  0  0  0  0  0  0
  178.9310  178.3230  138.0230 F   0  0  0  0  0  0  0  0  0  0  0  0
  182.1590  176.5980  136.4340 C   0  0  1  0  0  3  0  0  0  0  0  0
  184.5690  173.9210  137.6120 C   0  0  0  0  0  2  0  0  0  0  0  0
  186.3840  175.4440  136.8680 C   0  0  0  0  0  2  0  0  0  0  0  0
  179.2700  178.7740  136.7590 C   0  0  2  0  0  3  0  0  0  0  0  0
  182.3970  177.9910  138.6030 C   0  0  0  0  0  0  0  0  0  0  0  0
  180.2140  175.5560  137.2030 C   0  0  0  0  0  0  0  0  0  0  0  0
  186.5290  173.0870  136.5520 O   0  0  0  0  0  1  0  0  0  0  0  0
  179.9170  177.6850  135.9040 C   0  0  0  0  0  2  0  0  0  0  0  0
  182.4430  177.3090  139.8310 C   0  0  0  0  0  3  0  0  0  0  0  0
  181.1360  179.7690  139.6880 C   0  0  0  0  0  3  0  0  0  0  0  0
  181.2110  179.0910  140.9040 C   0  0  0  0  0  3  0  0  0  0  0  0
  180.0720  180.0790  136.8150 C   0  0  0  0  0  2  0  0  0  0  0  0
  182.4980  175.1050  136.6730 C   0  0  1  0  0  3  0  0  0  0  0  0
  180.7300  176.7780  136.7060 N   0  0  0  0  0  0  0  0  0  0  0  0
  183.5950  175.0960  137.7230 C   0  0  2  0  0  3  0  0  0  0  0  0
  181.0710  173.3580  137.6120 O   0  0  0  0  0  0  0  0  0  0  0  0
  183.0740  177.4210  137.3680 C   0  0  1  0  0  3  0  0  0  0  0  0
  1 16  2  0  0  0  0
  1 21  1  0  0  0  0
  2  8  1  0  0  0  0
  5 27  2  0  0  0  0
  6  1  1  0  0  0  0
  8 14  1  0  0  0  0
  8  7  1  0  0  0  0
  9 18  1  1  0  0  0
  9 14  1  0  0  0  0
  9 13  1  0  0  0  0
 10  8  1  6  0  0  0
 10 26  1  0  0  0  0
 12 24  1  0  0  0  0
 12 25  1  1  0  0  0
 12 28  1  0  0  0  0
 15 23  1  0  0  0  0
 15 11  1  1  0  0  0
 16 20  1  0  0  0  0
 17  5  1  0  0  0  0
 17  3  2  0  0  0  0
 19 25  1  0  0  0  0
 19 15  1  0  0  0  0
 20  4  2  0  0  0  0
 21 22  2  0  0  0  0
 22  4  1  0  0  0  0
 23  6  1  0  0  0  0
 24  5  1  1  0  0  0
 24 26  1  0  0  0  0
 25 17  1  0  0  0  0
 26 13  1  6  0  0  0
 28 10  1  0  0  0  0
 28 16  1  1  0  0  0
M  END
>  <MODEL>
4

>  <REMARK>
 VINA RESULT:      -4.5      2.537      4.190
  Name = 
  0 active torsions:
  status: ('A' for Active; 'I' for Inactive)
                            x       y       z     vdW  Elec       q    Type
                         _______ _______ _______ _____ _____    ______ ____

>  <TORSDO>
F 0

$$$$
=
 OpenBabel11122411563D

 28 32  0  0  1  0  0  0  0  0999 V2000
  180.3430  177.0580  138.5260 C   0  0  0  0  0  0  0  0  0  0  0  0
  180.6970  180.1270  142.7350 C   0  0  0  0  0  1  0  0  0  0  0  0
  184.6460  178.9640  137.5610 O   0  0  0  0  0  0  0  0  0  0  0  0
  181.9860  174.8420  139.0190 C   0  0  0  0  0  3  0  0  0  0  0  0
  184.5430  179.0820  139.9510 C   0  0  0  0  0  0  0  0  0  0  0  0
  179.5170  178.2620  138.1920 C   0  0  0  0  0  2  0  0  0  0  0  0
  179.6870  177.9600  143.3050 C   0  0  0  0  0  1  0  0  0  0  0  0
  181.0060  178.6710  143.0760 C   0  0  0  0  0  0  0  0  0  0  0  0
  183.1820  179.2230  144.2030 C   0  0  1  0  0  3  0  0  0  0  0  0
  181.7730  177.9220  141.9490 C   0  0  2  0  0  3  0  0  0  0  0  0
  182.0740  178.0510  136.3380 F   0  0  0  0  0  0  0  0  0  0  0  0
  182.1880  179.4390  140.0770 C   0  0  1  0  0  3  0  0  0  0  0  0
  183.9770  178.3590  143.2390 C   0  0  0  0  0  2  0  0  0  0  0  0
  181.7900  178.6290  144.3850 C   0  0  0  0  0  2  0  0  0  0  0  0
  181.3060  179.1800  136.5630 C   0  0  2  0  0  3  0  0  0  0  0  0
  181.2290  177.0770  139.6240 C   0  0  0  0  0  0  0  0  0  0  0  0
  183.9860  179.0910  138.6270 C   0  0  0  0  0  0  0  0  0  0  0  0
  183.8330  179.2650  145.4340 O   0  0  0  0  0  1  0  0  0  0  0  0
  181.9090  180.0930  137.6310 C   0  0  0  0  0  2  0  0  0  0  0  0
  182.0610  175.9660  139.8440 C   0  0  0  0  0  3  0  0  0  0  0  0
  180.2610  175.9190  137.7130 C   0  0  0  0  0  3  0  0  0  0  0  0
  181.0780  174.8150  137.9600 C   0  0  0  0  0  3  0  0  0  0  0  0
  179.8340  178.8300  136.8060 C   0  0  0  0  0  2  0  0  0  0  0  0
  183.4720  179.3780  140.9410 C   0  0  1  0  0  3  0  0  0  0  0  0
  182.5910  179.3330  138.6720 N   0  0  0  0  0  0  0  0  0  0  0  0
  183.2770  178.2070  141.8870 C   0  0  2  0  0  3  0  0  0  0  0  0
  185.7590  178.8990  140.2250 O   0  0  0  0  0  0  0  0  0  0  0  0
  181.2760  178.2830  140.5470 C   0  0  1  0  0  3  0  0  0  0  0  0
  1 16  1  0  0  0  0
  2  8  1  0  0  0  0
  3 17  2  0  0  0  0
  4 20  1  0  0  0  0
  5 27  2  0  0  0  0
  6  1  1  0  0  0  0
  8  7  1  0  0  0  0
  8 14  1  0  0  0  0
  9 14  1  0  0  0  0
  9 18  1  1  0  0  0
 10  8  1  1  0  0  0
 12 25  1  6  0  0  0
 12 28  1  0  0  0  0
 12 24  1  0  0  0  0
 13  9  1  0  0  0  0
 15 11  1  1  0  0  0
 15 23  1  0  0  0  0
 15 19  1  0  0  0  0
 16 20  2  0  0  0  0
 17 25  1  0  0  0  0
 17  5  1  0  0  0  0
 19 25  1  0  0  0  0
 21 22  1  0  0  0  0
 21  1  2  0  0  0  0
 22  4  2  0  0  0  0
 23  6  1  0  0  0  0
 24  5  1  6  0  0  0
 24 26  1  0  0  0  0
 26 10  1  0  0  0  0
 26 13  1  1  0  0  0
 28 16  1  6  0  0  0
 28 10  1  0  0  0  0
M  END
>  <MODEL>
5

>  <REMARK>
 VINA RESULT:      -4.4      2.769      5.935
  Name = 
  0 active torsions:
  status: ('A' for Active; 'I' for Inactive)
                            x       y       z     vdW  Elec       q    Type
                         _______ _______ _______ _____ _____    ______ ____

>  <TORSDO>
F 0

$$$$
=
 OpenBabel11122411563D

 28 32  0  0  1  0  0  0  0  0999 V2000
  185.0530  174.7990  136.7080 C   0  0  0  0  0  0  0  0  0  0  0  0
  182.4130  177.4380  140.3580 C   0  0  0  0  0  1  0  0  0  0  0  0
  180.7410  174.6650  134.5940 O   0  0  0  0  0  0  0  0  0  0  0  0
  185.4850  176.5850  134.5940 C   0  0  0  0  0  3  0  0  0  0  0  0
  180.6210  176.6650  135.9050 C   0  0  0  0  0  0  0  0  0  0  0  0
  184.7750  173.7930  137.7820 C   0  0  0  0  0  2  0  0  0  0  0  0
  184.6470  178.4050  140.0120 C   0  0  0  0  0  1  0  0  0  0  0  0
  183.2310  178.3740  139.4710 C   0  0  0  0  0  0  0  0  0  0  0  0
  181.2750  179.8640  138.9550 C   0  0  1  0  0  3  0  0  0  0  0  0
  183.2870  177.9230  137.9840 C   0  0  2  0  0  3  0  0  0  0  0  0
  183.2360  173.0970  135.1040 F   0  0  0  0  0  0  0  0  0  0  0  0
  181.9930  175.8710  137.6880 C   0  0  1  0  0  3  0  0  0  0  0  0
  181.3870  179.6050  137.4620 C   0  0  0  0  0  2  0  0  0  0  0  0
  182.6580  179.7860  139.5880 C   0  0  0  0  0  2  0  0  0  0  0  0
  182.9460  172.6230  136.3720 C   0  0  2  0  0  3  0  0  0  0  0  0
  184.3760  176.0360  136.6910 C   0  0  0  0  0  0  0  0  0  0  0  0
  181.0600  175.3280  135.6160 C   0  0  0  0  0  0  0  0  0  0  0  0
  180.7380  181.1320  139.1680 O   0  0  0  0  0  1  0  0  0  0  0  0
  181.8240  173.4110  137.0480 C   0  0  0  0  0  2  0  0  0  0  0  0
  184.5880  176.9120  135.6120 C   0  0  0  0  0  3  0  0  0  0  0  0
  185.9650  174.4870  135.6900 C   0  0  0  0  0  3  0  0  0  0  0  0
  186.1820  175.3770  134.6380 C   0  0  0  0  0  3  0  0  0  0  0  0
  184.2080  172.4810  137.2300 C   0  0  0  0  0  2  0  0  0  0  0  0
  181.1070  177.0660  137.2540 C   0  0  1  0  0  3  0  0  0  0  0  0
  181.8520  174.8220  136.6760 N   0  0  0  0  0  0  0  0  0  0  0  0
  182.0420  178.2570  137.1560 C   0  0  2  0  0  3  0  0  0  0  0  0
  179.8970  177.3690  135.1530 O   0  0  0  0  0  0  0  0  0  0  0  0
  183.4350  176.4090  137.8250 C   0  0  1  0  0  3  0  0  0  0  0  0
  1  6  1  0  0  0  0
  3 17  2  0  0  0  0
  4 22  2  0  0  0  0
  4 20  1  0  0  0  0
  8 14  1  0  0  0  0
  8  7  1  0  0  0  0
  8  2  1  0  0  0  0
  9 18  1  6  0  0  0
  9 14  1  0  0  0  0
 10  8  1  1  0  0  0
 12 25  1  6  0  0  0
 12 28  1  0  0  0  0
 13  9  1  0  0  0  0
 15 11  1  6  0  0  0
 15 19  1  0  0  0  0
 15 23  1  0  0  0  0
 16  1  1  0  0  0  0
 17  5  1  0  0  0  0
 17 25  1  0  0  0  0
 20 16  2  0  0  0  0
 21  1  2  0  0  0  0
 22 21  1  0  0  0  0
 23  6  1  0  0  0  0
 24  5  1  6  0  0  0
 24 12  1  0  0  0  0
 25 19  1  0  0  0  0
 26 24  1  0  0  0  0
 26 13  1  1  0  0  0
 26 10  1  0  0  0  0
 27  5  2  0  0  0  0
 28 16  1  6  0  0  0
 28 10  1  0  0  0  0
M  END
>  <MODEL>
6

>  <REMARK>
 VINA RESULT:      -4.4      2.882      6.111
  Name = 
  0 active torsions:
  status: ('A' for Active; 'I' for Inactive)
                            x       y       z     vdW  Elec       q    Type
                         _______ _______ _______ _____ _____    ______ ____

>  <TORSDO>
F 0

$$$$
=
 OpenBabel11122411563D

 28 32  0  0  1  0  0  0  0  0999 V2000
  184.5430  176.0820  135.9230 C   0  0  0  0  0  0  0  0  0  0  0  0
  181.5420  180.0360  137.5410 C   0  0  0  0  0  1  0  0  0  0  0  0
  187.5200  177.8080  139.2750 O   0  0  0  0  0  0  0  0  0  0  0  0
  184.3210  174.0720  137.8610 C   0  0  0  0  0  3  0  0  0  0  0  0
  185.3690  178.4650  140.0950 C   0  0  0  0  0  0  0  0  0  0  0  0
  184.7500  177.1620  134.9050 C   0  0  0  0  0  2  0  0  0  0  0  0
  180.1920  178.0360  137.0770 C   0  0  0  0  0  1  0  0  0  0  0  0
  181.0700  178.7020  138.1160 C   0  0  0  0  0  0  0  0  0  0  0  0
  181.0500  179.5420  140.4840 C   0  0  1  0  0  3  0  0  0  0  0  0
  182.2360  177.7330  138.4640 C   0  0  2  0  0  3  0  0  0  0  0  0
  187.3940  176.5860  136.5480 F   0  0  0  0  0  0  0  0  0  0  0  0
  184.3790  178.7920  137.9500 C   0  0  1  0  0  3  0  0  0  0  0  0
  182.0600  178.4980  140.9330 C   0  0  0  0  0  2  0  0  0  0  0  0
  180.2090  178.9760  139.3470 C   0  0  0  0  0  2  0  0  0  0  0  0
  187.1090  177.7210  135.8080 C   0  0  2  0  0  3  0  0  0  0  0  0
  183.9240  176.3690  137.1570 C   0  0  0  0  0  0  0  0  0  0  0  0
  186.3290  178.1610  139.0710 C   0  0  0  0  0  0  0  0  0  0  0  0
  180.2220  179.8770  141.5530 O   0  0  0  0  0  1  0  0  0  0  0  0
  186.5820  178.8660  136.6730 C   0  0  0  0  0  2  0  0  0  0  0  0
  183.8400  175.3550  138.1260 C   0  0  0  0  0  3  0  0  0  0  0  0
  185.0080  174.7860  135.6580 C   0  0  0  0  0  3  0  0  0  0  0  0
  184.8960  173.7850  136.6220 C   0  0  0  0  0  3  0  0  0  0  0  0
  186.2300  177.4050  134.5940 C   0  0  0  0  0  2  0  0  0  0  0  0
  184.1120  178.9560  139.4670 C   0  0  1  0  0  3  0  0  0  0  0  0
  185.7740  178.3770  137.7850 N   0  0  0  0  0  0  0  0  0  0  0  0
  182.9540  178.0270  139.7850 C   0  0  2  0  0  3  0  0  0  0  0  0
  185.5770  178.3750  141.3340 O   0  0  0  0  0  0  0  0  0  0  0  0
  183.3600  177.7550  137.4250 C   0  0  1  0  0  3  0  0  0  0  0  0
  1 16  1  0  0  0  0
  2  8  1  0  0  0  0
  4 20  1  0  0  0  0
  5 27  2  0  0  0  0
  6  1  1  0  0  0  0
  7  8  1  0  0  0  0
  8 14  1  0  0  0  0
  9 13  1  0  0  0  0
  9 18  1  1  0  0  0
 10  8  1  6  0  0  0
 10 26  1  0  0  0  0
 12 25  1  1  0  0  0
 12 24  1  0  0  0  0
 14  9  1  0  0  0  0
 15 11  1  1  0  0  0
 15 19  1  0  0  0  0
 16 20  2  0  0  0  0
 17  3  2  0  0  0  0
 17  5  1  0  0  0  0
 19 25  1  0  0  0  0
 21  1  2  0  0  0  0
 21 22  1  0  0  0  0
 22  4  2  0  0  0  0
 23  6  1  0  0  0  0
 23 15  1  0  0  0  0
 24 26  1  0  0  0  0
 24  5  1  1  0  0  0
 25 17  1  0  0  0  0
 26 13  1  1  0  0  0
 28 16  1  1  0  0  0
 28 12  1  0  0  0  0
 28 10  1  0  0  0  0
M  END
>  <MODEL>
7

>  <REMARK>
 VINA RESULT:      -4.2      2.364      5.801
  Name = 
  0 active torsions:
  status: ('A' for Active; 'I' for Inactive)
                            x       y       z     vdW  Elec       q    Type
                         _______ _______ _______ _____ _____    ______ ____

>  <TORSDO>
F 0

$$$$
=
 OpenBabel11122411563D

 28 32  0  0  1  0  0  0  0  0999 V2000
  181.9850  178.2880  138.4120 C   0  0  0  0  0  0  0  0  0  0  0  0
  186.7290  178.2330  136.2330 C   0  0  0  0  0  1  0  0  0  0  0  0
  180.9970  175.2560  134.8200 O   0  0  0  0  0  0  0  0  0  0  0  0
  181.7400  175.8920  139.8430 C   0  0  0  0  0  3  0  0  0  0  0  0
  183.3420  174.9120  135.1680 C   0  0  0  0  0  0  0  0  0  0  0  0
  182.0460  179.5430  137.5960 C   0  0  0  0  0  2  0  0  0  0  0  0
  186.8840  178.2540  138.6860 C   0  0  0  0  0  1  0  0  0  0  0  0
  186.6750  177.3570  137.4820 C   0  0  0  0  0  0  0  0  0  0  0  0
  187.6370  175.3500  136.3160 C   0  0  1  0  0  3  0  0  0  0  0  0
  185.3210  176.6130  137.6570 C   0  0  2  0  0  3  0  0  0  0  0  0
  179.9050  177.5110  136.4520 F   0  0  0  0  0  0  0  0  0  0  0  0
  183.8260  177.1600  135.8020 C   0  0  1  0  0  3  0  0  0  0  0  0
  186.4070  174.5060  136.6130 C   0  0  0  0  0  2  0  0  0  0  0  0
  187.8360  176.3650  137.4350 C   0  0  0  0  0  2  0  0  0  0  0  0
  180.4810  178.5740  135.7770 C   0  0  2  0  0  3  0  0  0  0  0  0
  182.9430  177.2690  138.2330 C   0  0  0  0  0  0  0  0  0  0  0  0
  182.1330  175.6880  135.1510 C   0  0  0  0  0  0  0  0  0  0  0  0
  188.7570  174.5250  136.2330 O   0  0  0  0  0  1  0  0  0  0  0  0
  181.6550  178.1410  134.9000 C   0  0  0  0  0  2  0  0  0  0  0  0
  182.7930  176.0650  138.9430 C   0  0  0  0  0  3  0  0  0  0  0  0
  180.9400  178.1140  139.3310 C   0  0  0  0  0  3  0  0  0  0  0  0
  180.8200  176.9210  140.0450 C   0  0  0  0  0  3  0  0  0  0  0  0
  180.8060  179.7390  136.7190 C   0  0  0  0  0  2  0  0  0  0  0  0
  184.4930  175.7950  135.4970 C   0  0  1  0  0  3  0  0  0  0  0  0
  182.3990  177.0360  135.4950 N   0  0  0  0  0  0  0  0  0  0  0  0
  185.1510  175.3590  136.7940 C   0  0  2  0  0  3  0  0  0  0  0  0
  183.4190  173.6840  134.8970 O   0  0  0  0  0  0  0  0  0  0  0  0
  184.1140  177.4780  137.2870 C   0  0  1  0  0  3  0  0  0  0  0  0
  1 21  1  0  0  0  0
  2  8  1  0  0  0  0
  3 17  2  0  0  0  0
  4 22  1  0  0  0  0
  6  1  1  0  0  0  0
  8  7  1  0  0  0  0
  9 18  1  1  0  0  0
  9 13  1  0  0  0  0
  9 14  1  0  0  0  0
 10  8  1  6  0  0  0
 12 25  1  1  0  0  0
 12 28  1  0  0  0  0
 14  8  1  0  0  0  0
 15 11  1  1  0  0  0
 15 23  1  0  0  0  0
 16  1  2  0  0  0  0
 16 20  1  0  0  0  0
 17  5  1  0  0  0  0
 17 25  1  0  0  0  0
 19 25  1  0  0  0  0
 19 15  1  0  0  0  0
 20  4  2  0  0  0  0
 21 22  2  0  0  0  0
 23  6  1  0  0  0  0
 24  5  1  1  0  0  0
 24 12  1  0  0  0  0
 24 26  1  0  0  0  0
 26 13  1  6  0  0  0
 26 10  1  0  0  0  0
 27  5  2  0  0  0  0
 28 10  1  0  0  0  0
 28 16  1  1  0  0  0
M  END
>  <MODEL>
8

>  <REMARK>
 VINA RESULT:      -4.2      2.500      4.294
  Name = 
  0 active torsions:
  status: ('A' for Active; 'I' for Inactive)
                            x       y       z     vdW  Elec       q    Type
                         _______ _______ _______ _____ _____    ______ ____

>  <TORSDO>
F 0

$$$$
=
 OpenBabel11122411563D

 28 32  0  0  1  0  0  0  0  0999 V2000
  185.8750  174.8990  135.7240 C   0  0  0  0  0  0  0  0  0  0  0  0
  181.7820  178.0450  134.9380 C   0  0  0  0  0  1  0  0  0  0  0  0
  186.7480  177.9820  139.3030 O   0  0  0  0  0  0  0  0  0  0  0  0
  185.2290  173.2930  137.9260 C   0  0  0  0  0  3  0  0  0  0  0  0
  184.3710  178.1280  139.0530 C   0  0  0  0  0  0  0  0  0  0  0  0
  186.2890  175.7910  134.5940 C   0  0  0  0  0  2  0  0  0  0  0  0
  181.1650  175.6910  134.5940 C   0  0  0  0  0  1  0  0  0  0  0  0
  181.3720  176.7580  135.6500 C   0  0  0  0  0  0  0  0  0  0  0  0
  180.1830  177.9680  137.5040 C   0  0  1  0  0  3  0  0  0  0  0  0
  182.4370  176.2450  136.6610 C   0  0  2  0  0  3  0  0  0  0  0  0
  188.0320  176.3070  137.1850 F   0  0  0  0  0  0  0  0  0  0  0  0
  184.3510  177.7650  136.6950 C   0  0  1  0  0  3  0  0  0  0  0  0
  181.0810  177.3570  138.5670 C   0  0  0  0  0  2  0  0  0  0  0  0
  180.0320  176.9890  136.3460 C   0  0  0  0  0  2  0  0  0  0  0  0
  187.8820  177.1590  136.1050 C   0  0  2  0  0  3  0  0  0  0  0  0
  184.7450  175.2130  136.5080 C   0  0  0  0  0  0  0  0  0  0  0  0
  185.7140  177.9340  138.5840 C   0  0  0  0  0  0  0  0  0  0  0  0
  178.9310  178.2370  138.0520 O   0  0  0  0  0  1  0  0  0  0  0  0
  186.8300  178.2390  136.3550 C   0  0  0  0  0  2  0  0  0  0  0  0
  184.4480  174.4090  137.6220 C   0  0  0  0  0  3  0  0  0  0  0  0
  186.6440  173.7670  136.0260 C   0  0  0  0  0  3  0  0  0  0  0  0
  186.3210  172.9660  137.1210 C   0  0  0  0  0  3  0  0  0  0  0  0
  187.6840  176.3900  134.7940 C   0  0  0  0  0  2  0  0  0  0  0  0
  183.4360  178.1150  137.8950 C   0  0  1  0  0  3  0  0  0  0  0  0
  185.7330  177.7470  137.1810 N   0  0  0  0  0  0  0  0  0  0  0  0
  182.4510  176.9650  138.0120 C   0  0  2  0  0  3  0  0  0  0  0  0
  184.0420  178.3260  140.2530 O   0  0  0  0  0  0  0  0  0  0  0  0
  183.8700  176.4020  136.1480 C   0  0  1  0  0  3  0  0  0  0  0  0
  1 21  2  0  0  0  0
  1 16  1  0  0  0  0
  2  8  1  0  0  0  0
  5 27  2  0  0  0  0
  6 23  1  0  0  0  0
  6  1  1  0  0  0  0
  7  8  1  0  0  0  0
  8 14  1  0  0  0  0
  9 18  1  1  0  0  0
  9 13  1  0  0  0  0
 10  8  1  6  0  0  0
 10 26  1  0  0  0  0
 12 25  1  1  0  0  0
 12 24  1  0  0  0  0
 14  9  1  0  0  0  0
 15 19  1  0  0  0  0
 15 11  1  1  0  0  0
 16 20  2  0  0  0  0
 17  5  1  0  0  0  0
 17  3  2  0  0  0  0
 19 25  1  0  0  0  0
 20  4  1  0  0  0  0
 21 22  1  0  0  0  0
 22  4  2  0  0  0  0
 23 15  1  0  0  0  0
 24 26  1  0  0  0  0
 24  5  1  1  0  0  0
 25 17  1  0  0  0  0
 26 13  1  6  0  0  0
 28 16  1  1  0  0  0
 28 10  1  0  0  0  0
 28 12  1  0  0  0  0
M  END
>  <MODEL>
9

>  <REMARK>
 VINA RESULT:      -3.9      2.420      5.717
  Name = 
  0 active torsions:
  status: ('A' for Active; 'I' for Inactive)
                            x       y       z     vdW  Elec       q    Type
                         _______ _______ _______ _____ _____    ______ ____

>  <TORSDO>
F 0

$$$$
