=
 OpenBabel11122411273D

 37 43  0  0  1  0  0  0  0  0999 V2000
  184.4010  174.9640  137.3080 C   0  0  0  0  0  2  0  0  0  0  0  0
  188.7260  177.4450  136.8530 C   0  0  1  0  0  0  0  0  0  0  0  0
  185.2970  177.9950  139.2790 C   0  0  1  0  0  3  0  0  0  0  0  0
  184.3030  173.6090  136.5950 C   0  0  2  0  0  3  0  0  0  0  0  0
  181.9030  177.4070  137.8000 O   0  0  0  0  0  0  0  0  0  0  0  0
  187.8320  178.1980  139.1260 C   0  0  1  0  0  3  0  0  0  0  0  0
  184.1920  178.0480  138.2460 C   0  0  2  0  0  3  0  0  0  0  0  0
  181.9140  174.1940  135.9740 C   0  0  0  0  0  0  0  0  0  0  0  0
  186.4750  178.2370  138.4160 C   0  0  1  0  0  3  0  0  0  0  0  0
  182.9270  177.3250  138.7510 C   0  0  1  0  0  3  0  0  0  0  0  0
  187.6830  177.8940  140.6260 C   0  0  0  0  0  2  0  0  0  0  0  0
  183.1860  173.5160  135.5460 C   0  0  0  0  0  2  0  0  0  0  0  0
  186.3260  177.2650  137.3650 N   0  0  2  0  0  0  0  0  0  0  0  0
  189.2820  176.3320  136.2520 F   0  0  0  0  0  0  0  0  0  0  0  0
  184.0470  179.0200  141.2370 C   0  0  0  0  0  2  0  0  0  0  0  0
  186.5760  178.7580  141.2930 C   0  0  0  0  0  2  0  0  0  0  0  0
  187.2800  177.6220  136.3230 C   0  0  0  0  0  2  0  0  0  0  0  0
  181.8390  175.6950  136.1080 C   0  0  1  0  0  3  0  0  0  0  0  0
  181.5400  176.0800  137.5560 C   0  0  0  0  0  2  0  0  0  0  0  0
  185.3280  179.0050  140.4090 C   0  0  1  0  0  3  0  0  0  0  0  0
  184.9250  177.4610  136.9780 C   0  0  1  0  0  3  0  0  0  0  0  0
  188.7960  177.2560  138.3910 C   0  0  0  0  0  2  0  0  0  0  0  0
  182.4050  177.8530  140.1080 C   0  0  1  0  0  3  0  0  0  0  0  0
  189.4740  178.5680  136.4960 O   0  0  0  0  0  1  0  0  0  0  0  0
  183.0930  176.3970  135.5540 C   0  0  0  0  0  2  0  0  0  0  0  0
  180.9270  173.5160  136.2060 O   0  0  0  0  0  0  0  0  0  0  0  0
  184.3900  176.1640  136.3500 C   0  0  2  0  0  3  0  0  0  0  0  0
  183.3440  177.8000  141.1700 O   0  0  0  0  0  0  0  0  0  0  0  0
  180.5000  179.1950  141.0490 C   0  0  0  0  0  3  0  0  0  0  0  0
  181.4970  179.0610  140.0750 C   0  0  0  0  0  0  0  0  0  0  0  0
  181.6520  180.0600  139.1020 C   0  0  0  0  0  3  0  0  0  0  0  0
  181.0090  182.4150  137.8800 Cl  0  0  0  0  0  0  0  0  0  0  0  0
  179.8140  181.3020  140.0710 C   0  0  0  0  0  3  0  0  0  0  0  0
  180.8120  181.1750  139.0990 C   0  0  0  0  0  0  0  0  0  0  0  0
  179.6590  180.3120  141.0460 C   0  0  0  0  0  3  0  0  0  0  0  0
  183.8400  171.4550  136.8020 C   0  0  0  0  0  1  0  0  0  0  0  0
  184.1440  172.5970  137.5440 O   0  0  0  0  0  0  0  0  0  0  0  0
  2 14  1  6  0  0  0
  2 22  1  0  0  0  0
  3 20  1  0  0  0  0
  4  1  1  0  0  0  0
  4 37  1  0  0  0  0
  5 10  1  0  0  0  0
  6 11  1  0  0  0  0
  7 10  1  0  0  0  0
  7  3  1  0  0  0  0
  8 18  1  0  0  0  0
  8 26  2  0  0  0  0
  9  6  1  0  0  0  0
  9  3  1  0  0  0  0
 10 23  1  0  0  0  0
 11 16  1  0  0  0  0
 12  8  1  0  0  0  0
 12  4  1  0  0  0  0
 13  9  1  0  0  0  0
 17  2  1  0  0  0  0
 17 13  1  0  0  0  0
 18 19  1  0  0  0  0
 19  5  1  0  0  0  0
 20 15  1  0  0  0  0
 20 16  1  0  0  0  0
 21 13  1  0  0  0  0
 21  7  1  0  0  0  0
 22  6  1  0  0  0  0
 23 28  1  0  0  0  0
 24  2  1  0  0  0  0
 25 18  1  0  0  0  0
 25 27  1  0  0  0  0
 27 21  1  0  0  0  0
 27  1  1  0  0  0  0
 28 15  1  0  0  0  0
 30 23  1  0  0  0  0
 30 29  2  0  0  0  0
 31 30  1  0  0  0  0
 32 34  1  0  0  0  0
 33 35  2  0  0  0  0
 34 31  2  0  0  0  0
 34 33  1  0  0  0  0
 35 29  1  0  0  0  0
 36 37  1  0  0  0  0
M  END
>  <MODEL>
1

>  <REMARK>
 VINA RESULT:      -6.7      0.000      0.000
  Name = 
  2 active torsions:
  status: ('A' for Active; 'I' for Inactive)
    1  A    between atoms: C_4  and  O_37
    2  A    between atoms: C_23  and  C_30
                            x       y       z     vdW  Elec       q    Type
                         _______ _______ _______ _____ _____    ______ ____

>  <TORSDO>
F 2

$$$$
=
 OpenBabel11122411273D

 37 43  0  0  1  0  0  0  0  0999 V2000
  180.6960  180.6750  139.1900 C   0  0  0  0  0  2  0  0  0  0  0  0
  179.9760  178.6700  143.7220 C   0  0  1  0  0  0  0  0  0  0  0  0
  183.2360  178.6530  141.0160 C   0  0  1  0  0  3  0  0  0  0  0  0
  179.6370  181.6700  138.6980 C   0  0  2  0  0  3  0  0  0  0  0  0
  182.5590  178.3130  137.3450 O   0  0  0  0  0  0  0  0  0  0  0  0
  182.5190  178.6820  143.4600 C   0  0  1  0  0  3  0  0  0  0  0  0
  182.5900  178.1200  139.7560 C   0  0  2  0  0  3  0  0  0  0  0  0
  179.8620  180.6510  136.3860 C   0  0  0  0  0  0  0  0  0  0  0  0
  182.2280  178.2480  142.0200 C   0  0  1  0  0  3  0  0  0  0  0  0
  183.1410  178.8360  138.5060 C   0  0  1  0  0  3  0  0  0  0  0  0
  183.8290  179.4800  143.5630 C   0  0  0  0  0  2  0  0  0  0  0  0
  178.9330  181.2650  137.3950 C   0  0  0  0  0  2  0  0  0  0  0  0
  180.9950  178.7630  141.4840 N   0  0  2  0  0  0  0  0  0  0  0  0
  178.9310  179.5500  143.9270 F   0  0  0  0  0  0  0  0  0  0  0  0
  185.6690  178.2620  140.4010 C   0  0  0  0  0  2  0  0  0  0  0  0
  184.9950  178.7960  142.7950 C   0  0  0  0  0  2  0  0  0  0  0  0
  179.9160  178.1640  142.2570 C   0  0  0  0  0  2  0  0  0  0  0  0
  180.4830  179.2970  136.6220 C   0  0  1  0  0  3  0  0  0  0  0  0
  182.0040  179.4200  136.6980 C   0  0  0  0  0  2  0  0  0  0  0  0
  184.5830  178.1190  141.4630 C   0  0  1  0  0  3  0  0  0  0  0  0
  181.0600  178.2940  140.0950 C   0  0  1  0  0  3  0  0  0  0  0  0
  181.3030  179.3990  144.0630 C   0  0  0  0  0  2  0  0  0  0  0  0
  184.6820  178.7710  138.3760 C   0  0  1  0  0  3  0  0  0  0  0  0
  179.8200  177.5810  144.5790 O   0  0  0  0  0  1  0  0  0  0  0  0
  179.8840  178.5820  137.8480 C   0  0  0  0  0  2  0  0  0  0  0  0
  180.1080  181.2580  135.3560 O   0  0  0  0  0  0  0  0  0  0  0  0
  180.2080  179.2190  139.2120 C   0  0  2  0  0  3  0  0  0  0  0  0
  185.3960  179.2970  139.4830 O   0  0  0  0  0  0  0  0  0  0  0  0
  186.5590  177.5990  137.1870 C   0  0  0  0  0  3  0  0  0  0  0  0
  185.2680  177.5400  137.7230 C   0  0  0  0  0  0  0  0  0  0  0  0
  184.5500  176.3360  137.6670 C   0  0  0  0  0  3  0  0  0  0  0  0
  184.2130  173.7090  137.0040 Cl  0  0  0  0  0  0  0  0  0  0  0  0
  186.4050  175.2720  136.5340 C   0  0  0  0  0  3  0  0  0  0  0  0
  185.1160  175.2070  137.0720 C   0  0  0  0  0  0  0  0  0  0  0  0
  187.1260  176.4680  136.5920 C   0  0  0  0  0  3  0  0  0  0  0  0
  179.1580  183.7820  138.2440 C   0  0  0  0  0  1  0  0  0  0  0  0
  180.2200  182.9300  138.5470 O   0  0  0  0  0  0  0  0  0  0  0  0
  1 27  1  0  0  0  0
  2 14  1  1  0  0  0
  2 22  1  0  0  0  0
  2 24  1  0  0  0  0
  3 20  1  0  0  0  0
  3  9  1  0  0  0  0
  4  1  1  0  0  0  0
  5 10  1  0  0  0  0
  6 11  1  0  0  0  0
  6 22  1  0  0  0  0
  7 21  1  0  0  0  0
  7  3  1  0  0  0  0
  8 18  1  0  0  0  0
  8 12  1  0  0  0  0
  9  6  1  0  0  0  0
 10  7  1  0  0  0  0
 12  4  1  0  0  0  0
 13  9  1  0  0  0  0
 13 17  1  0  0  0  0
 15 20  1  0  0  0  0
 16 11  1  0  0  0  0
 17  2  1  0  0  0  0
 18 19  1  0  0  0  0
 18 25  1  0  0  0  0
 19  5  1  0  0  0  0
 20 16  1  0  0  0  0
 21 13  1  0  0  0  0
 23 10  1  0  0  0  0
 23 28  1  0  0  0  0
 25 27  1  0  0  0  0
 26  8  2  0  0  0  0
 27 21  1  0  0  0  0
 28 15  1  0  0  0  0
 29 30  1  0  0  0  0
 30 23  1  0  0  0  0
 31 30  2  0  0  0  0
 32 34  1  0  0  0  0
 33 35  1  0  0  0  0
 33 34  2  0  0  0  0
 34 31  1  0  0  0  0
 35 29  2  0  0  0  0
 36 37  1  0  0  0  0
 37  4  1  0  0  0  0
M  END
>  <MODEL>
2

>  <REMARK>
 VINA RESULT:      -6.3      3.754      7.365
  Name = 
  2 active torsions:
  status: ('A' for Active; 'I' for Inactive)
    1  A    between atoms: C_4  and  O_37
    2  A    between atoms: C_23  and  C_30
                            x       y       z     vdW  Elec       q    Type
                         _______ _______ _______ _____ _____    ______ ____

>  <TORSDO>
F 2

$$$$
=
 OpenBabel11122411273D

 37 43  0  0  1  0  0  0  0  0999 V2000
  185.0570  175.3800  137.5290 C   0  0  0  0  0  2  0  0  0  0  0  0
  189.1160  177.8480  139.1110 C   0  0  1  0  0  0  0  0  0  0  0  0
  184.9820  178.1860  139.9770 C   0  0  1  0  0  3  0  0  0  0  0  0
  185.2980  174.1060  136.7100 C   0  0  2  0  0  3  0  0  0  0  0  0
  182.4980  177.7870  137.1990 O   0  0  0  0  0  0  0  0  0  0  0  0
  187.3540  178.3760  140.8870 C   0  0  1  0  0  3  0  0  0  0  0  0
  184.3890  178.3550  138.5950 C   0  0  2  0  0  3  0  0  0  0  0  0
  183.3480  174.7760  135.2320 C   0  0  0  0  0  0  0  0  0  0  0  0
  186.4000  178.5020  139.6950 C   0  0  1  0  0  3  0  0  0  0  0  0
  183.0520  177.5980  138.4710 C   0  0  1  0  0  3  0  0  0  0  0  0
  186.6210  177.9230  142.1600 C   0  0  0  0  0  2  0  0  0  0  0  0
  184.7050  174.1310  135.2940 C   0  0  0  0  0  2  0  0  0  0  0  0
  186.7210  177.6430  138.5860 N   0  0  2  0  0  0  0  0  0  0  0  0
  189.9020  176.7960  138.6820 F   0  0  0  0  0  0  0  0  0  0  0  0
  183.0150  179.0200  141.3500 C   0  0  0  0  0  2  0  0  0  0  0  0
  185.3120  178.7270  142.4010 C   0  0  0  0  0  2  0  0  0  0  0  0
  188.0020  178.0930  138.0600 C   0  0  0  0  0  2  0  0  0  0  0  0
  183.1780  176.2560  135.4690 C   0  0  1  0  0  3  0  0  0  0  0  0
  182.3070  176.4960  136.7010 C   0  0  0  0  0  2  0  0  0  0  0  0
  184.5210  179.0760  141.1150 C   0  0  1  0  0  3  0  0  0  0  0  0
  185.5900  177.8920  137.6840 C   0  0  1  0  0  3  0  0  0  0  0  0
  188.5630  177.5040  140.5190 C   0  0  0  0  0  2  0  0  0  0  0  0
  182.0080  177.9910  139.5440 C   0  0  1  0  0  3  0  0  0  0  0  0
  189.9080  178.9930  139.1990 O   0  0  0  0  0  1  0  0  0  0  0  0
  184.5260  176.9970  135.5430 C   0  0  0  0  0  2  0  0  0  0  0  0
  182.3730  174.0880  134.9770 O   0  0  0  0  0  0  0  0  0  0  0  0
  185.3970  176.6710  136.7710 C   0  0  2  0  0  3  0  0  0  0  0  0
  182.4380  177.8210  140.8850 O   0  0  0  0  0  0  0  0  0  0  0  0
  179.7880  179.1670  139.5670 C   0  0  0  0  0  3  0  0  0  0  0  0
  181.1530  179.2060  139.2620 C   0  0  0  0  0  0  0  0  0  0  0  0
  181.7100  180.3760  138.7250 C   0  0  0  0  0  3  0  0  0  0  0  0
  181.6060  182.9480  137.8130 Cl  0  0  0  0  0  0  0  0  0  0  0  0
  179.5400  181.4470  138.7880 C   0  0  0  0  0  3  0  0  0  0  0  0
  180.9050  181.4920  138.4870 C   0  0  0  0  0  0  0  0  0  0  0  0
  178.9820  180.2850  139.3290 C   0  0  0  0  0  3  0  0  0  0  0  0
  185.0770  171.9070  136.5930 C   0  0  0  0  0  1  0  0  0  0  0  0
  184.8020  173.0040  137.4090 O   0  0  0  0  0  0  0  0  0  0  0  0
  2 14  1  6  0  0  0
  2 24  1  0  0  0  0
  2 22  1  0  0  0  0
  3 20  1  0  0  0  0
  4 37  1  0  0  0  0
  4  1  1  0  0  0  0
  5 10  1  0  0  0  0
  6 11  1  0  0  0  0
  7  3  1  0  0  0  0
  8 12  1  0  0  0  0
  8 18  1  0  0  0  0
  9  3  1  0  0  0  0
  9  6  1  0  0  0  0
 10  7  1  0  0  0  0
 10 23  1  0  0  0  0
 11 16  1  0  0  0  0
 12  4  1  0  0  0  0
 13  9  1  0  0  0  0
 17 13  1  0  0  0  0
 17  2  1  0  0  0  0
 18 25  1  0  0  0  0
 18 19  1  0  0  0  0
 19  5  1  0  0  0  0
 20 15  1  0  0  0  0
 20 16  1  0  0  0  0
 21 13  1  0  0  0  0
 21  7  1  0  0  0  0
 22  6  1  0  0  0  0
 23 28  1  0  0  0  0
 25 27  1  0  0  0  0
 26  8  2  0  0  0  0
 27  1  1  0  0  0  0
 27 21  1  0  0  0  0
 28 15  1  0  0  0  0
 30 23  1  0  0  0  0
 30 29  2  0  0  0  0
 31 30  1  0  0  0  0
 32 34  1  0  0  0  0
 33 35  2  0  0  0  0
 34 31  2  0  0  0  0
 34 33  1  0  0  0  0
 35 29  1  0  0  0  0
 36 37  1  0  0  0  0
M  END
>  <MODEL>
3

>  <REMARK>
 VINA RESULT:      -5.4      1.268      1.467
  Name = 
  2 active torsions:
  status: ('A' for Active; 'I' for Inactive)
    1  A    between atoms: C_4  and  O_37
    2  A    between atoms: C_23  and  C_30
                            x       y       z     vdW  Elec       q    Type
                         _______ _______ _______ _____ _____    ______ ____

>  <TORSDO>
F 2

$$$$
=
 OpenBabel11122411273D

 37 43  0  0  1  0  0  0  0  0999 V2000
  187.7660  176.1170  138.4060 C   0  0  0  0  0  2  0  0  0  0  0  0
  189.9360  178.1210  142.4480 C   0  0  1  0  0  0  0  0  0  0  0  0
  185.9490  178.0520  141.0190 C   0  0  1  0  0  3  0  0  0  0  0  0
  188.6190  175.1560  137.5680 C   0  0  2  0  0  3  0  0  0  0  0  0
  185.3230  178.4290  137.3420 O   0  0  0  0  0  0  0  0  0  0  0  0
  187.4580  178.0340  143.0710 C   0  0  1  0  0  3  0  0  0  0  0  0
  186.1110  178.6110  139.6210 C   0  0  2  0  0  3  0  0  0  0  0  0
  187.5910  176.1780  135.4860 C   0  0  0  0  0  0  0  0  0  0  0  0
  187.2290  178.4830  141.6240 C   0  0  1  0  0  3  0  0  0  0  0  0
  185.1860  177.8840  138.6250 C   0  0  1  0  0  3  0  0  0  0  0  0
  186.2840  177.1960  143.6020 C   0  0  0  0  0  2  0  0  0  0  0  0
  188.8260  175.5880  136.1090 C   0  0  0  0  0  2  0  0  0  0  0  0
  188.2170  178.0080  140.6920 N   0  0  2  0  0  0  0  0  0  0  0  0
  191.0120  177.2720  142.2720 F   0  0  0  0  0  0  0  0  0  0  0  0
  183.4430  178.3720  141.2770 C   0  0  0  0  0  2  0  0  0  0  0  0
  184.9080  177.8490  143.2880 C   0  0  0  0  0  2  0  0  0  0  0  0
  189.4790  178.6360  141.0590 C   0  0  0  0  0  2  0  0  0  0  0  0
  187.0520  177.5120  135.9400 C   0  0  1  0  0  3  0  0  0  0  0  0
  185.6520  177.3430  136.5290 C   0  0  0  0  0  2  0  0  0  0  0  0
  184.8220  178.5430  141.9060 C   0  0  1  0  0  3  0  0  0  0  0  0
  187.6690  178.4810  139.4150 C   0  0  1  0  0  3  0  0  0  0  0  0
  188.8260  177.3520  143.2120 C   0  0  0  0  0  2  0  0  0  0  0  0
  183.6930  177.9020  139.0290 C   0  0  1  0  0  3  0  0  0  0  0  0
  190.3470  179.2110  143.2170 O   0  0  0  0  0  1  0  0  0  0  0  0
  188.0140  178.2390  136.8980 C   0  0  0  0  0  2  0  0  0  0  0  0
  187.0250  175.5690  134.5940 O   0  0  0  0  0  0  0  0  0  0  0  0
  188.1930  177.5860  138.2810 C   0  0  2  0  0  3  0  0  0  0  0  0
  183.4130  177.3510  140.3060 O   0  0  0  0  0  0  0  0  0  0  0  0
  183.3200  180.3870  139.0330 C   0  0  0  0  0  3  0  0  0  0  0  0
  182.8860  179.1180  138.6330 C   0  0  0  0  0  0  0  0  0  0  0  0
  181.7260  178.9980  137.8520 C   0  0  0  0  0  3  0  0  0  0  0  0
  179.5570  179.9770  136.5140 Cl  0  0  0  0  0  0  0  0  0  0  0  0
  181.4400  181.4010  137.8920 C   0  0  0  0  0  3  0  0  0  0  0  0
  181.0050  180.1360  137.4850 C   0  0  0  0  0  0  0  0  0  0  0  0
  182.5980  181.5260  138.6650 C   0  0  0  0  0  3  0  0  0  0  0  0
  188.9260  173.0790  136.8680 C   0  0  0  0  0  1  0  0  0  0  0  0
  188.0540  173.8800  137.6070 O   0  0  0  0  0  0  0  0  0  0  0  0
  2 14  1  6  0  0  0
  2 22  1  0  0  0  0
  2 24  1  0  0  0  0
  3  9  1  0  0  0  0
  3 20  1  0  0  0  0
  4 37  1  0  0  0  0
  4  1  1  0  0  0  0
  5 10  1  0  0  0  0
  6 22  1  0  0  0  0
  6 11  1  0  0  0  0
  7  3  1  0  0  0  0
  8 18  1  0  0  0  0
  8 12  1  0  0  0  0
  9  6  1  0  0  0  0
 10 23  1  0  0  0  0
 10  7  1  0  0  0  0
 12  4  1  0  0  0  0
 13 17  1  0  0  0  0
 13  9  1  0  0  0  0
 15 20  1  0  0  0  0
 16 11  1  0  0  0  0
 17  2  1  0  0  0  0
 18 19  1  0  0  0  0
 18 25  1  0  0  0  0
 19  5  1  0  0  0  0
 20 16  1  0  0  0  0
 21  7  1  0  0  0  0
 21 13  1  0  0  0  0
 23 28  1  0  0  0  0
 25 27  1  0  0  0  0
 26  8  2  0  0  0  0
 27  1  1  0  0  0  0
 27 21  1  0  0  0  0
 28 15  1  0  0  0  0
 30 23  1  0  0  0  0
 30 29  2  0  0  0  0
 31 30  1  0  0  0  0
 32 34  1  0  0  0  0
 33 35  2  0  0  0  0
 34 31  2  0  0  0  0
 34 33  1  0  0  0  0
 35 29  1  0  0  0  0
 36 37  1  0  0  0  0
M  END
>  <MODEL>
4

>  <REMARK>
 VINA RESULT:      -4.8      2.999      4.147
  Name = 
  2 active torsions:
  status: ('A' for Active; 'I' for Inactive)
    1  A    between atoms: C_4  and  O_37
    2  A    between atoms: C_23  and  C_30
                            x       y       z     vdW  Elec       q    Type
                         _______ _______ _______ _____ _____    ______ ____

>  <TORSDO>
F 2

$$$$
=
 OpenBabel11122411273D

 37 43  0  0  1  0  0  0  0  0999 V2000
  182.2160  180.2360  138.8580 C   0  0  0  0  0  2  0  0  0  0  0  0
  183.2240  179.1510  143.6410 C   0  0  1  0  0  0  0  0  0  0  0  0
  185.2500  178.4010  139.9970 C   0  0  1  0  0  3  0  0  0  0  0  0
  181.0510  181.2000  138.5990 C   0  0  2  0  0  3  0  0  0  0  0  0
  183.2610  177.4480  136.9660 O   0  0  0  0  0  0  0  0  0  0  0  0
  185.4890  178.9270  142.4780 C   0  0  1  0  0  3  0  0  0  0  0  0
  184.1830  177.6950  139.1880 C   0  0  2  0  0  3  0  0  0  0  0  0
  180.4030  179.7630  136.6110 C   0  0  0  0  0  0  0  0  0  0  0  0
  184.6850  178.2610  141.3570 C   0  0  1  0  0  3  0  0  0  0  0  0
  184.2320  178.1290  137.7090 C   0  0  1  0  0  3  0  0  0  0  0  0
  186.7440  179.6320  141.9380 C   0  0  0  0  0  2  0  0  0  0  0  0
  179.9130  180.6180  137.7470 C   0  0  0  0  0  2  0  0  0  0  0  0
  183.3420  178.7580  141.2150 N   0  0  2  0  0  0  0  0  0  0  0  0
  182.3300  180.1280  144.0340 F   0  0  0  0  0  0  0  0  0  0  0  0
  187.2820  177.7260  138.6300 C   0  0  0  0  0  2  0  0  0  0  0  0
  187.5420  178.7350  140.9500 C   0  0  0  0  0  2  0  0  0  0  0  0
  182.6250  178.3920  142.4290 C   0  0  0  0  0  2  0  0  0  0  0  0
  181.0660  178.4330  136.8670 C   0  0  1  0  0  3  0  0  0  0  0  0
  182.5070  178.4550  136.3600 C   0  0  0  0  0  2  0  0  0  0  0  0
  186.6660  177.8590  140.0200 C   0  0  1  0  0  3  0  0  0  0  0  0
  182.8870  178.0410  140.0190 C   0  0  1  0  0  3  0  0  0  0  0  0
  184.5830  179.8300  143.3270 C   0  0  0  0  0  2  0  0  0  0  0  0
  185.6150  177.9280  137.0440 C   0  0  1  0  0  3  0  0  0  0  0  0
  183.3950  178.2510  144.6930 O   0  0  0  0  0  1  0  0  0  0  0  0
  180.9630  178.0000  138.3420 C   0  0  0  0  0  2  0  0  0  0  0  0
  180.2500  180.1520  135.4650 O   0  0  0  0  0  0  0  0  0  0  0  0
  181.7690  178.8490  139.3420 C   0  0  2  0  0  3  0  0  0  0  0  0
  186.6890  178.5930  137.6900 O   0  0  0  0  0  0  0  0  0  0  0  0
  186.6540  176.4550  135.2940 C   0  0  0  0  0  3  0  0  0  0  0  0
  185.9160  176.5590  136.4790 C   0  0  0  0  0  0  0  0  0  0  0  0
  185.4900  175.3930  137.1330 C   0  0  0  0  0  3  0  0  0  0  0  0
  185.2550  172.6880  137.4220 Cl  0  0  0  0  0  0  0  0  0  0  0  0
  186.5260  174.0400  135.4150 C   0  0  0  0  0  3  0  0  0  0  0  0
  185.7930  174.1380  136.6010 C   0  0  0  0  0  0  0  0  0  0  0  0
  186.9570  175.1980  134.7620 C   0  0  0  0  0  3  0  0  0  0  0  0
  180.4110  183.1650  137.8060 C   0  0  0  0  0  1  0  0  0  0  0  0
  181.5370  182.3650  138.0020 O   0  0  0  0  0  0  0  0  0  0  0  0
  1 27  1  0  0  0  0
  2 14  1  1  0  0  0
  2 24  1  0  0  0  0
  3 20  1  0  0  0  0
  3  9  1  0  0  0  0
  4  1  1  0  0  0  0
  5 10  1  0  0  0  0
  6 22  1  0  0  0  0
  7  3  1  0  0  0  0
  7 21  1  0  0  0  0
  8 18  1  0  0  0  0
  8 12  1  0  0  0  0
  9  6  1  0  0  0  0
 10  7  1  0  0  0  0
 11  6  1  0  0  0  0
 12  4  1  0  0  0  0
 13  9  1  0  0  0  0
 13 17  1  0  0  0  0
 15 20  1  0  0  0  0
 16 11  1  0  0  0  0
 17  2  1  0  0  0  0
 18 25  1  0  0  0  0
 19 18  1  0  0  0  0
 19  5  1  0  0  0  0
 20 16  1  0  0  0  0
 21 13  1  0  0  0  0
 22  2  1  0  0  0  0
 23 28  1  0  0  0  0
 23 10  1  0  0  0  0
 25 27  1  0  0  0  0
 26  8  2  0  0  0  0
 27 21  1  0  0  0  0
 28 15  1  0  0  0  0
 29 30  1  0  0  0  0
 30 23  1  0  0  0  0
 30 31  2  0  0  0  0
 33 34  2  0  0  0  0
 34 31  1  0  0  0  0
 34 32  1  0  0  0  0
 35 29  2  0  0  0  0
 35 33  1  0  0  0  0
 36 37  1  0  0  0  0
 37  4  1  0  0  0  0
M  END
>  <MODEL>
5

>  <REMARK>
 VINA RESULT:      -4.8      3.408      6.803
  Name = 
  2 active torsions:
  status: ('A' for Active; 'I' for Inactive)
    1  A    between atoms: C_4  and  O_37
    2  A    between atoms: C_23  and  C_30
                            x       y       z     vdW  Elec       q    Type
                         _______ _______ _______ _____ _____    ______ ____

>  <TORSDO>
F 2

$$$$
=
 OpenBabel11122411273D

 37 43  0  0  1  0  0  0  0  0999 V2000
  188.4500  176.6540  140.5360 C   0  0  0  0  0  2  0  0  0  0  0  0
  184.5080  177.3630  137.5300 C   0  0  1  0  0  0  0  0  0  0  0  0
  188.1270  175.1990  137.1220 C   0  0  1  0  0  3  0  0  0  0  0  0
  188.3060  177.1280  141.9880 C   0  0  2  0  0  3  0  0  0  0  0  0
  191.3000  176.6830  138.4570 O   0  0  0  0  0  0  0  0  0  0  0  0
  185.6440  175.2880  136.5610 C   0  0  1  0  0  3  0  0  0  0  0  0
  189.1610  176.2670  137.4080 C   0  0  2  0  0  3  0  0  0  0  0  0
  190.7100  177.9310  141.8850 C   0  0  0  0  0  0  0  0  0  0  0  0
  186.9450  176.0450  136.8470 C   0  0  1  0  0  3  0  0  0  0  0  0
  190.3370  175.6940  138.2240 C   0  0  1  0  0  3  0  0  0  0  0  0
  185.8410  173.7650  136.6350 C   0  0  0  0  0  2  0  0  0  0  0  0
  189.3290  178.1870  142.4210 C   0  0  0  0  0  2  0  0  0  0  0  0
  186.8850  176.9190  137.9890 N   0  0  2  0  0  0  0  0  0  0  0  0
  183.7600  177.7440  138.6280 F   0  0  0  0  0  0  0  0  0  0  0  0
  189.6330  173.4930  135.9940 C   0  0  0  0  0  2  0  0  0  0  0  0
  187.1020  173.2980  135.8540 C   0  0  0  0  0  2  0  0  0  0  0  0
  185.9290  177.9700  137.6650 C   0  0  0  0  0  2  0  0  0  0  0  0
  191.0090  178.0580  140.4120 C   0  0  1  0  0  3  0  0  0  0  0  0
  191.4520  176.7100  139.8450 C   0  0  0  0  0  2  0  0  0  0  0  0
  188.3140  174.2580  135.9480 C   0  0  1  0  0  3  0  0  0  0  0  0
  188.2720  177.3860  138.0760 C   0  0  1  0  0  3  0  0  0  0  0  0
  184.5090  175.8140  137.4520 C   0  0  0  0  0  2  0  0  0  0  0  0
  191.0150  174.4670  137.5680 C   0  0  1  0  0  3  0  0  0  0  0  0
  183.9100  177.8780  136.3790 O   0  0  0  0  0  1  0  0  0  0  0  0
  189.8380  178.6760  139.6260 C   0  0  0  0  0  2  0  0  0  0  0  0
  191.6010  177.6230  142.6590 O   0  0  0  0  0  0  0  0  0  0  0  0
  188.5730  177.8030  139.5240 C   0  0  2  0  0  3  0  0  0  0  0  0
  190.1470  173.3770  137.3020 O   0  0  0  0  0  0  0  0  0  0  0  0
  191.8520  175.7070  135.5500 C   0  0  0  0  0  3  0  0  0  0  0  0
  192.0840  174.7410  136.5350 C   0  0  0  0  0  0  0  0  0  0  0  0
  193.3120  174.0630  136.5630 C   0  0  0  0  0  3  0  0  0  0  0  0
  195.8190  173.4890  135.6470 Cl  0  0  0  0  0  0  0  0  0  0  0  0
  194.0520  175.3050  134.6220 C   0  0  0  0  0  3  0  0  0  0  0  0
  194.2910  174.3420  135.6080 C   0  0  0  0  0  0  0  0  0  0  0  0
  192.8330  175.9870  134.5940 C   0  0  0  0  0  3  0  0  0  0  0  0
  187.9500  176.5080  144.0820 C   0  0  0  0  0  1  0  0  0  0  0  0
  188.3750  176.0270  142.8430 O   0  0  0  0  0  0  0  0  0  0  0  0
  1  4  1  0  0  0  0
  2 24  1  6  0  0  0
  2 17  1  0  0  0  0
  2 14  1  0  0  0  0
  3  7  1  0  0  0  0
  4 12  1  0  0  0  0
  4 37  1  0  0  0  0
  5 19  1  0  0  0  0
  6 11  1  0  0  0  0
  6  9  1  0  0  0  0
  6 22  1  0  0  0  0
  7 21  1  0  0  0  0
  7 10  1  0  0  0  0
  8 12  1  0  0  0  0
  8 26  2  0  0  0  0
  9  3  1  0  0  0  0
  9 13  1  0  0  0  0
 10  5  1  0  0  0  0
 13 21  1  0  0  0  0
 15 28  1  0  0  0  0
 16 20  1  0  0  0  0
 16 11  1  0  0  0  0
 17 13  1  0  0  0  0
 18  8  1  0  0  0  0
 19 18  1  0  0  0  0
 20 15  1  0  0  0  0
 20  3  1  0  0  0  0
 21 27  1  0  0  0  0
 22  2  1  0  0  0  0
 23 10  1  0  0  0  0
 25 18  1  0  0  0  0
 27 25  1  0  0  0  0
 27  1  1  0  0  0  0
 28 23  1  0  0  0  0
 29 30  1  0  0  0  0
 30 31  2  0  0  0  0
 30 23  1  0  0  0  0
 33 34  2  0  0  0  0
 34 32  1  0  0  0  0
 34 31  1  0  0  0  0
 35 33  1  0  0  0  0
 35 29  2  0  0  0  0
 37 36  1  0  0  0  0
M  END
>  <MODEL>
6

>  <REMARK>
 VINA RESULT:      -4.6      4.547      9.378
  Name = 
  2 active torsions:
  status: ('A' for Active; 'I' for Inactive)
    1  A    between atoms: C_4  and  O_37
    2  A    between atoms: C_23  and  C_30
                            x       y       z     vdW  Elec       q    Type
                         _______ _______ _______ _____ _____    ______ ____

>  <TORSDO>
F 2

$$$$
=
 OpenBabel11122411273D

 37 43  0  0  1  0  0  0  0  0999 V2000
  185.8860  177.4470  137.4700 C   0  0  0  0  0  2  0  0  0  0  0  0
  181.3000  178.2000  135.6060 C   0  0  1  0  0  0  0  0  0  0  0  0
  183.4460  174.7280  136.7400 C   0  0  1  0  0  3  0  0  0  0  0  0
  186.6580  178.6900  137.9290 C   0  0  2  0  0  3  0  0  0  0  0  0
  187.1040  174.5050  135.9490 O   0  0  0  0  0  0  0  0  0  0  0  0
  181.1660  175.8560  136.6180 C   0  0  1  0  0  3  0  0  0  0  0  0
  184.7120  174.8650  135.9220 C   0  0  2  0  0  3  0  0  0  0  0  0
  188.7580  177.6530  136.9550 C   0  0  0  0  0  0  0  0  0  0  0  0
  182.5660  175.6770  136.0240 C   0  0  1  0  0  3  0  0  0  0  0  0
  185.9440  174.4020  136.7260 C   0  0  1  0  0  3  0  0  0  0  0  0
  180.9660  174.9980  137.8780 C   0  0  0  0  0  2  0  0  0  0  0  0
  187.9910  178.9220  137.2030 C   0  0  0  0  0  2  0  0  0  0  0  0
  183.3470  176.8840  135.9710 N   0  0  2  0  0  0  0  0  0  0  0  0
  181.3720  179.5210  136.0050 F   0  0  0  0  0  0  0  0  0  0  0  0
  183.6250  172.2620  137.3200 C   0  0  0  0  0  2  0  0  0  0  0  0
  181.4520  173.5350  137.6750 C   0  0  0  0  0  2  0  0  0  0  0  0
  182.6780  177.7790  135.0350 C   0  0  0  0  0  2  0  0  0  0  0  0
  188.2580  176.6180  135.9780 C   0  0  1  0  0  3  0  0  0  0  0  0
  187.9650  175.3060  136.7030 C   0  0  0  0  0  2  0  0  0  0  0  0
  182.7340  173.3920  136.8150 C   0  0  1  0  0  3  0  0  0  0  0  0
  184.6380  176.3800  135.4890 C   0  0  1  0  0  3  0  0  0  0  0  0
  180.8540  177.3450  136.8220 C   0  0  0  0  0  2  0  0  0  0  0  0
  185.8260  172.9600  137.2760 C   0  0  1  0  0  3  0  0  0  0  0  0
  180.3440  178.0880  134.5960 O   0  0  0  0  0  1  0  0  0  0  0  0
  187.0570  177.1210  135.1540 C   0  0  0  0  0  2  0  0  0  0  0  0
  189.8070  177.4660  137.5500 O   0  0  0  0  0  0  0  0  0  0  0  0
  185.7530  177.3350  135.9440 C   0  0  2  0  0  3  0  0  0  0  0  0
  184.6990  172.7280  138.1050 O   0  0  0  0  0  0  0  0  0  0  0  0
  185.2220  171.0040  135.8200 C   0  0  0  0  0  3  0  0  0  0  0  0
  186.2180  171.8340  136.3460 C   0  0  0  0  0  0  0  0  0  0  0  0
  187.5570  171.6240  135.9850 C   0  0  0  0  0  3  0  0  0  0  0  0
  189.5690  170.3280  134.6690 Cl  0  0  0  0  0  0  0  0  0  0  0  0
  186.8970  169.7560  134.5940 C   0  0  0  0  0  3  0  0  0  0  0  0
  187.8950  170.5860  135.1130 C   0  0  0  0  0  0  0  0  0  0  0  0
  185.5610  169.9650  134.9470 C   0  0  0  0  0  3  0  0  0  0  0  0
  185.6020  178.6060  139.8720 C   0  0  0  0  0  1  0  0  0  0  0  0
  186.8770  178.6170  139.3060 O   0  0  0  0  0  0  0  0  0  0  0  0
  1  4  1  0  0  0  0
  2 24  1  6  0  0  0
  2 14  1  0  0  0  0
  2 22  1  0  0  0  0
  3 20  1  0  0  0  0
  4 37  1  0  0  0  0
  5 19  1  0  0  0  0
  5 10  1  0  0  0  0
  6 22  1  0  0  0  0
  6 11  1  0  0  0  0
  7 10  1  0  0  0  0
  7  3  1  0  0  0  0
  8 12  1  0  0  0  0
  8 26  2  0  0  0  0
  9  6  1  0  0  0  0
  9  3  1  0  0  0  0
 10 23  1  0  0  0  0
 12  4  1  0  0  0  0
 13  9  1  0  0  0  0
 15 28  1  0  0  0  0
 16 11  1  0  0  0  0
 17  2  1  0  0  0  0
 17 13  1  0  0  0  0
 18 19  1  0  0  0  0
 18  8  1  0  0  0  0
 20 15  1  0  0  0  0
 20 16  1  0  0  0  0
 21  7  1  0  0  0  0
 21 27  1  0  0  0  0
 21 13  1  0  0  0  0
 23 28  1  0  0  0  0
 25 27  1  0  0  0  0
 25 18  1  0  0  0  0
 27  1  1  0  0  0  0
 29 30  1  0  0  0  0
 30 23  1  0  0  0  0
 31 30  2  0  0  0  0
 32 34  1  0  0  0  0
 33 35  1  0  0  0  0
 33 34  2  0  0  0  0
 34 31  1  0  0  0  0
 35 29  2  0  0  0  0
 37 36  1  0  0  0  0
M  END
>  <MODEL>
7

>  <REMARK>
 VINA RESULT:      -4.6      3.840      8.071
  Name = 
  2 active torsions:
  status: ('A' for Active; 'I' for Inactive)
    1  A    between atoms: C_4  and  O_37
    2  A    between atoms: C_23  and  C_30
                            x       y       z     vdW  Elec       q    Type
                         _______ _______ _______ _____ _____    ______ ____

>  <TORSDO>
F 2

$$$$
=
 OpenBabel11122411273D

 37 43  0  0  1  0  0  0  0  0999 V2000
  185.8550  175.3020  137.1140 C   0  0  0  0  0  2  0  0  0  0  0  0
  190.1560  177.4130  138.5680 C   0  0  1  0  0  0  0  0  0  0  0  0
  186.1200  177.9170  139.7540 C   0  0  1  0  0  3  0  0  0  0  0  0
  185.9610  174.0810  136.1920 C   0  0  2  0  0  3  0  0  0  0  0  0
  183.4320  177.8670  137.1410 O   0  0  0  0  0  0  0  0  0  0  0  0
  188.5550  177.9050  140.5000 C   0  0  1  0  0  3  0  0  0  0  0  0
  185.4450  178.2220  138.4340 C   0  0  2  0  0  3  0  0  0  0  0  0
  183.9600  174.9690  134.9100 C   0  0  0  0  0  0  0  0  0  0  0  0
  187.5320  178.1730  139.3920 C   0  0  1  0  0  3  0  0  0  0  0  0
  184.0580  177.5530  138.3530 C   0  0  1  0  0  3  0  0  0  0  0  0
  187.8840  177.4000  141.7880 C   0  0  0  0  0  2  0  0  0  0  0  0
  185.2750  174.2450  134.8280 C   0  0  0  0  0  2  0  0  0  0  0  0
  187.7220  177.3830  138.2050 N   0  0  2  0  0  0  0  0  0  0  0  0
  190.8450  176.3530  138.0110 F   0  0  0  0  0  0  0  0  0  0  0  0
  184.3050  178.7550  141.3200 C   0  0  0  0  0  2  0  0  0  0  0  0
  186.6460  178.2560  142.1790 C   0  0  0  0  0  2  0  0  0  0  0  0
  188.9910  177.7980  137.6200 C   0  0  0  0  0  2  0  0  0  0  0  0
  183.8970  176.4340  135.2630 C   0  0  1  0  0  3  0  0  0  0  0  0
  183.1280  176.6300  136.5690 C   0  0  0  0  0  2  0  0  0  0  0  0
  185.7930  178.7430  140.9810 C   0  0  1  0  0  3  0  0  0  0  0  0
  186.5510  177.7620  137.4070 C   0  0  1  0  0  3  0  0  0  0  0  0
  189.6800  176.9960  139.9850 C   0  0  0  0  0  2  0  0  0  0  0  0
  183.1160  177.9220  139.5240 C   0  0  1  0  0  3  0  0  0  0  0  0
  191.0210  178.5020  138.6800 O   0  0  0  0  0  1  0  0  0  0  0  0
  185.2900  177.0900  135.2910 C   0  0  0  0  0  2  0  0  0  0  0  0
  182.9290  174.3570  134.6780 O   0  0  0  0  0  0  0  0  0  0  0  0
  186.2210  176.6250  136.4260 C   0  0  2  0  0  3  0  0  0  0  0  0
  183.6260  177.6290  140.8150 O   0  0  0  0  0  0  0  0  0  0  0  0
  182.5980  180.0720  138.3320 C   0  0  0  0  0  3  0  0  0  0  0  0
  182.3210  179.2010  139.3920 C   0  0  0  0  0  0  0  0  0  0  0  0
  181.2950  179.5150  140.2960 C   0  0  0  0  0  3  0  0  0  0  0  0
  179.2880  181.0820  141.2810 Cl  0  0  0  0  0  0  0  0  0  0  0  0
  180.8470  181.5650  139.0890 C   0  0  0  0  0  3  0  0  0  0  0  0
  180.5630  180.6950  140.1460 C   0  0  0  0  0  0  0  0  0  0  0  0
  181.8640  181.2530  138.1820 C   0  0  0  0  0  3  0  0  0  0  0  0
  186.5130  172.4600  137.5930 C   0  0  0  0  0  1  0  0  0  0  0  0
  185.4470  172.9600  136.8460 O   0  0  0  0  0  0  0  0  0  0  0  0
  2 14  1  6  0  0  0
  2 24  1  0  0  0  0
  2 22  1  0  0  0  0
  3 20  1  0  0  0  0
  4 37  1  0  0  0  0
  4  1  1  0  0  0  0
  5 10  1  0  0  0  0
  6 11  1  0  0  0  0
  7  3  1  0  0  0  0
  8 18  1  0  0  0  0
  9  3  1  0  0  0  0
  9  6  1  0  0  0  0
 10  7  1  0  0  0  0
 10 23  1  0  0  0  0
 11 16  1  0  0  0  0
 12  8  1  0  0  0  0
 12  4  1  0  0  0  0
 13  9  1  0  0  0  0
 17 13  1  0  0  0  0
 17  2  1  0  0  0  0
 18 25  1  0  0  0  0
 18 19  1  0  0  0  0
 19  5  1  0  0  0  0
 20 15  1  0  0  0  0
 20 16  1  0  0  0  0
 21 13  1  0  0  0  0
 21  7  1  0  0  0  0
 22  6  1  0  0  0  0
 23 28  1  0  0  0  0
 25 27  1  0  0  0  0
 26  8  2  0  0  0  0
 27  1  1  0  0  0  0
 27 21  1  0  0  0  0
 28 15  1  0  0  0  0
 29 30  1  0  0  0  0
 30 23  1  0  0  0  0
 30 31  2  0  0  0  0
 33 34  2  0  0  0  0
 34 31  1  0  0  0  0
 34 32  1  0  0  0  0
 35 29  2  0  0  0  0
 35 33  1  0  0  0  0
 37 36  1  0  0  0  0
M  END
>  <MODEL>
8

>  <REMARK>
 VINA RESULT:      -4.5      1.598      2.012
  Name = 
  2 active torsions:
  status: ('A' for Active; 'I' for Inactive)
    1  A    between atoms: C_4  and  O_37
    2  A    between atoms: C_23  and  C_30
                            x       y       z     vdW  Elec       q    Type
                         _______ _______ _______ _____ _____    ______ ____

>  <TORSDO>
F 2

$$$$
=
 OpenBabel11122411273D

 37 43  0  0  1  0  0  0  0  0999 V2000
  180.6210  178.9280  140.1000 C   0  0  0  0  0  2  0  0  0  0  0  0
  179.7680  181.5920  135.9470 C   0  0  1  0  0  0  0  0  0  0  0  0
  181.2590  177.6880  136.6460 C   0  0  1  0  0  3  0  0  0  0  0  0
  180.0770  179.5040  141.4140 C   0  0  2  0  0  3  0  0  0  0  0  0
  183.5920  177.1160  139.5240 O   0  0  0  0  0  0  0  0  0  0  0  0
  179.8810  179.1790  135.1080 C   0  0  1  0  0  3  0  0  0  0  0  0
  182.4100  177.9610  137.5910 C   0  0  2  0  0  3  0  0  0  0  0  0
  182.2100  178.7270  142.5480 C   0  0  0  0  0  0  0  0  0  0  0  0
  181.0460  179.0440  136.0940 C   0  0  1  0  0  3  0  0  0  0  0  0
  182.5060  176.8690  138.6750 C   0  0  1  0  0  3  0  0  0  0  0  0
  179.1490  177.8430  134.9020 C   0  0  0  0  0  2  0  0  0  0  0  0
  181.1450  179.7870  142.4810 C   0  0  0  0  0  2  0  0  0  0  0  0
  180.9280  179.8690  137.2670 N   0  0  2  0  0  0  0  0  0  0  0  0
  178.9320  182.4210  136.6700 F   0  0  0  0  0  0  0  0  0  0  0  0
  181.9050  175.3430  135.9140 C   0  0  0  0  0  2  0  0  0  0  0  0
  180.1350  176.6660  134.6550 C   0  0  0  0  0  2  0  0  0  0  0  0
  181.0050  181.2540  136.8190 C   0  0  0  0  0  2  0  0  0  0  0  0
  183.1970  178.5410  141.4230 C   0  0  1  0  0  3  0  0  0  0  0  0
  183.0380  177.1530  140.8060 C   0  0  0  0  0  2  0  0  0  0  0  0
  181.4420  176.7320  135.4840 C   0  0  1  0  0  3  0  0  0  0  0  0
  182.0900  179.4360  138.0500 C   0  0  1  0  0  3  0  0  0  0  0  0
  178.9610  180.3380  135.5170 C   0  0  0  0  0  2  0  0  0  0  0  0
  182.6190  175.4330  138.1090 C   0  0  1  0  0  3  0  0  0  0  0  0
  180.1970  182.2710  134.8060 O   0  0  0  0  0  1  0  0  0  0  0  0
  183.1130  179.6690  140.3780 C   0  0  0  0  0  2  0  0  0  0  0  0
  182.2760  178.0130  143.5360 O   0  0  0  0  0  0  0  0  0  0  0  0
  181.8220  179.7030  139.5400 C   0  0  2  0  0  3  0  0  0  0  0  0
  181.5590  175.0470  137.2480 O   0  0  0  0  0  0  0  0  0  0  0  0
  184.2720  173.5740  137.7610 C   0  0  0  0  0  3  0  0  0  0  0  0
  184.0000  174.9460  137.7330 C   0  0  0  0  0  0  0  0  0  0  0  0
  185.0030  175.8430  137.3350 C   0  0  0  0  0  3  0  0  0  0  0  0
  187.5140  176.4940  136.4840 Cl  0  0  0  0  0  0  0  0  0  0  0  0
  186.5350  173.9970  137.0120 C   0  0  0  0  0  3  0  0  0  0  0  0
  186.2670  175.3690  136.9770 C   0  0  0  0  0  0  0  0  0  0  0  0
  185.5380  173.1000  137.4030 C   0  0  0  0  0  3  0  0  0  0  0  0
  178.9320  177.6680  140.9500 C   0  0  0  0  0  1  0  0  0  0  0  0
  179.1100  178.6410  141.9330 O   0  0  0  0  0  0  0  0  0  0  0  0
  1  4  1  0  0  0  0
  2 24  1  6  0  0  0
  2 14  1  0  0  0  0
  2 17  1  0  0  0  0
  3  7  1  0  0  0  0
  4 37  1  0  0  0  0
  4 12  1  0  0  0  0
  5 19  1  0  0  0  0
  6 22  1  0  0  0  0
  6  9  1  0  0  0  0
  7 21  1  0  0  0  0
  7 10  1  0  0  0  0
  8 26  2  0  0  0  0
  9  3  1  0  0  0  0
  9 13  1  0  0  0  0
 10  5  1  0  0  0  0
 11  6  1  0  0  0  0
 12  8  1  0  0  0  0
 13 21  1  0  0  0  0
 15 28  1  0  0  0  0
 16 11  1  0  0  0  0
 16 20  1  0  0  0  0
 17 13  1  0  0  0  0
 18  8  1  0  0  0  0
 19 18  1  0  0  0  0
 20 15  1  0  0  0  0
 20  3  1  0  0  0  0
 21 27  1  0  0  0  0
 22  2  1  0  0  0  0
 23 10  1  0  0  0  0
 25 18  1  0  0  0  0
 27  1  1  0  0  0  0
 27 25  1  0  0  0  0
 28 23  1  0  0  0  0
 30 29  1  0  0  0  0
 30 23  1  0  0  0  0
 31 30  2  0  0  0  0
 32 34  1  0  0  0  0
 33 35  1  0  0  0  0
 34 33  2  0  0  0  0
 34 31  1  0  0  0  0
 35 29  2  0  0  0  0
 36 37  1  0  0  0  0
M  END
>  <MODEL>
9

>  <REMARK>
 VINA RESULT:      -4.3      3.566      7.582
  Name = 
  2 active torsions:
  status: ('A' for Active; 'I' for Inactive)
    1  A    between atoms: C_4  and  O_37
    2  A    between atoms: C_23  and  C_30
                            x       y       z     vdW  Elec       q    Type
                         _______ _______ _______ _____ _____    ______ ____

>  <TORSDO>
F 2

$$$$
