=
 OpenBabel11122411263D

 37 42  0  0  1  0  0  0  0  0999 V2000
  182.4620  178.3430  140.7810 C   0  0  0  0  0  0  0  0  0  0  0  0
  185.2380  178.7760  143.8670 C   0  0  0  0  0  0  0  0  0  0  0  0
  186.3560  175.9260  143.9720 C   0  0  0  0  0  1  0  0  0  0  0  0
  182.9380  178.9810  143.2310 C   0  0  0  0  0  0  0  0  0  0  0  0
  186.5150  178.3560  143.2250 C   0  0  1  0  0  3  0  0  0  0  0  0
  184.2860  178.8930  142.9150 C   0  0  0  0  0  0  0  0  0  0  0  0
  187.2030  177.1910  143.9600 C   0  0  1  0  0  3  0  0  0  0  0  0
  182.5980  179.0880  144.5890 C   0  0  0  0  0  3  0  0  0  0  0  0
  184.8370  178.6160  141.5850 C   0  0  2  0  0  3  0  0  0  0  0  0
  182.5030  179.5730  139.8910 C   0  0  0  0  0  1  0  0  0  0  0  0
  185.9060  178.6240  146.3040 C   0  0  0  0  0  2  0  0  0  0  0  0
  183.5790  179.0460  145.5460 N   0  0  0  0  0  0  0  0  0  0  0  0
  183.8650  177.6970  140.8470 C   0  0  0  0  0  2  0  0  0  0  0  0
  184.8960  178.8740  145.2210 C   0  0  0  0  0  0  0  0  0  0  0  0
  186.1470  177.9900  141.8340 N   0  0  1  0  0  0  0  0  0  0  0  0
  181.8960  178.7430  142.1690 C   0  0  0  0  0  2  0  0  0  0  0  0
  187.6520  177.5380  145.3950 C   0  0  2  0  0  3  0  0  0  0  0  0
  181.5110  177.3450  140.1550 C   0  0  0  0  0  1  0  0  0  0  0  0
  187.2110  178.8050  145.8220 O   0  0  0  0  0  0  0  0  0  0  0  0
  188.3860  177.6630  140.7100 C   0  0  0  0  0  2  0  0  0  0  0  0
  189.4570  178.2990  139.8190 C   0  0  2  0  0  3  0  0  0  0  0  0
  187.9300  177.6070  137.8330 C   0  0  2  0  0  3  0  0  0  0  0  0
  189.0130  178.5550  138.3680 C   0  0  0  0  0  2  0  0  0  0  0  0
  186.5800  177.8650  138.4500 C   0  0  0  0  0  0  0  0  0  0  0  0
  185.6060  177.2600  138.0330 O   0  0  0  0  0  0  0  0  0  0  0  0
  186.3980  178.8820  139.5420 C   0  0  0  0  0  2  0  0  0  0  0  0
  188.3020  176.2850  138.0010 F   0  0  0  0  0  0  0  0  0  0  0  0
  187.1080  178.5190  140.8540 C   0  0  1  0  0  3  0  0  0  0  0  0
  190.5670  176.3570  140.7820 N   0  0  0  0  0  1  0  0  0  0  0  0
  190.7050  177.4340  139.8160 C   0  0  0  0  0  2  0  0  0  0  0  0
  189.9650  177.8060  144.4290 C   0  0  0  0  0  3  0  0  0  0  0  0
  189.1400  177.4460  145.5050 C   0  0  0  0  0  0  0  0  0  0  0  0
  189.7130  176.9470  146.6790 C   0  0  0  0  0  3  0  0  0  0  0  0
  191.6520  176.3410  147.9260 F   0  0  0  0  0  0  0  0  0  0  0  0
  191.9210  177.1880  145.7140 C   0  0  0  0  0  3  0  0  0  0  0  0
  191.1010  176.8220  146.7850 C   0  0  0  0  0  0  0  0  0  0  0  0
  191.3530  177.6800  144.5350 C   0  0  0  0  0  3  0  0  0  0  0  0
  1 13  1  0  0  0  0
  1 16  1  0  0  0  0
  2 14  1  0  0  0  0
  4  8  2  0  0  0  0
  5  2  1  1  0  0  0
  5  7  1  0  0  0  0
  6  4  1  0  0  0  0
  6  2  2  0  0  0  0
  7  3  1  1  0  0  0
  7 17  1  0  0  0  0
  8 12  1  0  0  0  0
  9 13  1  1  0  0  0
  9 15  1  0  0  0  0
  9  6  1  0  0  0  0
 10  1  1  0  0  0  0
 14 12  2  0  0  0  0
 14 11  1  0  0  0  0
 15 28  1  6  0  0  0
 15  5  1  0  0  0  0
 16  4  1  0  0  0  0
 17 32  1  6  0  0  0
 17 19  1  0  0  0  0
 18  1  1  0  0  0  0
 19 11  1  0  0  0  0
 20 28  1  0  0  0  0
 21 30  1  6  0  0  0
 21 20  1  0  0  0  0
 22 27  1  1  0  0  0
 22 23  1  0  0  0  0
 22 24  1  0  0  0  0
 23 21  1  0  0  0  0
 24 26  1  0  0  0  0
 25 24  2  0  0  0  0
 28 26  1  6  0  0  0
 30 29  1  0  0  0  0
 31 37  2  0  0  0  0
 31 32  1  0  0  0  0
 32 33  2  0  0  0  0
 33 36  1  0  0  0  0
 35 36  2  0  0  0  0
 36 34  1  0  0  0  0
 37 35  1  0  0  0  0
M  END
>  <MODEL>
1

>  <REMARK>
 VINA RESULT:      -8.3      0.000      0.000
  Name = 
  3 active torsions:
  status: ('A' for Active; 'I' for Inactive)
    1  A    between atoms: C_4  and  C_37
    2  A    between atoms: N_21  and  C_27
    3  A    between atoms: C_23  and  C_30
                            x       y       z     vdW  Elec       q    Type
                         _______ _______ _______ _____ _____    ______ ____

>  <TORSDO>
F 3

$$$$
=
 OpenBabel11122411263D

 37 42  0  0  1  0  0  0  0  0999 V2000
  188.0310  177.3200  148.0390 C   0  0  0  0  0  0  0  0  0  0  0  0
  189.8580  177.8180  144.3210 C   0  0  0  0  0  0  0  0  0  0  0  0
  188.6960  175.4040  142.8360 C   0  0  0  0  0  1  0  0  0  0  0  0
  190.2040  177.5390  146.6740 C   0  0  0  0  0  0  0  0  0  0  0  0
  188.6990  177.8900  143.3890 C   0  0  1  0  0  3  0  0  0  0  0  0
  189.4040  177.8750  145.5920 C   0  0  0  0  0  0  0  0  0  0  0  0
  188.7490  176.8210  142.2810 C   0  0  1  0  0  3  0  0  0  0  0  0
  191.5580  177.2690  146.4170 C   0  0  0  0  0  3  0  0  0  0  0  0
  187.9470  178.0350  145.6220 C   0  0  2  0  0  3  0  0  0  0  0  0
  187.5960  178.6740  148.5710 C   0  0  0  0  0  1  0  0  0  0  0  0
  191.7160  177.3450  142.6670 C   0  0  0  0  0  2  0  0  0  0  0  0
  192.0280  177.2900  145.1300 N   0  0  0  0  0  0  0  0  0  0  0  0
  187.3810  177.0660  146.6590 C   0  0  0  0  0  2  0  0  0  0  0  0
  191.2070  177.5410  144.0660 C   0  0  0  0  0  0  0  0  0  0  0  0
  187.4990  177.7370  144.2500 N   0  0  1  0  0  0  0  0  0  0  0  0
  189.5810  177.2610  148.0170 C   0  0  0  0  0  2  0  0  0  0  0  0
  189.9510  176.9690  141.3260 C   0  0  2  0  0  3  0  0  0  0  0  0
  187.5330  176.2590  148.9980 C   0  0  0  0  0  1  0  0  0  0  0  0
  190.8650  177.9590  141.7350 O   0  0  0  0  0  0  0  0  0  0  0  0
  185.3600  178.0990  142.9560 C   0  0  0  0  0  2  0  0  0  0  0  0
  184.3510  179.1340  142.4470 C   0  0  2  0  0  3  0  0  0  0  0  0
  183.3360  179.0230  144.8370 C   0  0  2  0  0  3  0  0  0  0  0  0
  183.5440  179.8370  143.5520 C   0  0  0  0  0  2  0  0  0  0  0  0
  184.6000  178.8810  145.6440 C   0  0  0  0  0  0  0  0  0  0  0  0
  184.5540  178.3560  146.7430 O   0  0  0  0  0  0  0  0  0  0  0  0
  185.9140  179.4120  145.1400 C   0  0  0  0  0  2  0  0  0  0  0  0
  182.7930  177.7820  144.5540 F   0  0  0  0  0  0  0  0  0  0  0  0
  186.4390  178.6900  143.8910 C   0  0  1  0  0  3  0  0  0  0  0  0
  183.6730  178.9400  140.1150 N   0  0  0  0  0  1  0  0  0  0  0  0
  183.3940  178.4800  141.4660 C   0  0  0  0  0  2  0  0  0  0  0  0
  190.3320  177.1090  138.8380 C   0  0  0  0  0  3  0  0  0  0  0  0
  189.4730  177.2500  139.9380 C   0  0  0  0  0  0  0  0  0  0  0  0
  188.1660  177.7070  139.7420 C   0  0  0  0  0  3  0  0  0  0  0  0
  186.4460  178.4480  138.2670 F   0  0  0  0  0  0  0  0  0  0  0  0
  188.5700  177.8600  137.3590 C   0  0  0  0  0  3  0  0  0  0  0  0
  187.7140  178.0080  138.4540 C   0  0  0  0  0  0  0  0  0  0  0  0
  189.8790  177.4120  137.5510 C   0  0  0  0  0  3  0  0  0  0  0  0
  1 10  1  0  0  0  0
  1 18  1  0  0  0  0
  2  6  1  0  0  0  0
  4 16  1  0  0  0  0
  5 15  1  0  0  0  0
  5  2  1  1  0  0  0
  6  9  1  0  0  0  0
  6  4  2  0  0  0  0
  7  3  1  1  0  0  0
  7  5  1  0  0  0  0
  8  4  1  0  0  0  0
  9 13  1  1  0  0  0
 11 14  1  0  0  0  0
 12  8  2  0  0  0  0
 13  1  1  0  0  0  0
 14  2  2  0  0  0  0
 14 12  1  0  0  0  0
 15 28  1  6  0  0  0
 15  9  1  0  0  0  0
 16  1  1  0  0  0  0
 17 32  1  6  0  0  0
 17 19  1  0  0  0  0
 17  7  1  0  0  0  0
 19 11  1  0  0  0  0
 21 30  1  6  0  0  0
 21 20  1  0  0  0  0
 21 23  1  0  0  0  0
 22 27  1  6  0  0  0
 22 24  1  0  0  0  0
 23 22  1  0  0  0  0
 24 25  2  0  0  0  0
 26 24  1  0  0  0  0
 28 20  1  1  0  0  0
 28 26  1  0  0  0  0
 29 30  1  0  0  0  0
 31 32  1  0  0  0  0
 33 32  2  0  0  0  0
 34 36  1  0  0  0  0
 35 37  1  0  0  0  0
 35 36  2  0  0  0  0
 36 33  1  0  0  0  0
 37 31  2  0  0  0  0
M  END
>  <MODEL>
2

>  <REMARK>
 VINA RESULT:      -8.3      2.590      7.207
  Name = 
  3 active torsions:
  status: ('A' for Active; 'I' for Inactive)
    1  A    between atoms: C_4  and  C_37
    2  A    between atoms: N_21  and  C_27
    3  A    between atoms: C_23  and  C_30
                            x       y       z     vdW  Elec       q    Type
                         _______ _______ _______ _____ _____    ______ ____

>  <TORSDO>
F 3

$$$$
=
 OpenBabel11122411263D

 37 42  0  0  1  0  0  0  0  0999 V2000
  192.9480  175.5800  135.6730 C   0  0  0  0  0  0  0  0  0  0  0  0
  190.2820  176.6120  138.7130 C   0  0  0  0  0  0  0  0  0  0  0  0
  189.0120  179.1090  137.4740 C   0  0  0  0  0  1  0  0  0  0  0  0
  192.5720  176.2030  138.1440 C   0  0  0  0  0  0  0  0  0  0  0  0
  188.9680  176.6200  138.0130 C   0  0  1  0  0  3  0  0  0  0  0  0
  191.2130  176.0780  137.8920 C   0  0  0  0  0  0  0  0  0  0  0  0
  188.2360  177.9710  138.1210 C   0  0  1  0  0  3  0  0  0  0  0  0
  192.9530  176.7850  139.3630 C   0  0  0  0  0  3  0  0  0  0  0  0
  190.6130  175.6500  136.6250 C   0  0  2  0  0  3  0  0  0  0  0  0
  192.9510  174.0700  135.4980 C   0  0  0  0  0  1  0  0  0  0  0  0
  189.6720  177.9120  140.7980 C   0  0  0  0  0  2  0  0  0  0  0  0
  191.9970  177.2550  140.2260 N   0  0  0  0  0  0  0  0  0  0  0  0
  191.5130  176.1250  135.4860 C   0  0  0  0  0  2  0  0  0  0  0  0
  190.6640  177.2000  139.9250 C   0  0  0  0  0  0  0  0  0  0  0  0
  189.2780  176.2720  136.6030 N   0  0  1  0  0  0  0  0  0  0  0  0
  193.5710  175.9280  137.0500 C   0  0  0  0  0  2  0  0  0  0  0  0
  187.8450  178.3540  139.5640 C   0  0  2  0  0  3  0  0  0  0  0  0
  193.8250  176.1770  134.5940 C   0  0  0  0  0  1  0  0  0  0  0  0
  188.3660  177.4720  140.5310 O   0  0  0  0  0  0  0  0  0  0  0  0
  187.3510  174.7180  137.1060 C   0  0  0  0  0  2  0  0  0  0  0  0
  186.4690  173.5840  136.5700 C   0  0  2  0  0  3  0  0  0  0  0  0
  185.1400  175.4610  135.3590 C   0  0  2  0  0  3  0  0  0  0  0  0
  185.5560  173.9830  135.3980 C   0  0  0  0  0  2  0  0  0  0  0  0
  186.2770  176.3730  134.9790 C   0  0  0  0  0  0  0  0  0  0  0  0
  186.0590  177.5590  134.7990 O   0  0  0  0  0  0  0  0  0  0  0  0
  187.6700  175.8450  134.7750 C   0  0  0  0  0  2  0  0  0  0  0  0
  184.5810  175.8500  136.5640 F   0  0  0  0  0  0  0  0  0  0  0  0
  188.3210  175.2990  136.0540 C   0  0  1  0  0  3  0  0  0  0  0  0
  184.4020  172.4370  137.1580 N   0  0  0  0  0  1  0  0  0  0  0  0
  185.6220  173.0170  137.6950 C   0  0  0  0  0  2  0  0  0  0  0  0
  185.5320  178.2990  138.5630 C   0  0  0  0  0  3  0  0  0  0  0  0
  186.3570  178.4350  139.6890 C   0  0  0  0  0  0  0  0  0  0  0  0
  185.7870  178.6990  140.9390 C   0  0  0  0  0  3  0  0  0  0  0  0
  183.8500  179.0670  142.2790 F   0  0  0  0  0  0  0  0  0  0  0  0
  183.5780  178.6710  139.9440 C   0  0  0  0  0  3  0  0  0  0  0  0
  184.3990  178.8140  141.0670 C   0  0  0  0  0  0  0  0  0  0  0  0
  184.1440  178.4140  138.6920 C   0  0  0  0  0  3  0  0  0  0  0  0
  1 16  1  0  0  0  0
  2 14  1  0  0  0  0
  4  8  2  0  0  0  0
  5  7  1  0  0  0  0
  5  2  1  1  0  0  0
  6  4  1  0  0  0  0
  6  2  2  0  0  0  0
  7  3  1  1  0  0  0
  7 17  1  0  0  0  0
  8 12  1  0  0  0  0
  9 13  1  6  0  0  0
  9  6  1  0  0  0  0
 10  1  1  0  0  0  0
 13  1  1  0  0  0  0
 14 12  2  0  0  0  0
 14 11  1  0  0  0  0
 15 28  1  1  0  0  0
 15  9  1  0  0  0  0
 15  5  1  0  0  0  0
 16  4  1  0  0  0  0
 17 32  1  6  0  0  0
 17 19  1  0  0  0  0
 18  1  1  0  0  0  0
 19 11  1  0  0  0  0
 21 20  1  0  0  0  0
 21 30  1  1  0  0  0
 22 23  1  0  0  0  0
 22 27  1  1  0  0  0
 23 21  1  0  0  0  0
 24 22  1  0  0  0  0
 25 24  2  0  0  0  0
 26 24  1  0  0  0  0
 28 26  1  6  0  0  0
 28 20  1  0  0  0  0
 29 30  1  0  0  0  0
 31 37  2  0  0  0  0
 31 32  1  0  0  0  0
 32 33  2  0  0  0  0
 33 36  1  0  0  0  0
 35 36  2  0  0  0  0
 36 34  1  0  0  0  0
 37 35  1  0  0  0  0
M  END
>  <MODEL>
3

>  <REMARK>
 VINA RESULT:      -8.0      4.118      8.283
  Name = 
  3 active torsions:
  status: ('A' for Active; 'I' for Inactive)
    1  A    between atoms: C_4  and  C_37
    2  A    between atoms: N_21  and  C_27
    3  A    between atoms: C_23  and  C_30
                            x       y       z     vdW  Elec       q    Type
                         _______ _______ _______ _____ _____    ______ ____

>  <TORSDO>
F 3

$$$$
=
 OpenBabel11122411263D

 37 42  0  0  1  0  0  0  0  0999 V2000
  190.9060  178.0220  144.2140 C   0  0  0  0  0  0  0  0  0  0  0  0
  186.7390  177.7970  144.2500 C   0  0  0  0  0  0  0  0  0  0  0  0
  186.0560  180.5190  143.0220 C   0  0  0  0  0  1  0  0  0  0  0  0
  188.7370  177.7090  145.5680 C   0  0  0  0  0  0  0  0  0  0  0  0
  186.3840  178.0020  142.8180 C   0  0  1  0  0  3  0  0  0  0  0  0
  188.0760  177.6280  144.3510 C   0  0  0  0  0  0  0  0  0  0  0  0
  185.4360  179.1960  142.5970 C   0  0  1  0  0  3  0  0  0  0  0  0
  187.9490  177.8340  146.7240 C   0  0  0  0  0  3  0  0  0  0  0  0
  188.7100  177.6560  143.0290 C   0  0  2  0  0  3  0  0  0  0  0  0
  191.4790  176.6750  143.8060 C   0  0  0  0  0  1  0  0  0  0  0  0
  184.4900  178.2450  145.3240 C   0  0  0  0  0  2  0  0  0  0  0  0
  186.5860  177.9270  146.6170 N   0  0  0  0  0  0  0  0  0  0  0  0
  189.9530  178.5410  143.1140 C   0  0  0  0  0  2  0  0  0  0  0  0
  185.9560  177.9300  145.4030 C   0  0  0  0  0  0  0  0  0  0  0  0
  187.6810  178.1920  142.1210 N   0  0  1  0  0  0  0  0  0  0  0  0
  190.2330  177.8820  145.6050 C   0  0  0  0  0  2  0  0  0  0  0  0
  184.0530  179.0240  143.2600 C   0  0  2  0  0  3  0  0  0  0  0  0
  192.0550  178.9980  144.3430 C   0  0  0  0  0  1  0  0  0  0  0  0
  183.9680  177.8780  144.0740 O   0  0  0  0  0  0  0  0  0  0  0  0
  187.2780  178.2530  139.6280 C   0  0  0  0  0  2  0  0  0  0  0  0
  187.1790  177.4230  138.3430 C   0  0  2  0  0  3  0  0  0  0  0  0
  189.7760  177.5350  138.3110 C   0  0  2  0  0  3  0  0  0  0  0  0
  188.5040  176.7840  137.8920 C   0  0  0  0  0  2  0  0  0  0  0  0
  190.0530  177.4240  139.7880 C   0  0  0  0  0  0  0  0  0  0  0  0
  191.0920  177.8780  140.2380 O   0  0  0  0  0  0  0  0  0  0  0  0
  189.0940  176.7300  140.7150 C   0  0  0  0  0  2  0  0  0  0  0  0
  189.7190  178.8610  137.9210 F   0  0  0  0  0  0  0  0  0  0  0  0
  187.7410  177.4410  140.8570 C   0  0  1  0  0  3  0  0  0  0  0  0
  187.0330  177.7380  135.9320 N   0  0  0  0  0  1  0  0  0  0  0  0
  186.6280  178.2810  137.2170 C   0  0  0  0  0  2  0  0  0  0  0  0
  181.6270  179.0030  142.5760 C   0  0  0  0  0  3  0  0  0  0  0  0
  182.9830  178.9970  142.2170 C   0  0  0  0  0  0  0  0  0  0  0  0
  183.3420  178.9140  140.8670 C   0  0  0  0  0  3  0  0  0  0  0  0
  182.7050  178.7750  138.5750 F   0  0  0  0  0  0  0  0  0  0  0  0
  181.0030  178.8660  140.2410 C   0  0  0  0  0  3  0  0  0  0  0  0
  182.3540  178.8520  139.8810 C   0  0  0  0  0  0  0  0  0  0  0  0
  180.6390  178.9400  141.5880 C   0  0  0  0  0  3  0  0  0  0  0  0
  1 18  1  0  0  0  0
  1 16  1  0  0  0  0
  2  6  2  0  0  0  0
  2 14  1  0  0  0  0
  4 16  1  0  0  0  0
  4  8  2  0  0  0  0
  5  2  1  1  0  0  0
  6  4  1  0  0  0  0
  7  5  1  0  0  0  0
  7  3  1  1  0  0  0
  7 17  1  0  0  0  0
  9 13  1  1  0  0  0
  9  6  1  0  0  0  0
 10  1  1  0  0  0  0
 11 14  1  0  0  0  0
 12  8  1  0  0  0  0
 13  1  1  0  0  0  0
 14 12  2  0  0  0  0
 15 28  1  6  0  0  0
 15  5  1  0  0  0  0
 15  9  1  0  0  0  0
 17 32  1  6  0  0  0
 17 19  1  0  0  0  0
 19 11  1  0  0  0  0
 21 30  1  6  0  0  0
 21 20  1  0  0  0  0
 22 27  1  1  0  0  0
 22 24  1  0  0  0  0
 23 22  1  0  0  0  0
 23 21  1  0  0  0  0
 24 25  2  0  0  0  0
 24 26  1  0  0  0  0
 26 28  1  0  0  0  0
 28 20  1  6  0  0  0
 29 30  1  0  0  0  0
 32 31  1  0  0  0  0
 33 32  2  0  0  0  0
 34 36  1  0  0  0  0
 35 37  1  0  0  0  0
 36 35  2  0  0  0  0
 36 33  1  0  0  0  0
 37 31  2  0  0  0  0
M  END
>  <MODEL>
4

>  <REMARK>
 VINA RESULT:      -7.4      2.531      6.533
  Name = 
  3 active torsions:
  status: ('A' for Active; 'I' for Inactive)
    1  A    between atoms: C_4  and  C_37
    2  A    between atoms: N_21  and  C_27
    3  A    between atoms: C_23  and  C_30
                            x       y       z     vdW  Elec       q    Type
                         _______ _______ _______ _____ _____    ______ ____

>  <TORSDO>
F 3

$$$$
=
 OpenBabel11122411263D

 37 42  0  0  1  0  0  0  0  0999 V2000
  189.0530  177.8500  147.0830 C   0  0  0  0  0  0  0  0  0  0  0  0
  185.6680  177.8750  144.6420 C   0  0  0  0  0  0  0  0  0  0  0  0
  186.1480  180.4810  143.1050 C   0  0  0  0  0  1  0  0  0  0  0  0
  186.4840  177.8160  146.8930 C   0  0  0  0  0  0  0  0  0  0  0  0
  186.2480  177.9420  143.2720 C   0  0  1  0  0  3  0  0  0  0  0  0
  186.6610  177.6410  145.5280 C   0  0  0  0  0  0  0  0  0  0  0  0
  185.7520  179.1580  142.4660 C   0  0  1  0  0  3  0  0  0  0  0  0
  185.1880  178.1130  147.3440 C   0  0  0  0  0  3  0  0  0  0  0  0
  187.9490  177.4860  144.8450 C   0  0  2  0  0  3  0  0  0  0  0  0
  189.6000  176.4360  147.1690 C   0  0  0  0  0  1  0  0  0  0  0  0
  183.2850  178.5690  144.1390 C   0  0  0  0  0  2  0  0  0  0  0  0
  184.1690  178.2730  146.4410 N   0  0  0  0  0  0  0  0  0  0  0  0
  188.9940  178.3010  145.6050 C   0  0  0  0  0  2  0  0  0  0  0  0
  184.3780  178.1800  145.0930 C   0  0  0  0  0  0  0  0  0  0  0  0
  187.7190  177.9770  143.4750 N   0  0  1  0  0  0  0  0  0  0  0  0
  187.6800  177.9040  147.8050 C   0  0  0  0  0  2  0  0  0  0  0  0
  184.2350  179.1410  142.1830 C   0  0  2  0  0  3  0  0  0  0  0  0
  190.0070  178.7670  147.8190 C   0  0  0  0  0  1  0  0  0  0  0  0
  183.5600  178.0980  142.8460 O   0  0  0  0  0  0  0  0  0  0  0  0
  188.7060  177.7340  141.1630 C   0  0  0  0  0  2  0  0  0  0  0  0
  189.2880  176.7580  140.1340 C   0  0  2  0  0  3  0  0  0  0  0  0
  191.5050  176.9830  141.4730 C   0  0  2  0  0  3  0  0  0  0  0  0
  190.6350  176.1320  140.5370 C   0  0  0  0  0  2  0  0  0  0  0  0
  190.9500  177.0560  142.8710 C   0  0  0  0  0  0  0  0  0  0  0  0
  191.6000  177.6050  143.7450 O   0  0  0  0  0  0  0  0  0  0  0  0
  189.6290  176.4300  143.2240 C   0  0  0  0  0  2  0  0  0  0  0  0
  191.6950  178.2520  140.9540 F   0  0  0  0  0  0  0  0  0  0  0  0
  188.4250  177.0900  142.5390 C   0  0  1  0  0  3  0  0  0  0  0  0
  189.0540  178.8510  138.9100 N   0  0  0  0  0  1  0  0  0  0  0  0
  189.4400  177.4550  138.7930 C   0  0  0  0  0  2  0  0  0  0  0  0
  182.7020  179.2520  140.1850 C   0  0  0  0  0  3  0  0  0  0  0  0
  183.9880  179.0610  140.7110 C   0  0  0  0  0  0  0  0  0  0  0  0
  185.0470  178.7440  139.8530 C   0  0  0  0  0  3  0  0  0  0  0  0
  185.8550  178.3270  137.6500 F   0  0  0  0  0  0  0  0  0  0  0  0
  183.5440  178.8290  137.9560 C   0  0  0  0  0  3  0  0  0  0  0  0
  184.8260  178.6310  138.4780 C   0  0  0  0  0  0  0  0  0  0  0  0
  182.4820  179.1380  138.8100 C   0  0  0  0  0  3  0  0  0  0  0  0
  1 10  1  0  0  0  0
  1 16  1  0  0  0  0
  1 18  1  0  0  0  0
  2 14  2  0  0  0  0
  2  6  1  0  0  0  0
  4  8  1  0  0  0  0
  4 16  1  0  0  0  0
  5 15  1  0  0  0  0
  5  2  1  1  0  0  0
  6  4  2  0  0  0  0
  7  3  1  1  0  0  0
  7  5  1  0  0  0  0
  9  6  1  0  0  0  0
  9 13  1  1  0  0  0
 11 14  1  0  0  0  0
 12  8  2  0  0  0  0
 13  1  1  0  0  0  0
 14 12  1  0  0  0  0
 15 28  1  6  0  0  0
 15  9  1  0  0  0  0
 17 32  1  6  0  0  0
 17  7  1  0  0  0  0
 17 19  1  0  0  0  0
 19 11  1  0  0  0  0
 21 30  1  6  0  0  0
 21 23  1  0  0  0  0
 21 20  1  0  0  0  0
 22 27  1  6  0  0  0
 22 24  1  0  0  0  0
 23 22  1  0  0  0  0
 24 26  1  0  0  0  0
 24 25  2  0  0  0  0
 28 20  1  6  0  0  0
 28 26  1  0  0  0  0
 30 29  1  0  0  0  0
 31 32  1  0  0  0  0
 33 32  2  0  0  0  0
 34 36  1  0  0  0  0
 35 36  2  0  0  0  0
 35 37  1  0  0  0  0
 36 33  1  0  0  0  0
 37 31  2  0  0  0  0
M  END
>  <MODEL>
5

>  <REMARK>
 VINA RESULT:      -7.0      2.297      6.462
  Name = 
  3 active torsions:
  status: ('A' for Active; 'I' for Inactive)
    1  A    between atoms: C_4  and  C_37
    2  A    between atoms: N_21  and  C_27
    3  A    between atoms: C_23  and  C_30
                            x       y       z     vdW  Elec       q    Type
                         _______ _______ _______ _____ _____    ______ ____

>  <TORSDO>
F 3

$$$$
=
 OpenBabel11122411263D

 37 42  0  0  1  0  0  0  0  0999 V2000
  180.2130  173.0640  136.6190 C   0  0  0  0  0  0  0  0  0  0  0  0
  184.2870  173.8230  137.1080 C   0  0  0  0  0  0  0  0  0  0  0  0
  184.6170  176.1830  135.1830 C   0  0  0  0  0  1  0  0  0  0  0  0
  182.6360  172.1970  136.5060 C   0  0  0  0  0  0  0  0  0  0  0  0
  184.3100  175.2510  137.5330 C   0  0  1  0  0  3  0  0  0  0  0  0
  183.0110  173.3800  137.1250 C   0  0  0  0  0  0  0  0  0  0  0  0
  185.1570  176.1420  136.6050 C   0  0  1  0  0  3  0  0  0  0  0  0
  183.6580  171.3920  135.9770 C   0  0  0  0  0  3  0  0  0  0  0  0
  182.0980  174.4270  137.5940 C   0  0  2  0  0  3  0  0  0  0  0  0
  179.5950  172.7460  137.9700 C   0  0  0  0  0  1  0  0  0  0  0  0
  186.7080  173.5350  136.4240 C   0  0  0  0  0  2  0  0  0  0  0  0
  184.9610  171.8140  136.0340 N   0  0  0  0  0  0  0  0  0  0  0  0
  180.8850  174.4550  136.6650 C   0  0  0  0  0  2  0  0  0  0  0  0
  185.3040  173.0230  136.5720 C   0  0  0  0  0  0  0  0  0  0  0  0
  182.8860  175.6710  137.5520 N   0  0  1  0  0  0  0  0  0  0  0  0
  181.1820  171.9180  136.2260 C   0  0  0  0  0  2  0  0  0  0  0  0
  186.6560  175.7770  136.5900 C   0  0  2  0  0  3  0  0  0  0  0  0
  179.0990  173.1110  135.5950 C   0  0  0  0  0  1  0  0  0  0  0  0
  186.9470  174.6000  137.3070 O   0  0  0  0  0  0  0  0  0  0  0  0
  183.7000  177.4120  139.1910 C   0  0  0  0  0  2  0  0  0  0  0  0
  183.4320  178.1130  140.5280 C   0  0  2  0  0  3  0  0  0  0  0  0
  181.7740  179.5990  139.1860 C   0  0  2  0  0  3  0  0  0  0  0  0
  182.1770  179.0030  140.5420 C   0  0  0  0  0  2  0  0  0  0  0  0
  181.2130  178.5660  138.2430 C   0  0  0  0  0  0  0  0  0  0  0  0
  180.7490  178.9210  137.1730 O   0  0  0  0  0  0  0  0  0  0  0  0
  181.1760  177.1090  138.6110 C   0  0  0  0  0  2  0  0  0  0  0  0
  182.8360  180.2680  138.6040 F   0  0  0  0  0  0  0  0  0  0  0  0
  182.5630  176.4660  138.7470 C   0  0  1  0  0  3  0  0  0  0  0  0
  185.5880  179.0030  139.8240 N   0  0  0  0  0  1  0  0  0  0  0  0
  184.6400  178.9440  140.9240 C   0  0  0  0  0  2  0  0  0  0  0  0
  187.5800  178.1150  136.3990 C   0  0  0  0  0  3  0  0  0  0  0  0
  187.4680  176.9160  137.1180 C   0  0  0  0  0  0  0  0  0  0  0  0
  188.1620  176.7640  138.3230 C   0  0  0  0  0  3  0  0  0  0  0  0
  189.6220  177.6560  139.9820 F   0  0  0  0  0  0  0  0  0  0  0  0
  189.0580  179.0030  138.0980 C   0  0  0  0  0  3  0  0  0  0  0  0
  188.9530  177.8060  138.8140 C   0  0  0  0  0  0  0  0  0  0  0  0
  188.3720  179.1570  136.8900 C   0  0  0  0  0  3  0  0  0  0  0  0
  1 13  1  0  0  0  0
  1 10  1  0  0  0  0
  2  6  1  0  0  0  0
  4  6  2  0  0  0  0
  5  2  1  6  0  0  0
  5 15  1  0  0  0  0
  6  9  1  0  0  0  0
  7  3  1  6  0  0  0
  7  5  1  0  0  0  0
  8 12  2  0  0  0  0
  8  4  1  0  0  0  0
  9 13  1  6  0  0  0
 11 14  1  0  0  0  0
 11 19  1  0  0  0  0
 12 14  1  0  0  0  0
 14  2  2  0  0  0  0
 15  9  1  0  0  0  0
 15 28  1  1  0  0  0
 16  4  1  0  0  0  0
 16  1  1  0  0  0  0
 17  7  1  0  0  0  0
 17 32  1  1  0  0  0
 17 19  1  0  0  0  0
 18  1  1  0  0  0  0
 20 21  1  0  0  0  0
 21 23  1  0  0  0  0
 21 30  1  6  0  0  0
 22 27  1  6  0  0  0
 22 23  1  0  0  0  0
 24 26  1  0  0  0  0
 24 22  1  0  0  0  0
 25 24  2  0  0  0  0
 28 26  1  6  0  0  0
 28 20  1  0  0  0  0
 29 30  1  0  0  0  0
 31 37  2  0  0  0  0
 31 32  1  0  0  0  0
 32 33  2  0  0  0  0
 33 36  1  0  0  0  0
 35 36  2  0  0  0  0
 36 34  1  0  0  0  0
 37 35  1  0  0  0  0
M  END
>  <MODEL>
6

>  <REMARK>
 VINA RESULT:      -6.6      4.517      7.940
  Name = 
  3 active torsions:
  status: ('A' for Active; 'I' for Inactive)
    1  A    between atoms: C_4  and  C_37
    2  A    between atoms: N_21  and  C_27
    3  A    between atoms: C_23  and  C_30
                            x       y       z     vdW  Elec       q    Type
                         _______ _______ _______ _____ _____    ______ ____

>  <TORSDO>
F 3

$$$$
=
 OpenBabel11122411263D

 37 42  0  0  1  0  0  0  0  0999 V2000
  183.7780  176.8870  136.7460 C   0  0  0  0  0  0  0  0  0  0  0  0
  187.3160  174.7030  137.1070 C   0  0  0  0  0  0  0  0  0  0  0  0
  188.9940  176.0570  134.9320 C   0  0  0  0  0  1  0  0  0  0  0  0
  184.9570  174.5970  136.7030 C   0  0  0  0  0  0  0  0  0  0  0  0
  188.3310  175.7580  137.3730 C   0  0  1  0  0  3  0  0  0  0  0  0
  186.0820  175.2500  137.1850 C   0  0  0  0  0  0  0  0  0  0  0  0
  189.4780  175.7640  136.3450 C   0  0  1  0  0  3  0  0  0  0  0  0
  185.1190  173.2770  136.2540 C   0  0  0  0  0  3  0  0  0  0  0  0
  186.1600  176.6680  137.5470 C   0  0  2  0  0  3  0  0  0  0  0  0
  183.2220  177.1740  138.1300 C   0  0  0  0  0  1  0  0  0  0  0  0
  188.8380  172.7950  136.4330 C   0  0  0  0  0  2  0  0  0  0  0  0
  186.3630  172.7020  136.2510 N   0  0  0  0  0  0  0  0  0  0  0  0
  185.2150  177.4470  136.6330 C   0  0  0  0  0  2  0  0  0  0  0  0
  187.4760  173.3880  136.6510 C   0  0  0  0  0  0  0  0  0  0  0  0
  187.5740  177.0360  137.3610 N   0  0  1  0  0  0  0  0  0  0  0  0
  183.6810  175.3640  136.4700 C   0  0  0  0  0  2  0  0  0  0  0  0
  190.3290  174.4760  136.3530 C   0  0  2  0  0  3  0  0  0  0  0  0
  182.9100  177.6050  135.7350 C   0  0  0  0  0  1  0  0  0  0  0  0
  189.8050  173.4720  137.1910 O   0  0  0  0  0  0  0  0  0  0  0  0
  187.1060  177.7630  139.7340 C   0  0  0  0  0  2  0  0  0  0  0  0
  187.4110  178.7990  140.8220 C   0  0  2  0  0  3  0  0  0  0  0  0
  189.5570  177.4010  141.2690 C   0  0  2  0  0  3  0  0  0  0  0  0
  188.8560  178.7650  141.3500 C   0  0  0  0  0  2  0  0  0  0  0  0
  189.9050  177.0130  139.8560 C   0  0  0  0  0  0  0  0  0  0  0  0
  190.5650  176.0070  139.6570 O   0  0  0  0  0  0  0  0  0  0  0  0
  189.4910  177.8610  138.6850 C   0  0  0  0  0  2  0  0  0  0  0  0
  188.7950  176.4170  141.8740 F   0  0  0  0  0  0  0  0  0  0  0  0
  187.9730  177.9210  138.4660 C   0  0  1  0  0  3  0  0  0  0  0  0
  185.2280  179.3730  141.7370 N   0  0  0  0  0  1  0  0  0  0  0  0
  186.4490  178.6240  141.9840 C   0  0  0  0  0  2  0  0  0  0  0  0
  192.2460  176.0920  136.6120 C   0  0  0  0  0  3  0  0  0  0  0  0
  191.7360  174.7920  136.7460 C   0  0  0  0  0  0  0  0  0  0  0  0
  192.5680  173.7660  137.2060 C   0  0  0  0  0  3  0  0  0  0  0  0
  194.6980  173.0410  137.9910 F   0  0  0  0  0  0  0  0  0  0  0  0
  194.4000  175.3350  137.4160 C   0  0  0  0  0  3  0  0  0  0  0  0
  193.8970  174.0370  137.5430 C   0  0  0  0  0  0  0  0  0  0  0  0
  193.5750  176.3630  136.9500 C   0  0  0  0  0  3  0  0  0  0  0  0
  1 10  1  0  0  0  0
  2  6  1  0  0  0  0
  4  6  2  0  0  0  0
  5  2  1  6  0  0  0
  6  9  1  0  0  0  0
  7  3  1  6  0  0  0
  7 17  1  0  0  0  0
  7  5  1  0  0  0  0
  8  4  1  0  0  0  0
  9 13  1  6  0  0  0
 11 14  1  0  0  0  0
 11 19  1  0  0  0  0
 12  8  2  0  0  0  0
 12 14  1  0  0  0  0
 13  1  1  0  0  0  0
 14  2  2  0  0  0  0
 15  5  1  0  0  0  0
 15  9  1  0  0  0  0
 15 28  1  1  0  0  0
 16  4  1  0  0  0  0
 16  1  1  0  0  0  0
 17 32  1  1  0  0  0
 17 19  1  0  0  0  0
 18  1  1  0  0  0  0
 20 21  1  0  0  0  0
 21 23  1  0  0  0  0
 21 30  1  1  0  0  0
 22 23  1  0  0  0  0
 22 27  1  6  0  0  0
 24 22  1  0  0  0  0
 25 24  2  0  0  0  0
 26 24  1  0  0  0  0
 28 26  1  1  0  0  0
 28 20  1  0  0  0  0
 29 30  1  0  0  0  0
 31 32  2  0  0  0  0
 31 37  1  0  0  0  0
 32 33  1  0  0  0  0
 33 36  2  0  0  0  0
 35 36  1  0  0  0  0
 36 34  1  0  0  0  0
 37 35  2  0  0  0  0
M  END
>  <MODEL>
7

>  <REMARK>
 VINA RESULT:      -6.6      3.863      7.435
  Name = 
  3 active torsions:
  status: ('A' for Active; 'I' for Inactive)
    1  A    between atoms: C_4  and  C_37
    2  A    between atoms: N_21  and  C_27
    3  A    between atoms: C_23  and  C_30
                            x       y       z     vdW  Elec       q    Type
                         _______ _______ _______ _____ _____    ______ ____

>  <TORSDO>
F 3

$$$$
=
 OpenBabel11122411263D

 37 42  0  0  1  0  0  0  0  0999 V2000
  186.2520  178.0390  146.7060 C   0  0  0  0  0  0  0  0  0  0  0  0
  189.4600  178.0140  144.0370 C   0  0  0  0  0  0  0  0  0  0  0  0
  188.9330  175.3580  142.6050 C   0  0  0  0  0  1  0  0  0  0  0  0
  188.8000  178.1190  146.3370 C   0  0  0  0  0  0  0  0  0  0  0  0
  188.7890  177.8980  142.7130 C   0  0  1  0  0  3  0  0  0  0  0  0
  188.5260  178.2530  144.9840 C   0  0  0  0  0  0  0  0  0  0  0  0
  189.2550  176.6710  141.9070 C   0  0  1  0  0  3  0  0  0  0  0  0
  190.1310  177.8600  146.7040 C   0  0  0  0  0  3  0  0  0  0  0  0
  187.1910  178.3630  144.3870 C   0  0  2  0  0  3  0  0  0  0  0  0
  185.6810  179.4440  146.7920 C   0  0  0  0  0  1  0  0  0  0  0  0
  191.8180  177.3540  143.3890 C   0  0  0  0  0  2  0  0  0  0  0  0
  191.0880  177.6950  145.7380 N   0  0  0  0  0  0  0  0  0  0  0  0
  186.2190  177.5490  145.2390 C   0  0  0  0  0  2  0  0  0  0  0  0
  190.7850  177.7480  144.4060 C   0  0  0  0  0  0  0  0  0  0  0  0
  187.3370  177.8390  143.0190 N   0  0  1  0  0  0  0  0  0  0  0  0
  187.6710  178.0320  147.3310 C   0  0  0  0  0  2  0  0  0  0  0  0
  190.7480  176.7100  141.5190 C   0  0  2  0  0  3  0  0  0  0  0  0
  185.3700  177.1240  147.5290 C   0  0  0  0  0  1  0  0  0  0  0  0
  191.4440  177.7840  142.1060 O   0  0  0  0  0  0  0  0  0  0  0  0
  186.2500  178.0260  140.7460 C   0  0  0  0  0  2  0  0  0  0  0  0
  185.5770  178.9680  139.7400 C   0  0  2  0  0  3  0  0  0  0  0  0
  183.4290  178.6280  141.1640 C   0  0  2  0  0  3  0  0  0  0  0  0
  184.2160  179.5220  140.1950 C   0  0  0  0  0  2  0  0  0  0  0  0
  184.0410  178.5870  142.5400 C   0  0  0  0  0  0  0  0  0  0  0  0
  183.4550  178.0060  143.4390 O   0  0  0  0  0  0  0  0  0  0  0  0
  185.3390  179.2830  142.8420 C   0  0  0  0  0  2  0  0  0  0  0  0
  183.2870  177.3500  140.6530 F   0  0  0  0  0  0  0  0  0  0  0  0
  186.5500  178.6860  142.1100 C   0  0  1  0  0  3  0  0  0  0  0  0
  186.5270  178.5800  137.5310 N   0  0  0  0  0  1  0  0  0  0  0  0
  185.4110  178.2620  138.4070 C   0  0  0  0  0  2  0  0  0  0  0  0
  189.7630  176.7540  139.1990 C   0  0  0  0  0  3  0  0  0  0  0  0
  190.8910  176.7540  140.0320 C   0  0  0  0  0  0  0  0  0  0  0  0
  192.1700  176.7450  139.4650 C   0  0  0  0  0  3  0  0  0  0  0  0
  193.5630  176.7440  137.5300 F   0  0  0  0  0  0  0  0  0  0  0  0
  191.1960  176.7570  137.2480 C   0  0  0  0  0  3  0  0  0  0  0  0
  192.3220  176.7500  138.0750 C   0  0  0  0  0  0  0  0  0  0  0  0
  189.9160  176.7580  137.8090 C   0  0  0  0  0  3  0  0  0  0  0  0
  1 10  1  0  0  0  0
  1 16  1  0  0  0  0
  1 18  1  0  0  0  0
  2 14  2  0  0  0  0
  2  6  1  0  0  0  0
  4  8  1  0  0  0  0
  4 16  1  0  0  0  0
  5 15  1  0  0  0  0
  5  2  1  1  0  0  0
  6  4  2  0  0  0  0
  7  3  1  1  0  0  0
  7  5  1  0  0  0  0
  9  6  1  0  0  0  0
  9 13  1  1  0  0  0
 11 14  1  0  0  0  0
 12  8  2  0  0  0  0
 13  1  1  0  0  0  0
 14 12  1  0  0  0  0
 15 28  1  6  0  0  0
 15  9  1  0  0  0  0
 17 32  1  6  0  0  0
 17  7  1  0  0  0  0
 17 19  1  0  0  0  0
 19 11  1  0  0  0  0
 21 30  1  6  0  0  0
 21 23  1  0  0  0  0
 21 20  1  0  0  0  0
 22 27  1  6  0  0  0
 22 24  1  0  0  0  0
 23 22  1  0  0  0  0
 24 26  1  0  0  0  0
 24 25  2  0  0  0  0
 28 20  1  6  0  0  0
 28 26  1  0  0  0  0
 29 30  1  0  0  0  0
 31 32  1  0  0  0  0
 33 32  2  0  0  0  0
 34 36  1  0  0  0  0
 35 37  1  0  0  0  0
 35 36  2  0  0  0  0
 36 33  1  0  0  0  0
 37 31  2  0  0  0  0
M  END
>  <MODEL>
8

>  <REMARK>
 VINA RESULT:      -6.5      2.865      5.986
  Name = 
  3 active torsions:
  status: ('A' for Active; 'I' for Inactive)
    1  A    between atoms: C_4  and  C_37
    2  A    between atoms: N_21  and  C_27
    3  A    between atoms: C_23  and  C_30
                            x       y       z     vdW  Elec       q    Type
                         _______ _______ _______ _____ _____    ______ ____

>  <TORSDO>
F 3

$$$$
=
 OpenBabel11122411263D

 37 42  0  0  1  0  0  0  0  0999 V2000
  182.8240  179.3290  138.8860 C   0  0  0  0  0  0  0  0  0  0  0  0
  186.2440  177.0160  138.2820 C   0  0  0  0  0  0  0  0  0  0  0  0
  188.1600  179.1700  137.2470 C   0  0  0  0  0  1  0  0  0  0  0  0
  183.9320  177.3110  137.7310 C   0  0  0  0  0  0  0  0  0  0  0  0
  187.2620  177.7030  139.1240 C   0  0  1  0  0  3  0  0  0  0  0  0
  185.0260  177.5350  138.5540 C   0  0  0  0  0  0  0  0  0  0  0  0
  188.5000  178.1530  138.3270 C   0  0  1  0  0  3  0  0  0  0  0  0
  184.0960  176.4050  136.6710 C   0  0  0  0  0  3  0  0  0  0  0  0
  185.1120  178.5510  139.6070 C   0  0  2  0  0  3  0  0  0  0  0  0
  182.1480  178.9000  140.1770 C   0  0  0  0  0  1  0  0  0  0  0  0
  187.7650  175.6240  136.8120 C   0  0  0  0  0  2  0  0  0  0  0  0
  185.3160  175.8240  136.4480 N   0  0  0  0  0  0  0  0  0  0  0  0
  184.2810  179.7580  139.1740 C   0  0  0  0  0  2  0  0  0  0  0  0
  186.4070  176.1190  137.2190 C   0  0  0  0  0  0  0  0  0  0  0  0
  186.5480  178.8550  139.7320 N   0  0  1  0  0  0  0  0  0  0  0  0
  182.7070  178.1800  137.8500 C   0  0  0  0  0  2  0  0  0  0  0  0
  189.3070  176.9870  137.7180 C   0  0  2  0  0  3  0  0  0  0  0  0
  182.0770  180.5290  138.3440 C   0  0  0  0  0  1  0  0  0  0  0  0
  188.6760  175.7380  137.8730 O   0  0  0  0  0  0  0  0  0  0  0  0
  185.8060  178.4030  142.1040 C   0  0  0  0  0  2  0  0  0  0  0  0
  186.0530  178.7100  143.5860 C   0  0  2  0  0  3  0  0  0  0  0  0
  187.9420  176.9310  143.4320 C   0  0  2  0  0  3  0  0  0  0  0  0
  187.3880  178.1790  144.1340 C   0  0  0  0  0  2  0  0  0  0  0  0
  188.4570  177.2270  142.0470 C   0  0  0  0  0  0  0  0  0  0  0  0
  189.0270  176.3500  141.4210 O   0  0  0  0  0  0  0  0  0  0  0  0
  188.3190  178.5930  141.4360 C   0  0  0  0  0  2  0  0  0  0  0  0
  186.9960  175.9220  143.3980 F   0  0  0  0  0  0  0  0  0  0  0  0
  186.8680  179.0090  141.1590 C   0  0  1  0  0  3  0  0  0  0  0  0
  183.9400  179.2040  144.6930 N   0  0  0  0  0  1  0  0  0  0  0  0
  184.9120  178.1580  144.4220 C   0  0  0  0  0  2  0  0  0  0  0  0
  190.9400  177.5150  139.5640 C   0  0  0  0  0  3  0  0  0  0  0  0
  190.6800  176.9490  138.3080 C   0  0  0  0  0  0  0  0  0  0  0  0
  191.7270  176.3840  137.5720 C   0  0  0  0  0  3  0  0  0  0  0  0
  194.0360  175.8220  137.3800 F   0  0  0  0  0  0  0  0  0  0  0  0
  193.2790  176.9310  139.3500 C   0  0  0  0  0  3  0  0  0  0  0  0
  193.0240  176.3720  138.0940 C   0  0  0  0  0  0  0  0  0  0  0  0
  192.2370  177.5030  140.0850 C   0  0  0  0  0  3  0  0  0  0  0  0
  1 13  1  0  0  0  0
  1 10  1  0  0  0  0
  2  6  1  0  0  0  0
  4 16  1  0  0  0  0
  4  6  2  0  0  0  0
  5  2  1  6  0  0  0
  5 15  1  0  0  0  0
  6  9  1  0  0  0  0
  7  3  1  6  0  0  0
  7  5  1  0  0  0  0
  8  4  1  0  0  0  0
  9 13  1  6  0  0  0
  9 15  1  0  0  0  0
 11 14  1  0  0  0  0
 11 19  1  0  0  0  0
 12  8  2  0  0  0  0
 12 14  1  0  0  0  0
 14  2  2  0  0  0  0
 15 28  1  1  0  0  0
 16  1  1  0  0  0  0
 17 19  1  0  0  0  0
 17 32  1  1  0  0  0
 17  7  1  0  0  0  0
 18  1  1  0  0  0  0
 20 21  1  0  0  0  0
 21 23  1  0  0  0  0
 21 30  1  1  0  0  0
 22 27  1  6  0  0  0
 22 23  1  0  0  0  0
 24 22  1  0  0  0  0
 25 24  2  0  0  0  0
 26 24  1  0  0  0  0
 28 26  1  6  0  0  0
 28 20  1  0  0  0  0
 30 29  1  0  0  0  0
 31 37  1  0  0  0  0
 32 31  2  0  0  0  0
 33 36  2  0  0  0  0
 33 32  1  0  0  0  0
 34 36  1  0  0  0  0
 35 37  2  0  0  0  0
 36 35  1  0  0  0  0
M  END
>  <MODEL>
9

>  <REMARK>
 VINA RESULT:      -6.4      2.728      6.303
  Name = 
  3 active torsions:
  status: ('A' for Active; 'I' for Inactive)
    1  A    between atoms: C_4  and  C_37
    2  A    between atoms: N_21  and  C_27
    3  A    between atoms: C_23  and  C_30
                            x       y       z     vdW  Elec       q    Type
                         _______ _______ _______ _____ _____    ______ ____

>  <TORSDO>
F 3

$$$$
