=
 OpenBabel11122411023D

 31 36  0  0  1  0  0  0  0  0999 V2000
  193.1280  174.0130  135.6710 C   0  0  0  0  0  0  0  0  0  0  0  0
  190.2130  176.2900  136.5320 C   0  0  2  0  0  3  0  0  0  0  0  0
  188.9260  175.4120  136.4660 C   0  0  1  0  0  3  0  0  0  0  0  0
  187.8120  173.1760  136.5870 C   0  0  1  0  0  3  0  0  0  0  0  0
  191.4900  175.5020  136.6630 C   0  0  0  0  0  0  0  0  0  0  0  0
  193.7790  173.9050  136.9020 C   0  0  0  0  0  3  0  0  0  0  0  0
  189.0890  173.9520  136.9050 C   0  0  0  0  0  2  0  0  0  0  0  0
  190.3220  176.8130  138.9830 C   0  0  2  0  0  3  0  0  0  0  0  0
  193.6000  173.3420  134.5940 F   0  0  0  0  0  0  0  0  0  0  0  0
  187.6340  177.5030  136.9070 C   0  0  0  0  0  2  0  0  0  0  0  0
  187.9500  171.8580  137.0180 O   0  0  0  0  0  1  0  0  0  0  0  0
  191.7200  176.1950  139.1070 C   0  0  0  0  0  2  0  0  0  0  0  0
  190.1410  177.4180  137.5800 C   0  0  2  0  0  3  0  0  0  0  0  0
  191.9850  174.8070  135.5530 C   0  0  0  0  0  3  0  0  0  0  0  0
  186.6010  173.8130  137.2710 C   0  0  0  0  0  2  0  0  0  0  0  0
  192.1450  175.3860  137.9100 C   0  0  0  0  0  0  0  0  0  0  0  0
  193.2930  174.5950  138.0150 C   0  0  0  0  0  3  0  0  0  0  0  0
  188.8590  178.2630  137.4310 C   0  0  0  0  0  2  0  0  0  0  0  0
  187.7420  176.0250  137.2240 C   0  0  1  0  0  3  0  0  0  0  0  0
  186.4630  175.2820  136.8690 C   0  0  0  0  0  2  0  0  0  0  0  0
  191.3340  177.8590  140.8630 O   0  0  0  0  0  0  0  0  0  0  0  0
  190.2380  177.1840  141.4290 C   0  0  2  0  0  3  0  0  0  0  0  0
  190.1510  177.8360  140.1010 C   0  0  2  0  0  3  0  0  0  0  0  0
  190.8530  177.2240  144.9280 C   0  0  1  0  0  3  0  0  0  0  0  0
  190.7920  178.7850  143.2750 C   0  0  0  0  0  2  0  0  0  0  0  0
  187.9280  176.5700  142.8890 O   0  0  0  0  0  1  0  0  0  0  0  0
  191.7380  176.3020  145.7400 C   0  0  0  0  0  1  0  0  0  0  0  0
  191.6220  177.8470  143.9240 O   0  0  0  0  0  0  0  0  0  0  0  0
  188.8600  177.3160  143.5300 N   0  0  0  0  0  0  0  0  0  0  0  0
  189.6530  178.0670  142.5400 C   0  0  2  0  0  3  0  0  0  0  0  0
  189.7210  176.4120  144.2940 C   0  0  0  0  0  2  0  0  0  0  0  0
  1  6  1  0  0  0  0
  2  5  1  1  0  0  0
  2 13  1  0  0  0  0
  3  2  1  0  0  0  0
  3  7  1  1  0  0  0
  3 19  1  0  0  0  0
  4  7  1  0  0  0  0
  4 11  1  1  0  0  0
  4 15  1  0  0  0  0
  5 16  2  0  0  0  0
  6 17  2  0  0  0  0
  8 12  1  6  0  0  0
  8 23  1  0  0  0  0
  9  1  1  0  0  0  0
 10 19  1  0  0  0  0
 10 18  1  0  0  0  0
 13 18  1  1  0  0  0
 13  8  1  0  0  0  0
 14  1  2  0  0  0  0
 14  5  1  0  0  0  0
 16 17  1  0  0  0  0
 16 12  1  0  0  0  0
 19 20  1  6  0  0  0
 20 15  1  0  0  0  0
 22 21  1  1  0  0  0
 22 30  1  0  0  0  0
 23 21  1  1  0  0  0
 23 22  1  0  0  0  0
 24 27  1  6  0  0  0
 25 28  1  0  0  0  0
 26 29  1  0  0  0  0
 28 24  1  0  0  0  0
 29 31  1  0  0  0  0
 30 25  1  1  0  0  0
 30 29  1  0  0  0  0
 31 24  1  0  0  0  0
M  END
>  <MODEL>
1

>  <REMARK>
 VINA RESULT:      -7.0      0.000      0.000
  Name = 
  2 active torsions:
  status: ('A' for Active; 'I' for Inactive)
    1  A    between atoms: C_5  and  C_30
    2  A    between atoms: C_10  and  C_16
                            x       y       z     vdW  Elec       q    Type
                         _______ _______ _______ _____ _____    ______ ____

>  <TORSDO>
F 2

$$$$
=
 OpenBabel11122411023D

 31 36  0  0  1  0  0  0  0  0999 V2000
  192.9510  173.4460  135.5870 C   0  0  0  0  0  0  0  0  0  0  0  0
  190.1100  175.8940  136.1840 C   0  0  2  0  0  3  0  0  0  0  0  0
  188.7970  175.0540  136.2210 C   0  0  1  0  0  3  0  0  0  0  0  0
  187.6170  172.8800  136.6000 C   0  0  1  0  0  3  0  0  0  0  0  0
  191.3640  175.0880  136.4040 C   0  0  0  0  0  0  0  0  0  0  0  0
  193.6050  173.4610  136.8210 C   0  0  0  0  0  3  0  0  0  0  0  0
  188.9190  173.6500  136.8250 C   0  0  0  0  0  2  0  0  0  0  0  0
  190.2460  176.6910  138.5590 C   0  0  2  0  0  3  0  0  0  0  0  0
  193.3980  172.6420  134.5940 F   0  0  0  0  0  0  0  0  0  0  0  0
  187.5700  177.2200  136.4200 C   0  0  0  0  0  2  0  0  0  0  0  0
  187.7180  171.6170  137.1800 O   0  0  0  0  0  1  0  0  0  0  0  0
  191.6260  176.0500  138.7510 C   0  0  0  0  0  2  0  0  0  0  0  0
  190.0770  177.1360  137.0960 C   0  0  2  0  0  3  0  0  0  0  0  0
  191.8320  174.2550  135.3800 C   0  0  0  0  0  3  0  0  0  0  0  0
  186.4290  173.6290  137.2080 C   0  0  0  0  0  2  0  0  0  0  0  0
  192.0200  175.0970  137.6550 C   0  0  0  0  0  0  0  0  0  0  0  0
  193.1450  174.2880  137.8490 C   0  0  0  0  0  3  0  0  0  0  0  0
  188.8190  177.9970  136.8520 C   0  0  0  0  0  2  0  0  0  0  0  0
  187.6360  175.7850  136.9050 C   0  0  1  0  0  3  0  0  0  0  0  0
  186.3330  175.0450  136.6390 C   0  0  0  0  0  2  0  0  0  0  0  0
  190.5220  177.3810  140.8170 O   0  0  0  0  0  0  0  0  0  0  0  0
  189.1350  177.5040  140.6150 C   0  0  2  0  0  3  0  0  0  0  0  0
  190.1100  177.8410  139.5520 C   0  0  2  0  0  3  0  0  0  0  0  0
  187.4460  177.8390  143.7230 C   0  0  1  0  0  3  0  0  0  0  0  0
  189.2790  178.7850  142.7640 C   0  0  0  0  0  2  0  0  0  0  0  0
  186.6060  178.6640  140.2950 O   0  0  0  0  0  1  0  0  0  0  0  0
  186.9440  176.7490  144.6460 C   0  0  0  0  0  1  0  0  0  0  0  0
  188.8320  177.6830  143.5240 O   0  0  0  0  0  0  0  0  0  0  0  0
  187.1870  178.8220  141.5090 N   0  0  0  0  0  0  0  0  0  0  0  0
  188.6520  178.7540  141.3650 C   0  0  2  0  0  3  0  0  0  0  0  0
  186.7100  177.7500  142.3850 C   0  0  0  0  0  2  0  0  0  0  0  0
  1  6  1  0  0  0  0
  2  3  1  0  0  0  0
  2  5  1  1  0  0  0
  2 13  1  0  0  0  0
  3  7  1  1  0  0  0
  3 19  1  0  0  0  0
  4  7  1  0  0  0  0
  4 11  1  1  0  0  0
  4 15  1  0  0  0  0
  5 16  2  0  0  0  0
  6 17  2  0  0  0  0
  8 12  1  6  0  0  0
  8 23  1  0  0  0  0
  9  1  1  0  0  0  0
 10 18  1  0  0  0  0
 13 18  1  1  0  0  0
 13  8  1  0  0  0  0
 14  1  2  0  0  0  0
 14  5  1  0  0  0  0
 16 17  1  0  0  0  0
 16 12  1  0  0  0  0
 19 10  1  6  0  0  0
 20 19  1  0  0  0  0
 20 15  1  0  0  0  0
 22 21  1  1  0  0  0
 22 30  1  0  0  0  0
 23 22  1  0  0  0  0
 23 21  1  1  0  0  0
 24 27  1  1  0  0  0
 25 28  1  0  0  0  0
 26 29  1  0  0  0  0
 28 24  1  0  0  0  0
 29 31  1  0  0  0  0
 30 29  1  0  0  0  0
 30 25  1  1  0  0  0
 31 24  1  0  0  0  0
M  END
>  <MODEL>
2

>  <REMARK>
 VINA RESULT:      -6.9      1.491      1.756
  Name = 
  2 active torsions:
  status: ('A' for Active; 'I' for Inactive)
    1  A    between atoms: C_5  and  C_30
    2  A    between atoms: C_10  and  C_16
                            x       y       z     vdW  Elec       q    Type
                         _______ _______ _______ _____ _____    ______ ____

>  <TORSDO>
F 2

$$$$
=
 OpenBabel11122411023D

 31 36  0  0  1  0  0  0  0  0999 V2000
  191.7940  176.6510  138.5330 C   0  0  0  0  0  0  0  0  0  0  0  0
  188.6850  177.1040  136.4000 C   0  0  2  0  0  3  0  0  0  0  0  0
  188.2280  175.6770  135.9690 C   0  0  1  0  0  3  0  0  0  0  0  0
  188.1630  173.2060  136.3560 C   0  0  1  0  0  3  0  0  0  0  0  0
  189.6100  177.1220  137.5890 C   0  0  0  0  0  0  0  0  0  0  0  0
  191.3230  176.9980  139.8010 C   0  0  0  0  0  3  0  0  0  0  0  0
  188.4620  174.5620  136.9950 C   0  0  0  0  0  2  0  0  0  0  0  0
  186.7960  177.7900  137.9010 C   0  0  2  0  0  3  0  0  0  0  0  0
  193.0780  176.2520  138.3730 F   0  0  0  0  0  0  0  0  0  0  0  0
  186.4670  176.7970  134.5960 C   0  0  0  0  0  2  0  0  0  0  0  0
  188.3440  172.1970  137.2990 O   0  0  0  0  0  1  0  0  0  0  0  0
  187.7460  178.0150  139.0830 C   0  0  0  0  0  2  0  0  0  0  0  0
  187.5220  178.1000  136.5810 C   0  0  2  0  0  3  0  0  0  0  0  0
  190.9390  176.7110  137.4300 C   0  0  0  0  0  3  0  0  0  0  0  0
  186.7290  173.1580  135.8240 C   0  0  0  0  0  2  0  0  0  0  0  0
  189.1320  177.4650  138.8730 C   0  0  0  0  0  0  0  0  0  0  0  0
  189.9990  177.4100  139.9690 C   0  0  0  0  0  3  0  0  0  0  0  0
  186.5890  178.1260  135.3520 C   0  0  0  0  0  2  0  0  0  0  0  0
  186.7640  175.6280  135.5150 C   0  0  1  0  0  3  0  0  0  0  0  0
  186.4800  174.2960  134.8340 C   0  0  0  0  0  2  0  0  0  0  0  0
  185.1470  178.5100  139.4540 O   0  0  0  0  0  0  0  0  0  0  0  0
  184.3930  177.8110  138.4940 C   0  0  2  0  0  3  0  0  0  0  0  0
  185.5540  178.6500  138.1150 C   0  0  2  0  0  3  0  0  0  0  0  0
  181.0600  176.8400  139.2490 C   0  0  1  0  0  3  0  0  0  0  0  0
  182.3430  178.6760  139.6460 C   0  0  0  0  0  2  0  0  0  0  0  0
  182.8170  177.6520  136.1850 O   0  0  0  0  0  1  0  0  0  0  0  0
  180.5650  175.5210  139.8030 C   0  0  0  0  0  1  0  0  0  0  0  0
  182.0020  177.3970  140.1360 O   0  0  0  0  0  0  0  0  0  0  0  0
  182.1570  177.8890  137.3440 N   0  0  0  0  0  0  0  0  0  0  0  0
  183.0630  178.5530  138.2980 C   0  0  2  0  0  3  0  0  0  0  0  0
  181.7020  176.6060  137.8800 C   0  0  0  0  0  2  0  0  0  0  0  0
  1  6  1  0  0  0  0
  2 13  1  0  0  0  0
  2  5  1  1  0  0  0
  3  2  1  0  0  0  0
  3  7  1  1  0  0  0
  4  7  1  0  0  0  0
  4 11  1  1  0  0  0
  5 16  2  0  0  0  0
  6 17  2  0  0  0  0
  8 23  1  0  0  0  0
  8 12  1  1  0  0  0
  9  1  1  0  0  0  0
 10 18  1  0  0  0  0
 13 18  1  6  0  0  0
 13  8  1  0  0  0  0
 14  5  1  0  0  0  0
 14  1  2  0  0  0  0
 15  4  1  0  0  0  0
 16 12  1  0  0  0  0
 16 17  1  0  0  0  0
 19 10  1  6  0  0  0
 19  3  1  0  0  0  0
 20 19  1  0  0  0  0
 20 15  1  0  0  0  0
 22 21  1  1  0  0  0
 23 22  1  0  0  0  0
 23 21  1  1  0  0  0
 24 27  1  1  0  0  0
 24 28  1  0  0  0  0
 25 28  1  0  0  0  0
 26 29  1  0  0  0  0
 29 31  1  0  0  0  0
 29 30  1  0  0  0  0
 30 22  1  0  0  0  0
 30 25  1  1  0  0  0
 31 24  1  0  0  0  0
M  END
>  <MODEL>
3

>  <REMARK>
 VINA RESULT:      -6.7      3.834      5.970
  Name = 
  2 active torsions:
  status: ('A' for Active; 'I' for Inactive)
    1  A    between atoms: C_5  and  C_30
    2  A    between atoms: C_10  and  C_16
                            x       y       z     vdW  Elec       q    Type
                         _______ _______ _______ _____ _____    ______ ____

>  <TORSDO>
F 2

$$$$
=
 OpenBabel11122411023D

 31 36  0  0  1  0  0  0  0  0999 V2000
  191.5430  177.3010  140.1900 C   0  0  0  0  0  0  0  0  0  0  0  0
  189.1060  177.8230  137.3250 C   0  0  2  0  0  3  0  0  0  0  0  0
  189.0250  176.4700  136.5550 C   0  0  1  0  0  3  0  0  0  0  0  0
  189.2650  173.9800  136.5050 C   0  0  1  0  0  3  0  0  0  0  0  0
  189.6540  177.7050  138.7230 C   0  0  0  0  0  0  0  0  0  0  0  0
  190.6920  177.3320  141.2980 C   0  0  0  0  0  3  0  0  0  0  0  0
  189.1510  175.2050  137.4120 C   0  0  0  0  0  2  0  0  0  0  0  0
  186.7920  177.9800  138.2810 C   0  0  2  0  0  3  0  0  0  0  0  0
  192.8690  177.0870  140.3610 F   0  0  0  0  0  0  0  0  0  0  0  0
  187.5490  177.6390  134.9150 C   0  0  0  0  0  2  0  0  0  0  0  0
  189.3450  172.8290  137.2860 O   0  0  0  0  0  1  0  0  0  0  0  0
  187.3320  178.0670  139.7130 C   0  0  0  0  0  2  0  0  0  0  0  0
  187.7900  178.6270  137.3050 C   0  0  2  0  0  3  0  0  0  0  0  0
  191.0250  177.4850  138.9060 C   0  0  0  0  0  3  0  0  0  0  0  0
  188.0600  173.8800  135.5680 C   0  0  0  0  0  2  0  0  0  0  0  0
  188.7930  177.7280  139.8430 C   0  0  0  0  0  0  0  0  0  0  0  0
  189.3230  177.5510  141.1250 C   0  0  0  0  0  3  0  0  0  0  0  0
  187.2380  178.7950  135.8740 C   0  0  0  0  0  2  0  0  0  0  0  0
  187.7700  176.3500  135.6820 C   0  0  1  0  0  3  0  0  0  0  0  0
  187.9080  175.1590  134.7440 C   0  0  0  0  0  2  0  0  0  0  0  0
  184.7290  178.2800  139.4230 O   0  0  0  0  0  0  0  0  0  0  0  0
  184.3450  177.6110  138.2470 C   0  0  2  0  0  3  0  0  0  0  0  0
  185.4150  178.6350  138.2470 C   0  0  2  0  0  3  0  0  0  0  0  0
  181.0910  176.1830  138.2200 C   0  0  1  0  0  3  0  0  0  0  0  0
  181.9970  178.1390  138.9460 C   0  0  0  0  0  2  0  0  0  0  0  0
  183.3360  177.3920  135.6440 O   0  0  0  0  0  1  0  0  0  0  0  0
  180.6730  174.7820  138.6120 C   0  0  0  0  0  1  0  0  0  0  0  0
  181.7370  176.8010  139.3100 O   0  0  0  0  0  0  0  0  0  0  0  0
  182.4170  177.4740  136.6360 N   0  0  0  0  0  0  0  0  0  0  0  0
  182.9990  178.1890  137.7860 C   0  0  2  0  0  3  0  0  0  0  0  0
  182.0370  176.1140  137.0190 C   0  0  0  0  0  2  0  0  0  0  0  0
  1  9  1  0  0  0  0
  1  6  1  0  0  0  0
  2  5  1  1  0  0  0
  3  2  1  0  0  0  0
  3  7  1  1  0  0  0
  4 11  1  1  0  0  0
  4  7  1  0  0  0  0
  5 14  1  0  0  0  0
  5 16  2  0  0  0  0
  8 12  1  1  0  0  0
 10 19  1  0  0  0  0
 10 18  1  0  0  0  0
 12 16  1  0  0  0  0
 13 18  1  6  0  0  0
 13  2  1  0  0  0  0
 13  8  1  0  0  0  0
 14  1  2  0  0  0  0
 15  4  1  0  0  0  0
 16 17  1  0  0  0  0
 17  6  2  0  0  0  0
 19 20  1  6  0  0  0
 19  3  1  0  0  0  0
 20 15  1  0  0  0  0
 22 23  1  0  0  0  0
 22 21  1  1  0  0  0
 23  8  1  0  0  0  0
 23 21  1  1  0  0  0
 24 27  1  1  0  0  0
 24 28  1  0  0  0  0
 25 28  1  0  0  0  0
 26 29  1  0  0  0  0
 29 31  1  0  0  0  0
 29 30  1  0  0  0  0
 30 22  1  0  0  0  0
 30 25  1  1  0  0  0
 31 24  1  0  0  0  0
M  END
>  <MODEL>
4

>  <REMARK>
 VINA RESULT:      -6.4      3.890      6.432
  Name = 
  2 active torsions:
  status: ('A' for Active; 'I' for Inactive)
    1  A    between atoms: C_5  and  C_30
    2  A    between atoms: C_10  and  C_16
                            x       y       z     vdW  Elec       q    Type
                         _______ _______ _______ _____ _____    ______ ____

>  <TORSDO>
F 2

$$$$
=
 OpenBabel11122411023D

 31 36  0  0  1  0  0  0  0  0999 V2000
  192.7730  175.7760  136.7510 C   0  0  0  0  0  0  0  0  0  0  0  0
  189.2210  177.1180  136.6690 C   0  0  2  0  0  3  0  0  0  0  0  0
  188.2900  175.9000  136.3860 C   0  0  1  0  0  3  0  0  0  0  0  0
  187.8490  173.4380  136.4590 C   0  0  1  0  0  3  0  0  0  0  0  0
  190.5890  176.7430  137.1760 C   0  0  0  0  0  0  0  0  0  0  0  0
  193.0920  175.8960  138.1050 C   0  0  0  0  0  3  0  0  0  0  0  0
  188.7350  174.5630  136.9920 C   0  0  0  0  0  2  0  0  0  0  0  0
  188.5510  177.7110  139.0120 C   0  0  2  0  0  3  0  0  0  0  0  0
  193.6720  175.2480  135.8870 F   0  0  0  0  0  0  0  0  0  0  0  0
  186.3990  177.5290  136.3000 C   0  0  0  0  0  2  0  0  0  0  0  0
  188.2340  172.2300  137.0370 O   0  0  0  0  0  1  0  0  0  0  0  0
  189.9860  177.5340  139.5240 C   0  0  0  0  0  2  0  0  0  0  0  0
  188.5730  178.2010  137.5540 C   0  0  2  0  0  3  0  0  0  0  0  0
  191.5240  176.1970  136.2880 C   0  0  0  0  0  3  0  0  0  0  0  0
  186.3760  173.7090  136.7700 C   0  0  0  0  0  2  0  0  0  0  0  0
  190.9090  176.8560  138.5470 C   0  0  0  0  0  0  0  0  0  0  0  0
  192.1660  176.4400  138.9980 C   0  0  0  0  0  3  0  0  0  0  0  0
  187.1890  178.6280  137.0230 C   0  0  0  0  0  2  0  0  0  0  0  0
  186.8300  176.1560  136.7780 C   0  0  1  0  0  3  0  0  0  0  0  0
  185.9420  175.0610  136.2040 C   0  0  0  0  0  2  0  0  0  0  0  0
  187.5340  177.9770  141.1450 O   0  0  0  0  0  0  0  0  0  0  0  0
  186.4610  178.1670  140.2560 C   0  0  2  0  0  3  0  0  0  0  0  0
  187.8220  178.6660  139.9520 C   0  0  2  0  0  3  0  0  0  0  0  0
  182.9670  178.2120  140.9020 C   0  0  1  0  0  3  0  0  0  0  0  0
  184.8390  178.7520  142.0750 C   0  0  0  0  0  2  0  0  0  0  0  0
  185.1500  180.0950  138.7050 O   0  0  0  0  0  1  0  0  0  0  0  0
  181.9420  177.1350  140.6170 C   0  0  0  0  0  1  0  0  0  0  0  0
  183.9760  177.6890  141.7350 O   0  0  0  0  0  0  0  0  0  0  0  0
  184.5460  179.7530  139.8690 N   0  0  0  0  0  0  0  0  0  0  0  0
  185.5600  179.2720  140.8240 C   0  0  2  0  0  3  0  0  0  0  0  0
  183.5730  178.6970  139.5830 C   0  0  0  0  0  2  0  0  0  0  0  0
  1  6  1  0  0  0  0
  2  5  1  1  0  0  0
  2 13  1  0  0  0  0
  3  2  1  0  0  0  0
  3 19  1  0  0  0  0
  3  7  1  1  0  0  0
  4 15  1  0  0  0  0
  4  7  1  0  0  0  0
  4 11  1  1  0  0  0
  5 16  2  0  0  0  0
  6 17  2  0  0  0  0
  8 12  1  1  0  0  0
  8 23  1  0  0  0  0
  9  1  1  0  0  0  0
 10 19  1  0  0  0  0
 10 18  1  0  0  0  0
 13 18  1  6  0  0  0
 13  8  1  0  0  0  0
 14  1  2  0  0  0  0
 14  5  1  0  0  0  0
 16 17  1  0  0  0  0
 16 12  1  0  0  0  0
 19 20  1  6  0  0  0
 20 15  1  0  0  0  0
 22 30  1  0  0  0  0
 22 21  1  1  0  0  0
 23 22  1  0  0  0  0
 23 21  1  1  0  0  0
 24 27  1  6  0  0  0
 24 28  1  0  0  0  0
 26 29  1  0  0  0  0
 28 25  1  0  0  0  0
 29 30  1  0  0  0  0
 30 25  1  1  0  0  0
 31 29  1  0  0  0  0
 31 24  1  0  0  0  0
M  END
>  <MODEL>
5

>  <REMARK>
 VINA RESULT:      -6.3      3.035      4.229
  Name = 
  2 active torsions:
  status: ('A' for Active; 'I' for Inactive)
    1  A    between atoms: C_5  and  C_30
    2  A    between atoms: C_10  and  C_16
                            x       y       z     vdW  Elec       q    Type
                         _______ _______ _______ _____ _____    ______ ____

>  <TORSDO>
F 2

$$$$
=
 OpenBabel11122411023D

 31 36  0  0  1  0  0  0  0  0999 V2000
  181.0110  179.0690  140.4870 C   0  0  0  0  0  0  0  0  0  0  0  0
  184.0600  178.3780  138.3310 C   0  0  2  0  0  3  0  0  0  0  0  0
  185.3080  178.6350  139.2290 C   0  0  1  0  0  3  0  0  0  0  0  0
  186.3680  178.7740  141.4910 C   0  0  1  0  0  3  0  0  0  0  0  0
  182.7830  178.1620  139.1000 C   0  0  0  0  0  0  0  0  0  0  0  0
  180.4880  177.7850  140.6620 C   0  0  0  0  0  3  0  0  0  0  0  0
  185.1520  178.2750  140.7110 C   0  0  0  0  0  2  0  0  0  0  0  0
  184.2210  175.9010  137.9700 C   0  0  2  0  0  3  0  0  0  0  0  0
  180.4100  180.1310  141.0740 F   0  0  0  0  0  0  0  0  0  0  0  0
  186.6970  178.2010  137.1980 C   0  0  0  0  0  2  0  0  0  0  0  0
  186.2390  178.4160  142.8310 O   0  0  0  0  0  1  0  0  0  0  0  0
  182.8270  175.6690  138.5650 C   0  0  0  0  0  2  0  0  0  0  0  0
  184.2720  177.2730  137.2770 C   0  0  2  0  0  3  0  0  0  0  0  0
  182.1560  179.2560  139.7100 C   0  0  0  0  0  3  0  0  0  0  0  0
  187.6600  178.1830  140.9250 C   0  0  0  0  0  2  0  0  0  0  0  0
  182.2580  176.8630  139.2840 C   0  0  0  0  0  0  0  0  0  0  0  0
  181.1060  176.6880  140.0570 C   0  0  0  0  0  3  0  0  0  0  0  0
  185.5540  177.5030  136.4500 C   0  0  0  0  0  2  0  0  0  0  0  0
  186.5810  177.9680  138.6920 C   0  0  1  0  0  3  0  0  0  0  0  0
  187.7960  178.5040  139.4360 C   0  0  0  0  0  2  0  0  0  0  0  0
  184.8340  173.6100  137.8040 O   0  0  0  0  0  0  0  0  0  0  0  0
  185.9280  174.2730  137.2190 C   0  0  2  0  0  3  0  0  0  0  0  0
  184.5360  174.7440  137.0260 C   0  0  2  0  0  3  0  0  0  0  0  0
  189.2110  173.3510  136.2230 C   0  0  1  0  0  3  0  0  0  0  0  0
  187.2470  172.2510  136.5480 C   0  0  0  0  0  2  0  0  0  0  0  0
  186.5720  175.3150  134.7000 O   0  0  0  0  0  1  0  0  0  0  0  0
  190.5320  173.7530  136.8430 C   0  0  0  0  0  1  0  0  0  0  0  0
  188.4110  172.7180  137.1950 O   0  0  0  0  0  0  0  0  0  0  0  0
  187.2370  174.1940  135.0710 N   0  0  0  0  0  0  0  0  0  0  0  0
  186.4170  173.4330  136.0310 C   0  0  2  0  0  3  0  0  0  0  0  0
  188.5020  174.5970  135.6880 C   0  0  0  0  0  2  0  0  0  0  0  0
  1  6  1  0  0  0  0
  1  9  1  0  0  0  0
  2  5  1  1  0  0  0
  2  3  1  0  0  0  0
  3  7  1  1  0  0  0
  4 11  1  1  0  0  0
  5 16  2  0  0  0  0
  5 14  1  0  0  0  0
  7  4  1  0  0  0  0
  8 12  1  6  0  0  0
 12 16  1  0  0  0  0
 13 18  1  1  0  0  0
 13  8  1  0  0  0  0
 13  2  1  0  0  0  0
 14  1  2  0  0  0  0
 15  4  1  0  0  0  0
 16 17  1  0  0  0  0
 17  6  2  0  0  0  0
 18 10  1  0  0  0  0
 19 10  1  6  0  0  0
 19  3  1  0  0  0  0
 19 20  1  0  0  0  0
 20 15  1  0  0  0  0
 22 21  1  1  0  0  0
 23 22  1  0  0  0  0
 23 21  1  1  0  0  0
 23  8  1  0  0  0  0
 24 27  1  1  0  0  0
 24 28  1  0  0  0  0
 25 28  1  0  0  0  0
 26 29  1  0  0  0  0
 29 31  1  0  0  0  0
 29 30  1  0  0  0  0
 30 25  1  1  0  0  0
 30 22  1  0  0  0  0
 31 24  1  0  0  0  0
M  END
>  <MODEL>
6

>  <REMARK>
 VINA RESULT:      -5.9      4.956      8.926
  Name = 
  2 active torsions:
  status: ('A' for Active; 'I' for Inactive)
    1  A    between atoms: C_5  and  C_30
    2  A    between atoms: C_10  and  C_16
                            x       y       z     vdW  Elec       q    Type
                         _______ _______ _______ _____ _____    ______ ____

>  <TORSDO>
F 2

$$$$
=
 OpenBabel11122411023D

 31 36  0  0  1  0  0  0  0  0999 V2000
  191.1930  177.3830  140.4860 C   0  0  0  0  0  0  0  0  0  0  0  0
  189.1480  177.8270  137.3170 C   0  0  2  0  0  3  0  0  0  0  0  0
  189.1800  176.4580  136.5700 C   0  0  1  0  0  3  0  0  0  0  0  0
  189.4450  173.9710  136.6010 C   0  0  1  0  0  3  0  0  0  0  0  0
  189.5090  177.7400  138.7770 C   0  0  0  0  0  0  0  0  0  0  0  0
  190.2050  177.4250  141.4720 C   0  0  0  0  0  3  0  0  0  0  0  0
  189.2030  175.2100  137.4610 C   0  0  0  0  0  2  0  0  0  0  0  0
  186.7280  177.9750  137.9590 C   0  0  2  0  0  3  0  0  0  0  0  0
  192.4870  177.1870  140.8330 F   0  0  0  0  0  0  0  0  0  0  0  0
  187.9210  177.5810  134.7280 C   0  0  0  0  0  2  0  0  0  0  0  0
  189.4320  172.8350  137.4080 O   0  0  0  0  0  1  0  0  0  0  0  0
  187.0750  178.0950  139.4480 C   0  0  0  0  0  2  0  0  0  0  0  0
  187.8400  178.6150  137.1100 C   0  0  2  0  0  3  0  0  0  0  0  0
  190.8460  177.5380  139.1420 C   0  0  0  0  0  3  0  0  0  0  0  0
  188.3740  173.8410  135.5160 C   0  0  0  0  0  2  0  0  0  0  0  0
  188.5090  177.7740  139.7740 C   0  0  0  0  0  0  0  0  0  0  0  0
  188.8690  177.6260  141.1170 C   0  0  0  0  0  3  0  0  0  0  0  0
  187.4780  178.7510  135.6160 C   0  0  0  0  0  2  0  0  0  0  0  0
  188.0520  176.3090  135.5430 C   0  0  1  0  0  3  0  0  0  0  0  0
  188.3200  175.1020  134.6540 C   0  0  0  0  0  2  0  0  0  0  0  0
  184.9620  179.2360  138.9310 O   0  0  0  0  0  0  0  0  0  0  0  0
  184.3440  178.0100  138.6230 C   0  0  2  0  0  3  0  0  0  0  0  0
  185.3620  178.6160  137.7330 C   0  0  2  0  0  3  0  0  0  0  0  0
  181.3350  178.5070  140.4470 C   0  0  1  0  0  3  0  0  0  0  0  0
  182.4190  179.6070  138.7780 C   0  0  0  0  0  2  0  0  0  0  0  0
  182.4400  176.0450  138.0270 O   0  0  0  0  0  1  0  0  0  0  0  0
  181.1130  178.4170  141.9420 C   0  0  0  0  0  1  0  0  0  0  0  0
  182.3320  179.4660  140.1790 O   0  0  0  0  0  0  0  0  0  0  0  0
  181.9560  177.2320  138.4660 N   0  0  0  0  0  0  0  0  0  0  0  0
  182.9160  178.3030  138.1420 C   0  0  2  0  0  3  0  0  0  0  0  0
  181.7660  177.1380  139.9140 C   0  0  0  0  0  2  0  0  0  0  0  0
  1  9  1  0  0  0  0
  1  6  1  0  0  0  0
  2  5  1  1  0  0  0
  3  2  1  0  0  0  0
  3  7  1  1  0  0  0
  4 11  1  1  0  0  0
  4  7  1  0  0  0  0
  5 14  1  0  0  0  0
  5 16  2  0  0  0  0
  8 12  1  1  0  0  0
 10 19  1  0  0  0  0
 10 18  1  0  0  0  0
 12 16  1  0  0  0  0
 13 18  1  6  0  0  0
 13  2  1  0  0  0  0
 13  8  1  0  0  0  0
 14  1  2  0  0  0  0
 15  4  1  0  0  0  0
 16 17  1  0  0  0  0
 17  6  2  0  0  0  0
 19 20  1  6  0  0  0
 19  3  1  0  0  0  0
 20 15  1  0  0  0  0
 22 21  1  1  0  0  0
 23  8  1  0  0  0  0
 23 22  1  0  0  0  0
 23 21  1  1  0  0  0
 24 27  1  1  0  0  0
 25 28  1  0  0  0  0
 26 29  1  0  0  0  0
 28 24  1  0  0  0  0
 29 31  1  0  0  0  0
 30 29  1  0  0  0  0
 30 22  1  0  0  0  0
 30 25  1  1  0  0  0
 31 24  1  0  0  0  0
M  END
>  <MODEL>
7

>  <REMARK>
 VINA RESULT:      -5.8      4.117      6.107
  Name = 
  2 active torsions:
  status: ('A' for Active; 'I' for Inactive)
    1  A    between atoms: C_5  and  C_30
    2  A    between atoms: C_10  and  C_16
                            x       y       z     vdW  Elec       q    Type
                         _______ _______ _______ _____ _____    ______ ____

>  <TORSDO>
F 2

$$$$
=
 OpenBabel11122411023D

 31 36  0  0  1  0  0  0  0  0999 V2000
  188.8900  177.7870  137.1590 C   0  0  0  0  0  0  0  0  0  0  0  0
  185.5590  176.6290  135.7520 C   0  0  2  0  0  3  0  0  0  0  0  0
  185.6090  175.0710  135.7100 C   0  0  1  0  0  3  0  0  0  0  0  0
  186.5290  172.9030  136.5530 C   0  0  1  0  0  3  0  0  0  0  0  0
  186.5750  177.2530  136.6720 C   0  0  0  0  0  0  0  0  0  0  0  0
  188.5170  178.2720  138.4150 C   0  0  0  0  0  3  0  0  0  0  0  0
  186.3920  174.3970  136.8430 C   0  0  0  0  0  2  0  0  0  0  0  0
  183.7940  177.0140  137.4920 C   0  0  2  0  0  3  0  0  0  0  0  0
  190.1910  177.8050  136.7850 F   0  0  0  0  0  0  0  0  0  0  0  0
  183.3750  175.1580  134.5950 C   0  0  0  0  0  2  0  0  0  0  0  0
  187.2110  172.2870  137.6010 O   0  0  0  0  0  1  0  0  0  0  0  0
  184.7550  177.8340  138.3620 C   0  0  0  0  0  2  0  0  0  0  0  0
  184.1480  177.1970  136.0070 C   0  0  2  0  0  3  0  0  0  0  0  0
  187.9220  177.2770  136.2910 C   0  0  0  0  0  3  0  0  0  0  0  0
  185.1550  172.2510  136.3840 C   0  0  0  0  0  2  0  0  0  0  0  0
  186.1980  177.7360  137.9450 C   0  0  0  0  0  0  0  0  0  0  0  0
  187.1750  178.2520  138.8030 C   0  0  0  0  0  3  0  0  0  0  0  0
  183.1020  176.5990  135.0420 C   0  0  0  0  0  2  0  0  0  0  0  0
  184.2190  174.4280  135.6220 C   0  0  1  0  0  3  0  0  0  0  0  0
  184.3560  172.9500  135.2840 C   0  0  0  0  0  2  0  0  0  0  0  0
  182.2580  177.5720  139.2190 O   0  0  0  0  0  0  0  0  0  0  0  0
  181.6900  176.4170  138.6520 C   0  0  2  0  0  3  0  0  0  0  0  0
  182.3670  177.4420  137.8230 C   0  0  2  0  0  3  0  0  0  0  0  0
  179.1640  174.8470  140.5940 C   0  0  1  0  0  3  0  0  0  0  0  0
  179.6870  176.9900  140.0440 C   0  0  0  0  0  2  0  0  0  0  0  0
  179.9380  174.9270  137.0540 O   0  0  0  0  0  1  0  0  0  0  0  0
  179.3140  173.7540  141.6310 C   0  0  0  0  0  1  0  0  0  0  0  0
  179.9520  175.9550  140.9650 O   0  0  0  0  0  0  0  0  0  0  0  0
  179.4390  175.3750  138.2320 N   0  0  0  0  0  0  0  0  0  0  0  0
  180.1650  176.5900  138.6420 C   0  0  2  0  0  3  0  0  0  0  0  0
  179.6100  174.3170  139.2300 C   0  0  0  0  0  2  0  0  0  0  0  0
  1  6  1  0  0  0  0
  2 13  1  0  0  0  0
  2  5  1  1  0  0  0
  3  2  1  0  0  0  0
  3  7  1  1  0  0  0
  4  7  1  0  0  0  0
  4 11  1  1  0  0  0
  5 16  2  0  0  0  0
  6 17  2  0  0  0  0
  8 23  1  0  0  0  0
  8 12  1  1  0  0  0
  9  1  1  0  0  0  0
 10 18  1  0  0  0  0
 13 18  1  6  0  0  0
 13  8  1  0  0  0  0
 14  5  1  0  0  0  0
 14  1  2  0  0  0  0
 15  4  1  0  0  0  0
 16 12  1  0  0  0  0
 16 17  1  0  0  0  0
 19 10  1  6  0  0  0
 19  3  1  0  0  0  0
 20 19  1  0  0  0  0
 20 15  1  0  0  0  0
 22 21  1  1  0  0  0
 23 22  1  0  0  0  0
 23 21  1  1  0  0  0
 24 28  1  0  0  0  0
 24 27  1  1  0  0  0
 25 28  1  0  0  0  0
 26 29  1  0  0  0  0
 29 30  1  0  0  0  0
 29 31  1  0  0  0  0
 30 22  1  0  0  0  0
 30 25  1  1  0  0  0
 31 24  1  0  0  0  0
M  END
>  <MODEL>
8

>  <REMARK>
 VINA RESULT:      -5.8      5.062      7.757
  Name = 
  2 active torsions:
  status: ('A' for Active; 'I' for Inactive)
    1  A    between atoms: C_5  and  C_30
    2  A    between atoms: C_10  and  C_16
                            x       y       z     vdW  Elec       q    Type
                         _______ _______ _______ _____ _____    ______ ____

>  <TORSDO>
F 2

$$$$
=
 OpenBabel11122411023D

 31 36  0  0  1  0  0  0  0  0999 V2000
  179.8240  179.4920  142.7080 C   0  0  0  0  0  0  0  0  0  0  0  0
  182.5460  179.1030  140.0890 C   0  0  2  0  0  3  0  0  0  0  0  0
  183.9000  179.0350  140.8600 C   0  0  1  0  0  3  0  0  0  0  0  0
  185.1930  178.5380  142.9430 C   0  0  1  0  0  3  0  0  0  0  0  0
  181.3380  178.8100  140.9410 C   0  0  0  0  0  0  0  0  0  0  0  0
  179.1870  178.2510  142.6460 C   0  0  0  0  0  3  0  0  0  0  0  0
  183.8580  178.3410  142.2260 C   0  0  0  0  0  2  0  0  0  0  0  0
  182.4030  176.7820  139.1480 C   0  0  2  0  0  3  0  0  0  0  0  0
  179.4030  180.4250  143.5960 F   0  0  0  0  0  0  0  0  0  0  0  0
  185.0200  178.9960  138.6280 C   0  0  0  0  0  2  0  0  0  0  0  0
  185.1640  177.8780  144.1700 O   0  0  0  0  0  1  0  0  0  0  0  0
  181.0610  176.5250  139.8430 C   0  0  0  0  0  2  0  0  0  0  0  0
  182.5300  178.2730  138.7910 C   0  0  2  0  0  3  0  0  0  0  0  0
  180.8980  179.7710  141.8600 C   0  0  0  0  0  3  0  0  0  0  0  0
  186.3500  178.0000  142.1000 C   0  0  0  0  0  2  0  0  0  0  0  0
  180.6990  177.5510  140.8830 C   0  0  0  0  0  0  0  0  0  0  0  0
  179.6200  177.2870  141.7320 C   0  0  0  0  0  3  0  0  0  0  0  0
  183.7390  178.5930  137.8870 C   0  0  0  0  0  2  0  0  0  0  0  0
  185.0330  178.4190  140.0300 C   0  0  1  0  0  3  0  0  0  0  0  0
  186.3670  178.6600  140.7200 C   0  0  0  0  0  2  0  0  0  0  0  0
  182.6390  174.5430  138.3860 O   0  0  0  0  0  0  0  0  0  0  0  0
  183.8010  175.1670  137.8970 C   0  0  2  0  0  3  0  0  0  0  0  0
  182.4950  175.8670  137.9310 C   0  0  2  0  0  3  0  0  0  0  0  0
  186.3930  172.9990  136.8000 C   0  0  1  0  0  3  0  0  0  0  0  0
  184.1300  173.0590  136.5840 C   0  0  0  0  0  2  0  0  0  0  0  0
  185.4430  176.4030  135.9950 O   0  0  0  0  0  1  0  0  0  0  0  0
  187.5560  172.4420  137.5930 C   0  0  0  0  0  1  0  0  0  0  0  0
  185.1830  172.6280  137.4180 O   0  0  0  0  0  0  0  0  0  0  0  0
  185.3900  175.0500  135.9500 N   0  0  0  0  0  0  0  0  0  0  0  0
  184.1050  174.5900  136.5080 C   0  0  2  0  0  3  0  0  0  0  0  0
  186.5060  174.5240  136.7380 C   0  0  0  0  0  2  0  0  0  0  0  0
  1  9  1  0  0  0  0
  2  3  1  0  0  0  0
  2  5  1  1  0  0  0
  3  7  1  1  0  0  0
  4 11  1  1  0  0  0
  5 14  1  0  0  0  0
  6  1  1  0  0  0  0
  7  4  1  0  0  0  0
  8 12  1  6  0  0  0
 12 16  1  0  0  0  0
 13 18  1  1  0  0  0
 13  8  1  0  0  0  0
 13  2  1  0  0  0  0
 14  1  2  0  0  0  0
 15  4  1  0  0  0  0
 16  5  2  0  0  0  0
 16 17  1  0  0  0  0
 17  6  2  0  0  0  0
 18 10  1  0  0  0  0
 19 10  1  6  0  0  0
 19 20  1  0  0  0  0
 19  3  1  0  0  0  0
 20 15  1  0  0  0  0
 22 23  1  0  0  0  0
 22 21  1  1  0  0  0
 23 21  1  1  0  0  0
 23  8  1  0  0  0  0
 24 28  1  0  0  0  0
 24 27  1  1  0  0  0
 25 28  1  0  0  0  0
 29 26  1  0  0  0  0
 29 30  1  0  0  0  0
 29 31  1  0  0  0  0
 30 25  1  1  0  0  0
 30 22  1  0  0  0  0
 31 24  1  0  0  0  0
M  END
>  <MODEL>
9

>  <REMARK>
 VINA RESULT:      -5.7      6.407     10.168
  Name = 
  2 active torsions:
  status: ('A' for Active; 'I' for Inactive)
    1  A    between atoms: C_5  and  C_30
    2  A    between atoms: C_10  and  C_16
                            x       y       z     vdW  Elec       q    Type
                         _______ _______ _______ _____ _____    ______ ____

>  <TORSDO>
F 2

$$$$
