=
 OpenBabel11122412273D

 34 40  0  0  1  0  0  0  0  0999 V2000
  189.2120  177.6910  139.9960 C   0  0  1  0  0  3  0  0  0  0  0  0
  190.9770  176.7770  138.5900 C   0  0  0  0  0  2  0  0  0  0  0  0
  182.8240  178.2550  140.8250 C   0  0  1  0  0  3  0  0  0  0  0  0
  187.2750  178.5360  141.3510 C   0  0  2  0  0  3  0  0  0  0  0  0
  185.1730  179.2030  140.1110 C   0  0  2  0  0  3  0  0  0  0  0  0
  183.0510  179.7620  138.7810 C   0  0  0  0  0  1  0  0  0  0  0  0
  182.9360  176.9180  140.1100 C   0  0  0  0  0  1  0  0  0  0  0  0
  183.7890  179.3110  142.9510 C   0  0  0  0  0  2  0  0  0  0  0  0
  189.0960  177.6240  137.6840 C   0  0  2  0  0  3  0  0  0  0  0  0
  187.8400  176.4280  134.9330 C   0  0  0  0  0  2  0  0  0  0  0  0
  185.6640  178.3470  138.9420 C   0  0  0  0  0  2  0  0  0  0  0  0
  185.2980  179.4000  142.6700 C   0  0  0  0  0  2  0  0  0  0  0  0
  187.5660  177.6890  137.6610 C   0  0  1  0  0  3  0  0  0  0  0  0
  191.1270  176.5590  137.0830 C   0  0  0  0  0  2  0  0  0  0  0  0
  185.7510  178.6340  141.4200 C   0  0  2  0  0  3  0  0  0  0  0  0
  183.1320  178.0780  142.3210 C   0  0  0  0  0  2  0  0  0  0  0  0
  189.0540  175.9540  135.7580 C   0  0  1  0  0  3  0  0  0  0  0  0
  187.6760  177.7870  140.0670 C   0  0  1  0  0  3  0  0  0  0  0  0
  183.6370  179.3650  140.1290 C   0  0  1  0  0  3  0  0  0  0  0  0
  187.1220  178.4320  138.8560 N   0  0  2  0  0  0  0  0  0  0  0  0
  189.1600  177.9010  142.4620 C   0  0  0  0  0  2  0  0  0  0  0  0
  187.3050  177.8220  135.1880 C   0  0  0  0  0  3  0  0  0  0  0  0
  187.7520  177.8200  142.4700 O   0  0  0  0  0  0  0  0  0  0  0  0
  187.1440  178.3800  136.3970 C   0  0  0  0  0  3  0  0  0  0  0  0
  189.8300  177.0760  136.4740 C   0  0  1  0  0  3  0  0  0  0  0  0
  189.7290  177.0840  141.2980 C   0  0  0  0  0  2  0  0  0  0  0  0
  189.5470  176.8700  138.8350 N   0  0  2  0  0  0  0  0  0  0  0  0
  188.6520  174.9570  136.6550 O   0  0  0  0  0  0  0  0  0  0  0  0
  187.4390  174.4820  136.1510 C   0  0  0  0  0  2  0  0  0  0  0  0
  184.1260  173.9960  137.3410 O   0  0  0  0  0  0  0  0  0  0  0  0
  186.1260  172.7420  137.3410 C   0  0  0  0  0  2  0  0  0  0  0  0
  186.4820  174.1990  137.2950 C   0  0  2  0  0  3  0  0  0  0  0  0
  184.6420  172.7220  137.0670 C   0  0  0  0  0  2  0  0  0  0  0  0
  185.1630  174.8870  137.0300 C   0  0  0  0  0  2  0  0  0  0  0  0
  1 18  1  0  0  0  0
  1 26  1  1  0  0  0
  2 27  1  0  0  0  0
  3  7  1  6  0  0  0
  3 16  1  0  0  0  0
  4 15  1  0  0  0  0
  4 23  1  1  0  0  0
  5 11  1  6  0  0  0
  5 19  1  0  0  0  0
  5 15  1  0  0  0  0
  6 19  1  0  0  0  0
  9 27  1  0  0  0  0
 10 22  1  0  0  0  0
 10 17  1  0  0  0  0
 12  8  1  0  0  0  0
 13  9  1  0  0  0  0
 13 20  1  0  0  0  0
 14  2  1  0  0  0  0
 15 12  1  0  0  0  0
 16  8  1  0  0  0  0
 17 25  1  0  0  0  0
 17 28  1  0  0  0  0
 18  4  1  0  0  0  0
 19  3  1  0  0  0  0
 20 11  1  0  0  0  0
 20 18  1  0  0  0  0
 21 23  1  0  0  0  0
 22 24  2  0  0  0  0
 24 13  1  0  0  0  0
 25 14  1  0  0  0  0
 25  9  1  0  0  0  0
 26 21  1  0  0  0  0
 27  1  1  0  0  0  0
 29 28  1  0  0  0  0
 29 32  1  0  0  0  0
 32 31  1  0  0  0  0
 33 31  1  0  0  0  0
 33 30  1  0  0  0  0
 34 32  1  0  0  0  0
 34 30  1  0  0  0  0
M  END
>  <MODEL>
1

>  <REMARK>
 VINA RESULT:      -7.7      0.000      0.000
  Name = 
  3 active torsions:
  status: ('A' for Active; 'I' for Inactive)
    1  A    between atoms: C_17  and  O_28
    2  A    between atoms: O_28  and  C_29
    3  A    between atoms: C_29  and  C_32
                            x       y       z     vdW  Elec       q    Type
                         _______ _______ _______ _____ _____    ______ ____

>  <TORSDO>
F 3

$$$$
=
 OpenBabel11122412273D

 34 40  0  0  1  0  0  0  0  0999 V2000
  189.1670  177.7030  140.4480 C   0  0  1  0  0  3  0  0  0  0  0  0
  191.0250  176.8060  139.1560 C   0  0  0  0  0  2  0  0  0  0  0  0
  182.7360  178.2490  140.8460 C   0  0  1  0  0  3  0  0  0  0  0  0
  187.1400  178.5320  141.6760 C   0  0  2  0  0  3  0  0  0  0  0  0
  185.1250  179.2070  140.3020 C   0  0  2  0  0  3  0  0  0  0  0  0
  183.0970  179.7750  138.8370 C   0  0  0  0  0  1  0  0  0  0  0  0
  182.8990  176.9190  140.1280 C   0  0  0  0  0  1  0  0  0  0  0  0
  183.5510  179.2860  143.0430 C   0  0  0  0  0  2  0  0  0  0  0  0
  189.2070  177.6580  138.1330 C   0  0  2  0  0  3  0  0  0  0  0  0
  188.1440  176.4860  135.2920 C   0  0  0  0  0  2  0  0  0  0  0  0
  185.6970  178.3630  139.1610 C   0  0  0  0  0  2  0  0  0  0  0  0
  185.0760  179.3810  142.8660 C   0  0  0  0  0  2  0  0  0  0  0  0
  187.6820  177.7200  138.0060 C   0  0  1  0  0  3  0  0  0  0  0  0
  191.2770  176.6020  137.6620 C   0  0  0  0  0  2  0  0  0  0  0  0
  185.6140  178.6270  141.6430 C   0  0  2  0  0  3  0  0  0  0  0  0
  182.9420  178.0580  142.3580 C   0  0  0  0  0  2  0  0  0  0  0  0
  189.3010  176.0060  136.1930 C   0  0  1  0  0  3  0  0  0  0  0  0
  187.6280  177.7960  140.4150 C   0  0  1  0  0  3  0  0  0  0  0  0
  183.5910  179.3670  140.2170 C   0  0  1  0  0  3  0  0  0  0  0  0
  187.1570  178.4510  139.1750 N   0  0  2  0  0  0  0  0  0  0  0  0
  188.9460  177.8900  142.9060 C   0  0  0  0  0  2  0  0  0  0  0  0
  187.5900  177.8770  135.5230 C   0  0  0  0  0  3  0  0  0  0  0  0
  187.5420  177.8070  142.8180 O   0  0  0  0  0  0  0  0  0  0  0  0
  187.3460  178.4230  136.7230 C   0  0  0  0  0  3  0  0  0  0  0  0
  190.0230  177.1220  136.9700 C   0  0  1  0  0  3  0  0  0  0  0  0
  189.5950  177.0850  141.7760 C   0  0  0  0  0  2  0  0  0  0  0  0
  189.5810  176.8940  139.3050 N   0  0  2  0  0  0  0  0  0  0  0  0
  188.8410  175.0000  137.0510 O   0  0  0  0  0  0  0  0  0  0  0  0
  189.3860  173.8150  136.5490 C   0  0  0  0  0  2  0  0  0  0  0  0
  185.9400  172.9920  136.2730 O   0  0  0  0  0  0  0  0  0  0  0  0
  187.8670  172.6780  134.9470 C   0  0  0  0  0  2  0  0  0  0  0  0
  188.2920  172.7750  136.3830 C   0  0  2  0  0  3  0  0  0  0  0  0
  186.4240  173.1210  134.9640 C   0  0  0  0  0  2  0  0  0  0  0  0
  187.0450  173.2370  137.1000 C   0  0  0  0  0  2  0  0  0  0  0  0
  1 26  1  1  0  0  0
  2 27  1  0  0  0  0
  3  7  1  6  0  0  0
  3 16  1  0  0  0  0
  4 23  1  1  0  0  0
  5 11  1  6  0  0  0
  5 15  1  0  0  0  0
  6 19  1  0  0  0  0
  9 27  1  0  0  0  0
 10 22  1  0  0  0  0
 10 17  1  0  0  0  0
 11 20  1  0  0  0  0
 12  8  1  0  0  0  0
 13  9  1  0  0  0  0
 13 20  1  0  0  0  0
 14  2  1  0  0  0  0
 15  4  1  0  0  0  0
 15 12  1  0  0  0  0
 16  8  1  0  0  0  0
 17 25  1  0  0  0  0
 17 28  1  0  0  0  0
 18  1  1  0  0  0  0
 18  4  1  0  0  0  0
 19  5  1  0  0  0  0
 19  3  1  0  0  0  0
 20 18  1  0  0  0  0
 22 24  2  0  0  0  0
 23 21  1  0  0  0  0
 24 13  1  0  0  0  0
 25 14  1  0  0  0  0
 25  9  1  0  0  0  0
 26 21  1  0  0  0  0
 27  1  1  0  0  0  0
 29 28  1  0  0  0  0
 30 34  1  0  0  0  0
 31 33  1  0  0  0  0
 31 32  1  0  0  0  0
 32 29  1  0  0  0  0
 32 34  1  0  0  0  0
 33 30  1  0  0  0  0
M  END
>  <MODEL>
2

>  <REMARK>
 VINA RESULT:      -7.3      0.907      1.123
  Name = 
  3 active torsions:
  status: ('A' for Active; 'I' for Inactive)
    1  A    between atoms: C_17  and  O_28
    2  A    between atoms: O_28  and  C_29
    3  A    between atoms: C_29  and  C_32
                            x       y       z     vdW  Elec       q    Type
                         _______ _______ _______ _____ _____    ______ ____

>  <TORSDO>
F 3

$$$$
=
 OpenBabel11122412273D

 34 40  0  0  1  0  0  0  0  0999 V2000
  190.4450  177.0560  137.4580 C   0  0  1  0  0  3  0  0  0  0  0  0
  189.5720  176.6430  135.2240 C   0  0  0  0  0  2  0  0  0  0  0  0
  189.2190  176.7120  143.7980 C   0  0  1  0  0  3  0  0  0  0  0  0
  191.2050  177.3920  139.8270 C   0  0  2  0  0  3  0  0  0  0  0  0
  189.4610  178.0440  141.5410 C   0  0  2  0  0  3  0  0  0  0  0  0
  187.6120  178.6060  143.2280 C   0  0  0  0  0  1  0  0  0  0  0  0
  188.3890  175.5640  143.2500 C   0  0  0  0  0  1  0  0  0  0  0  0
  191.6770  177.4350  143.7120 C   0  0  0  0  0  2  0  0  0  0  0  0
  188.2390  177.4300  136.8610 C   0  0  2  0  0  3  0  0  0  0  0  0
  185.0830  176.6610  137.0090 C   0  0  0  0  0  2  0  0  0  0  0  0
  188.4020  177.4960  140.5830 C   0  0  0  0  0  2  0  0  0  0  0  0
  191.9200  177.7490  142.2270 C   0  0  0  0  0  2  0  0  0  0  0  0
  187.7280  177.3230  138.3010 C   0  0  1  0  0  3  0  0  0  0  0  0
  188.1820  176.7430  134.5940 C   0  0  0  0  0  2  0  0  0  0  0  0
  190.7860  177.2990  141.2960 C   0  0  2  0  0  3  0  0  0  0  0  0
  190.6900  176.2820  143.9280 C   0  0  0  0  0  2  0  0  0  0  0  0
  186.1780  176.1760  136.0360 C   0  0  1  0  0  3  0  0  0  0  0  0
  190.0250  176.9600  138.9380 C   0  0  1  0  0  3  0  0  0  0  0  0
  189.0010  178.0230  143.0150 C   0  0  1  0  0  3  0  0  0  0  0  0
  188.8100  177.7620  139.2030 N   0  0  2  0  0  0  0  0  0  0  0  0
  192.7610  176.7710  138.2840 C   0  0  0  0  0  2  0  0  0  0  0  0
  185.3550  177.9080  137.8250 C   0  0  0  0  0  3  0  0  0  0  0  0
  192.2980  176.5300  139.5940 O   0  0  0  0  0  0  0  0  0  0  0  0
  186.5140  178.1960  138.4350 C   0  0  0  0  0  3  0  0  0  0  0  0
  187.2670  177.2170  135.7160 C   0  0  1  0  0  3  0  0  0  0  0  0
  191.7380  176.2690  137.2610 C   0  0  0  0  0  2  0  0  0  0  0  0
  189.3480  176.5220  136.6560 N   0  0  2  0  0  0  0  0  0  0  0  0
  186.7350  174.9830  136.5130 O   0  0  0  0  0  0  0  0  0  0  0  0
  185.6880  174.3270  137.1640 C   0  0  0  0  0  2  0  0  0  0  0  0
  186.3480  171.2190  135.5740 O   0  0  0  0  0  0  0  0  0  0  0  0
  187.4630  172.5910  137.1380 C   0  0  0  0  0  2  0  0  0  0  0  0
  185.9880  172.8420  137.2560 C   0  0  2  0  0  3  0  0  0  0  0  0
  187.5940  171.7900  135.8660 C   0  0  0  0  0  2  0  0  0  0  0  0
  185.4020  172.1350  136.0560 C   0  0  0  0  0  2  0  0  0  0  0  0
  1 26  1  1  0  0  0
  1 18  1  0  0  0  0
  2 27  1  0  0  0  0
  3  7  1  6  0  0  0
  3 16  1  0  0  0  0
  4 23  1  1  0  0  0
  4 15  1  0  0  0  0
  5 11  1  6  0  0  0
  5 19  1  0  0  0  0
  8 16  1  0  0  0  0
  9 13  1  0  0  0  0
 10 22  1  0  0  0  0
 12  8  1  0  0  0  0
 13 24  1  0  0  0  0
 13 20  1  0  0  0  0
 14  2  1  0  0  0  0
 14 25  1  0  0  0  0
 15  5  1  0  0  0  0
 15 12  1  0  0  0  0
 17 28  1  0  0  0  0
 17 10  1  0  0  0  0
 18 20  1  0  0  0  0
 18  4  1  0  0  0  0
 19  6  1  0  0  0  0
 19  3  1  0  0  0  0
 20 11  1  0  0  0  0
 21 23  1  0  0  0  0
 22 24  2  0  0  0  0
 25 17  1  0  0  0  0
 25  9  1  0  0  0  0
 26 21  1  0  0  0  0
 27  9  1  0  0  0  0
 27  1  1  0  0  0  0
 28 29  1  0  0  0  0
 29 32  1  0  0  0  0
 30 33  1  0  0  0  0
 30 34  1  0  0  0  0
 31 32  1  0  0  0  0
 33 31  1  0  0  0  0
 34 32  1  0  0  0  0
M  END
>  <MODEL>
3

>  <REMARK>
 VINA RESULT:      -6.6      2.259      4.396
  Name = 
  3 active torsions:
  status: ('A' for Active; 'I' for Inactive)
    1  A    between atoms: C_17  and  O_28
    2  A    between atoms: O_28  and  C_29
    3  A    between atoms: C_29  and  C_32
                            x       y       z     vdW  Elec       q    Type
                         _______ _______ _______ _____ _____    ______ ____

>  <TORSDO>
F 3

$$$$
=
 OpenBabel11122412273D

 34 40  0  0  1  0  0  0  0  0999 V2000
  189.5730  176.9380  137.1620 C   0  0  1  0  0  3  0  0  0  0  0  0
  188.3360  176.6020  135.0930 C   0  0  0  0  0  2  0  0  0  0  0  0
  189.3060  176.7010  143.6190 C   0  0  1  0  0  3  0  0  0  0  0  0
  190.7120  177.2070  139.3840 C   0  0  2  0  0  3  0  0  0  0  0  0
  189.3130  178.0070  141.3340 C   0  0  2  0  0  3  0  0  0  0  0  0
  187.7980  178.7270  143.2760 C   0  0  0  0  0  1  0  0  0  0  0  0
  188.3070  175.6290  143.2190 C   0  0  0  0  0  1  0  0  0  0  0  0
  191.7740  177.2090  143.1510 C   0  0  0  0  0  2  0  0  0  0  0  0
  187.3420  177.5010  136.9040 C   0  0  2  0  0  3  0  0  0  0  0  0
  184.1910  177.0080  137.5410 C   0  0  0  0  0  2  0  0  0  0  0  0
  188.0770  177.5530  140.5560 C   0  0  0  0  0  2  0  0  0  0  0  0
  191.8140  177.5010  141.6410 C   0  0  0  0  0  2  0  0  0  0  0  0
  187.0500  177.4390  138.4060 C   0  0  1  0  0  3  0  0  0  0  0  0
  186.8800  176.8220  134.6810 C   0  0  0  0  0  2  0  0  0  0  0  0
  190.5170  177.1510  140.9000 C   0  0  2  0  0  3  0  0  0  0  0  0
  190.7370  176.1450  143.5300 C   0  0  0  0  0  2  0  0  0  0  0  0
  185.0800  176.4300  136.4190 C   0  0  1  0  0  3  0  0  0  0  0  0
  189.3770  176.8780  138.6900 C   0  0  1  0  0  3  0  0  0  0  0  0
  189.0830  178.0260  142.8620 C   0  0  1  0  0  3  0  0  0  0  0  0
  188.2900  177.7820  139.1270 N   0  0  2  0  0  0  0  0  0  0  0  0
  191.9550  176.4540  137.6300 C   0  0  0  0  0  2  0  0  0  0  0  0
  184.6900  178.2260  138.2900 C   0  0  0  0  0  3  0  0  0  0  0  0
  191.6790  176.2540  138.9980 O   0  0  0  0  0  0  0  0  0  0  0  0
  185.9500  178.4130  138.7110 C   0  0  0  0  0  3  0  0  0  0  0  0
  186.1910  177.3730  135.9220 C   0  0  1  0  0  3  0  0  0  0  0  0
  190.7490  176.0420  136.7810 C   0  0  0  0  0  2  0  0  0  0  0  0
  188.3250  176.5010  136.5430 N   0  0  2  0  0  0  0  0  0  0  0  0
  185.5990  175.1940  136.8210 O   0  0  0  0  0  0  0  0  0  0  0  0
  184.5060  174.4880  137.3300 C   0  0  0  0  0  2  0  0  0  0  0  0
  184.1680  171.0580  136.4650 O   0  0  0  0  0  0  0  0  0  0  0  0
  185.9420  172.6120  136.5670 C   0  0  0  0  0  2  0  0  0  0  0  0
  184.8870  173.0340  137.5460 C   0  0  2  0  0  3  0  0  0  0  0  0
  185.2650  171.5450  135.7410 C   0  0  0  0  0  2  0  0  0  0  0  0
  183.7080  172.1500  137.2140 C   0  0  0  0  0  2  0  0  0  0  0  0
  1 26  1  1  0  0  0
  1 18  1  0  0  0  0
  2 27  1  0  0  0  0
  3  7  1  6  0  0  0
  4 23  1  6  0  0  0
  4 15  1  0  0  0  0
  5 11  1  6  0  0  0
  5 19  1  0  0  0  0
  8 16  1  0  0  0  0
  9 13  1  0  0  0  0
 10 22  1  0  0  0  0
 12  8  1  0  0  0  0
 13 24  1  0  0  0  0
 13 20  1  0  0  0  0
 14  2  1  0  0  0  0
 14 25  1  0  0  0  0
 15  5  1  0  0  0  0
 15 12  1  0  0  0  0
 16  3  1  0  0  0  0
 17 28  1  0  0  0  0
 17 10  1  0  0  0  0
 18 20  1  0  0  0  0
 18  4  1  0  0  0  0
 19  6  1  0  0  0  0
 19  3  1  0  0  0  0
 20 11  1  0  0  0  0
 21 23  1  0  0  0  0
 22 24  2  0  0  0  0
 25 17  1  0  0  0  0
 25  9  1  0  0  0  0
 26 21  1  0  0  0  0
 27  9  1  0  0  0  0
 27  1  1  0  0  0  0
 28 29  1  0  0  0  0
 29 32  1  0  0  0  0
 30 34  1  0  0  0  0
 31 32  1  0  0  0  0
 33 30  1  0  0  0  0
 33 31  1  0  0  0  0
 34 32  1  0  0  0  0
M  END
>  <MODEL>
4

>  <REMARK>
 VINA RESULT:      -6.6      2.125      4.545
  Name = 
  3 active torsions:
  status: ('A' for Active; 'I' for Inactive)
    1  A    between atoms: C_17  and  O_28
    2  A    between atoms: O_28  and  C_29
    3  A    between atoms: C_29  and  C_32
                            x       y       z     vdW  Elec       q    Type
                         _______ _______ _______ _____ _____    ______ ____

>  <TORSDO>
F 3

$$$$
=
 OpenBabel11122412273D

 34 40  0  0  1  0  0  0  0  0999 V2000
  190.7710  177.0330  137.6340 C   0  0  1  0  0  3  0  0  0  0  0  0
  190.1070  176.5390  135.3440 C   0  0  0  0  0  2  0  0  0  0  0  0
  189.0070  176.8140  143.8510 C   0  0  1  0  0  3  0  0  0  0  0  0
  191.3120  177.4510  140.0500 C   0  0  2  0  0  3  0  0  0  0  0  0
  189.4080  178.0950  141.5880 C   0  0  2  0  0  3  0  0  0  0  0  0
  187.4040  178.6460  143.0920 C   0  0  0  0  0  1  0  0  0  0  0  0
  188.2590  175.6290  143.2650 C   0  0  0  0  0  1  0  0  0  0  0  0
  191.4420  177.6050  143.9580 C   0  0  0  0  0  2  0  0  0  0  0  0
  188.6170  177.3280  136.8380 C   0  0  2  0  0  3  0  0  0  0  0  0
  185.4810  176.4710  136.7340 C   0  0  0  0  0  2  0  0  0  0  0  0
  188.4520  177.4920  140.5570 C   0  0  0  0  0  2  0  0  0  0  0  0
  191.8050  177.8900  142.4910 C   0  0  0  0  0  2  0  0  0  0  0  0
  187.9850  177.2420  138.2310 C   0  0  1  0  0  3  0  0  0  0  0  0
  188.7750  176.5830  134.5940 C   0  0  0  0  0  2  0  0  0  0  0  0
  190.7700  177.3830  141.4780 C   0  0  2  0  0  3  0  0  0  0  0  0
  190.4710  176.4300  144.1200 C   0  0  0  0  0  2  0  0  0  0  0  0
  186.6700  175.9940  135.8730 C   0  0  1  0  0  3  0  0  0  0  0  0
  190.2260  176.9620  139.0740 C   0  0  1  0  0  3  0  0  0  0  0  0
  188.8220  178.0980  143.0160 C   0  0  1  0  0  3  0  0  0  0  0  0
  188.9720  177.7350  139.2110 N   0  0  2  0  0  0  0  0  0  0  0  0
  193.0130  176.8370  138.6650 C   0  0  0  0  0  2  0  0  0  0  0  0
  185.6470  177.7450  137.5360 C   0  0  0  0  0  3  0  0  0  0  0  0
  192.4440  176.6160  139.9360 O   0  0  0  0  0  0  0  0  0  0  0  0
  186.7410  178.0830  138.2350 C   0  0  0  0  0  3  0  0  0  0  0  0
  187.7540  177.0580  135.6190 C   0  0  1  0  0  3  0  0  0  0  0  0
  192.0970  176.2800  137.5710 C   0  0  0  0  0  2  0  0  0  0  0  0
  189.7630  176.4480  136.7540 N   0  0  2  0  0  0  0  0  0  0  0  0
  187.2140  174.8310  136.4290 O   0  0  0  0  0  0  0  0  0  0  0  0
  186.9760  173.8290  135.4850 C   0  0  0  0  0  2  0  0  0  0  0  0
  184.7540  172.6730  138.0050 O   0  0  0  0  0  0  0  0  0  0  0  0
  184.7550  172.7310  135.6450 C   0  0  0  0  0  2  0  0  0  0  0  0
  186.1790  172.7030  136.1180 C   0  0  2  0  0  3  0  0  0  0  0  0
  183.9620  173.0090  136.8990 C   0  0  0  0  0  2  0  0  0  0  0  0
  186.0720  172.9370  137.6060 C   0  0  0  0  0  2  0  0  0  0  0  0
  1 26  1  1  0  0  0
  1 18  1  0  0  0  0
  2 27  1  0  0  0  0
  3  7  1  6  0  0  0
  3 16  1  0  0  0  0
  4 23  1  1  0  0  0
  4 15  1  0  0  0  0
  5 11  1  6  0  0  0
  5 19  1  0  0  0  0
  8 16  1  0  0  0  0
  9 13  1  0  0  0  0
 10 22  1  0  0  0  0
 12  8  1  0  0  0  0
 13 24  1  0  0  0  0
 13 20  1  0  0  0  0
 14  2  1  0  0  0  0
 14 25  1  0  0  0  0
 15  5  1  0  0  0  0
 15 12  1  0  0  0  0
 17 28  1  0  0  0  0
 17 10  1  0  0  0  0
 18 20  1  0  0  0  0
 18  4  1  0  0  0  0
 19  6  1  0  0  0  0
 19  3  1  0  0  0  0
 20 11  1  0  0  0  0
 21 23  1  0  0  0  0
 22 24  2  0  0  0  0
 25 17  1  0  0  0  0
 25  9  1  0  0  0  0
 26 21  1  0  0  0  0
 27  9  1  0  0  0  0
 27  1  1  0  0  0  0
 29 32  1  0  0  0  0
 29 28  1  0  0  0  0
 31 32  1  0  0  0  0
 31 33  1  0  0  0  0
 32 34  1  0  0  0  0
 33 30  1  0  0  0  0
 34 30  1  0  0  0  0
M  END
>  <MODEL>
5

>  <REMARK>
 VINA RESULT:      -6.5      2.273      4.173
  Name = 
  3 active torsions:
  status: ('A' for Active; 'I' for Inactive)
    1  A    between atoms: C_17  and  O_28
    2  A    between atoms: O_28  and  C_29
    3  A    between atoms: C_29  and  C_32
                            x       y       z     vdW  Elec       q    Type
                         _______ _______ _______ _____ _____    ______ ____

>  <TORSDO>
F 3

$$$$
=
 OpenBabel11122412273D

 34 40  0  0  1  0  0  0  0  0999 V2000
  187.0400  178.5480  140.4100 C   0  0  1  0  0  3  0  0  0  0  0  0
  189.3890  178.1240  139.9310 C   0  0  0  0  0  2  0  0  0  0  0  0
  180.9410  177.2350  138.7080 C   0  0  1  0  0  3  0  0  0  0  0  0
  184.5770  178.8520  140.7900 C   0  0  2  0  0  3  0  0  0  0  0  0
  183.0580  178.7970  138.7660 C   0  0  2  0  0  3  0  0  0  0  0  0
  181.5850  178.6280  136.6730 C   0  0  0  0  0  1  0  0  0  0  0  0
  181.6630  175.9560  138.3200 C   0  0  0  0  0  1  0  0  0  0  0  0
  180.6690  178.6440  140.8310 C   0  0  0  0  0  2  0  0  0  0  0  0
  187.8850  178.3240  138.2660 C   0  0  2  0  0  3  0  0  0  0  0  0
  188.1870  176.6620  135.4870 C   0  0  0  0  0  2  0  0  0  0  0  0
  184.1760  178.0640  138.0230 C   0  0  0  0  0  2  0  0  0  0  0  0
  182.0890  179.1620  141.1180 C   0  0  0  0  0  2  0  0  0  0  0  0
  186.5310  177.9300  137.6670 C   0  0  1  0  0  3  0  0  0  0  0  0
  190.1820  177.8790  138.6460 C   0  0  0  0  0  2  0  0  0  0  0  0
  183.1820  178.4970  140.2720 C   0  0  2  0  0  3  0  0  0  0  0  0
  180.6550  177.2390  140.2180 C   0  0  0  0  0  2  0  0  0  0  0  0
  189.0430  176.6150  136.7700 C   0  0  1  0  0  3  0  0  0  0  0  0
  185.6340  178.1870  139.8900 C   0  0  1  0  0  3  0  0  0  0  0  0
  181.6590  178.4970  138.1870 C   0  0  1  0  0  3  0  0  0  0  0  0
  185.4730  178.5720  138.4700 N   0  0  2  0  0  0  0  0  0  0  0  0
  185.9480  178.8660  142.6080 C   0  0  0  0  0  2  0  0  0  0  0  0
  187.2640  177.8460  135.2880 C   0  0  0  0  0  3  0  0  0  0  0  0
  184.7260  178.3720  142.1080 O   0  0  0  0  0  0  0  0  0  0  0  0
  186.4950  178.3960  136.2400 C   0  0  0  0  0  3  0  0  0  0  0  0
  189.1560  177.9530  137.5230 C   0  0  1  0  0  3  0  0  0  0  0  0
  187.1230  178.1940  141.8920 C   0  0  0  0  0  2  0  0  0  0  0  0
  188.0080  177.8020  139.6100 N   0  0  2  0  0  0  0  0  0  0  0  0
  188.5780  175.5930  137.6070 O   0  0  0  0  0  0  0  0  0  0  0  0
  188.0890  174.6100  136.7440 C   0  0  0  0  0  2  0  0  0  0  0  0
  190.4910  172.4640  135.2420 O   0  0  0  0  0  0  0  0  0  0  0  0
  190.3710  173.7530  137.2160 C   0  0  0  0  0  2  0  0  0  0  0  0
  188.9760  173.3790  136.8110 C   0  0  2  0  0  3  0  0  0  0  0  0
  191.2090  173.3860  136.0150 C   0  0  0  0  0  2  0  0  0  0  0  0
  189.1420  172.8040  135.4240 C   0  0  0  0  0  2  0  0  0  0  0  0
  1 26  1  1  0  0  0
  3  7  1  1  0  0  0
  3 16  1  0  0  0  0
  4 23  1  1  0  0  0
  5 11  1  6  0  0  0
  5 15  1  0  0  0  0
  6 19  1  0  0  0  0
  8 12  1  0  0  0  0
  9 27  1  0  0  0  0
 10 17  1  0  0  0  0
 11 20  1  0  0  0  0
 13  9  1  0  0  0  0
 13 20  1  0  0  0  0
 14  2  1  0  0  0  0
 15  4  1  0  0  0  0
 15 12  1  0  0  0  0
 16  8  1  0  0  0  0
 17 25  1  0  0  0  0
 17 28  1  0  0  0  0
 18  1  1  0  0  0  0
 18  4  1  0  0  0  0
 19  3  1  0  0  0  0
 19  5  1  0  0  0  0
 20 18  1  0  0  0  0
 22 10  1  0  0  0  0
 22 24  2  0  0  0  0
 23 21  1  0  0  0  0
 24 13  1  0  0  0  0
 25  9  1  0  0  0  0
 25 14  1  0  0  0  0
 26 21  1  0  0  0  0
 27  2  1  0  0  0  0
 27  1  1  0  0  0  0
 29 32  1  0  0  0  0
 29 28  1  0  0  0  0
 30 34  1  0  0  0  0
 30 33  1  0  0  0  0
 32 31  1  0  0  0  0
 33 31  1  0  0  0  0
 34 32  1  0  0  0  0
M  END
>  <MODEL>
6

>  <REMARK>
 VINA RESULT:      -5.7      1.818      2.987
  Name = 
  3 active torsions:
  status: ('A' for Active; 'I' for Inactive)
    1  A    between atoms: C_17  and  O_28
    2  A    between atoms: O_28  and  C_29
    3  A    between atoms: C_29  and  C_32
                            x       y       z     vdW  Elec       q    Type
                         _______ _______ _______ _____ _____    ______ ____

>  <TORSDO>
F 3

$$$$
=
 OpenBabel11122412273D

 34 40  0  0  1  0  0  0  0  0999 V2000
  186.1630  173.2610  135.8120 C   0  0  1  0  0  3  0  0  0  0  0  0
  183.9170  172.5460  135.2070 C   0  0  0  0  0  2  0  0  0  0  0  0
  189.6730  177.7080  138.9310 C   0  0  1  0  0  3  0  0  0  0  0  0
  188.4060  174.1180  136.5470 C   0  0  2  0  0  3  0  0  0  0  0  0
  188.7030  176.6240  136.7370 C   0  0  2  0  0  3  0  0  0  0  0  0
  188.8850  179.1700  136.9980 C   0  0  0  0  0  1  0  0  0  0  0  0
  188.3800  177.7040  139.7290 C   0  0  0  0  0  1  0  0  0  0  0  0
  191.4200  175.9740  138.2170 C   0  0  0  0  0  2  0  0  0  0  0  0
  184.4690  174.7300  135.2380 C   0  0  2  0  0  3  0  0  0  0  0  0
  182.3030  177.0250  136.0290 C   0  0  0  0  0  2  0  0  0  0  0  0
  187.1800  176.7380  136.8190 C   0  0  0  0  0  2  0  0  0  0  0  0
  190.6480  175.0330  137.2770 C   0  0  0  0  0  2  0  0  0  0  0  0
  185.1070  175.9110  135.9750 C   0  0  1  0  0  3  0  0  0  0  0  0
  182.6270  173.2880  134.8540 C   0  0  0  0  0  2  0  0  0  0  0  0
  189.1290  175.2480  137.2830 C   0  0  2  0  0  3  0  0  0  0  0  0
  190.5570  176.5240  139.3580 C   0  0  0  0  0  2  0  0  0  0  0  0
  182.1640  175.4880  136.0220 C   0  0  1  0  0  3  0  0  0  0  0  0
  186.8920  174.3980  136.5560 C   0  0  1  0  0  3  0  0  0  0  0  0
  189.4270  177.8100  137.4120 C   0  0  1  0  0  3  0  0  0  0  0  0
  186.5700  175.7160  135.9670 N   0  0  2  0  0  0  0  0  0  0  0  0
  188.1180  171.8630  136.4060 C   0  0  0  0  0  2  0  0  0  0  0  0
  183.4590  177.6390  135.2670 C   0  0  0  0  0  3  0  0  0  0  0  0
  188.6530  172.8950  137.2050 O   0  0  0  0  0  0  0  0  0  0  0  0
  184.7180  177.1750  135.2640 C   0  0  0  0  0  3  0  0  0  0  0  0
  182.9820  174.7670  134.9340 C   0  0  1  0  0  3  0  0  0  0  0  0
  186.5880  171.9250  136.4170 C   0  0  0  0  0  2  0  0  0  0  0  0
  184.7290  173.4970  135.9490 N   0  0  2  0  0  0  0  0  0  0  0  0
  182.4520  174.9850  137.2970 O   0  0  0  0  0  0  0  0  0  0  0  0
  181.2140  174.8850  137.9370 C   0  0  0  0  0  2  0  0  0  0  0  0
  182.6320  177.3020  140.1240 O   0  0  0  0  0  0  0  0  0  0  0  0
  180.4620  176.7830  139.3510 C   0  0  0  0  0  2  0  0  0  0  0  0
  181.2900  175.5320  139.3090 C   0  0  2  0  0  3  0  0  0  0  0  0
  181.4720  177.8790  139.5900 C   0  0  0  0  0  2  0  0  0  0  0  0
  182.6980  176.0210  139.5570 C   0  0  0  0  0  2  0  0  0  0  0  0
  1 27  1  0  0  0  0
  1 26  1  1  0  0  0
  1 18  1  0  0  0  0
  2 27  1  0  0  0  0
  3 16  1  0  0  0  0
  3  7  1  1  0  0  0
  4 18  1  0  0  0  0
  4 23  1  1  0  0  0
  4 15  1  0  0  0  0
  5 11  1  1  0  0  0
  5 15  1  0  0  0  0
  5 19  1  0  0  0  0
  6 19  1  0  0  0  0
  8 16  1  0  0  0  0
  9 27  1  0  0  0  0
  9 13  1  0  0  0  0
 12 15  1  0  0  0  0
 12  8  1  0  0  0  0
 14 25  1  0  0  0  0
 14  2  1  0  0  0  0
 17 10  1  0  0  0  0
 17 28  1  0  0  0  0
 19  3  1  0  0  0  0
 20 13  1  0  0  0  0
 20 18  1  0  0  0  0
 20 11  1  0  0  0  0
 21 26  1  0  0  0  0
 21 23  1  0  0  0  0
 22 10  1  0  0  0  0
 24 22  2  0  0  0  0
 24 13  1  0  0  0  0
 25  9  1  0  0  0  0
 25 17  1  0  0  0  0
 28 29  1  0  0  0  0
 29 32  1  0  0  0  0
 31 33  1  0  0  0  0
 32 31  1  0  0  0  0
 32 34  1  0  0  0  0
 33 30  1  0  0  0  0
 34 30  1  0  0  0  0
M  END
>  <MODEL>
7

>  <REMARK>
 VINA RESULT:      -5.4      2.551      6.541
  Name = 
  3 active torsions:
  status: ('A' for Active; 'I' for Inactive)
    1  A    between atoms: C_17  and  O_28
    2  A    between atoms: O_28  and  C_29
    3  A    between atoms: C_29  and  C_32
                            x       y       z     vdW  Elec       q    Type
                         _______ _______ _______ _____ _____    ______ ____

>  <TORSDO>
F 3

$$$$
=
 OpenBabel11122412273D

 34 40  0  0  1  0  0  0  0  0999 V2000
  183.4330  174.6110  137.4770 C   0  0  1  0  0  3  0  0  0  0  0  0
  181.1050  174.6240  138.1890 C   0  0  0  0  0  2  0  0  0  0  0  0
  189.1330  177.6390  137.8650 C   0  0  1  0  0  3  0  0  0  0  0  0
  185.8640  174.7270  136.8630 C   0  0  2  0  0  3  0  0  0  0  0  0
  186.9060  177.0200  136.6080 C   0  0  2  0  0  3  0  0  0  0  0  0
  187.9010  179.3800  136.4680 C   0  0  0  0  0  1  0  0  0  0  0  0
  188.5050  177.9690  139.2080 C   0  0  0  0  0  1  0  0  0  0  0  0
  189.6850  175.5140  136.5430 C   0  0  0  0  0  2  0  0  0  0  0  0
  182.1790  176.5440  137.7020 C   0  0  2  0  0  3  0  0  0  0  0  0
  181.4870  179.3230  139.2450 C   0  0  0  0  0  2  0  0  0  0  0  0
  185.7510  177.5700  137.4470 C   0  0  0  0  0  2  0  0  0  0  0  0
  188.3090  174.8990  136.2370 C   0  0  0  0  0  2  0  0  0  0  0  0
  183.4090  177.4400  137.8780 C   0  0  1  0  0  3  0  0  0  0  0  0
  180.0890  175.7320  138.4720 C   0  0  0  0  0  2  0  0  0  0  0  0
  187.1470  175.5500  136.9990 C   0  0  2  0  0  3  0  0  0  0  0  0
  189.7370  176.2250  137.9000 C   0  0  0  0  0  2  0  0  0  0  0  0
  180.9400  177.8980  139.4730 C   0  0  1  0  0  3  0  0  0  0  0  0
  184.7260  175.4380  137.6170 C   0  0  1  0  0  3  0  0  0  0  0  0
  188.1730  177.8990  136.6860 C   0  0  1  0  0  3  0  0  0  0  0  0
  184.5300  176.8250  137.1410 N   0  0  2  0  0  0  0  0  0  0  0  0
  184.9270  172.6690  137.1270 C   0  0  0  0  0  2  0  0  0  0  0  0
  182.1950  179.6140  137.9380 C   0  0  0  0  0  3  0  0  0  0  0  0
  186.0630  173.4490  137.4250 O   0  0  0  0  0  0  0  0  0  0  0  0
  183.0790  178.8020  137.3390 C   0  0  0  0  0  3  0  0  0  0  0  0
  180.8320  177.0340  138.2030 C   0  0  1  0  0  3  0  0  0  0  0  0
  183.7150  173.1760  137.9150 C   0  0  0  0  0  2  0  0  0  0  0  0
  182.4130  175.2490  138.3050 N   0  0  2  0  0  0  0  0  0  0  0  0
  181.6950  177.2590  140.4640 O   0  0  0  0  0  0  0  0  0  0  0  0
  182.2180  178.2910  141.2470 C   0  0  0  0  0  2  0  0  0  0  0  0
  185.5430  179.4370  141.7570 O   0  0  0  0  0  0  0  0  0  0  0  0
  183.9450  178.2530  143.0300 C   0  0  0  0  0  2  0  0  0  0  0  0
  183.6720  178.0020  141.5760 C   0  0  2  0  0  3  0  0  0  0  0  0
  184.9390  179.3880  143.0220 C   0  0  0  0  0  2  0  0  0  0  0  0
  184.5560  178.9970  140.8630 C   0  0  0  0  0  2  0  0  0  0  0  0
  1 18  1  0  0  0  0
  1 26  1  1  0  0  0
  1 27  1  0  0  0  0
  2 27  1  0  0  0  0
  2 14  1  0  0  0  0
  3 16  1  0  0  0  0
  3  7  1  1  0  0  0
  4 15  1  0  0  0  0
  4 23  1  1  0  0  0
  4 18  1  0  0  0  0
  5 19  1  0  0  0  0
  5 15  1  0  0  0  0
  5 11  1  1  0  0  0
  6 19  1  0  0  0  0
  8 16  1  0  0  0  0
  9 13  1  0  0  0  0
  9 25  1  0  0  0  0
  9 27  1  0  0  0  0
 10 17  1  0  0  0  0
 12  8  1  0  0  0  0
 12 15  1  0  0  0  0
 17 28  1  0  0  0  0
 19  3  1  0  0  0  0
 20 11  1  0  0  0  0
 20 18  1  0  0  0  0
 20 13  1  0  0  0  0
 21 23  1  0  0  0  0
 21 26  1  0  0  0  0
 22 10  1  0  0  0  0
 24 13  1  0  0  0  0
 24 22  2  0  0  0  0
 25 14  1  0  0  0  0
 25 17  1  0  0  0  0
 28 29  1  0  0  0  0
 29 32  1  0  0  0  0
 30 33  1  0  0  0  0
 32 31  1  0  0  0  0
 33 31  1  0  0  0  0
 34 32  1  0  0  0  0
 34 30  1  0  0  0  0
M  END
>  <MODEL>
8

>  <REMARK>
 VINA RESULT:      -5.4      2.211      7.220
  Name = 
  3 active torsions:
  status: ('A' for Active; 'I' for Inactive)
    1  A    between atoms: C_17  and  O_28
    2  A    between atoms: O_28  and  C_29
    3  A    between atoms: C_29  and  C_32
                            x       y       z     vdW  Elec       q    Type
                         _______ _______ _______ _____ _____    ______ ____

>  <TORSDO>
F 3

$$$$
=
 OpenBabel11122412273D

 34 40  0  0  1  0  0  0  0  0999 V2000
  186.6880  178.5810  138.6590 C   0  0  1  0  0  3  0  0  0  0  0  0
  184.4520  178.8210  137.7280 C   0  0  0  0  0  2  0  0  0  0  0  0
  190.1740  176.3310  143.6190 C   0  0  1  0  0  3  0  0  0  0  0  0
  188.9250  178.2250  139.7430 C   0  0  2  0  0  3  0  0  0  0  0  0
  189.0290  178.2800  142.2710 C   0  0  2  0  0  3  0  0  0  0  0  0
  189.0250  178.2530  144.8370 C   0  0  0  0  0  1  0  0  0  0  0  0
  188.9980  175.3690  143.5930 C   0  0  0  0  0  1  0  0  0  0  0  0
  191.9580  177.1290  141.9610 C   0  0  0  0  0  2  0  0  0  0  0  0
  184.8160  179.0410  139.9410 C   0  0  2  0  0  3  0  0  0  0  0  0
  182.5810  178.1560  142.1310 C   0  0  0  0  0  2  0  0  0  0  0  0
  187.5240  178.0050  142.2790 C   0  0  0  0  0  2  0  0  0  0  0  0
  191.1550  177.8780  140.8840 C   0  0  0  0  0  2  0  0  0  0  0  0
  185.4400  178.4940  141.2280 C   0  0  1  0  0  3  0  0  0  0  0  0
  183.0700  179.0560  138.3370 C   0  0  0  0  0  2  0  0  0  0  0  0
  189.6360  177.6870  140.9860 C   0  0  2  0  0  3  0  0  0  0  0  0
  191.2030  175.9310  142.5480 C   0  0  0  0  0  2  0  0  0  0  0  0
  182.5730  178.0190  140.5940 C   0  0  1  0  0  3  0  0  0  0  0  0
  187.4060  178.0360  139.9100 C   0  0  1  0  0  3  0  0  0  0  0  0
  189.7300  177.8060  143.5640 C   0  0  1  0  0  3  0  0  0  0  0  0
  186.9010  178.6820  141.1420 N   0  0  2  0  0  0  0  0  0  0  0  0
  188.8150  178.1430  137.4700 C   0  0  0  0  0  2  0  0  0  0  0  0
  183.5740  179.1120  142.7570 C   0  0  0  0  0  3  0  0  0  0  0  0
  189.3570  177.5090  138.6070 O   0  0  0  0  0  0  0  0  0  0  0  0
  184.8570  179.2460  142.3890 C   0  0  0  0  0  3  0  0  0  0  0  0
  183.3040  179.1450  139.8400 C   0  0  1  0  0  3  0  0  0  0  0  0
  187.2990  177.9330  137.4190 C   0  0  0  0  0  2  0  0  0  0  0  0
  185.2680  178.2730  138.8000 N   0  0  2  0  0  0  0  0  0  0  0  0
  183.0620  176.7580  140.2330 O   0  0  0  0  0  0  0  0  0  0  0  0
  181.9390  176.0360  139.8220 C   0  0  0  0  0  2  0  0  0  0  0  0
  182.9000  174.0490  137.0360 O   0  0  0  0  0  0  0  0  0  0  0  0
  180.8720  174.9170  137.8790 C   0  0  0  0  0  2  0  0  0  0  0  0
  181.9910  175.8150  138.3200 C   0  0  2  0  0  3  0  0  0  0  0  0
  181.5780  173.6960  137.3410 C   0  0  0  0  0  2  0  0  0  0  0  0
  183.2390  175.0400  137.9680 C   0  0  0  0  0  2  0  0  0  0  0  0
  1 26  1  6  0  0  0
  1 27  1  0  0  0  0
  1 18  1  0  0  0  0
  2 14  1  0  0  0  0
  2 27  1  0  0  0  0
  3  7  1  6  0  0  0
  4 23  1  6  0  0  0
  4 18  1  0  0  0  0
  4 15  1  0  0  0  0
  5 11  1  1  0  0  0
  5 19  1  0  0  0  0
  8 16  1  0  0  0  0
  9 13  1  0  0  0  0
 10 22  1  0  0  0  0
 12 15  1  0  0  0  0
 12  8  1  0  0  0  0
 13 24  1  0  0  0  0
 14 25  1  0  0  0  0
 15  5  1  0  0  0  0
 16  3  1  0  0  0  0
 17 10  1  0  0  0  0
 18 20  1  0  0  0  0
 19  3  1  0  0  0  0
 19  6  1  0  0  0  0
 20 13  1  0  0  0  0
 20 11  1  0  0  0  0
 21 23  1  0  0  0  0
 24 22  2  0  0  0  0
 25  9  1  0  0  0  0
 25 17  1  0  0  0  0
 26 21  1  0  0  0  0
 27  9  1  0  0  0  0
 28 17  1  0  0  0  0
 29 28  1  0  0  0  0
 30 33  1  0  0  0  0
 30 34  1  0  0  0  0
 31 32  1  0  0  0  0
 32 29  1  0  0  0  0
 33 31  1  0  0  0  0
 34 32  1  0  0  0  0
M  END
>  <MODEL>
9

>  <REMARK>
 VINA RESULT:      -5.3      2.097      6.029
  Name = 
  3 active torsions:
  status: ('A' for Active; 'I' for Inactive)
    1  A    between atoms: C_17  and  O_28
    2  A    between atoms: O_28  and  C_29
    3  A    between atoms: C_29  and  C_32
                            x       y       z     vdW  Elec       q    Type
                         _______ _______ _______ _____ _____    ______ ____

>  <TORSDO>
F 3

$$$$
