=
 OpenBabel11122410343D

 30 35  0  0  1  0  0  0  0  0999 V2000
  188.0260  177.5240  144.2990 C   0  0  1  0  0  3  0  0  0  0  0  0
  186.6370  177.7310  146.3350 C   0  0  0  0  0  0  0  0  0  0  0  0
  184.9330  179.1890  141.9650 N   0  0  0  0  0  0  0  0  0  0  0  0
  188.1130  177.3740  142.7680 C   0  0  2  0  0  3  0  0  0  0  0  0
  189.2750  177.3660  145.0680 C   0  0  0  0  0  3  0  0  0  0  0  0
  191.6610  178.3150  142.6300 O   0  0  0  0  0  0  0  0  0  0  0  0
  188.5800  176.9480  139.9210 C   0  0  1  0  0  3  0  0  0  0  0  0
  190.5740  177.8640  143.0860 C   0  0  0  0  0  0  0  0  0  0  0  0
  187.6390  178.0430  139.7770 N   0  0  0  0  0  0  0  0  0  0  0  0
  185.5060  179.1270  140.8030 C   0  0  0  0  0  0  0  0  0  0  0  0
  190.4690  177.5240  144.5110 C   0  0  0  0  0  0  0  0  0  0  0  0
  189.4600  177.6260  142.2050 N   0  0  0  0  0  0  0  0  0  0  0  0
  185.4560  178.1090  146.8920 N   0  0  0  0  0  0  0  0  0  0  0  0
  187.3570  178.3810  138.3970 C   0  0  0  0  0  2  0  0  0  0  0  0
  189.0320  176.6200  138.5050 C   0  0  0  0  0  2  0  0  0  0  0  0
  187.6140  177.1500  147.1950 N   0  0  0  0  0  1  0  0  0  0  0  0
  185.8900  178.6180  142.8540 C   0  0  2  0  0  3  0  0  0  0  0  0
  184.4330  178.6220  146.1670 C   0  0  0  0  0  3  0  0  0  0  0  0
  186.8390  177.8520  144.9250 C   0  0  0  0  0  0  0  0  0  0  0  0
  187.0700  178.2330  142.1390 C   0  0  0  0  0  0  0  0  0  0  0  0
  184.8690  179.5710  139.6120 N   0  0  0  0  0  1  0  0  0  0  0  0
  186.8390  178.5030  140.8690 C   0  0  0  0  0  0  0  0  0  0  0  0
  188.0880  177.3510  137.5610 C   0  0  0  0  0  2  0  0  0  0  0  0
  190.7550  176.3500  140.7140 O   0  0  0  0  0  1  0  0  0  0  0  0
  184.5650  178.7770  144.7940 C   0  0  0  0  0  3  0  0  0  0  0  0
  185.7520  178.4000  144.1660 C   0  0  0  0  0  0  0  0  0  0  0  0
  189.7830  177.3550  140.7860 C   0  0  1  0  0  3  0  0  0  0  0  0
  191.6860  177.4330  145.3690 C   0  0  0  0  0  2  0  0  0  0  0  0
  192.1380  175.8010  146.9680 C   0  0  0  0  0  1  0  0  0  0  0  0
  191.3200  176.9680  146.6940 N   0  0  0  0  0  2  0  0  0  0  0  0
  1 19  1  0  0  0  0
  1  5  1  6  0  0  0
  2 13  1  0  0  0  0
  2 16  1  0  0  0  0
  4 20  1  6  0  0  0
  4  1  1  0  0  0  0
  6  8  2  0  0  0  0
  7 15  1  6  0  0  0
  7 27  1  0  0  0  0
  8 11  1  0  0  0  0
  9  7  1  0  0  0  0
  9 22  1  0  0  0  0
 10 22  1  0  0  0  0
 10  3  2  0  0  0  0
 11  5  2  0  0  0  0
 11 28  1  0  0  0  0
 12  4  1  0  0  0  0
 12  8  1  0  0  0  0
 14  9  1  0  0  0  0
 17  3  1  6  0  0  0
 17 26  1  0  0  0  0
 18 13  2  0  0  0  0
 19  2  2  0  0  0  0
 20 17  1  0  0  0  0
 21 10  1  0  0  0  0
 22 20  2  0  0  0  0
 23 14  1  0  0  0  0
 23 15  1  0  0  0  0
 25 18  1  0  0  0  0
 26 25  2  0  0  0  0
 26 19  1  0  0  0  0
 27 24  1  1  0  0  0
 27 12  1  0  0  0  0
 28 30  1  0  0  0  0
 30 29  1  0  0  0  0
M  END
>  <MODEL>
1

>  <REMARK>
 VINA RESULT:     -10.6      0.000      0.000
  Name = 
  2 active torsions:
  status: ('A' for Active; 'I' for Inactive)
    1  A    between atoms: C_11  and  C_28
    2  A    between atoms: C_28  and  N_30
                            x       y       z     vdW  Elec       q    Type
                         _______ _______ _______ _____ _____    ______ ____

>  <TORSDO>
F 2

$$$$
=
 OpenBabel11122410343D

 30 35  0  0  1  0  0  0  0  0999 V2000
  189.4090  176.9010  143.6150 C   0  0  1  0  0  3  0  0  0  0  0  0
  191.3300  176.0200  144.9010 C   0  0  0  0  0  0  0  0  0  0  0  0
  187.5820  178.2370  147.1730 N   0  0  0  0  0  0  0  0  0  0  0  0
  187.9180  177.2850  143.5630 C   0  0  2  0  0  3  0  0  0  0  0  0
  190.1490  176.8810  142.3390 C   0  0  0  0  0  3  0  0  0  0  0  0
  188.2720  179.2250  140.4640 O   0  0  0  0  0  0  0  0  0  0  0  0
  185.1130  177.9580  143.1320 C   0  0  1  0  0  3  0  0  0  0  0  0
  188.5020  178.3510  141.3450 C   0  0  0  0  0  0  0  0  0  0  0  0
  185.2820  178.7110  144.3610 N   0  0  0  0  0  0  0  0  0  0  0  0
  186.4930  178.7240  146.6650 C   0  0  2  0  0  3  0  0  0  0  0  0
  189.7340  177.5540  141.2740 C   0  0  0  0  0  0  0  0  0  0  0  0
  187.5360  178.0910  142.3810 N   0  0  0  0  0  0  0  0  0  0  0  0
  191.9180  175.8320  146.1120 N   0  0  0  0  0  0  0  0  0  0  0  0
  184.0730  179.3760  144.7980 C   0  0  0  0  0  2  0  0  0  0  0  0
  183.6920  178.2530  142.6740 C   0  0  0  0  0  2  0  0  0  0  0  0
  192.0060  175.5090  143.7540 N   0  0  0  0  0  1  0  0  0  0  0  0
  188.2880  177.7190  146.0470 C   0  0  0  0  0  0  0  0  0  0  0  0
  191.3460  176.2240  147.2740 C   0  0  0  0  0  3  0  0  0  0  0  0
  190.0460  176.6430  144.8130 C   0  0  0  0  0  0  0  0  0  0  0  0
  187.5470  177.9520  144.8430 C   0  0  0  0  0  0  0  0  0  0  0  0
  185.4770  179.3200  147.4640 N   0  0  0  0  0  1  0  0  0  0  0  0
  186.4220  178.5360  145.2060 C   0  0  0  0  0  0  0  0  0  0  0  0
  182.9880  178.9360  143.8370 C   0  0  0  0  0  2  0  0  0  0  0  0
  185.7810  177.8080  140.8420 O   0  0  0  0  0  1  0  0  0  0  0  0
  190.1050  176.8450  147.2620 C   0  0  0  0  0  3  0  0  0  0  0  0
  189.4500  177.0590  146.0500 C   0  0  0  0  0  0  0  0  0  0  0  0
  186.1230  178.4000  142.0630 C   0  0  1  0  0  3  0  0  0  0  0  0
  190.5780  177.5560  140.0440 C   0  0  0  0  0  2  0  0  0  0  0  0
  189.6020  176.3550  138.3030 C   0  0  0  0  0  1  0  0  0  0  0  0
  190.5310  176.2500  139.4120 N   0  0  0  0  0  2  0  0  0  0  0  0
  1  5  1  1  0  0  0
  1 19  1  0  0  0  0
  2 13  1  0  0  0  0
  4  1  1  0  0  0  0
  4 20  1  1  0  0  0
  6  8  2  0  0  0  0
  7 15  1  6  0  0  0
  7  9  1  0  0  0  0
  8 12  1  0  0  0  0
  9 14  1  0  0  0  0
  9 22  1  0  0  0  0
 10  3  1  0  0  0  0
 10 21  1  1  0  0  0
 11  8  1  0  0  0  0
 11  5  2  0  0  0  0
 12  4  1  0  0  0  0
 13 18  2  0  0  0  0
 15 23  1  0  0  0  0
 16  2  1  0  0  0  0
 17 26  1  0  0  0  0
 17  3  2  0  0  0  0
 19  2  2  0  0  0  0
 19 26  1  0  0  0  0
 20 22  2  0  0  0  0
 20 17  1  0  0  0  0
 22 10  1  0  0  0  0
 23 14  1  0  0  0  0
 25 18  1  0  0  0  0
 26 25  2  0  0  0  0
 27 24  1  6  0  0  0
 27 12  1  0  0  0  0
 27  7  1  0  0  0  0
 28 11  1  0  0  0  0
 29 30  1  0  0  0  0
 30 28  1  0  0  0  0
M  END
>  <MODEL>
2

>  <REMARK>
 VINA RESULT:      -9.8      1.947      5.447
  Name = 
  2 active torsions:
  status: ('A' for Active; 'I' for Inactive)
    1  A    between atoms: C_11  and  C_28
    2  A    between atoms: C_28  and  N_30
                            x       y       z     vdW  Elec       q    Type
                         _______ _______ _______ _____ _____    ______ ____

>  <TORSDO>
F 2

$$$$
=
 OpenBabel11122410343D

 30 35  0  0  1  0  0  0  0  0999 V2000
  185.2000  178.5870  143.2450 C   0  0  1  0  0  3  0  0  0  0  0  0
  184.6890  178.7370  145.6610 C   0  0  0  0  0  0  0  0  0  0  0  0
  188.9160  176.7840  144.0970 N   0  0  0  0  0  0  0  0  0  0  0  0
  186.2470  178.5190  142.1170 C   0  0  2  0  0  3  0  0  0  0  0  0
  183.7920  178.7810  142.8520 C   0  0  0  0  0  3  0  0  0  0  0  0
  183.8260  177.3790  139.6010 O   0  0  0  0  0  0  0  0  0  0  0  0
  187.9930  178.5230  139.7820 C   0  0  1  0  0  3  0  0  0  0  0  0
  184.2810  177.9460  140.6330 C   0  0  0  0  0  0  0  0  0  0  0  0
  188.6810  177.4710  140.5060 N   0  0  0  0  0  0  0  0  0  0  0  0
  189.3560  176.6550  142.8840 C   0  0  0  0  0  0  0  0  0  0  0  0
  183.3530  178.4850  141.6360 C   0  0  0  0  0  0  0  0  0  0  0  0
  185.7020  178.1200  140.8000 N   0  0  0  0  0  0  0  0  0  0  0  0
  185.0850  178.5030  146.9400 N   0  0  0  0  0  0  0  0  0  0  0  0
  189.8450  176.9610  139.8120 C   0  0  0  0  0  2  0  0  0  0  0  0
  188.7160  178.6280  138.4460 C   0  0  0  0  0  2  0  0  0  0  0  0
  183.4310  179.3780  145.4690 N   0  0  0  0  0  1  0  0  0  0  0  0
  187.6500  177.4200  143.9400 C   0  0  2  0  0  3  0  0  0  0  0  0
  186.2830  177.9510  147.2480 C   0  0  0  0  0  3  0  0  0  0  0  0
  185.5540  178.4120  144.5690 C   0  0  0  0  0  0  0  0  0  0  0  0
  187.3690  177.6390  142.5520 C   0  0  0  0  0  0  0  0  0  0  0  0
  190.6250  176.0850  142.5880 N   0  0  0  0  0  1  0  0  0  0  0  0
  188.4230  177.2090  141.8880 C   0  0  0  0  0  0  0  0  0  0  0  0
  190.0020  177.8250  138.5780 C   0  0  0  0  0  2  0  0  0  0  0  0
  185.9530  179.1070  138.6810 O   0  0  0  0  0  1  0  0  0  0  0  0
  187.1660  177.6010  146.2370 C   0  0  0  0  0  3  0  0  0  0  0  0
  186.8180  177.8240  144.9050 C   0  0  0  0  0  0  0  0  0  0  0  0
  186.5130  178.1750  139.5630 C   0  0  1  0  0  3  0  0  0  0  0  0
  181.8990  178.6270  141.3350 C   0  0  0  0  0  2  0  0  0  0  0  0
  180.0540  178.2750  142.7130 C   0  0  0  0  0  1  0  0  0  0  0  0
  181.2020  179.1370  142.5020 N   0  0  0  0  0  2  0  0  0  0  0  0
  1  5  1  6  0  0  0
  1 19  1  0  0  0  0
  2 13  1  0  0  0  0
  4 20  1  1  0  0  0
  4  1  1  0  0  0  0
  6  8  2  0  0  0  0
  7 15  1  6  0  0  0
  7  9  1  0  0  0  0
  8 12  1  0  0  0  0
  8 11  1  0  0  0  0
  9 22  1  0  0  0  0
 10  3  2  0  0  0  0
 11  5  2  0  0  0  0
 12  4  1  0  0  0  0
 13 18  2  0  0  0  0
 14  9  1  0  0  0  0
 15 23  1  0  0  0  0
 16  2  1  0  0  0  0
 17 20  1  1  0  0  0
 17  3  1  0  0  0  0
 17 26  1  0  0  0  0
 19 26  1  0  0  0  0
 19  2  2  0  0  0  0
 21 10  1  0  0  0  0
 22 20  2  0  0  0  0
 22 10  1  0  0  0  0
 23 14  1  0  0  0  0
 25 18  1  0  0  0  0
 26 25  2  0  0  0  0
 27 24  1  6  0  0  0
 27  7  1  0  0  0  0
 27 12  1  0  0  0  0
 28 11  1  0  0  0  0
 28 30  1  0  0  0  0
 30 29  1  0  0  0  0
M  END
>  <MODEL>
3

>  <REMARK>
 VINA RESULT:      -9.3      2.510      5.457
  Name = 
  2 active torsions:
  status: ('A' for Active; 'I' for Inactive)
    1  A    between atoms: C_11  and  C_28
    2  A    between atoms: C_28  and  N_30
                            x       y       z     vdW  Elec       q    Type
                         _______ _______ _______ _____ _____    ______ ____

>  <TORSDO>
F 2

$$$$
=
 OpenBabel11122410343D

 30 35  0  0  1  0  0  0  0  0999 V2000
  187.9550  178.0710  141.7710 C   0  0  1  0  0  3  0  0  0  0  0  0
  186.4950  178.6980  139.8740 C   0  0  0  0  0  0  0  0  0  0  0  0
  184.6980  178.3670  144.4340 N   0  0  0  0  0  0  0  0  0  0  0  0
  188.2570  178.1250  143.2800 C   0  0  2  0  0  3  0  0  0  0  0  0
  189.0010  177.5200  140.8890 C   0  0  0  0  0  3  0  0  0  0  0  0
  190.6840  175.3720  143.1450 O   0  0  0  0  0  0  0  0  0  0  0  0
  189.1510  178.1790  146.0560 C   0  0  1  0  0  3  0  0  0  0  0  0
  189.9910  176.3560  142.7680 C   0  0  0  0  0  0  0  0  0  0  0  0
  187.7810  177.7880  146.3270 N   0  0  0  0  0  0  0  0  0  0  0  0
  185.3180  178.0840  145.5370 C   0  0  2  0  0  3  0  0  0  0  0  0
  189.9550  176.7190  141.3450 C   0  0  0  0  0  0  0  0  0  0  0  0
  189.2850  177.1600  143.7330 N   0  0  0  0  0  0  0  0  0  0  0  0
  185.2560  179.0470  139.4390 N   0  0  0  0  0  0  0  0  0  0  0  0
  187.4930  177.6430  147.7380 C   0  0  0  0  0  2  0  0  0  0  0  0
  189.8420  178.1810  147.4120 C   0  0  0  0  0  2  0  0  0  0  0  0
  187.5430  178.6530  138.9080 N   0  0  0  0  0  1  0  0  0  0  0  0
  185.7210  178.3240  143.4410 C   0  0  0  0  0  0  0  0  0  0  0  0
  184.1960  179.1770  140.2720 C   0  0  0  0  0  3  0  0  0  0  0  0
  186.7310  178.4650  141.2650 C   0  0  0  0  0  0  0  0  0  0  0  0
  186.9790  177.9800  144.0340 C   0  0  0  0  0  0  0  0  0  0  0  0
  184.6590  178.0510  146.7970 N   0  0  0  0  0  1  0  0  0  0  0  0
  186.7600  177.8650  145.3290 C   0  0  0  0  0  0  0  0  0  0  0  0
  188.7480  178.0820  148.4630 C   0  0  0  0  0  2  0  0  0  0  0  0
  191.2050  177.4810  145.0510 O   0  0  0  0  0  1  0  0  0  0  0  0
  184.3510  178.9550  141.6320 C   0  0  0  0  0  3  0  0  0  0  0  0
  185.6010  178.6010  142.1390 C   0  0  0  0  0  0  0  0  0  0  0  0
  189.8380  177.1860  145.1060 C   0  0  1  0  0  3  0  0  0  0  0  0
  190.9300  176.1310  140.3810 C   0  0  0  0  0  2  0  0  0  0  0  0
  191.3690  176.4140  138.1100 C   0  0  0  0  0  1  0  0  0  0  0  0
  190.3320  176.0560  139.0600 N   0  0  0  0  0  2  0  0  0  0  0  0
  1  5  1  1  0  0  0
  1  4  1  0  0  0  0
  2 19  1  0  0  0  0
  3 10  1  0  0  0  0
  4 12  1  0  0  0  0
  4 20  1  1  0  0  0
  5 11  2  0  0  0  0
  7  9  1  0  0  0  0
  7 15  1  1  0  0  0
  8  6  2  0  0  0  0
  8 12  1  0  0  0  0
  9 14  1  0  0  0  0
 10 21  1  1  0  0  0
 11  8  1  0  0  0  0
 12 27  1  0  0  0  0
 13  2  2  0  0  0  0
 13 18  1  0  0  0  0
 14 23  1  0  0  0  0
 15 23  1  0  0  0  0
 16  2  1  0  0  0  0
 17 20  1  0  0  0  0
 17  3  2  0  0  0  0
 18 25  2  0  0  0  0
 19  1  1  0  0  0  0
 19 26  2  0  0  0  0
 20 22  2  0  0  0  0
 22 10  1  0  0  0  0
 22  9  1  0  0  0  0
 25 26  1  0  0  0  0
 26 17  1  0  0  0  0
 27 24  1  6  0  0  0
 27  7  1  0  0  0  0
 28 11  1  0  0  0  0
 29 30  1  0  0  0  0
 30 28  1  0  0  0  0
M  END
>  <MODEL>
4

>  <REMARK>
 VINA RESULT:      -9.2      1.716      5.690
  Name = 
  2 active torsions:
  status: ('A' for Active; 'I' for Inactive)
    1  A    between atoms: C_11  and  C_28
    2  A    between atoms: C_28  and  N_30
                            x       y       z     vdW  Elec       q    Type
                         _______ _______ _______ _____ _____    ______ ____

>  <TORSDO>
F 2

$$$$
=
 OpenBabel11122410343D

 30 35  0  0  1  0  0  0  0  0999 V2000
  187.1480  178.3520  140.5030 C   0  0  1  0  0  3  0  0  0  0  0  0
  184.8500  178.9540  139.8140 C   0  0  0  0  0  0  0  0  0  0  0  0
  185.8510  177.7590  144.4720 N   0  0  0  0  0  0  0  0  0  0  0  0
  188.2170  178.2690  141.6100 C   0  0  2  0  0  3  0  0  0  0  0  0
  187.5860  178.1010  139.1180 C   0  0  0  0  0  3  0  0  0  0  0  0
  190.3820  176.0070  139.6910 O   0  0  0  0  0  0  0  0  0  0  0  0
  190.4690  178.1290  143.4580 C   0  0  1  0  0  3  0  0  0  0  0  0
  189.5230  176.8980  139.9330 C   0  0  0  0  0  0  0  0  0  0  0  0
  189.5010  177.4810  144.3210 N   0  0  0  0  0  0  0  0  0  0  0  0
  186.9900  177.4510  145.0090 C   0  0  2  0  0  3  0  0  0  0  0  0
  188.6930  177.4230  138.8410 C   0  0  0  0  0  0  0  0  0  0  0  0
  189.3960  177.4450  141.2600 N   0  0  0  0  0  0  0  0  0  0  0  0
  183.5510  179.1380  140.1680 N   0  0  0  0  0  0  0  0  0  0  0  0
  190.0380  177.1150  145.6150 C   0  0  0  0  0  2  0  0  0  0  0  0
  191.7840  178.0800  144.2230 C   0  0  0  0  0  2  0  0  0  0  0  0
  185.2040  179.2060  138.4560 N   0  0  0  0  0  1  0  0  0  0  0  0
  186.1690  178.0140  143.1050 C   0  0  0  0  0  0  0  0  0  0  0  0
  183.1070  178.9820  141.4380 C   0  0  0  0  0  3  0  0  0  0  0  0
  185.8200  178.5930  140.8000 C   0  0  0  0  0  0  0  0  0  0  0  0
  187.5690  177.8170  142.8740 C   0  0  0  0  0  0  0  0  0  0  0  0
  187.1260  177.1500  146.3920 N   0  0  0  0  0  1  0  0  0  0  0  0
  188.0990  177.5070  144.0410 C   0  0  0  0  0  0  0  0  0  0  0  0
  191.4480  177.6680  145.6480 C   0  0  0  0  0  2  0  0  0  0  0  0
  191.6930  177.9210  141.4150 O   0  0  0  0  0  1  0  0  0  0  0  0
  183.9930  178.6230  142.4430 C   0  0  0  0  0  3  0  0  0  0  0  0
  185.3410  178.4260  142.1410 C   0  0  0  0  0  0  0  0  0  0  0  0
  190.6030  177.3930  142.1160 C   0  0  1  0  0  3  0  0  0  0  0  0
  189.0280  177.1340  137.4170 C   0  0  0  0  0  2  0  0  0  0  0  0
  188.0720  175.0800  136.8730 C   0  0  0  0  0  1  0  0  0  0  0  0
  187.8910  176.5150  136.7590 N   0  0  0  0  0  2  0  0  0  0  0  0
  1  5  1  1  0  0  0
  1 19  1  0  0  0  0
  1  4  1  0  0  0  0
  2 13  2  0  0  0  0
  2 19  1  0  0  0  0
  3 10  1  0  0  0  0
  4 20  1  1  0  0  0
  6  8  2  0  0  0  0
  7 15  1  1  0  0  0
  7  9  1  0  0  0  0
  8 12  1  0  0  0  0
  9 14  1  0  0  0  0
 10 21  1  1  0  0  0
 11  5  2  0  0  0  0
 11  8  1  0  0  0  0
 12  4  1  0  0  0  0
 12 27  1  0  0  0  0
 13 18  1  0  0  0  0
 14 23  1  0  0  0  0
 15 23  1  0  0  0  0
 16  2  1  0  0  0  0
 17  3  2  0  0  0  0
 18 25  2  0  0  0  0
 19 26  2  0  0  0  0
 20 17  1  0  0  0  0
 20 22  2  0  0  0  0
 22  9  1  0  0  0  0
 22 10  1  0  0  0  0
 26 25  1  0  0  0  0
 26 17  1  0  0  0  0
 27 24  1  6  0  0  0
 27  7  1  0  0  0  0
 28 11  1  0  0  0  0
 30 29  1  0  0  0  0
 30 28  1  0  0  0  0
M  END
>  <MODEL>
5

>  <REMARK>
 VINA RESULT:      -9.1      1.467      5.740
  Name = 
  2 active torsions:
  status: ('A' for Active; 'I' for Inactive)
    1  A    between atoms: C_11  and  C_28
    2  A    between atoms: C_28  and  N_30
                            x       y       z     vdW  Elec       q    Type
                         _______ _______ _______ _____ _____    ______ ____

>  <TORSDO>
F 2

$$$$
=
 OpenBabel11122410343D

 30 35  0  0  1  0  0  0  0  0999 V2000
  186.1090  178.1410  142.4950 C   0  0  1  0  0  3  0  0  0  0  0  0
  185.6710  178.2890  140.0650 C   0  0  0  0  0  0  0  0  0  0  0  0
  190.2670  178.1750  141.7930 N   0  0  0  0  0  0  0  0  0  0  0  0
  187.0410  177.7190  143.6470 C   0  0  2  0  0  3  0  0  0  0  0  0
  184.7420  178.5670  142.8510 C   0  0  0  0  0  3  0  0  0  0  0  0
  185.2640  179.7320  146.1530 O   0  0  0  0  0  0  0  0  0  0  0  0
  188.5290  176.8990  146.0180 C   0  0  1  0  0  3  0  0  0  0  0  0
  185.4660  179.0500  145.1110 C   0  0  0  0  0  0  0  0  0  0  0  0
  189.6290  177.5660  145.3490 N   0  0  0  0  0  0  0  0  0  0  0  0
  190.6760  178.0690  143.0190 C   0  0  2  0  0  3  0  0  0  0  0  0
  184.4320  178.9930  144.0680 C   0  0  0  0  0  0  0  0  0  0  0  0
  186.6750  178.2810  144.9670 N   0  0  0  0  0  0  0  0  0  0  0  0
  186.1750  178.3600  138.8050 N   0  0  0  0  0  0  0  0  0  0  0  0
  190.8740  177.5030  146.0870 C   0  0  0  0  0  2  0  0  0  0  0  0
  189.0870  176.4570  147.3630 C   0  0  0  0  0  2  0  0  0  0  0  0
  184.2530  178.2530  140.2060 N   0  0  0  0  0  1  0  0  0  0  0  0
  188.8460  178.1470  141.8980 C   0  0  0  0  0  0  0  0  0  0  0  0
  187.5030  178.3460  138.5440 C   0  0  0  0  0  3  0  0  0  0  0  0
  186.5510  178.1790  141.1870 C   0  0  0  0  0  0  0  0  0  0  0  0
  188.4480  178.0360  143.2700 C   0  0  0  0  0  0  0  0  0  0  0  0
  192.0560  178.0240  143.3640 N   0  0  0  0  0  1  0  0  0  0  0  0
  189.5600  177.9490  143.9730 C   0  0  0  0  0  0  0  0  0  0  0  0
  190.5970  176.6250  147.2900 C   0  0  0  0  0  2  0  0  0  0  0  0
  186.3990  177.2300  147.0510 O   0  0  0  0  0  1  0  0  0  0  0  0
  188.4140  178.2510  139.5860 C   0  0  0  0  0  3  0  0  0  0  0  0
  187.9560  178.1680  140.9010 C   0  0  0  0  0  0  0  0  0  0  0  0
  187.3380  177.8480  146.2180 C   0  0  1  0  0  3  0  0  0  0  0  0
  183.0500  179.4880  144.3320 C   0  0  0  0  0  2  0  0  0  0  0  0
  180.9090  178.6430  143.9690 C   0  0  0  0  0  1  0  0  0  0  0  0
  182.1480  179.0020  143.3030 N   0  0  0  0  0  2  0  0  0  0  0  0
  1  5  1  1  0  0  0
  1  4  1  0  0  0  0
  2 16  1  0  0  0  0
  2 19  1  0  0  0  0
  3 17  2  0  0  0  0
  3 10  1  0  0  0  0
  4 20  1  6  0  0  0
  4 12  1  0  0  0  0
  5 11  2  0  0  0  0
  7 27  1  0  0  0  0
  7 15  1  1  0  0  0
  8  6  2  0  0  0  0
  9  7  1  0  0  0  0
  9 14  1  0  0  0  0
 10 21  1  6  0  0  0
 10 22  1  0  0  0  0
 11 28  1  0  0  0  0
 11  8  1  0  0  0  0
 12  8  1  0  0  0  0
 12 27  1  0  0  0  0
 13  2  2  0  0  0  0
 14 23  1  0  0  0  0
 17 20  1  0  0  0  0
 18 13  1  0  0  0  0
 18 25  2  0  0  0  0
 19  1  1  0  0  0  0
 20 22  2  0  0  0  0
 22  9  1  0  0  0  0
 23 15  1  0  0  0  0
 25 26  1  0  0  0  0
 26 19  2  0  0  0  0
 26 17  1  0  0  0  0
 27 24  1  1  0  0  0
 30 29  1  0  0  0  0
 30 28  1  0  0  0  0
M  END
>  <MODEL>
6

>  <REMARK>
 VINA RESULT:      -8.5      2.463      6.805
  Name = 
  2 active torsions:
  status: ('A' for Active; 'I' for Inactive)
    1  A    between atoms: C_11  and  C_28
    2  A    between atoms: C_28  and  N_30
                            x       y       z     vdW  Elec       q    Type
                         _______ _______ _______ _____ _____    ______ ____

>  <TORSDO>
F 2

$$$$
=
 OpenBabel11122410343D

 30 35  0  0  1  0  0  0  0  0999 V2000
  188.9080  177.2920  139.9480 C   0  0  1  0  0  3  0  0  0  0  0  0
  190.5350  176.8170  138.1460 C   0  0  0  0  0  0  0  0  0  0  0  0
  192.0460  177.6890  142.7370 N   0  0  0  0  0  0  0  0  0  0  0  0
  188.5520  177.2690  141.4470 C   0  0  2  0  0  3  0  0  0  0  0  0
  187.8250  177.6110  138.9990 C   0  0  0  0  0  3  0  0  0  0  0  0
  185.7110  179.5640  141.0600 O   0  0  0  0  0  0  0  0  0  0  0  0
  187.5550  177.2150  144.1870 C   0  0  1  0  0  3  0  0  0  0  0  0
  186.5740  178.6920  140.7680 C   0  0  0  0  0  0  0  0  0  0  0  0
  188.8280  177.8440  144.4820 N   0  0  0  0  0  0  0  0  0  0  0  0
  191.3390  177.9230  143.7990 C   0  0  2  0  0  3  0  0  0  0  0  0
  186.7320  178.2640  139.3720 C   0  0  0  0  0  0  0  0  0  0  0  0
  187.3590  178.0700  141.8040 N   0  0  0  0  0  0  0  0  0  0  0  0
  191.8330  176.6590  137.7760 N   0  0  0  0  0  0  0  0  0  0  0  0
  189.0260  178.1100  145.8920 C   0  0  0  0  0  2  0  0  0  0  0  0
  186.8140  177.1700  145.5160 C   0  0  0  0  0  2  0  0  0  0  0  0
  189.5380  176.6350  137.1430 N   0  0  0  0  0  1  0  0  0  0  0  0
  191.0760  177.5070  141.7080 C   0  0  0  0  0  0  0  0  0  0  0  0
  192.8620  176.7530  138.6520 C   0  0  0  0  0  3  0  0  0  0  0  0
  190.2020  177.0820  139.5110 C   0  0  0  0  0  0  0  0  0  0  0  0
  189.7530  177.6670  142.2350 C   0  0  0  0  0  0  0  0  0  0  0  0
  191.9270  178.1340  145.0770 N   0  0  0  0  0  1  0  0  0  0  0  0
  189.8920  177.8860  143.5270 C   0  0  0  0  0  0  0  0  0  0  0  0
  187.8290  177.5060  146.5980 C   0  0  0  0  0  2  0  0  0  0  0  0
  185.4610  177.5030  143.0700 O   0  0  0  0  0  1  0  0  0  0  0  0
  192.6110  177.0180  139.9900 C   0  0  0  0  0  3  0  0  0  0  0  0
  191.2980  177.1840  140.4300 C   0  0  0  0  0  0  0  0  0  0  0  0
  186.7570  178.0260  143.1560 C   0  0  1  0  0  3  0  0  0  0  0  0
  185.7180  178.6280  138.3400 C   0  0  0  0  0  2  0  0  0  0  0  0
  184.7740  177.0870  136.8690 C   0  0  0  0  0  1  0  0  0  0  0  0
  185.9650  177.8780  137.1210 N   0  0  0  0  0  2  0  0  0  0  0  0
  1  5  1  1  0  0  0
  1  4  1  0  0  0  0
  2 19  1  0  0  0  0
  3 10  1  0  0  0  0
  4 12  1  0  0  0  0
  4 20  1  1  0  0  0
  5 11  2  0  0  0  0
  7  9  1  0  0  0  0
  7 15  1  1  0  0  0
  8  6  2  0  0  0  0
  8 12  1  0  0  0  0
  9 14  1  0  0  0  0
 10 21  1  1  0  0  0
 11  8  1  0  0  0  0
 12 27  1  0  0  0  0
 13  2  2  0  0  0  0
 13 18  1  0  0  0  0
 14 23  1  0  0  0  0
 15 23  1  0  0  0  0
 16  2  1  0  0  0  0
 17 20  1  0  0  0  0
 17  3  2  0  0  0  0
 18 25  2  0  0  0  0
 19  1  1  0  0  0  0
 19 26  2  0  0  0  0
 20 22  2  0  0  0  0
 22 10  1  0  0  0  0
 22  9  1  0  0  0  0
 25 26  1  0  0  0  0
 26 17  1  0  0  0  0
 27 24  1  6  0  0  0
 27  7  1  0  0  0  0
 28 11  1  0  0  0  0
 29 30  1  0  0  0  0
 30 28  1  0  0  0  0
M  END
>  <MODEL>
7

>  <REMARK>
 VINA RESULT:      -8.4      2.560      7.479
  Name = 
  2 active torsions:
  status: ('A' for Active; 'I' for Inactive)
    1  A    between atoms: C_11  and  C_28
    2  A    between atoms: C_28  and  N_30
                            x       y       z     vdW  Elec       q    Type
                         _______ _______ _______ _____ _____    ______ ____

>  <TORSDO>
F 2

$$$$
=
 OpenBabel11122410343D

 30 35  0  0  1  0  0  0  0  0999 V2000
  185.6410  178.0270  142.6010 C   0  0  1  0  0  3  0  0  0  0  0  0
  186.7600  178.0890  144.8070 C   0  0  0  0  0  0  0  0  0  0  0  0
  182.0070  179.2430  144.3600 N   0  0  0  0  0  0  0  0  0  0  0  0
  184.3490  177.8640  141.7790 C   0  0  2  0  0  3  0  0  0  0  0  0
  186.9180  178.0440  141.8620 C   0  0  0  0  0  3  0  0  0  0  0  0
  185.8290  179.2490  138.7160 O   0  0  0  0  0  0  0  0  0  0  0  0
  182.1000  177.4530  139.9690 C   0  0  1  0  0  3  0  0  0  0  0  0
  185.7510  178.6710  139.8350 C   0  0  0  0  0  0  0  0  0  0  0  0
  181.4470  178.4160  140.8350 N   0  0  0  0  0  0  0  0  0  0  0  0
  181.2610  179.2350  143.2990 C   0  0  0  0  0  0  0  0  0  0  0  0
  186.9790  178.3440  140.5710 C   0  0  0  0  0  0  0  0  0  0  0  0
  184.4700  178.2760  140.3620 N   0  0  0  0  0  0  0  0  0  0  0  0
  186.6640  178.3230  146.1420 N   0  0  0  0  0  0  0  0  0  0  0  0
  180.0760  178.6920  140.4590 C   0  0  0  0  0  2  0  0  0  0  0  0
  181.0930  177.1620  138.8650 C   0  0  0  0  0  2  0  0  0  0  0  0
  188.0210  177.6530  144.3040 N   0  0  0  0  0  1  0  0  0  0  0  0
  183.2830  178.8140  143.8900 C   0  0  2  0  0  3  0  0  0  0  0  0
  185.5070  178.6880  146.7420 C   0  0  0  0  0  3  0  0  0  0  0  0
  185.6070  178.2110  143.9700 C   0  0  0  0  0  0  0  0  0  0  0  0
  183.2390  178.5710  142.4790 C   0  0  0  0  0  0  0  0  0  0  0  0
  179.8800  179.5740  143.3340 N   0  0  0  0  0  1  0  0  0  0  0  0
  181.9940  178.7880  142.1030 C   0  0  0  0  0  0  0  0  0  0  0  0
  179.7640  177.7500  139.3140 C   0  0  0  0  0  2  0  0  0  0  0  0
  183.8670  177.1520  138.3870 O   0  0  0  0  0  1  0  0  0  0  0  0
  184.3510  178.8350  145.9880 C   0  0  0  0  0  3  0  0  0  0  0  0
  184.3860  178.6020  144.6140 C   0  0  0  0  0  0  0  0  0  0  0  0
  183.3960  178.0250  139.3750 C   0  0  1  0  0  3  0  0  0  0  0  0
  188.3140  178.4250  139.9090 C   0  0  0  0  0  2  0  0  0  0  0  0
  190.2710  177.1670  139.7810 C   0  0  0  0  0  1  0  0  0  0  0  0
  189.3030  177.7240  140.7080 N   0  0  0  0  0  2  0  0  0  0  0  0
  1  5  1  6  0  0  0
  1 19  1  0  0  0  0
  2 13  1  0  0  0  0
  4 20  1  1  0  0  0
  4  1  1  0  0  0  0
  6  8  2  0  0  0  0
  7 15  1  6  0  0  0
  7  9  1  0  0  0  0
  8 12  1  0  0  0  0
  8 11  1  0  0  0  0
  9 22  1  0  0  0  0
 10 21  1  0  0  0  0
 10  3  2  0  0  0  0
 11  5  2  0  0  0  0
 12  4  1  0  0  0  0
 13 18  2  0  0  0  0
 14  9  1  0  0  0  0
 15 23  1  0  0  0  0
 16  2  1  0  0  0  0
 17 20  1  1  0  0  0
 17  3  1  0  0  0  0
 17 26  1  0  0  0  0
 19 26  1  0  0  0  0
 19  2  2  0  0  0  0
 22 20  2  0  0  0  0
 22 10  1  0  0  0  0
 23 14  1  0  0  0  0
 25 18  1  0  0  0  0
 26 25  2  0  0  0  0
 27 24  1  6  0  0  0
 27  7  1  0  0  0  0
 27 12  1  0  0  0  0
 28 11  1  0  0  0  0
 28 30  1  0  0  0  0
 29 30  1  0  0  0  0
M  END
>  <MODEL>
8

>  <REMARK>
 VINA RESULT:      -8.1      3.287      5.292
  Name = 
  2 active torsions:
  status: ('A' for Active; 'I' for Inactive)
    1  A    between atoms: C_11  and  C_28
    2  A    between atoms: C_28  and  N_30
                            x       y       z     vdW  Elec       q    Type
                         _______ _______ _______ _____ _____    ______ ____

>  <TORSDO>
F 2

$$$$
=
 OpenBabel11122410343D

 30 35  0  0  1  0  0  0  0  0999 V2000
  188.0240  178.0800  140.4600 C   0  0  1  0  0  3  0  0  0  0  0  0
  189.0770  178.1380  138.2230 C   0  0  0  0  0  0  0  0  0  0  0  0
  184.2030  178.4880  138.7220 N   0  0  0  0  0  0  0  0  0  0  0  0
  186.8490  178.4670  141.3780 C   0  0  2  0  0  3  0  0  0  0  0  0
  189.2210  177.5010  141.0990 C   0  0  0  0  0  3  0  0  0  0  0  0
  187.7790  176.0630  143.9950 O   0  0  0  0  0  0  0  0  0  0  0  0
  184.8410  179.1750  143.3720 C   0  0  1  0  0  3  0  0  0  0  0  0
  187.9000  176.8600  143.0250 C   0  0  0  0  0  0  0  0  0  0  0  0
  183.9180  178.6790  142.3700 N   0  0  0  0  0  0  0  0  0  0  0  0
  183.4930  178.5070  139.8070 C   0  0  2  0  0  3  0  0  0  0  0  0
  189.1730  176.9290  142.2950 C   0  0  0  0  0  0  0  0  0  0  0  0
  186.8190  177.7450  142.6710 N   0  0  0  0  0  0  0  0  0  0  0  0
  188.9200  178.2370  136.8760 N   0  0  0  0  0  0  0  0  0  0  0  0
  182.5290  178.7790  142.7670 C   0  0  0  0  0  2  0  0  0  0  0  0
  183.9760  179.5290  144.5730 C   0  0  0  0  0  2  0  0  0  0  0  0
  190.4080  178.0330  138.7240 N   0  0  0  0  0  1  0  0  0  0  0  0
  185.5460  178.3780  139.1890 C   0  0  0  0  0  0  0  0  0  0  0  0
  187.7110  178.3970  136.2890 C   0  0  0  0  0  3  0  0  0  0  0  0
  187.9410  178.2130  139.0880 C   0  0  0  0  0  0  0  0  0  0  0  0
  185.5740  178.3150  140.6200 C   0  0  0  0  0  0  0  0  0  0  0  0
  182.0770  178.6400  139.7910 N   0  0  0  0  0  1  0  0  0  0  0  0
  184.3240  178.4310  141.0210 C   0  0  0  0  0  0  0  0  0  0  0  0
  182.5310  179.5040  144.0970 C   0  0  0  0  0  2  0  0  0  0  0  0
  186.6000  178.5530  144.8670 O   0  0  0  0  0  1  0  0  0  0  0  0
  186.5650  178.4670  137.0680 C   0  0  0  0  0  3  0  0  0  0  0  0
  186.6640  178.3770  138.4560 C   0  0  0  0  0  0  0  0  0  0  0  0
  185.8780  178.1080  143.7540 C   0  0  1  0  0  3  0  0  0  0  0  0
  190.4040  176.2890  142.8420 C   0  0  0  0  0  2  0  0  0  0  0  0
  191.5240  177.9330  144.0540 C   0  0  0  0  0  1  0  0  0  0  0  0
  191.5120  177.2260  142.7870 N   0  0  0  0  0  2  0  0  0  0  0  0
  1  5  1  6  0  0  0
  1  4  1  0  0  0  0
  2 16  1  0  0  0  0
  2 19  1  0  0  0  0
  3 17  2  0  0  0  0
  3 10  1  0  0  0  0
  4 20  1  6  0  0  0
  4 12  1  0  0  0  0
  5 11  2  0  0  0  0
  7 27  1  0  0  0  0
  7 15  1  1  0  0  0
  8  6  2  0  0  0  0
  9 14  1  0  0  0  0
  9  7  1  0  0  0  0
 10 21  1  1  0  0  0
 10 22  1  0  0  0  0
 11 28  1  0  0  0  0
 11  8  1  0  0  0  0
 12  8  1  0  0  0  0
 12 27  1  0  0  0  0
 13  2  2  0  0  0  0
 14 23  1  0  0  0  0
 17 20  1  0  0  0  0
 18 13  1  0  0  0  0
 18 25  2  0  0  0  0
 19  1  1  0  0  0  0
 20 22  2  0  0  0  0
 22  9  1  0  0  0  0
 23 15  1  0  0  0  0
 25 26  1  0  0  0  0
 26 19  2  0  0  0  0
 26 17  1  0  0  0  0
 27 24  1  1  0  0  0
 30 28  1  0  0  0  0
 30 29  1  0  0  0  0
M  END
>  <MODEL>
9

>  <REMARK>
 VINA RESULT:      -7.9      2.364      5.719
  Name = 
  2 active torsions:
  status: ('A' for Active; 'I' for Inactive)
    1  A    between atoms: C_11  and  C_28
    2  A    between atoms: C_28  and  N_30
                            x       y       z     vdW  Elec       q    Type
                         _______ _______ _______ _____ _____    ______ ____

>  <TORSDO>
F 2

$$$$
