=
 OpenBabel11122411033D

 31 35  0  0  1  0  0  0  0  0999 V2000
  190.2870  177.1270  145.8430 C   0  0  0  0  0  0  0  0  0  0  0  0
  187.6180  177.3590  143.0920 C   0  0  2  0  0  3  0  0  0  0  0  0
  186.4740  178.0620  143.7990 C   0  0  0  0  0  0  0  0  0  0  0  0
  191.2360  176.6790  139.1690 O   0  0  0  0  0  0  0  0  0  0  0  0
  190.1480  177.0700  138.6690 C   0  0  0  0  0  0  0  0  0  0  0  0
  185.0690  178.3860  145.7590 C   0  0  0  0  0  0  0  0  0  0  0  0
  188.9590  177.3020  143.8100 C   0  0  0  0  0  0  0  0  0  0  0  0
  191.4410  176.9350  145.0830 C   0  0  0  0  0  3  0  0  0  0  0  0
  186.1830  177.8060  145.1470 C   0  0  0  0  0  3  0  0  0  0  0  0
  189.0190  177.3970  140.9400 C   0  0  0  0  0  0  0  0  0  0  0  0
  190.3600  177.1350  147.1960 F   0  0  0  0  0  0  0  0  0  0  0  0
  185.7970  179.0470  141.6890 O   0  0  0  0  0  0  0  0  0  0  0  0
  184.7420  178.0780  147.4500 Cl  0  0  0  0  0  0  0  0  0  0  0  0
  190.0850  177.0760  141.6150 N   0  0  0  0  0  0  0  0  0  0  0  0
  187.7990  177.8060  141.6550 C   0  0  0  0  0  0  0  0  0  0  0  0
  189.0390  177.4230  139.5070 N   0  0  0  0  0  2  0  0  0  0  0  0
  189.0530  177.2930  145.2100 C   0  0  0  0  0  3  0  0  0  0  0  0
  184.2110  179.2020  145.0180 C   0  0  0  0  0  3  0  0  0  0  0  0
  190.1340  177.0910  143.0490 C   0  0  0  0  0  0  0  0  0  0  0  0
  191.3630  176.9140  143.6900 C   0  0  0  0  0  3  0  0  0  0  0  0
  186.9180  178.5480  141.0530 N   0  0  0  0  0  0  0  0  0  0  0  0
  185.5800  178.8490  143.0520 C   0  0  0  0  0  0  0  0  0  0  0  0
  184.4640  179.4270  143.6640 C   0  0  0  0  0  3  0  0  0  0  0  0
  187.2190  177.1160  136.2680 C   0  0  1  0  0  3  0  0  0  0  0  0
  189.2970  178.4420  136.7420 C   0  0  0  0  0  2  0  0  0  0  0  0
  190.0250  174.7560  136.9700 O   0  0  0  0  0  1  0  0  0  0  0  0
  185.7310  177.0280  136.5340 C   0  0  0  0  0  1  0  0  0  0  0  0
  187.7900  178.3370  136.9820 C   0  0  0  0  0  2  0  0  0  0  0  0
  189.4030  175.9220  136.5210 C   0  0  2  0  0  3  0  0  0  0  0  0
  190.0270  177.1660  137.1760 C   0  0  2  0  0  3  0  0  0  0  0  0
  187.8970  175.8440  136.7660 C   0  0  0  0  0  2  0  0  0  0  0  0
  1 11  1  0  0  0  0
  2 15  1  6  0  0  0
  2  3  1  0  0  0  0
  2  7  1  0  0  0  0
  3  9  1  0  0  0  0
  5  4  2  0  0  0  0
  5 16  1  0  0  0  0
  6 13  1  0  0  0  0
  7 17  2  0  0  0  0
  8  1  2  0  0  0  0
  9  6  2  0  0  0  0
 10 14  2  0  0  0  0
 10 15  1  0  0  0  0
 12 22  1  0  0  0  0
 14 19  1  0  0  0  0
 16 10  1  0  0  0  0
 17  1  1  0  0  0  0
 18  6  1  0  0  0  0
 19 20  2  0  0  0  0
 19  7  1  0  0  0  0
 20  8  1  0  0  0  0
 21 15  2  0  0  0  0
 21 12  1  0  0  0  0
 22 23  1  0  0  0  0
 22  3  2  0  0  0  0
 23 18  2  0  0  0  0
 24 27  1  1  0  0  0
 24 31  1  0  0  0  0
 24 28  1  0  0  0  0
 25 28  1  0  0  0  0
 25 30  1  0  0  0  0
 29 31  1  0  0  0  0
 29 26  1  1  0  0  0
 29 30  1  0  0  0  0
 30  5  1  1  0  0  0
M  END
>  <MODEL>
1

>  <REMARK>
 VINA RESULT:     -11.2      0.000      0.000
  Name = 
  1 active torsions:
  status: ('A' for Active; 'I' for Inactive)
    1  A    between atoms: C_5  and  C_30
                            x       y       z     vdW  Elec       q    Type
                         _______ _______ _______ _____ _____    ______ ____

>  <TORSDO>
F 1

$$$$
=
 OpenBabel11122411033D

 31 35  0  0  1  0  0  0  0  0999 V2000
  184.6710  178.5170  145.2970 C   0  0  0  0  0  0  0  0  0  0  0  0
  187.9700  178.3370  143.3410 C   0  0  2  0  0  3  0  0  0  0  0  0
  188.9110  177.6850  144.3390 C   0  0  0  0  0  0  0  0  0  0  0  0
  185.4840  178.8300  138.5970 O   0  0  0  0  0  0  0  0  0  0  0  0
  186.6760  178.4700  138.4070 C   0  0  0  0  0  0  0  0  0  0  0  0
  189.7650  177.4400  146.6050 C   0  0  0  0  0  0  0  0  0  0  0  0
  186.4870  178.3580  143.6840 C   0  0  0  0  0  0  0  0  0  0  0  0
  183.7490  178.6570  144.2580 C   0  0  0  0  0  3  0  0  0  0  0  0
  188.8320  177.9720  145.7100 C   0  0  0  0  0  3  0  0  0  0  0  0
  187.1820  178.2170  140.9000 C   0  0  0  0  0  0  0  0  0  0  0  0
  184.2470  178.5270  146.5830 F   0  0  0  0  0  0  0  0  0  0  0  0
  190.1440  176.6930  142.5020 O   0  0  0  0  0  0  0  0  0  0  0  0
  189.6290  177.7860  148.3150 Cl  0  0  0  0  0  0  0  0  0  0  0  0
  185.9680  178.5110  141.2670 N   0  0  0  0  0  0  0  0  0  0  0  0
  188.1850  177.8620  141.9180 C   0  0  0  0  0  0  0  0  0  0  0  0
  187.5380  178.1690  139.5130 N   0  0  0  0  0  2  0  0  0  0  0  0
  186.0310  178.3850  145.0110 C   0  0  0  0  0  3  0  0  0  0  0  0
  190.8100  176.6440  146.1320 C   0  0  0  0  0  3  0  0  0  0  0  0
  185.5470  178.5160  142.6390 C   0  0  0  0  0  0  0  0  0  0  0  0
  184.1880  178.6590  142.9330 C   0  0  0  0  0  3  0  0  0  0  0  0
  189.2140  177.1420  141.5840 N   0  0  0  0  0  0  0  0  0  0  0  0
  189.9910  176.9180  143.8690 C   0  0  0  0  0  0  0  0  0  0  0  0
  190.9260  176.3890  144.7650 C   0  0  0  0  0  3  0  0  0  0  0  0
  189.2680  176.2820  136.7210 C   0  0  1  0  0  3  0  0  0  0  0  0
  186.8800  176.9820  136.3910 C   0  0  0  0  0  2  0  0  0  0  0  0
  188.9630  179.9280  137.4610 O   0  0  0  0  0  1  0  0  0  0  0  0
  190.1640  175.2040  137.2940 C   0  0  0  0  0  1  0  0  0  0  0  0
  187.8080  175.9010  136.9480 C   0  0  0  0  0  2  0  0  0  0  0  0
  188.6740  178.7090  136.8460 C   0  0  2  0  0  3  0  0  0  0  0  0
  187.1850  178.3550  136.9990 C   0  0  2  0  0  3  0  0  0  0  0  0
  189.5810  177.6120  137.3990 C   0  0  0  0  0  2  0  0  0  0  0  0
  1 11  1  0  0  0  0
  2 15  1  6  0  0  0
  2  7  1  0  0  0  0
  2  3  1  0  0  0  0
  3  9  1  0  0  0  0
  5  4  2  0  0  0  0
  5 16  1  0  0  0  0
  6 13  1  0  0  0  0
  7 17  2  0  0  0  0
  8  1  2  0  0  0  0
  9  6  2  0  0  0  0
 10 14  2  0  0  0  0
 10 15  1  0  0  0  0
 12 22  1  0  0  0  0
 14 19  1  0  0  0  0
 16 10  1  0  0  0  0
 17  1  1  0  0  0  0
 18  6  1  0  0  0  0
 19 20  2  0  0  0  0
 19  7  1  0  0  0  0
 20  8  1  0  0  0  0
 21 15  2  0  0  0  0
 21 12  1  0  0  0  0
 22  3  2  0  0  0  0
 22 23  1  0  0  0  0
 23 18  2  0  0  0  0
 24 28  1  0  0  0  0
 24 27  1  1  0  0  0
 24 31  1  0  0  0  0
 25 28  1  0  0  0  0
 25 30  1  0  0  0  0
 29 30  1  0  0  0  0
 29 31  1  0  0  0  0
 29 26  1  1  0  0  0
 30  5  1  1  0  0  0
M  END
>  <MODEL>
2

>  <REMARK>
 VINA RESULT:     -11.1      2.090      4.504
  Name = 
  1 active torsions:
  status: ('A' for Active; 'I' for Inactive)
    1  A    between atoms: C_5  and  C_30
                            x       y       z     vdW  Elec       q    Type
                         _______ _______ _______ _____ _____    ______ ____

>  <TORSDO>
F 1

$$$$
=
 OpenBabel11122411033D

 31 35  0  0  1  0  0  0  0  0999 V2000
  184.6240  178.4640  144.6820 C   0  0  0  0  0  0  0  0  0  0  0  0
  188.3620  178.2140  143.8410 C   0  0  2  0  0  3  0  0  0  0  0  0
  188.9540  177.6650  145.1260 C   0  0  0  0  0  0  0  0  0  0  0  0
  187.4370  178.2750  138.5420 O   0  0  0  0  0  0  0  0  0  0  0  0
  188.6300  177.9310  138.7530 C   0  0  0  0  0  0  0  0  0  0  0  0
  189.0790  177.6190  147.5560 C   0  0  0  0  0  0  0  0  0  0  0  0
  186.8450  178.2250  143.7150 C   0  0  0  0  0  0  0  0  0  0  0  0
  184.0620  178.5000  143.4050 C   0  0  0  0  0  3  0  0  0  0  0  0
  188.4620  178.0560  146.3800 C   0  0  0  0  0  3  0  0  0  0  0  0
  188.3540  177.8850  141.2940 C   0  0  0  0  0  0  0  0  0  0  0  0
  183.8290  178.5620  145.7740 F   0  0  0  0  0  0  0  0  0  0  0  0
  190.6880  176.5640  143.8380 O   0  0  0  0  0  0  0  0  0  0  0  0
  188.4290  178.0920  149.1110 Cl  0  0  0  0  0  0  0  0  0  0  0  0
  187.0860  178.1760  141.2500 N   0  0  0  0  0  0  0  0  0  0  0  0
  188.9990  177.6360  142.5930 C   0  0  0  0  0  0  0  0  0  0  0  0
  189.1150  177.7380  140.0890 N   0  0  0  0  0  2  0  0  0  0  0  0
  186.0070  178.3430  144.8340 C   0  0  0  0  0  3  0  0  0  0  0  0
  190.2180  176.8140  147.4890 C   0  0  0  0  0  3  0  0  0  0  0  0
  186.2670  178.2770  142.4240 C   0  0  0  0  0  0  0  0  0  0  0  0
  184.8830  178.4090  142.2800 C   0  0  0  0  0  3  0  0  0  0  0  0
  190.0820  176.9180  142.6470 N   0  0  0  0  0  0  0  0  0  0  0  0
  190.1270  176.8920  145.0710 C   0  0  0  0  0  0  0  0  0  0  0  0
  190.7450  176.4570  146.2470 C   0  0  0  0  0  3  0  0  0  0  0  0
  188.3260  176.0180  135.4970 C   0  0  1  0  0  3  0  0  0  0  0  0
  188.9640  178.3130  136.2910 C   0  0  0  0  0  2  0  0  0  0  0  0
  190.4250  175.6950  138.5670 O   0  0  0  0  0  1  0  0  0  0  0  0
  187.1880  175.1790  134.9560 C   0  0  0  0  0  1  0  0  0  0  0  0
  187.8370  177.4450  135.7290 C   0  0  0  0  0  2  0  0  0  0  0  0
  189.9630  176.2540  137.3750 C   0  0  2  0  0  3  0  0  0  0  0  0
  189.5440  177.7200  137.5800 C   0  0  2  0  0  3  0  0  0  0  0  0
  188.8250  175.4100  136.8040 C   0  0  0  0  0  2  0  0  0  0  0  0
  1 17  1  0  0  0  0
  1 11  1  0  0  0  0
  2 15  1  6  0  0  0
  2  3  1  0  0  0  0
  3  9  1  0  0  0  0
  4  5  2  0  0  0  0
  5 16  1  0  0  0  0
  6 13  1  0  0  0  0
  7  2  1  0  0  0  0
  7 17  2  0  0  0  0
  8  1  2  0  0  0  0
  9  6  2  0  0  0  0
 10 15  1  0  0  0  0
 12 22  1  0  0  0  0
 14 10  2  0  0  0  0
 14 19  1  0  0  0  0
 15 21  2  0  0  0  0
 16 10  1  0  0  0  0
 18  6  1  0  0  0  0
 19  7  1  0  0  0  0
 20 19  2  0  0  0  0
 20  8  1  0  0  0  0
 21 12  1  0  0  0  0
 22  3  2  0  0  0  0
 22 23  1  0  0  0  0
 23 18  2  0  0  0  0
 24 27  1  1  0  0  0
 24 28  1  0  0  0  0
 24 31  1  0  0  0  0
 25 30  1  0  0  0  0
 28 25  1  0  0  0  0
 29 30  1  0  0  0  0
 29 26  1  1  0  0  0
 30  5  1  1  0  0  0
 31 29  1  0  0  0  0
M  END
>  <MODEL>
3

>  <REMARK>
 VINA RESULT:     -11.0      2.080      4.053
  Name = 
  1 active torsions:
  status: ('A' for Active; 'I' for Inactive)
    1  A    between atoms: C_5  and  C_30
                            x       y       z     vdW  Elec       q    Type
                         _______ _______ _______ _____ _____    ______ ____

>  <TORSDO>
F 1

$$$$
=
 OpenBabel11122411033D

 31 35  0  0  1  0  0  0  0  0999 V2000
  190.3840  177.1290  146.0080 C   0  0  0  0  0  0  0  0  0  0  0  0
  188.0240  177.2490  142.9820 C   0  0  2  0  0  3  0  0  0  0  0  0
  186.8230  177.9990  143.5290 C   0  0  0  0  0  0  0  0  0  0  0  0
  192.0230  176.3370  139.5020 O   0  0  0  0  0  0  0  0  0  0  0  0
  191.0000  176.7130  138.8710 C   0  0  0  0  0  0  0  0  0  0  0  0
  185.2240  178.4350  145.3120 C   0  0  0  0  0  0  0  0  0  0  0  0
  189.2810  177.2140  143.8400 C   0  0  0  0  0  0  0  0  0  0  0  0
  191.6100  176.8870  145.3850 C   0  0  0  0  0  3  0  0  0  0  0  0
  186.3880  177.8130  144.8500 C   0  0  0  0  0  3  0  0  0  0  0  0
  189.6440  177.1650  140.9910 C   0  0  0  0  0  0  0  0  0  0  0  0
  190.3160  177.2040  147.3590 F   0  0  0  0  0  0  0  0  0  0  0  0
  186.3860  178.8830  141.3140 O   0  0  0  0  0  0  0  0  0  0  0  0
  184.7170  178.2160  146.9720 Cl  0  0  0  0  0  0  0  0  0  0  0  0
  190.6270  176.8670  141.7900 N   0  0  0  0  0  0  0  0  0  0  0  0
  188.3620  177.6210  141.5520 C   0  0  0  0  0  0  0  0  0  0  0  0
  189.8140  177.1190  139.5690 N   0  0  0  0  0  2  0  0  0  0  0  0
  189.2270  177.2750  145.2410 C   0  0  0  0  0  3  0  0  0  0  0  0
  184.4620  179.2210  144.4450 C   0  0  0  0  0  3  0  0  0  0  0  0
  190.5250  176.9540  143.2180 C   0  0  0  0  0  0  0  0  0  0  0  0
  191.6780  176.7970  143.9940 C   0  0  0  0  0  3  0  0  0  0  0  0
  187.5600  178.3420  140.8250 N   0  0  0  0  0  0  0  0  0  0  0  0
  186.0250  178.7570  142.6540 C   0  0  0  0  0  0  0  0  0  0  0  0
  184.8590  179.3760  143.1160 C   0  0  0  0  0  3  0  0  0  0  0  0
  189.6640  174.4120  136.1740 C   0  0  1  0  0  3  0  0  0  0  0  0
  189.6360  176.8520  136.7640 C   0  0  0  0  0  2  0  0  0  0  0  0
  193.0620  175.4110  137.3530 O   0  0  0  0  0  1  0  0  0  0  0  0
  188.8940  173.1130  136.2860 C   0  0  0  0  0  1  0  0  0  0  0  0
  188.8730  175.5300  136.8500 C   0  0  0  0  0  2  0  0  0  0  0  0
  191.8120  175.5590  136.7510 C   0  0  2  0  0  3  0  0  0  0  0  0
  191.0380  176.7350  137.3700 C   0  0  2  0  0  3  0  0  0  0  0  0
  191.0270  174.2510  136.8390 C   0  0  0  0  0  2  0  0  0  0  0  0
  1 11  1  0  0  0  0
  2 15  1  6  0  0  0
  2  3  1  0  0  0  0
  2  7  1  0  0  0  0
  3  9  1  0  0  0  0
  5  4  2  0  0  0  0
  5 16  1  0  0  0  0
  6 13  1  0  0  0  0
  7 17  1  0  0  0  0
  8  1  1  0  0  0  0
  9  6  2  0  0  0  0
 10 15  1  0  0  0  0
 10 14  2  0  0  0  0
 12 22  1  0  0  0  0
 14 19  1  0  0  0  0
 16 10  1  0  0  0  0
 17  1  2  0  0  0  0
 18  6  1  0  0  0  0
 19  7  2  0  0  0  0
 19 20  1  0  0  0  0
 20  8  2  0  0  0  0
 21 12  1  0  0  0  0
 21 15  2  0  0  0  0
 22 23  1  0  0  0  0
 22  3  2  0  0  0  0
 23 18  2  0  0  0  0
 24 27  1  1  0  0  0
 24 31  1  0  0  0  0
 24 28  1  0  0  0  0
 25 28  1  0  0  0  0
 25 30  1  0  0  0  0
 29 31  1  0  0  0  0
 29 26  1  1  0  0  0
 29 30  1  0  0  0  0
 30  5  1  1  0  0  0
M  END
>  <MODEL>
4

>  <REMARK>
 VINA RESULT:     -10.6      1.212      1.679
  Name = 
  1 active torsions:
  status: ('A' for Active; 'I' for Inactive)
    1  A    between atoms: C_5  and  C_30
                            x       y       z     vdW  Elec       q    Type
                         _______ _______ _______ _____ _____    ______ ____

>  <TORSDO>
F 1

$$$$
=
 OpenBabel11122411033D

 31 35  0  0  1  0  0  0  0  0999 V2000
  191.3490  177.3150  144.4850 C   0  0  0  0  0  0  0  0  0  0  0  0
  187.6850  177.5050  143.3500 C   0  0  2  0  0  3  0  0  0  0  0  0
  186.9720  177.9590  144.6110 C   0  0  0  0  0  0  0  0  0  0  0  0
  189.0410  177.7920  138.1530 O   0  0  0  0  0  0  0  0  0  0  0  0
  187.8240  178.0870  138.2830 C   0  0  0  0  0  0  0  0  0  0  0  0
  186.6490  177.8540  147.0210 C   0  0  0  0  0  0  0  0  0  0  0  0
  189.2070  177.5470  143.3510 C   0  0  0  0  0  0  0  0  0  0  0  0
  192.0140  177.3730  143.2590 C   0  0  0  0  0  3  0  0  0  0  0  0
  187.3730  177.5070  145.8780 C   0  0  0  0  0  3  0  0  0  0  0  0
  187.8900  177.9870  140.8360 C   0  0  0  0  0  0  0  0  0  0  0  0
  192.0560  177.1740  145.6310 F   0  0  0  0  0  0  0  0  0  0  0  0
  185.3120  179.0840  143.2480 O   0  0  0  0  0  0  0  0  0  0  0  0
  187.1850  177.3070  148.5940 Cl  0  0  0  0  0  0  0  0  0  0  0  0
  189.1670  177.7370  140.8810 N   0  0  0  0  0  0  0  0  0  0  0  0
  187.1330  178.1390  142.0890 C   0  0  0  0  0  0  0  0  0  0  0  0
  187.2250  178.1850  139.5820 N   0  0  0  0  0  2  0  0  0  0  0  0
  189.9550  177.3860  144.5270 C   0  0  0  0  0  3  0  0  0  0  0  0
  185.4920  178.6280  146.9060 C   0  0  0  0  0  3  0  0  0  0  0  0
  189.8900  177.5890  142.1120 C   0  0  0  0  0  0  0  0  0  0  0  0
  191.2850  177.5070  142.0760 C   0  0  0  0  0  3  0  0  0  0  0  0
  186.0250  178.8200  142.0940 N   0  0  0  0  0  0  0  0  0  0  0  0
  185.7820  178.6990  144.5030 C   0  0  0  0  0  0  0  0  0  0  0  0
  185.0560  179.0440  145.6470 C   0  0  0  0  0  3  0  0  0  0  0  0
  186.0380  175.8450  135.8060 C   0  0  1  0  0  3  0  0  0  0  0  0
  185.5560  177.8620  137.2200 C   0  0  0  0  0  2  0  0  0  0  0  0
  188.9620  178.1590  135.6450 O   0  0  0  0  0  1  0  0  0  0  0  0
  185.9360  174.3350  135.7460 C   0  0  0  0  0  1  0  0  0  0  0  0
  185.4530  176.3390  137.1260 C   0  0  0  0  0  2  0  0  0  0  0  0
  187.6240  177.7790  135.7620 C   0  0  2  0  0  3  0  0  0  0  0  0
  187.0020  178.3410  137.0520 C   0  0  2  0  0  3  0  0  0  0  0  0
  187.5010  176.2580  135.6860 C   0  0  0  0  0  2  0  0  0  0  0  0
  1 17  1  0  0  0  0
  1 11  1  0  0  0  0
  2 15  1  6  0  0  0
  2  7  1  0  0  0  0
  2  3  1  0  0  0  0
  3  9  1  0  0  0  0
  4  5  2  0  0  0  0
  5 16  1  0  0  0  0
  6 13  1  0  0  0  0
  7 17  2  0  0  0  0
  8  1  2  0  0  0  0
  9  6  2  0  0  0  0
 10 14  2  0  0  0  0
 10 15  1  0  0  0  0
 12 22  1  0  0  0  0
 14 19  1  0  0  0  0
 15 21  2  0  0  0  0
 16 10  1  0  0  0  0
 18  6  1  0  0  0  0
 19  7  1  0  0  0  0
 20 19  2  0  0  0  0
 20  8  1  0  0  0  0
 21 12  1  0  0  0  0
 22  3  2  0  0  0  0
 22 23  1  0  0  0  0
 23 18  2  0  0  0  0
 24 27  1  1  0  0  0
 24 28  1  0  0  0  0
 28 25  1  0  0  0  0
 29 26  1  1  0  0  0
 29 30  1  0  0  0  0
 30 25  1  0  0  0  0
 30  5  1  1  0  0  0
 31 29  1  0  0  0  0
 31 24  1  0  0  0  0
M  END
>  <MODEL>
5

>  <REMARK>
 VINA RESULT:     -10.0      1.640      2.130
  Name = 
  1 active torsions:
  status: ('A' for Active; 'I' for Inactive)
    1  A    between atoms: C_5  and  C_30
                            x       y       z     vdW  Elec       q    Type
                         _______ _______ _______ _____ _____    ______ ____

>  <TORSDO>
F 1

$$$$
=
 OpenBabel11122411033D

 31 35  0  0  1  0  0  0  0  0999 V2000
  186.4790  177.9970  147.1790 C   0  0  0  0  0  0  0  0  0  0  0  0
  188.5140  177.9310  143.9230 C   0  0  2  0  0  3  0  0  0  0  0  0
  189.7040  177.0650  144.2940 C   0  0  0  0  0  0  0  0  0  0  0  0
  184.2690  179.3520  140.9390 O   0  0  0  0  0  0  0  0  0  0  0  0
  185.1940  178.9530  140.1840 C   0  0  0  0  0  0  0  0  0  0  0  0
  191.4350  176.3990  145.8710 C   0  0  0  0  0  0  0  0  0  0  0  0
  187.3540  177.9900  144.9070 C   0  0  0  0  0  0  0  0  0  0  0  0
  185.2200  178.3640  146.7020 C   0  0  0  0  0  3  0  0  0  0  0  0
  190.2800  177.1280  145.5720 C   0  0  0  0  0  3  0  0  0  0  0  0
  186.7160  178.2630  142.1190 C   0  0  0  0  0  0  0  0  0  0  0  0
  186.6750  177.8220  148.5070 F   0  0  0  0  0  0  0  0  0  0  0  0
  189.8530  176.3120  141.9940 O   0  0  0  0  0  0  0  0  0  0  0  0
  192.1190  176.4670  147.4800 Cl  0  0  0  0  0  0  0  0  0  0  0  0
  185.8410  178.5690  143.0330 N   0  0  0  0  0  0  0  0  0  0  0  0
  188.0100  177.6830  142.5150 C   0  0  0  0  0  0  0  0  0  0  0  0
  186.4100  178.4200  140.7280 N   0  0  0  0  0  2  0  0  0  0  0  0
  187.5410  177.8270  146.2880 C   0  0  0  0  0  3  0  0  0  0  0  0
  192.0470  175.6260  144.8810 C   0  0  0  0  0  3  0  0  0  0  0  0
  186.0770  178.3760  144.4350 C   0  0  0  0  0  0  0  0  0  0  0  0
  185.0210  178.5550  145.3340 C   0  0  0  0  0  3  0  0  0  0  0  0
  188.6800  176.9640  141.6640 N   0  0  0  0  0  0  0  0  0  0  0  0
  190.3540  176.3190  143.2950 C   0  0  0  0  0  0  0  0  0  0  0  0
  191.5100  175.5920  143.5940 C   0  0  0  0  0  3  0  0  0  0  0  0
  184.4050  176.4140  137.4860 C   0  0  1  0  0  3  0  0  0  0  0  0
  183.5840  178.6500  138.2780 C   0  0  0  0  0  2  0  0  0  0  0  0
  187.3460  178.5550  138.3220 O   0  0  0  0  0  1  0  0  0  0  0  0
  184.1810  174.9200  137.5810 C   0  0  0  0  0  1  0  0  0  0  0  0
  183.3700  177.1370  138.3430 C   0  0  0  0  0  2  0  0  0  0  0  0
  186.0540  178.2520  137.8910 C   0  0  2  0  0  3  0  0  0  0  0  0
  185.0060  179.0380  138.6970 C   0  0  2  0  0  3  0  0  0  0  0  0
  185.8150  176.7450  137.9640 C   0  0  0  0  0  2  0  0  0  0  0  0
  1 11  1  0  0  0  0
  2 15  1  6  0  0  0
  2  3  1  0  0  0  0
  2  7  1  0  0  0  0
  3  9  1  0  0  0  0
  5 16  1  0  0  0  0
  5  4  2  0  0  0  0
  6 13  1  0  0  0  0
  7 17  1  0  0  0  0
  8  1  1  0  0  0  0
  9  6  2  0  0  0  0
 10 15  1  0  0  0  0
 10 14  2  0  0  0  0
 12 22  1  0  0  0  0
 14 19  1  0  0  0  0
 16 10  1  0  0  0  0
 17  1  2  0  0  0  0
 18  6  1  0  0  0  0
 19  7  2  0  0  0  0
 19 20  1  0  0  0  0
 20  8  2  0  0  0  0
 21 12  1  0  0  0  0
 21 15  2  0  0  0  0
 22 23  1  0  0  0  0
 22  3  2  0  0  0  0
 23 18  2  0  0  0  0
 24 27  1  1  0  0  0
 24 31  1  0  0  0  0
 24 28  1  0  0  0  0
 25 28  1  0  0  0  0
 25 30  1  0  0  0  0
 29 31  1  0  0  0  0
 29 26  1  1  0  0  0
 29 30  1  0  0  0  0
 30  5  1  1  0  0  0
M  END
>  <MODEL>
6

>  <REMARK>
 VINA RESULT:      -9.9      2.647      4.966
  Name = 
  1 active torsions:
  status: ('A' for Active; 'I' for Inactive)
    1  A    between atoms: C_5  and  C_30
                            x       y       z     vdW  Elec       q    Type
                         _______ _______ _______ _____ _____    ______ ____

>  <TORSDO>
F 1

$$$$
=
 OpenBabel11122411033D

 31 35  0  0  1  0  0  0  0  0999 V2000
  185.2340  178.3250  145.8000 C   0  0  0  0  0  0  0  0  0  0  0  0
  184.4950  178.1470  142.0360 C   0  0  2  0  0  3  0  0  0  0  0  0
  183.0950  178.7280  141.9460 C   0  0  0  0  0  0  0  0  0  0  0  0
  189.7100  177.7920  140.7670 O   0  0  0  0  0  0  0  0  0  0  0  0
  189.0440  178.0320  139.7260 C   0  0  0  0  0  0  0  0  0  0  0  0
  180.8250  178.9390  142.7980 C   0  0  0  0  0  0  0  0  0  0  0  0
  185.2240  178.2750  143.3660 C   0  0  0  0  0  0  0  0  0  0  0  0
  186.6280  178.2510  145.8050 C   0  0  0  0  0  3  0  0  0  0  0  0
  182.1380  178.4790  142.9410 C   0  0  0  0  0  3  0  0  0  0  0  0
  186.8350  178.2890  140.9870 C   0  0  0  0  0  0  0  0  0  0  0  0
  184.5550  178.3840  146.9700 F   0  0  0  0  0  0  0  0  0  0  0  0
  183.6000  179.5580  139.7240 O   0  0  0  0  0  0  0  0  0  0  0  0
  179.6550  178.6450  144.0650 Cl  0  0  0  0  0  0  0  0  0  0  0  0
  187.3810  178.1210  142.1570 N   0  0  0  0  0  0  0  0  0  0  0  0
  185.3930  178.5690  140.8900 C   0  0  0  0  0  0  0  0  0  0  0  0
  187.6320  178.2740  139.7960 N   0  0  0  0  0  2  0  0  0  0  0  0
  184.5380  178.3210  144.5890 C   0  0  0  0  0  3  0  0  0  0  0  0
  180.4470  179.6210  141.6400 C   0  0  0  0  0  3  0  0  0  0  0  0
  186.6360  178.1860  143.3820 C   0  0  0  0  0  0  0  0  0  0  0  0
  187.3260  178.1790  144.5980 C   0  0  0  0  0  3  0  0  0  0  0  0
  184.9240  179.1800  139.8420 N   0  0  0  0  0  0  0  0  0  0  0  0
  182.6920  179.3780  140.7660 C   0  0  0  0  0  0  0  0  0  0  0  0
  181.3780  179.8340  140.6230 C   0  0  0  0  0  3  0  0  0  0  0  0
  188.0770  177.0290  136.2030 C   0  0  1  0  0  3  0  0  0  0  0  0
  189.0560  179.0030  137.4070 C   0  0  0  0  0  2  0  0  0  0  0  0
  190.5540  175.8080  138.7150 O   0  0  0  0  0  1  0  0  0  0  0  0
  186.7930  176.4280  135.6720 C   0  0  0  0  0  1  0  0  0  0  0  0
  187.7760  178.3790  136.8480 C   0  0  0  0  0  2  0  0  0  0  0  0
  189.9840  176.6780  137.7850 C   0  0  2  0  0  3  0  0  0  0  0  0
  189.7510  178.0680  138.4020 C   0  0  2  0  0  3  0  0  0  0  0  0
  188.6950  176.0800  137.2250 C   0  0  0  0  0  2  0  0  0  0  0  0
  1  8  1  0  0  0  0
  1 11  1  0  0  0  0
  2 15  1  6  0  0  0
  2  7  1  0  0  0  0
  3  2  1  0  0  0  0
  3  9  1  0  0  0  0
  5 16  1  0  0  0  0
  5  4  2  0  0  0  0
  6  9  2  0  0  0  0
  6 13  1  0  0  0  0
  7 19  2  0  0  0  0
  7 17  1  0  0  0  0
 10 14  2  0  0  0  0
 12 21  1  0  0  0  0
 12 22  1  0  0  0  0
 14 19  1  0  0  0  0
 15 10  1  0  0  0  0
 16 10  1  0  0  0  0
 17  1  2  0  0  0  0
 18  6  1  0  0  0  0
 19 20  1  0  0  0  0
 20  8  2  0  0  0  0
 21 15  2  0  0  0  0
 22  3  2  0  0  0  0
 23 22  1  0  0  0  0
 23 18  2  0  0  0  0
 24 27  1  1  0  0  0
 24 28  1  0  0  0  0
 24 31  1  0  0  0  0
 25 30  1  0  0  0  0
 28 25  1  0  0  0  0
 29 30  1  0  0  0  0
 29 26  1  1  0  0  0
 30  5  1  1  0  0  0
 31 29  1  0  0  0  0
M  END
>  <MODEL>
7

>  <REMARK>
 VINA RESULT:      -9.7      2.518      3.551
  Name = 
  1 active torsions:
  status: ('A' for Active; 'I' for Inactive)
    1  A    between atoms: C_5  and  C_30
                            x       y       z     vdW  Elec       q    Type
                         _______ _______ _______ _____ _____    ______ ____

>  <TORSDO>
F 1

$$$$
=
 OpenBabel11122411033D

 31 35  0  0  1  0  0  0  0  0999 V2000
  182.9180  178.7500  143.1330 C   0  0  0  0  0  0  0  0  0  0  0  0
  186.7180  178.6490  142.5880 C   0  0  2  0  0  3  0  0  0  0  0  0
  187.2270  178.1070  143.9120 C   0  0  0  0  0  0  0  0  0  0  0  0
  186.2130  178.7380  137.2340 O   0  0  0  0  0  0  0  0  0  0  0  0
  187.3980  178.4360  137.5350 C   0  0  0  0  0  0  0  0  0  0  0  0
  187.1610  178.0360  146.3440 C   0  0  0  0  0  0  0  0  0  0  0  0
  185.2160  178.6050  142.3420 C   0  0  0  0  0  0  0  0  0  0  0  0
  182.4580  178.7800  141.8150 C   0  0  0  0  0  3  0  0  0  0  0  0
  186.6230  178.4640  145.1260 C   0  0  0  0  0  3  0  0  0  0  0  0
  186.9230  178.3510  140.0460 C   0  0  0  0  0  0  0  0  0  0  0  0
  182.0360  178.8060  144.1590 F   0  0  0  0  0  0  0  0  0  0  0  0
  189.0980  177.0870  142.7550 O   0  0  0  0  0  0  0  0  0  0  0  0
  186.3740  178.4670  147.8460 Cl  0  0  0  0  0  0  0  0  0  0  0  0
  185.6530  178.5950  139.9040 N   0  0  0  0  0  0  0  0  0  0  0  0
  187.4730  178.1100  141.3900 C   0  0  0  0  0  0  0  0  0  0  0  0
  187.7820  178.2460  138.9040 N   0  0  0  0  0  2  0  0  0  0  0  0
  184.2880  178.6790  143.3920 C   0  0  0  0  0  3  0  0  0  0  0  0
  188.3320  177.2750  146.3600 C   0  0  0  0  0  3  0  0  0  0  0  0
  184.7410  178.6520  141.0110 C   0  0  0  0  0  0  0  0  0  0  0  0
  183.3690  178.7340  140.7580 C   0  0  0  0  0  3  0  0  0  0  0  0
  188.5750  177.4310  141.5230 N   0  0  0  0  0  0  0  0  0  0  0  0
  188.4290  177.3780  143.9430 C   0  0  0  0  0  0  0  0  0  0  0  0
  188.9680  176.9530  145.1600 C   0  0  0  0  0  3  0  0  0  0  0  0
  188.4910  175.5160  135.3840 C   0  0  1  0  0  3  0  0  0  0  0  0
  187.7490  177.8980  135.1050 C   0  0  0  0  0  2  0  0  0  0  0  0
  190.1030  177.6030  138.0270 O   0  0  0  0  0  1  0  0  0  0  0  0
  188.0250  174.0760  135.3760 C   0  0  0  0  0  1  0  0  0  0  0  0
  187.3080  176.4340  135.0880 C   0  0  0  0  0  2  0  0  0  0  0  0
  189.5500  177.3020  136.7810 C   0  0  2  0  0  3  0  0  0  0  0  0
  188.4080  178.2730  136.4370 C   0  0  2  0  0  3  0  0  0  0  0  0
  189.0890  175.8460  136.7480 C   0  0  0  0  0  2  0  0  0  0  0  0
  1 17  1  0  0  0  0
  1 11  1  0  0  0  0
  2 15  1  6  0  0  0
  2  3  1  0  0  0  0
  3 22  2  0  0  0  0
  3  9  1  0  0  0  0
  4  5  2  0  0  0  0
  5 16  1  0  0  0  0
  6 18  1  0  0  0  0
  6 13  1  0  0  0  0
  7  2  1  0  0  0  0
  7 17  2  0  0  0  0
  8  1  2  0  0  0  0
  9  6  2  0  0  0  0
 10 15  1  0  0  0  0
 12 22  1  0  0  0  0
 14 10  2  0  0  0  0
 14 19  1  0  0  0  0
 15 21  2  0  0  0  0
 16 10  1  0  0  0  0
 19  7  1  0  0  0  0
 20 19  2  0  0  0  0
 20  8  1  0  0  0  0
 21 12  1  0  0  0  0
 22 23  1  0  0  0  0
 23 18  2  0  0  0  0
 24 27  1  1  0  0  0
 24 31  1  0  0  0  0
 25 30  1  0  0  0  0
 28 25  1  0  0  0  0
 28 24  1  0  0  0  0
 29 26  1  1  0  0  0
 30 29  1  0  0  0  0
 30  5  1  1  0  0  0
 31 29  1  0  0  0  0
M  END
>  <MODEL>
8

>  <REMARK>
 VINA RESULT:      -9.1      2.434      4.471
  Name = 
  1 active torsions:
  status: ('A' for Active; 'I' for Inactive)
    1  A    between atoms: C_5  and  C_30
                            x       y       z     vdW  Elec       q    Type
                         _______ _______ _______ _____ _____    ______ ____

>  <TORSDO>
F 1

$$$$
=
 OpenBabel11122411033D

 31 35  0  0  1  0  0  0  0  0999 V2000
  186.3020  177.9810  147.2470 C   0  0  0  0  0  0  0  0  0  0  0  0
  187.9640  178.1120  143.7880 C   0  0  2  0  0  3  0  0  0  0  0  0
  189.2310  177.3030  144.0000 C   0  0  0  0  0  0  0  0  0  0  0  0
  183.3480  179.3780  141.3340 O   0  0  0  0  0  0  0  0  0  0  0  0
  184.2030  179.0500  140.4690 C   0  0  0  0  0  0  0  0  0  0  0  0
  191.1570  176.6900  145.3550 C   0  0  0  0  0  0  0  0  0  0  0  0
  186.9190  178.0810  144.8950 C   0  0  0  0  0  0  0  0  0  0  0  0
  184.9800  178.2910  146.9230 C   0  0  0  0  0  3  0  0  0  0  0  0
  189.9410  177.3630  145.2080 C   0  0  0  0  0  3  0  0  0  0  0  0
  185.9630  178.3930  142.2040 C   0  0  0  0  0  0  0  0  0  0  0  0
  186.6530  177.7820  148.5400 F   0  0  0  0  0  0  0  0  0  0  0  0
  189.1630  176.6200  141.6740 O   0  0  0  0  0  0  0  0  0  0  0  0
  192.0110  176.7530  146.8810 Cl  0  0  0  0  0  0  0  0  0  0  0  0
  185.1800  178.6270  143.2170 N   0  0  0  0  0  0  0  0  0  0  0  0
  187.3210  177.8750  142.4370 C   0  0  0  0  0  0  0  0  0  0  0  0
  185.4970  178.5700  140.8600 N   0  0  0  0  0  2  0  0  0  0  0  0
  187.2660  177.8930  146.2410 C   0  0  0  0  0  3  0  0  0  0  0  0
  191.6950  175.9790  144.2810 C   0  0  0  0  0  3  0  0  0  0  0  0
  185.5790  178.4100  144.5780 C   0  0  0  0  0  0  0  0  0  0  0  0
  184.6220  178.5070  145.5920 C   0  0  0  0  0  3  0  0  0  0  0  0
  187.9290  177.2150  141.4950 N   0  0  0  0  0  0  0  0  0  0  0  0
  189.8040  176.6200  142.9120 C   0  0  0  0  0  0  0  0  0  0  0  0
  191.0220  175.9490  143.0590 C   0  0  0  0  0  3  0  0  0  0  0  0
  180.9300  179.1270  138.5640 C   0  0  1  0  0  3  0  0  0  0  0  0
  183.0610  180.4460  138.7190 C   0  0  0  0  0  2  0  0  0  0  0  0
  183.8050  176.7570  138.7840 O   0  0  0  0  0  1  0  0  0  0  0  0
  179.5030  179.0380  139.0630 C   0  0  0  0  0  1  0  0  0  0  0  0
  181.6110  180.3400  139.1940 C   0  0  0  0  0  2  0  0  0  0  0  0
  183.1240  177.9290  138.4530 C   0  0  2  0  0  3  0  0  0  0  0  0
  183.8470  179.1640  139.0150 C   0  0  2  0  0  3  0  0  0  0  0  0
  181.6750  177.8490  138.9330 C   0  0  0  0  0  2  0  0  0  0  0  0
  1 11  1  0  0  0  0
  2 15  1  6  0  0  0
  2  3  1  0  0  0  0
  2  7  1  0  0  0  0
  3  9  1  0  0  0  0
  5 16  1  0  0  0  0
  5  4  2  0  0  0  0
  6 13  1  0  0  0  0
  7 17  1  0  0  0  0
  8  1  1  0  0  0  0
  9  6  2  0  0  0  0
 10 15  1  0  0  0  0
 10 14  2  0  0  0  0
 12 22  1  0  0  0  0
 14 19  1  0  0  0  0
 16 10  1  0  0  0  0
 17  1  2  0  0  0  0
 18  6  1  0  0  0  0
 19  7  2  0  0  0  0
 19 20  1  0  0  0  0
 20  8  2  0  0  0  0
 21 12  1  0  0  0  0
 21 15  2  0  0  0  0
 22 23  1  0  0  0  0
 22  3  2  0  0  0  0
 23 18  2  0  0  0  0
 24 31  1  0  0  0  0
 24 27  1  1  0  0  0
 24 28  1  0  0  0  0
 25 30  1  0  0  0  0
 25 28  1  0  0  0  0
 29 26  1  1  0  0  0
 29 31  1  0  0  0  0
 29 30  1  0  0  0  0
 30  5  1  1  0  0  0
M  END
>  <MODEL>
9

>  <REMARK>
 VINA RESULT:      -9.1      3.388      5.694
  Name = 
  1 active torsions:
  status: ('A' for Active; 'I' for Inactive)
    1  A    between atoms: C_5  and  C_30
                            x       y       z     vdW  Elec       q    Type
                         _______ _______ _______ _____ _____    ______ ____

>  <TORSDO>
F 1

$$$$
