=
 OpenBabel11122412133D

 34 41  0  0  1  0  0  0  0  0999 V2000
  187.4600  177.6490  137.9100 C   0  0  0  0  0  0  0  0  0  0  0  0
  186.0630  178.5050  139.8490 C   0  0  0  0  0  2  0  0  0  0  0  0
  192.6520  174.1160  136.0780 C   0  0  1  0  0  3  0  0  0  0  0  0
  188.8210  176.6490  136.1230 C   0  0  2  0  0  3  0  0  0  0  0  0
  191.1910  176.2620  136.7680 C   0  0  2  0  0  3  0  0  0  0  0  0
  193.7950  176.3350  136.6170 C   0  0  0  0  0  1  0  0  0  0  0  0
  192.6410  174.4050  137.4620 O   0  0  0  0  0  0  0  0  0  0  0  0
  190.5580  173.9950  134.5940 C   0  0  0  0  0  2  0  0  0  0  0  0
  188.4640  178.2560  140.1380 C   0  0  2  0  0  3  0  0  0  0  0  0
  189.2850  177.3990  143.1090 C   0  0  0  0  0  2  0  0  0  0  0  0
  190.9510  176.7050  138.1600 N   0  0  0  0  0  2  0  0  0  0  0  0
  190.3330  175.3860  134.7090 O   0  0  0  0  0  0  0  0  0  0  0  0
  189.2920  176.9530  140.0540 C   0  0  1  0  0  3  0  0  0  0  0  0
  186.3950  178.9310  141.2660 C   0  0  0  0  0  2  0  0  0  0  0  0
  189.9750  175.6590  136.0360 C   0  0  2  0  0  3  0  0  0  0  0  0
  191.3640  173.3660  135.7480 C   0  0  0  0  0  2  0  0  0  0  0  0
  187.9840  177.3760  142.4230 N   0  0  0  0  0  0  0  0  0  0  0  0
  188.5730  176.9820  137.5700 C   0  0  0  0  0  0  0  0  0  0  0  0
  192.5240  175.5110  136.6040 C   0  0  2  0  0  0  0  0  0  0  0  0
  189.5650  176.4850  138.6040 C   0  0  1  0  0  3  0  0  0  0  0  0
  186.4190  177.1350  135.7510 C   0  0  0  0  0  3  0  0  0  0  0  0
  190.4670  177.7590  142.2010 C   0  0  0  0  0  2  0  0  0  0  0  0
  187.5270  176.1480  135.4780 C   0  0  0  0  0  2  0  0  0  0  0  0
  190.5470  176.8980  140.9430 C   0  0  0  0  0  2  0  0  0  0  0  0
  187.8600  178.5460  141.5270 C   0  0  1  0  0  3  0  0  0  0  0  0
  186.3800  177.8150  136.9080 C   0  0  0  0  0  3  0  0  0  0  0  0
  187.3280  178.1610  139.2390 N   0  0  0  0  0  0  0  0  0  0  0  0
  187.0480  177.4640  143.4020 O   0  0  0  0  0  0  0  0  0  0  0  0
  187.7280  177.1320  144.5800 C   0  0  0  0  0  2  0  0  0  0  0  0
  187.0310  178.7590  147.6780 C   0  0  0  0  0  2  0  0  0  0  0  0
  185.8230  178.3790  145.6370 C   0  0  0  0  0  2  0  0  0  0  0  0
  186.8080  177.2360  145.7900 C   0  0  0  0  0  3  0  0  0  0  0  0
  185.6900  178.9820  147.0150 C   0  0  0  0  0  2  0  0  0  0  0  0
  187.5940  177.4890  147.0680 C   0  0  0  0  0  2  0  0  0  0  0  0
  1 27  1  0  0  0  0
  2 14  1  0  0  0  0
  3 16  1  1  0  0  0
  3 19  1  0  0  0  0
  3  7  1  0  0  0  0
  4 23  1  1  0  0  0
  4 18  1  0  0  0  0
  5 11  1  1  0  0  0
  8 12  1  0  0  0  0
  8 16  1  0  0  0  0
  9 27  1  6  0  0  0
  9 25  1  0  0  0  0
 11 20  1  0  0  0  0
 13  9  1  0  0  0  0
 13 24  1  6  0  0  0
 15 12  1  6  0  0  0
 15  4  1  0  0  0  0
 15  5  1  0  0  0  0
 17 10  1  0  0  0  0
 17 28  1  0  0  0  0
 18  1  2  0  0  0  0
 19  6  1  6  0  0  0
 19  5  1  0  0  0  0
 19  7  1  0  0  0  0
 20 18  1  6  0  0  0
 20 13  1  0  0  0  0
 21 26  2  0  0  0  0
 22 10  1  0  0  0  0
 23 21  1  0  0  0  0
 24 22  1  0  0  0  0
 25 14  1  6  0  0  0
 25 17  1  0  0  0  0
 26  1  1  0  0  0  0
 27  2  1  0  0  0  0
 28 29  1  0  0  0  0
 29 32  1  0  0  0  0
 31 32  1  0  0  0  0
 31 33  1  0  0  0  0
 32 34  1  0  0  0  0
 33 30  1  0  0  0  0
 34 30  1  0  0  0  0
M  END
>  <MODEL>
1

>  <REMARK>
 VINA RESULT:      -9.0      0.000      0.000
  Name = 
  3 active torsions:
  status: ('A' for Active; 'I' for Inactive)
    1  A    between atoms: N_17  and  O_28
    2  A    between atoms: O_28  and  C_29
    3  A    between atoms: C_29  and  C_32
                            x       y       z     vdW  Elec       q    Type
                         _______ _______ _______ _____ _____    ______ ____

>  <TORSDO>
F 3

$$$$
=
 OpenBabel11122412133D

 34 41  0  0  1  0  0  0  0  0999 V2000
  182.0720  178.8470  143.4390 C   0  0  0  0  0  0  0  0  0  0  0  0
  183.7930  178.8160  145.3060 C   0  0  0  0  0  2  0  0  0  0  0  0
  180.8150  177.4810  137.1660 C   0  0  1  0  0  3  0  0  0  0  0  0
  180.4690  178.7020  141.5800 C   0  0  2  0  0  3  0  0  0  0  0  0
  181.5190  178.9010  139.3350 C   0  0  2  0  0  3  0  0  0  0  0  0
  181.9200  179.7680  136.9080 C   0  0  0  0  0  1  0  0  0  0  0  0
  182.1940  177.4490  137.4720 O   0  0  0  0  0  0  0  0  0  0  0  0
  178.9310  177.0700  138.8650 C   0  0  0  0  0  2  0  0  0  0  0  0
  184.5270  179.2290  143.0250 C   0  0  2  0  0  3  0  0  0  0  0  0
  187.4300  178.0350  142.4080 C   0  0  0  0  0  2  0  0  0  0  0  0
  182.8830  178.9430  139.9070 N   0  0  0  0  0  2  0  0  0  0  0  0
  179.2160  178.2740  139.5490 O   0  0  0  0  0  0  0  0  0  0  0  0
  184.4100  178.2780  141.8110 C   0  0  1  0  0  3  0  0  0  0  0  0
  185.2970  179.0060  145.3410 C   0  0  0  0  0  2  0  0  0  0  0  0
  180.4660  178.1380  140.1660 C   0  0  2  0  0  3  0  0  0  0  0  0
  180.1130  176.4740  138.0730 C   0  0  0  0  0  2  0  0  0  0  0  0
  186.4960  177.7780  143.5150 N   0  0  0  0  0  0  0  0  0  0  0  0
  181.8680  178.6270  142.1310 C   0  0  0  0  0  0  0  0  0  0  0  0
  181.5160  178.6290  137.8210 C   0  0  2  0  0  0  0  0  0  0  0  0
  182.9920  178.2350  141.1920 C   0  0  1  0  0  3  0  0  0  0  0  0
  179.6920  178.5260  143.9280 C   0  0  0  0  0  3  0  0  0  0  0  0
  186.8530  178.9140  141.2920 C   0  0  0  0  0  2  0  0  0  0  0  0
  179.5010  177.9920  142.5290 C   0  0  0  0  0  2  0  0  0  0  0  0
  185.5190  178.4050  140.7520 C   0  0  0  0  0  2  0  0  0  0  0  0
  185.7900  179.0230  143.8860 C   0  0  1  0  0  3  0  0  0  0  0  0
  180.9080  178.8990  144.3560 C   0  0  0  0  0  3  0  0  0  0  0  0
  183.4100  179.0000  143.9240 N   0  0  0  0  0  0  0  0  0  0  0  0
  187.2620  177.3730  144.5590 O   0  0  0  0  0  0  0  0  0  0  0  0
  188.5770  177.4200  144.0800 C   0  0  0  0  0  2  0  0  0  0  0  0
  189.8560  176.7500  147.3430 C   0  0  0  0  0  2  0  0  0  0  0  0
  190.8060  176.9850  145.1490 C   0  0  0  0  0  2  0  0  0  0  0  0
  189.5470  177.8300  145.1820 C   0  0  0  0  0  3  0  0  0  0  0  0
  191.1710  176.7530  146.5970 C   0  0  0  0  0  2  0  0  0  0  0  0
  188.9280  177.6610  146.5600 C   0  0  0  0  0  2  0  0  0  0  0  0
  1 27  1  0  0  0  0
  1 26  1  0  0  0  0
  2 14  1  0  0  0  0
  3  7  1  0  0  0  0
  3 19  1  0  0  0  0
  3 16  1  1  0  0  0
  4 18  1  0  0  0  0
  4 23  1  1  0  0  0
  5 11  1  1  0  0  0
  5 15  1  0  0  0  0
  7 19  1  0  0  0  0
  8 12  1  0  0  0  0
  9 25  1  0  0  0  0
  9 27  1  1  0  0  0
 10 17  1  0  0  0  0
 13 24  1  6  0  0  0
 13  9  1  0  0  0  0
 15 12  1  6  0  0  0
 15  4  1  0  0  0  0
 16  8  1  0  0  0  0
 17 25  1  0  0  0  0
 17 28  1  0  0  0  0
 18  1  2  0  0  0  0
 19  6  1  6  0  0  0
 19  5  1  0  0  0  0
 20 11  1  6  0  0  0
 20 13  1  0  0  0  0
 20 18  1  0  0  0  0
 21 26  2  0  0  0  0
 22 10  1  0  0  0  0
 23 21  1  0  0  0  0
 24 22  1  0  0  0  0
 25 14  1  1  0  0  0
 27  2  1  0  0  0  0
 29 28  1  0  0  0  0
 29 32  1  0  0  0  0
 31 32  1  0  0  0  0
 31 33  1  0  0  0  0
 32 34  1  0  0  0  0
 33 30  1  0  0  0  0
 34 30  1  0  0  0  0
M  END
>  <MODEL>
2

>  <REMARK>
 VINA RESULT:      -8.7      5.286      8.056
  Name = 
  3 active torsions:
  status: ('A' for Active; 'I' for Inactive)
    1  A    between atoms: N_17  and  O_28
    2  A    between atoms: O_28  and  C_29
    3  A    between atoms: C_29  and  C_32
                            x       y       z     vdW  Elec       q    Type
                         _______ _______ _______ _____ _____    ______ ____

>  <TORSDO>
F 3

$$$$
=
 OpenBabel11122412133D

 34 41  0  0  1  0  0  0  0  0999 V2000
  184.4740  178.3380  144.0450 C   0  0  0  0  0  0  0  0  0  0  0  0
  182.3980  179.1060  142.8000 C   0  0  0  0  0  2  0  0  0  0  0  0
  190.9730  177.6130  143.8730 C   0  0  1  0  0  3  0  0  0  0  0  0
  186.5730  177.7520  145.1830 C   0  0  2  0  0  3  0  0  0  0  0  0
  188.3690  176.9940  143.6400 C   0  0  2  0  0  3  0  0  0  0  0  0
  190.2580  175.4810  142.6660 C   0  0  0  0  0  1  0  0  0  0  0  0
  190.4130  177.8770  142.6020 O   0  0  0  0  0  0  0  0  0  0  0  0
  189.9220  178.3220  146.1090 C   0  0  0  0  0  2  0  0  0  0  0  0
  184.2260  178.1020  141.5500 C   0  0  2  0  0  3  0  0  0  0  0  0
  184.5710  179.3450  138.6230 C   0  0  0  0  0  2  0  0  0  0  0  0
  187.5430  177.2660  142.4430 N   0  0  0  0  0  2  0  0  0  0  0  0
  188.8490  177.4160  145.9500 O   0  0  0  0  0  0  0  0  0  0  0  0
  185.6750  178.6260  141.4160 C   0  0  1  0  0  3  0  0  0  0  0  0
  181.9930  179.0900  141.3390 C   0  0  0  0  0  2  0  0  0  0  0  0
  188.0610  177.8600  144.8790 C   0  0  2  0  0  3  0  0  0  0  0  0
  190.5980  178.7700  144.7970 C   0  0  0  0  0  2  0  0  0  0  0  0
  183.8220  179.8270  139.7940 N   0  0  0  0  0  0  0  0  0  0  0  0
  185.7960  178.1310  143.9500 C   0  0  0  0  0  0  0  0  0  0  0  0
  189.8580  176.7940  143.3040 C   0  0  2  0  0  0  0  0  0  0  0  0
  186.5550  178.3350  142.6540 C   0  0  1  0  0  3  0  0  0  0  0  0
  184.6170  178.5460  146.4830 C   0  0  0  0  0  3  0  0  0  0  0  0
  185.4460  178.1170  138.8990 C   0  0  0  0  0  2  0  0  0  0  0  0
  186.1210  178.6120  146.3650 C   0  0  0  0  0  2  0  0  0  0  0  0
  186.3840  178.2990  140.0900 C   0  0  0  0  0  2  0  0  0  0  0  0
  183.2320  178.6860  140.5250 C   0  0  1  0  0  3  0  0  0  0  0  0
  183.8510  178.4460  145.3860 C   0  0  0  0  0  3  0  0  0  0  0  0
  183.6990  178.4760  142.8500 N   0  0  0  0  0  0  0  0  0  0  0  0
  182.8250  180.6040  139.3000 O   0  0  0  0  0  0  0  0  0  0  0  0
  182.2820  179.8640  138.2420 C   0  0  0  0  0  2  0  0  0  0  0  0
  180.6870  182.7260  136.8280 C   0  0  0  0  0  2  0  0  0  0  0  0
  180.8730  180.4050  136.2360 C   0  0  0  0  0  2  0  0  0  0  0  0
  180.9840  180.4900  137.7470 C   0  0  0  0  0  3  0  0  0  0  0  0
  180.2350  181.7050  135.8070 C   0  0  0  0  0  2  0  0  0  0  0  0
  180.8950  181.9610  138.1210 C   0  0  0  0  0  2  0  0  0  0  0  0
  1 26  1  0  0  0  0
  2 27  1  0  0  0  0
  3 16  1  1  0  0  0
  4 23  1  1  0  0  0
  5 11  1  6  0  0  0
  5 15  1  0  0  0  0
  7 19  1  0  0  0  0
  7  3  1  0  0  0  0
  9 27  1  1  0  0  0
 10 22  1  0  0  0  0
 10 17  1  0  0  0  0
 12  8  1  0  0  0  0
 13 24  1  6  0  0  0
 13  9  1  0  0  0  0
 13 20  1  0  0  0  0
 14  2  1  0  0  0  0
 15  4  1  0  0  0  0
 15 12  1  1  0  0  0
 16  8  1  0  0  0  0
 17 25  1  0  0  0  0
 18  1  2  0  0  0  0
 18  4  1  0  0  0  0
 19  6  1  6  0  0  0
 19  5  1  0  0  0  0
 19  3  1  0  0  0  0
 20 11  1  6  0  0  0
 20 18  1  0  0  0  0
 22 24  1  0  0  0  0
 23 21  1  0  0  0  0
 25 14  1  1  0  0  0
 25  9  1  0  0  0  0
 26 21  2  0  0  0  0
 27  1  1  0  0  0  0
 28 17  1  0  0  0  0
 29 28  1  0  0  0  0
 30 34  1  0  0  0  0
 31 32  1  0  0  0  0
 32 34  1  0  0  0  0
 32 29  1  0  0  0  0
 33 31  1  0  0  0  0
 33 30  1  0  0  0  0
M  END
>  <MODEL>
3

>  <REMARK>
 VINA RESULT:      -8.6      4.269      8.439
  Name = 
  3 active torsions:
  status: ('A' for Active; 'I' for Inactive)
    1  A    between atoms: N_17  and  O_28
    2  A    between atoms: O_28  and  C_29
    3  A    between atoms: C_29  and  C_32
                            x       y       z     vdW  Elec       q    Type
                         _______ _______ _______ _____ _____    ______ ____

>  <TORSDO>
F 3

$$$$
=
 OpenBabel11122412133D

 34 41  0  0  1  0  0  0  0  0999 V2000
  187.8710  177.4620  138.1230 C   0  0  0  0  0  0  0  0  0  0  0  0
  186.6590  178.3380  140.1750 C   0  0  0  0  0  2  0  0  0  0  0  0
  192.9300  173.9900  135.8540 C   0  0  1  0  0  3  0  0  0  0  0  0
  189.0670  176.4460  136.2300 C   0  0  2  0  0  3  0  0  0  0  0  0
  191.4980  176.1230  136.6400 C   0  0  2  0  0  3  0  0  0  0  0  0
  194.0700  176.2440  136.2220 C   0  0  0  0  0  1  0  0  0  0  0  0
  193.0520  174.3130  137.2250 O   0  0  0  0  0  0  0  0  0  0  0  0
  190.6990  173.7890  134.5940 C   0  0  0  0  0  2  0  0  0  0  0  0
  189.0820  178.1450  140.2230 C   0  0  2  0  0  3  0  0  0  0  0  0
  190.2190  177.3800  143.1140 C   0  0  0  0  0  2  0  0  0  0  0  0
  191.3900  176.5950  138.0380 N   0  0  0  0  0  2  0  0  0  0  0  0
  190.4560  175.1780  134.6990 O   0  0  0  0  0  0  0  0  0  0  0  0
  189.9270  176.8570  140.0850 C   0  0  1  0  0  3  0  0  0  0  0  0
  187.1240  178.8070  141.5400 C   0  0  0  0  0  2  0  0  0  0  0  0
  190.2270  175.4770  136.0490 C   0  0  2  0  0  3  0  0  0  0  0  0
  191.6320  173.2060  135.6740 C   0  0  0  0  0  2  0  0  0  0  0  0
  188.8560  177.3140  142.5640 N   0  0  0  0  0  0  0  0  0  0  0  0
  188.9590  176.8100  137.6880 C   0  0  0  0  0  0  0  0  0  0  0  0
  192.8240  175.3950  136.3580 C   0  0  2  0  0  0  0  0  0  0  0  0
  190.0620  176.3590  138.6260 C   0  0  1  0  0  3  0  0  0  0  0  0
  186.6290  176.8740  136.0940 C   0  0  0  0  0  3  0  0  0  0  0  0
  191.2950  177.7410  142.0820 C   0  0  0  0  0  2  0  0  0  0  0  0
  187.7260  175.9020  135.7320 C   0  0  0  0  0  2  0  0  0  0  0  0
  191.2660  176.8500  140.8430 C   0  0  0  0  0  2  0  0  0  0  0  0
  188.6160  178.4580  141.6600 C   0  0  1  0  0  3  0  0  0  0  0  0
  186.6920  177.5810  137.2330 C   0  0  0  0  0  3  0  0  0  0  0  0
  187.8630  178.0050  139.4470 N   0  0  0  0  0  0  0  0  0  0  0  0
  188.0230  177.4070  143.6320 O   0  0  0  0  0  0  0  0  0  0  0  0
  188.7860  176.9740  144.7230 C   0  0  0  0  0  2  0  0  0  0  0  0
  186.8820  177.8840  147.6000 C   0  0  0  0  0  2  0  0  0  0  0  0
  189.1750  177.3020  147.1810 C   0  0  0  0  0  2  0  0  0  0  0  0
  188.6320  177.9210  145.9070 C   0  0  0  0  0  3  0  0  0  0  0  0
  188.2280  177.7390  148.2740 C   0  0  0  0  0  2  0  0  0  0  0  0
  187.1730  178.2640  146.1610 C   0  0  0  0  0  2  0  0  0  0  0  0
  1 27  1  0  0  0  0
  2 14  1  0  0  0  0
  3 16  1  1  0  0  0
  3 19  1  0  0  0  0
  3  7  1  0  0  0  0
  4 23  1  1  0  0  0
  4 18  1  0  0  0  0
  5 11  1  1  0  0  0
  8 12  1  0  0  0  0
  8 16  1  0  0  0  0
  9 27  1  6  0  0  0
  9 25  1  0  0  0  0
 11 20  1  0  0  0  0
 13  9  1  0  0  0  0
 13 24  1  6  0  0  0
 15 12  1  6  0  0  0
 15  4  1  0  0  0  0
 15  5  1  0  0  0  0
 17 10  1  0  0  0  0
 17 28  1  0  0  0  0
 18  1  2  0  0  0  0
 19  6  1  6  0  0  0
 19  5  1  0  0  0  0
 19  7  1  0  0  0  0
 20 18  1  6  0  0  0
 20 13  1  0  0  0  0
 21 26  2  0  0  0  0
 22 10  1  0  0  0  0
 23 21  1  0  0  0  0
 24 22  1  0  0  0  0
 25 14  1  6  0  0  0
 25 17  1  0  0  0  0
 26  1  1  0  0  0  0
 27  2  1  0  0  0  0
 28 29  1  0  0  0  0
 29 32  1  0  0  0  0
 30 33  1  0  0  0  0
 31 33  1  0  0  0  0
 32 34  1  0  0  0  0
 32 31  1  0  0  0  0
 34 30  1  0  0  0  0
M  END
>  <MODEL>
4

>  <REMARK>
 VINA RESULT:      -8.5      0.768      1.104
  Name = 
  3 active torsions:
  status: ('A' for Active; 'I' for Inactive)
    1  A    between atoms: N_17  and  O_28
    2  A    between atoms: O_28  and  C_29
    3  A    between atoms: C_29  and  C_32
                            x       y       z     vdW  Elec       q    Type
                         _______ _______ _______ _____ _____    ______ ____

>  <TORSDO>
F 3

$$$$
=
 OpenBabel11122412133D

 34 41  0  0  1  0  0  0  0  0999 V2000
  186.9990  177.6400  138.2300 C   0  0  0  0  0  0  0  0  0  0  0  0
  185.9340  178.5860  140.3320 C   0  0  0  0  0  2  0  0  0  0  0  0
  191.7630  173.9120  135.7410 C   0  0  1  0  0  3  0  0  0  0  0  0
  188.0480  176.5550  136.2880 C   0  0  2  0  0  3  0  0  0  0  0  0
  190.4770  176.1160  136.5790 C   0  0  2  0  0  3  0  0  0  0  0  0
  193.0290  176.1090  136.0340 C   0  0  0  0  0  1  0  0  0  0  0  0
  191.9690  174.2360  137.1010 O   0  0  0  0  0  0  0  0  0  0  0  0
  189.4650  173.8130  134.5940 C   0  0  0  0  0  2  0  0  0  0  0  0
  188.3440  178.2740  140.2620 C   0  0  2  0  0  3  0  0  0  0  0  0
  189.5860  177.4720  143.0980 C   0  0  0  0  0  2  0  0  0  0  0  0
  190.4620  176.6010  137.9770 N   0  0  0  0  0  2  0  0  0  0  0  0
  189.2950  175.2120  134.7010 O   0  0  0  0  0  0  0  0  0  0  0  0
  189.1180  176.9460  140.0920 C   0  0  1  0  0  3  0  0  0  0  0  0
  186.4880  179.0390  141.6680 C   0  0  0  0  0  2  0  0  0  0  0  0
  189.1490  175.5300  136.0580 C   0  0  2  0  0  3  0  0  0  0  0  0
  190.4220  173.1910  135.6320 C   0  0  0  0  0  2  0  0  0  0  0  0
  188.1950  177.4690  142.6180 N   0  0  0  0  0  0  0  0  0  0  0  0
  188.0310  176.9320  137.7460 C   0  0  0  0  0  0  0  0  0  0  0  0
  191.7510  175.3230  136.2380 C   0  0  2  0  0  0  0  0  0  0  0  0
  189.1550  176.4340  138.6320 C   0  0  1  0  0  3  0  0  0  0  0  0
  185.6300  177.1010  136.2700 C   0  0  0  0  0  3  0  0  0  0  0  0
  190.6250  177.7730  142.0120 C   0  0  0  0  0  2  0  0  0  0  0  0
  186.6580  176.0750  135.8620 C   0  0  0  0  0  2  0  0  0  0  0  0
  190.4910  176.8780  140.7830 C   0  0  0  0  0  2  0  0  0  0  0  0
  187.9660  178.6180  141.7170 C   0  0  1  0  0  3  0  0  0  0  0  0
  185.7840  177.8110  137.3980 C   0  0  0  0  0  3  0  0  0  0  0  0
  187.0830  178.1900  139.5480 N   0  0  0  0  0  0  0  0  0  0  0  0
  187.4210  177.6080  143.7240 O   0  0  0  0  0  0  0  0  0  0  0  0
  188.2900  178.0890  144.7120 C   0  0  0  0  0  2  0  0  0  0  0  0
  189.1210  177.8570  148.1740 C   0  0  0  0  0  2  0  0  0  0  0  0
  187.0890  178.1040  146.9170 C   0  0  0  0  0  2  0  0  0  0  0  0
  188.0720  177.3610  146.0330 C   0  0  0  0  0  3  0  0  0  0  0  0
  187.6190  177.9510  148.3230 C   0  0  0  0  0  2  0  0  0  0  0  0
  189.3690  177.2280  146.8160 C   0  0  0  0  0  2  0  0  0  0  0  0
  1 27  1  0  0  0  0
  2 14  1  0  0  0  0
  3 16  1  1  0  0  0
  3 19  1  0  0  0  0
  3  7  1  0  0  0  0
  4 23  1  1  0  0  0
  4 18  1  0  0  0  0
  5 11  1  1  0  0  0
  8 12  1  0  0  0  0
  8 16  1  0  0  0  0
  9 27  1  6  0  0  0
  9 25  1  0  0  0  0
 11 20  1  0  0  0  0
 13  9  1  0  0  0  0
 13 24  1  6  0  0  0
 15 12  1  6  0  0  0
 15  4  1  0  0  0  0
 15  5  1  0  0  0  0
 17 10  1  0  0  0  0
 17 28  1  0  0  0  0
 18  1  2  0  0  0  0
 19  6  1  6  0  0  0
 19  5  1  0  0  0  0
 19  7  1  0  0  0  0
 20 18  1  6  0  0  0
 20 13  1  0  0  0  0
 21 26  2  0  0  0  0
 22 10  1  0  0  0  0
 23 21  1  0  0  0  0
 24 22  1  0  0  0  0
 25 14  1  6  0  0  0
 25 17  1  0  0  0  0
 26  1  1  0  0  0  0
 27  2  1  0  0  0  0
 28 29  1  0  0  0  0
 29 32  1  0  0  0  0
 30 33  1  0  0  0  0
 31 33  1  0  0  0  0
 32 34  1  0  0  0  0
 32 31  1  0  0  0  0
 34 30  1  0  0  0  0
M  END
>  <MODEL>
5

>  <REMARK>
 VINA RESULT:      -8.4      0.845      1.009
  Name = 
  3 active torsions:
  status: ('A' for Active; 'I' for Inactive)
    1  A    between atoms: N_17  and  O_28
    2  A    between atoms: O_28  and  C_29
    3  A    between atoms: C_29  and  C_32
                            x       y       z     vdW  Elec       q    Type
                         _______ _______ _______ _____ _____    ______ ____

>  <TORSDO>
F 3

$$$$
=
 OpenBabel11122412133D

 34 41  0  0  1  0  0  0  0  0999 V2000
  186.4440  178.0490  143.7810 C   0  0  0  0  0  0  0  0  0  0  0  0
  185.8590  178.5440  141.3600 C   0  0  0  0  0  2  0  0  0  0  0  0
  191.2200  177.2830  148.1850 C   0  0  1  0  0  3  0  0  0  0  0  0
  187.1430  177.7090  146.1140 C   0  0  2  0  0  3  0  0  0  0  0  0
  189.3750  176.6370  146.3430 C   0  0  2  0  0  3  0  0  0  0  0  0
  191.1870  174.9460  147.1570 C   0  0  0  0  0  1  0  0  0  0  0  0
  191.6910  177.2750  146.8520 O   0  0  0  0  0  0  0  0  0  0  0  0
  189.0690  178.4510  148.9670 C   0  0  0  0  0  2  0  0  0  0  0  0
  187.8840  177.2930  141.8580 C   0  0  2  0  0  3  0  0  0  0  0  0
  190.2610  177.8900  139.8030 C   0  0  0  0  0  2  0  0  0  0  0  0
  189.6030  176.6530  144.8810 N   0  0  0  0  0  2  0  0  0  0  0  0
  188.2550  177.5350  148.2620 O   0  0  0  0  0  0  0  0  0  0  0  0
  189.1120  177.7720  142.6660 C   0  0  1  0  0  3  0  0  0  0  0  0
  186.5290  178.2220  140.0390 C   0  0  0  0  0  2  0  0  0  0  0  0
  188.4520  177.7460  146.8900 C   0  0  2  0  0  3  0  0  0  0  0  0
  190.5010  178.6100  148.4160 C   0  0  0  0  0  2  0  0  0  0  0  0
  189.0050  178.6100  140.0600 N   0  0  0  0  0  0  0  0  0  0  0  0
  187.4460  177.8230  144.6430 C   0  0  0  0  0  0  0  0  0  0  0  0
  190.6610  176.3660  147.1430 C   0  0  2  0  0  0  0  0  0  0  0  0
  188.8940  177.7460  144.1980 C   0  0  1  0  0  3  0  0  0  0  0  0
  184.9610  178.7650  145.5960 C   0  0  0  0  0  3  0  0  0  0  0  0
  190.5410  176.7450  140.7830 C   0  0  0  0  0  2  0  0  0  0  0  0
  186.1520  178.8000  146.5230 C   0  0  0  0  0  2  0  0  0  0  0  0
  190.4650  177.1710  142.2470 C   0  0  0  0  0  2  0  0  0  0  0  0
  187.9200  177.6510  140.3580 C   0  0  1  0  0  3  0  0  0  0  0  0
  185.1120  178.4390  144.3030 C   0  0  0  0  0  3  0  0  0  0  0  0
  186.6890  177.9350  142.3750 N   0  0  0  0  0  0  0  0  0  0  0  0
  188.7130  179.2690  138.9100 O   0  0  0  0  0  0  0  0  0  0  0  0
  189.5450  178.6900  137.9430 C   0  0  0  0  0  2  0  0  0  0  0  0
  187.0530  176.4650  136.6890 C   0  0  0  0  0  2  0  0  0  0  0  0
  187.3570  178.8480  136.7230 C   0  0  0  0  0  2  0  0  0  0  0  0
  188.7390  178.2230  136.7380 C   0  0  0  0  0  3  0  0  0  0  0  0
  186.4310  177.7640  136.2250 C   0  0  0  0  0  2  0  0  0  0  0  0
  188.5490  176.7140  136.7440 C   0  0  0  0  0  2  0  0  0  0  0  0
  1 26  1  0  0  0  0
  1 18  2  0  0  0  0
  2 27  1  0  0  0  0
  3 16  1  6  0  0  0
  4 23  1  1  0  0  0
  4 15  1  0  0  0  0
  5 11  1  6  0  0  0
  5 15  1  0  0  0  0
  5 19  1  0  0  0  0
  7 19  1  0  0  0  0
  7  3  1  0  0  0  0
  9 27  1  1  0  0  0
  9 13  1  0  0  0  0
 10 17  1  0  0  0  0
 10 22  1  0  0  0  0
 12  8  1  0  0  0  0
 13 24  1  1  0  0  0
 13 20  1  0  0  0  0
 14  2  1  0  0  0  0
 15 12  1  1  0  0  0
 16  8  1  0  0  0  0
 17 25  1  0  0  0  0
 18  4  1  0  0  0  0
 19  6  1  1  0  0  0
 19  3  1  0  0  0  0
 20 18  1  6  0  0  0
 20 11  1  0  0  0  0
 21 23  1  0  0  0  0
 22 24  1  0  0  0  0
 25 14  1  1  0  0  0
 25  9  1  0  0  0  0
 26 21  2  0  0  0  0
 27  1  1  0  0  0  0
 28 17  1  0  0  0  0
 29 28  1  0  0  0  0
 30 34  1  0  0  0  0
 31 32  1  0  0  0  0
 32 34  1  0  0  0  0
 32 29  1  0  0  0  0
 33 30  1  0  0  0  0
 33 31  1  0  0  0  0
M  END
>  <MODEL>
6

>  <REMARK>
 VINA RESULT:      -8.3      2.732      8.631
  Name = 
  3 active torsions:
  status: ('A' for Active; 'I' for Inactive)
    1  A    between atoms: N_17  and  O_28
    2  A    between atoms: O_28  and  C_29
    3  A    between atoms: C_29  and  C_32
                            x       y       z     vdW  Elec       q    Type
                         _______ _______ _______ _____ _____    ______ ____

>  <TORSDO>
F 3

$$$$
=
 OpenBabel11122412133D

 34 41  0  0  1  0  0  0  0  0999 V2000
  187.2310  178.2340  141.6100 C   0  0  0  0  0  0  0  0  0  0  0  0
  189.6060  177.4650  141.1490 C   0  0  0  0  0  2  0  0  0  0  0  0
  181.1870  178.9840  139.2210 C   0  0  1  0  0  3  0  0  0  0  0  0
  184.8690  178.8210  141.9620 C   0  0  2  0  0  3  0  0  0  0  0  0
  183.7130  179.5950  139.9010 C   0  0  2  0  0  3  0  0  0  0  0  0
  182.2760  181.1210  138.3470 C   0  0  0  0  0  1  0  0  0  0  0  0
  182.1490  178.7250  138.2180 O   0  0  0  0  0  0  0  0  0  0  0  0
  181.4050  178.2580  141.6770 C   0  0  0  0  0  2  0  0  0  0  0  0
  188.3210  178.4830  139.3540 C   0  0  2  0  0  3  0  0  0  0  0  0
  189.0000  177.2580  136.4780 C   0  0  0  0  0  2  0  0  0  0  0  0
  184.9000  179.3270  139.0580 N   0  0  0  0  0  2  0  0  0  0  0  0
  182.4690  179.1610  141.9030 O   0  0  0  0  0  0  0  0  0  0  0  0
  187.0060  177.9650  138.7260 C   0  0  1  0  0  3  0  0  0  0  0  0
  190.4890  177.4880  139.9160 C   0  0  0  0  0  2  0  0  0  0  0  0
  183.5760  178.7210  141.1640 C   0  0  2  0  0  3  0  0  0  0  0  0
  181.2200  177.8200  140.2100 C   0  0  0  0  0  2  0  0  0  0  0  0
  189.3000  176.7670  137.8310 N   0  0  0  0  0  0  0  0  0  0  0  0
  186.0220  178.4460  141.0690 C   0  0  0  0  0  0  0  0  0  0  0  0
  182.4310  179.8020  139.0750 C   0  0  2  0  0  0  0  0  0  0  0  0
  185.7530  178.2520  139.5890 C   0  0  1  0  0  3  0  0  0  0  0  0
  186.2580  178.0120  143.8490 C   0  0  0  0  0  3  0  0  0  0  0  0
  188.0850  178.4880  136.4450 C   0  0  0  0  0  2  0  0  0  0  0  0
  184.8870  177.9530  143.2220 C   0  0  0  0  0  2  0  0  0  0  0  0
  186.7950  178.3020  137.2400 C   0  0  0  0  0  2  0  0  0  0  0  0
  189.6050  177.9010  138.7290 C   0  0  1  0  0  3  0  0  0  0  0  0
  187.3550  178.1150  143.0830 C   0  0  0  0  0  3  0  0  0  0  0  0
  188.3690  178.0990  140.7530 N   0  0  0  0  0  0  0  0  0  0  0  0
  190.4050  175.9890  137.7050 O   0  0  0  0  0  0  0  0  0  0  0  0
  190.8090  176.1500  136.3740 C   0  0  0  0  0  2  0  0  0  0  0  0
  193.8800  175.2410  137.9460 C   0  0  0  0  0  2  0  0  0  0  0  0
  192.4470  174.2500  136.2920 C   0  0  0  0  0  2  0  0  0  0  0  0
  192.2690  175.7530  136.1930 C   0  0  0  0  0  3  0  0  0  0  0  0
  193.7530  174.0490  137.0240 C   0  0  0  0  0  2  0  0  0  0  0  0
  193.1540  176.3810  137.2580 C   0  0  0  0  0  2  0  0  0  0  0  0
  1 26  1  0  0  0  0
  3 16  1  1  0  0  0
  4 23  1  1  0  0  0
  5 11  1  6  0  0  0
  5 15  1  0  0  0  0
  7 19  1  0  0  0  0
  7  3  1  0  0  0  0
  8 12  1  0  0  0  0
  9 27  1  1  0  0  0
 10 17  1  0  0  0  0
 13 24  1  6  0  0  0
 13  9  1  0  0  0  0
 13 20  1  0  0  0  0
 14  2  1  0  0  0  0
 15 12  1  1  0  0  0
 15  4  1  0  0  0  0
 16  8  1  0  0  0  0
 17 25  1  0  0  0  0
 18  1  2  0  0  0  0
 18  4  1  0  0  0  0
 19  6  1  6  0  0  0
 19  3  1  0  0  0  0
 19  5  1  0  0  0  0
 20 11  1  6  0  0  0
 20 18  1  0  0  0  0
 22 10  1  0  0  0  0
 22 24  1  0  0  0  0
 23 21  1  0  0  0  0
 25  9  1  0  0  0  0
 25 14  1  1  0  0  0
 26 21  2  0  0  0  0
 27  2  1  0  0  0  0
 27  1  1  0  0  0  0
 28 17  1  0  0  0  0
 29 28  1  0  0  0  0
 31 33  1  0  0  0  0
 32 31  1  0  0  0  0
 32 29  1  0  0  0  0
 32 34  1  0  0  0  0
 33 30  1  0  0  0  0
 34 30  1  0  0  0  0
M  END
>  <MODEL>
7

>  <REMARK>
 VINA RESULT:      -7.7      2.772      8.655
  Name = 
  3 active torsions:
  status: ('A' for Active; 'I' for Inactive)
    1  A    between atoms: N_17  and  O_28
    2  A    between atoms: O_28  and  C_29
    3  A    between atoms: C_29  and  C_32
                            x       y       z     vdW  Elec       q    Type
                         _______ _______ _______ _____ _____    ______ ____

>  <TORSDO>
F 3

$$$$
=
 OpenBabel11122412133D

 34 41  0  0  1  0  0  0  0  0999 V2000
  188.8050  178.0650  141.5940 C   0  0  0  0  0  0  0  0  0  0  0  0
  187.0200  178.3390  139.8090 C   0  0  0  0  0  2  0  0  0  0  0  0
  190.0940  176.4970  147.8130 C   0  0  1  0  0  3  0  0  0  0  0  0
  190.4430  177.6390  143.3780 C   0  0  2  0  0  3  0  0  0  0  0  0
  189.5510  178.0190  145.6670 C   0  0  2  0  0  3  0  0  0  0  0  0
  189.4230  178.9430  148.1040 C   0  0  0  0  0  1  0  0  0  0  0  0
  188.7180  176.7090  147.5710 O   0  0  0  0  0  0  0  0  0  0  0  0
  191.7950  175.7610  146.0320 C   0  0  0  0  0  2  0  0  0  0  0  0
  186.4780  178.8740  142.1180 C   0  0  2  0  0  3  0  0  0  0  0  0
  183.4430  178.2120  142.8770 C   0  0  0  0  0  2  0  0  0  0  0  0
  188.1900  178.3020  145.1590 N   0  0  0  0  0  2  0  0  0  0  0  0
  191.6950  176.9960  145.3530 O   0  0  0  0  0  0  0  0  0  0  0  0
  186.4820  177.9170  143.3330 C   0  0  1  0  0  3  0  0  0  0  0  0
  185.5740  178.7920  139.8410 C   0  0  0  0  0  2  0  0  0  0  0  0
  190.4120  177.0830  144.7950 C   0  0  2  0  0  3  0  0  0  0  0  0
  190.5650  175.3820  146.8820 C   0  0  0  0  0  2  0  0  0  0  0  0
  184.2640  177.7940  141.7310 N   0  0  0  0  0  0  0  0  0  0  0  0
  189.0280  177.8130  142.8930 C   0  0  0  0  0  0  0  0  0  0  0  0
  189.5760  177.7510  147.1820 C   0  0  2  0  0  0  0  0  0  0  0  0
  187.8980  177.6240  143.8860 C   0  0  1  0  0  3  0  0  0  0  0  0
  191.0650  177.3300  140.9990 C   0  0  0  0  0  3  0  0  0  0  0  0
  184.2170  178.9740  143.9590 C   0  0  0  0  0  2  0  0  0  0  0  0
  191.2250  176.7690  142.3910 C   0  0  0  0  0  2  0  0  0  0  0  0
  185.4640  178.2380  144.4410 C   0  0  0  0  0  2  0  0  0  0  0  0
  185.1600  178.8950  141.3180 C   0  0  1  0  0  3  0  0  0  0  0  0
  189.9160  177.9110  140.6240 C   0  0  0  0  0  3  0  0  0  0  0  0
  187.4940  178.4520  141.1700 N   0  0  0  0  0  0  0  0  0  0  0  0
  183.3900  177.5310  140.7260 O   0  0  0  0  0  0  0  0  0  0  0  0
  182.2600  178.3040  141.0200 C   0  0  0  0  0  2  0  0  0  0  0  0
  180.4060  175.4850  139.8590 C   0  0  0  0  0  2  0  0  0  0  0  0
  179.9190  177.4160  141.2040 C   0  0  0  0  0  2  0  0  0  0  0  0
  181.0400  177.8030  140.2580 C   0  0  0  0  0  3  0  0  0  0  0  0
  179.2860  176.1880  140.5940 C   0  0  0  0  0  2  0  0  0  0  0  0
  181.3690  176.5740  139.4250 C   0  0  0  0  0  2  0  0  0  0  0  0
  1 18  2  0  0  0  0
  2 14  1  0  0  0  0
  2 27  1  0  0  0  0
  3 16  1  6  0  0  0
  4 23  1  6  0  0  0
  4 15  1  0  0  0  0
  5 11  1  6  0  0  0
  5 19  1  0  0  0  0
  7  3  1  0  0  0  0
  8 16  1  0  0  0  0
  9 27  1  6  0  0  0
  9 13  1  0  0  0  0
 10 22  1  0  0  0  0
 12  8  1  0  0  0  0
 13 20  1  0  0  0  0
 13 24  1  1  0  0  0
 15 12  1  1  0  0  0
 15  5  1  0  0  0  0
 17 10  1  0  0  0  0
 18  4  1  0  0  0  0
 19  7  1  0  0  0  0
 19  3  1  0  0  0  0
 19  6  1  1  0  0  0
 20 18  1  6  0  0  0
 20 11  1  0  0  0  0
 21 23  1  0  0  0  0
 22 24  1  0  0  0  0
 25 14  1  6  0  0  0
 25 17  1  0  0  0  0
 25  9  1  0  0  0  0
 26 21  2  0  0  0  0
 26  1  1  0  0  0  0
 27  1  1  0  0  0  0
 28 29  1  0  0  0  0
 28 17  1  0  0  0  0
 30 33  1  0  0  0  0
 32 29  1  0  0  0  0
 32 31  1  0  0  0  0
 33 31  1  0  0  0  0
 34 30  1  0  0  0  0
 34 32  1  0  0  0  0
M  END
>  <MODEL>
8

>  <REMARK>
 VINA RESULT:      -7.6      4.071      7.850
  Name = 
  3 active torsions:
  status: ('A' for Active; 'I' for Inactive)
    1  A    between atoms: N_17  and  O_28
    2  A    between atoms: O_28  and  C_29
    3  A    between atoms: C_29  and  C_32
                            x       y       z     vdW  Elec       q    Type
                         _______ _______ _______ _____ _____    ______ ____

>  <TORSDO>
F 3

$$$$
=
 OpenBabel11122412133D

 34 41  0  0  1  0  0  0  0  0999 V2000
  181.3280  178.4970  141.8990 C   0  0  0  0  0  0  0  0  0  0  0  0
  182.5410  179.1340  144.0370 C   0  0  0  0  0  2  0  0  0  0  0  0
  181.7370  175.5410  136.0780 C   0  0  1  0  0  3  0  0  0  0  0  0
  180.2390  177.7070  139.8410 C   0  0  2  0  0  3  0  0  0  0  0  0
  181.7850  177.5110  137.9040 C   0  0  2  0  0  3  0  0  0  0  0  0
  182.6990  177.8290  135.4800 C   0  0  0  0  0  1  0  0  0  0  0  0
  182.9990  175.7650  136.6730 O   0  0  0  0  0  0  0  0  0  0  0  0
  179.5330  175.2940  137.3760 C   0  0  0  0  0  2  0  0  0  0  0  0
  183.7740  179.0940  141.9420 C   0  0  2  0  0  3  0  0  0  0  0  0
  186.8200  178.1860  142.3000 C   0  0  0  0  0  2  0  0  0  0  0  0
  182.9630  177.8670  138.7260 N   0  0  0  0  0  2  0  0  0  0  0  0
  179.5520  176.6520  137.7690 O   0  0  0  0  0  0  0  0  0  0  0  0
  184.0270  177.8770  141.0210 C   0  0  1  0  0  3  0  0  0  0  0  0
  183.9730  179.5260  144.3460 C   0  0  0  0  0  2  0  0  0  0  0  0
  180.6230  176.8310  138.6550 C   0  0  2  0  0  3  0  0  0  0  0  0
  180.9120  174.6910  137.0410 C   0  0  0  0  0  2  0  0  0  0  0  0
  185.6670  178.0740  143.2060 N   0  0  0  0  0  0  0  0  0  0  0  0
  181.4650  177.9510  140.6820 C   0  0  0  0  0  0  0  0  0  0  0  0
  182.1710  176.8930  136.5480 C   0  0  2  0  0  0  0  0  0  0  0  0
  182.8090  177.5020  140.1430 C   0  0  1  0  0  3  0  0  0  0  0  0
  178.9310  177.9860  141.9280 C   0  0  0  0  0  3  0  0  0  0  0  0
  186.4690  178.6920  140.8960 C   0  0  0  0  0  2  0  0  0  0  0  0
  179.1250  177.1170  140.7090 C   0  0  0  0  0  2  0  0  0  0  0  0
  185.3470  177.8990  140.2310 C   0  0  0  0  0  2  0  0  0  0  0  0
  184.8020  179.2660  143.0790 C   0  0  1  0  0  3  0  0  0  0  0  0
  179.9760  178.6070  142.4970 C   0  0  0  0  0  3  0  0  0  0  0  0
  182.4930  178.9360  142.6060 N   0  0  0  0  0  0  0  0  0  0  0  0
  186.1850  178.0310  144.4600 O   0  0  0  0  0  0  0  0  0  0  0  0
  187.4630  177.4790  144.3030 C   0  0  0  0  0  2  0  0  0  0  0  0
  188.6710  176.9240  147.6140 C   0  0  0  0  0  2  0  0  0  0  0  0
  189.6710  177.1150  145.4380 C   0  0  0  0  0  2  0  0  0  0  0  0
  188.3970  177.9370  145.4160 C   0  0  0  0  0  3  0  0  0  0  0  0
  190.0040  176.9300  146.9000 C   0  0  0  0  0  2  0  0  0  0  0  0
  187.7470  177.7950  146.7830 C   0  0  0  0  0  2  0  0  0  0  0  0
  1 26  1  0  0  0  0
  1 27  1  0  0  0  0
  2 14  1  0  0  0  0
  3 19  1  0  0  0  0
  3  7  1  0  0  0  0
  3 16  1  1  0  0  0
  4 18  1  0  0  0  0
  4 23  1  1  0  0  0
  5 15  1  0  0  0  0
  5 11  1  1  0  0  0
  8 12  1  0  0  0  0
  9 27  1  1  0  0  0
  9 25  1  0  0  0  0
 10 17  1  0  0  0  0
 13 24  1  6  0  0  0
 13  9  1  0  0  0  0
 15 12  1  6  0  0  0
 15  4  1  0  0  0  0
 16  8  1  0  0  0  0
 17 28  1  0  0  0  0
 18  1  2  0  0  0  0
 19  6  1  6  0  0  0
 19  7  1  0  0  0  0
 19  5  1  0  0  0  0
 20 11  1  6  0  0  0
 20 18  1  0  0  0  0
 20 13  1  0  0  0  0
 21 26  2  0  0  0  0
 22 10  1  0  0  0  0
 23 21  1  0  0  0  0
 24 22  1  0  0  0  0
 25 17  1  0  0  0  0
 25 14  1  1  0  0  0
 27  2  1  0  0  0  0
 29 28  1  0  0  0  0
 29 32  1  0  0  0  0
 31 33  1  0  0  0  0
 32 31  1  0  0  0  0
 32 34  1  0  0  0  0
 33 30  1  0  0  0  0
 34 30  1  0  0  0  0
M  END
>  <MODEL>
9

>  <REMARK>
 VINA RESULT:      -7.5      5.148      7.390
  Name = 
  3 active torsions:
  status: ('A' for Active; 'I' for Inactive)
    1  A    between atoms: N_17  and  O_28
    2  A    between atoms: O_28  and  C_29
    3  A    between atoms: C_29  and  C_32
                            x       y       z     vdW  Elec       q    Type
                         _______ _______ _______ _____ _____    ______ ____

>  <TORSDO>
F 3

$$$$
