=
 OpenBabel11122411273D

 37 43  0  0  1  0  0  0  0  0999 V2000
  181.1150  179.8150  140.0850 C   0  0  0  0  0  2  0  0  0  0  0  0
  185.3680  178.8090  143.0880 C   0  0  0  0  0  0  0  0  0  0  0  0
  184.3290  178.3160  138.9200 C   0  0  1  0  0  3  0  0  0  0  0  0
  179.7470  179.9970  139.6100 N   0  0  0  0  0  0  0  0  0  0  0  0
  181.7890  175.3330  139.3840 C   0  0  0  0  0  2  0  0  0  0  0  0
  186.1220  178.3700  140.7130 C   0  0  1  0  0  3  0  0  0  0  0  0
  182.9920  177.6220  139.1880 C   0  0  1  0  0  3  0  0  0  0  0  0
  179.5200  177.9910  138.1980 C   0  0  0  0  0  0  0  0  0  0  0  0
  184.7600  178.9110  140.2560 C   0  0  2  0  0  3  0  0  0  0  0  0
  182.9690  176.1230  138.7970 C   0  0  2  0  0  3  0  0  0  0  0  0
  187.1310  178.6640  139.6970 N   0  0  0  0  0  2  0  0  0  0  0  0
  179.7070  179.4840  138.2480 C   0  0  0  0  0  2  0  0  0  0  0  0
  183.6820  178.7430  141.2510 N   0  0  2  0  0  0  0  0  0  0  0  0
  184.9700  180.1640  143.6410 C   0  0  0  0  0  1  0  0  0  0  0  0
  185.1150  176.9570  136.8800 C   0  0  0  0  0  2  0  0  0  0  0  0
  186.8230  178.0160  138.4070 C   0  0  0  0  0  2  0  0  0  0  0  0
  184.1310  178.1090  142.4990 C   0  0  0  0  0  2  0  0  0  0  0  0
  180.0910  177.1130  139.1850 N   0  0  0  0  0  0  0  0  0  0  0  0
  180.4270  175.7420  138.8170 C   0  0  0  0  0  2  0  0  0  0  0  0
  185.4150  177.3980  138.3170 C   0  0  1  0  0  3  0  0  0  0  0  0
  182.6660  177.8710  140.6650 C   0  0  1  0  0  3  0  0  0  0  0  0
  186.4850  179.0020  142.0480 C   0  0  0  0  0  2  0  0  0  0  0  0
  183.0660  175.9190  137.2700 C   0  0  1  0  0  3  0  0  0  0  0  0
  185.9040  177.9640  144.2240 C   0  0  0  0  0  1  0  0  0  0  0  0
  180.1510  177.4880  140.5950 C   0  0  0  0  0  2  0  0  0  0  0  0
  178.9330  177.5030  137.1970 O   0  0  0  0  0  0  0  0  0  0  0  0
  181.2750  178.4960  140.8550 C   0  0  2  0  0  3  0  0  0  0  0  0
  183.7370  176.9570  136.5750 O   0  0  0  0  0  0  0  0  0  0  0  0
  184.6120  173.9540  137.4200 C   0  0  0  0  0  3  0  0  0  0  0  0
  183.4780  174.5350  136.8430 C   0  0  0  0  0  0  0  0  0  0  0  0
  182.7310  173.8130  135.9020 C   0  0  0  0  0  3  0  0  0  0  0  0
  182.3860  171.8120  134.5990 O   0  0  0  0  0  1  0  0  0  0  0  0
  184.2630  171.9490  136.1090 C   0  0  0  0  0  3  0  0  0  0  0  0
  183.1250  172.5230  135.5340 C   0  0  0  0  0  0  0  0  0  0  0  0
  185.0060  172.6640  137.0530 C   0  0  0  0  0  3  0  0  0  0  0  0
  180.5090  182.0110  138.7220 O   0  0  0  0  0  1  0  0  0  0  0  0
  179.5210  181.4290  139.5160 C   0  0  0  0  0  2  0  0  0  0  0  0
  1 27  1  0  0  0  0
  2 14  1  0  0  0  0
  2 24  1  0  0  0  0
  3  7  1  0  0  0  0
  3  9  1  0  0  0  0
  4  1  1  0  0  0  0
  6 22  1  0  0  0  0
  7 21  1  0  0  0  0
  8 12  1  0  0  0  0
  8 18  1  0  0  0  0
  9  6  1  0  0  0  0
  9 13  1  0  0  0  0
 10  7  1  0  0  0  0
 10  5  1  0  0  0  0
 11  6  1  0  0  0  0
 12  4  1  0  0  0  0
 13 17  1  0  0  0  0
 15 20  1  0  0  0  0
 16 11  1  0  0  0  0
 17  2  1  0  0  0  0
 18 25  1  0  0  0  0
 19 18  1  0  0  0  0
 19  5  1  0  0  0  0
 20 16  1  0  0  0  0
 20  3  1  0  0  0  0
 21 27  1  0  0  0  0
 21 13  1  0  0  0  0
 22  2  1  0  0  0  0
 23 10  1  0  0  0  0
 25 27  1  0  0  0  0
 26  8  2  0  0  0  0
 28 15  1  0  0  0  0
 28 23  1  0  0  0  0
 30 23  1  0  0  0  0
 30 29  2  0  0  0  0
 31 30  1  0  0  0  0
 32 34  1  0  0  0  0
 33 35  2  0  0  0  0
 34 31  2  0  0  0  0
 34 33  1  0  0  0  0
 35 29  1  0  0  0  0
 36 37  1  0  0  0  0
 37  4  1  0  0  0  0
M  END
>  <MODEL>
1

>  <REMARK>
 VINA RESULT:      -6.7      0.000      0.000
  Name = 
  2 active torsions:
  status: ('A' for Active; 'I' for Inactive)
    1  A    between atoms: N_4  and  C_37
    2  A    between atoms: C_23  and  C_30
                            x       y       z     vdW  Elec       q    Type
                         _______ _______ _______ _____ _____    ______ ____

>  <TORSDO>
F 2

$$$$
=
 OpenBabel11122411273D

 37 43  0  0  1  0  0  0  0  0999 V2000
  181.1130  179.7070  140.2280 C   0  0  0  0  0  2  0  0  0  0  0  0
  185.4560  178.5390  143.0360 C   0  0  0  0  0  0  0  0  0  0  0  0
  184.3410  178.4290  138.8600 C   0  0  1  0  0  3  0  0  0  0  0  0
  179.7300  179.8940  139.7990 N   0  0  0  0  0  0  0  0  0  0  0  0
  181.8980  175.3390  139.0720 C   0  0  0  0  0  2  0  0  0  0  0  0
  186.1710  178.3590  140.6160 C   0  0  1  0  0  3  0  0  0  0  0  0
  183.0310  177.6720  139.0820 C   0  0  1  0  0  3  0  0  0  0  0  0
  179.5300  178.0320  138.1990 C   0  0  0  0  0  0  0  0  0  0  0  0
  184.7850  178.9010  140.2400 C   0  0  2  0  0  3  0  0  0  0  0  0
  183.0420  176.2190  138.5450 C   0  0  2  0  0  3  0  0  0  0  0  0
  187.1490  178.7830  139.6150 N   0  0  0  0  0  2  0  0  0  0  0  0
  179.6750  179.5170  138.3930 C   0  0  0  0  0  2  0  0  0  0  0  0
  183.7330  178.6040  141.2340 N   0  0  2  0  0  0  0  0  0  0  0  0
  185.0320  179.8190  143.7280 C   0  0  0  0  0  1  0  0  0  0  0  0
  185.1220  177.3030  136.6800 C   0  0  0  0  0  2  0  0  0  0  0  0
  186.8320  178.2560  138.2730 C   0  0  0  0  0  2  0  0  0  0  0  0
  184.2270  177.8630  142.4040 C   0  0  0  0  0  2  0  0  0  0  0  0
  180.1460  177.0780  139.0830 N   0  0  0  0  0  0  0  0  0  0  0  0
  180.5130  175.7610  138.5740 C   0  0  0  0  0  2  0  0  0  0  0  0
  185.4400  177.6090  138.1480 C   0  0  1  0  0  3  0  0  0  0  0  0
  182.7300  177.7640  140.5820 C   0  0  1  0  0  3  0  0  0  0  0  0
  186.5440  178.8670  142.0000 C   0  0  0  0  0  2  0  0  0  0  0  0
  183.1120  176.1700  137.0030 C   0  0  1  0  0  3  0  0  0  0  0  0
  186.0410  177.6010  144.0720 C   0  0  0  0  0  1  0  0  0  0  0  0
  180.2260  177.3130  140.5220 C   0  0  0  0  0  2  0  0  0  0  0  0
  178.9350  177.6280  137.1660 O   0  0  0  0  0  0  0  0  0  0  0  0
  181.3260  178.3240  140.8590 C   0  0  2  0  0  3  0  0  0  0  0  0
  183.7380  177.2910  136.4020 O   0  0  0  0  0  0  0  0  0  0  0  0
  182.8600  174.3100  135.3440 C   0  0  0  0  0  3  0  0  0  0  0  0
  183.5540  174.8480  136.4330 C   0  0  0  0  0  0  0  0  0  0  0  0
  184.6610  174.1650  136.9560 C   0  0  0  0  0  3  0  0  0  0  0  0
  186.1570  172.2720  136.9220 O   0  0  0  0  0  1  0  0  0  0  0  0
  184.3620  172.4110  135.3150 C   0  0  0  0  0  3  0  0  0  0  0  0
  185.0620  172.9480  136.3990 C   0  0  0  0  0  0  0  0  0  0  0  0
  183.2610  173.0930  134.7870 C   0  0  0  0  0  3  0  0  0  0  0  0
  179.9700  181.9380  138.7100 O   0  0  0  0  0  1  0  0  0  0  0  0
  179.4610  181.3200  139.8530 C   0  0  0  0  0  2  0  0  0  0  0  0
  1 27  1  0  0  0  0
  2 14  1  0  0  0  0
  2 24  1  0  0  0  0
  3  7  1  0  0  0  0
  3  9  1  0  0  0  0
  4 37  1  0  0  0  0
  4  1  1  0  0  0  0
  6 22  1  0  0  0  0
  7 21  1  0  0  0  0
  8 12  1  0  0  0  0
  8 18  1  0  0  0  0
  9  6  1  0  0  0  0
  9 13  1  0  0  0  0
 10  5  1  0  0  0  0
 10  7  1  0  0  0  0
 11  6  1  0  0  0  0
 12  4  1  0  0  0  0
 13 17  1  0  0  0  0
 15 20  1  0  0  0  0
 16 11  1  0  0  0  0
 17  2  1  0  0  0  0
 18 25  1  0  0  0  0
 19  5  1  0  0  0  0
 19 18  1  0  0  0  0
 20 16  1  0  0  0  0
 20  3  1  0  0  0  0
 21 27  1  0  0  0  0
 21 13  1  0  0  0  0
 22  2  1  0  0  0  0
 23 10  1  0  0  0  0
 25 27  1  0  0  0  0
 26  8  2  0  0  0  0
 28 15  1  0  0  0  0
 28 23  1  0  0  0  0
 29 30  1  0  0  0  0
 30 31  2  0  0  0  0
 30 23  1  0  0  0  0
 33 34  2  0  0  0  0
 34 32  1  0  0  0  0
 34 31  1  0  0  0  0
 35 33  1  0  0  0  0
 35 29  2  0  0  0  0
 36 37  1  0  0  0  0
M  END
>  <MODEL>
2

>  <REMARK>
 VINA RESULT:      -6.5      0.827      1.145
  Name = 
  2 active torsions:
  status: ('A' for Active; 'I' for Inactive)
    1  A    between atoms: N_4  and  C_37
    2  A    between atoms: C_23  and  C_30
                            x       y       z     vdW  Elec       q    Type
                         _______ _______ _______ _____ _____    ______ ____

>  <TORSDO>
F 2

$$$$
=
 OpenBabel11122411273D

 37 43  0  0  1  0  0  0  0  0999 V2000
  183.0980  174.0890  136.5900 C   0  0  0  0  0  2  0  0  0  0  0  0
  187.3270  177.1320  135.6030 C   0  0  0  0  0  0  0  0  0  0  0  0
  184.0390  177.2090  138.4100 C   0  0  1  0  0  3  0  0  0  0  0  0
  181.9520  173.1960  136.4520 N   0  0  0  0  0  0  0  0  0  0  0  0
  181.2100  178.2020  135.8460 C   0  0  0  0  0  2  0  0  0  0  0  0
  186.3280  178.0660  137.7310 C   0  0  1  0  0  3  0  0  0  0  0  0
  182.9480  177.0090  137.3570 C   0  0  1  0  0  3  0  0  0  0  0  0
  180.1190  174.8060  136.7950 C   0  0  0  0  0  0  0  0  0  0  0  0
  185.3530  176.8800  137.7110 C   0  0  2  0  0  3  0  0  0  0  0  0
  182.0540  178.2530  137.1280 C   0  0  2  0  0  3  0  0  0  0  0  0
  186.5930  178.4570  139.1150 N   0  0  0  0  0  2  0  0  0  0  0  0
  180.9330  173.6800  137.3730 C   0  0  0  0  0  2  0  0  0  0  0  0
  185.0830  176.3480  136.3600 N   0  0  2  0  0  0  0  0  0  0  0  0
  187.9530  175.7580  135.4620 C   0  0  0  0  0  1  0  0  0  0  0  0
  182.8480  178.8970  139.9450 C   0  0  0  0  0  2  0  0  0  0  0  0
  185.3680  178.8960  139.8110 C   0  0  0  0  0  2  0  0  0  0  0  0
  185.8210  177.0460  135.2970 C   0  0  0  0  0  2  0  0  0  0  0  0
  180.6890  175.7900  135.9120 N   0  0  0  0  0  0  0  0  0  0  0  0
  180.1160  177.1310  135.8680 C   0  0  0  0  0  2  0  0  0  0  0  0
  184.0590  178.6150  139.0500 C   0  0  1  0  0  3  0  0  0  0  0  0
  183.6590  176.5290  136.0870 C   0  0  1  0  0  3  0  0  0  0  0  0
  187.6100  177.6680  137.0160 C   0  0  0  0  0  2  0  0  0  0  0  0
  181.1750  178.5710  138.3570 C   0  0  1  0  0  3  0  0  0  0  0  0
  187.9700  178.0610  134.5940 C   0  0  0  0  0  1  0  0  0  0  0  0
  181.6880  175.4280  134.9110 C   0  0  0  0  0  2  0  0  0  0  0  0
  178.9310  174.9380  137.1880 O   0  0  0  0  0  0  0  0  0  0  0  0
  183.0640  175.2170  135.5490 C   0  0  2  0  0  3  0  0  0  0  0  0
  181.7100  178.1380  139.5970 O   0  0  0  0  0  0  0  0  0  0  0  0
  179.4640  180.2250  139.1400 C   0  0  0  0  0  3  0  0  0  0  0  0
  180.6170  179.9690  138.3900 C   0  0  0  0  0  0  0  0  0  0  0  0
  181.2470  181.0180  137.7050 C   0  0  0  0  0  3  0  0  0  0  0  0
  181.3420  183.3470  137.0830 O   0  0  0  0  0  1  0  0  0  0  0  0
  179.5630  182.5610  138.5110 C   0  0  0  0  0  3  0  0  0  0  0  0
  180.7190  182.3110  137.7650 C   0  0  0  0  0  0  0  0  0  0  0  0
  178.9360  181.5170  139.2000 C   0  0  0  0  0  3  0  0  0  0  0  0
  183.7270  171.9250  137.2620 O   0  0  0  0  0  1  0  0  0  0  0  0
  182.3690  171.8950  136.9470 C   0  0  0  0  0  2  0  0  0  0  0  0
  2 22  1  0  0  0  0
  3 20  1  0  0  0  0
  4  1  1  0  0  0  0
  4 37  1  0  0  0  0
  4 12  1  0  0  0  0
  5 19  1  0  0  0  0
  5 10  1  0  0  0  0
  6 11  1  0  0  0  0
  7  3  1  0  0  0  0
  8 26  2  0  0  0  0
  8 12  1  0  0  0  0
  9  6  1  0  0  0  0
  9  3  1  0  0  0  0
 10  7  1  0  0  0  0
 10 23  1  0  0  0  0
 11 16  1  0  0  0  0
 13  9  1  0  0  0  0
 14  2  1  0  0  0  0
 17  2  1  0  0  0  0
 17 13  1  0  0  0  0
 18  8  1  0  0  0  0
 19 18  1  0  0  0  0
 20 16  1  0  0  0  0
 20 15  1  0  0  0  0
 21 13  1  0  0  0  0
 21  7  1  0  0  0  0
 22  6  1  0  0  0  0
 23 30  1  0  0  0  0
 23 28  1  0  0  0  0
 24  2  1  0  0  0  0
 25 27  1  0  0  0  0
 25 18  1  0  0  0  0
 27 21  1  0  0  0  0
 27  1  1  0  0  0  0
 28 15  1  0  0  0  0
 29 35  1  0  0  0  0
 30 29  2  0  0  0  0
 31 34  2  0  0  0  0
 31 30  1  0  0  0  0
 32 34  1  0  0  0  0
 33 35  2  0  0  0  0
 34 33  1  0  0  0  0
 37 36  1  0  0  0  0
M  END
>  <MODEL>
3

>  <REMARK>
 VINA RESULT:      -5.8      2.422      6.710
  Name = 
  2 active torsions:
  status: ('A' for Active; 'I' for Inactive)
    1  A    between atoms: N_4  and  C_37
    2  A    between atoms: C_23  and  C_30
                            x       y       z     vdW  Elec       q    Type
                         _______ _______ _______ _____ _____    ______ ____

>  <TORSDO>
F 2

$$$$
=
 OpenBabel11122411273D

 37 43  0  0  1  0  0  0  0  0999 V2000
  180.0250  178.6990  136.4580 C   0  0  0  0  0  2  0  0  0  0  0  0
  180.5800  173.4730  137.1620 C   0  0  0  0  0  0  0  0  0  0  0  0
  179.8760  176.8880  139.7190 C   0  0  1  0  0  3  0  0  0  0  0  0
  180.1440  180.0660  135.9610 N   0  0  0  0  0  0  0  0  0  0  0  0
  183.4840  178.4630  139.4610 C   0  0  0  0  0  2  0  0  0  0  0  0
  179.8780  174.3700  139.4210 C   0  0  1  0  0  3  0  0  0  0  0  0
  181.0160  177.7330  139.1460 C   0  0  1  0  0  3  0  0  0  0  0  0
  181.4760  181.0620  137.7780 C   0  0  0  0  0  0  0  0  0  0  0  0
  179.6870  175.7330  138.7430 C   0  0  2  0  0  3  0  0  0  0  0  0
  182.1980  177.9450  140.1230 C   0  0  2  0  0  3  0  0  0  0  0  0
  178.9310  174.2370  140.5270 N   0  0  0  0  0  2  0  0  0  0  0  0
  180.1250  180.9380  137.1270 C   0  0  0  0  0  2  0  0  0  0  0  0
  180.5380  175.9370  137.5530 N   0  0  2  0  0  0  0  0  0  0  0  0
  179.7190  173.4800  135.9140 C   0  0  0  0  0  1  0  0  0  0  0  0
  180.0870  177.5170  142.2060 C   0  0  0  0  0  2  0  0  0  0  0  0
  179.1420  175.2660  141.5640 C   0  0  0  0  0  2  0  0  0  0  0  0
  181.3890  174.7790  137.2380 C   0  0  0  0  0  2  0  0  0  0  0  0
  182.4080  179.9680  137.8260 N   0  0  0  0  0  0  0  0  0  0  0  0
  183.3690  179.8910  138.9210 C   0  0  0  0  0  2  0  0  0  0  0  0
  180.1110  176.3940  141.1630 C   0  0  1  0  0  3  0  0  0  0  0  0
  181.4270  177.0630  137.8290 C   0  0  1  0  0  3  0  0  0  0  0  0
  179.6780  173.2690  138.3910 C   0  0  0  0  0  2  0  0  0  0  0  0
  181.8040  178.8250  141.3290 C   0  0  1  0  0  3  0  0  0  0  0  0
  181.5480  172.3120  137.0730 C   0  0  0  0  0  1  0  0  0  0  0  0
  182.5600  179.0450  136.7040 C   0  0  0  0  0  2  0  0  0  0  0  0
  181.7410  182.1320  138.3870 O   0  0  0  0  0  0  0  0  0  0  0  0
  181.4020  178.0450  136.6470 C   0  0  2  0  0  3  0  0  0  0  0  0
  180.4300  178.7780  141.6730 O   0  0  0  0  0  0  0  0  0  0  0  0
  182.2430  179.0310  143.7870 C   0  0  0  0  0  3  0  0  0  0  0  0
  182.7310  178.7260  142.5120 C   0  0  0  0  0  0  0  0  0  0  0  0
  184.0610  178.3080  142.3600 C   0  0  0  0  0  3  0  0  0  0  0  0
  186.2140  177.7980  143.3210 O   0  0  0  0  0  1  0  0  0  0  0  0
  184.4070  178.5210  144.7470 C   0  0  0  0  0  3  0  0  0  0  0  0
  184.8970  178.2080  143.4750 C   0  0  0  0  0  0  0  0  0  0  0  0
  183.0790  178.9310  144.9030 C   0  0  0  0  0  3  0  0  0  0  0  0
  179.0040  181.6310  134.6680 O   0  0  0  0  0  1  0  0  0  0  0  0
  178.9310  180.3510  135.2150 C   0  0  0  0  0  2  0  0  0  0  0  0
  1 27  1  0  0  0  0
  2 17  1  0  0  0  0
  2 22  1  0  0  0  0
  3 20  1  0  0  0  0
  4  1  1  0  0  0  0
  4 12  1  0  0  0  0
  5 10  1  0  0  0  0
  6 11  1  0  0  0  0
  7  3  1  0  0  0  0
  7 10  1  0  0  0  0
  8 18  1  0  0  0  0
  8 26  2  0  0  0  0
  9  6  1  0  0  0  0
  9  3  1  0  0  0  0
 10 23  1  0  0  0  0
 11 16  1  0  0  0  0
 12  8  1  0  0  0  0
 13 21  1  0  0  0  0
 13  9  1  0  0  0  0
 14  2  1  0  0  0  0
 17 13  1  0  0  0  0
 18 19  1  0  0  0  0
 19  5  1  0  0  0  0
 20 16  1  0  0  0  0
 20 15  1  0  0  0  0
 21  7  1  0  0  0  0
 22  6  1  0  0  0  0
 23 28  1  0  0  0  0
 23 30  1  0  0  0  0
 24  2  1  0  0  0  0
 25 18  1  0  0  0  0
 27 25  1  0  0  0  0
 27 21  1  0  0  0  0
 28 15  1  0  0  0  0
 29 35  1  0  0  0  0
 30 29  2  0  0  0  0
 31 30  1  0  0  0  0
 31 34  2  0  0  0  0
 32 34  1  0  0  0  0
 33 35  2  0  0  0  0
 34 33  1  0  0  0  0
 36 37  1  0  0  0  0
 37  4  1  0  0  0  0
M  END
>  <MODEL>
4

>  <REMARK>
 VINA RESULT:      -5.1      3.069      6.964
  Name = 
  2 active torsions:
  status: ('A' for Active; 'I' for Inactive)
    1  A    between atoms: N_4  and  C_37
    2  A    between atoms: C_23  and  C_30
                            x       y       z     vdW  Elec       q    Type
                         _______ _______ _______ _____ _____    ______ ____

>  <TORSDO>
F 2

$$$$
=
 OpenBabel11122411273D

 37 43  0  0  1  0  0  0  0  0999 V2000
  180.9370  175.5230  136.9340 C   0  0  0  0  0  2  0  0  0  0  0  0
  183.4720  178.3250  140.6540 C   0  0  0  0  0  0  0  0  0  0  0  0
  184.4360  176.8040  136.7240 C   0  0  1  0  0  3  0  0  0  0  0  0
  180.0650  174.5780  136.2440 N   0  0  0  0  0  0  0  0  0  0  0  0
  184.6830  172.9910  137.7060 C   0  0  0  0  0  2  0  0  0  0  0  0
  185.0110  178.3550  138.6470 C   0  0  1  0  0  3  0  0  0  0  0  0
  183.9560  175.3780  137.0010 C   0  0  1  0  0  3  0  0  0  0  0  0
  181.7400  172.9400  135.4790 C   0  0  0  0  0  0  0  0  0  0  0  0
  183.8910  177.6530  137.8660 C   0  0  2  0  0  3  0  0  0  0  0  0
  185.0940  174.3310  137.0770 C   0  0  2  0  0  3  0  0  0  0  0  0
  185.7870  179.1960  137.7380 N   0  0  0  0  0  2  0  0  0  0  0  0
  180.8190  174.0710  135.1050 C   0  0  0  0  0  2  0  0  0  0  0  0
  182.9890  176.8410  138.7080 N   0  0  2  0  0  0  0  0  0  0  0  0
  182.1050  178.9800  140.7170 C   0  0  0  0  0  1  0  0  0  0  0  0
  186.5250  176.2840  135.3120 C   0  0  0  0  0  2  0  0  0  0  0  0
  186.4360  178.4090  136.6710 C   0  0  0  0  0  2  0  0  0  0  0  0
  183.3280  176.8830  140.1380 C   0  0  0  0  0  2  0  0  0  0  0  0
  182.4080  172.8840  136.7520 N   0  0  0  0  0  0  0  0  0  0  0  0
  183.6870  172.1910  136.8610 C   0  0  0  0  0  2  0  0  0  0  0  0
  185.9680  176.9440  136.5770 C   0  0  1  0  0  3  0  0  0  0  0  0
  183.1080  175.4510  138.2760 C   0  0  1  0  0  3  0  0  0  0  0  0
  184.3950  179.1780  139.7680 C   0  0  0  0  0  2  0  0  0  0  0  0
  185.7770  174.1140  135.7090 C   0  0  1  0  0  3  0  0  0  0  0  0
  184.0490  178.2800  142.0540 C   0  0  0  0  0  1  0  0  0  0  0  0
  181.7480  173.3200  137.9800 C   0  0  0  0  0  2  0  0  0  0  0  0
  182.0040  172.0790  134.6000 O   0  0  0  0  0  0  0  0  0  0  0  0
  181.7090  174.8470  138.0780 C   0  0  2  0  0  3  0  0  0  0  0  0
  185.7190  175.2280  134.8340 O   0  0  0  0  0  0  0  0  0  0  0  0
  187.4240  172.4040  134.9100 C   0  0  0  0  0  3  0  0  0  0  0  0
  187.1320  173.4630  135.7770 C   0  0  0  0  0  0  0  0  0  0  0  0
  188.1130  173.9170  136.6710 C   0  0  0  0  0  3  0  0  0  0  0  0
  190.3370  173.7560  137.5920 O   0  0  0  0  0  1  0  0  0  0  0  0
  189.6540  172.2450  135.8390 C   0  0  0  0  0  3  0  0  0  0  0  0
  189.3690  173.3070  136.7030 C   0  0  0  0  0  0  0  0  0  0  0  0
  188.6810  171.7940  134.9420 C   0  0  0  0  0  3  0  0  0  0  0  0
  178.9540  176.6240  136.2530 O   0  0  0  0  0  1  0  0  0  0  0  0
  178.9610  175.3460  135.6960 C   0  0  0  0  0  2  0  0  0  0  0  0
  1 27  1  0  0  0  0
  2 14  1  0  0  0  0
  2 24  1  0  0  0  0
  3  7  1  0  0  0  0
  3  9  1  0  0  0  0
  4  1  1  0  0  0  0
  6 22  1  0  0  0  0
  7 10  1  0  0  0  0
  7 21  1  0  0  0  0
  8 18  1  0  0  0  0
  9  6  1  0  0  0  0
  9 13  1  0  0  0  0
 10  5  1  0  0  0  0
 11  6  1  0  0  0  0
 12  8  1  0  0  0  0
 12  4  1  0  0  0  0
 13 17  1  0  0  0  0
 15 20  1  0  0  0  0
 16 11  1  0  0  0  0
 17  2  1  0  0  0  0
 18 19  1  0  0  0  0
 18 25  1  0  0  0  0
 19  5  1  0  0  0  0
 20 16  1  0  0  0  0
 20  3  1  0  0  0  0
 21 13  1  0  0  0  0
 22  2  1  0  0  0  0
 23 30  1  0  0  0  0
 23 10  1  0  0  0  0
 25 27  1  0  0  0  0
 26  8  2  0  0  0  0
 27 21  1  0  0  0  0
 28 15  1  0  0  0  0
 28 23  1  0  0  0  0
 29 35  2  0  0  0  0
 29 30  1  0  0  0  0
 30 31  2  0  0  0  0
 31 34  1  0  0  0  0
 33 34  2  0  0  0  0
 34 32  1  0  0  0  0
 35 33  1  0  0  0  0
 37  4  1  0  0  0  0
 37 36  1  0  0  0  0
M  END
>  <MODEL>
5

>  <REMARK>
 VINA RESULT:      -5.1      2.698      4.617
  Name = 
  2 active torsions:
  status: ('A' for Active; 'I' for Inactive)
    1  A    between atoms: N_4  and  C_37
    2  A    between atoms: C_23  and  C_30
                            x       y       z     vdW  Elec       q    Type
                         _______ _______ _______ _____ _____    ______ ____

>  <TORSDO>
F 2

$$$$
=
 OpenBabel11122411273D

 37 43  0  0  1  0  0  0  0  0999 V2000
  184.5050  174.2750  136.7270 C   0  0  0  0  0  2  0  0  0  0  0  0
  188.0540  178.0690  137.7910 C   0  0  0  0  0  0  0  0  0  0  0  0
  183.9120  177.3310  138.7880 C   0  0  1  0  0  3  0  0  0  0  0  0
  183.7370  173.2180  136.0780 N   0  0  0  0  0  0  0  0  0  0  0  0
  182.3970  178.0600  135.2190 C   0  0  0  0  0  2  0  0  0  0  0  0
  186.0490  178.6220  139.2320 C   0  0  1  0  0  3  0  0  0  0  0  0
  183.4680  177.0460  137.3520 C   0  0  1  0  0  3  0  0  0  0  0  0
  181.6730  174.4560  135.5520 C   0  0  0  0  0  0  0  0  0  0  0  0
  185.4360  177.2950  138.7650 C   0  0  2  0  0  3  0  0  0  0  0  0
  182.5510  178.1360  136.7460 C   0  0  2  0  0  3  0  0  0  0  0  0
  185.5870  178.9240  140.5860 N   0  0  0  0  0  2  0  0  0  0  0  0
  182.3420  173.4360  136.4340 C   0  0  0  0  0  2  0  0  0  0  0  0
  185.9060  176.8500  137.4370 N   0  0  2  0  0  0  0  0  0  0  0  0
  188.9280  176.8400  137.9460 C   0  0  0  0  0  1  0  0  0  0  0  0
  181.8600  178.6460  139.6170 C   0  0  0  0  0  2  0  0  0  0  0  0
  184.1210  179.0840  140.6480 C   0  0  0  0  0  2  0  0  0  0  0  0
  186.8920  177.7570  136.8320 C   0  0  0  0  0  2  0  0  0  0  0  0
  182.3760  175.5980  135.0310 N   0  0  0  0  0  0  0  0  0  0  0  0
  181.6370  176.8210  134.7350 C   0  0  0  0  0  2  0  0  0  0  0  0
  183.3720  178.6560  139.3720 C   0  0  1  0  0  3  0  0  0  0  0  0
  184.7500  176.8110  136.5450 C   0  0  1  0  0  3  0  0  0  0  0  0
  187.5660  178.5140  139.1790 C   0  0  0  0  0  2  0  0  0  0  0  0
  181.1720  178.1870  137.4380 C   0  0  1  0  0  3  0  0  0  0  0  0
  188.8880  179.1810  137.1910 C   0  0  0  0  0  1  0  0  0  0  0  0
  183.7660  175.5040  134.5950 C   0  0  0  0  0  2  0  0  0  0  0  0
  180.4340  174.3480  135.3600 O   0  0  0  0  0  0  0  0  0  0  0  0
  184.7230  175.4720  135.7900 C   0  0  2  0  0  3  0  0  0  0  0  0
  181.1680  177.7400  138.7840 O   0  0  0  0  0  0  0  0  0  0  0  0
  179.6490  179.9930  138.2710 C   0  0  0  0  0  3  0  0  0  0  0  0
  180.4010  179.4610  137.2180 C   0  0  0  0  0  0  0  0  0  0  0  0
  180.4460  180.1340  135.9890 C   0  0  0  0  0  3  0  0  0  0  0  0
  179.7790  181.9870  134.5950 O   0  0  0  0  0  1  0  0  0  0  0  0
  178.9800  181.8490  136.8670 C   0  0  0  0  0  3  0  0  0  0  0  0
  179.7350  181.3240  135.8140 C   0  0  0  0  0  0  0  0  0  0  0  0
  178.9380  181.1830  138.0960 C   0  0  0  0  0  3  0  0  0  0  0  0
  183.0760  171.4740  137.4720 O   0  0  0  0  0  1  0  0  0  0  0  0
  184.1300  171.9670  136.7030 C   0  0  0  0  0  2  0  0  0  0  0  0
  2 14  1  0  0  0  0
  2 22  1  0  0  0  0
  3 20  1  0  0  0  0
  4 12  1  0  0  0  0
  4 37  1  0  0  0  0
  4  1  1  0  0  0  0
  5 10  1  0  0  0  0
  6 11  1  0  0  0  0
  7  3  1  0  0  0  0
  8 12  1  0  0  0  0
  9  3  1  0  0  0  0
  9  6  1  0  0  0  0
 10  7  1  0  0  0  0
 10 23  1  0  0  0  0
 11 16  1  0  0  0  0
 13  9  1  0  0  0  0
 17 13  1  0  0  0  0
 17  2  1  0  0  0  0
 18  8  1  0  0  0  0
 19 18  1  0  0  0  0
 19  5  1  0  0  0  0
 20 15  1  0  0  0  0
 20 16  1  0  0  0  0
 21  7  1  0  0  0  0
 21 13  1  0  0  0  0
 22  6  1  0  0  0  0
 23 28  1  0  0  0  0
 24  2  1  0  0  0  0
 25 18  1  0  0  0  0
 25 27  1  0  0  0  0
 26  8  2  0  0  0  0
 27 21  1  0  0  0  0
 27  1  1  0  0  0  0
 28 15  1  0  0  0  0
 30 23  1  0  0  0  0
 30 29  2  0  0  0  0
 31 30  1  0  0  0  0
 32 34  1  0  0  0  0
 33 35  2  0  0  0  0
 34 31  2  0  0  0  0
 34 33  1  0  0  0  0
 35 29  1  0  0  0  0
 37 36  1  0  0  0  0
M  END
>  <MODEL>
6

>  <REMARK>
 VINA RESULT:      -3.8      2.410      6.440
  Name = 
  2 active torsions:
  status: ('A' for Active; 'I' for Inactive)
    1  A    between atoms: N_4  and  C_37
    2  A    between atoms: C_23  and  C_30
                            x       y       z     vdW  Elec       q    Type
                         _______ _______ _______ _____ _____    ______ ____

>  <TORSDO>
F 2

$$$$
