=
 OpenBabel11122411133D

 31 35  0  0  1  0  0  0  0  0999 V2000
  193.4020  175.3940  135.7630 C   0  0  0  0  0  0  0  0  0  0  0  0
  190.0800  176.8200  136.9460 C   0  0  2  0  0  3  0  0  0  0  0  0
  189.0500  175.7110  136.7910 C   0  0  0  0  0  0  0  0  0  0  0  0
  188.3400  173.5920  135.8290 C   0  0  0  0  0  0  0  0  0  0  0  0
  191.5020  176.3060  136.9710 C   0  0  0  0  0  0  0  0  0  0  0  0
  194.0990  175.2450  136.9620 C   0  0  0  0  0  3  0  0  0  0  0  0
  189.3070  174.5860  135.9900 C   0  0  0  0  0  3  0  0  0  0  0  0
  190.1750  176.9610  139.4610 C   0  0  2  0  0  3  0  0  0  0  0  0
  193.9770  175.0210  134.5940 F   0  0  0  0  0  0  0  0  0  0  0  0
  187.4740  176.9730  138.1590 O   0  0  0  0  0  0  0  0  0  0  0  0
  188.6060  172.5050  135.0660 F   0  0  0  0  0  0  0  0  0  0  0  0
  191.6780  176.6850  139.4860 C   0  0  0  0  0  2  0  0  0  0  0  0
  189.7940  177.7060  138.1750 C   0  0  2  0  0  3  0  0  0  0  0  0
  192.1090  175.9230  135.7670 C   0  0  0  0  0  3  0  0  0  0  0  0
  187.0980  173.7180  136.4550 C   0  0  0  0  0  3  0  0  0  0  0  0
  192.2120  176.1570  138.1840 C   0  0  0  0  0  0  0  0  0  0  0  0
  193.5100  175.6340  138.1670 C   0  0  0  0  0  3  0  0  0  0  0  0
  188.3200  178.1200  138.1750 C   0  0  0  0  0  2  0  0  0  0  0  0
  187.7790  175.8460  137.3890 C   0  0  0  0  0  0  0  0  0  0  0  0
  186.8180  174.8440  137.2320 C   0  0  0  0  0  3  0  0  0  0  0  0
  190.2010  176.0160  142.1530 O   0  0  0  0  0  0  0  0  0  0  0  0
  189.8540  177.2130  141.9570 C   0  0  0  0  0  0  0  0  0  0  0  0
  189.8110  177.7460  140.6330 N   0  0  0  0  0  2  0  0  0  0  0  0
  190.8430  177.5260  145.6830 C   0  0  1  0  0  3  0  0  0  0  0  0
  190.6600  178.9210  143.6100 C   0  0  0  0  0  2  0  0  0  0  0  0
  187.5510  176.9880  144.1660 C   0  0  0  0  0  2  0  0  0  0  0  0
  191.7220  176.8180  146.5000 O   0  0  0  0  0  1  0  0  0  0  0  0
  191.6030  178.0950  144.4880 C   0  0  0  0  0  2  0  0  0  0  0  0
  188.8400  177.3080  144.2300 C   0  0  0  0  0  0  0  0  0  0  0  0
  189.4710  178.0920  143.1090 C   0  0  2  0  0  3  0  0  0  0  0  0
  189.7230  176.6000  145.2160 C   0  0  0  0  0  2  0  0  0  0  0  0
  1 14  2  0  0  0  0
  1  6  1  0  0  0  0
  2  3  1  1  0  0  0
  2  5  1  0  0  0  0
  2 13  1  0  0  0  0
  3 19  1  0  0  0  0
  4  7  1  0  0  0  0
  4 15  2  0  0  0  0
  5 16  2  0  0  0  0
  6 17  2  0  0  0  0
  7  3  2  0  0  0  0
  8 12  1  0  0  0  0
  8 23  1  1  0  0  0
  9  1  1  0  0  0  0
 10 18  1  0  0  0  0
 11  4  1  0  0  0  0
 13 18  1  1  0  0  0
 13  8  1  0  0  0  0
 14  5  1  0  0  0  0
 15 20  1  0  0  0  0
 16 12  1  0  0  0  0
 17 16  1  0  0  0  0
 19 10  1  0  0  0  0
 20 19  2  0  0  0  0
 22 21  2  0  0  0  0
 23 22  1  0  0  0  0
 24 27  1  1  0  0  0
 25 28  1  0  0  0  0
 26 29  2  0  0  0  0
 28 24  1  0  0  0  0
 29 31  1  0  0  0  0
 30 22  1  6  0  0  0
 30 25  1  0  0  0  0
 30 29  1  0  0  0  0
 31 24  1  0  0  0  0
M  END
>  <MODEL>
1

>  <REMARK>
 VINA RESULT:      -8.3      0.000      0.000
  Name = 
  2 active torsions:
  status: ('A' for Active; 'I' for Inactive)
    1  A    between atoms: C_5  and  C_30
    2  A    between atoms: C_10  and  N_16
                            x       y       z     vdW  Elec       q    Type
                         _______ _______ _______ _____ _____    ______ ____

>  <TORSDO>
F 2

$$$$
=
 OpenBabel11122411133D

 31 35  0  0  1  0  0  0  0  0999 V2000
  191.2990  176.4590  144.5420 C   0  0  0  0  0  0  0  0  0  0  0  0
  187.5730  176.9880  143.9910 C   0  0  2  0  0  3  0  0  0  0  0  0
  187.0690  177.8000  145.1750 C   0  0  0  0  0  0  0  0  0  0  0  0
  187.3360  178.6370  147.4440 C   0  0  0  0  0  0  0  0  0  0  0  0
  189.0700  177.0830  143.8050 C   0  0  0  0  0  0  0  0  0  0  0  0
  191.8590  177.2990  143.5780 C   0  0  0  0  0  3  0  0  0  0  0  0
  187.8250  177.9170  146.3530 C   0  0  0  0  0  3  0  0  0  0  0  0
  187.3190  178.7030  142.1610 C   0  0  2  0  0  3  0  0  0  0  0  0
  192.1020  175.7500  145.3720 F   0  0  0  0  0  0  0  0  0  0  0  0
  184.9860  178.2490  143.9890 O   0  0  0  0  0  0  0  0  0  0  0  0
  188.0820  178.7530  148.5680 F   0  0  0  0  0  0  0  0  0  0  0  0
  188.8000  178.6250  141.7920 C   0  0  0  0  0  2  0  0  0  0  0  0
  186.8310  177.3460  142.6870 C   0  0  2  0  0  3  0  0  0  0  0  0
  189.9110  176.3500  144.6530 C   0  0  0  0  0  3  0  0  0  0  0  0
  186.0770  179.2380  147.3760 C   0  0  0  0  0  3  0  0  0  0  0  0
  189.6400  177.9310  142.8270 C   0  0  0  0  0  0  0  0  0  0  0  0
  191.0310  178.0250  142.7180 C   0  0  0  0  0  3  0  0  0  0  0  0
  185.3220  177.3440  142.9410 C   0  0  0  0  0  2  0  0  0  0  0  0
  185.7830  178.3800  145.1300 C   0  0  0  0  0  0  0  0  0  0  0  0
  185.3020  179.1080  146.2220 C   0  0  0  0  0  3  0  0  0  0  0  0
  187.5100  177.5020  139.5800 O   0  0  0  0  0  0  0  0  0  0  0  0
  186.6890  178.4500  139.7240 C   0  0  0  0  0  0  0  0  0  0  0  0
  186.5510  179.1000  140.9890 N   0  0  0  0  0  2  0  0  0  0  0  0
  183.8770  176.9600  137.5280 C   0  0  1  0  0  3  0  0  0  0  0  0
  184.3660  178.9740  138.9340 C   0  0  0  0  0  2  0  0  0  0  0  0
  187.1340  178.3310  136.5590 C   0  0  0  0  0  2  0  0  0  0  0  0
  183.2390  175.7210  137.5040 O   0  0  0  0  0  1  0  0  0  0  0  0
  183.7170  177.5890  138.9090 C   0  0  0  0  0  2  0  0  0  0  0  0
  186.0840  178.0820  137.3370 C   0  0  0  0  0  0  0  0  0  0  0  0
  185.8550  178.9160  138.5700 C   0  0  2  0  0  3  0  0  0  0  0  0
  185.3540  176.7800  137.1870 C   0  0  0  0  0  2  0  0  0  0  0  0
  1 14  1  0  0  0  0
  1  9  1  0  0  0  0
  2  5  1  6  0  0  0
  2  3  1  0  0  0  0
  3  7  1  0  0  0  0
  4 11  1  0  0  0  0
  5 14  2  0  0  0  0
  6  1  2  0  0  0  0
  7  4  2  0  0  0  0
  8 23  1  6  0  0  0
  8 13  1  0  0  0  0
 10 19  1  0  0  0  0
 12  8  1  0  0  0  0
 12 16  1  0  0  0  0
 13 18  1  1  0  0  0
 13  2  1  0  0  0  0
 15  4  1  0  0  0  0
 16  5  1  0  0  0  0
 17 16  2  0  0  0  0
 17  6  1  0  0  0  0
 18 10  1  0  0  0  0
 19  3  2  0  0  0  0
 19 20  1  0  0  0  0
 20 15  2  0  0  0  0
 21 22  2  0  0  0  0
 22 23  1  0  0  0  0
 24 27  1  1  0  0  0
 24 28  1  0  0  0  0
 26 29  2  0  0  0  0
 28 25  1  0  0  0  0
 29 30  1  0  0  0  0
 30 25  1  0  0  0  0
 30 22  1  1  0  0  0
 31 29  1  0  0  0  0
 31 24  1  0  0  0  0
M  END
>  <MODEL>
2

>  <REMARK>
 VINA RESULT:      -7.8      4.675      8.538
  Name = 
  2 active torsions:
  status: ('A' for Active; 'I' for Inactive)
    1  A    between atoms: C_5  and  C_30
    2  A    between atoms: C_10  and  N_16
                            x       y       z     vdW  Elec       q    Type
                         _______ _______ _______ _____ _____    ______ ____

>  <TORSDO>
F 2

$$$$
=
 OpenBabel11122411133D

 31 35  0  0  1  0  0  0  0  0999 V2000
  186.6700  178.2340  147.2940 C   0  0  0  0  0  0  0  0  0  0  0  0
  189.7700  178.3150  145.0910 C   0  0  2  0  0  3  0  0  0  0  0  0
  190.5870  177.0810  145.4430 C   0  0  0  0  0  0  0  0  0  0  0  0
  191.1280  175.2530  146.9550 C   0  0  0  0  0  0  0  0  0  0  0  0
  188.3230  178.2050  145.5130 C   0  0  0  0  0  0  0  0  0  0  0  0
  185.6690  177.9090  146.3770 C   0  0  0  0  0  3  0  0  0  0  0  0
  190.3490  176.3640  146.6270 C   0  0  0  0  0  3  0  0  0  0  0  0
  189.0510  177.6940  142.7560 C   0  0  2  0  0  3  0  0  0  0  0  0
  186.3620  178.4020  148.6020 F   0  0  0  0  0  0  0  0  0  0  0  0
  191.9530  177.4060  143.4500 O   0  0  0  0  0  0  0  0  0  0  0  0
  190.8780  174.5620  148.0930 F   0  0  0  0  0  0  0  0  0  0  0  0
  187.5690  177.8230  143.1070 C   0  0  0  0  0  2  0  0  0  0  0  0
  189.8820  178.6740  143.5950 C   0  0  2  0  0  3  0  0  0  0  0  0
  187.9910  178.3830  146.8630 C   0  0  0  0  0  3  0  0  0  0  0  0
  192.1660  174.8540  146.1110 C   0  0  0  0  0  3  0  0  0  0  0  0
  187.3060  177.8790  144.5860 C   0  0  0  0  0  0  0  0  0  0  0  0
  185.9850  177.7420  145.0260 C   0  0  0  0  0  3  0  0  0  0  0  0
  191.3540  178.6710  143.1780 C   0  0  0  0  0  2  0  0  0  0  0  0
  191.6610  176.6910  144.6150 C   0  0  0  0  0  0  0  0  0  0  0  0
  192.4330  175.5730  144.9440 C   0  0  0  0  0  3  0  0  0  0  0  0
  190.4460  176.0030  140.9310 O   0  0  0  0  0  0  0  0  0  0  0  0
  189.9370  177.0630  140.4730 C   0  0  0  0  0  0  0  0  0  0  0  0
  189.2330  177.9580  141.3350 N   0  0  0  0  0  2  0  0  0  0  0  0
  187.7200  176.7790  137.3170 C   0  0  1  0  0  3  0  0  0  0  0  0
  189.0550  178.4720  138.5920 C   0  0  0  0  0  2  0  0  0  0  0  0
  191.0610  175.4220  137.9680 C   0  0  0  0  0  2  0  0  0  0  0  0
  186.4390  176.2810  137.0920 O   0  0  0  0  0  1  0  0  0  0  0  0
  187.6620  177.8770  138.3740 C   0  0  0  0  0  2  0  0  0  0  0  0
  189.9850  176.1840  138.1430 C   0  0  0  0  0  0  0  0  0  0  0  0
  190.0720  177.4060  139.0200 C   0  0  2  0  0  3  0  0  0  0  0  0
  188.6360  175.6450  137.7700 C   0  0  0  0  0  2  0  0  0  0  0  0
  1  9  1  0  0  0  0
  2  3  1  6  0  0  0
  2  5  1  0  0  0  0
  3  7  1  0  0  0  0
  4 11  1  0  0  0  0
  5 14  2  0  0  0  0
  6  1  2  0  0  0  0
  7  4  2  0  0  0  0
  8 23  1  6  0  0  0
  8 12  1  0  0  0  0
  8 13  1  0  0  0  0
 10 19  1  0  0  0  0
 12 16  1  0  0  0  0
 13 18  1  6  0  0  0
 13  2  1  0  0  0  0
 14  1  1  0  0  0  0
 15  4  1  0  0  0  0
 16 17  2  0  0  0  0
 16  5  1  0  0  0  0
 17  6  1  0  0  0  0
 18 10  1  0  0  0  0
 19 20  1  0  0  0  0
 19  3  2  0  0  0  0
 20 15  2  0  0  0  0
 22 21  2  0  0  0  0
 22 23  1  0  0  0  0
 24 27  1  1  0  0  0
 24 31  1  0  0  0  0
 24 28  1  0  0  0  0
 25 30  1  0  0  0  0
 26 29  2  0  0  0  0
 28 25  1  0  0  0  0
 29 30  1  0  0  0  0
 30 22  1  1  0  0  0
 31 29  1  0  0  0  0
M  END
>  <MODEL>
3

>  <REMARK>
 VINA RESULT:      -7.5      3.990      8.969
  Name = 
  2 active torsions:
  status: ('A' for Active; 'I' for Inactive)
    1  A    between atoms: C_5  and  C_30
    2  A    between atoms: C_10  and  N_16
                            x       y       z     vdW  Elec       q    Type
                         _______ _______ _______ _____ _____    ______ ____

>  <TORSDO>
F 2

$$$$
=
 OpenBabel11122411133D

 31 35  0  0  1  0  0  0  0  0999 V2000
  190.6160  176.6030  146.6470 C   0  0  0  0  0  0  0  0  0  0  0  0
  187.9170  176.9360  143.9870 C   0  0  2  0  0  3  0  0  0  0  0  0
  186.8710  177.8890  144.5450 C   0  0  0  0  0  0  0  0  0  0  0  0
  185.8330  179.0420  146.4200 C   0  0  0  0  0  0  0  0  0  0  0  0
  189.2520  177.0500  144.6860 C   0  0  0  0  0  0  0  0  0  0  0  0
  191.6730  177.3180  146.0810 C   0  0  0  0  0  3  0  0  0  0  0  0
  186.8190  178.1920  145.9160 C   0  0  0  0  0  3  0  0  0  0  0  0
  188.8550  178.3700  142.1390 C   0  0  2  0  0  3  0  0  0  0  0  0
  190.7560  176.0420  147.8720 F   0  0  0  0  0  0  0  0  0  0  0  0
  185.8740  178.1040  142.3300 O   0  0  0  0  0  0  0  0  0  0  0  0
  185.8040  179.3370  147.7420 F   0  0  0  0  0  0  0  0  0  0  0  0
  190.2720  178.2870  142.7040 C   0  0  0  0  0  2  0  0  0  0  0  0
  188.0790  177.0860  142.4610 C   0  0  2  0  0  3  0  0  0  0  0  0
  189.4120  176.4680  145.9520 C   0  0  0  0  0  3  0  0  0  0  0  0
  184.8770  179.5890  145.5620 C   0  0  0  0  0  3  0  0  0  0  0  0
  190.3260  177.7700  144.1140 C   0  0  0  0  0  0  0  0  0  0  0  0
  191.5310  177.8910  144.8150 C   0  0  0  0  0  3  0  0  0  0  0  0
  186.7010  177.0730  141.7970 C   0  0  0  0  0  2  0  0  0  0  0  0
  185.8780  178.4180  143.6930 C   0  0  0  0  0  0  0  0  0  0  0  0
  184.8980  179.2760  144.2010 C   0  0  0  0  0  3  0  0  0  0  0  0
  190.2390  176.6890  140.2950 O   0  0  0  0  0  0  0  0  0  0  0  0
  189.6280  177.6900  139.8280 C   0  0  0  0  0  0  0  0  0  0  0  0
  188.9220  178.5760  140.6980 N   0  0  0  0  0  2  0  0  0  0  0  0
  187.8730  176.2570  136.6950 C   0  0  1  0  0  3  0  0  0  0  0  0
  188.2690  178.4400  137.8560 C   0  0  0  0  0  2  0  0  0  0  0  0
  191.4460  176.5820  137.4410 C   0  0  0  0  0  2  0  0  0  0  0  0
  186.9570  175.2240  136.5020 O   0  0  0  0  0  1  0  0  0  0  0  0
  187.2960  177.2730  137.6760 C   0  0  0  0  0  2  0  0  0  0  0  0
  190.1370  176.7900  137.5630 C   0  0  0  0  0  0  0  0  0  0  0  0
  189.6410  177.9710  138.3560 C   0  0  2  0  0  3  0  0  0  0  0  0
  189.1840  175.6820  137.2240 C   0  0  0  0  0  2  0  0  0  0  0  0
  1  9  1  0  0  0  0
  2  3  1  1  0  0  0
  2  5  1  0  0  0  0
  3  7  1  0  0  0  0
  4 11  1  0  0  0  0
  5 14  1  0  0  0  0
  6  1  1  0  0  0  0
  7  4  2  0  0  0  0
  8 23  1  6  0  0  0
  8 13  1  0  0  0  0
  8 12  1  0  0  0  0
 10 19  1  0  0  0  0
 12 16  1  0  0  0  0
 13 18  1  6  0  0  0
 13  2  1  0  0  0  0
 14  1  2  0  0  0  0
 15  4  1  0  0  0  0
 16  5  2  0  0  0  0
 16 17  1  0  0  0  0
 17  6  2  0  0  0  0
 18 10  1  0  0  0  0
 19 20  1  0  0  0  0
 19  3  2  0  0  0  0
 20 15  2  0  0  0  0
 22 21  2  0  0  0  0
 22 23  1  0  0  0  0
 24 27  1  1  0  0  0
 24 31  1  0  0  0  0
 24 28  1  0  0  0  0
 25 30  1  0  0  0  0
 26 29  2  0  0  0  0
 28 25  1  0  0  0  0
 29 30  1  0  0  0  0
 30 22  1  1  0  0  0
 31 29  1  0  0  0  0
M  END
>  <MODEL>
4

>  <REMARK>
 VINA RESULT:      -7.5      4.030      8.309
  Name = 
  2 active torsions:
  status: ('A' for Active; 'I' for Inactive)
    1  A    between atoms: C_5  and  C_30
    2  A    between atoms: C_10  and  N_16
                            x       y       z     vdW  Elec       q    Type
                         _______ _______ _______ _____ _____    ______ ____

>  <TORSDO>
F 2

$$$$
=
 OpenBabel11122411133D

 31 35  0  0  1  0  0  0  0  0999 V2000
  190.0620  176.0350  142.8360 C   0  0  0  0  0  0  0  0  0  0  0  0
  186.4680  177.1280  143.4360 C   0  0  2  0  0  3  0  0  0  0  0  0
  186.4630  177.9120  144.7400 C   0  0  0  0  0  0  0  0  0  0  0  0
  187.5050  178.5300  146.8510 C   0  0  0  0  0  0  0  0  0  0  0  0
  187.8420  177.0240  142.8160 C   0  0  0  0  0  0  0  0  0  0  0  0
  190.4430  176.8570  141.7750 C   0  0  0  0  0  3  0  0  0  0  0  0
  187.5370  177.8320  145.6420 C   0  0  0  0  0  3  0  0  0  0  0  0
  185.9680  178.9940  141.8180 C   0  0  2  0  0  3  0  0  0  0  0  0
  190.9480  175.1590  143.3680 F   0  0  0  0  0  0  0  0  0  0  0  0
  184.2250  178.7400  144.2430 O   0  0  0  0  0  0  0  0  0  0  0  0
  188.5540  178.4540  147.7050 F   0  0  0  0  0  0  0  0  0  0  0  0
  187.2470  178.7350  141.0220 C   0  0  0  0  0  2  0  0  0  0  0  0
  185.4470  177.6840  142.4240 C   0  0  2  0  0  3  0  0  0  0  0  0
  188.7660  176.1160  143.3530 C   0  0  0  0  0  3  0  0  0  0  0  0
  186.3920  179.3070  147.1790 C   0  0  0  0  0  3  0  0  0  0  0  0
  188.2300  177.8520  141.7380 C   0  0  0  0  0  0  0  0  0  0  0  0
  189.5270  177.7560  141.2220 C   0  0  0  0  0  3  0  0  0  0  0  0
  184.0950  177.8780  143.1160 C   0  0  0  0  0  2  0  0  0  0  0  0
  185.3280  178.6710  145.0980 C   0  0  0  0  0  0  0  0  0  0  0  0
  185.3050  179.3760  146.3050 C   0  0  0  0  0  3  0  0  0  0  0  0
  184.7520  177.6870  139.5920 O   0  0  0  0  0  0  0  0  0  0  0  0
  184.3900  178.8690  139.8450 C   0  0  0  0  0  0  0  0  0  0  0  0
  184.9670  179.5830  140.9390 N   0  0  0  0  0  2  0  0  0  0  0  0
  180.5620  178.6140  139.3590 C   0  0  1  0  0  3  0  0  0  0  0  0
  182.3370  180.3130  139.8450 C   0  0  0  0  0  2  0  0  0  0  0  0
  183.2670  178.2480  136.9150 C   0  0  0  0  0  2  0  0  0  0  0  0
  179.5800  177.8060  139.9280 O   0  0  0  0  0  1  0  0  0  0  0  0
  181.2910  179.3800  140.4590 C   0  0  0  0  0  2  0  0  0  0  0  0
  182.6780  178.5820  138.0590 C   0  0  0  0  0  0  0  0  0  0  0  0
  183.3590  179.5470  138.9940 C   0  0  2  0  0  3  0  0  0  0  0  0
  181.5400  177.7480  138.5690 C   0  0  0  0  0  2  0  0  0  0  0  0
  1 14  1  0  0  0  0
  1  9  1  0  0  0  0
  2  5  1  6  0  0  0
  2  3  1  0  0  0  0
  3 19  2  0  0  0  0
  3  7  1  0  0  0  0
  4 15  1  0  0  0  0
  4 11  1  0  0  0  0
  5 14  2  0  0  0  0
  6  1  2  0  0  0  0
  7  4  2  0  0  0  0
  8 23  1  6  0  0  0
  8 13  1  0  0  0  0
 10 19  1  0  0  0  0
 12 16  1  0  0  0  0
 12  8  1  0  0  0  0
 13 18  1  1  0  0  0
 13  2  1  0  0  0  0
 16  5  1  0  0  0  0
 17 16  2  0  0  0  0
 17  6  1  0  0  0  0
 18 10  1  0  0  0  0
 19 20  1  0  0  0  0
 20 15  2  0  0  0  0
 21 22  2  0  0  0  0
 22 23  1  0  0  0  0
 24 27  1  1  0  0  0
 24 28  1  0  0  0  0
 25 28  1  0  0  0  0
 26 29  2  0  0  0  0
 29 31  1  0  0  0  0
 29 30  1  0  0  0  0
 30 25  1  0  0  0  0
 30 22  1  1  0  0  0
 31 24  1  0  0  0  0
M  END
>  <MODEL>
5

>  <REMARK>
 VINA RESULT:      -7.2      5.192      8.840
  Name = 
  2 active torsions:
  status: ('A' for Active; 'I' for Inactive)
    1  A    between atoms: C_5  and  C_30
    2  A    between atoms: C_10  and  N_16
                            x       y       z     vdW  Elec       q    Type
                         _______ _______ _______ _____ _____    ______ ____

>  <TORSDO>
F 2

$$$$
=
 OpenBabel11122411133D

 31 35  0  0  1  0  0  0  0  0999 V2000
  191.7000  177.3660  140.8000 C   0  0  0  0  0  0  0  0  0  0  0  0
  189.2610  177.8210  137.9170 C   0  0  2  0  0  3  0  0  0  0  0  0
  189.1070  176.4590  137.2570 C   0  0  0  0  0  0  0  0  0  0  0  0
  189.8960  174.1920  136.8570 C   0  0  0  0  0  0  0  0  0  0  0  0
  189.8060  177.7370  139.3240 C   0  0  0  0  0  0  0  0  0  0  0  0
  190.8610  177.4660  141.9100 C   0  0  0  0  0  3  0  0  0  0  0  0
  190.0300  175.4260  137.4950 C   0  0  0  0  0  3  0  0  0  0  0  0
  186.9590  178.0720  138.9120 C   0  0  2  0  0  3  0  0  0  0  0  0
  193.0240  177.1330  140.9690 F   0  0  0  0  0  0  0  0  0  0  0  0
  187.1590  177.2630  136.0320 O   0  0  0  0  0  0  0  0  0  0  0  0
  190.7850  173.2010  137.1060 F   0  0  0  0  0  0  0  0  0  0  0  0
  187.5150  178.2400  140.3250 C   0  0  0  0  0  2  0  0  0  0  0  0
  187.9490  178.6310  137.8810 C   0  0  2  0  0  3  0  0  0  0  0  0
  191.1760  177.5030  139.5130 C   0  0  0  0  0  3  0  0  0  0  0  0
  188.8460  173.9780  135.9620 C   0  0  0  0  0  3  0  0  0  0  0  0
  188.9590  177.8420  140.4520 C   0  0  0  0  0  0  0  0  0  0  0  0
  189.4970  177.7130  141.7360 C   0  0  0  0  0  3  0  0  0  0  0  0
  187.3700  178.6050  136.4650 C   0  0  0  0  0  2  0  0  0  0  0  0
  188.0710  176.2450  136.3240 C   0  0  0  0  0  0  0  0  0  0  0  0
  187.9360  175.0040  135.6940 C   0  0  0  0  0  3  0  0  0  0  0  0
  184.5030  176.8800  138.0850 O   0  0  0  0  0  0  0  0  0  0  0  0
  184.4820  178.1010  138.4000 C   0  0  0  0  0  0  0  0  0  0  0  0
  185.6790  178.7610  138.8140 N   0  0  0  0  0  2  0  0  0  0  0  0
  180.9000  177.7230  139.8090 C   0  0  1  0  0  3  0  0  0  0  0  0
  182.7740  179.3820  139.7200 C   0  0  0  0  0  2  0  0  0  0  0  0
  182.0350  178.0590  136.3400 C   0  0  0  0  0  2  0  0  0  0  0  0
  180.2810  176.7520  140.5940 O   0  0  0  0  0  1  0  0  0  0  0  0
  182.1150  178.2770  140.5470 C   0  0  0  0  0  2  0  0  0  0  0  0
  182.1010  178.1020  137.6690 C   0  0  0  0  0  0  0  0  0  0  0  0
  183.2040  178.8820  138.3350 C   0  0  2  0  0  3  0  0  0  0  0  0
  181.3160  177.1100  138.4740 C   0  0  0  0  0  2  0  0  0  0  0  0
  1  9  1  0  0  0  0
  1  6  1  0  0  0  0
  2  3  1  1  0  0  0
  2  5  1  0  0  0  0
  3  7  1  0  0  0  0
  4 11  1  0  0  0  0
  4  7  2  0  0  0  0
  5 14  1  0  0  0  0
  5 16  2  0  0  0  0
  8 23  1  1  0  0  0
  8 12  1  0  0  0  0
 10 19  1  0  0  0  0
 10 18  1  0  0  0  0
 12 16  1  0  0  0  0
 13 18  1  6  0  0  0
 13  2  1  0  0  0  0
 13  8  1  0  0  0  0
 14  1  2  0  0  0  0
 15  4  1  0  0  0  0
 16 17  1  0  0  0  0
 17  6  2  0  0  0  0
 19  3  2  0  0  0  0
 20 15  2  0  0  0  0
 20 19  1  0  0  0  0
 21 22  2  0  0  0  0
 22 23  1  0  0  0  0
 24 28  1  0  0  0  0
 24 27  1  1  0  0  0
 25 28  1  0  0  0  0
 26 29  2  0  0  0  0
 29 30  1  0  0  0  0
 29 31  1  0  0  0  0
 30 22  1  1  0  0  0
 30 25  1  0  0  0  0
 31 24  1  0  0  0  0
M  END
>  <MODEL>
6

>  <REMARK>
 VINA RESULT:      -7.1      3.815      6.295
  Name = 
  2 active torsions:
  status: ('A' for Active; 'I' for Inactive)
    1  A    between atoms: C_5  and  C_30
    2  A    between atoms: C_10  and  N_16
                            x       y       z     vdW  Elec       q    Type
                         _______ _______ _______ _____ _____    ______ ____

>  <TORSDO>
F 2

$$$$
=
 OpenBabel11122411133D

 31 35  0  0  1  0  0  0  0  0999 V2000
  188.8600  178.2570  142.4910 C   0  0  0  0  0  0  0  0  0  0  0  0
  186.0220  179.0180  140.0760 C   0  0  2  0  0  3  0  0  0  0  0  0
  186.1740  178.0540  138.9080 C   0  0  0  0  0  0  0  0  0  0  0  0
  187.5120  176.5060  137.5930 C   0  0  0  0  0  0  0  0  0  0  0  0
  186.7550  178.5620  141.3160 C   0  0  0  0  0  0  0  0  0  0  0  0
  188.1870  177.6400  143.5470 C   0  0  0  0  0  3  0  0  0  0  0  0
  187.3750  177.3610  138.6880 C   0  0  0  0  0  3  0  0  0  0  0  0
  183.9020  178.1150  141.0970 C   0  0  2  0  0  3  0  0  0  0  0  0
  190.2050  178.4070  142.5400 F   0  0  0  0  0  0  0  0  0  0  0  0
  183.9280  178.6170  138.1420 O   0  0  0  0  0  0  0  0  0  0  0  0
  188.6720  175.8330  137.4000 F   0  0  0  0  0  0  0  0  0  0  0  0
  184.5750  177.8780  142.4490 C   0  0  0  0  0  2  0  0  0  0  0  0
  184.5420  179.3170  140.3890 C   0  0  2  0  0  3  0  0  0  0  0  0
  188.1470  178.7180  141.3820 C   0  0  0  0  0  3  0  0  0  0  0  0
  186.4540  176.3440  136.6960 C   0  0  0  0  0  3  0  0  0  0  0  0
  186.0760  177.9400  142.3890 C   0  0  0  0  0  0  0  0  0  0  0  0
  186.7990  177.4910  143.4990 C   0  0  0  0  0  3  0  0  0  0  0  0
  183.8060  179.6700  139.0950 C   0  0  0  0  0  2  0  0  0  0  0  0
  185.1230  177.9110  137.9760 C   0  0  0  0  0  0  0  0  0  0  0  0
  185.2630  177.0460  136.8870 C   0  0  0  0  0  3  0  0  0  0  0  0
  181.7980  176.6120  139.8920 O   0  0  0  0  0  0  0  0  0  0  0  0
  181.4730  177.5470  140.6740 C   0  0  0  0  0  0  0  0  0  0  0  0
  182.4780  178.3440  141.3040 N   0  0  0  0  0  2  0  0  0  0  0  0
  179.1860  180.6620  140.5300 C   0  0  1  0  0  3  0  0  0  0  0  0
  179.2970  178.3080  139.6820 C   0  0  0  0  0  2  0  0  0  0  0  0
  179.9180  178.4160  143.3320 C   0  0  0  0  0  2  0  0  0  0  0  0
  179.4120  181.9980  140.2030 O   0  0  0  0  0  1  0  0  0  0  0  0
  179.5900  179.7750  139.3570 C   0  0  0  0  0  2  0  0  0  0  0  0
  179.8620  178.8350  142.0700 C   0  0  0  0  0  0  0  0  0  0  0  0
  180.0300  177.8450  140.9470 C   0  0  2  0  0  3  0  0  0  0  0  0
  179.9870  180.3010  141.7790 C   0  0  0  0  0  2  0  0  0  0  0  0
  1  9  1  0  0  0  0
  1  6  1  0  0  0  0
  2  3  1  6  0  0  0
  2 13  1  0  0  0  0
  2  5  1  0  0  0  0
  4  7  2  0  0  0  0
  5 14  1  0  0  0  0
  5 16  2  0  0  0  0
  7  3  1  0  0  0  0
  8 23  1  1  0  0  0
  8 12  1  0  0  0  0
 10 18  1  0  0  0  0
 11  4  1  0  0  0  0
 13 18  1  6  0  0  0
 13  8  1  0  0  0  0
 14  1  2  0  0  0  0
 15 20  2  0  0  0  0
 15  4  1  0  0  0  0
 16 12  1  0  0  0  0
 16 17  1  0  0  0  0
 17  6  2  0  0  0  0
 19 10  1  0  0  0  0
 19  3  2  0  0  0  0
 20 19  1  0  0  0  0
 21 22  2  0  0  0  0
 22 23  1  0  0  0  0
 24 27  1  6  0  0  0
 24 31  1  0  0  0  0
 25 30  1  0  0  0  0
 28 25  1  0  0  0  0
 28 24  1  0  0  0  0
 29 26  2  0  0  0  0
 30 22  1  6  0  0  0
 30 29  1  0  0  0  0
 31 29  1  0  0  0  0
M  END
>  <MODEL>
7

>  <REMARK>
 VINA RESULT:      -7.1      5.725      8.150
  Name = 
  2 active torsions:
  status: ('A' for Active; 'I' for Inactive)
    1  A    between atoms: C_5  and  C_30
    2  A    between atoms: C_10  and  N_16
                            x       y       z     vdW  Elec       q    Type
                         _______ _______ _______ _____ _____    ______ ____

>  <TORSDO>
F 2

$$$$
=
 OpenBabel11122411133D

 31 35  0  0  1  0  0  0  0  0999 V2000
  185.5670  178.4320  138.5040 C   0  0  0  0  0  0  0  0  0  0  0  0
  189.2370  177.9910  139.3980 C   0  0  2  0  0  3  0  0  0  0  0  0
  189.2750  177.3380  140.7720 C   0  0  0  0  0  0  0  0  0  0  0  0
  188.2020  176.7540  142.8760 C   0  0  0  0  0  0  0  0  0  0  0  0
  187.9090  177.8160  138.6990 C   0  0  0  0  0  0  0  0  0  0  0  0
  185.3900  177.4660  137.5120 C   0  0  0  0  0  3  0  0  0  0  0  0
  188.1440  177.3260  141.6040 C   0  0  0  0  0  3  0  0  0  0  0  0
  190.1290  176.0910  138.0020 C   0  0  2  0  0  3  0  0  0  0  0  0
  184.5210  179.1980  138.8980 F   0  0  0  0  0  0  0  0  0  0  0  0
  191.6440  176.8400  140.4790 O   0  0  0  0  0  0  0  0  0  0  0  0
  187.0990  176.7370  143.6620 F   0  0  0  0  0  0  0  0  0  0  0  0
  188.8820  176.0670  137.1180 C   0  0  0  0  0  2  0  0  0  0  0  0
  190.3990  177.5160  138.5020 C   0  0  2  0  0  3  0  0  0  0  0  0
  186.8210  178.6070  139.0930 C   0  0  0  0  0  3  0  0  0  0  0  0
  189.3970  176.2000  143.3390 C   0  0  0  0  0  3  0  0  0  0  0  0
  187.7280  176.8410  137.6910 C   0  0  0  0  0  0  0  0  0  0  0  0
  186.4700  176.6810  137.1000 C   0  0  0  0  0  3  0  0  0  0  0  0
  191.7140  177.6060  139.2790 C   0  0  0  0  0  2  0  0  0  0  0  0
  190.4880  176.8080  141.2630 C   0  0  0  0  0  0  0  0  0  0  0  0
  190.5380  176.2280  142.5340 C   0  0  0  0  0  3  0  0  0  0  0  0
  190.5290  173.3770  137.2190 O   0  0  0  0  0  0  0  0  0  0  0  0
  191.4030  174.2200  136.8730 C   0  0  0  0  0  0  0  0  0  0  0  0
  191.2670  175.5930  137.2410 N   0  0  0  0  0  2  0  0  0  0  0  0
  195.2420  174.4120  137.2930 C   0  0  1  0  0  3  0  0  0  0  0  0
  193.4320  172.7430  136.8330 C   0  0  0  0  0  2  0  0  0  0  0  0
  193.1100  175.6760  134.5940 C   0  0  0  0  0  2  0  0  0  0  0  0
  196.0690  174.9460  138.2800 O   0  0  0  0  0  1  0  0  0  0  0  0
  194.3100  173.3770  137.9140 C   0  0  0  0  0  2  0  0  0  0  0  0
  193.4500  174.9650  135.6660 C   0  0  0  0  0  0  0  0  0  0  0  0
  192.6020  173.7920  136.0820 C   0  0  2  0  0  3  0  0  0  0  0  0
  194.4400  175.5340  136.6380 C   0  0  0  0  0  2  0  0  0  0  0  0
  1  9  1  0  0  0  0
  1 14  1  0  0  0  0
  2  5  1  6  0  0  0
  2  3  1  0  0  0  0
  3 19  2  0  0  0  0
  3  7  1  0  0  0  0
  4 15  1  0  0  0  0
  4 11  1  0  0  0  0
  5 14  2  0  0  0  0
  6  1  2  0  0  0  0
  7  4  2  0  0  0  0
  8 23  1  6  0  0  0
  8 13  1  0  0  0  0
 10 19  1  0  0  0  0
 12 16  1  0  0  0  0
 12  8  1  0  0  0  0
 13 18  1  1  0  0  0
 13  2  1  0  0  0  0
 16  5  1  0  0  0  0
 17  6  1  0  0  0  0
 17 16  2  0  0  0  0
 18 10  1  0  0  0  0
 19 20  1  0  0  0  0
 20 15  2  0  0  0  0
 22 21  2  0  0  0  0
 22 23  1  0  0  0  0
 24 28  1  0  0  0  0
 24 27  1  1  0  0  0
 25 28  1  0  0  0  0
 26 29  2  0  0  0  0
 29 30  1  0  0  0  0
 29 31  1  0  0  0  0
 30 25  1  0  0  0  0
 30 22  1  1  0  0  0
 31 24  1  0  0  0  0
M  END
>  <MODEL>
8

>  <REMARK>
 VINA RESULT:      -7.0      3.439      7.320
  Name = 
  2 active torsions:
  status: ('A' for Active; 'I' for Inactive)
    1  A    between atoms: C_5  and  C_30
    2  A    between atoms: C_10  and  N_16
                            x       y       z     vdW  Elec       q    Type
                         _______ _______ _______ _____ _____    ______ ____

>  <TORSDO>
F 2

$$$$
=
 OpenBabel11122411133D

 31 35  0  0  1  0  0  0  0  0999 V2000
  189.8950  176.0520  142.8150 C   0  0  0  0  0  0  0  0  0  0  0  0
  186.5200  177.0930  144.2270 C   0  0  2  0  0  3  0  0  0  0  0  0
  186.8020  177.8470  145.5180 C   0  0  0  0  0  0  0  0  0  0  0  0
  188.2850  178.4280  147.3580 C   0  0  0  0  0  0  0  0  0  0  0  0
  187.7220  177.0180  143.3130 C   0  0  0  0  0  0  0  0  0  0  0  0
  190.0270  176.9030  141.7160 C   0  0  0  0  0  3  0  0  0  0  0  0
  188.0500  177.7570  146.1560 C   0  0  0  0  0  3  0  0  0  0  0  0
  185.6630  178.9900  142.8060 C   0  0  2  0  0  3  0  0  0  0  0  0
  190.8820  175.1740  143.1140 F   0  0  0  0  0  0  0  0  0  0  0  0
  184.5050  178.6630  145.5520 O   0  0  0  0  0  0  0  0  0  0  0  0
  189.4980  178.3430  147.9550 F   0  0  0  0  0  0  0  0  0  0  0  0
  186.7340  178.7630  141.7400 C   0  0  0  0  0  2  0  0  0  0  0  0
  185.2960  177.6620  143.4810 C   0  0  2  0  0  3  0  0  0  0  0  0
  188.7470  176.1080  143.6090 C   0  0  0  0  0  3  0  0  0  0  0  0
  187.2690  179.1850  147.9450 C   0  0  0  0  0  3  0  0  0  0  0  0
  187.8560  177.8750  142.1970 C   0  0  0  0  0  0  0  0  0  0  0  0
  189.0060  177.8040  141.4040 C   0  0  0  0  0  3  0  0  0  0  0  0
  184.1320  177.8260  144.4610 C   0  0  0  0  0  2  0  0  0  0  0  0
  185.7710  178.5850  146.1380 C   0  0  0  0  0  0  0  0  0  0  0  0
  186.0140  179.2620  147.3370 C   0  0  0  0  0  3  0  0  0  0  0  0
  183.8360  177.6380  141.0830 O   0  0  0  0  0  0  0  0  0  0  0  0
  183.6070  178.8520  141.3390 C   0  0  0  0  0  0  0  0  0  0  0  0
  184.4880  179.5900  142.1880 N   0  0  0  0  0  2  0  0  0  0  0  0
  180.2020  177.7720  139.8580 C   0  0  1  0  0  3  0  0  0  0  0  0
  181.1530  179.3110  141.5900 C   0  0  0  0  0  2  0  0  0  0  0  0
  182.8960  179.7480  138.3510 C   0  0  0  0  0  2  0  0  0  0  0  0
  179.6020  176.5320  139.6490 O   0  0  0  0  0  1  0  0  0  0  0  0
  180.5420  177.9310  141.3360 C   0  0  0  0  0  2  0  0  0  0  0  0
  182.1930  179.1520  139.3110 C   0  0  0  0  0  0  0  0  0  0  0  0
  182.4150  179.5420  140.7490 C   0  0  2  0  0  3  0  0  0  0  0  0
  181.4620  177.8790  139.0020 C   0  0  0  0  0  2  0  0  0  0  0  0
  1  9  1  0  0  0  0
  1 14  1  0  0  0  0
  2  5  1  6  0  0  0
  2  3  1  0  0  0  0
  3 19  2  0  0  0  0
  3  7  1  0  0  0  0
  4 15  1  0  0  0  0
  4 11  1  0  0  0  0
  5 14  2  0  0  0  0
  6  1  2  0  0  0  0
  7  4  2  0  0  0  0
  8 23  1  6  0  0  0
  8 13  1  0  0  0  0
 10 19  1  0  0  0  0
 12 16  1  0  0  0  0
 12  8  1  0  0  0  0
 13  2  1  0  0  0  0
 13 18  1  1  0  0  0
 16  5  1  0  0  0  0
 17  6  1  0  0  0  0
 17 16  2  0  0  0  0
 18 10  1  0  0  0  0
 19 20  1  0  0  0  0
 20 15  2  0  0  0  0
 21 22  2  0  0  0  0
 22 23  1  0  0  0  0
 24 27  1  1  0  0  0
 24 28  1  0  0  0  0
 26 29  2  0  0  0  0
 28 25  1  0  0  0  0
 29 30  1  0  0  0  0
 30 22  1  1  0  0  0
 30 25  1  0  0  0  0
 31 29  1  0  0  0  0
 31 24  1  0  0  0  0
M  END
>  <MODEL>
9

>  <REMARK>
 VINA RESULT:      -7.0      5.436      9.184
  Name = 
  2 active torsions:
  status: ('A' for Active; 'I' for Inactive)
    1  A    between atoms: C_5  and  C_30
    2  A    between atoms: C_10  and  N_16
                            x       y       z     vdW  Elec       q    Type
                         _______ _______ _______ _____ _____    ______ ____

>  <TORSDO>
F 2

$$$$
