=
 OpenBabel11122411313D

 37 44  0  0  1  0  0  0  0  0999 V2000
  180.9260  180.7940  138.7460 C   0  0  0  0  0  2  0  0  0  0  0  0
  180.1810  178.2890  143.6500 S   0  0  0  0  0  0  0  0  0  0  0  0
  183.4170  178.7040  140.8070 C   0  0  0  0  0  0  0  0  0  0  0  0
  179.8000  181.6670  138.1810 C   0  0  2  0  0  3  0  0  0  0  0  0
  182.6440  177.6830  137.0760 C   0  0  0  0  0  2  0  0  0  0  0  0
  182.7180  179.1130  143.1030 C   0  0  0  0  0  0  0  0  0  0  0  0
  182.8510  178.4390  139.5190 N   0  0  0  0  0  0  0  0  0  0  0  0
  180.3330  180.5940  135.9750 C   0  0  0  0  0  0  0  0  0  0  0  0
  182.4390  178.9330  141.7470 C   0  0  0  0  0  0  0  0  0  0  0  0
  183.4960  177.9010  138.3140 C   0  0  0  0  0  0  0  0  0  0  0  0
  184.0540  179.1540  143.5030 C   0  0  0  0  0  3  0  0  0  0  0  0
  179.2520  181.1600  136.8430 C   0  0  0  0  0  2  0  0  0  0  0  0
  181.0890  178.8750  141.1650 C   0  0  2  0  0  3  0  0  0  0  0  0
  178.9310  179.0810  143.9150 O   0  0  0  0  0  0  0  0  0  0  0  0
  185.8980  178.5590  140.3150 C   0  0  0  0  0  3  0  0  0  0  0  0
  185.0680  178.9730  142.5520 C   0  0  0  0  0  3  0  0  0  0  0  0
  180.2480  177.8520  141.9140 C   0  0  0  0  0  2  0  0  0  0  0  0
  180.6990  179.1410  136.0690 C   0  0  1  0  0  3  0  0  0  0  0  0
  181.8790  178.9550  136.8940 C   0  0  1  0  0  3  0  0  0  0  0  0
  184.7640  178.7320  141.2000 C   0  0  0  0  0  0  0  0  0  0  0  0
  181.3720  178.4360  139.7280 C   0  0  1  0  0  3  0  0  0  0  0  0
  181.6110  179.2780  144.1000 C   0  0  0  0  0  2  0  0  0  0  0  0
  184.8360  177.7100  138.1560 C   0  0  0  0  0  0  0  0  0  0  0  0
  180.1610  177.0350  144.4760 O   0  0  0  0  0  0  0  0  0  0  0  0
  180.5590  178.5950  137.4400 N   0  0  1  0  0  0  0  0  0  0  0  0
  180.9220  181.3200  135.1900 O   0  0  0  0  0  0  0  0  0  0  0  0
  180.5580  179.2940  138.7350 C   0  0  2  0  0  3  0  0  0  0  0  0
  185.9120  178.1350  139.0640 C   0  0  0  0  0  3  0  0  0  0  0  0
  186.1200  177.8530  136.0080 C   0  0  0  0  0  3  0  0  0  0  0  0
  185.3690  177.0900  136.9150 C   0  0  0  0  0  0  0  0  0  0  0  0
  185.1580  175.7260  136.6550 C   0  0  0  0  0  3  0  0  0  0  0  0
  185.4580  173.7930  135.2430 O   0  0  0  0  0  1  0  0  0  0  0  0
  186.4150  175.9100  134.5940 C   0  0  0  0  0  3  0  0  0  0  0  0
  185.6770  175.1400  135.4960 C   0  0  0  0  0  0  0  0  0  0  0  0
  186.6380  177.2660  134.8510 C   0  0  0  0  0  3  0  0  0  0  0  0
  179.3030  183.8750  137.2810 N   0  0  0  0  0  1  0  0  0  0  0  0
  180.2750  183.1030  138.0360 C   0  0  0  0  0  2  0  0  0  0  0  0
  2 14  2  0  0  0  0
  2 22  1  0  0  0  0
  2 24  2  0  0  0  0
  3 20  2  0  0  0  0
  3  9  1  0  0  0  0
  4 37  1  6  0  0  0
  4  1  1  0  0  0  0
  5 10  1  0  0  0  0
  6 11  1  0  0  0  0
  6 22  1  0  0  0  0
  7  3  1  0  0  0  0
  8 12  1  0  0  0  0
  9  6  2  0  0  0  0
 10  7  1  0  0  0  0
 12  4  1  0  0  0  0
 13  9  1  0  0  0  0
 13 17  1  1  0  0  0
 15 20  1  0  0  0  0
 16 11  2  0  0  0  0
 17  2  1  0  0  0  0
 18  8  1  1  0  0  0
 18 19  1  0  0  0  0
 18 25  1  0  0  0  0
 19  5  1  6  0  0  0
 19 25  1  0  0  0  0
 20 16  1  0  0  0  0
 21  7  1  6  0  0  0
 21 13  1  0  0  0  0
 23 10  2  0  0  0  0
 23 28  1  0  0  0  0
 25 27  1  0  0  0  0
 26  8  2  0  0  0  0
 27  1  1  0  0  0  0
 27 21  1  0  0  0  0
 28 15  2  0  0  0  0
 29 30  1  0  0  0  0
 30 23  1  0  0  0  0
 31 30  2  0  0  0  0
 32 34  1  0  0  0  0
 33 35  1  0  0  0  0
 33 34  2  0  0  0  0
 34 31  1  0  0  0  0
 35 29  2  0  0  0  0
 36 37  1  0  0  0  0
M  END
>  <MODEL>
1

>  <REMARK>
 VINA RESULT:      -6.5      0.000      0.000
  Name = 
  2 active torsions:
  status: ('A' for Active; 'I' for Inactive)
    1  A    between atoms: C_4  and  C_37
    2  A    between atoms: C_23  and  C_30
                            x       y       z     vdW  Elec       q    Type
                         _______ _______ _______ _____ _____    ______ ____

>  <TORSDO>
F 2

$$$$
=
 OpenBabel11122411313D

 37 44  0  0  1  0  0  0  0  0999 V2000
  189.2840  176.4490  140.7510 C   0  0  0  0  0  2  0  0  0  0  0  0
  185.8810  177.5030  136.4870 S   0  0  0  0  0  0  0  0  0  0  0  0
  189.3170  174.9700  137.1970 C   0  0  0  0  0  0  0  0  0  0  0  0
  188.9900  177.0920  142.1110 C   0  0  2  0  0  3  0  0  0  0  0  0
  192.5570  176.7270  138.6010 C   0  0  0  0  0  2  0  0  0  0  0  0
  186.9680  175.0070  136.5590 C   0  0  0  0  0  0  0  0  0  0  0  0
  190.2890  175.7930  137.8520 N   0  0  0  0  0  0  0  0  0  0  0  0
  191.4630  177.5030  142.2390 C   0  0  0  0  0  0  0  0  0  0  0  0
  188.0710  175.5530  137.2180 C   0  0  0  0  0  0  0  0  0  0  0  0
  191.7540  175.6880  137.8390 C   0  0  0  0  0  0  0  0  0  0  0  0
  187.1190  173.7710  135.9300 C   0  0  0  0  0  3  0  0  0  0  0  0
  190.1050  178.0240  142.5960 C   0  0  0  0  0  2  0  0  0  0  0  0
  188.0750  176.8390  137.9330 C   0  0  2  0  0  3  0  0  0  0  0  0
  184.8760  178.1590  137.3930 O   0  0  0  0  0  0  0  0  0  0  0  0
  190.7200  172.9790  136.5000 C   0  0  0  0  0  3  0  0  0  0  0  0
  188.3690  173.1360  135.9410 C   0  0  0  0  0  3  0  0  0  0  0  0
  187.5340  177.9340  137.0250 C   0  0  0  0  0  2  0  0  0  0  0  0
  192.0960  177.8680  140.9270 C   0  0  1  0  0  3  0  0  0  0  0  0
  191.9200  176.8070  139.9520 C   0  0  1  0  0  3  0  0  0  0  0  0
  189.4830  173.7320  136.5590 C   0  0  0  0  0  0  0  0  0  0  0  0
  189.5590  177.0370  138.2410 C   0  0  1  0  0  3  0  0  0  0  0  0
  185.6510  175.7230  136.5430 C   0  0  0  0  0  2  0  0  0  0  0  0
  192.4660  174.6500  137.3180 C   0  0  0  0  0  0  0  0  0  0  0  0
  185.6760  177.9880  135.0810 O   0  0  0  0  0  0  0  0  0  0  0  0
  191.1090  178.0310  139.8320 N   0  0  1  0  0  0  0  0  0  0  0  0
  192.0560  176.7730  143.0170 O   0  0  0  0  0  0  0  0  0  0  0  0
  189.7460  177.4870  139.7060 C   0  0  2  0  0  3  0  0  0  0  0  0
  191.9410  173.3720  136.8140 C   0  0  0  0  0  3  0  0  0  0  0  0
  194.6890  174.1110  138.3430 C   0  0  0  0  0  3  0  0  0  0  0  0
  193.9510  174.6880  137.2980 C   0  0  0  0  0  0  0  0  0  0  0  0
  194.6330  175.2670  136.2160 C   0  0  0  0  0  3  0  0  0  0  0  0
  196.6970  175.8660  135.1200 O   0  0  0  0  0  1  0  0  0  0  0  0
  196.7560  174.7160  137.2400 C   0  0  0  0  0  3  0  0  0  0  0  0
  196.0310  175.2850  136.1900 C   0  0  0  0  0  0  0  0  0  0  0  0
  196.0860  174.1280  138.3160 C   0  0  0  0  0  3  0  0  0  0  0  0
  188.6130  176.6170  144.4700 N   0  0  0  0  0  1  0  0  0  0  0  0
  188.7230  176.0180  143.1510 C   0  0  0  0  0  2  0  0  0  0  0  0
  1  4  1  0  0  0  0
  2 22  1  0  0  0  0
  2 17  1  0  0  0  0
  2 14  2  0  0  0  0
  3  9  1  0  0  0  0
  3  7  1  0  0  0  0
  4 12  1  0  0  0  0
  4 37  1  1  0  0  0
  6  9  2  0  0  0  0
  8 12  1  0  0  0  0
  8 26  2  0  0  0  0
  9 13  1  0  0  0  0
 10  7  1  0  0  0  0
 10  5  1  0  0  0  0
 11 16  2  0  0  0  0
 11  6  1  0  0  0  0
 13 17  1  6  0  0  0
 13 21  1  0  0  0  0
 15 20  1  0  0  0  0
 15 28  2  0  0  0  0
 16 20  1  0  0  0  0
 18  8  1  1  0  0  0
 19  5  1  6  0  0  0
 19 18  1  0  0  0  0
 20  3  2  0  0  0  0
 21  7  1  1  0  0  0
 21 27  1  0  0  0  0
 22  6  1  0  0  0  0
 23 10  2  0  0  0  0
 24  2  2  0  0  0  0
 25 19  1  0  0  0  0
 25 18  1  0  0  0  0
 27 25  1  0  0  0  0
 27  1  1  0  0  0  0
 28 23  1  0  0  0  0
 30 23  1  0  0  0  0
 30 29  2  0  0  0  0
 31 30  1  0  0  0  0
 32 34  1  0  0  0  0
 33 35  2  0  0  0  0
 34 31  2  0  0  0  0
 34 33  1  0  0  0  0
 35 29  1  0  0  0  0
 37 36  1  0  0  0  0
M  END
>  <MODEL>
2

>  <REMARK>
 VINA RESULT:      -6.4      6.575     10.098
  Name = 
  2 active torsions:
  status: ('A' for Active; 'I' for Inactive)
    1  A    between atoms: C_4  and  C_37
    2  A    between atoms: C_23  and  C_30
                            x       y       z     vdW  Elec       q    Type
                         _______ _______ _______ _____ _____    ______ ____

>  <TORSDO>
F 2

$$$$
=
 OpenBabel11122411313D

 37 44  0  0  1  0  0  0  0  0999 V2000
  184.4280  174.5780  136.9620 C   0  0  0  0  0  2  0  0  0  0  0  0
  189.2730  176.7690  135.3520 S   0  0  0  0  0  0  0  0  0  0  0  0
  186.2710  177.6670  138.3360 C   0  0  0  0  0  0  0  0  0  0  0  0
  183.9580  173.2670  136.3220 C   0  0  2  0  0  3  0  0  0  0  0  0
  182.5550  178.0280  137.0630 C   0  0  0  0  0  2  0  0  0  0  0  0
  188.6150  177.1220  137.9710 C   0  0  0  0  0  0  0  0  0  0  0  0
  185.0080  177.5810  137.6670 N   0  0  0  0  0  0  0  0  0  0  0  0
  181.6890  174.3380  136.2470 C   0  0  0  0  0  0  0  0  0  0  0  0
  187.2710  177.0830  137.5940 C   0  0  0  0  0  0  0  0  0  0  0  0
  183.7500  178.2790  137.9650 C   0  0  0  0  0  0  0  0  0  0  0  0
  188.9410  177.6970  139.1990 C   0  0  0  0  0  3  0  0  0  0  0  0
  182.6360  173.4040  135.5600 C   0  0  0  0  0  2  0  0  0  0  0  0
  186.7640  176.5050  136.3400 C   0  0  2  0  0  3  0  0  0  0  0  0
  189.6360  175.5230  134.5940 O   0  0  0  0  0  0  0  0  0  0  0  0
  185.6360  178.8650  140.4770 C   0  0  0  0  0  3  0  0  0  0  0  0
  187.9290  178.2540  139.9940 C   0  0  0  0  0  3  0  0  0  0  0  0
  187.5220  177.0930  135.1590 C   0  0  0  0  0  2  0  0  0  0  0  0
  181.7100  175.8070  135.9340 C   0  0  1  0  0  3  0  0  0  0  0  0
  182.4610  176.5410  136.9350 C   0  0  1  0  0  3  0  0  0  0  0  0
  186.5880  178.2580  139.5680 C   0  0  0  0  0  0  0  0  0  0  0  0
  185.2990  176.9420  136.3490 C   0  0  1  0  0  3  0  0  0  0  0  0
  189.6780  176.5410  137.0870 C   0  0  0  0  0  2  0  0  0  0  0  0
  183.5110  179.0330  139.0750 C   0  0  0  0  0  0  0  0  0  0  0  0
  190.0550  177.9300  134.8060 O   0  0  0  0  0  0  0  0  0  0  0  0
  183.0670  176.3120  135.6120 N   0  0  1  0  0  0  0  0  0  0  0  0
  180.8990  173.9040  137.0700 O   0  0  0  0  0  0  0  0  0  0  0  0
  184.3850  175.7580  135.9670 C   0  0  2  0  0  3  0  0  0  0  0  0
  184.3720  179.1800  140.2580 C   0  0  0  0  0  3  0  0  0  0  0  0
  181.2500  179.2790  140.1290 C   0  0  0  0  0  3  0  0  0  0  0  0
  182.2210  179.7540  139.2330 C   0  0  0  0  0  0  0  0  0  0  0  0
  181.9740  180.9360  138.5180 C   0  0  0  0  0  3  0  0  0  0  0  0
  180.5290  182.7880  137.9680 O   0  0  0  0  0  1  0  0  0  0  0  0
  179.8030  181.1380  139.5700 C   0  0  0  0  0  3  0  0  0  0  0  0
  180.7680  181.6230  138.6830 C   0  0  0  0  0  0  0  0  0  0  0  0
  180.0450  179.9670  140.2940 C   0  0  0  0  0  3  0  0  0  0  0  0
  183.1100  171.0450  136.8460 N   0  0  0  0  0  1  0  0  0  0  0  0
  183.8370  172.1830  137.3800 C   0  0  0  0  0  2  0  0  0  0  0  0
  2 22  1  0  0  0  0
  3 20  1  0  0  0  0
  4  1  1  0  0  0  0
  4 37  1  1  0  0  0
  5 10  1  0  0  0  0
  6 11  2  0  0  0  0
  7 10  1  0  0  0  0
  7  3  1  0  0  0  0
  8 26  2  0  0  0  0
  9  6  1  0  0  0  0
  9  3  2  0  0  0  0
 10 23  2  0  0  0  0
 11 16  1  0  0  0  0
 12  8  1  0  0  0  0
 12  4  1  0  0  0  0
 13 17  1  6  0  0  0
 13 21  1  0  0  0  0
 13  9  1  0  0  0  0
 14  2  2  0  0  0  0
 17  2  1  0  0  0  0
 18  8  1  1  0  0  0
 18 19  1  0  0  0  0
 19  5  1  6  0  0  0
 20 16  2  0  0  0  0
 20 15  1  0  0  0  0
 21  7  1  1  0  0  0
 22  6  1  0  0  0  0
 23 30  1  0  0  0  0
 23 28  1  0  0  0  0
 24  2  2  0  0  0  0
 25 18  1  0  0  0  0
 25 27  1  0  0  0  0
 25 19  1  0  0  0  0
 27 21  1  0  0  0  0
 27  1  1  0  0  0  0
 28 15  2  0  0  0  0
 29 35  1  0  0  0  0
 30 29  2  0  0  0  0
 31 34  2  0  0  0  0
 31 30  1  0  0  0  0
 32 34  1  0  0  0  0
 33 35  2  0  0  0  0
 34 33  1  0  0  0  0
 36 37  1  0  0  0  0
M  END
>  <MODEL>
3

>  <REMARK>
 VINA RESULT:      -6.4      3.660      7.797
  Name = 
  2 active torsions:
  status: ('A' for Active; 'I' for Inactive)
    1  A    between atoms: C_4  and  C_37
    2  A    between atoms: C_23  and  C_30
                            x       y       z     vdW  Elec       q    Type
                         _______ _______ _______ _____ _____    ______ ____

>  <TORSDO>
F 2

$$$$
=
 OpenBabel11122411313D

 37 44  0  0  1  0  0  0  0  0999 V2000
  189.0760  176.4090  140.6780 C   0  0  0  0  0  2  0  0  0  0  0  0
  185.4330  177.3610  136.5930 S   0  0  0  0  0  0  0  0  0  0  0  0
  188.9100  174.8500  137.1620 C   0  0  0  0  0  0  0  0  0  0  0  0
  188.8580  177.0830  142.0380 C   0  0  2  0  0  3  0  0  0  0  0  0
  192.2210  176.6430  138.3390 C   0  0  0  0  0  2  0  0  0  0  0  0
  186.5290  174.8690  136.6590 C   0  0  0  0  0  0  0  0  0  0  0  0
  189.9160  175.6890  137.7420 N   0  0  0  0  0  0  0  0  0  0  0  0
  191.3330  177.5000  142.0140 C   0  0  0  0  0  0  0  0  0  0  0  0
  187.6660  175.4310  137.2420 C   0  0  0  0  0  0  0  0  0  0  0  0
  191.3780  175.5860  137.6480 C   0  0  0  0  0  0  0  0  0  0  0  0
  186.6460  173.6180  136.0510 C   0  0  0  0  0  3  0  0  0  0  0  0
  189.9970  178.0270  142.4370 C   0  0  0  0  0  2  0  0  0  0  0  0
  187.7070  176.7330  137.9260 C   0  0  2  0  0  3  0  0  0  0  0  0
  184.4790  178.0360  137.5390 O   0  0  0  0  0  0  0  0  0  0  0  0
  190.2770  172.8450  136.4320 C   0  0  0  0  0  3  0  0  0  0  0  0
  187.8970  172.9860  136.0040 C   0  0  0  0  0  3  0  0  0  0  0  0
  187.1130  177.8060  137.0260 C   0  0  0  0  0  2  0  0  0  0  0  0
  191.8900  177.8360  140.6600 C   0  0  1  0  0  3  0  0  0  0  0  0
  191.6620  176.7530  139.7220 C   0  0  1  0  0  3  0  0  0  0  0  0
  189.0430  173.5970  136.5440 C   0  0  0  0  0  0  0  0  0  0  0  0
  189.2060  176.9400  138.1440 C   0  0  1  0  0  3  0  0  0  0  0  0
  185.2110  175.5820  136.7020 C   0  0  0  0  0  2  0  0  0  0  0  0
  192.0620  174.5360  137.1110 C   0  0  0  0  0  0  0  0  0  0  0  0
  185.1460  177.8130  135.1900 O   0  0  0  0  0  0  0  0  0  0  0  0
  190.8410  177.9720  139.6210 N   0  0  1  0  0  0  0  0  0  0  0  0
  191.9720  176.7890  142.7740 O   0  0  0  0  0  0  0  0  0  0  0  0
  189.4750  177.4240  139.5850 C   0  0  2  0  0  3  0  0  0  0  0  0
  191.5130  173.2460  136.6670 C   0  0  0  0  0  3  0  0  0  0  0  0
  194.1570  175.1300  135.8710 C   0  0  0  0  0  3  0  0  0  0  0  0
  193.5430  174.5760  137.0050 C   0  0  0  0  0  0  0  0  0  0  0  0
  194.3440  174.0940  138.0520 C   0  0  0  0  0  3  0  0  0  0  0  0
  196.5230  173.6650  138.9950 O   0  0  0  0  0  1  0  0  0  0  0  0
  196.3410  174.6940  136.8220 C   0  0  0  0  0  3  0  0  0  0  0  0
  195.7380  174.1490  137.9590 C   0  0  0  0  0  0  0  0  0  0  0  0
  195.5510  175.1860  135.7790 C   0  0  0  0  0  3  0  0  0  0  0  0
  188.1990  176.6600  144.3440 N   0  0  0  0  0  1  0  0  0  0  0  0
  188.6540  176.0330  143.1160 C   0  0  0  0  0  2  0  0  0  0  0  0
  1  4  1  0  0  0  0
  2 22  1  0  0  0  0
  2 17  1  0  0  0  0
  2 14  2  0  0  0  0
  3  9  1  0  0  0  0
  3  7  1  0  0  0  0
  4 12  1  0  0  0  0
  4 37  1  1  0  0  0
  6 22  1  0  0  0  0
  6  9  2  0  0  0  0
  8 12  1  0  0  0  0
  8 26  2  0  0  0  0
  9 13  1  0  0  0  0
 10  7  1  0  0  0  0
 10  5  1  0  0  0  0
 11  6  1  0  0  0  0
 13 17  1  6  0  0  0
 13 21  1  0  0  0  0
 15 20  1  0  0  0  0
 15 28  2  0  0  0  0
 16 11  2  0  0  0  0
 16 20  1  0  0  0  0
 18  8  1  1  0  0  0
 19  5  1  6  0  0  0
 19 18  1  0  0  0  0
 20  3  2  0  0  0  0
 21  7  1  1  0  0  0
 21 27  1  0  0  0  0
 23 10  2  0  0  0  0
 24  2  2  0  0  0  0
 25 19  1  0  0  0  0
 25 18  1  0  0  0  0
 27 25  1  0  0  0  0
 27  1  1  0  0  0  0
 28 23  1  0  0  0  0
 29 30  1  0  0  0  0
 30 23  1  0  0  0  0
 30 31  2  0  0  0  0
 33 34  2  0  0  0  0
 34 31  1  0  0  0  0
 34 32  1  0  0  0  0
 35 29  2  0  0  0  0
 35 33  1  0  0  0  0
 37 36  1  0  0  0  0
M  END
>  <MODEL>
4

>  <REMARK>
 VINA RESULT:      -6.4      6.316      9.823
  Name = 
  2 active torsions:
  status: ('A' for Active; 'I' for Inactive)
    1  A    between atoms: C_4  and  C_37
    2  A    between atoms: C_23  and  C_30
                            x       y       z     vdW  Elec       q    Type
                         _______ _______ _______ _____ _____    ______ ____

>  <TORSDO>
F 2

$$$$
=
 OpenBabel11122411313D

 37 44  0  0  1  0  0  0  0  0999 V2000
  184.7400  177.7010  137.9740 C   0  0  0  0  0  2  0  0  0  0  0  0
  180.5540  181.3440  138.2590 S   0  0  0  0  0  0  0  0  0  0  0  0
  181.0340  177.0790  138.8110 C   0  0  0  0  0  0  0  0  0  0  0  0
  186.1600  178.2210  137.7260 C   0  0  2  0  0  3  0  0  0  0  0  0
  182.7190  175.0850  135.8550 C   0  0  0  0  0  2  0  0  0  0  0  0
  180.3480  179.1600  139.8720 C   0  0  0  0  0  0  0  0  0  0  0  0
  181.8070  176.6180  137.6970 N   0  0  0  0  0  0  0  0  0  0  0  0
  186.3960  176.2750  136.1590 C   0  0  0  0  0  0  0  0  0  0  0  0
  181.0960  178.4480  138.9320 C   0  0  0  0  0  0  0  0  0  0  0  0
  181.8170  175.2960  137.0580 C   0  0  0  0  0  0  0  0  0  0  0  0
  179.5780  178.4410  140.7870 C   0  0  0  0  0  3  0  0  0  0  0  0
  186.7810  177.6970  136.4270 C   0  0  0  0  0  2  0  0  0  0  0  0
  181.9610  179.0540  137.9090 C   0  0  2  0  0  3  0  0  0  0  0  0
  181.5080  182.5050  138.3010 O   0  0  0  0  0  0  0  0  0  0  0  0
  180.1340  174.9020  139.7440 C   0  0  0  0  0  3  0  0  0  0  0  0
  179.5410  177.0410  140.7120 C   0  0  0  0  0  3  0  0  0  0  0  0
  181.1810  180.1020  137.1290 C   0  0  0  0  0  2  0  0  0  0  0  0
  185.1540  175.9590  135.3760 C   0  0  1  0  0  3  0  0  0  0  0  0
  184.0530  175.6230  136.2610 C   0  0  1  0  0  3  0  0  0  0  0  0
  180.2540  176.3460  139.7180 C   0  0  0  0  0  0  0  0  0  0  0  0
  182.3270  177.8530  137.0370 C   0  0  1  0  0  3  0  0  0  0  0  0
  180.3880  180.6590  139.9100 C   0  0  0  0  0  2  0  0  0  0  0  0
  181.1910  174.1840  137.5360 C   0  0  0  0  0  0  0  0  0  0  0  0
  179.2130  181.8190  137.7780 O   0  0  0  0  0  0  0  0  0  0  0  0
  184.0630  176.9390  135.5990 N   0  0  1  0  0  0  0  0  0  0  0  0
  187.0940  175.3680  136.5830 O   0  0  0  0  0  0  0  0  0  0  0  0
  183.8400  177.8560  136.7290 C   0  0  2  0  0  3  0  0  0  0  0  0
  180.5230  174.0250  138.8360 C   0  0  0  0  0  3  0  0  0  0  0  0
  180.1430  172.5870  135.9140 C   0  0  0  0  0  3  0  0  0  0  0  0
  181.2110  172.9160  136.7630 C   0  0  0  0  0  0  0  0  0  0  0  0
  182.3140  172.0510  136.8430 C   0  0  0  0  0  3  0  0  0  0  0  0
  183.4310  170.0140  136.1910 O   0  0  0  0  0  1  0  0  0  0  0  0
  181.2670  170.5430  135.2650 C   0  0  0  0  0  3  0  0  0  0  0  0
  182.3400  170.8670  136.1000 C   0  0  0  0  0  0  0  0  0  0  0  0
  180.1700  171.4040  135.1700 C   0  0  0  0  0  3  0  0  0  0  0  0
  188.2970  178.6280  138.8220 N   0  0  0  0  0  1  0  0  0  0  0  0
  187.0550  177.8780  138.9040 C   0  0  0  0  0  2  0  0  0  0  0  0
  2 14  2  0  0  0  0
  2 22  1  0  0  0  0
  3  9  2  0  0  0  0
  3 20  1  0  0  0  0
  4  1  1  0  0  0  0
  4 37  1  1  0  0  0
  5 10  1  0  0  0  0
  6 22  1  0  0  0  0
  6 11  2  0  0  0  0
  7  3  1  0  0  0  0
  8 12  1  0  0  0  0
  8 26  2  0  0  0  0
  9  6  1  0  0  0  0
 10 23  2  0  0  0  0
 10  7  1  0  0  0  0
 12  4  1  0  0  0  0
 13 17  1  6  0  0  0
 13  9  1  0  0  0  0
 16 11  1  0  0  0  0
 17  2  1  0  0  0  0
 18 25  1  0  0  0  0
 18  8  1  1  0  0  0
 18 19  1  0  0  0  0
 19  5  1  6  0  0  0
 20 15  1  0  0  0  0
 20 16  2  0  0  0  0
 21  7  1  1  0  0  0
 21 13  1  0  0  0  0
 23 28  1  0  0  0  0
 24  2  2  0  0  0  0
 25 19  1  0  0  0  0
 25 27  1  0  0  0  0
 27 21  1  0  0  0  0
 27  1  1  0  0  0  0
 28 15  2  0  0  0  0
 29 30  1  0  0  0  0
 30 31  2  0  0  0  0
 30 23  1  0  0  0  0
 33 34  2  0  0  0  0
 34 32  1  0  0  0  0
 34 31  1  0  0  0  0
 35 33  1  0  0  0  0
 35 29  2  0  0  0  0
 36 37  1  0  0  0  0
M  END
>  <MODEL>
5

>  <REMARK>
 VINA RESULT:      -5.7      3.392      6.040
  Name = 
  2 active torsions:
  status: ('A' for Active; 'I' for Inactive)
    1  A    between atoms: C_4  and  C_37
    2  A    between atoms: C_23  and  C_30
                            x       y       z     vdW  Elec       q    Type
                         _______ _______ _______ _____ _____    ______ ____

>  <TORSDO>
F 2

$$$$
=
 OpenBabel11122411313D

 37 44  0  0  1  0  0  0  0  0999 V2000
  183.6710  178.6070  141.3300 C   0  0  0  0  0  2  0  0  0  0  0  0
  179.8620  181.3350  138.3430 S   0  0  0  0  0  0  0  0  0  0  0  0
  181.9250  177.5420  138.0680 C   0  0  0  0  0  0  0  0  0  0  0  0
  184.1330  179.2040  142.6640 C   0  0  2  0  0  3  0  0  0  0  0  0
  185.8650  177.6490  138.2180 C   0  0  0  0  0  2  0  0  0  0  0  0
  179.7470  178.6170  138.2270 C   0  0  0  0  0  0  0  0  0  0  0  0
  183.3080  177.8220  138.3130 N   0  0  0  0  0  0  0  0  0  0  0  0
  186.4410  178.5210  141.9510 C   0  0  0  0  0  0  0  0  0  0  0  0
  181.1250  178.5920  138.4530 C   0  0  0  0  0  0  0  0  0  0  0  0
  184.4990  177.1110  137.8320 C   0  0  0  0  0  0  0  0  0  0  0  0
  179.1470  177.4870  137.6710 C   0  0  0  0  0  3  0  0  0  0  0  0
  185.6290  179.5360  142.6940 C   0  0  0  0  0  2  0  0  0  0  0  0
  181.9030  179.6940  139.0380 C   0  0  2  0  0  3  0  0  0  0  0  0
  179.5810  182.2790  139.4780 O   0  0  0  0  0  0  0  0  0  0  0  0
  182.0430  175.2070  137.0910 C   0  0  0  0  0  3  0  0  0  0  0  0
  179.9400  176.3850  137.3170 C   0  0  0  0  0  3  0  0  0  0  0  0
  181.6170  180.9840  138.2830 C   0  0  0  0  0  2  0  0  0  0  0  0
  186.7090  178.6890  140.4830 C   0  0  1  0  0  3  0  0  0  0  0  0
  185.7960  177.8820  139.6930 C   0  0  1  0  0  3  0  0  0  0  0  0
  181.3350  176.4040  137.4970 C   0  0  0  0  0  0  0  0  0  0  0  0
  183.3430  179.2230  138.8320 C   0  0  1  0  0  3  0  0  0  0  0  0
  178.9310  179.8210  138.5930 C   0  0  0  0  0  2  0  0  0  0  0  0
  184.4930  175.9140  137.1800 C   0  0  0  0  0  0  0  0  0  0  0  0
  179.4400  181.9720  137.0500 O   0  0  0  0  0  0  0  0  0  0  0  0
  185.5890  179.3390  139.7600 N   0  0  1  0  0  0  0  0  0  0  0  0
  186.8850  177.5500  142.5420 O   0  0  0  0  0  0  0  0  0  0  0  0
  184.1650  179.4330  140.1220 C   0  0  2  0  0  3  0  0  0  0  0  0
  183.3450  175.0210  136.9630 C   0  0  0  0  0  3  0  0  0  0  0  0
  186.4850  175.9650  135.6600 C   0  0  0  0  0  3  0  0  0  0  0  0
  185.7590  175.3230  136.6750 C   0  0  0  0  0  0  0  0  0  0  0  0
  186.2630  174.1370  137.2330 C   0  0  0  0  0  3  0  0  0  0  0  0
  187.9520  172.4170  137.3210 O   0  0  0  0  0  1  0  0  0  0  0  0
  188.1750  174.2350  135.7510 C   0  0  0  0  0  3  0  0  0  0  0  0
  187.4650  173.5930  136.7690 C   0  0  0  0  0  0  0  0  0  0  0  0
  187.6860  175.4220  135.1980 C   0  0  0  0  0  3  0  0  0  0  0  0
  183.4490  179.0250  144.9940 N   0  0  0  0  0  1  0  0  0  0  0  0
  183.7880  178.2630  143.8050 C   0  0  0  0  0  2  0  0  0  0  0  0
  1  4  1  0  0  0  0
  2 22  1  0  0  0  0
  2 14  2  0  0  0  0
  3  7  1  0  0  0  0
  3  9  1  0  0  0  0
  4 12  1  0  0  0  0
  4 37  1  1  0  0  0
  6  9  2  0  0  0  0
  6 22  1  0  0  0  0
  8 26  2  0  0  0  0
  8 12  1  0  0  0  0
  9 13  1  0  0  0  0
 10  5  1  0  0  0  0
 10  7  1  0  0  0  0
 11  6  1  0  0  0  0
 13 17  1  6  0  0  0
 15 20  1  0  0  0  0
 16 20  1  0  0  0  0
 16 11  2  0  0  0  0
 17  2  1  0  0  0  0
 18  8  1  1  0  0  0
 19  5  1  6  0  0  0
 19 25  1  0  0  0  0
 19 18  1  0  0  0  0
 20  3  2  0  0  0  0
 21  7  1  1  0  0  0
 21 13  1  0  0  0  0
 21 27  1  0  0  0  0
 23 10  2  0  0  0  0
 24  2  2  0  0  0  0
 25 27  1  0  0  0  0
 25 18  1  0  0  0  0
 27  1  1  0  0  0  0
 28 15  2  0  0  0  0
 28 23  1  0  0  0  0
 29 30  1  0  0  0  0
 30 23  1  0  0  0  0
 30 31  2  0  0  0  0
 33 34  2  0  0  0  0
 34 31  1  0  0  0  0
 34 32  1  0  0  0  0
 35 29  2  0  0  0  0
 35 33  1  0  0  0  0
 37 36  1  0  0  0  0
M  END
>  <MODEL>
6

>  <REMARK>
 VINA RESULT:      -5.5      2.761      5.620
  Name = 
  2 active torsions:
  status: ('A' for Active; 'I' for Inactive)
    1  A    between atoms: C_4  and  C_37
    2  A    between atoms: C_23  and  C_30
                            x       y       z     vdW  Elec       q    Type
                         _______ _______ _______ _____ _____    ______ ____

>  <TORSDO>
F 2

$$$$
=
 OpenBabel11122411313D

 37 44  0  0  1  0  0  0  0  0999 V2000
  184.5090  175.2580  137.5910 C   0  0  0  0  0  2  0  0  0  0  0  0
  188.8670  178.6230  136.8440 S   0  0  0  0  0  0  0  0  0  0  0  0
  185.8740  178.0120  139.9090 C   0  0  0  0  0  0  0  0  0  0  0  0
  184.2360  174.1580  136.5590 C   0  0  2  0  0  3  0  0  0  0  0  0
  182.1030  178.1330  138.7570 C   0  0  0  0  0  2  0  0  0  0  0  0
  188.2600  178.0110  139.4270 C   0  0  0  0  0  0  0  0  0  0  0  0
  184.6170  177.9330  139.2270 N   0  0  0  0  0  0  0  0  0  0  0  0
  181.8210  174.8030  136.7920 C   0  0  0  0  0  0  0  0  0  0  0  0
  186.9270  177.8690  139.0360 C   0  0  0  0  0  0  0  0  0  0  0  0
  183.2750  178.2810  139.7120 C   0  0  0  0  0  0  0  0  0  0  0  0
  188.5350  178.2130  140.7800 C   0  0  0  0  0  3  0  0  0  0  0  0
  182.8810  174.3070  135.8580 C   0  0  0  0  0  2  0  0  0  0  0  0
  186.4740  177.6440  137.6550 C   0  0  2  0  0  3  0  0  0  0  0  0
  189.3990  177.7610  135.7330 O   0  0  0  0  0  0  0  0  0  0  0  0
  185.1340  178.3450  142.3090 C   0  0  0  0  0  3  0  0  0  0  0  0
  187.4760  178.3100  141.6940 C   0  0  0  0  0  3  0  0  0  0  0  0
  187.0800  178.6940  136.7350 C   0  0  0  0  0  2  0  0  0  0  0  0
  181.5900  176.2780  136.9650 C   0  0  1  0  0  3  0  0  0  0  0  0
  182.2490  176.7700  138.1610 C   0  0  1  0  0  3  0  0  0  0  0  0
  186.1370  178.2260  141.2700 C   0  0  0  0  0  0  0  0  0  0  0  0
  184.9580  177.8050  137.7790 C   0  0  1  0  0  3  0  0  0  0  0  0
  189.3690  177.9270  138.4210 C   0  0  0  0  0  2  0  0  0  0  0  0
  182.9580  178.5920  141.0000 C   0  0  0  0  0  0  0  0  0  0  0  0
  189.4260  180.0100  136.7100 O   0  0  0  0  0  0  0  0  0  0  0  0
  182.8330  177.0770  136.8430 N   0  0  1  0  0  0  0  0  0  0  0  0
  181.1440  174.0050  137.4200 O   0  0  0  0  0  0  0  0  0  0  0  0
  184.2360  176.6680  137.0240 C   0  0  2  0  0  3  0  0  0  0  0  0
  183.8280  178.4970  142.1820 C   0  0  0  0  0  3  0  0  0  0  0  0
  180.7490  179.6170  140.4080 C   0  0  0  0  0  3  0  0  0  0  0  0
  181.5750  178.9990  141.3600 C   0  0  0  0  0  0  0  0  0  0  0  0
  181.0670  178.7370  142.6420 C   0  0  0  0  0  3  0  0  0  0  0  0
  179.2670  178.8460  144.2440 O   0  0  0  0  0  1  0  0  0  0  0  0
  178.9470  179.7270  142.0210 C   0  0  0  0  0  3  0  0  0  0  0  0
  179.7590  179.1030  142.9720 C   0  0  0  0  0  0  0  0  0  0  0  0
  179.4410  179.9820  140.7390 C   0  0  0  0  0  3  0  0  0  0  0  0
  185.3550  172.8040  138.2450 N   0  0  0  0  0  1  0  0  0  0  0  0
  184.3340  172.7910  137.2120 C   0  0  0  0  0  2  0  0  0  0  0  0
  2 22  1  0  0  0  0
  3 20  1  0  0  0  0
  4 37  1  1  0  0  0
  4  1  1  0  0  0  0
  5 10  1  0  0  0  0
  6 11  2  0  0  0  0
  7 10  1  0  0  0  0
  7  3  1  0  0  0  0
  8 26  2  0  0  0  0
  9  6  1  0  0  0  0
  9  3  2  0  0  0  0
 10 23  2  0  0  0  0
 11 16  1  0  0  0  0
 12  4  1  0  0  0  0
 12  8  1  0  0  0  0
 13 17  1  6  0  0  0
 13 21  1  0  0  0  0
 13  9  1  0  0  0  0
 14  2  2  0  0  0  0
 17  2  1  0  0  0  0
 18  8  1  1  0  0  0
 18 19  1  0  0  0  0
 19  5  1  6  0  0  0
 20 16  2  0  0  0  0
 20 15  1  0  0  0  0
 21  7  1  1  0  0  0
 22  6  1  0  0  0  0
 23 30  1  0  0  0  0
 23 28  1  0  0  0  0
 24  2  2  0  0  0  0
 25 18  1  0  0  0  0
 25 27  1  0  0  0  0
 25 19  1  0  0  0  0
 27  1  1  0  0  0  0
 27 21  1  0  0  0  0
 28 15  2  0  0  0  0
 29 35  2  0  0  0  0
 29 30  1  0  0  0  0
 30 31  2  0  0  0  0
 31 34  1  0  0  0  0
 33 34  2  0  0  0  0
 34 32  1  0  0  0  0
 35 33  1  0  0  0  0
 37 36  1  0  0  0  0
M  END
>  <MODEL>
7

>  <REMARK>
 VINA RESULT:      -5.2      3.315      7.488
  Name = 
  2 active torsions:
  status: ('A' for Active; 'I' for Inactive)
    1  A    between atoms: C_4  and  C_37
    2  A    between atoms: C_23  and  C_30
                            x       y       z     vdW  Elec       q    Type
                         _______ _______ _______ _____ _____    ______ ____

>  <TORSDO>
F 2

$$$$
=
 OpenBabel11122411313D

 37 44  0  0  1  0  0  0  0  0999 V2000
  188.1170  176.3340  138.6090 C   0  0  0  0  0  2  0  0  0  0  0  0
  190.4990  178.5900  143.0930 S   0  0  0  0  0  0  0  0  0  0  0  0
  186.4600  178.0080  141.6540 C   0  0  0  0  0  0  0  0  0  0  0  0
  189.0010  175.6250  137.5770 C   0  0  2  0  0  3  0  0  0  0  0  0
  185.6580  179.3400  138.0290 C   0  0  0  0  0  2  0  0  0  0  0  0
  188.0170  177.5330  143.4640 C   0  0  0  0  0  0  0  0  0  0  0  0
  186.4650  178.4140  140.2810 N   0  0  0  0  0  0  0  0  0  0  0  0
  187.5810  176.7720  135.8540 C   0  0  0  0  0  0  0  0  0  0  0  0
  187.7390  177.8270  142.1280 C   0  0  0  0  0  0  0  0  0  0  0  0
  185.3670  178.9540  139.4680 C   0  0  0  0  0  0  0  0  0  0  0  0
  186.9460  177.3220  144.3320 C   0  0  0  0  0  3  0  0  0  0  0  0
  188.9520  176.2730  136.1890 C   0  0  0  0  0  2  0  0  0  0  0  0
  188.7520  178.0670  141.0890 C   0  0  2  0  0  3  0  0  0  0  0  0
  191.8110  177.9230  142.7870 O   0  0  0  0  0  0  0  0  0  0  0  0
  183.9770  177.9150  142.1510 C   0  0  0  0  0  3  0  0  0  0  0  0
  185.6330  177.4520  143.8560 C   0  0  0  0  0  3  0  0  0  0  0  0
  189.7360  179.1260  141.5640 C   0  0  0  0  0  2  0  0  0  0  0  0
  187.1690  178.1680  136.2230 C   0  0  1  0  0  3  0  0  0  0  0  0
  186.3880  178.1730  137.4460 C   0  0  1  0  0  3  0  0  0  0  0  0
  185.3740  177.8100  142.5210 C   0  0  0  0  0  0  0  0  0  0  0  0
  187.9060  178.5640  139.9160 C   0  0  1  0  0  3  0  0  0  0  0  0
  189.4320  177.4260  143.9480 C   0  0  0  0  0  2  0  0  0  0  0  0
  184.0590  179.0080  139.8470 C   0  0  0  0  0  0  0  0  0  0  0  0
  190.7410  179.7840  143.9710 O   0  0  0  0  0  0  0  0  0  0  0  0
  187.7850  178.6390  137.4870 N   0  0  1  0  0  0  0  0  0  0  0  0
  186.7920  176.0380  135.2800 O   0  0  0  0  0  0  0  0  0  0  0  0
  188.3370  177.8630  138.6100 C   0  0  2  0  0  3  0  0  0  0  0  0
  183.4510  178.4130  141.0470 C   0  0  0  0  0  3  0  0  0  0  0  0
  182.2290  178.8560  138.1410 C   0  0  0  0  0  3  0  0  0  0  0  0
  183.0450  179.6450  138.9670 C   0  0  0  0  0  0  0  0  0  0  0  0
  182.8660  181.0370  138.9790 C   0  0  0  0  0  3  0  0  0  0  0  0
  181.7320  183.0100  138.1780 O   0  0  0  0  0  1  0  0  0  0  0  0
  181.0960  180.8390  137.3390 C   0  0  0  0  0  3  0  0  0  0  0  0
  181.8980  181.6320  138.1650 C   0  0  0  0  0  0  0  0  0  0  0  0
  181.2610  179.4510  137.3280 C   0  0  0  0  0  3  0  0  0  0  0  0
  189.7920  173.3540  137.1940 N   0  0  0  0  0  1  0  0  0  0  0  0
  188.6170  174.1590  137.4790 C   0  0  0  0  0  2  0  0  0  0  0  0
  1 27  1  0  0  0  0
  2 22  1  0  0  0  0
  2 24  2  0  0  0  0
  3  9  2  0  0  0  0
  3 20  1  0  0  0  0
  4 37  1  6  0  0  0
  4  1  1  0  0  0  0
  5 10  1  0  0  0  0
  6 22  1  0  0  0  0
  6 11  2  0  0  0  0
  7  3  1  0  0  0  0
  8 12  1  0  0  0  0
  9  6  1  0  0  0  0
 10 23  2  0  0  0  0
 10  7  1  0  0  0  0
 12  4  1  0  0  0  0
 13 17  1  1  0  0  0
 13  9  1  0  0  0  0
 14  2  2  0  0  0  0
 15 20  1  0  0  0  0
 16 11  1  0  0  0  0
 17  2  1  0  0  0  0
 18  8  1  1  0  0  0
 18 19  1  0  0  0  0
 18 25  1  0  0  0  0
 19 25  1  0  0  0  0
 19  5  1  6  0  0  0
 20 16  2  0  0  0  0
 21  7  1  1  0  0  0
 21 13  1  0  0  0  0
 23 28  1  0  0  0  0
 25 27  1  0  0  0  0
 26  8  2  0  0  0  0
 27 21  1  0  0  0  0
 28 15  2  0  0  0  0
 29 30  1  0  0  0  0
 30 31  2  0  0  0  0
 30 23  1  0  0  0  0
 33 34  2  0  0  0  0
 34 32  1  0  0  0  0
 34 31  1  0  0  0  0
 35 33  1  0  0  0  0
 35 29  2  0  0  0  0
 36 37  1  0  0  0  0
M  END
>  <MODEL>
8

>  <REMARK>
 VINA RESULT:      -5.0      4.192      7.598
  Name = 
  2 active torsions:
  status: ('A' for Active; 'I' for Inactive)
    1  A    between atoms: C_4  and  C_37
    2  A    between atoms: C_23  and  C_30
                            x       y       z     vdW  Elec       q    Type
                         _______ _______ _______ _____ _____    ______ ____

>  <TORSDO>
F 2

$$$$
=
 OpenBabel11122411313D

 37 44  0  0  1  0  0  0  0  0999 V2000
  185.0860  178.0890  140.9350 C   0  0  0  0  0  2  0  0  0  0  0  0
  180.4460  180.2910  138.8160 S   0  0  0  0  0  0  0  0  0  0  0  0
  182.6440  176.5920  138.3620 C   0  0  0  0  0  0  0  0  0  0  0  0
  185.8310  178.8490  142.0380 C   0  0  2  0  0  3  0  0  0  0  0  0
  186.4710  176.9020  137.4580 C   0  0  0  0  0  2  0  0  0  0  0  0
  180.5070  177.5740  138.9890 C   0  0  0  0  0  0  0  0  0  0  0  0
  184.0190  176.9630  138.2070 N   0  0  0  0  0  0  0  0  0  0  0  0
  187.9220  178.2020  140.8100 C   0  0  0  0  0  0  0  0  0  0  0  0
  181.8950  177.6390  138.8450 C   0  0  0  0  0  0  0  0  0  0  0  0
  185.0960  176.2600  137.4970 C   0  0  0  0  0  0  0  0  0  0  0  0
  179.8700  176.3630  138.7170 C   0  0  0  0  0  3  0  0  0  0  0  0
  187.2550  179.2520  141.6420 C   0  0  0  0  0  2  0  0  0  0  0  0
  182.7130  178.8340  139.0990 C   0  0  2  0  0  3  0  0  0  0  0  0
  180.3970  181.3390  139.8930 O   0  0  0  0  0  0  0  0  0  0  0  0
  182.6800  174.1720  137.6090 C   0  0  0  0  0  3  0  0  0  0  0  0
  180.6240  175.2680  138.2720 C   0  0  0  0  0  3  0  0  0  0  0  0
  182.1480  180.0190  138.3290 C   0  0  0  0  0  2  0  0  0  0  0  0
  187.7900  178.2210  139.3140 C   0  0  1  0  0  3  0  0  0  0  0  0
  186.7670  177.2910  138.8710 C   0  0  1  0  0  3  0  0  0  0  0  0
  182.0130  175.3720  138.0750 C   0  0  0  0  0  0  0  0  0  0  0  0
  184.0820  178.4120  138.5660 C   0  0  1  0  0  3  0  0  0  0  0  0
  179.7250  178.7700  139.4420 C   0  0  0  0  0  2  0  0  0  0  0  0
  185.0110  175.0000  136.9850 C   0  0  0  0  0  0  0  0  0  0  0  0
  179.6590  180.7620  137.6270 O   0  0  0  0  0  0  0  0  0  0  0  0
  186.4760  178.7350  138.8540 N   0  0  1  0  0  0  0  0  0  0  0  0
  188.5730  177.3230  141.3510 O   0  0  0  0  0  0  0  0  0  0  0  0
  185.1900  178.8000  139.5680 C   0  0  2  0  0  3  0  0  0  0  0  0
  183.9150  174.0360  137.1610 C   0  0  0  0  0  3  0  0  0  0  0  0
  186.8540  175.2030  135.2980 C   0  0  0  0  0  3  0  0  0  0  0  0
  186.1450  174.4190  136.2210 C   0  0  0  0  0  0  0  0  0  0  0  0
  186.5440  173.0910  136.4410 C   0  0  0  0  0  3  0  0  0  0  0  0
  188.0070  171.2360  135.9530 O   0  0  0  0  0  1  0  0  0  0  0  0
  188.3170  173.3370  134.8110 C   0  0  0  0  0  3  0  0  0  0  0  0
  187.6240  172.5510  135.7350 C   0  0  0  0  0  0  0  0  0  0  0  0
  187.9340  174.6630  134.5940 C   0  0  0  0  0  3  0  0  0  0  0  0
  184.7050  178.3320  144.1360 N   0  0  0  0  0  1  0  0  0  0  0  0
  185.8610  178.0230  143.3120 C   0  0  0  0  0  2  0  0  0  0  0  0
  1  4  1  0  0  0  0
  2 22  1  0  0  0  0
  2 14  2  0  0  0  0
  3  9  1  0  0  0  0
  4 37  1  1  0  0  0
  5 10  1  0  0  0  0
  6 22  1  0  0  0  0
  7  3  1  0  0  0  0
  8 26  2  0  0  0  0
  8 12  1  0  0  0  0
  9  6  2  0  0  0  0
  9 13  1  0  0  0  0
 10  7  1  0  0  0  0
 11  6  1  0  0  0  0
 12  4  1  0  0  0  0
 13 17  1  6  0  0  0
 15 20  1  0  0  0  0
 16 11  2  0  0  0  0
 17  2  1  0  0  0  0
 18  8  1  1  0  0  0
 19  5  1  6  0  0  0
 19 18  1  0  0  0  0
 20 16  1  0  0  0  0
 20  3  2  0  0  0  0
 21  7  1  1  0  0  0
 21 13  1  0  0  0  0
 21 27  1  0  0  0  0
 23 28  1  0  0  0  0
 23 10  2  0  0  0  0
 24  2  2  0  0  0  0
 25 19  1  0  0  0  0
 25 18  1  0  0  0  0
 25 27  1  0  0  0  0
 27  1  1  0  0  0  0
 28 15  2  0  0  0  0
 29 30  1  0  0  0  0
 30 31  2  0  0  0  0
 30 23  1  0  0  0  0
 33 34  2  0  0  0  0
 34 32  1  0  0  0  0
 34 31  1  0  0  0  0
 35 33  1  0  0  0  0
 35 29  2  0  0  0  0
 37 36  1  0  0  0  0
M  END
>  <MODEL>
9

>  <REMARK>
 VINA RESULT:      -4.9      3.035      5.778
  Name = 
  2 active torsions:
  status: ('A' for Active; 'I' for Inactive)
    1  A    between atoms: C_4  and  C_37
    2  A    between atoms: C_23  and  C_30
                            x       y       z     vdW  Elec       q    Type
                         _______ _______ _______ _____ _____    ______ ____

>  <TORSDO>
F 2

$$$$
