=
 OpenBabel11122411553D

 28 32  0  0  1  0  0  0  0  0999 V2000
  181.7210  177.8100  136.3180 C   0  0  0  0  0  0  0  0  0  0  0  0
  182.8680  176.6340  140.1920 O   0  0  0  0  0  1  0  0  0  0  0  0
  179.1940  175.3290  141.4760 O   0  0  0  0  0  0  0  0  0  0  0  0
  180.8030  180.3530  135.5820 C   0  0  0  0  0  3  0  0  0  0  0  0
  179.8870  177.5640  141.6700 N   0  0  0  0  0  0  0  0  0  0  0  0
  182.1700  176.4260  136.6750 C   0  0  0  0  0  2  0  0  0  0  0  0
  184.0980  177.7640  138.6500 O   0  0  0  0  0  1  0  0  0  0  0  0
  183.3510  177.8920  139.8190 C   0  0  0  0  0  0  0  0  0  0  0  0
  183.4770  178.6910  142.1550 C   0  0  0  0  0  0  0  0  0  0  0  0
  182.1890  178.8700  139.5760 C   0  0  2  0  0  3  0  0  0  0  0  0
  178.9320  174.8080  136.9320 O   0  0  0  0  0  1  0  0  0  0  0  0
  179.8850  178.1510  139.3470 C   0  0  2  0  0  3  0  0  0  0  0  0
  182.1220  179.0190  142.0780 O   0  0  0  0  0  0  0  0  0  0  0  0
  184.2620  178.4340  140.9130 C   0  0  0  0  0  2  0  0  0  0  0  0
  179.9420  175.7180  137.2360 C   0  0  1  0  0  3  0  0  0  0  0  0
  181.2160  178.6860  137.3020 C   0  0  0  0  0  0  0  0  0  0  0  0
  179.5020  176.4240  140.9340 C   0  0  0  0  0  0  0  0  0  0  0  0
  184.0660  178.6050  143.3350 C   0  0  0  0  0  2  0  0  0  0  0  0
  180.2660  175.6490  138.7210 C   0  0  0  0  0  2  0  0  0  0  0  0
  180.7630  179.9570  136.9210 C   0  0  0  0  0  3  0  0  0  0  0  0
  181.7530  178.2110  134.9780 C   0  0  0  0  0  3  0  0  0  0  0  0
  181.2990  179.4790  134.6110 C   0  0  0  0  0  3  0  0  0  0  0  0
  181.1230  175.4330  136.4220 N   0  0  0  0  0  2  0  0  0  0  0  0
  180.0440  178.7030  140.7790 C   0  0  2  0  0  3  0  0  0  0  0  0
  179.4270  176.6710  139.4810 C   0  0  2  0  0  3  0  0  0  0  0  0
  181.4480  179.3060  140.8470 C   0  0  2  0  0  3  0  0  0  0  0  0
  179.6630  177.6990  143.1010 C   0  0  0  0  0  1  0  0  0  0  0  0
  181.1810  178.3110  138.6870 N   0  0  0  0  0  0  0  0  0  0  0  0
  1  6  1  0  0  0  0
  1 16  1  0  0  0  0
  4 20  1  0  0  0  0
  5 27  1  0  0  0  0
  7  8  1  0  0  0  0
  8  2  1  0  0  0  0
  8 14  1  0  0  0  0
  9 18  2  0  0  0  0
 10 28  1  6  0  0  0
 10  8  1  0  0  0  0
 10 26  1  0  0  0  0
 12 28  1  1  0  0  0
 12 25  1  0  0  0  0
 12 24  1  0  0  0  0
 13  9  1  0  0  0  0
 14  9  1  0  0  0  0
 15 11  1  1  0  0  0
 15 19  1  0  0  0  0
 16 28  1  0  0  0  0
 17  3  2  0  0  0  0
 17  5  1  0  0  0  0
 20 16  2  0  0  0  0
 21  1  2  0  0  0  0
 22 21  1  0  0  0  0
 22  4  2  0  0  0  0
 23  6  1  0  0  0  0
 23 15  1  0  0  0  0
 24 26  1  0  0  0  0
 24  5  1  1  0  0  0
 25 19  1  6  0  0  0
 25 17  1  0  0  0  0
 26 13  1  1  0  0  0
M  END
>  <MODEL>
1

>  <REMARK>
 VINA RESULT:      -5.4      0.000      0.000
  Name = 
  0 active torsions:
  status: ('A' for Active; 'I' for Inactive)
                            x       y       z     vdW  Elec       q    Type
                         _______ _______ _______ _____ _____    ______ ____

>  <TORSDO>
F 0

$$$$
=
 OpenBabel11122411553D

 28 32  0  0  1  0  0  0  0  0999 V2000
  182.2820  180.1440  138.7370 C   0  0  0  0  0  0  0  0  0  0  0  0
  182.0300  176.0910  139.8440 O   0  0  0  0  0  1  0  0  0  0  0  0
  184.8920  174.6470  137.2790 O   0  0  0  0  0  0  0  0  0  0  0  0
  180.7880  181.3860  136.7190 C   0  0  0  0  0  3  0  0  0  0  0  0
  182.6380  174.8860  136.6630 N   0  0  0  0  0  0  0  0  0  0  0  0
  183.1300  179.5100  139.7990 C   0  0  0  0  0  2  0  0  0  0  0  0
  180.6730  177.8020  140.4750 O   0  0  0  0  0  1  0  0  0  0  0  0
  180.7870  176.6960  139.6350 C   0  0  0  0  0  0  0  0  0  0  0  0
  179.6940  174.5630  139.0330 C   0  0  0  0  0  0  0  0  0  0  0  0
  180.6430  177.1520  138.1730 C   0  0  2  0  0  3  0  0  0  0  0  0
  186.1750  179.0030  137.8920 O   0  0  0  0  0  1  0  0  0  0  0  0
  182.5170  177.2790  136.6390 C   0  0  2  0  0  3  0  0  0  0  0  0
  180.1650  174.7310  137.7290 O   0  0  0  0  0  0  0  0  0  0  0  0
  179.6760  175.7140  139.9820 C   0  0  0  0  0  2  0  0  0  0  0  0
  184.8290  178.8650  138.2260 C   0  0  1  0  0  3  0  0  0  0  0  0
  181.6760  179.3630  137.7310 C   0  0  0  0  0  0  0  0  0  0  0  0
  183.9050  175.3900  137.0290 C   0  0  0  0  0  0  0  0  0  0  0  0
  179.2620  173.3780  139.4290 C   0  0  0  0  0  2  0  0  0  0  0  0
  184.4800  177.3900  138.3520 C   0  0  0  0  0  2  0  0  0  0  0  0
  180.9290  179.9970  136.7280 C   0  0  0  0  0  3  0  0  0  0  0  0
  182.1430  181.5350  138.7180 C   0  0  0  0  0  3  0  0  0  0  0  0
  181.3960  182.1560  137.7150 C   0  0  0  0  0  3  0  0  0  0  0  0
  184.5560  179.5820  139.4700 N   0  0  0  0  0  2  0  0  0  0  0  0
  181.7510  175.9820  136.3060 C   0  0  2  0  0  3  0  0  0  0  0  0
  183.9680  176.8640  137.0160 C   0  0  2  0  0  3  0  0  0  0  0  0
  180.4830  176.0080  137.1630 C   0  0  2  0  0  3  0  0  0  0  0  0
  182.4240  173.5150  136.2270 C   0  0  0  0  0  1  0  0  0  0  0  0
  181.7890  177.9320  137.7280 N   0  0  0  0  0  0  0  0  0  0  0  0
  1  6  1  0  0  0  0
  4 20  2  0  0  0  0
  4 22  1  0  0  0  0
  5 17  1  0  0  0  0
  8  2  1  0  0  0  0
  8 14  1  0  0  0  0
  8  7  1  0  0  0  0
  9 18  2  0  0  0  0
  9 14  1  0  0  0  0
 10 28  1  6  0  0  0
 10  8  1  0  0  0  0
 12 25  1  0  0  0  0
 12 28  1  1  0  0  0
 13  9  1  0  0  0  0
 15 11  1  1  0  0  0
 15 19  1  0  0  0  0
 15 23  1  0  0  0  0
 16  1  2  0  0  0  0
 17  3  2  0  0  0  0
 20 16  1  0  0  0  0
 21  1  1  0  0  0  0
 22 21  2  0  0  0  0
 23  6  1  0  0  0  0
 24 12  1  0  0  0  0
 24  5  1  1  0  0  0
 24 26  1  0  0  0  0
 25 17  1  0  0  0  0
 25 19  1  1  0  0  0
 26 13  1  1  0  0  0
 26 10  1  0  0  0  0
 27  5  1  0  0  0  0
 28 16  1  0  0  0  0
M  END
>  <MODEL>
2

>  <REMARK>
 VINA RESULT:      -5.4      2.078      5.169
  Name = 
  0 active torsions:
  status: ('A' for Active; 'I' for Inactive)
                            x       y       z     vdW  Elec       q    Type
                         _______ _______ _______ _____ _____    ______ ____

>  <TORSDO>
F 0

$$$$
=
 OpenBabel11122411553D

 28 32  0  0  1  0  0  0  0  0999 V2000
  180.6980  179.2480  140.3500 C   0  0  0  0  0  0  0  0  0  0  0  0
  181.7580  175.2510  139.5710 O   0  0  0  0  0  1  0  0  0  0  0  0
  185.0370  176.0060  137.2180 O   0  0  0  0  0  0  0  0  0  0  0  0
  178.9590  180.8120  138.8080 C   0  0  0  0  0  3  0  0  0  0  0  0
  182.8580  175.8680  136.3530 N   0  0  0  0  0  0  0  0  0  0  0  0
  181.6640  178.4600  141.1820 C   0  0  0  0  0  2  0  0  0  0  0  0
  179.8870  176.0280  140.6020 O   0  0  0  0  0  1  0  0  0  0  0  0
  180.3950  175.5140  139.4100 C   0  0  0  0  0  0  0  0  0  0  0  0
  180.0940  173.6890  137.7700 C   0  0  0  0  0  0  0  0  0  0  0  0
  180.1660  176.5310  138.2790 C   0  0  2  0  0  3  0  0  0  0  0  0
  184.7790  179.7530  139.8430 O   0  0  0  0  0  1  0  0  0  0  0  0
  181.9520  177.8630  137.3220 C   0  0  2  0  0  3  0  0  0  0  0  0
  180.5350  174.5610  136.7730 O   0  0  0  0  0  0  0  0  0  0  0  0
  179.6590  174.2170  139.0950 C   0  0  0  0  0  2  0  0  0  0  0  0
  183.5430  179.1100  139.8310 C   0  0  1  0  0  3  0  0  0  0  0  0
  180.4250  178.8860  139.0150 C   0  0  0  0  0  0  0  0  0  0  0  0
  183.8700  176.4740  137.1270 C   0  0  0  0  0  0  0  0  0  0  0  0
  180.0640  172.3870  137.5390 C   0  0  0  0  0  2  0  0  0  0  0  0
  183.6970  177.7110  139.2540 C   0  0  0  0  0  2  0  0  0  0  0  0
  179.5510  179.6750  138.2550 C   0  0  0  0  0  3  0  0  0  0  0  0
  180.1060  180.3920  140.8970 C   0  0  0  0  0  3  0  0  0  0  0  0
  179.2370  181.1700  140.1300 C   0  0  0  0  0  3  0  0  0  0  0  0
  182.9970  179.0670  141.1870 N   0  0  0  0  0  2  0  0  0  0  0  0
  181.6720  176.7110  136.3360 C   0  0  2  0  0  3  0  0  0  0  0  0
  183.4420  177.7410  137.7510 C   0  0  2  0  0  3  0  0  0  0  0  0
  180.4350  175.9860  136.8700 C   0  0  2  0  0  3  0  0  0  0  0  0
  183.1270  174.8530  135.3470 C   0  0  0  0  0  1  0  0  0  0  0  0
  181.0060  177.7110  138.4280 N   0  0  0  0  0  0  0  0  0  0  0  0
  1 21  1  0  0  0  0
  1  6  1  0  0  0  0
  4 22  1  0  0  0  0
  5 17  1  0  0  0  0
  6 23  1  0  0  0  0
  8  2  1  0  0  0  0
  8  7  1  0  0  0  0
  9 14  1  0  0  0  0
 10 28  1  1  0  0  0
 10  8  1  0  0  0  0
 12 25  1  0  0  0  0
 12 28  1  1  0  0  0
 13  9  1  0  0  0  0
 14  8  1  0  0  0  0
 15 11  1  1  0  0  0
 15 23  1  0  0  0  0
 16  1  2  0  0  0  0
 17  3  2  0  0  0  0
 17 25  1  0  0  0  0
 18  9  2  0  0  0  0
 19 15  1  0  0  0  0
 20  4  2  0  0  0  0
 20 16  1  0  0  0  0
 22 21  2  0  0  0  0
 24  5  1  1  0  0  0
 24 26  1  0  0  0  0
 24 12  1  0  0  0  0
 25 19  1  1  0  0  0
 26 13  1  1  0  0  0
 26 10  1  0  0  0  0
 27  5  1  0  0  0  0
 28 16  1  0  0  0  0
M  END
>  <MODEL>
3

>  <REMARK>
 VINA RESULT:      -5.1      1.970      5.605
  Name = 
  0 active torsions:
  status: ('A' for Active; 'I' for Inactive)
                            x       y       z     vdW  Elec       q    Type
                         _______ _______ _______ _____ _____    ______ ____

>  <TORSDO>
F 0

$$$$
=
 OpenBabel11122411553D

 28 32  0  0  1  0  0  0  0  0999 V2000
  181.3540  178.2180  137.5280 C   0  0  0  0  0  0  0  0  0  0  0  0
  183.6660  174.7680  138.2070 O   0  0  0  0  0  1  0  0  0  0  0  0
  187.3650  176.5160  137.8760 O   0  0  0  0  0  0  0  0  0  0  0  0
  180.4600  179.1260  135.0330 C   0  0  0  0  0  3  0  0  0  0  0  0
  186.1870  175.6770  136.0260 N   0  0  0  0  0  0  0  0  0  0  0  0
  181.8440  177.7900  138.8780 C   0  0  0  0  0  2  0  0  0  0  0  0
  181.4160  174.9110  137.9120 O   0  0  0  0  0  1  0  0  0  0  0  0
  182.6220  174.5760  137.2970 C   0  0  0  0  0  0  0  0  0  0  0  0
  183.7900  172.7370  136.1300 C   0  0  0  0  0  0  0  0  0  0  0  0
  182.8190  175.4560  136.0510 C   0  0  2  0  0  3  0  0  0  0  0  0
  184.7020  180.0040  139.1930 O   0  0  0  0  0  1  0  0  0  0  0  0
  184.4100  177.2830  135.9630 C   0  0  2  0  0  3  0  0  0  0  0  0
  184.4730  173.6960  135.3790 O   0  0  0  0  0  0  0  0  0  0  0  0
  182.5620  173.1100  136.8900 C   0  0  0  0  0  2  0  0  0  0  0  0
  183.9090  178.9970  138.6440 C   0  0  1  0  0  3  0  0  0  0  0  0
  181.9910  177.7750  136.3500 C   0  0  0  0  0  0  0  0  0  0  0  0
  186.3830  176.5830  137.0900 C   0  0  0  0  0  0  0  0  0  0  0  0
  184.2360  171.4930  136.1700 C   0  0  0  0  0  2  0  0  0  0  0  0
  184.7210  177.7180  138.5160 C   0  0  0  0  0  2  0  0  0  0  0  0
  181.5330  178.2350  135.1080 C   0  0  0  0  0  3  0  0  0  0  0  0
  180.2850  179.1160  137.4460 C   0  0  0  0  0  3  0  0  0  0  0  0
  179.8360  179.5660  136.2030 C   0  0  0  0  0  3  0  0  0  0  0  0
  182.7270  178.7930  139.4790 N   0  0  0  0  0  2  0  0  0  0  0  0
  185.0500  176.0930  135.2190 C   0  0  2  0  0  3  0  0  0  0  0  0
  185.3650  177.6510  137.1350 C   0  0  2  0  0  3  0  0  0  0  0  0
  183.9680  175.0140  135.1360 C   0  0  2  0  0  3  0  0  0  0  0  0
  187.2310  174.7930  135.5320 C   0  0  0  0  0  1  0  0  0  0  0  0
  183.0840  176.8450  136.3990 N   0  0  0  0  0  0  0  0  0  0  0  0
  1  6  1  0  0  0  0
  4 20  2  0  0  0  0
  4 22  1  0  0  0  0
  5 17  1  0  0  0  0
  6 23  1  0  0  0  0
  8  7  1  0  0  0  0
  8  2  1  0  0  0  0
  9 18  2  0  0  0  0
  9 14  1  0  0  0  0
 10 28  1  1  0  0  0
 10  8  1  0  0  0  0
 12 28  1  1  0  0  0
 12 25  1  0  0  0  0
 13  9  1  0  0  0  0
 14  8  1  0  0  0  0
 15 11  1  1  0  0  0
 15 23  1  0  0  0  0
 16 28  1  0  0  0  0
 16  1  2  0  0  0  0
 17 25  1  0  0  0  0
 17  3  2  0  0  0  0
 19 15  1  0  0  0  0
 20 16  1  0  0  0  0
 21  1  1  0  0  0  0
 22 21  2  0  0  0  0
 24 12  1  0  0  0  0
 24  5  1  1  0  0  0
 25 19  1  1  0  0  0
 26 24  1  0  0  0  0
 26 13  1  1  0  0  0
 26 10  1  0  0  0  0
 27  5  1  0  0  0  0
M  END
>  <MODEL>
4

>  <REMARK>
 VINA RESULT:      -5.0      3.012      6.233
  Name = 
  0 active torsions:
  status: ('A' for Active; 'I' for Inactive)
                            x       y       z     vdW  Elec       q    Type
                         _______ _______ _______ _____ _____    ______ ____

>  <TORSDO>
F 0

$$$$
=
 OpenBabel11122411553D

 28 32  0  0  1  0  0  0  0  0999 V2000
  195.1340  174.9450  136.3810 C   0  0  0  0  0  0  0  0  0  0  0  0
  191.2590  174.5850  137.9820 O   0  0  0  0  0  1  0  0  0  0  0  0
  189.6800  172.1800  135.0540 O   0  0  0  0  0  0  0  0  0  0  0  0
  195.9910  176.9270  134.5960 C   0  0  0  0  0  3  0  0  0  0  0  0
  189.6820  174.5230  134.9080 N   0  0  0  0  0  0  0  0  0  0  0  0
  194.7070  173.8450  137.3040 C   0  0  0  0  0  2  0  0  0  0  0  0
  192.9430  175.9410  138.6830 O   0  0  0  0  0  1  0  0  0  0  0  0
  191.7450  175.8960  137.9730 C   0  0  0  0  0  0  0  0  0  0  0  0
  189.4810  176.8830  137.8720 C   0  0  0  0  0  0  0  0  0  0  0  0
  191.9890  176.3760  136.5320 C   0  0  2  0  0  3  0  0  0  0  0  0
  194.1560  171.2150  134.8650 O   0  0  0  0  0  1  0  0  0  0  0  0
  192.0360  174.8720  134.6310 C   0  0  2  0  0  3  0  0  0  0  0  0
  189.5040  176.7030  136.4870 O   0  0  0  0  0  0  0  0  0  0  0  0
  190.7450  176.8160  138.6620 C   0  0  0  0  0  2  0  0  0  0  0  0
  193.9730  172.4460  135.4930 C   0  0  1  0  0  3  0  0  0  0  0  0
  194.1860  175.6670  135.6250 C   0  0  0  0  0  0  0  0  0  0  0  0
  190.3140  173.2620  134.9350 C   0  0  0  0  0  0  0  0  0  0  0  0
  188.3330  177.1120  138.4860 C   0  0  0  0  0  2  0  0  0  0  0  0
  192.5080  172.6220  135.8620 C   0  0  0  0  0  2  0  0  0  0  0  0
  194.6280  176.6580  134.7370 C   0  0  0  0  0  3  0  0  0  0  0  0
  196.4980  175.2160  136.2290 C   0  0  0  0  0  3  0  0  0  0  0  0
  196.9260  176.2050  135.3430 C   0  0  0  0  0  3  0  0  0  0  0  0
  194.8310  172.5280  136.6730 N   0  0  0  0  0  2  0  0  0  0  0  0
  190.6580  175.5640  134.6230 C   0  0  2  0  0  3  0  0  0  0  0  0
  191.7740  173.3420  134.7360 C   0  0  2  0  0  3  0  0  0  0  0  0
  190.7120  176.6280  135.7210 C   0  0  2  0  0  3  0  0  0  0  0  0
  188.2530  174.6920  134.6920 C   0  0  0  0  0  1  0  0  0  0  0  0
  192.7790  175.4220  135.7650 N   0  0  0  0  0  0  0  0  0  0  0  0
  1  6  1  0  0  0  0
  4 20  2  0  0  0  0
  4 22  1  0  0  0  0
  5 17  1  0  0  0  0
  8  2  1  0  0  0  0
  8 14  1  0  0  0  0
  8  7  1  0  0  0  0
  9 18  2  0  0  0  0
  9 14  1  0  0  0  0
 10 28  1  6  0  0  0
 10  8  1  0  0  0  0
 12 25  1  0  0  0  0
 12 28  1  1  0  0  0
 13  9  1  0  0  0  0
 15 11  1  1  0  0  0
 15 19  1  0  0  0  0
 15 23  1  0  0  0  0
 16 28  1  0  0  0  0
 16  1  2  0  0  0  0
 17  3  2  0  0  0  0
 20 16  1  0  0  0  0
 21  1  1  0  0  0  0
 22 21  2  0  0  0  0
 23  6  1  0  0  0  0
 24 12  1  0  0  0  0
 24  5  1  1  0  0  0
 24 26  1  0  0  0  0
 25 17  1  0  0  0  0
 25 19  1  1  0  0  0
 26 13  1  1  0  0  0
 26 10  1  0  0  0  0
 27  5  1  0  0  0  0
M  END
>  <MODEL>
5

>  <REMARK>
 VINA RESULT:      -4.9     10.322     12.406
  Name = 
  0 active torsions:
  status: ('A' for Active; 'I' for Inactive)
                            x       y       z     vdW  Elec       q    Type
                         _______ _______ _______ _____ _____    ______ ____

>  <TORSDO>
F 0

$$$$
=
 OpenBabel11122411553D

 28 32  0  0  1  0  0  0  0  0999 V2000
  182.8060  178.3260  141.3660 C   0  0  0  0  0  0  0  0  0  0  0  0
  182.1590  176.2570  137.7590 O   0  0  0  0  0  1  0  0  0  0  0  0
  181.5560  179.5290  135.3540 O   0  0  0  0  0  0  0  0  0  0  0  0
  180.8310  179.0490  143.2170 C   0  0  0  0  0  3  0  0  0  0  0  0
  179.8210  178.5000  136.5570 N   0  0  0  0  0  0  0  0  0  0  0  0
  183.8890  177.9930  140.3850 C   0  0  0  0  0  2  0  0  0  0  0  0
  182.3480  175.3940  139.8540 O   0  0  0  0  0  1  0  0  0  0  0  0
  181.4490  175.7330  138.8440 C   0  0  0  0  0  0  0  0  0  0  0  0
  179.6640  174.8060  137.4080 C   0  0  0  0  0  0  0  0  0  0  0  0
  180.4420  176.7630  139.3840 C   0  0  2  0  0  3  0  0  0  0  0  0
  184.1770  181.2040  138.7180 O   0  0  0  0  0  1  0  0  0  0  0  0
  180.4990  179.1090  138.7720 C   0  0  2  0  0  3  0  0  0  0  0  0
  179.0530  176.0610  137.4190 O   0  0  0  0  0  0  0  0  0  0  0  0
  180.7150  174.4700  138.4120 C   0  0  0  0  0  2  0  0  0  0  0  0
  183.5630  180.0300  139.1510 C   0  0  1  0  0  3  0  0  0  0  0  0
  181.4560  178.3850  140.9640 C   0  0  0  0  0  0  0  0  0  0  0  0
  181.0160  179.2440  136.4570 C   0  0  0  0  0  0  0  0  0  0  0  0
  179.3110  173.9100  136.5020 C   0  0  0  0  0  2  0  0  0  0  0  0
  182.9700  179.2920  137.9600 C   0  0  0  0  0  2  0  0  0  0  0  0
  180.4760  178.7460  141.9010 C   0  0  0  0  0  3  0  0  0  0  0  0
  183.1550  178.6380  142.6840 C   0  0  0  0  0  3  0  0  0  0  0  0
  182.1720  178.9950  143.6080 C   0  0  0  0  0  3  0  0  0  0  0  0
  184.5350  179.1980  139.8590 N   0  0  0  0  0  2  0  0  0  0  0  0
  179.3770  178.4550  137.9410 C   0  0  2  0  0  3  0  0  0  0  0  0
  181.5170  179.7120  137.7630 C   0  0  2  0  0  3  0  0  0  0  0  0
  179.2430  177.0220  138.4640 C   0  0  2  0  0  3  0  0  0  0  0  0
  178.9330  178.2660  135.4280 C   0  0  0  0  0  1  0  0  0  0  0  0
  181.0620  178.0600  139.6230 N   0  0  0  0  0  0  0  0  0  0  0  0
  1 21  1  0  0  0  0
  2  8  1  0  0  0  0
  3 17  2  0  0  0  0
  4 22  1  0  0  0  0
  6  1  1  0  0  0  0
  8  7  1  0  0  0  0
  9 13  1  0  0  0  0
  9 14  1  0  0  0  0
 10  8  1  6  0  0  0
 10 28  1  0  0  0  0
 12 28  1  6  0  0  0
 14  8  1  0  0  0  0
 15 11  1  6  0  0  0
 15 23  1  0  0  0  0
 16  1  2  0  0  0  0
 16 20  1  0  0  0  0
 17  5  1  0  0  0  0
 17 25  1  0  0  0  0
 18  9  2  0  0  0  0
 19 15  1  0  0  0  0
 20  4  2  0  0  0  0
 21 22  2  0  0  0  0
 23  6  1  0  0  0  0
 24  5  1  6  0  0  0
 24 26  1  0  0  0  0
 24 12  1  0  0  0  0
 25 19  1  1  0  0  0
 25 12  1  0  0  0  0
 26 13  1  6  0  0  0
 26 10  1  0  0  0  0
 27  5  1  0  0  0  0
 28 16  1  0  0  0  0
M  END
>  <MODEL>
6

>  <REMARK>
 VINA RESULT:      -4.9      1.946      5.756
  Name = 
  0 active torsions:
  status: ('A' for Active; 'I' for Inactive)
                            x       y       z     vdW  Elec       q    Type
                         _______ _______ _______ _____ _____    ______ ____

>  <TORSDO>
F 0

$$$$
=
 OpenBabel11122411553D

 28 32  0  0  1  0  0  0  0  0999 V2000
  197.0500  173.8870  136.6410 C   0  0  0  0  0  0  0  0  0  0  0  0
  193.0970  174.1640  138.0580 O   0  0  0  0  0  1  0  0  0  0  0  0
  191.3500  171.6890  135.2880 O   0  0  0  0  0  0  0  0  0  0  0  0
  198.2240  175.5620  134.7270 C   0  0  0  0  0  3  0  0  0  0  0  0
  191.6540  173.9880  134.9230 N   0  0  0  0  0  0  0  0  0  0  0  0
  196.4490  172.9440  137.6390 C   0  0  0  0  0  2  0  0  0  0  0  0
  194.9090  175.3670  138.7190 O   0  0  0  0  0  1  0  0  0  0  0  0
  193.7450  175.3980  137.9530 C   0  0  0  0  0  0  0  0  0  0  0  0
  191.6310  176.6390  137.6370 C   0  0  0  0  0  0  0  0  0  0  0  0
  194.1080  175.6980  136.4880 C   0  0  2  0  0  3  0  0  0  0  0  0
  195.6710  170.1720  135.4320 O   0  0  0  0  0  1  0  0  0  0  0  0
  194.0430  174.0180  134.7410 C   0  0  2  0  0  3  0  0  0  0  0  0
  191.6880  176.3210  136.2790 O   0  0  0  0  0  0  0  0  0  0  0  0
  192.8420  176.4970  138.4970 C   0  0  0  0  0  2  0  0  0  0  0  0
  195.6200  171.4720  135.9300 C   0  0  1  0  0  3  0  0  0  0  0  0
  196.2340  174.6400  135.7710 C   0  0  0  0  0  0  0  0  0  0  0  0
  192.1210  172.6690  135.1020 C   0  0  0  0  0  0  0  0  0  0  0  0
  190.4960  177.0670  138.1650 C   0  0  0  0  0  2  0  0  0  0  0  0
  194.1750  171.8610  136.2010 C   0  0  0  0  0  2  0  0  0  0  0  0
  196.8340  175.4760  134.8190 C   0  0  0  0  0  3  0  0  0  0  0  0
  198.4420  173.9730  136.5380 C   0  0  0  0  0  3  0  0  0  0  0  0
  199.0290  174.8100  135.5870 C   0  0  0  0  0  3  0  0  0  0  0  0
  196.4310  171.5660  137.1420 N   0  0  0  0  0  2  0  0  0  0  0  0
  192.7650  174.8690  134.5940 C   0  0  2  0  0  3  0  0  0  0  0  0
  193.5860  172.5500  134.9750 C   0  0  2  0  0  3  0  0  0  0  0  0
  192.9080  176.0220  135.5890 C   0  0  2  0  0  3  0  0  0  0  0  0
  190.2690  174.3070  134.6150 C   0  0  0  0  0  1  0  0  0  0  0  0
  194.8020  174.5840  135.8570 N   0  0  0  0  0  0  0  0  0  0  0  0
  1  6  1  0  0  0  0
  4 20  2  0  0  0  0
  4 22  1  0  0  0  0
  5 17  1  0  0  0  0
  8  2  1  0  0  0  0
  8 14  1  0  0  0  0
  8  7  1  0  0  0  0
  9 18  2  0  0  0  0
  9 14  1  0  0  0  0
 10 28  1  6  0  0  0
 10  8  1  0  0  0  0
 12 25  1  0  0  0  0
 12 28  1  1  0  0  0
 13  9  1  0  0  0  0
 15 11  1  1  0  0  0
 15 19  1  0  0  0  0
 15 23  1  0  0  0  0
 16 28  1  0  0  0  0
 16  1  2  0  0  0  0
 17  3  2  0  0  0  0
 20 16  1  0  0  0  0
 21  1  1  0  0  0  0
 22 21  2  0  0  0  0
 23  6  1  0  0  0  0
 24 12  1  0  0  0  0
 24  5  1  1  0  0  0
 24 26  1  0  0  0  0
 25 17  1  0  0  0  0
 25 19  1  1  0  0  0
 26 13  1  1  0  0  0
 26 10  1  0  0  0  0
 27  5  1  0  0  0  0
M  END
>  <MODEL>
7

>  <REMARK>
 VINA RESULT:      -4.9     12.209     14.335
  Name = 
  0 active torsions:
  status: ('A' for Active; 'I' for Inactive)
                            x       y       z     vdW  Elec       q    Type
                         _______ _______ _______ _____ _____    ______ ____

>  <TORSDO>
F 0

$$$$
=
 OpenBabel11122411553D

 28 32  0  0  1  0  0  0  0  0999 V2000
  180.6200  179.2270  141.8670 C   0  0  0  0  0  0  0  0  0  0  0  0
  183.0560  176.2400  140.1780 O   0  0  0  0  0  1  0  0  0  0  0  0
  186.6580  178.1580  140.6230 O   0  0  0  0  0  0  0  0  0  0  0  0
  179.4180  181.3410  140.4760 C   0  0  0  0  0  3  0  0  0  0  0  0
  185.2820  178.4610  138.7440 N   0  0  0  0  0  0  0  0  0  0  0  0
  181.2750  178.1340  142.6560 C   0  0  0  0  0  2  0  0  0  0  0  0
  180.7850  176.3380  140.2190 O   0  0  0  0  0  1  0  0  0  0  0  0
  181.9140  176.5280  139.4250 C   0  0  0  0  0  0  0  0  0  0  0  0
  182.9660  175.8240  137.3020 C   0  0  0  0  0  0  0  0  0  0  0  0
  181.9450  177.9830  138.9250 C   0  0  2  0  0  3  0  0  0  0  0  0
  184.1110  179.9800  143.9680 O   0  0  0  0  0  1  0  0  0  0  0  0
  183.4820  179.6440  139.7950 C   0  0  2  0  0  3  0  0  0  0  0  0
  183.5380  177.0940  137.2050 O   0  0  0  0  0  0  0  0  0  0  0  0
  181.8310  175.5770  138.2380 C   0  0  0  0  0  2  0  0  0  0  0  0
  183.2760  179.4210  143.0020 C   0  0  1  0  0  3  0  0  0  0  0  0
  181.1190  179.6110  140.6050 C   0  0  0  0  0  0  0  0  0  0  0  0
  185.5870  178.5890  140.1160 C   0  0  0  0  0  0  0  0  0  0  0  0
  183.4360  174.8340  136.5610 C   0  0  0  0  0  2  0  0  0  0  0  0
  184.0890  178.5310  142.0740 C   0  0  0  0  0  2  0  0  0  0  0  0
  180.5070  180.6690  139.9180 C   0  0  0  0  0  3  0  0  0  0  0  0
  179.5320  179.9090  142.4230 C   0  0  0  0  0  3  0  0  0  0  0  0
  178.9310  180.9600  141.7300 C   0  0  0  0  0  3  0  0  0  0  0  0
  182.2060  178.6680  143.6540 N   0  0  0  0  0  2  0  0  0  0  0  0
  184.0490  179.1720  138.4400 C   0  0  2  0  0  3  0  0  0  0  0  0
  184.5640  179.3380  140.8700 C   0  0  2  0  0  3  0  0  0  0  0  0
  182.9840  178.2580  137.8310 C   0  0  2  0  0  3  0  0  0  0  0  0
  186.2750  178.1240  137.7370 C   0  0  0  0  0  1  0  0  0  0  0  0
  182.2250  178.9240  140.0010 N   0  0  0  0  0  0  0  0  0  0  0  0
  1 21  1  0  0  0  0
  1  6  1  0  0  0  0
  4 22  1  0  0  0  0
  5 17  1  0  0  0  0
  6 23  1  0  0  0  0
  8  2  1  0  0  0  0
  8  7  1  0  0  0  0
  9 14  1  0  0  0  0
 10  8  1  1  0  0  0
 10 28  1  0  0  0  0
 12 28  1  1  0  0  0
 12 25  1  0  0  0  0
 13  9  1  0  0  0  0
 14  8  1  0  0  0  0
 15 23  1  0  0  0  0
 15 11  1  1  0  0  0
 16  1  2  0  0  0  0
 17  3  2  0  0  0  0
 17 25  1  0  0  0  0
 18  9  2  0  0  0  0
 19 15  1  0  0  0  0
 20  4  2  0  0  0  0
 20 16  1  0  0  0  0
 22 21  2  0  0  0  0
 24  5  1  1  0  0  0
 24 12  1  0  0  0  0
 25 19  1  1  0  0  0
 26 13  1  1  0  0  0
 26 24  1  0  0  0  0
 26 10  1  0  0  0  0
 27  5  1  0  0  0  0
 28 16  1  0  0  0  0
M  END
>  <MODEL>
8

>  <REMARK>
 VINA RESULT:      -4.8      2.441      5.895
  Name = 
  0 active torsions:
  status: ('A' for Active; 'I' for Inactive)
                            x       y       z     vdW  Elec       q    Type
                         _______ _______ _______ _____ _____    ______ ____

>  <TORSDO>
F 0

$$$$
=
 OpenBabel11122411553D

 28 32  0  0  1  0  0  0  0  0999 V2000
  181.3080  179.8040  138.3310 C   0  0  0  0  0  0  0  0  0  0  0  0
  181.3670  175.6260  138.8310 O   0  0  0  0  0  1  0  0  0  0  0  0
  185.1320  174.9520  137.3400 O   0  0  0  0  0  0  0  0  0  0  0  0
  180.4130  181.1690  136.0540 C   0  0  0  0  0  3  0  0  0  0  0  0
  183.2200  175.0210  135.9780 N   0  0  0  0  0  0  0  0  0  0  0  0
  181.8320  179.1140  139.5530 C   0  0  0  0  0  2  0  0  0  0  0  0
  179.6120  177.0450  139.1070 O   0  0  0  0  0  1  0  0  0  0  0  0
  180.1890  176.1070  138.2520 C   0  0  0  0  0  0  0  0  0  0  0  0
  179.7380  173.9840  137.0700 C   0  0  0  0  0  0  0  0  0  0  0  0
  180.4820  176.7690  136.8940 C   0  0  2  0  0  3  0  0  0  0  0  0
  185.3860  179.2740  138.8380 O   0  0  0  0  0  1  0  0  0  0  0  0
  182.7190  177.3560  136.1680 C   0  0  2  0  0  3  0  0  0  0  0  0
  180.5930  174.4100  136.0520 O   0  0  0  0  0  0  0  0  0  0  0  0
  179.2050  174.9590  138.0650 C   0  0  0  0  0  2  0  0  0  0  0  0
  184.0500  178.9290  138.6450 C   0  0  1  0  0  3  0  0  0  0  0  0
  181.2220  179.1280  137.0960 C   0  0  0  0  0  0  0  0  0  0  0  0
  184.1820  175.6040  136.8300 C   0  0  0  0  0  0  0  0  0  0  0  0
  179.3990  172.7090  137.1530 C   0  0  0  0  0  2  0  0  0  0  0  0
  183.9280  177.4220  138.4770 C   0  0  0  0  0  2  0  0  0  0  0  0
  180.7700  179.8220  135.9640 C   0  0  0  0  0  3  0  0  0  0  0  0
  180.9550  181.1550  138.4120 C   0  0  0  0  0  3  0  0  0  0  0  0
  180.5060  181.8350  137.2790 C   0  0  0  0  0  3  0  0  0  0  0  0
  183.2510  179.4030  139.7740 N   0  0  0  0  0  2  0  0  0  0  0  0
  182.3400  176.0490  135.4430 C   0  0  2  0  0  3  0  0  0  0  0  0
  184.0000  177.0590  136.9980 C   0  0  2  0  0  3  0  0  0  0  0  0
  180.8700  175.7890  135.7800 C   0  0  2  0  0  3  0  0  0  0  0  0
  183.3980  173.7210  135.3500 C   0  0  0  0  0  1  0  0  0  0  0  0
  181.5650  177.7390  136.9810 N   0  0  0  0  0  0  0  0  0  0  0  0
  1 21  1  0  0  0  0
  1  6  1  0  0  0  0
  4 22  1  0  0  0  0
  5 17  1  0  0  0  0
  6 23  1  0  0  0  0
  8  2  1  0  0  0  0
  8  7  1  0  0  0  0
  9 18  2  0  0  0  0
  9 14  1  0  0  0  0
 10 28  1  1  0  0  0
 10  8  1  0  0  0  0
 12 28  1  1  0  0  0
 12 25  1  0  0  0  0
 13  9  1  0  0  0  0
 14  8  1  0  0  0  0
 15 11  1  1  0  0  0
 15 23  1  0  0  0  0
 16  1  2  0  0  0  0
 17 25  1  0  0  0  0
 17  3  2  0  0  0  0
 19 15  1  0  0  0  0
 20  4  2  0  0  0  0
 20 16  1  0  0  0  0
 22 21  2  0  0  0  0
 24 26  1  0  0  0  0
 24  5  1  1  0  0  0
 24 12  1  0  0  0  0
 25 19  1  1  0  0  0
 26 13  1  1  0  0  0
 26 10  1  0  0  0  0
 27  5  1  0  0  0  0
 28 16  1  0  0  0  0
M  END
>  <MODEL>
9

>  <REMARK>
 VINA RESULT:      -4.7      2.363      5.612
  Name = 
  0 active torsions:
  status: ('A' for Active; 'I' for Inactive)
                            x       y       z     vdW  Elec       q    Type
                         _______ _______ _______ _____ _____    ______ ____

>  <TORSDO>
F 0

$$$$
