=
 OpenBabel11122410243D

 30 35  0  0  1  0  0  0  0  0999 V2000
  189.4740  177.5000  143.4860 C   0  0  1  0  0  3  0  0  0  0  0  0
  191.3440  176.4210  144.8230 C   0  0  0  0  0  0  0  0  0  0  0  0
  187.1720  177.4340  147.1210 C   0  0  0  0  0  2  0  0  0  0  0  0
  188.1120  178.1810  143.6790 C   0  0  1  0  0  3  0  0  0  0  0  0
  190.2160  178.1500  142.4770 O   0  0  0  0  0  0  0  0  0  0  0  0
  187.6560  178.4810  140.0460 O   0  0  0  0  0  0  0  0  0  0  0  0
  184.9880  177.9420  142.7650 C   0  0  1  0  0  3  0  0  0  0  0  0
  188.1980  178.2570  141.1620 C   0  0  0  0  0  0  0  0  0  0  0  0
  184.7980  177.8880  144.2760 C   0  0  2  0  0  3  0  0  0  0  0  0
  186.0180  178.0670  146.4670 C   0  0  0  0  0  0  0  0  0  0  0  0
  189.6410  177.8580  141.2170 C   0  0  2  0  0  3  0  0  0  0  0  0
  187.4400  178.3490  142.3800 N   0  0  0  0  0  0  0  0  0  0  0  0
  191.9880  176.1580  146.0290 O   0  0  0  0  0  0  0  0  0  0  0  0
  183.8010  178.9890  144.5760 C   0  0  0  0  0  2  0  0  0  0  0  0
  183.6380  178.3860  142.2150 C   0  0  0  0  0  2  0  0  0  0  0  0
  191.6750  175.7860  143.7860 O   0  0  0  0  0  0  0  0  0  0  0  0
  188.0320  176.9560  145.9540 C   0  0  1  0  0  3  0  0  0  0  0  0
  191.6610  176.9150  147.1870 C   0  0  0  0  0  2  0  0  0  0  0  0
  190.2870  177.4950  144.7840 C   0  0  2  0  0  3  0  0  0  0  0  0
  187.2720  177.3280  144.6480 C   0  0  1  0  0  3  0  0  0  0  0  0
  185.0690  178.5800  147.1200 O   0  0  0  0  0  0  0  0  0  0  0  0
  186.0450  178.0160  145.0490 N   0  0  0  0  0  0  0  0  0  0  0  0
  182.8800  179.0270  143.3700 C   0  0  0  0  0  2  0  0  0  0  0  0
  185.9240  180.1770  142.2390 C   0  0  0  0  0  2  0  0  0  0  0  0
  190.1440  176.9740  147.3350 C   0  0  0  0  0  2  0  0  0  0  0  0
  189.4440  177.5550  146.0870 C   0  0  2  0  0  3  0  0  0  0  0  0
  186.1050  178.8600  142.3410 C   0  0  0  0  0  0  0  0  0  0  0  0
  189.8360  176.4010  140.8060 C   0  0  0  0  0  2  0  0  0  0  0  0
  191.7990  177.0980  139.4740 C   0  0  0  0  0  1  0  0  0  0  0  0
  190.4960  176.3270  139.4440 C   0  0  0  0  0  2  0  0  0  0  0  0
  1  5  1  6  0  0  0
  1  4  1  0  0  0  0
  1 19  1  0  0  0  0
  2 13  1  0  0  0  0
  4 12  1  6  0  0  0
  4 20  1  0  0  0  0
  6  8  2  0  0  0  0
  7 15  1  6  0  0  0
  7  9  1  0  0  0  0
  8 11  1  0  0  0  0
  8 12  1  0  0  0  0
  9 14  1  1  0  0  0
  9 22  1  0  0  0  0
 10 21  2  0  0  0  0
 10  3  1  0  0  0  0
 11 28  1  1  0  0  0
 11  5  1  0  0  0  0
 13 18  1  0  0  0  0
 15 23  1  0  0  0  0
 16  2  2  0  0  0  0
 17 26  1  0  0  0  0
 17  3  1  1  0  0  0
 18 25  1  0  0  0  0
 19  2  1  1  0  0  0
 19 26  1  0  0  0  0
 20 22  1  1  0  0  0
 20 17  1  0  0  0  0
 22 10  1  0  0  0  0
 23 14  1  0  0  0  0
 24 27  2  0  0  0  0
 26 25  1  1  0  0  0
 27 12  1  0  0  0  0
 27  7  1  0  0  0  0
 30 29  1  0  0  0  0
 30 28  1  0  0  0  0
M  END
>  <MODEL>
1

>  <REMARK>
 VINA RESULT:      -9.0      0.000      0.000
  Name = 
  2 active torsions:
  status: ('A' for Active; 'I' for Inactive)
    1  A    between atoms: C_11  and  C_28
    2  A    between atoms: C_28  and  C_30
                            x       y       z     vdW  Elec       q    Type
                         _______ _______ _______ _____ _____    ______ ____

>  <TORSDO>
F 2

$$$$
=
 OpenBabel11122410243D

 30 35  0  0  1  0  0  0  0  0999 V2000
  186.9620  178.0800  140.8290 C   0  0  1  0  0  3  0  0  0  0  0  0
  184.7240  179.0490  140.1240 C   0  0  0  0  0  0  0  0  0  0  0  0
  185.5510  178.4090  144.8800 C   0  0  0  0  0  2  0  0  0  0  0  0
  187.6790  177.5080  142.0600 C   0  0  1  0  0  3  0  0  0  0  0  0
  187.3070  177.3510  139.6710 O   0  0  0  0  0  0  0  0  0  0  0  0
  190.8120  177.1520  140.1760 O   0  0  0  0  0  0  0  0  0  0  0  0
  190.3320  177.9580  143.9070 C   0  0  1  0  0  3  0  0  0  0  0  0
  189.5950  177.3620  140.4320 C   0  0  0  0  0  0  0  0  0  0  0  0
  189.2660  178.0640  144.9920 C   0  0  2  0  0  3  0  0  0  0  0  0
  186.7980  177.8480  145.4190 C   0  0  0  0  0  0  0  0  0  0  0  0
  188.6420  177.6530  139.3120 C   0  0  2  0  0  3  0  0  0  0  0  0
  189.1170  177.3590  141.7880 N   0  0  0  0  0  0  0  0  0  0  0  0
  183.3720  179.2930  140.3540 O   0  0  0  0  0  0  0  0  0  0  0  0
  189.6820  177.0480  146.0370 C   0  0  0  0  0  2  0  0  0  0  0  0
  191.6140  177.6020  144.6480 C   0  0  0  0  0  2  0  0  0  0  0  0
  185.3110  179.6310  139.1740 O   0  0  0  0  0  0  0  0  0  0  0  0
  185.9160  178.7920  143.4480 C   0  0  1  0  0  3  0  0  0  0  0  0
  182.6910  178.5920  141.3870 C   0  0  0  0  0  2  0  0  0  0  0  0
  185.4410  178.0570  141.0030 C   0  0  2  0  0  3  0  0  0  0  0  0
  187.4200  178.4460  143.2540 C   0  0  1  0  0  3  0  0  0  0  0  0
  186.8930  177.4250  146.6020 O   0  0  0  0  0  0  0  0  0  0  0  0
  187.8890  177.8620  144.5110 N   0  0  0  0  0  0  0  0  0  0  0  0
  191.2000  177.0490  146.0060 C   0  0  0  0  0  2  0  0  0  0  0  0
  190.2210  175.6460  143.0160 C   0  0  0  0  0  2  0  0  0  0  0  0
  183.5210  178.6510  142.6650 C   0  0  0  0  0  2  0  0  0  0  0  0
  184.9490  178.0930  142.4760 C   0  0  2  0  0  3  0  0  0  0  0  0
  189.9920  176.9480  142.8410 C   0  0  0  0  0  0  0  0  0  0  0  0
  188.8030  179.0810  138.7960 C   0  0  0  0  0  2  0  0  0  0  0  0
  187.6640  178.7730  136.6230 C   0  0  0  0  0  1  0  0  0  0  0  0
  188.9890  179.0740  137.2920 C   0  0  0  0  0  2  0  0  0  0  0  0
  1  5  1  6  0  0  0
  1 19  1  0  0  0  0
  1  4  1  0  0  0  0
  2 13  1  0  0  0  0
  3 10  1  0  0  0  0
  4 12  1  6  0  0  0
  4 20  1  0  0  0  0
  6  8  2  0  0  0  0
  7 15  1  1  0  0  0
  7  9  1  0  0  0  0
  8 12  1  0  0  0  0
  9 14  1  1  0  0  0
 10 21  2  0  0  0  0
 11 28  1  1  0  0  0
 11  5  1  0  0  0  0
 11  8  1  0  0  0  0
 12 27  1  0  0  0  0
 13 18  1  0  0  0  0
 15 23  1  0  0  0  0
 16  2  2  0  0  0  0
 17  3  1  1  0  0  0
 18 25  1  0  0  0  0
 19  2  1  6  0  0  0
 19 26  1  0  0  0  0
 20 17  1  0  0  0  0
 20 22  1  1  0  0  0
 22  9  1  0  0  0  0
 22 10  1  0  0  0  0
 23 14  1  0  0  0  0
 26 25  1  6  0  0  0
 26 17  1  0  0  0  0
 27 24  2  0  0  0  0
 27  7  1  0  0  0  0
 29 30  1  0  0  0  0
 30 28  1  0  0  0  0
M  END
>  <MODEL>
2

>  <REMARK>
 VINA RESULT:      -8.4      2.035      5.690
  Name = 
  2 active torsions:
  status: ('A' for Active; 'I' for Inactive)
    1  A    between atoms: C_11  and  C_28
    2  A    between atoms: C_28  and  C_30
                            x       y       z     vdW  Elec       q    Type
                         _______ _______ _______ _____ _____    ______ ____

>  <TORSDO>
F 2

$$$$
=
 OpenBabel11122410243D

 30 35  0  0  1  0  0  0  0  0999 V2000
  185.9710  178.3890  140.5550 C   0  0  1  0  0  3  0  0  0  0  0  0
  186.7890  177.9930  138.1840 C   0  0  0  0  0  0  0  0  0  0  0  0
  190.0140  177.6250  141.8140 C   0  0  0  0  0  2  0  0  0  0  0  0
  186.5030  178.5930  141.9800 C   0  0  1  0  0  3  0  0  0  0  0  0
  184.8660  179.2320  140.3120 O   0  0  0  0  0  0  0  0  0  0  0  0
  183.0880  178.6820  143.3310 O   0  0  0  0  0  0  0  0  0  0  0  0
  186.2910  177.3400  144.9860 C   0  0  1  0  0  3  0  0  0  0  0  0
  184.0400  178.6610  142.5040 C   0  0  0  0  0  0  0  0  0  0  0  0
  187.8000  177.2460  144.7960 C   0  0  2  0  0  3  0  0  0  0  0  0
  189.6740  177.8400  143.2280 C   0  0  0  0  0  0  0  0  0  0  0  0
  183.7490  178.7530  141.0370 C   0  0  2  0  0  3  0  0  0  0  0  0
  185.3990  178.5160  142.9500 N   0  0  0  0  0  0  0  0  0  0  0  0
  187.8040  177.9690  137.2300 O   0  0  0  0  0  0  0  0  0  0  0  0
  188.3830  177.9670  145.9950 C   0  0  0  0  0  2  0  0  0  0  0  0
  186.0830  177.3150  146.4950 C   0  0  0  0  0  2  0  0  0  0  0  0
  185.6670  177.4880  137.9150 O   0  0  0  0  0  0  0  0  0  0  0  0
  188.6570  177.4370  141.1400 C   0  0  1  0  0  3  0  0  0  0  0  0
  189.0510  178.5940  137.5060 C   0  0  0  0  0  2  0  0  0  0  0  0
  187.0530  178.6650  139.5070 C   0  0  2  0  0  3  0  0  0  0  0  0
  187.5780  177.5260  142.2570 C   0  0  1  0  0  3  0  0  0  0  0  0
  190.5510  178.0250  144.1130 O   0  0  0  0  0  0  0  0  0  0  0  0
  188.2840  177.7820  143.5130 N   0  0  0  0  0  0  0  0  0  0  0  0
  187.4150  177.6890  147.1310 C   0  0  0  0  0  2  0  0  0  0  0  0
  185.7120  179.7510  144.9590 C   0  0  0  0  0  2  0  0  0  0  0  0
  189.5350  178.1590  138.8860 C   0  0  0  0  0  2  0  0  0  0  0  0
  188.5120  178.4640  140.0020 C   0  0  2  0  0  3  0  0  0  0  0  0
  185.6890  178.5660  144.3500 C   0  0  0  0  0  0  0  0  0  0  0  0
  183.2140  177.4330  140.4870 C   0  0  0  0  0  2  0  0  0  0  0  0
  180.8140  178.0120  140.6420 C   0  0  0  0  0  1  0  0  0  0  0  0
  181.9460  177.6750  139.6930 C   0  0  0  0  0  2  0  0  0  0  0  0
  1  5  1  6  0  0  0
  1  4  1  0  0  0  0
  3 10  1  0  0  0  0
  4 20  1  0  0  0  0
  4 12  1  1  0  0  0
  5 11  1  0  0  0  0
  7 15  1  1  0  0  0
  8 12  1  0  0  0  0
  8  6  2  0  0  0  0
  9  7  1  0  0  0  0
  9 14  1  1  0  0  0
 10 22  1  0  0  0  0
 10 21  2  0  0  0  0
 11 28  1  6  0  0  0
 11  8  1  0  0  0  0
 12 27  1  0  0  0  0
 13 18  1  0  0  0  0
 13  2  1  0  0  0  0
 14 23  1  0  0  0  0
 15 23  1  0  0  0  0
 16  2  2  0  0  0  0
 17  3  1  1  0  0  0
 17 20  1  0  0  0  0
 18 25  1  0  0  0  0
 19  2  1  6  0  0  0
 19 26  1  0  0  0  0
 19  1  1  0  0  0  0
 20 22  1  1  0  0  0
 22  9  1  0  0  0  0
 26 25  1  6  0  0  0
 26 17  1  0  0  0  0
 27 24  2  0  0  0  0
 27  7  1  0  0  0  0
 30 28  1  0  0  0  0
 30 29  1  0  0  0  0
M  END
>  <MODEL>
3

>  <REMARK>
 VINA RESULT:      -8.3      2.073      6.167
  Name = 
  2 active torsions:
  status: ('A' for Active; 'I' for Inactive)
    1  A    between atoms: C_11  and  C_28
    2  A    between atoms: C_28  and  C_30
                            x       y       z     vdW  Elec       q    Type
                         _______ _______ _______ _____ _____    ______ ____

>  <TORSDO>
F 2

$$$$
=
 OpenBabel11122410243D

 30 35  0  0  1  0  0  0  0  0999 V2000
  186.4680  178.2230  140.3600 C   0  0  1  0  0  3  0  0  0  0  0  0
  187.9590  177.3630  138.4930 C   0  0  0  0  0  0  0  0  0  0  0  0
  189.7160  177.3210  143.0350 C   0  0  0  0  0  2  0  0  0  0  0  0
  186.5220  178.6140  141.8430 C   0  0  1  0  0  3  0  0  0  0  0  0
  185.6370  179.1090  139.6430 O   0  0  0  0  0  0  0  0  0  0  0  0
  182.9020  179.2360  141.8970 O   0  0  0  0  0  0  0  0  0  0  0  0
  185.1530  177.9080  144.7210 C   0  0  1  0  0  3  0  0  0  0  0  0
  184.0610  178.9910  141.4630 C   0  0  0  0  0  0  0  0  0  0  0  0
  186.6110  177.6490  145.0810 C   0  0  2  0  0  3  0  0  0  0  0  0
  188.9620  177.8000  144.2020 C   0  0  0  0  0  0  0  0  0  0  0  0
  184.2870  178.8610  139.9880 C   0  0  2  0  0  3  0  0  0  0  0  0
  185.1610  178.8020  142.3700 N   0  0  0  0  0  0  0  0  0  0  0  0
  189.2180  177.0880  137.9640 O   0  0  0  0  0  0  0  0  0  0  0  0
  186.8610  178.5050  146.3060 C   0  0  0  0  0  2  0  0  0  0  0  0
  184.4560  178.1560  146.0530 C   0  0  0  0  0  2  0  0  0  0  0  0
  186.9290  176.9220  137.9170 O   0  0  0  0  0  0  0  0  0  0  0  0
  188.6460  177.1450  141.9600 C   0  0  1  0  0  3  0  0  0  0  0  0
  190.3790  177.6350  138.5760 C   0  0  0  0  0  2  0  0  0  0  0  0
  187.8630  178.2210  139.7290 C   0  0  2  0  0  3  0  0  0  0  0  0
  187.2830  177.5170  142.6100 C   0  0  1  0  0  3  0  0  0  0  0  0
  189.5130  178.0510  145.3070 O   0  0  0  0  0  0  0  0  0  0  0  0
  187.5630  177.9160  143.9900 N   0  0  0  0  0  0  0  0  0  0  0  0
  185.5430  178.5100  147.0600 C   0  0  0  0  0  2  0  0  0  0  0  0
  184.9650  180.3230  144.1880 C   0  0  0  0  0  2  0  0  0  0  0  0
  190.3130  177.3960  140.0810 C   0  0  0  0  0  2  0  0  0  0  0  0
  189.0320  177.9750  140.7220 C   0  0  2  0  0  3  0  0  0  0  0  0
  184.9760  179.0590  143.7640 C   0  0  0  0  0  0  0  0  0  0  0  0
  183.7820  177.5210  139.4580 C   0  0  0  0  0  2  0  0  0  0  0  0
  182.3260  178.9350  138.0450 C   0  0  0  0  0  1  0  0  0  0  0  0
  183.1970  177.6960  138.0710 C   0  0  0  0  0  2  0  0  0  0  0  0
  1  5  1  6  0  0  0
  1  4  1  0  0  0  0
  3 10  1  0  0  0  0
  4 12  1  1  0  0  0
  4 20  1  0  0  0  0
  5 11  1  0  0  0  0
  7  9  1  0  0  0  0
  7 15  1  1  0  0  0
  8  6  2  0  0  0  0
  8 12  1  0  0  0  0
  9 14  1  1  0  0  0
 10 21  2  0  0  0  0
 11 28  1  1  0  0  0
 11  8  1  0  0  0  0
 12 27  1  0  0  0  0
 13  2  1  0  0  0  0
 13 18  1  0  0  0  0
 14 23  1  0  0  0  0
 15 23  1  0  0  0  0
 16  2  2  0  0  0  0
 17 20  1  0  0  0  0
 17  3  1  1  0  0  0
 18 25  1  0  0  0  0
 19  2  1  6  0  0  0
 19  1  1  0  0  0  0
 19 26  1  0  0  0  0
 20 22  1  1  0  0  0
 22 10  1  0  0  0  0
 22  9  1  0  0  0  0
 26 25  1  6  0  0  0
 26 17  1  0  0  0  0
 27 24  2  0  0  0  0
 27  7  1  0  0  0  0
 29 30  1  0  0  0  0
 30 28  1  0  0  0  0
M  END
>  <MODEL>
4

>  <REMARK>
 VINA RESULT:      -8.1      2.245      5.329
  Name = 
  2 active torsions:
  status: ('A' for Active; 'I' for Inactive)
    1  A    between atoms: C_11  and  C_28
    2  A    between atoms: C_28  and  C_30
                            x       y       z     vdW  Elec       q    Type
                         _______ _______ _______ _____ _____    ______ ____

>  <TORSDO>
F 2

$$$$
=
 OpenBabel11122410243D

 30 35  0  0  1  0  0  0  0  0999 V2000
  187.5110  177.9720  140.2240 C   0  0  1  0  0  3  0  0  0  0  0  0
  189.3720  176.9250  138.8500 C   0  0  0  0  0  0  0  0  0  0  0  0
  189.8380  176.9540  143.6970 C   0  0  0  0  0  2  0  0  0  0  0  0
  187.1970  178.4230  141.6580 C   0  0  1  0  0  3  0  0  0  0  0  0
  186.9770  178.8840  139.2890 O   0  0  0  0  0  0  0  0  0  0  0  0
  183.7590  179.3090  140.7160 O   0  0  0  0  0  0  0  0  0  0  0  0
  185.0540  177.9450  144.0720 C   0  0  1  0  0  3  0  0  0  0  0  0
  184.9670  178.9610  140.6170 C   0  0  0  0  0  0  0  0  0  0  0  0
  186.3360  177.5960  144.8200 C   0  0  2  0  0  3  0  0  0  0  0  0
  188.8400  177.5380  144.6060 C   0  0  0  0  0  0  0  0  0  0  0  0
  185.5690  178.7510  139.2610 C   0  0  2  0  0  3  0  0  0  0  0  0
  185.7650  178.7320  141.7910 N   0  0  0  0  0  0  0  0  0  0  0  0
  190.6990  176.5360  138.6880 O   0  0  0  0  0  0  0  0  0  0  0  0
  186.3170  178.4850  146.0460 C   0  0  0  0  0  2  0  0  0  0  0  0
  184.0490  178.3010  145.1600 C   0  0  0  0  0  2  0  0  0  0  0  0
  188.5010  176.5360  138.0270 O   0  0  0  0  0  0  0  0  0  0  0  0
  189.0850  176.8100  142.3770 C   0  0  1  0  0  3  0  0  0  0  0  0
  191.6950  177.0240  139.5780 C   0  0  0  0  0  2  0  0  0  0  0  0
  189.0190  177.8410  139.9940 C   0  0  2  0  0  3  0  0  0  0  0  0
  187.6320  177.3080  142.6260 C   0  0  1  0  0  3  0  0  0  0  0  0
  189.0950  177.7960  145.8130 O   0  0  0  0  0  0  0  0  0  0  0  0
  187.5640  177.7450  144.0210 N   0  0  0  0  0  0  0  0  0  0  0  0
  184.8510  178.6190  146.4150 C   0  0  0  0  0  2  0  0  0  0  0  0
  185.2140  180.3420  143.4540 C   0  0  0  0  0  2  0  0  0  0  0  0
  191.2080  176.8560  141.0140 C   0  0  0  0  0  2  0  0  0  0  0  0
  189.8550  177.5550  141.2720 C   0  0  2  0  0  3  0  0  0  0  0  0
  185.2350  179.0630  143.0780 C   0  0  0  0  0  0  0  0  0  0  0  0
  185.1160  177.4290  138.6450 C   0  0  0  0  0  2  0  0  0  0  0  0
  185.7190  177.2980  136.2510 C   0  0  0  0  0  1  0  0  0  0  0  0
  184.6210  177.6560  137.2310 C   0  0  0  0  0  2  0  0  0  0  0  0
  1  5  1  6  0  0  0
  1  4  1  0  0  0  0
  3 10  1  0  0  0  0
  4 12  1  6  0  0  0
  4 20  1  0  0  0  0
  7  9  1  0  0  0  0
  7 15  1  1  0  0  0
  8  6  2  0  0  0  0
  8 12  1  0  0  0  0
  9 14  1  1  0  0  0
 10 21  2  0  0  0  0
 11 28  1  1  0  0  0
 11  5  1  0  0  0  0
 11  8  1  0  0  0  0
 12 27  1  0  0  0  0
 13  2  1  0  0  0  0
 13 18  1  0  0  0  0
 14 23  1  0  0  0  0
 15 23  1  0  0  0  0
 16  2  2  0  0  0  0
 17 20  1  0  0  0  0
 17  3  1  1  0  0  0
 18 25  1  0  0  0  0
 19  2  1  6  0  0  0
 19  1  1  0  0  0  0
 19 26  1  0  0  0  0
 20 22  1  1  0  0  0
 22 10  1  0  0  0  0
 22  9  1  0  0  0  0
 26 25  1  6  0  0  0
 26 17  1  0  0  0  0
 27 24  2  0  0  0  0
 27  7  1  0  0  0  0
 29 30  1  0  0  0  0
 30 28  1  0  0  0  0
M  END
>  <MODEL>
5

>  <REMARK>
 VINA RESULT:      -7.7      2.368      4.492
  Name = 
  2 active torsions:
  status: ('A' for Active; 'I' for Inactive)
    1  A    between atoms: C_11  and  C_28
    2  A    between atoms: C_28  and  C_30
                            x       y       z     vdW  Elec       q    Type
                         _______ _______ _______ _____ _____    ______ ____

>  <TORSDO>
F 2

$$$$
=
 OpenBabel11122410243D

 30 35  0  0  1  0  0  0  0  0999 V2000
  187.1830  177.7730  143.6020 C   0  0  1  0  0  3  0  0  0  0  0  0
  189.5660  177.6090  144.4650 C   0  0  0  0  0  0  0  0  0  0  0  0
  188.8800  177.7970  139.6480 C   0  0  0  0  0  2  0  0  0  0  0  0
  186.3800  177.6760  142.2980 C   0  0  1  0  0  3  0  0  0  0  0  0
  186.4780  177.1720  144.6660 O   0  0  0  0  0  0  0  0  0  0  0  0
  183.2740  178.5600  144.0490 O   0  0  0  0  0  0  0  0  0  0  0  0
  184.3140  179.3890  140.4390 C   0  0  1  0  0  3  0  0  0  0  0  0
  184.4770  178.2410  143.8500 C   0  0  0  0  0  0  0  0  0  0  0  0
  185.3950  179.1120  139.4010 C   0  0  2  0  0  3  0  0  0  0  0  0
  187.5540  177.8820  139.0180 C   0  0  0  0  0  0  0  0  0  0  0  0
  185.3810  177.9930  145.0190 C   0  0  2  0  0  3  0  0  0  0  0  0
  185.0010  178.1450  142.5140 N   0  0  0  0  0  0  0  0  0  0  0  0
  190.9040  177.2600  144.2980 O   0  0  0  0  0  0  0  0  0  0  0  0
  184.6580  178.4710  138.2420 C   0  0  0  0  0  2  0  0  0  0  0  0
  183.0590  179.6900  139.6300 C   0  0  0  0  0  2  0  0  0  0  0  0
  189.2210  178.3060  145.4560 O   0  0  0  0  0  0  0  0  0  0  0  0
  188.6160  178.1780  141.1020 C   0  0  1  0  0  3  0  0  0  0  0  0
  191.2880  176.4220  143.2160 C   0  0  0  0  0  2  0  0  0  0  0  0
  188.5550  177.1060  143.4670 C   0  0  2  0  0  3  0  0  0  0  0  0
  187.0990  178.5050  141.2180 C   0  0  1  0  0  3  0  0  0  0  0  0
  187.3700  177.6430  137.7950 O   0  0  0  0  0  0  0  0  0  0  0  0
  186.5140  178.2920  139.8930 N   0  0  0  0  0  0  0  0  0  0  0  0
  183.2900  179.1290  138.2330 C   0  0  0  0  0  2  0  0  0  0  0  0
  183.3580  177.1930  141.0820 C   0  0  0  0  0  2  0  0  0  0  0  0
  190.6550  176.9430  141.9300 C   0  0  0  0  0  2  0  0  0  0  0  0
  189.1170  177.0490  142.0200 C   0  0  2  0  0  3  0  0  0  0  0  0
  184.1110  178.2460  141.4000 C   0  0  0  0  0  0  0  0  0  0  0  0
  185.8150  179.3000  145.6800 C   0  0  0  0  0  2  0  0  0  0  0  0
  186.9410  178.4200  147.6980 C   0  0  0  0  0  1  0  0  0  0  0  0
  185.7310  179.1740  147.1880 C   0  0  0  0  0  2  0  0  0  0  0  0
  1  5  1  1  0  0  0
  2 16  2  0  0  0  0
  4 12  1  1  0  0  0
  4  1  1  0  0  0  0
  5 11  1  0  0  0  0
  7 15  1  6  0  0  0
  7 27  1  0  0  0  0
  8  6  2  0  0  0  0
  8 11  1  0  0  0  0
  9 14  1  6  0  0  0
  9 22  1  0  0  0  0
  9  7  1  0  0  0  0
 10  3  1  0  0  0  0
 10 22  1  0  0  0  0
 11 28  1  6  0  0  0
 12  8  1  0  0  0  0
 13  2  1  0  0  0  0
 17  3  1  6  0  0  0
 17 20  1  0  0  0  0
 17 26  1  0  0  0  0
 18 13  1  0  0  0  0
 19  1  1  0  0  0  0
 19  2  1  1  0  0  0
 20 22  1  6  0  0  0
 20  4  1  0  0  0  0
 21 10  2  0  0  0  0
 23 14  1  0  0  0  0
 23 15  1  0  0  0  0
 24 27  2  0  0  0  0
 25 18  1  0  0  0  0
 26 25  1  1  0  0  0
 26 19  1  0  0  0  0
 27 12  1  0  0  0  0
 28 30  1  0  0  0  0
 30 29  1  0  0  0  0
M  END
>  <MODEL>
6

>  <REMARK>
 VINA RESULT:      -7.7      2.167      5.346
  Name = 
  2 active torsions:
  status: ('A' for Active; 'I' for Inactive)
    1  A    between atoms: C_11  and  C_28
    2  A    between atoms: C_28  and  C_30
                            x       y       z     vdW  Elec       q    Type
                         _______ _______ _______ _____ _____    ______ ____

>  <TORSDO>
F 2

$$$$
=
 OpenBabel11122410243D

 30 35  0  0  1  0  0  0  0  0999 V2000
  188.0930  177.9850  140.7850 C   0  0  1  0  0  3  0  0  0  0  0  0
  190.1590  177.3200  142.1020 C   0  0  0  0  0  0  0  0  0  0  0  0
  186.0540  178.2070  144.5670 C   0  0  0  0  0  2  0  0  0  0  0  0
  186.6750  178.5370  140.9900 C   0  0  1  0  0  3  0  0  0  0  0  0
  188.6860  178.5560  139.6390 O   0  0  0  0  0  0  0  0  0  0  0  0
  185.9530  178.2510  137.4000 O   0  0  0  0  0  0  0  0  0  0  0  0
  183.5480  177.8340  140.3740 C   0  0  1  0  0  3  0  0  0  0  0  0
  186.5890  178.2530  138.4890 C   0  0  0  0  0  0  0  0  0  0  0  0
  183.4640  177.9830  141.8880 C   0  0  2  0  0  3  0  0  0  0  0  0
  184.7940  178.6110  143.9280 C   0  0  0  0  0  0  0  0  0  0  0  0
  188.0700  178.0230  138.4820 C   0  0  2  0  0  3  0  0  0  0  0  0
  185.9060  178.4400  139.7400 N   0  0  0  0  0  0  0  0  0  0  0  0
  190.9060  177.3070  143.2780 O   0  0  0  0  0  0  0  0  0  0  0  0
  182.3670  179.0030  142.1130 C   0  0  0  0  0  2  0  0  0  0  0  0
  182.1230  178.0470  139.8780 C   0  0  0  0  0  2  0  0  0  0  0  0
  190.4950  176.5790  141.1400 O   0  0  0  0  0  0  0  0  0  0  0  0
  186.8870  177.6580  143.4120 C   0  0  1  0  0  3  0  0  0  0  0  0
  190.5670  178.1870  144.3420 C   0  0  0  0  0  2  0  0  0  0  0  0
  188.9830  178.2570  142.0000 C   0  0  2  0  0  3  0  0  0  0  0  0
  186.0060  177.7510  142.1330 C   0  0  1  0  0  3  0  0  0  0  0  0
  183.8360  179.1090  144.5770 O   0  0  0  0  0  0  0  0  0  0  0  0
  184.7350  178.3550  142.5330 N   0  0  0  0  0  0  0  0  0  0  0  0
  181.3720  178.7650  140.9910 C   0  0  0  0  0  2  0  0  0  0  0  0
  184.1800  180.0560  139.4690 C   0  0  0  0  0  2  0  0  0  0  0  0
  189.0670  178.1040  144.6030 C   0  0  0  0  0  2  0  0  0  0  0  0
  188.2240  178.4170  143.3470 C   0  0  2  0  0  3  0  0  0  0  0  0
  184.5200  178.7950  139.7380 C   0  0  0  0  0  0  0  0  0  0  0  0
  188.4080  176.5500  138.2620 C   0  0  0  0  0  2  0  0  0  0  0  0
  189.4300  177.3920  136.1740 C   0  0  0  0  0  1  0  0  0  0  0  0
  189.5920  176.4210  137.3250 C   0  0  0  0  0  2  0  0  0  0  0  0
  1  5  1  6  0  0  0
  1  4  1  0  0  0  0
  1 19  1  0  0  0  0
  2 13  1  0  0  0  0
  4 12  1  6  0  0  0
  4 20  1  0  0  0  0
  6  8  2  0  0  0  0
  7 15  1  6  0  0  0
  7  9  1  0  0  0  0
  8 12  1  0  0  0  0
  9 14  1  6  0  0  0
  9 22  1  0  0  0  0
 10  3  1  0  0  0  0
 10 21  2  0  0  0  0
 11 28  1  1  0  0  0
 11  8  1  0  0  0  0
 11  5  1  0  0  0  0
 13 18  1  0  0  0  0
 15 23  1  0  0  0  0
 16  2  2  0  0  0  0
 17  3  1  1  0  0  0
 18 25  1  0  0  0  0
 19  2  1  1  0  0  0
 19 26  1  0  0  0  0
 20 22  1  1  0  0  0
 20 17  1  0  0  0  0
 22 10  1  0  0  0  0
 23 14  1  0  0  0  0
 24 27  2  0  0  0  0
 26 17  1  0  0  0  0
 26 25  1  1  0  0  0
 27 12  1  0  0  0  0
 27  7  1  0  0  0  0
 29 30  1  0  0  0  0
 30 28  1  0  0  0  0
M  END
>  <MODEL>
7

>  <REMARK>
 VINA RESULT:      -7.4      2.119      3.038
  Name = 
  2 active torsions:
  status: ('A' for Active; 'I' for Inactive)
    1  A    between atoms: C_11  and  C_28
    2  A    between atoms: C_28  and  C_30
                            x       y       z     vdW  Elec       q    Type
                         _______ _______ _______ _____ _____    ______ ____

>  <TORSDO>
F 2

$$$$
=
 OpenBabel11122410243D

 30 35  0  0  1  0  0  0  0  0999 V2000
  184.8510  178.6480  140.0890 C   0  0  1  0  0  3  0  0  0  0  0  0
  182.3410  178.7970  140.4430 C   0  0  0  0  0  0  0  0  0  0  0  0
  183.9590  177.2440  136.1210 C   0  0  0  0  0  2  0  0  0  0  0  0
  185.8870  178.4370  138.9760 C   0  0  1  0  0  3  0  0  0  0  0  0
  185.3020  179.6160  141.0100 O   0  0  0  0  0  0  0  0  0  0  0  0
  188.6350  178.4750  141.4130 O   0  0  0  0  0  0  0  0  0  0  0  0
  188.3620  176.4850  138.1310 C   0  0  1  0  0  3  0  0  0  0  0  0
  187.4780  178.5820  140.9230 C   0  0  0  0  0  0  0  0  0  0  0  0
  187.4910  176.3140  136.8920 C   0  0  2  0  0  3  0  0  0  0  0  0
  185.3850  177.1220  135.7830 C   0  0  0  0  0  0  0  0  0  0  0  0
  186.3520  179.0680  141.7840 C   0  0  2  0  0  3  0  0  0  0  0  0
  187.2190  178.2120  139.5580 N   0  0  0  0  0  0  0  0  0  0  0  0
  181.0440  178.9290  139.9520 O   0  0  0  0  0  0  0  0  0  0  0  0
  188.4040  176.6540  135.7320 C   0  0  0  0  0  2  0  0  0  0  0  0
  189.7650  176.0960  137.6820 C   0  0  0  0  0  2  0  0  0  0  0  0
  182.5230  178.4750  141.6470 O   0  0  0  0  0  0  0  0  0  0  0  0
  183.9560  177.3510  137.6430 C   0  0  1  0  0  3  0  0  0  0  0  0
  180.8330  179.3530  138.6110 C   0  0  0  0  0  2  0  0  0  0  0  0
  183.4980  179.0860  139.5210 C   0  0  2  0  0  3  0  0  0  0  0  0
  185.4360  177.2460  138.1100 C   0  0  1  0  0  3  0  0  0  0  0  0
  185.7900  177.0000  134.5960 O   0  0  0  0  0  0  0  0  0  0  0  0
  186.2550  177.1140  136.9040 N   0  0  0  0  0  0  0  0  0  0  0  0
  189.7810  176.1810  136.1610 C   0  0  0  0  0  2  0  0  0  0  0  0
  189.0570  178.8650  138.1950 C   0  0  0  0  0  2  0  0  0  0  0  0
  181.7310  178.5420  137.6820 C   0  0  0  0  0  2  0  0  0  0  0  0
  183.2260  178.6410  138.0580 C   0  0  2  0  0  3  0  0  0  0  0  0
  188.3140  177.8800  138.7000 C   0  0  0  0  0  0  0  0  0  0  0  0
  185.8690  177.9810  142.7420 C   0  0  0  0  0  2  0  0  0  0  0  0
  186.0460  178.2270  145.1970 C   0  0  0  0  0  1  0  0  0  0  0  0
  185.2440  178.6110  143.9710 C   0  0  0  0  0  2  0  0  0  0  0  0
  1  5  1  1  0  0  0
  2 16  2  0  0  0  0
  4 12  1  1  0  0  0
  4  1  1  0  0  0  0
  5 11  1  0  0  0  0
  7 15  1  6  0  0  0
  7 27  1  0  0  0  0
  8  6  2  0  0  0  0
  8 11  1  0  0  0  0
  9 14  1  6  0  0  0
  9 22  1  0  0  0  0
  9  7  1  0  0  0  0
 10  3  1  0  0  0  0
 10 22  1  0  0  0  0
 11 28  1  6  0  0  0
 12  8  1  0  0  0  0
 13  2  1  0  0  0  0
 14 23  1  0  0  0  0
 17  3  1  6  0  0  0
 17 26  1  0  0  0  0
 17 20  1  0  0  0  0
 18 13  1  0  0  0  0
 19  1  1  0  0  0  0
 19  2  1  1  0  0  0
 20 22  1  6  0  0  0
 20  4  1  0  0  0  0
 21 10  2  0  0  0  0
 23 15  1  0  0  0  0
 24 27  2  0  0  0  0
 25 18  1  0  0  0  0
 26 25  1  1  0  0  0
 26 19  1  0  0  0  0
 27 12  1  0  0  0  0
 28 30  1  0  0  0  0
 30 29  1  0  0  0  0
M  END
>  <MODEL>
8

>  <REMARK>
 VINA RESULT:      -7.4      3.849      8.552
  Name = 
  2 active torsions:
  status: ('A' for Active; 'I' for Inactive)
    1  A    between atoms: C_11  and  C_28
    2  A    between atoms: C_28  and  C_30
                            x       y       z     vdW  Elec       q    Type
                         _______ _______ _______ _____ _____    ______ ____

>  <TORSDO>
F 2

$$$$
=
 OpenBabel11122410243D

 30 35  0  0  1  0  0  0  0  0999 V2000
  188.5220  177.7810  144.3090 C   0  0  1  0  0  3  0  0  0  0  0  0
  189.6850  177.2090  146.4930 C   0  0  0  0  0  0  0  0  0  0  0  0
  184.9560  178.3600  146.6460 C   0  0  0  0  0  2  0  0  0  0  0  0
  187.2060  178.3660  143.7780 C   0  0  1  0  0  3  0  0  0  0  0  0
  189.6150  178.2400  143.5440 O   0  0  0  0  0  0  0  0  0  0  0  0
  188.2490  177.7730  140.3050 O   0  0  0  0  0  0  0  0  0  0  0  0
  184.7070  177.6480  141.8040 C   0  0  1  0  0  3  0  0  0  0  0  0
  188.2950  177.8620  141.5620 C   0  0  0  0  0  0  0  0  0  0  0  0
  183.9270  177.9310  143.0830 C   0  0  2  0  0  3  0  0  0  0  0  0
  184.1690  178.7210  145.4570 C   0  0  0  0  0  0  0  0  0  0  0  0
  189.5900  177.6150  142.2750 C   0  0  2  0  0  3  0  0  0  0  0  0
  187.1130  178.1680  142.3220 N   0  0  0  0  0  0  0  0  0  0  0  0
  189.7880  177.2910  147.8790 O   0  0  0  0  0  0  0  0  0  0  0  0
  182.9080  178.9800  142.6860 C   0  0  0  0  0  2  0  0  0  0  0  0
  183.6980  177.8330  140.6780 C   0  0  0  0  0  2  0  0  0  0  0  0
  190.3950  176.3830  145.8610 O   0  0  0  0  0  0  0  0  0  0  0  0
  186.2050  177.7010  146.0660 C   0  0  1  0  0  3  0  0  0  0  0  0
  189.0340  178.2660  148.5900 C   0  0  0  0  0  2  0  0  0  0  0  0
  188.7470  178.1480  145.7780 C   0  0  2  0  0  3  0  0  0  0  0  0
  186.0370  177.6910  144.5190 C   0  0  1  0  0  3  0  0  0  0  0  0
  183.0450  179.2860  145.5370 O   0  0  0  0  0  0  0  0  0  0  0  0
  184.7610  178.3430  144.2240 N   0  0  0  0  0  0  0  0  0  0  0  0
  182.5490  178.6560  141.2460 C   0  0  0  0  0  2  0  0  0  0  0  0
  185.8060  179.7730  141.1500 C   0  0  0  0  0  2  0  0  0  0  0  0
  187.5860  178.2240  148.1120 C   0  0  0  0  0  2  0  0  0  0  0  0
  187.4530  178.4350  146.5880 C   0  0  2  0  0  3  0  0  0  0  0  0
  185.9130  178.5370  141.6390 C   0  0  0  0  0  0  0  0  0  0  0  0
  189.9130  176.1250  142.3490 C   0  0  0  0  0  2  0  0  0  0  0  0
  192.1730  177.1280  142.2910 C   0  0  0  0  0  1  0  0  0  0  0  0
  191.3660  175.9250  142.7330 C   0  0  0  0  0  2  0  0  0  0  0  0
  1  5  1  6  0  0  0
  1 19  1  0  0  0  0
  2 13  1  0  0  0  0
  4 12  1  6  0  0  0
  4  1  1  0  0  0  0
  4 20  1  0  0  0  0
  6  8  2  0  0  0  0
  7 15  1  6  0  0  0
  7  9  1  0  0  0  0
  8 11  1  0  0  0  0
  8 12  1  0  0  0  0
  9 14  1  6  0  0  0
  9 22  1  0  0  0  0
 10 21  2  0  0  0  0
 10  3  1  0  0  0  0
 11 28  1  1  0  0  0
 11  5  1  0  0  0  0
 13 18  1  0  0  0  0
 15 23  1  0  0  0  0
 16  2  2  0  0  0  0
 17 26  1  0  0  0  0
 17  3  1  1  0  0  0
 19  2  1  1  0  0  0
 19 26  1  0  0  0  0
 20 22  1  1  0  0  0
 20 17  1  0  0  0  0
 22 10  1  0  0  0  0
 23 14  1  0  0  0  0
 24 27  2  0  0  0  0
 25 18  1  0  0  0  0
 26 25  1  1  0  0  0
 27  7  1  0  0  0  0
 27 12  1  0  0  0  0
 28 30  1  0  0  0  0
 29 30  1  0  0  0  0
M  END
>  <MODEL>
9

>  <REMARK>
 VINA RESULT:      -7.3      1.532      2.018
  Name = 
  2 active torsions:
  status: ('A' for Active; 'I' for Inactive)
    1  A    between atoms: C_11  and  C_28
    2  A    between atoms: C_28  and  C_30
                            x       y       z     vdW  Elec       q    Type
                         _______ _______ _______ _____ _____    ______ ____

>  <TORSDO>
F 2

$$$$
