=
 OpenBabel11122411153D

 31 35  0  0  1  0  0  0  0  0999 V2000
  181.1450  178.6790  143.4100 C   0  0  0  0  0  0  0  0  0  0  0  0
  181.5830  178.0600  139.6860 C   0  0  2  0  0  3  0  0  0  0  0  0
  181.2880  179.2690  138.8190 C   0  0  0  0  0  0  0  0  0  0  0  0
  180.3460  181.4730  138.5030 C   0  0  0  0  0  0  0  0  0  0  0  0
  181.8770  178.4050  141.1180 C   0  0  0  0  0  0  0  0  0  0  0  0
  182.4430  179.0440  143.7820 C   0  0  0  0  0  3  0  0  0  0  0  0
  180.6430  180.3980  139.3420 C   0  0  0  0  0  3  0  0  0  0  0  0
  184.1690  177.7490  139.3930 C   0  0  1  0  0  3  0  0  0  0  0  0
  180.1370  178.6340  144.3630 O   0  0  0  0  0  1  0  0  0  0  0  0
  182.2150  178.0810  136.8670 N   0  0  0  0  0  2  0  0  0  0  0  0
  179.7340  182.5720  139.0050 F   0  0  0  0  0  0  0  0  0  0  0  0
  184.2480  178.8640  140.4530 C   0  0  0  0  0  2  0  0  0  0  0  0
  182.7320  177.2090  139.1080 C   0  0  2  0  0  3  0  0  0  0  0  0
  180.8600  178.3610  142.0780 C   0  0  0  0  0  3  0  0  0  0  0  0
  180.6650  181.4180  137.1830 N   0  0  0  0  0  0  0  0  0  0  0  0
  183.1810  178.7580  141.4930 C   0  0  0  0  0  0  0  0  0  0  0  0
  183.4600  179.0890  142.8230 C   0  0  0  0  0  3  0  0  0  0  0  0
  182.4490  176.8640  137.6410 C   0  0  0  0  0  2  0  0  0  0  0  0
  181.5770  179.2250  137.4420 C   0  0  0  0  0  0  0  0  0  0  0  0
  181.2670  180.3260  136.6400 C   0  0  0  0  0  3  0  0  0  0  0  0
  186.9790  177.5310  138.8290 O   0  0  0  0  0  0  0  0  0  0  0  0
  186.2470  178.0810  137.9640 C   0  0  0  0  0  0  0  0  0  0  0  0
  184.8360  178.1950  138.1760 N   0  0  0  0  0  2  0  0  0  0  0  0
  188.7670  176.7490  135.5840 C   0  0  0  0  0  0  0  0  0  0  0  0
  186.5010  177.7900  135.4940 C   0  0  0  0  0  2  0  0  0  0  0  0
  188.8560  179.6980  137.5080 O   0  0  0  0  0  0  0  0  0  0  0  0
  189.7280  175.7790  134.9960 C   0  0  0  0  0  1  0  0  0  0  0  0
  187.2940  176.4830  135.4600 C   0  0  0  0  0  2  0  0  0  0  0  0
  188.3570  178.7450  136.8530 C   0  0  0  0  0  0  0  0  0  0  0  0
  186.8660  178.6330  136.7180 C   0  0  2  0  0  3  0  0  0  0  0  0
  189.2190  177.7680  136.2540 N   0  0  0  0  0  0  0  0  0  0  0  0
  1  6  1  0  0  0  0
  1  9  1  0  0  0  0
  2  3  1  6  0  0  0
  2  5  1  0  0  0  0
  3  7  1  0  0  0  0
  4 11  1  0  0  0  0
  4  7  2  0  0  0  0
  5 16  2  0  0  0  0
  5 14  1  0  0  0  0
  8 23  1  6  0  0  0
  8 12  1  0  0  0  0
 10 19  1  0  0  0  0
 10 18  1  0  0  0  0
 12 16  1  0  0  0  0
 13 18  1  6  0  0  0
 13  8  1  0  0  0  0
 13  2  1  0  0  0  0
 14  1  2  0  0  0  0
 15  4  1  0  0  0  0
 16 17  1  0  0  0  0
 17  6  2  0  0  0  0
 19  3  2  0  0  0  0
 20 15  2  0  0  0  0
 20 19  1  0  0  0  0
 22 23  1  0  0  0  0
 22 21  2  0  0  0  0
 24 31  2  0  0  0  0
 25 30  1  0  0  0  0
 27 24  1  0  0  0  0
 28 25  1  0  0  0  0
 28 24  1  0  0  0  0
 29 26  2  0  0  0  0
 30 29  1  0  0  0  0
 30 22  1  1  0  0  0
 31 29  1  0  0  0  0
M  END
>  <MODEL>
1

>  <REMARK>
 VINA RESULT:      -6.6      0.000      0.000
  Name = 
  2 active torsions:
  status: ('A' for Active; 'I' for Inactive)
    1  A    between atoms: C_5  and  C_30
    2  A    between atoms: C_10  and  N_16
                            x       y       z     vdW  Elec       q    Type
                         _______ _______ _______ _____ _____    ______ ____

>  <TORSDO>
F 2

$$$$
=
 OpenBabel11122411153D

 31 35  0  0  1  0  0  0  0  0999 V2000
  183.0880  172.2470  135.9470 C   0  0  0  0  0  0  0  0  0  0  0  0
  184.4990  175.7710  136.1170 C   0  0  2  0  0  3  0  0  0  0  0  0
  184.1550  176.5140  137.3930 C   0  0  0  0  0  0  0  0  0  0  0  0
  182.8530  176.7680  139.4150 C   0  0  0  0  0  0  0  0  0  0  0  0
  184.3710  174.2790  136.2370 C   0  0  0  0  0  0  0  0  0  0  0  0
  184.1530  171.5000  136.4600 C   0  0  0  0  0  3  0  0  0  0  0  0
  183.1760  176.0330  138.2730 C   0  0  0  0  0  3  0  0  0  0  0  0
  187.0860  175.4110  136.3290 C   0  0  1  0  0  3  0  0  0  0  0  0
  181.9220  171.6080  135.5470 O   0  0  0  0  0  1  0  0  0  0  0  0
  185.7450  178.2940  136.7720 N   0  0  0  0  0  2  0  0  0  0  0  0
  181.9170  176.3020  140.2750 F   0  0  0  0  0  0  0  0  0  0  0  0
  186.6730  174.2270  137.2250 C   0  0  0  0  0  2  0  0  0  0  0  0
  185.9080  176.1350  135.6060 C   0  0  2  0  0  3  0  0  0  0  0  0
  183.1950  173.6370  135.8360 C   0  0  0  0  0  3  0  0  0  0  0  0
  183.4740  177.9520  139.6630 N   0  0  0  0  0  0  0  0  0  0  0  0
  185.4440  173.5290  136.7400 C   0  0  0  0  0  0  0  0  0  0  0  0
  185.3290  172.1410  136.8630 C   0  0  0  0  0  3  0  0  0  0  0  0
  186.0540  177.6570  135.4940 C   0  0  0  0  0  2  0  0  0  0  0  0
  184.7570  177.7590  137.6580 C   0  0  0  0  0  0  0  0  0  0  0  0
  184.4080  178.4580  138.8160 C   0  0  0  0  0  3  0  0  0  0  0  0
  189.8020  176.1580  135.7570 O   0  0  0  0  0  0  0  0  0  0  0  0
  189.2610  176.6500  136.7830 C   0  0  0  0  0  0  0  0  0  0  0  0
  187.9030  176.3360  137.1060 N   0  0  0  0  0  2  0  0  0  0  0  0
  188.8500  177.7270  140.3130 C   0  0  0  0  0  0  0  0  0  0  0  0
  190.6470  176.7850  138.8600 C   0  0  0  0  0  2  0  0  0  0  0  0
  189.0090  179.6830  137.3890 O   0  0  0  0  0  0  0  0  0  0  0  0
  188.2410  177.8050  141.6670 C   0  0  0  0  0  1  0  0  0  0  0  0
  189.5800  176.4780  139.9120 C   0  0  0  0  0  2  0  0  0  0  0  0
  189.2300  178.7100  138.1560 C   0  0  0  0  0  0  0  0  0  0  0  0
  190.0560  177.5520  137.6740 C   0  0  2  0  0  3  0  0  0  0  0  0
  188.6780  178.7110  139.4800 N   0  0  0  0  0  0  0  0  0  0  0  0
  1  6  1  0  0  0  0
  2  5  1  1  0  0  0
  2  3  1  0  0  0  0
  3 19  2  0  0  0  0
  3  7  1  0  0  0  0
  4 15  1  0  0  0  0
  4 11  1  0  0  0  0
  5 16  2  0  0  0  0
  6 17  2  0  0  0  0
  7  4  2  0  0  0  0
  8 23  1  1  0  0  0
  8 12  1  0  0  0  0
  9  1  1  0  0  0  0
 10 19  1  0  0  0  0
 13 18  1  1  0  0  0
 13  2  1  0  0  0  0
 13  8  1  0  0  0  0
 14  1  2  0  0  0  0
 14  5  1  0  0  0  0
 16 17  1  0  0  0  0
 16 12  1  0  0  0  0
 18 10  1  0  0  0  0
 19 20  1  0  0  0  0
 20 15  2  0  0  0  0
 21 22  2  0  0  0  0
 22 23  1  0  0  0  0
 24 27  1  0  0  0  0
 25 28  1  0  0  0  0
 26 29  2  0  0  0  0
 28 24  1  0  0  0  0
 29 31  1  0  0  0  0
 30 22  1  1  0  0  0
 30 29  1  0  0  0  0
 30 25  1  0  0  0  0
 31 24  2  0  0  0  0
M  END
>  <MODEL>
2

>  <REMARK>
 VINA RESULT:      -6.4      3.712      6.009
  Name = 
  2 active torsions:
  status: ('A' for Active; 'I' for Inactive)
    1  A    between atoms: C_5  and  C_30
    2  A    between atoms: C_10  and  N_16
                            x       y       z     vdW  Elec       q    Type
                         _______ _______ _______ _____ _____    ______ ____

>  <TORSDO>
F 2

$$$$
=
 OpenBabel11122411153D

 31 35  0  0  1  0  0  0  0  0999 V2000
  191.5310  176.6770  138.3070 C   0  0  0  0  0  0  0  0  0  0  0  0
  188.1610  176.6580  136.5520 C   0  0  2  0  0  3  0  0  0  0  0  0
  187.4230  175.3360  136.6440 C   0  0  0  0  0  0  0  0  0  0  0  0
  187.3690  172.9650  137.1160 C   0  0  0  0  0  0  0  0  0  0  0  0
  189.2200  176.8300  137.6030 C   0  0  0  0  0  0  0  0  0  0  0  0
  191.1800  177.1630  139.5700 C   0  0  0  0  0  3  0  0  0  0  0  0
  188.0670  174.1730  137.0880 C   0  0  0  0  0  3  0  0  0  0  0  0
  186.6780  178.2580  138.0040 C   0  0  1  0  0  3  0  0  0  0  0  0
  192.8540  176.3600  138.0290 O   0  0  0  0  0  1  0  0  0  0  0  0
  185.4100  176.4080  135.7070 N   0  0  0  0  0  2  0  0  0  0  0  0
  187.9820  171.8410  137.5550 F   0  0  0  0  0  0  0  0  0  0  0  0
  187.4350  177.6100  139.1790 C   0  0  0  0  0  2  0  0  0  0  0  0
  187.1920  177.8570  136.5860 C   0  0  2  0  0  3  0  0  0  0  0  0
  190.5520  176.5090  137.3230 C   0  0  0  0  0  3  0  0  0  0  0  0
  186.0760  172.9140  136.6990 N   0  0  0  0  0  0  0  0  0  0  0  0
  188.8690  177.3290  138.8660 C   0  0  0  0  0  0  0  0  0  0  0  0
  189.8480  177.4830  139.8530 C   0  0  0  0  0  3  0  0  0  0  0  0
  186.0980  177.6840  135.5250 C   0  0  0  0  0  2  0  0  0  0  0  0
  186.0940  175.2470  136.1880 C   0  0  0  0  0  0  0  0  0  0  0  0
  185.4310  174.0190  136.2390 C   0  0  0  0  0  3  0  0  0  0  0  0
  184.8920  179.6840  139.7470 O   0  0  0  0  0  0  0  0  0  0  0  0
  184.4170  178.7390  139.0640 C   0  0  0  0  0  0  0  0  0  0  0  0
  185.2500  178.0090  138.1590 N   0  0  0  0  0  2  0  0  0  0  0  0
  182.2680  176.1730  137.4530 C   0  0  0  0  0  0  0  0  0  0  0  0
  182.8170  176.9480  139.7610 C   0  0  0  0  0  2  0  0  0  0  0  0
  181.8810  179.6730  137.5380 O   0  0  0  0  0  0  0  0  0  0  0  0
  181.9110  175.0390  136.5610 C   0  0  0  0  0  1  0  0  0  0  0  0
  183.0950  175.9060  138.6770 C   0  0  0  0  0  2  0  0  0  0  0  0
  182.2280  178.5270  137.9250 C   0  0  0  0  0  0  0  0  0  0  0  0
  182.9740  178.3720  139.2190 C   0  0  2  0  0  3  0  0  0  0  0  0
  181.9190  177.3810  137.1200 N   0  0  0  0  0  0  0  0  0  0  0  0
  1  6  1  0  0  0  0
  2 13  1  0  0  0  0
  2  3  1  1  0  0  0
  2  5  1  0  0  0  0
  3  7  1  0  0  0  0
  4 11  1  0  0  0  0
  5 16  2  0  0  0  0
  6 17  2  0  0  0  0
  7  4  2  0  0  0  0
  8 23  1  6  0  0  0
  8 12  1  0  0  0  0
  9  1  1  0  0  0  0
 10 19  1  0  0  0  0
 13 18  1  6  0  0  0
 13  8  1  0  0  0  0
 14  5  1  0  0  0  0
 14  1  2  0  0  0  0
 15  4  1  0  0  0  0
 16 12  1  0  0  0  0
 16 17  1  0  0  0  0
 18 10  1  0  0  0  0
 19 20  1  0  0  0  0
 19  3  2  0  0  0  0
 20 15  2  0  0  0  0
 22 21  2  0  0  0  0
 23 22  1  0  0  0  0
 24 28  1  0  0  0  0
 26 29  2  0  0  0  0
 27 24  1  0  0  0  0
 28 25  1  0  0  0  0
 29 30  1  0  0  0  0
 30 22  1  6  0  0  0
 30 25  1  0  0  0  0
 31 24  2  0  0  0  0
 31 29  1  0  0  0  0
M  END
>  <MODEL>
3

>  <REMARK>
 VINA RESULT:      -6.4      3.679      7.773
  Name = 
  2 active torsions:
  status: ('A' for Active; 'I' for Inactive)
    1  A    between atoms: C_5  and  C_30
    2  A    between atoms: C_10  and  N_16
                            x       y       z     vdW  Elec       q    Type
                         _______ _______ _______ _____ _____    ______ ____

>  <TORSDO>
F 2

$$$$
=
 OpenBabel11122411153D

 31 35  0  0  1  0  0  0  0  0999 V2000
  191.3440  176.7590  138.2220 C   0  0  0  0  0  0  0  0  0  0  0  0
  187.9940  176.5940  136.4360 C   0  0  2  0  0  3  0  0  0  0  0  0
  187.2900  175.2570  136.5640 C   0  0  0  0  0  0  0  0  0  0  0  0
  187.2930  172.9020  137.1120 C   0  0  0  0  0  0  0  0  0  0  0  0
  189.0360  176.8280  137.4910 C   0  0  0  0  0  0  0  0  0  0  0  0
  190.9660  177.2760  139.4660 C   0  0  0  0  0  3  0  0  0  0  0  0
  187.9590  174.1270  137.0510 C   0  0  0  0  0  3  0  0  0  0  0  0
  186.4540  178.2010  137.8200 C   0  0  1  0  0  3  0  0  0  0  0  0
  192.6770  176.4690  137.9680 O   0  0  0  0  0  1  0  0  0  0  0  0
  185.2590  176.2440  135.5720 N   0  0  0  0  0  2  0  0  0  0  0  0
  187.9300  171.8090  137.5940 F   0  0  0  0  0  0  0  0  0  0  0  0
  187.2150  177.6120  139.0230 C   0  0  0  0  0  2  0  0  0  0  0  0
  186.9940  177.7670  136.4200 C   0  0  2  0  0  3  0  0  0  0  0  0
  190.3800  176.5340  137.2350 C   0  0  0  0  0  3  0  0  0  0  0  0
  186.0060  172.8030  136.6840 N   0  0  0  0  0  0  0  0  0  0  0  0
  188.6590  177.3580  138.7340 C   0  0  0  0  0  0  0  0  0  0  0  0
  189.6230  177.5710  139.7240 C   0  0  0  0  0  3  0  0  0  0  0  0
  185.9160  177.5310  135.3560 C   0  0  0  0  0  2  0  0  0  0  0  0
  185.9690  175.1180  136.0970 C   0  0  0  0  0  0  0  0  0  0  0  0
  185.3380  173.8750  136.1820 C   0  0  0  0  0  3  0  0  0  0  0  0
  184.5560  179.8020  139.2670 O   0  0  0  0  0  0  0  0  0  0  0  0
  184.1400  178.7440  138.7240 C   0  0  0  0  0  0  0  0  0  0  0  0
  185.0310  177.9190  137.9690 N   0  0  0  0  0  2  0  0  0  0  0  0
  180.9650  180.6700  138.7870 C   0  0  0  0  0  0  0  0  0  0  0  0
  181.8910  178.6590  137.6350 C   0  0  0  0  0  2  0  0  0  0  0  0
  182.3390  178.5550  141.2450 O   0  0  0  0  0  0  0  0  0  0  0  0
  180.0730  181.8570  138.7180 C   0  0  0  0  0  1  0  0  0  0  0  0
  181.5920  180.1540  137.5240 C   0  0  0  0  0  2  0  0  0  0  0  0
  182.0940  179.0020  140.0950 C   0  0  0  0  0  0  0  0  0  0  0  0
  182.7070  178.3450  138.8920 C   0  0  2  0  0  3  0  0  0  0  0  0
  181.2410  180.1460  139.9450 N   0  0  0  0  0  0  0  0  0  0  0  0
  1  6  1  0  0  0  0
  2  3  1  1  0  0  0
  2  5  1  0  0  0  0
  3  7  1  0  0  0  0
  4 11  1  0  0  0  0
  5 16  2  0  0  0  0
  6 17  2  0  0  0  0
  7  4  2  0  0  0  0
  8 23  1  1  0  0  0
  8 12  1  0  0  0  0
  9  1  1  0  0  0  0
 10 19  1  0  0  0  0
 13 18  1  6  0  0  0
 13  2  1  0  0  0  0
 13  8  1  0  0  0  0
 14  5  1  0  0  0  0
 14  1  2  0  0  0  0
 15  4  1  0  0  0  0
 16 12  1  0  0  0  0
 16 17  1  0  0  0  0
 18 10  1  0  0  0  0
 19 20  1  0  0  0  0
 19  3  2  0  0  0  0
 20 15  2  0  0  0  0
 22 21  2  0  0  0  0
 23 22  1  0  0  0  0
 24 31  2  0  0  0  0
 25 30  1  0  0  0  0
 27 24  1  0  0  0  0
 28 25  1  0  0  0  0
 28 24  1  0  0  0  0
 29 26  2  0  0  0  0
 30 22  1  6  0  0  0
 30 29  1  0  0  0  0
 31 29  1  0  0  0  0
M  END
>  <MODEL>
4

>  <REMARK>
 VINA RESULT:      -6.3      3.581      8.107
  Name = 
  2 active torsions:
  status: ('A' for Active; 'I' for Inactive)
    1  A    between atoms: C_5  and  C_30
    2  A    between atoms: C_10  and  N_16
                            x       y       z     vdW  Elec       q    Type
                         _______ _______ _______ _____ _____    ______ ____

>  <TORSDO>
F 2

$$$$
=
 OpenBabel11122411153D

 31 35  0  0  1  0  0  0  0  0999 V2000
  179.6250  178.3990  142.9990 C   0  0  0  0  0  0  0  0  0  0  0  0
  182.5650  179.3910  140.8060 C   0  0  2  0  0  3  0  0  0  0  0  0
  183.9110  178.9310  141.3310 C   0  0  0  0  0  0  0  0  0  0  0  0
  185.3170  178.0730  143.1010 C   0  0  0  0  0  0  0  0  0  0  0  0
  181.4040  178.6250  141.3730 C   0  0  0  0  0  0  0  0  0  0  0  0
  179.2420  177.1880  142.4130 C   0  0  0  0  0  3  0  0  0  0  0  0
  184.0540  178.4440  142.6370 C   0  0  0  0  0  3  0  0  0  0  0  0
  182.2580  177.9500  138.6390 C   0  0  1  0  0  3  0  0  0  0  0  0
  178.9310  178.8880  144.0970 O   0  0  0  0  0  1  0  0  0  0  0  0
  184.9570  179.5960  139.1990 N   0  0  0  0  0  2  0  0  0  0  0  0
  185.4600  177.5900  144.3580 F   0  0  0  0  0  0  0  0  0  0  0  0
  181.8010  176.8660  139.6340 C   0  0  0  0  0  2  0  0  0  0  0  0
  182.5100  179.3570  139.2650 C   0  0  2  0  0  3  0  0  0  0  0  0
  180.7070  179.1170  142.4810 C   0  0  0  0  0  3  0  0  0  0  0  0
  186.4050  178.1990  142.2950 N   0  0  0  0  0  0  0  0  0  0  0  0
  181.0130  177.4170  140.7770 C   0  0  0  0  0  0  0  0  0  0  0  0
  179.9390  176.6940  141.3050 C   0  0  0  0  0  3  0  0  0  0  0  0
  183.6990  180.1250  138.6750 C   0  0  0  0  0  2  0  0  0  0  0  0
  185.0600  179.0820  140.5300 C   0  0  0  0  0  0  0  0  0  0  0  0
  186.3030  178.6920  141.0320 C   0  0  0  0  0  3  0  0  0  0  0  0
  182.4760  177.7380  135.7810 O   0  0  0  0  0  0  0  0  0  0  0  0
  183.4570  177.3580  136.4750 C   0  0  0  0  0  0  0  0  0  0  0  0
  183.4180  177.4640  137.9010 N   0  0  0  0  0  2  0  0  0  0  0  0
  185.4140  174.2480  137.0130 C   0  0  0  0  0  0  0  0  0  0  0  0
  184.3250  175.4490  135.1140 C   0  0  0  0  0  2  0  0  0  0  0  0
  186.4870  177.6010  137.0980 O   0  0  0  0  0  0  0  0  0  0  0  0
  185.7910  172.9470  137.6240 C   0  0  0  0  0  1  0  0  0  0  0  0
  184.1980  174.3160  136.1340 C   0  0  0  0  0  2  0  0  0  0  0  0
  185.7980  176.6040  136.7590 C   0  0  0  0  0  0  0  0  0  0  0  0
  184.6580  176.7780  135.7970 C   0  0  2  0  0  3  0  0  0  0  0  0
  186.1000  175.3130  137.3050 N   0  0  0  0  0  0  0  0  0  0  0  0
  1  9  1  0  0  0  0
  2  3  1  6  0  0  0
  2  5  1  0  0  0  0
  3  7  1  0  0  0  0
  4 11  1  0  0  0  0
  5 14  2  0  0  0  0
  6  1  2  0  0  0  0
  7  4  2  0  0  0  0
  8 23  1  1  0  0  0
  8 13  1  0  0  0  0
  8 12  1  0  0  0  0
 10 19  1  0  0  0  0
 12 16  1  0  0  0  0
 13 18  1  6  0  0  0
 13  2  1  0  0  0  0
 14  1  1  0  0  0  0
 15  4  1  0  0  0  0
 16 17  2  0  0  0  0
 16  5  1  0  0  0  0
 17  6  1  0  0  0  0
 18 10  1  0  0  0  0
 19 20  1  0  0  0  0
 19  3  2  0  0  0  0
 20 15  2  0  0  0  0
 21 22  2  0  0  0  0
 22 23  1  0  0  0  0
 24 31  2  0  0  0  0
 24 27  1  0  0  0  0
 25 30  1  0  0  0  0
 25 28  1  0  0  0  0
 28 24  1  0  0  0  0
 29 26  2  0  0  0  0
 29 31  1  0  0  0  0
 30 22  1  1  0  0  0
 30 29  1  0  0  0  0
M  END
>  <MODEL>
5

>  <REMARK>
 VINA RESULT:      -6.3      2.865      4.353
  Name = 
  2 active torsions:
  status: ('A' for Active; 'I' for Inactive)
    1  A    between atoms: C_5  and  C_30
    2  A    between atoms: C_10  and  N_16
                            x       y       z     vdW  Elec       q    Type
                         _______ _______ _______ _____ _____    ______ ____

>  <TORSDO>
F 2

$$$$
=
 OpenBabel11122411153D

 31 35  0  0  1  0  0  0  0  0999 V2000
  187.1260  176.3700  136.0140 C   0  0  0  0  0  0  0  0  0  0  0  0
  190.7300  176.8100  137.1360 C   0  0  2  0  0  3  0  0  0  0  0  0
  190.8930  177.0040  138.6310 C   0  0  0  0  0  0  0  0  0  0  0  0
  189.9860  177.4950  140.8180 C   0  0  0  0  0  0  0  0  0  0  0  0
  189.4240  176.1760  136.7510 C   0  0  0  0  0  0  0  0  0  0  0  0
  187.0020  174.9780  136.0310 C   0  0  0  0  0  3  0  0  0  0  0  0
  189.7920  177.2770  139.4530 C   0  0  0  0  0  3  0  0  0  0  0  0
  191.8140  174.4590  136.7290 C   0  0  1  0  0  3  0  0  0  0  0  0
  186.0470  177.1580  135.6400 O   0  0  0  0  0  1  0  0  0  0  0  0
  193.3340  176.7510  138.3860 N   0  0  0  0  0  2  0  0  0  0  0  0
  188.9250  177.7480  141.6190 F   0  0  0  0  0  0  0  0  0  0  0  0
  190.4490  173.9370  137.2170 C   0  0  0  0  0  2  0  0  0  0  0  0
  191.8990  176.0050  136.5330 C   0  0  2  0  0  3  0  0  0  0  0  0
  188.3360  176.9710  136.3760 C   0  0  0  0  0  3  0  0  0  0  0  0
  191.2390  177.4590  141.3440 N   0  0  0  0  0  0  0  0  0  0  0  0
  189.3040  174.7780  136.7560 C   0  0  0  0  0  0  0  0  0  0  0  0
  188.0880  174.1810  136.4060 C   0  0  0  0  0  3  0  0  0  0  0  0
  193.2380  176.6360  136.9330 C   0  0  0  0  0  2  0  0  0  0  0  0
  192.1830  177.0050  139.1970 C   0  0  0  0  0  0  0  0  0  0  0  0
  192.3310  177.2220  140.5680 C   0  0  0  0  0  3  0  0  0  0  0  0
  194.2690  173.2080  135.9090 O   0  0  0  0  0  0  0  0  0  0  0  0
  194.0520  173.3240  137.1450 C   0  0  0  0  0  0  0  0  0  0  0  0
  192.8610  173.9620  137.6140 N   0  0  0  0  0  2  0  0  0  0  0  0
  197.7610  173.4360  137.3240 C   0  0  0  0  0  0  0  0  0  0  0  0
  195.8170  173.8930  138.8220 C   0  0  0  0  0  2  0  0  0  0  0  0
  195.6170  170.6450  137.1940 O   0  0  0  0  0  0  0  0  0  0  0  0
  199.1480  173.7880  136.9250 C   0  0  0  0  0  1  0  0  0  0  0  0
  196.8740  174.5030  137.9000 C   0  0  0  0  0  2  0  0  0  0  0  0
  195.9920  171.8170  137.4550 C   0  0  0  0  0  0  0  0  0  0  0  0
  195.0440  172.7730  138.1210 C   0  0  2  0  0  3  0  0  0  0  0  0
  197.3190  172.2330  137.1020 N   0  0  0  0  0  0  0  0  0  0  0  0
  1  6  2  0  0  0  0
  1 14  1  0  0  0  0
  2  5  1  1  0  0  0
  2  3  1  0  0  0  0
  3 19  2  0  0  0  0
  3  7  1  0  0  0  0
  4 15  1  0  0  0  0
  4 11  1  0  0  0  0
  5 16  1  0  0  0  0
  6 17  1  0  0  0  0
  7  4  2  0  0  0  0
  8 12  1  0  0  0  0
  8 23  1  1  0  0  0
  9  1  1  0  0  0  0
 10 19  1  0  0  0  0
 13  8  1  0  0  0  0
 13 18  1  1  0  0  0
 13  2  1  0  0  0  0
 14  5  2  0  0  0  0
 16 12  1  0  0  0  0
 17 16  2  0  0  0  0
 18 10  1  0  0  0  0
 19 20  1  0  0  0  0
 20 15  2  0  0  0  0
 21 22  2  0  0  0  0
 22 23  1  0  0  0  0
 24 28  1  0  0  0  0
 26 29  2  0  0  0  0
 27 24  1  0  0  0  0
 28 25  1  0  0  0  0
 29 30  1  0  0  0  0
 30 22  1  6  0  0  0
 30 25  1  0  0  0  0
 31 24  2  0  0  0  0
 31 29  1  0  0  0  0
M  END
>  <MODEL>
6

>  <REMARK>
 VINA RESULT:      -6.3      6.809     10.062
  Name = 
  2 active torsions:
  status: ('A' for Active; 'I' for Inactive)
    1  A    between atoms: C_5  and  C_30
    2  A    between atoms: C_10  and  N_16
                            x       y       z     vdW  Elec       q    Type
                         _______ _______ _______ _____ _____    ______ ____

>  <TORSDO>
F 2

$$$$
=
 OpenBabel11122411153D

 31 35  0  0  1  0  0  0  0  0999 V2000
  191.7640  176.8200  138.7180 C   0  0  0  0  0  0  0  0  0  0  0  0
  188.7440  176.8940  136.4120 C   0  0  2  0  0  3  0  0  0  0  0  0
  188.0770  175.5450  136.2230 C   0  0  0  0  0  0  0  0  0  0  0  0
  188.0790  173.1340  136.4030 C   0  0  0  0  0  0  0  0  0  0  0  0
  189.5990  176.9750  137.6440 C   0  0  0  0  0  0  0  0  0  0  0  0
  191.1770  177.1350  139.9480 C   0  0  0  0  0  3  0  0  0  0  0  0
  188.7030  174.3610  136.6360 C   0  0  0  0  0  3  0  0  0  0  0  0
  186.9500  178.2500  137.7560 C   0  0  1  0  0  3  0  0  0  0  0  0
  193.1300  176.5880  138.6400 O   0  0  0  0  0  1  0  0  0  0  0  0
  186.1930  176.6500  135.0780 N   0  0  0  0  0  2  0  0  0  0  0  0
  188.6730  171.9870  136.8110 F   0  0  0  0  0  0  0  0  0  0  0  0
  187.5330  177.4910  138.9640 C   0  0  0  0  0  2  0  0  0  0  0  0
  187.7170  178.0440  136.4130 C   0  0  2  0  0  3  0  0  0  0  0  0
  190.9760  176.7390  137.5660 C   0  0  0  0  0  3  0  0  0  0  0  0
  186.8800  173.0870  135.7650 N   0  0  0  0  0  0  0  0  0  0  0  0
  189.0120  177.3020  138.8750 C   0  0  0  0  0  0  0  0  0  0  0  0
  189.8010  177.3700  140.0280 C   0  0  0  0  0  3  0  0  0  0  0  0
  186.8290  177.9620  135.1660 C   0  0  0  0  0  2  0  0  0  0  0  0
  186.8520  175.4640  135.5340 C   0  0  0  0  0  0  0  0  0  0  0  0
  186.2610  174.2160  135.3290 C   0  0  0  0  0  3  0  0  0  0  0  0
  184.7890  179.5970  139.0920 O   0  0  0  0  0  0  0  0  0  0  0  0
  184.5030  178.6250  138.3430 C   0  0  0  0  0  0  0  0  0  0  0  0
  185.5320  177.9320  137.6310 N   0  0  0  0  0  2  0  0  0  0  0  0
  181.5440  178.9660  140.5610 C   0  0  0  0  0  0  0  0  0  0  0  0
  182.1280  179.3890  138.1720 C   0  0  0  0  0  2  0  0  0  0  0  0
  183.0510  176.0500  139.2840 O   0  0  0  0  0  0  0  0  0  0  0  0
  180.7570  179.3760  141.7530 C   0  0  0  0  0  1  0  0  0  0  0  0
  181.9470  180.0080  139.5590 C   0  0  0  0  0  2  0  0  0  0  0  0
  182.6910  177.2550  139.3280 C   0  0  0  0  0  0  0  0  0  0  0  0
  183.0770  178.1880  138.2170 C   0  0  2  0  0  3  0  0  0  0  0  0
  181.9280  177.7280  140.4460 N   0  0  0  0  0  0  0  0  0  0  0  0
  1  6  1  0  0  0  0
  2  3  1  1  0  0  0
  2 13  1  0  0  0  0
  2  5  1  0  0  0  0
  3  7  1  0  0  0  0
  4  7  2  0  0  0  0
  4 11  1  0  0  0  0
  5 16  2  0  0  0  0
  6 17  2  0  0  0  0
  8 23  1  6  0  0  0
  8 12  1  0  0  0  0
  9  1  1  0  0  0  0
 10 18  1  0  0  0  0
 10 19  1  0  0  0  0
 13 18  1  6  0  0  0
 13  8  1  0  0  0  0
 14  5  1  0  0  0  0
 14  1  2  0  0  0  0
 15  4  1  0  0  0  0
 16 12  1  0  0  0  0
 16 17  1  0  0  0  0
 19  3  2  0  0  0  0
 20 19  1  0  0  0  0
 20 15  2  0  0  0  0
 22 21  2  0  0  0  0
 23 22  1  0  0  0  0
 24 27  1  0  0  0  0
 25 30  1  0  0  0  0
 25 28  1  0  0  0  0
 26 29  2  0  0  0  0
 28 24  1  0  0  0  0
 29 31  1  0  0  0  0
 30 22  1  1  0  0  0
 30 29  1  0  0  0  0
 31 24  2  0  0  0  0
M  END
>  <MODEL>
7

>  <REMARK>
 VINA RESULT:      -6.1      3.682      8.281
  Name = 
  2 active torsions:
  status: ('A' for Active; 'I' for Inactive)
    1  A    between atoms: C_5  and  C_30
    2  A    between atoms: C_10  and  N_16
                            x       y       z     vdW  Elec       q    Type
                         _______ _______ _______ _____ _____    ______ ____

>  <TORSDO>
F 2

$$$$
=
 OpenBabel11122411153D

 31 35  0  0  1  0  0  0  0  0999 V2000
  191.3860  176.7530  138.5140 C   0  0  0  0  0  0  0  0  0  0  0  0
  188.1060  176.6960  136.5960 C   0  0  2  0  0  3  0  0  0  0  0  0
  187.3790  175.3660  136.6530 C   0  0  0  0  0  0  0  0  0  0  0  0
  187.3270  172.9950  137.1240 C   0  0  0  0  0  0  0  0  0  0  0  0
  189.1100  176.8800  137.6970 C   0  0  0  0  0  0  0  0  0  0  0  0
  190.9670  177.2350  139.7580 C   0  0  0  0  0  3  0  0  0  0  0  0
  188.0130  174.2110  137.1290 C   0  0  0  0  0  3  0  0  0  0  0  0
  186.5360  178.2800  137.9710 C   0  0  1  0  0  3  0  0  0  0  0  0
  192.7230  176.4500  138.3020 O   0  0  0  0  0  1  0  0  0  0  0  0
  185.4020  176.4160  135.6170 N   0  0  0  0  0  2  0  0  0  0  0  0
  187.9310  171.8780  137.5940 F   0  0  0  0  0  0  0  0  0  0  0  0
  187.2420  177.6420  139.1830 C   0  0  0  0  0  2  0  0  0  0  0  0
  187.1240  177.8840  136.5800 C   0  0  2  0  0  3  0  0  0  0  0  0
  190.4580  176.5730  137.4830 C   0  0  0  0  0  3  0  0  0  0  0  0
  186.0570  172.9290  136.6440 N   0  0  0  0  0  0  0  0  0  0  0  0
  188.6920  177.3750  138.9410 C   0  0  0  0  0  0  0  0  0  0  0  0
  189.6190  177.5410  139.9740 C   0  0  0  0  0  3  0  0  0  0  0  0
  186.0850  177.6990  135.4680 C   0  0  0  0  0  2  0  0  0  0  0  0
  186.0750  175.2620  136.1320 C   0  0  0  0  0  0  0  0  0  0  0  0
  185.4240  174.0270  136.1510 C   0  0  0  0  0  3  0  0  0  0  0  0
  184.5560  180.0360  139.0930 O   0  0  0  0  0  0  0  0  0  0  0  0
  184.1700  178.9210  138.6500 C   0  0  0  0  0  0  0  0  0  0  0  0
  185.1050  178.0160  138.0560 N   0  0  0  0  0  2  0  0  0  0  0  0
  181.3200  179.0440  136.2720 C   0  0  0  0  0  0  0  0  0  0  0  0
  182.3740  177.3930  137.8180 C   0  0  0  0  0  2  0  0  0  0  0  0
  181.6640  180.5810  139.4220 O   0  0  0  0  0  0  0  0  0  0  0  0
  180.6040  179.2860  134.9920 C   0  0  0  0  0  1  0  0  0  0  0  0
  182.2600  177.8780  136.3720 C   0  0  0  0  0  2  0  0  0  0  0  0
  181.8310  179.7210  138.5180 C   0  0  0  0  0  0  0  0  0  0  0  0
  182.7270  178.5420  138.7660 C   0  0  2  0  0  3  0  0  0  0  0  0
  181.1730  179.8840  137.2540 N   0  0  0  0  0  0  0  0  0  0  0  0
  1  6  1  0  0  0  0
  2  3  1  1  0  0  0
  2  5  1  0  0  0  0
  3  7  1  0  0  0  0
  4  7  2  0  0  0  0
  4 11  1  0  0  0  0
  5 16  2  0  0  0  0
  6 17  2  0  0  0  0
  8 23  1  6  0  0  0
  8 12  1  0  0  0  0
  9  1  1  0  0  0  0
 10 19  1  0  0  0  0
 13 18  1  6  0  0  0
 13  2  1  0  0  0  0
 13  8  1  0  0  0  0
 14  5  1  0  0  0  0
 14  1  2  0  0  0  0
 15  4  1  0  0  0  0
 16 12  1  0  0  0  0
 16 17  1  0  0  0  0
 18 10  1  0  0  0  0
 19 20  1  0  0  0  0
 19  3  2  0  0  0  0
 20 15  2  0  0  0  0
 22 21  2  0  0  0  0
 23 22  1  0  0  0  0
 24 28  1  0  0  0  0
 24 31  2  0  0  0  0
 25 30  1  0  0  0  0
 27 24  1  0  0  0  0
 28 25  1  0  0  0  0
 29 30  1  0  0  0  0
 29 26  2  0  0  0  0
 30 22  1  6  0  0  0
 31 29  1  0  0  0  0
M  END
>  <MODEL>
8

>  <REMARK>
 VINA RESULT:      -6.0      3.671      7.837
  Name = 
  2 active torsions:
  status: ('A' for Active; 'I' for Inactive)
    1  A    between atoms: C_5  and  C_30
    2  A    between atoms: C_10  and  N_16
                            x       y       z     vdW  Elec       q    Type
                         _______ _______ _______ _____ _____    ______ ____

>  <TORSDO>
F 2

$$$$
=
 OpenBabel11122411153D

 31 35  0  0  1  0  0  0  0  0999 V2000
  182.1750  171.3470  136.0700 C   0  0  0  0  0  0  0  0  0  0  0  0
  182.6210  175.1200  136.1890 C   0  0  2  0  0  3  0  0  0  0  0  0
  182.2140  175.7490  137.5070 C   0  0  0  0  0  0  0  0  0  0  0  0
  181.0850  175.6560  139.6430 C   0  0  0  0  0  0  0  0  0  0  0  0
  182.9010  173.6470  136.2870 C   0  0  0  0  0  0  0  0  0  0  0  0
  183.4410  170.9090  136.4690 C   0  0  0  0  0  3  0  0  0  0  0  0
  181.4820  175.0290  138.4610 C   0  0  0  0  0  3  0  0  0  0  0  0
  185.2200  175.4540  136.1590 C   0  0  1  0  0  3  0  0  0  0  0  0
  181.1860  170.4230  135.7630 O   0  0  0  0  0  1  0  0  0  0  0  0
  183.2160  177.8830  136.7840 N   0  0  0  0  0  2  0  0  0  0  0  0
  180.3880  174.9620  140.5740 F   0  0  0  0  0  0  0  0  0  0  0  0
  185.2170  174.2060  137.0620 C   0  0  0  0  0  2  0  0  0  0  0  0
  183.8310  175.8400  135.5610 C   0  0  2  0  0  3  0  0  0  0  0  0
  181.9030  172.7160  135.9800 C   0  0  0  0  0  3  0  0  0  0  0  0
  181.3920  176.9620  139.8600 N   0  0  0  0  0  0  0  0  0  0  0  0
  184.1750  173.2070  136.6750 C   0  0  0  0  0  0  0  0  0  0  0  0
  184.4400  171.8380  136.7770 C   0  0  0  0  0  3  0  0  0  0  0  0
  183.5620  177.3470  135.4700 C   0  0  0  0  0  2  0  0  0  0  0  0
  182.4900  177.1090  137.7440 C   0  0  0  0  0  0  0  0  0  0  0  0
  182.0790  177.6950  138.9430 C   0  0  0  0  0  3  0  0  0  0  0  0
  187.2500  177.2150  135.1390 O   0  0  0  0  0  0  0  0  0  0  0  0
  186.8600  177.3920  136.3240 C   0  0  0  0  0  0  0  0  0  0  0  0
  185.8340  176.5640  136.8790 N   0  0  0  0  0  2  0  0  0  0  0  0
  189.3990  177.3310  139.0340 C   0  0  0  0  0  0  0  0  0  0  0  0
  188.9980  178.5550  136.8960 C   0  0  0  0  0  2  0  0  0  0  0  0
  186.0990  178.5610  139.0960 O   0  0  0  0  0  0  0  0  0  0  0  0
  190.3850  176.7530  139.9830 C   0  0  0  0  0  1  0  0  0  0  0  0
  189.7500  177.4100  137.5760 C   0  0  0  0  0  2  0  0  0  0  0  0
  187.2210  178.2530  138.6170 C   0  0  0  0  0  0  0  0  0  0  0  0
  187.4920  178.4640  137.1550 C   0  0  2  0  0  3  0  0  0  0  0  0
  188.2270  177.6900  139.4700 N   0  0  0  0  0  0  0  0  0  0  0  0
  1  6  1  0  0  0  0
  2  5  1  1  0  0  0
  2  3  1  0  0  0  0
  3 19  2  0  0  0  0
  3  7  1  0  0  0  0
  4 15  1  0  0  0  0
  4 11  1  0  0  0  0
  5 16  2  0  0  0  0
  6 17  2  0  0  0  0
  7  4  2  0  0  0  0
  8 23  1  1  0  0  0
  8 12  1  0  0  0  0
  9  1  1  0  0  0  0
 10 19  1  0  0  0  0
 13 18  1  1  0  0  0
 13  8  1  0  0  0  0
 13  2  1  0  0  0  0
 14  1  2  0  0  0  0
 14  5  1  0  0  0  0
 16 17  1  0  0  0  0
 16 12  1  0  0  0  0
 18 10  1  0  0  0  0
 19 20  1  0  0  0  0
 20 15  2  0  0  0  0
 21 22  2  0  0  0  0
 22 23  1  0  0  0  0
 24 31  2  0  0  0  0
 24 27  1  0  0  0  0
 25 30  1  0  0  0  0
 25 28  1  0  0  0  0
 28 24  1  0  0  0  0
 29 26  2  0  0  0  0
 29 31  1  0  0  0  0
 30 22  1  6  0  0  0
 30 29  1  0  0  0  0
M  END
>  <MODEL>
9

>  <REMARK>
 VINA RESULT:      -6.0      3.732      5.756
  Name = 
  2 active torsions:
  status: ('A' for Active; 'I' for Inactive)
    1  A    between atoms: C_5  and  C_30
    2  A    between atoms: C_10  and  N_16
                            x       y       z     vdW  Elec       q    Type
                         _______ _______ _______ _____ _____    ______ ____

>  <TORSDO>
F 2

$$$$
