=
 OpenBabel11122412103D

 34 41  0  0  1  0  0  0  0  0999 V2000
  186.7590  178.5030  141.0650 C   0  0  0  0  0  0  0  0  0  0  0  0
  185.3640  178.7870  138.9570 C   0  0  0  0  0  2  0  0  0  0  0  0
  187.0980  177.7140  147.7510 C   0  0  2  0  0  3  0  0  0  0  0  0
  187.9090  177.9090  143.1130 C   0  0  0  0  0  0  0  0  0  0  0  0
  186.5810  177.3220  145.2330 C   0  0  1  0  0  3  0  0  0  0  0  0
  186.6350  179.3890  146.5400 O   0  0  0  0  0  0  0  0  0  0  0  0
  187.4490  179.1800  147.6710 C   0  0  0  0  0  2  0  0  0  0  0  0
  189.3840  177.2810  146.5770 C   0  0  0  0  0  2  0  0  0  0  0  0
  184.3630  179.2930  141.1050 C   0  0  2  0  0  3  0  0  0  0  0  0
  181.3970  177.9560  141.4420 C   0  0  0  0  0  2  0  0  0  0  0  0
  185.3760  177.3380  144.2850 C   0  0  0  0  0  2  0  0  0  0  0  0
  189.0580  176.9330  145.1340 C   0  0  0  0  0  2  0  0  0  0  0  0
  184.1860  178.4400  142.3790 C   0  0  1  0  0  3  0  0  0  0  0  0
  183.9160  179.1740  138.7080 C   0  0  0  0  0  2  0  0  0  0  0  0
  187.9190  177.8000  144.6200 C   0  0  1  0  0  3  0  0  0  0  0  0
  188.3040  176.7730  147.5330 C   0  0  0  0  0  2  0  0  0  0  0  0
  182.3350  177.9210  140.2220 C   0  0  1  0  0  3  0  0  0  0  0  0
  186.7270  178.2790  142.4510 C   0  0  0  0  0  0  0  0  0  0  0  0
  186.2340  178.0390  146.5460 C   0  0  2  0  0  3  0  0  0  0  0  0
  185.4550  178.4580  143.2490 C   0  0  2  0  0  3  0  0  0  0  0  0
  189.1070  177.9540  141.0560 C   0  0  0  0  0  3  0  0  0  0  0  0
  181.6860  179.0870  142.4300 C   0  0  0  0  0  2  0  0  0  0  0  0
  189.0650  177.7710  142.4020 N   0  0  0  0  0  0  0  0  0  0  0  0
  182.9800  178.8800  143.2210 C   0  0  0  0  0  2  0  0  0  0  0  0
  183.2280  179.1740  140.0710 C   0  0  1  0  0  3  0  0  0  0  0  0
  187.9540  178.3220  140.3630 C   0  0  0  0  0  3  0  0  0  0  0  0
  185.5610  178.9040  140.3890 N   0  0  0  0  0  0  0  0  0  0  0  0
  183.1000  176.7480  140.2420 O   0  0  0  0  0  0  0  0  0  0  0  0
  182.2840  175.7690  139.6700 C   0  0  0  0  0  2  0  0  0  0  0  0
  183.7330  174.1630  136.9710 C   0  0  0  0  0  2  0  0  0  0  0  0
  181.6410  174.6570  137.5540 C   0  0  0  0  0  2  0  0  0  0  0  0
  182.4580  175.7710  138.1610 C   0  0  2  0  0  3  0  0  0  0  0  0
  182.4020  174.0520  136.5440 O   0  0  0  0  0  0  0  0  0  0  0  0
  183.8700  175.4260  137.7890 C   0  0  0  0  0  2  0  0  0  0  0  0
  1 18  1  0  0  0  0
  2 27  1  0  0  0  0
  3 16  1  6  0  0  0
  4 15  1  0  0  0  0
  5 11  1  6  0  0  0
  5 19  1  0  0  0  0
  6  7  1  0  0  0  0
  7  3  1  0  0  0  0
  8 16  1  0  0  0  0
  9 27  1  6  0  0  0
  9 13  1  0  0  0  0
 10 22  1  0  0  0  0
 12  8  1  0  0  0  0
 13 24  1  1  0  0  0
 13 20  1  0  0  0  0
 14  2  1  0  0  0  0
 15 12  1  6  0  0  0
 15  5  1  0  0  0  0
 17 28  1  1  0  0  0
 17 10  1  0  0  0  0
 18  4  2  0  0  0  0
 18 20  1  0  0  0  0
 19  6  1  6  0  0  0
 19  3  1  0  0  0  0
 20 11  1  1  0  0  0
 21 23  2  0  0  0  0
 22 24  1  0  0  0  0
 23  4  1  0  0  0  0
 25 14  1  6  0  0  0
 25 17  1  0  0  0  0
 25  9  1  0  0  0  0
 26 21  1  0  0  0  0
 26  1  2  0  0  0  0
 27  1  1  0  0  0  0
 29 28  1  0  0  0  0
 30 34  1  0  0  0  0
 31 32  1  0  0  0  0
 32 29  1  1  0  0  0
 33 30  1  0  0  0  0
 33 31  1  0  0  0  0
 34 32  1  0  0  0  0
M  END
>  <MODEL>
1

>  <REMARK>
 VINA RESULT:      -7.9      0.000      0.000
  Name = 
  3 active torsions:
  status: ('A' for Active; 'I' for Inactive)
    1  A    between atoms: C_17  and  O_28
    2  A    between atoms: O_28  and  C_29
    3  A    between atoms: C_29  and  C_32
                            x       y       z     vdW  Elec       q    Type
                         _______ _______ _______ _____ _____    ______ ____

>  <TORSDO>
F 3

$$$$
=
 OpenBabel11122412103D

 34 41  0  0  1  0  0  0  0  0999 V2000
  187.2100  178.1960  139.8000 C   0  0  0  0  0  0  0  0  0  0  0  0
  185.1130  178.7880  138.4880 C   0  0  0  0  0  2  0  0  0  0  0  0
  190.2110  176.9030  145.6960 C   0  0  2  0  0  3  0  0  0  0  0  0
  189.0220  177.3290  141.1570 C   0  0  0  0  0  0  0  0  0  0  0  0
  188.6390  176.7530  143.6310 C   0  0  1  0  0  3  0  0  0  0  0  0
  189.5130  178.7020  144.8220 O   0  0  0  0  0  0  0  0  0  0  0  0
  190.6900  178.3210  145.4960 C   0  0  0  0  0  2  0  0  0  0  0  0
  191.7130  176.2930  143.6570 C   0  0  0  0  0  2  0  0  0  0  0  0
  185.1830  179.2540  140.8660 C   0  0  2  0  0  3  0  0  0  0  0  0
  182.4810  178.2490  142.4110 C   0  0  0  0  0  2  0  0  0  0  0  0
  187.1610  176.9760  143.2850 C   0  0  0  0  0  2  0  0  0  0  0  0
  190.7680  176.0870  142.4830 C   0  0  0  0  0  2  0  0  0  0  0  0
  185.4430  178.3390  142.0810 C   0  0  1  0  0  3  0  0  0  0  0  0
  183.7610  179.3560  138.8840 C   0  0  0  0  0  2  0  0  0  0  0  0
  189.6470  177.1150  142.5150 C   0  0  1  0  0  3  0  0  0  0  0  0
  191.0750  175.8470  144.9730 C   0  0  0  0  0  2  0  0  0  0  0  0
  182.8070  178.1920  140.9070 C   0  0  1  0  0  3  0  0  0  0  0  0
  187.7320  177.8800  141.0650 C   0  0  0  0  0  0  0  0  0  0  0  0
  188.9740  177.4110  144.9780 C   0  0  2  0  0  3  0  0  0  0  0  0
  186.9490  178.1480  142.3300 C   0  0  2  0  0  3  0  0  0  0  0  0
  189.2410  177.3800  138.7870 C   0  0  0  0  0  3  0  0  0  0  0  0
  183.3070  179.2670  143.1990 C   0  0  0  0  0  2  0  0  0  0  0  0
  189.7430  177.1090  140.0210 N   0  0  0  0  0  0  0  0  0  0  0  0
  184.7720  178.8560  143.3620 C   0  0  0  0  0  2  0  0  0  0  0  0
  183.7140  179.3410  140.4090 C   0  0  1  0  0  3  0  0  0  0  0  0
  187.9650  177.9280  138.6540 C   0  0  0  0  0  3  0  0  0  0  0  0
  185.9060  178.7800  139.7020 N   0  0  0  0  0  0  0  0  0  0  0  0
  183.3440  176.9400  140.5830 O   0  0  0  0  0  0  0  0  0  0  0  0
  182.2720  176.2020  140.0750 C   0  0  0  0  0  2  0  0  0  0  0  0
  183.0080  174.2500  137.3170 C   0  0  0  0  0  2  0  0  0  0  0  0
  181.1990  175.3460  138.0150 C   0  0  0  0  0  2  0  0  0  0  0  0
  182.3480  176.1600  138.5590 C   0  0  2  0  0  3  0  0  0  0  0  0
  181.6820  174.5460  136.9700 O   0  0  0  0  0  0  0  0  0  0  0  0
  183.5670  175.4080  138.1090 C   0  0  0  0  0  2  0  0  0  0  0  0
  1 18  1  0  0  0  0
  2 14  1  0  0  0  0
  2 27  1  0  0  0  0
  3 16  1  6  0  0  0
  4 15  1  0  0  0  0
  5 11  1  6  0  0  0
  5 19  1  0  0  0  0
  6  7  1  0  0  0  0
  7  3  1  0  0  0  0
  8 16  1  0  0  0  0
  9 27  1  6  0  0  0
  9 13  1  0  0  0  0
 10 22  1  0  0  0  0
 12  8  1  0  0  0  0
 13 20  1  0  0  0  0
 13 24  1  1  0  0  0
 15 12  1  6  0  0  0
 15  5  1  0  0  0  0
 17 28  1  1  0  0  0
 17 10  1  0  0  0  0
 18  4  2  0  0  0  0
 18 20  1  0  0  0  0
 19  6  1  6  0  0  0
 19  3  1  0  0  0  0
 20 11  1  1  0  0  0
 21 23  2  0  0  0  0
 22 24  1  0  0  0  0
 23  4  1  0  0  0  0
 25 14  1  6  0  0  0
 25  9  1  0  0  0  0
 25 17  1  0  0  0  0
 26 21  1  0  0  0  0
 26  1  2  0  0  0  0
 27  1  1  0  0  0  0
 29 28  1  0  0  0  0
 30 34  1  0  0  0  0
 31 32  1  0  0  0  0
 32 29  1  1  0  0  0
 33 30  1  0  0  0  0
 33 31  1  0  0  0  0
 34 32  1  0  0  0  0
M  END
>  <MODEL>
2

>  <REMARK>
 VINA RESULT:      -7.5      1.600      2.156
  Name = 
  3 active torsions:
  status: ('A' for Active; 'I' for Inactive)
    1  A    between atoms: C_17  and  O_28
    2  A    between atoms: O_28  and  C_29
    3  A    between atoms: C_29  and  C_32
                            x       y       z     vdW  Elec       q    Type
                         _______ _______ _______ _____ _____    ______ ____

>  <TORSDO>
F 3

$$$$
=
 OpenBabel11122412103D

 34 41  0  0  1  0  0  0  0  0999 V2000
  187.1800  178.2810  140.1830 C   0  0  0  0  0  0  0  0  0  0  0  0
  189.5110  177.6040  139.4230 C   0  0  0  0  0  2  0  0  0  0  0  0
  180.6900  179.3980  138.7440 C   0  0  2  0  0  3  0  0  0  0  0  0
  184.8550  178.5880  140.7930 C   0  0  0  0  0  0  0  0  0  0  0  0
  182.9930  178.2330  139.0590 C   0  0  1  0  0  3  0  0  0  0  0  0
  182.4490  180.5000  138.3210 O   0  0  0  0  0  0  0  0  0  0  0  0
  181.1660  180.8290  138.8020 C   0  0  0  0  0  2  0  0  0  0  0  0
  181.1460  179.3260  141.3080 C   0  0  0  0  0  2  0  0  0  0  0  0
  187.9090  178.3570  137.7680 C   0  0  2  0  0  3  0  0  0  0  0  0
  187.7930  176.3860  135.1600 C   0  0  0  0  0  2  0  0  0  0  0  0
  184.1280  177.6650  138.1980 C   0  0  0  0  0  2  0  0  0  0  0  0
  182.4320  178.5350  141.4860 C   0  0  0  0  0  2  0  0  0  0  0  0
  186.4950  177.8530  137.4090 C   0  0  1  0  0  3  0  0  0  0  0  0
  190.1740  177.4940  138.0600 C   0  0  0  0  0  2  0  0  0  0  0  0
  183.4300  178.8850  140.3920 C   0  0  1  0  0  3  0  0  0  0  0  0
  180.3290  178.8070  140.1240 C   0  0  0  0  0  2  0  0  0  0  0  0
  188.7070  176.2940  136.3960 C   0  0  1  0  0  3  0  0  0  0  0  0
  185.8370  178.4280  139.8010 C   0  0  0  0  0  0  0  0  0  0  0  0
  182.0890  179.1430  138.2140 C   0  0  2  0  0  3  0  0  0  0  0  0
  185.4300  178.4500  138.3450 C   0  0  2  0  0  3  0  0  0  0  0  0
  186.5110  178.4230  142.4950 C   0  0  0  0  0  3  0  0  0  0  0  0
  187.1890  177.7710  134.9220 C   0  0  0  0  0  2  0  0  0  0  0  0
  185.2200  178.5950  142.1060 N   0  0  0  0  0  0  0  0  0  0  0  0
  186.1180  178.1460  135.9490 C   0  0  0  0  0  2  0  0  0  0  0  0
  189.0640  177.6610  137.0250 C   0  0  1  0  0  3  0  0  0  0  0  0
  187.5150  178.2620  141.5400 C   0  0  0  0  0  3  0  0  0  0  0  0
  188.1880  178.1420  139.1740 N   0  0  0  0  0  0  0  0  0  0  0  0
  188.1450  175.4270  137.3410 O   0  0  0  0  0  0  0  0  0  0  0  0
  187.3970  174.5110  136.5990 C   0  0  0  0  0  2  0  0  0  0  0  0
  184.2290  173.1700  136.2370 C   0  0  0  0  0  2  0  0  0  0  0  0
  185.9230  172.8160  137.6390 C   0  0  0  0  0  2  0  0  0  0  0  0
  186.0560  174.2730  137.2720 C   0  0  2  0  0  3  0  0  0  0  0  0
  184.6140  172.4060  137.3470 O   0  0  0  0  0  0  0  0  0  0  0  0
  184.9290  174.5070  136.3080 C   0  0  0  0  0  2  0  0  0  0  0  0
  1 26  1  0  0  0  0
  3  7  1  1  0  0  0
  3 16  1  0  0  0  0
  4 23  2  0  0  0  0
  5 11  1  6  0  0  0
  5 15  1  0  0  0  0
  6  7  1  0  0  0  0
  8 12  1  0  0  0  0
  9 27  1  1  0  0  0
 10 17  1  0  0  0  0
 13 24  1  6  0  0  0
 13  9  1  0  0  0  0
 13 20  1  0  0  0  0
 14  2  1  0  0  0  0
 15  4  1  0  0  0  0
 15 12  1  1  0  0  0
 16  8  1  0  0  0  0
 17 25  1  0  0  0  0
 17 28  1  1  0  0  0
 18  1  2  0  0  0  0
 18  4  1  0  0  0  0
 19  6  1  1  0  0  0
 19  3  1  0  0  0  0
 19  5  1  0  0  0  0
 20 11  1  1  0  0  0
 20 18  1  0  0  0  0
 22 10  1  0  0  0  0
 22 24  1  0  0  0  0
 23 21  1  0  0  0  0
 25  9  1  0  0  0  0
 25 14  1  1  0  0  0
 26 21  2  0  0  0  0
 27  2  1  0  0  0  0
 27  1  1  0  0  0  0
 29 28  1  0  0  0  0
 30 34  1  0  0  0  0
 30 33  1  0  0  0  0
 32 29  1  6  0  0  0
 32 31  1  0  0  0  0
 33 31  1  0  0  0  0
 34 32  1  0  0  0  0
M  END
>  <MODEL>
3

>  <REMARK>
 VINA RESULT:      -7.0      3.201      6.629
  Name = 
  3 active torsions:
  status: ('A' for Active; 'I' for Inactive)
    1  A    between atoms: C_17  and  O_28
    2  A    between atoms: O_28  and  C_29
    3  A    between atoms: C_29  and  C_32
                            x       y       z     vdW  Elec       q    Type
                         _______ _______ _______ _____ _____    ______ ____

>  <TORSDO>
F 3

$$$$
=
 OpenBabel11122412103D

 34 41  0  0  1  0  0  0  0  0999 V2000
  186.5420  178.3380  139.5740 C   0  0  0  0  0  0  0  0  0  0  0  0
  188.3500  177.6560  137.9190 C   0  0  0  0  0  2  0  0  0  0  0  0
  180.0180  178.7510  141.2180 C   0  0  2  0  0  3  0  0  0  0  0  0
  184.7280  178.6290  141.1540 C   0  0  0  0  0  0  0  0  0  0  0  0
  182.3590  177.8130  140.5850 C   0  0  1  0  0  3  0  0  0  0  0  0
  181.2090  179.8420  139.8480 O   0  0  0  0  0  0  0  0  0  0  0  0
  180.2500  180.1880  140.8200 C   0  0  0  0  0  2  0  0  0  0  0  0
  181.5890  179.2390  143.2380 C   0  0  0  0  0  2  0  0  0  0  0  0
  186.0800  177.9540  137.1240 C   0  0  2  0  0  3  0  0  0  0  0  0
  185.0920  175.4820  135.2240 C   0  0  0  0  0  2  0  0  0  0  0  0
  183.0520  177.1460  139.3910 C   0  0  0  0  0  2  0  0  0  0  0  0
  182.9180  178.5790  142.9080 C   0  0  0  0  0  2  0  0  0  0  0  0
  184.7490  177.3050  137.5580 C   0  0  1  0  0  3  0  0  0  0  0  0
  188.3320  177.3050  136.4410 C   0  0  0  0  0  2  0  0  0  0  0  0
  183.2490  178.7520  141.4330 C   0  0  1  0  0  3  0  0  0  0  0  0
  180.4130  178.4380  142.6780 C   0  0  0  0  0  2  0  0  0  0  0  0
  186.4680  175.7020  135.8780 C   0  0  1  0  0  3  0  0  0  0  0  0
  185.1660  178.3240  139.8550 C   0  0  0  0  0  0  0  0  0  0  0  0
  181.0470  178.4740  140.1370 C   0  0  2  0  0  3  0  0  0  0  0  0
  184.1470  178.0200  138.7810 C   0  0  2  0  0  3  0  0  0  0  0  0
  186.9780  178.9180  141.8740 C   0  0  0  0  0  3  0  0  0  0  0  0
  184.2470  176.7490  135.0860 C   0  0  0  0  0  2  0  0  0  0  0  0
  185.6420  178.9300  142.1200 N   0  0  0  0  0  0  0  0  0  0  0  0
  183.7140  177.2660  136.4240 C   0  0  0  0  0  2  0  0  0  0  0  0
  186.8640  177.1880  136.0420 C   0  0  1  0  0  3  0  0  0  0  0  0
  187.4530  178.6210  140.5970 C   0  0  0  0  0  3  0  0  0  0  0  0
  186.9930  178.0530  138.2450 N   0  0  0  0  0  0  0  0  0  0  0  0
  186.5300  175.0190  137.0990 O   0  0  0  0  0  0  0  0  0  0  0  0
  187.2970  173.8800  136.8430 C   0  0  0  0  0  2  0  0  0  0  0  0
  184.1550  172.4580  137.0980 C   0  0  0  0  0  2  0  0  0  0  0  0
  186.0130  171.9460  135.9830 C   0  0  0  0  0  2  0  0  0  0  0  0
  186.5170  172.6360  137.2270 C   0  0  2  0  0  3  0  0  0  0  0  0
  184.7020  171.5120  136.2190 O   0  0  0  0  0  0  0  0  0  0  0  0
  185.2640  173.0020  137.9680 C   0  0  0  0  0  2  0  0  0  0  0  0
  1 18  2  0  0  0  0
  1 26  1  0  0  0  0
  2 27  1  0  0  0  0
  3  7  1  1  0  0  0
  3 16  1  0  0  0  0
  4 15  1  0  0  0  0
  4 23  2  0  0  0  0
  5 11  1  6  0  0  0
  5 15  1  0  0  0  0
  6  7  1  0  0  0  0
  9 13  1  0  0  0  0
  9 27  1  1  0  0  0
 10 17  1  0  0  0  0
 12  8  1  0  0  0  0
 13 24  1  6  0  0  0
 13 20  1  0  0  0  0
 14  2  1  0  0  0  0
 15 12  1  1  0  0  0
 16  8  1  0  0  0  0
 17 25  1  0  0  0  0
 17 28  1  1  0  0  0
 18  4  1  0  0  0  0
 19  6  1  1  0  0  0
 19  5  1  0  0  0  0
 19  3  1  0  0  0  0
 20 11  1  1  0  0  0
 20 18  1  0  0  0  0
 21 23  1  0  0  0  0
 22 10  1  0  0  0  0
 22 24  1  0  0  0  0
 25 14  1  1  0  0  0
 25  9  1  0  0  0  0
 26 21  2  0  0  0  0
 27  1  1  0  0  0  0
 29 28  1  0  0  0  0
 30 34  1  0  0  0  0
 31 33  1  0  0  0  0
 31 32  1  0  0  0  0
 32 29  1  6  0  0  0
 32 34  1  0  0  0  0
 33 30  1  0  0  0  0
M  END
>  <MODEL>
4

>  <REMARK>
 VINA RESULT:      -6.8      3.333      5.931
  Name = 
  3 active torsions:
  status: ('A' for Active; 'I' for Inactive)
    1  A    between atoms: C_17  and  O_28
    2  A    between atoms: O_28  and  C_29
    3  A    between atoms: C_29  and  C_32
                            x       y       z     vdW  Elec       q    Type
                         _______ _______ _______ _____ _____    ______ ____

>  <TORSDO>
F 3

$$$$
=
 OpenBabel11122412103D

 34 41  0  0  1  0  0  0  0  0999 V2000
  185.9990  178.6000  140.8760 C   0  0  0  0  0  0  0  0  0  0  0  0
  184.6740  178.6700  138.7060 C   0  0  0  0  0  2  0  0  0  0  0  0
  186.1210  178.4400  147.6140 C   0  0  2  0  0  3  0  0  0  0  0  0
  187.0850  178.2130  143.0070 C   0  0  0  0  0  0  0  0  0  0  0  0
  185.6920  177.8100  145.1270 C   0  0  1  0  0  3  0  0  0  0  0  0
  185.6830  179.9900  146.2380 O   0  0  0  0  0  0  0  0  0  0  0  0
  186.4600  179.8970  147.4090 C   0  0  0  0  0  2  0  0  0  0  0  0
  188.4480  177.9290  146.5610 C   0  0  0  0  0  2  0  0  0  0  0  0
  183.5960  179.3610  140.7640 C   0  0  2  0  0  3  0  0  0  0  0  0
  180.6330  178.0250  141.1270 C   0  0  0  0  0  2  0  0  0  0  0  0
  184.5190  177.7230  144.1430 C   0  0  0  0  0  2  0  0  0  0  0  0
  188.1740  177.4440  145.1460 C   0  0  0  0  0  2  0  0  0  0  0  0
  183.3850  178.6280  142.1050 C   0  0  1  0  0  3  0  0  0  0  0  0
  183.2310  179.0140  138.3750 C   0  0  0  0  0  2  0  0  0  0  0  0
  187.0450  178.2450  144.5170 C   0  0  1  0  0  3  0  0  0  0  0  0
  187.3410  177.4990  147.5240 C   0  0  0  0  0  2  0  0  0  0  0  0
  181.6120  177.8890  139.9470 C   0  0  1  0  0  3  0  0  0  0  0  0
  185.9220  178.5050  142.2750 C   0  0  0  0  0  0  0  0  0  0  0  0
  185.2950  178.6420  146.3570 C   0  0  2  0  0  3  0  0  0  0  0  0
  184.6230  178.7420  143.0110 C   0  0  2  0  0  3  0  0  0  0  0  0
  188.3510  178.0820  140.9950 C   0  0  0  0  0  3  0  0  0  0  0  0
  180.8780  179.2470  142.0140 C   0  0  0  0  0  2  0  0  0  0  0  0
  188.2650  178.0250  142.3500 N   0  0  0  0  0  0  0  0  0  0  0  0
  182.1460  179.1300  142.8630 C   0  0  0  0  0  2  0  0  0  0  0  0
  182.4980  179.1330  139.7080 C   0  0  1  0  0  3  0  0  0  0  0  0
  187.2190  178.3700  140.2330 C   0  0  0  0  0  3  0  0  0  0  0  0
  184.8220  178.9220  140.1260 N   0  0  0  0  0  0  0  0  0  0  0  0
  182.3860  176.7320  140.1010 O   0  0  0  0  0  0  0  0  0  0  0  0
  182.1500  175.9770  138.9500 C   0  0  0  0  0  2  0  0  0  0  0  0
  179.8680  173.5600  137.9930 C   0  0  0  0  0  2  0  0  0  0  0  0
  180.3500  174.5770  139.9150 C   0  0  0  0  0  2  0  0  0  0  0  0
  180.6780  175.6110  138.8660 C   0  0  2  0  0  3  0  0  0  0  0  0
  179.4940  173.6260  139.3430 O   0  0  0  0  0  0  0  0  0  0  0  0
  180.3760  174.9180  137.5700 C   0  0  0  0  0  2  0  0  0  0  0  0
  1 18  1  0  0  0  0
  2 27  1  0  0  0  0
  3  7  1  6  0  0  0
  4 15  1  0  0  0  0
  5 11  1  6  0  0  0
  5 19  1  0  0  0  0
  6  7  1  0  0  0  0
  8 16  1  0  0  0  0
  9 27  1  6  0  0  0
  9 13  1  0  0  0  0
 10 22  1  0  0  0  0
 12  8  1  0  0  0  0
 13 24  1  1  0  0  0
 13 20  1  0  0  0  0
 14  2  1  0  0  0  0
 15  5  1  0  0  0  0
 15 12  1  1  0  0  0
 16  3  1  0  0  0  0
 17 28  1  1  0  0  0
 17 10  1  0  0  0  0
 18  4  2  0  0  0  0
 18 20  1  0  0  0  0
 19  6  1  6  0  0  0
 19  3  1  0  0  0  0
 20 11  1  1  0  0  0
 21 23  2  0  0  0  0
 22 24  1  0  0  0  0
 23  4  1  0  0  0  0
 25 14  1  6  0  0  0
 25 17  1  0  0  0  0
 25  9  1  0  0  0  0
 26  1  2  0  0  0  0
 26 21  1  0  0  0  0
 27  1  1  0  0  0  0
 29 28  1  0  0  0  0
 30 33  1  0  0  0  0
 32 29  1  6  0  0  0
 32 31  1  0  0  0  0
 33 31  1  0  0  0  0
 34 30  1  0  0  0  0
 34 32  1  0  0  0  0
M  END
>  <MODEL>
5

>  <REMARK>
 VINA RESULT:      -6.8      1.281      1.549
  Name = 
  3 active torsions:
  status: ('A' for Active; 'I' for Inactive)
    1  A    between atoms: C_17  and  O_28
    2  A    between atoms: O_28  and  C_29
    3  A    between atoms: C_29  and  C_32
                            x       y       z     vdW  Elec       q    Type
                         _______ _______ _______ _____ _____    ______ ____

>  <TORSDO>
F 3

$$$$
=
 OpenBabel11122412103D

 34 41  0  0  1  0  0  0  0  0999 V2000
  187.2410  178.2320  140.6910 C   0  0  0  0  0  0  0  0  0  0  0  0
  189.6370  177.5980  140.1220 C   0  0  0  0  0  2  0  0  0  0  0  0
  180.9300  179.5040  138.6920 C   0  0  2  0  0  3  0  0  0  0  0  0
  184.8660  178.5100  141.0850 C   0  0  0  0  0  0  0  0  0  0  0  0
  183.1900  178.3010  139.1490 C   0  0  1  0  0  3  0  0  0  0  0  0
  182.7220  180.6220  138.5340 O   0  0  0  0  0  0  0  0  0  0  0  0
  181.3970  180.9230  138.9070 C   0  0  0  0  0  2  0  0  0  0  0  0
  181.1230  179.2340  141.2760 C   0  0  0  0  0  2  0  0  0  0  0  0
  188.2110  178.4860  138.3760 C   0  0  2  0  0  3  0  0  0  0  0  0
  188.3610  176.7190  135.6270 C   0  0  0  0  0  2  0  0  0  0  0  0
  184.4060  177.7910  138.3670 C   0  0  0  0  0  2  0  0  0  0  0  0
  182.3850  178.4220  141.5230 C   0  0  0  0  0  2  0  0  0  0  0  0
  186.8410  178.0210  137.8380 C   0  0  1  0  0  3  0  0  0  0  0  0
  190.4350  177.5870  138.8290 C   0  0  0  0  0  2  0  0  0  0  0  0
  183.4880  178.8470  140.5650 C   0  0  1  0  0  3  0  0  0  0  0  0
  180.4310  178.8120  139.9800 C   0  0  0  0  0  2  0  0  0  0  0  0
  189.1440  176.5280  136.9380 C   0  0  1  0  0  3  0  0  0  0  0  0
  185.9430  178.4180  140.1880 C   0  0  0  0  0  0  0  0  0  0  0  0
  182.3760  179.2800  138.2890 C   0  0  2  0  0  3  0  0  0  0  0  0
  185.6860  178.5530  138.7040 C   0  0  2  0  0  3  0  0  0  0  0  0
  186.3410  178.2040  142.9280 C   0  0  0  0  0  3  0  0  0  0  0  0
  187.7840  178.1230  135.4350 C   0  0  0  0  0  2  0  0  0  0  0  0
  185.0960  178.4150  142.4250 N   0  0  0  0  0  0  0  0  0  0  0  0
  186.6140  178.4270  136.3740 C   0  0  0  0  0  2  0  0  0  0  0  0
  189.4360  177.8390  137.7030 C   0  0  1  0  0  3  0  0  0  0  0  0
  187.4360  178.1080  142.0700 C   0  0  0  0  0  3  0  0  0  0  0  0
  188.3460  178.1630  139.7830 N   0  0  0  0  0  0  0  0  0  0  0  0
  188.4900  175.5960  137.7530 O   0  0  0  0  0  0  0  0  0  0  0  0
  187.9140  174.6780  136.8710 C   0  0  0  0  0  2  0  0  0  0  0  0
  188.0390  171.4160  135.7290 C   0  0  0  0  0  2  0  0  0  0  0  0
  189.4320  173.1520  135.6490 C   0  0  0  0  0  2  0  0  0  0  0  0
  188.6670  173.3610  136.9330 C   0  0  2  0  0  3  0  0  0  0  0  0
  189.3070  171.8070  135.2760 O   0  0  0  0  0  0  0  0  0  0  0  0
  187.7110  172.2040  136.9760 C   0  0  0  0  0  2  0  0  0  0  0  0
  1 26  1  0  0  0  0
  3  7  1  1  0  0  0
  3 16  1  0  0  0  0
  4 23  2  0  0  0  0
  5 11  1  6  0  0  0
  5 15  1  0  0  0  0
  6  7  1  0  0  0  0
  8 12  1  0  0  0  0
  9 27  1  1  0  0  0
 10 17  1  0  0  0  0
 13 24  1  6  0  0  0
 13  9  1  0  0  0  0
 13 20  1  0  0  0  0
 14  2  1  0  0  0  0
 15  4  1  0  0  0  0
 15 12  1  1  0  0  0
 16  8  1  0  0  0  0
 17 25  1  0  0  0  0
 17 28  1  1  0  0  0
 18  1  2  0  0  0  0
 18  4  1  0  0  0  0
 19  6  1  1  0  0  0
 19  3  1  0  0  0  0
 19  5  1  0  0  0  0
 20 11  1  6  0  0  0
 20 18  1  0  0  0  0
 22 10  1  0  0  0  0
 22 24  1  0  0  0  0
 23 21  1  0  0  0  0
 25  9  1  0  0  0  0
 25 14  1  1  0  0  0
 26 21  2  0  0  0  0
 27  2  1  0  0  0  0
 27  1  1  0  0  0  0
 29 28  1  0  0  0  0
 30 34  1  0  0  0  0
 31 32  1  0  0  0  0
 32 29  1  6  0  0  0
 32 34  1  0  0  0  0
 33 31  1  0  0  0  0
 33 30  1  0  0  0  0
M  END
>  <MODEL>
6

>  <REMARK>
 VINA RESULT:      -6.4      3.307      6.949
  Name = 
  3 active torsions:
  status: ('A' for Active; 'I' for Inactive)
    1  A    between atoms: C_17  and  O_28
    2  A    between atoms: O_28  and  C_29
    3  A    between atoms: C_29  and  C_32
                            x       y       z     vdW  Elec       q    Type
                         _______ _______ _______ _____ _____    ______ ____

>  <TORSDO>
F 3

$$$$
=
 OpenBabel11122412103D

 34 41  0  0  1  0  0  0  0  0999 V2000
  185.7950  177.1070  136.9750 C   0  0  0  0  0  0  0  0  0  0  0  0
  187.5790  178.8770  137.3690 C   0  0  0  0  0  2  0  0  0  0  0  0
  184.1230  170.6470  136.0200 C   0  0  2  0  0  3  0  0  0  0  0  0
  184.2140  175.2710  136.9190 C   0  0  0  0  0  0  0  0  0  0  0  0
  185.0300  172.8410  137.0810 C   0  0  1  0  0  3  0  0  0  0  0  0
  185.0430  172.0770  134.7570 O   0  0  0  0  0  0  0  0  0  0  0  0
  184.0130  171.1300  134.5940 C   0  0  0  0  0  2  0  0  0  0  0  0
  182.0540  172.1520  136.5060 C   0  0  0  0  0  2  0  0  0  0  0  0
  188.2330  176.7360  136.4400 C   0  0  2  0  0  3  0  0  0  0  0  0
  190.8570  175.4790  137.9340 C   0  0  0  0  0  2  0  0  0  0  0  0
  186.3780  173.4880  137.4220 C   0  0  0  0  0  2  0  0  0  0  0  0
  182.5830  173.3760  137.2370 C   0  0  0  0  0  2  0  0  0  0  0  0
  188.0450  175.2950  136.9580 C   0  0  1  0  0  3  0  0  0  0  0  0
  189.0890  178.8910  137.2020 C   0  0  0  0  0  2  0  0  0  0  0  0
  183.9130  173.8170  136.6430 C   0  0  1  0  0  3  0  0  0  0  0  0
  182.8530  170.8980  136.8610 C   0  0  0  0  0  2  0  0  0  0  0  0
  190.1640  176.8310  138.1820 C   0  0  1  0  0  3  0  0  0  0  0  0
  185.5390  175.7320  136.8450 C   0  0  0  0  0  0  0  0  0  0  0  0
  185.2320  171.6800  136.0940 C   0  0  2  0  0  3  0  0  0  0  0  0
  186.6550  174.7430  136.5970 C   0  0  2  0  0  3  0  0  0  0  0  0
  183.4340  177.4920  137.2750 C   0  0  0  0  0  3  0  0  0  0  0  0
  190.5610  174.8590  136.5670 C   0  0  0  0  0  2  0  0  0  0  0  0
  183.2010  176.1620  137.1160 N   0  0  0  0  0  0  0  0  0  0  0  0
  189.1290  174.3360  136.4410 C   0  0  0  0  0  2  0  0  0  0  0  0
  189.5080  177.4500  136.9260 C   0  0  1  0  0  3  0  0  0  0  0  0
  184.7350  177.9880  137.2080 C   0  0  0  0  0  3  0  0  0  0  0  0
  187.1420  177.5840  136.8770 N   0  0  0  0  0  0  0  0  0  0  0  0
  189.2440  176.7100  139.2320 O   0  0  0  0  0  0  0  0  0  0  0  0
  190.0200  176.6300  140.3910 C   0  0  0  0  0  2  0  0  0  0  0  0
  187.4510  177.8390  142.3660 C   0  0  0  0  0  2  0  0  0  0  0  0
  189.5280  177.1410  142.7620 C   0  0  0  0  0  2  0  0  0  0  0  0
  189.5990  177.7140  141.3680 C   0  0  2  0  0  3  0  0  0  0  0  0
  188.3880  177.6570  143.3930 O   0  0  0  0  0  0  0  0  0  0  0  0
  188.1940  178.1630  141.0910 C   0  0  0  0  0  2  0  0  0  0  0  0
  1 26  1  0  0  0  0
  3  7  1  6  0  0  0
  3 19  1  0  0  0  0
  3 16  1  0  0  0  0
  4 23  2  0  0  0  0
  5 11  1  6  0  0  0
  7  6  1  0  0  0  0
  8 16  1  0  0  0  0
  8 12  1  0  0  0  0
  9 27  1  1  0  0  0
  9 25  1  0  0  0  0
  9 13  1  0  0  0  0
 10 17  1  0  0  0  0
 13 24  1  6  0  0  0
 14  2  1  0  0  0  0
 15  4  1  0  0  0  0
 15  5  1  0  0  0  0
 15 12  1  1  0  0  0
 17 28  1  1  0  0  0
 18  4  1  0  0  0  0
 18  1  2  0  0  0  0
 19  6  1  6  0  0  0
 19  5  1  0  0  0  0
 20 18  1  0  0  0  0
 20 13  1  0  0  0  0
 20 11  1  1  0  0  0
 22 10  1  0  0  0  0
 23 21  1  0  0  0  0
 24 22  1  0  0  0  0
 25 14  1  1  0  0  0
 25 17  1  0  0  0  0
 26 21  2  0  0  0  0
 27  1  1  0  0  0  0
 27  2  1  0  0  0  0
 28 29  1  0  0  0  0
 30 33  1  0  0  0  0
 31 33  1  0  0  0  0
 32 29  1  6  0  0  0
 32 31  1  0  0  0  0
 34 32  1  0  0  0  0
 34 30  1  0  0  0  0
M  END
>  <MODEL>
7

>  <REMARK>
 VINA RESULT:      -6.4      3.527      9.212
  Name = 
  3 active torsions:
  status: ('A' for Active; 'I' for Inactive)
    1  A    between atoms: C_17  and  O_28
    2  A    between atoms: O_28  and  C_29
    3  A    between atoms: C_29  and  C_32
                            x       y       z     vdW  Elec       q    Type
                         _______ _______ _______ _____ _____    ______ ____

>  <TORSDO>
F 3

$$$$
=
 OpenBabel11122412103D

 34 41  0  0  1  0  0  0  0  0999 V2000
  183.9050  178.5470  141.0860 C   0  0  0  0  0  0  0  0  0  0  0  0
  181.4440  179.0180  141.5270 C   0  0  0  0  0  2  0  0  0  0  0  0
  188.8530  177.0330  136.7660 C   0  0  2  0  0  3  0  0  0  0  0  0
  186.2360  178.3930  140.4400 C   0  0  0  0  0  0  0  0  0  0  0  0
  186.8960  178.2600  137.9620 C   0  0  1  0  0  3  0  0  0  0  0  0
  187.2860  175.8730  137.5930 O   0  0  0  0  0  0  0  0  0  0  0  0
  188.6660  175.6730  137.3930 C   0  0  0  0  0  2  0  0  0  0  0  0
  189.7540  177.7880  139.0910 C   0  0  0  0  0  2  0  0  0  0  0  0
  182.0710  177.8390  139.5050 C   0  0  2  0  0  3  0  0  0  0  0  0
  180.5880  179.0460  136.8510 C   0  0  0  0  0  2  0  0  0  0  0  0
  185.4180  178.5890  137.7180 C   0  0  0  0  0  2  0  0  0  0  0  0
  188.6440  178.6080  139.7280 C   0  0  0  0  0  2  0  0  0  0  0  0
  183.0270  178.2170  138.3540 C   0  0  1  0  0  3  0  0  0  0  0  0
  180.1750  178.7670  140.7310 C   0  0  0  0  0  2  0  0  0  0  0  0
  187.2860  177.9890  139.4340 C   0  0  1  0  0  3  0  0  0  0  0  0
  189.7810  177.9670  137.5730 C   0  0  0  0  0  2  0  0  0  0  0  0
  180.4240  179.4700  138.3210 C   0  0  1  0  0  3  0  0  0  0  0  0
  184.8750  178.2930  140.1030 C   0  0  0  0  0  0  0  0  0  0  0  0
  187.3590  177.1500  137.0050 C   0  0  2  0  0  3  0  0  0  0  0  0
  184.4870  177.8820  138.7010 C   0  0  2  0  0  3  0  0  0  0  0  0
  185.6650  179.0180  142.6650 C   0  0  0  0  0  3  0  0  0  0  0  0
  181.1650  177.6420  136.6580 C   0  0  0  0  0  2  0  0  0  0  0  0
  186.5910  178.7380  141.7110 N   0  0  0  0  0  0  0  0  0  0  0  0
  182.6470  177.5440  137.0260 C   0  0  0  0  0  2  0  0  0  0  0  0
  180.6180  178.3230  139.3400 C   0  0  1  0  0  3  0  0  0  0  0  0
  184.3050  178.9290  142.3700 C   0  0  0  0  0  3  0  0  0  0  0  0
  182.5170  178.4220  140.7550 N   0  0  0  0  0  0  0  0  0  0  0  0
  181.2670  180.5520  138.6030 O   0  0  0  0  0  0  0  0  0  0  0  0
  180.4860  181.6900  138.3890 C   0  0  0  0  0  2  0  0  0  0  0  0
  180.9550  184.9620  137.3710 C   0  0  0  0  0  2  0  0  0  0  0  0
  182.3100  183.3260  138.0390 C   0  0  0  0  0  2  0  0  0  0  0  0
  181.1640  182.5990  137.3800 C   0  0  2  0  0  3  0  0  0  0  0  0
  182.3050  184.6540  137.5930 O   0  0  0  0  0  0  0  0  0  0  0  0
  180.2390  183.7000  136.9510 C   0  0  0  0  0  2  0  0  0  0  0  0
  1 26  1  0  0  0  0
  3 19  1  0  0  0  0
  3  7  1  1  0  0  0
  3 16  1  0  0  0  0
  4 23  2  0  0  0  0
  5 11  1  1  0  0  0
  5 15  1  0  0  0  0
  7  6  1  0  0  0  0
  8 12  1  0  0  0  0
  9 27  1  1  0  0  0
 10 17  1  0  0  0  0
 13 24  1  6  0  0  0
 13 20  1  0  0  0  0
 13  9  1  0  0  0  0
 14  2  1  0  0  0  0
 15 12  1  1  0  0  0
 15  4  1  0  0  0  0
 16  8  1  0  0  0  0
 17 28  1  1  0  0  0
 17 25  1  0  0  0  0
 18  4  1  0  0  0  0
 18  1  2  0  0  0  0
 19  6  1  1  0  0  0
 19  5  1  0  0  0  0
 20 11  1  6  0  0  0
 20 18  1  0  0  0  0
 22 10  1  0  0  0  0
 22 24  1  0  0  0  0
 23 21  1  0  0  0  0
 25  9  1  0  0  0  0
 25 14  1  1  0  0  0
 26 21  2  0  0  0  0
 27  1  1  0  0  0  0
 27  2  1  0  0  0  0
 29 28  1  0  0  0  0
 30 33  1  0  0  0  0
 32 31  1  0  0  0  0
 32 29  1  1  0  0  0
 33 31  1  0  0  0  0
 34 30  1  0  0  0  0
 34 32  1  0  0  0  0
M  END
>  <MODEL>
8

>  <REMARK>
 VINA RESULT:      -6.4      3.448      6.722
  Name = 
  3 active torsions:
  status: ('A' for Active; 'I' for Inactive)
    1  A    between atoms: C_17  and  O_28
    2  A    between atoms: O_28  and  C_29
    3  A    between atoms: C_29  and  C_32
                            x       y       z     vdW  Elec       q    Type
                         _______ _______ _______ _____ _____    ______ ____

>  <TORSDO>
F 3

$$$$
=
 OpenBabel11122412103D

 34 41  0  0  1  0  0  0  0  0999 V2000
  184.0740  178.5690  141.2010 C   0  0  0  0  0  0  0  0  0  0  0  0
  182.3220  179.2250  142.9240 C   0  0  0  0  0  2  0  0  0  0  0  0
  185.6130  176.4540  134.9880 C   0  0  2  0  0  3  0  0  0  0  0  0
  185.6060  178.2220  139.3550 C   0  0  0  0  0  0  0  0  0  0  0  0
  184.7190  177.8810  136.9690 C   0  0  1  0  0  3  0  0  0  0  0  0
  184.7910  175.4550  136.6650 O   0  0  0  0  0  0  0  0  0  0  0  0
  185.8020  175.1530  135.7310 C   0  0  0  0  0  2  0  0  0  0  0  0
  187.6980  177.3030  136.2980 C   0  0  0  0  0  2  0  0  0  0  0  0
  181.6540  177.8760  141.0250 C   0  0  2  0  0  3  0  0  0  0  0  0
  178.9320  178.9950  139.5990 C   0  0  0  0  0  2  0  0  0  0  0  0
  183.3740  178.2870  137.5860 C   0  0  0  0  0  2  0  0  0  0  0  0
  187.1690  178.2340  137.3780 C   0  0  0  0  0  2  0  0  0  0  0  0
  181.7790  178.1140  139.5060 C   0  0  1  0  0  3  0  0  0  0  0  0
  180.8220  179.0040  143.0240 C   0  0  0  0  0  2  0  0  0  0  0  0
  185.8810  177.6840  137.9710 C   0  0  1  0  0  3  0  0  0  0  0  0
  186.8500  177.3770  135.0290 C   0  0  0  0  0  2  0  0  0  0  0  0
  179.6490  179.5260  140.8530 C   0  0  1  0  0  3  0  0  0  0  0  0
  184.2990  178.1870  139.8680 C   0  0  0  0  0  0  0  0  0  0  0  0
  184.5310  176.6820  136.0270 C   0  0  2  0  0  3  0  0  0  0  0  0
  183.1690  177.7090  138.9850 C   0  0  2  0  0  3  0  0  0  0  0  0
  186.4290  179.0300  141.4380 C   0  0  0  0  0  3  0  0  0  0  0  0
  179.2730  177.5470  139.2410 C   0  0  0  0  0  2  0  0  0  0  0  0
  186.6330  178.6280  140.1560 N   0  0  0  0  0  0  0  0  0  0  0  0
  180.6950  177.3790  138.7030 C   0  0  0  0  0  2  0  0  0  0  0  0
  180.3780  178.4400  141.6770 C   0  0  1  0  0  3  0  0  0  0  0  0
  185.1460  179.0090  141.9840 C   0  0  0  0  0  3  0  0  0  0  0  0
  182.7470  178.5110  141.7360 N   0  0  0  0  0  0  0  0  0  0  0  0
  180.5160  180.5680  140.5010 O   0  0  0  0  0  0  0  0  0  0  0  0
  179.8810  181.2330  139.4500 C   0  0  0  0  0  2  0  0  0  0  0  0
  180.4690  181.8700  136.1010 C   0  0  0  0  0  2  0  0  0  0  0  0
  180.5980  183.0810  137.9660 C   0  0  0  0  0  2  0  0  0  0  0  0
  180.9090  181.6770  138.4240 C   0  0  2  0  0  3  0  0  0  0  0  0
  180.7970  183.1470  136.5810 O   0  0  0  0  0  0  0  0  0  0  0  0
  180.7990  180.8570  137.1720 C   0  0  0  0  0  2  0  0  0  0  0  0
  1 27  1  0  0  0  0
  1 26  1  0  0  0  0
  2 14  1  0  0  0  0
  3 16  1  1  0  0  0
  3  7  1  0  0  0  0
  3 19  1  0  0  0  0
  4 18  1  0  0  0  0
  4 23  2  0  0  0  0
  5 11  1  1  0  0  0
  5 15  1  0  0  0  0
  7  6  1  0  0  0  0
  8 12  1  0  0  0  0
  9 25  1  0  0  0  0
  9 27  1  1  0  0  0
 10 17  1  0  0  0  0
 13 24  1  6  0  0  0
 13  9  1  0  0  0  0
 15 12  1  6  0  0  0
 15  4  1  0  0  0  0
 16  8  1  0  0  0  0
 17 28  1  6  0  0  0
 17 25  1  0  0  0  0
 18  1  2  0  0  0  0
 19  6  1  1  0  0  0
 19  5  1  0  0  0  0
 20 11  1  6  0  0  0
 20 13  1  0  0  0  0
 20 18  1  0  0  0  0
 21 26  2  0  0  0  0
 22 10  1  0  0  0  0
 23 21  1  0  0  0  0
 24 22  1  0  0  0  0
 25 14  1  1  0  0  0
 27  2  1  0  0  0  0
 29 28  1  0  0  0  0
 30 33  1  0  0  0  0
 30 34  1  0  0  0  0
 31 32  1  0  0  0  0
 32 29  1  1  0  0  0
 33 31  1  0  0  0  0
 34 32  1  0  0  0  0
M  END
>  <MODEL>
9

>  <REMARK>
 VINA RESULT:      -6.4      3.527      7.039
  Name = 
  3 active torsions:
  status: ('A' for Active; 'I' for Inactive)
    1  A    between atoms: C_17  and  O_28
    2  A    between atoms: O_28  and  C_29
    3  A    between atoms: C_29  and  C_32
                            x       y       z     vdW  Elec       q    Type
                         _______ _______ _______ _____ _____    ______ ____

>  <TORSDO>
F 3

$$$$
