=
 OpenBabel11122410413D

 32 38  0  0  1  0  0  0  0  0999 V2000
  188.9070  177.9200  147.8130 C   0  0  1  0  0  3  0  0  0  0  0  0
  186.3150  178.1430  143.3420 C   0  0  0  0  0  0  0  0  0  0  0  0
  189.7330  177.8370  139.9410 C   0  0  0  0  0  3  0  0  0  0  0  0
  188.7860  178.0950  138.9540 C   0  0  0  0  0  3  0  0  0  0  0  0
  183.9460  178.5900  142.6630 C   0  0  0  0  0  0  0  0  0  0  0  0
  183.0670  178.8370  141.6200 C   0  0  0  0  0  0  0  0  0  0  0  0
  186.9430  177.5260  145.7020 C   0  0  1  0  0  3  0  0  0  0  0  0
  188.6670  177.5730  143.9680 C   0  0  0  0  0  2  0  0  0  0  0  0
  182.3620  179.1440  139.5970 C   0  0  0  0  0  0  0  0  0  0  0  0
  189.4170  177.7150  146.3870 C   0  0  2  0  0  3  0  0  0  0  0  0
  189.3450  177.7850  141.2780 C   0  0  0  0  0  3  0  0  0  0  0  0
  187.6330  177.9430  142.9770 N   0  0  0  0  0  0  0  0  0  0  0  0
  188.0030  177.9900  141.6590 C   0  0  0  0  0  0  0  0  0  0  0  0
  185.7280  178.4440  141.0050 N   0  0  0  0  0  0  0  0  0  0  0  0
  181.3070  179.2400  140.4370 N   0  0  0  0  0  0  0  0  0  0  0  0
  187.4300  178.3810  147.8420 C   0  0  0  0  0  2  0  0  0  0  0  0
  188.3300  178.0650  145.3580 C   0  0  2  0  0  3  0  0  0  0  0  0
  181.7390  179.0510  141.6830 N   0  0  0  0  0  2  0  0  0  0  0  0
  186.5620  177.5720  147.0710 O   0  0  0  0  0  0  0  0  0  0  0  0
  189.0930  176.5120  147.2630 C   0  0  1  0  0  3  0  0  0  0  0  0
  187.4540  178.2990  139.3100 C   0  0  0  0  0  3  0  0  0  0  0  0
  187.0390  178.2510  140.6590 C   0  0  0  0  0  0  0  0  0  0  0  0
  184.8130  178.6910  140.0060 C   0  0  0  0  0  2  0  0  0  0  0  0
  185.9360  178.2180  144.8120 C   0  0  0  0  0  2  0  0  0  0  0  0
  183.5000  178.5360  143.8410 O   0  0  0  0  0  0  0  0  0  0  0  0
  182.2780  179.2930  138.1180 C   0  0  0  0  0  1  0  0  0  0  0  0
  185.3320  178.3920  142.3410 C   0  0  0  0  0  0  0  0  0  0  0  0
  183.4880  178.8880  140.3370 C   0  0  0  0  0  0  0  0  0  0  0  0
  190.3000  175.9640  147.7710 O   0  0  0  0  0  0  0  0  0  0  0  0
  191.5530  176.3210  147.2660 C   0  0  0  0  0  0  0  0  0  0  0  0
  191.9580  175.9830  145.8700 C   0  0  0  0  0  1  0  0  0  0  0  0
  192.3610  176.9400  148.0040 O   0  0  0  0  0  0  0  0  0  0  0  0
  1 16  1  6  0  0  0
  2 24  1  0  0  0  0
  3 11  1  0  0  0  0
  4 21  1  0  0  0  0
  4  3  2  0  0  0  0
  5 25  2  0  0  0  0
  6 18  1  0  0  0  0
  6  5  1  0  0  0  0
  7 24  1  6  0  0  0
  7 19  1  0  0  0  0
  8 17  1  0  0  0  0
  9 28  1  0  0  0  0
  9 15  2  0  0  0  0
 10 20  1  0  0  0  0
 10  1  1  0  0  0  0
 11 13  2  0  0  0  0
 12  2  1  0  0  0  0
 12  8  1  0  0  0  0
 13 12  1  0  0  0  0
 14 27  1  0  0  0  0
 15 18  1  0  0  0  0
 17  7  1  0  0  0  0
 17 10  1  0  0  0  0
 19 16  1  0  0  0  0
 20 29  1  0  0  0  0
 20  1  1  0  0  0  0
 21 22  2  0  0  0  0
 22 14  1  0  0  0  0
 22 13  1  0  0  0  0
 23 28  1  0  0  0  0
 23 14  1  0  0  0  0
 26  9  1  0  0  0  0
 27  5  1  0  0  0  0
 27  2  2  0  0  0  0
 28  6  2  0  0  0  0
 30 29  1  0  0  0  0
 30 32  2  0  0  0  0
 31 30  1  0  0  0  0
M  END
>  <MODEL>
1

>  <REMARK>
 VINA RESULT:     -10.1      0.000      0.000
  Name = 
  2 active torsions:
  status: ('A' for Active; 'I' for Inactive)
    1  A    between atoms: C_20  and  O_29
    2  A    between atoms: O_29  and  C_30
                            x       y       z     vdW  Elec       q    Type
                         _______ _______ _______ _____ _____    ______ ____

>  <TORSDO>
F 2

$$$$
=
 OpenBabel11122410413D

 32 38  0  0  1  0  0  0  0  0999 V2000
  188.5420  178.1430  137.0310 C   0  0  1  0  0  3  0  0  0  0  0  0
  187.9190  177.7600  142.1510 C   0  0  0  0  0  0  0  0  0  0  0  0
  183.3160  179.0140  142.9120 C   0  0  0  0  0  3  0  0  0  0  0  0
  183.5270  178.9850  144.2870 C   0  0  0  0  0  3  0  0  0  0  0  0
  189.4210  177.3560  144.1150 C   0  0  0  0  0  0  0  0  0  0  0  0
  189.5450  177.3470  145.4960 C   0  0  0  0  0  0  0  0  0  0  0  0
  188.6200  177.2270  139.7910 C   0  0  1  0  0  3  0  0  0  0  0  0
  186.3570  178.0480  140.2210 C   0  0  0  0  0  2  0  0  0  0  0  0
  188.9890  177.5360  147.5790 C   0  0  0  0  0  0  0  0  0  0  0  0
  187.2640  178.2580  137.8610 C   0  0  2  0  0  3  0  0  0  0  0  0
  184.3630  178.7140  142.0430 C   0  0  0  0  0  3  0  0  0  0  0  0
  186.6680  178.0910  141.6670 N   0  0  0  0  0  0  0  0  0  0  0  0
  185.6430  178.3780  142.5290 C   0  0  0  0  0  0  0  0  0  0  0  0
  187.0930  178.0130  144.4200 N   0  0  0  0  0  0  0  0  0  0  0  0
  190.2890  177.1670  147.5130 N   0  0  0  0  0  0  0  0  0  0  0  0
  189.8040  178.0230  137.9170 C   0  0  0  0  0  2  0  0  0  0  0  0
  187.5850  178.2650  139.3650 C   0  0  2  0  0  3  0  0  0  0  0  0
  190.6320  177.0500  146.2320 N   0  0  0  0  0  0  0  0  0  0  0  0
  189.7150  177.0170  138.9080 O   0  0  0  0  0  0  0  0  0  0  0  0
  187.5990  176.9520  137.1510 C   0  0  1  0  0  3  0  0  0  0  0  0
  184.7840  178.6540  144.7880 C   0  0  0  0  0  3  0  0  0  0  0  0
  185.8600  178.3460  143.9250 C   0  0  0  0  0  0  0  0  0  0  0  0
  187.2690  177.9870  145.7850 C   0  0  0  0  0  3  0  0  0  0  0  0
  189.0810  177.5700  141.1900 C   0  0  0  0  0  2  0  0  0  0  0  0
  190.4170  177.0460  143.4080 O   0  0  0  0  0  0  0  0  0  0  0  0
  188.2410  177.7650  148.8440 C   0  0  0  0  0  1  0  0  0  0  0  0
  188.1450  177.7100  143.5570 C   0  0  0  0  0  0  0  0  0  0  0  0
  188.5050  177.6530  146.3010 C   0  0  0  0  0  0  0  0  0  0  0  0
  186.8180  176.8480  135.9700 O   0  0  0  0  0  0  0  0  0  0  0  0
  185.4640  176.5040  135.9980 C   0  0  0  0  0  0  0  0  0  0  0  0
  184.9540  175.4130  136.8800 C   0  0  0  0  0  1  0  0  0  0  0  0
  184.6560  177.1250  135.2620 O   0  0  0  0  0  0  0  0  0  0  0  0
  1 20  1  0  0  0  0
  1 10  1  0  0  0  0
  1 16  1  1  0  0  0
  2 27  2  0  0  0  0
  3  4  1  0  0  0  0
  4 21  2  0  0  0  0
  5  6  1  0  0  0  0
  6 18  2  0  0  0  0
  6 28  1  0  0  0  0
  7 24  1  1  0  0  0
  8 12  1  0  0  0  0
  9 26  1  0  0  0  0
 10 17  1  0  0  0  0
 11 13  1  0  0  0  0
 11  3  2  0  0  0  0
 12  2  1  0  0  0  0
 12 13  1  0  0  0  0
 13 22  2  0  0  0  0
 14 23  1  0  0  0  0
 15  9  2  0  0  0  0
 16 19  1  0  0  0  0
 17  7  1  0  0  0  0
 17  8  1  0  0  0  0
 18 15  1  0  0  0  0
 19  7  1  0  0  0  0
 20 10  1  0  0  0  0
 22 14  1  0  0  0  0
 22 21  1  0  0  0  0
 23 28  2  0  0  0  0
 24  2  1  0  0  0  0
 25  5  2  0  0  0  0
 27  5  1  0  0  0  0
 27 14  1  0  0  0  0
 28  9  1  0  0  0  0
 29 30  1  0  0  0  0
 29 20  1  0  0  0  0
 30 31  1  0  0  0  0
 32 30  2  0  0  0  0
M  END
>  <MODEL>
2

>  <REMARK>
 VINA RESULT:     -10.0      3.341      8.354
  Name = 
  2 active torsions:
  status: ('A' for Active; 'I' for Inactive)
    1  A    between atoms: C_20  and  O_29
    2  A    between atoms: O_29  and  C_30
                            x       y       z     vdW  Elec       q    Type
                         _______ _______ _______ _____ _____    ______ ____

>  <TORSDO>
F 2

$$$$
=
 OpenBabel11122410413D

 32 38  0  0  1  0  0  0  0  0999 V2000
  181.9560  178.6980  139.9390 C   0  0  1  0  0  3  0  0  0  0  0  0
  186.2680  178.1710  142.7450 C   0  0  0  0  0  0  0  0  0  0  0  0
  189.8080  177.8090  139.4770 C   0  0  0  0  0  3  0  0  0  0  0  0
  190.7210  177.5150  140.4850 C   0  0  0  0  0  3  0  0  0  0  0  0
  186.8000  177.8390  145.1700 C   0  0  0  0  0  0  0  0  0  0  0  0
  187.7730  177.5440  146.1140 C   0  0  0  0  0  0  0  0  0  0  0  0
  184.0230  179.0020  141.9630 C   0  0  1  0  0  3  0  0  0  0  0  0
  185.8030  178.6180  140.3310 C   0  0  0  0  0  2  0  0  0  0  0  0
  189.7180  177.0640  146.9330 C   0  0  0  0  0  0  0  0  0  0  0  0
  183.4140  178.6960  139.4810 C   0  0  2  0  0  3  0  0  0  0  0  0
  188.4720  178.0450  139.7970 C   0  0  0  0  0  3  0  0  0  0  0  0
  186.7040  178.2200  141.4350 N   0  0  0  0  0  0  0  0  0  0  0  0
  188.0200  177.9930  141.1310 C   0  0  0  0  0  0  0  0  0  0  0  0
  188.5300  177.6500  143.4620 N   0  0  0  0  0  0  0  0  0  0  0  0
  188.8330  177.1510  147.9520 N   0  0  0  0  0  0  0  0  0  0  0  0
  181.8170  178.3630  141.4430 C   0  0  0  0  0  2  0  0  0  0  0  0
  184.3530  178.3180  140.6390 C   0  0  2  0  0  3  0  0  0  0  0  0
  187.6360  177.4460  147.4500 N   0  0  0  0  0  2  0  0  0  0  0  0
  182.6450  179.1450  142.2830 O   0  0  0  0  0  0  0  0  0  0  0  0
  182.6750  180.0150  139.6730 C   0  0  1  0  0  3  0  0  0  0  0  0
  190.2940  177.4610  141.8110 C   0  0  0  0  0  3  0  0  0  0  0  0
  188.9450  177.6970  142.1580 C   0  0  0  0  0  0  0  0  0  0  0  0
  189.4570  177.3640  144.4380 C   0  0  0  0  0  2  0  0  0  0  0  0
  184.7870  178.2950  143.0600 C   0  0  0  0  0  2  0  0  0  0  0  0
  185.6210  178.0630  145.5560 O   0  0  0  0  0  0  0  0  0  0  0  0
  191.1640  176.7530  147.0960 C   0  0  0  0  0  1  0  0  0  0  0  0
  187.1950  177.8870  143.7900 C   0  0  0  0  0  0  0  0  0  0  0  0
  189.0550  177.3130  145.7580 C   0  0  0  0  0  0  0  0  0  0  0  0
  182.2810  180.5190  138.4060 O   0  0  0  0  0  0  0  0  0  0  0  0
  181.1650  181.3430  138.2440 C   0  0  0  0  0  0  0  0  0  0  0  0
  180.7900  181.8970  136.9100 C   0  0  0  0  0  1  0  0  0  0  0  0
  180.4590  181.6280  139.2450 O   0  0  0  0  0  0  0  0  0  0  0  0
  1 16  1  1  0  0  0
  2 24  1  0  0  0  0
  2 27  2  0  0  0  0
  3 11  2  0  0  0  0
  3  4  1  0  0  0  0
  4 21  2  0  0  0  0
  5 25  2  0  0  0  0
  5  6  1  0  0  0  0
  6 18  1  0  0  0  0
  7 19  1  0  0  0  0
  7 24  1  1  0  0  0
  8 17  1  0  0  0  0
  8 12  1  0  0  0  0
  9 26  1  0  0  0  0
  9 15  2  0  0  0  0
 10 20  1  0  0  0  0
 10  1  1  0  0  0  0
 10 17  1  0  0  0  0
 11 13  1  0  0  0  0
 12  2  1  0  0  0  0
 13 12  1  0  0  0  0
 13 22  2  0  0  0  0
 14 27  1  0  0  0  0
 14 23  1  0  0  0  0
 16 19  1  0  0  0  0
 17  7  1  0  0  0  0
 18 15  1  0  0  0  0
 20  1  1  0  0  0  0
 21 22  1  0  0  0  0
 22 14  1  0  0  0  0
 23 28  1  0  0  0  0
 27  5  1  0  0  0  0
 28  6  2  0  0  0  0
 28  9  1  0  0  0  0
 29 20  1  0  0  0  0
 30 29  1  0  0  0  0
 30 32  2  0  0  0  0
 31 30  1  0  0  0  0
M  END
>  <MODEL>
3

>  <REMARK>
 VINA RESULT:      -9.8      2.349      8.045
  Name = 
  2 active torsions:
  status: ('A' for Active; 'I' for Inactive)
    1  A    between atoms: C_20  and  O_29
    2  A    between atoms: O_29  and  C_30
                            x       y       z     vdW  Elec       q    Type
                         _______ _______ _______ _____ _____    ______ ____

>  <TORSDO>
F 2

$$$$
=
 OpenBabel11122410413D

 32 38  0  0  1  0  0  0  0  0999 V2000
  190.1730  177.2390  137.0630 C   0  0  1  0  0  3  0  0  0  0  0  0
  188.9820  177.3360  142.0950 C   0  0  0  0  0  0  0  0  0  0  0  0
  184.4520  179.0070  142.2390 C   0  0  0  0  0  3  0  0  0  0  0  0
  184.5130  179.0760  143.6280 C   0  0  0  0  0  3  0  0  0  0  0  0
  190.2280  176.9820  144.2390 C   0  0  0  0  0  0  0  0  0  0  0  0
  190.2040  177.0780  145.6230 C   0  0  0  0  0  0  0  0  0  0  0  0
  189.8800  176.5550  139.8750 C   0  0  1  0  0  3  0  0  0  0  0  0
  187.6640  177.5830  139.9860 C   0  0  0  0  0  2  0  0  0  0  0  0
  189.4510  177.4850  147.6100 C   0  0  0  0  0  0  0  0  0  0  0  0
  188.8300  177.5230  137.7340 C   0  0  2  0  0  3  0  0  0  0  0  0
  185.5540  178.5540  141.5180 C   0  0  0  0  0  3  0  0  0  0  0  0
  187.8230  177.7220  141.4500 N   0  0  0  0  0  0  0  0  0  0  0  0
  186.7420  178.1600  142.1690 C   0  0  0  0  0  0  0  0  0  0  0  0
  187.9470  177.8430  144.2320 N   0  0  0  0  0  0  0  0  0  0  0  0
  190.7130  177.0110  147.7190 N   0  0  0  0  0  0  0  0  0  0  0  0
  191.3200  177.0950  138.0910 C   0  0  0  0  0  2  0  0  0  0  0  0
  188.9900  177.6310  139.2600 C   0  0  2  0  0  3  0  0  0  0  0  0
  191.1780  176.7600  146.4970 N   0  0  0  0  0  2  0  0  0  0  0  0
  191.0390  176.1850  139.1390 O   0  0  0  0  0  0  0  0  0  0  0  0
  189.1230  176.1400  137.1650 C   0  0  1  0  0  3  0  0  0  0  0  0
  185.6770  178.6910  144.2900 C   0  0  0  0  0  3  0  0  0  0  0  0
  186.8060  178.2280  143.5790 C   0  0  0  0  0  0  0  0  0  0  0  0
  187.9740  177.9170  145.6060 C   0  0  0  0  0  2  0  0  0  0  0  0
  190.2180  176.9760  141.2870 C   0  0  0  0  0  2  0  0  0  0  0  0
  191.2620  176.5360  143.6740 O   0  0  0  0  0  0  0  0  0  0  0  0
  188.5950  177.8760  148.7630 C   0  0  0  0  0  1  0  0  0  0  0  0
  189.0530  177.3870  143.5180 C   0  0  0  0  0  0  0  0  0  0  0  0
  189.1160  177.5320  146.2810 C   0  0  0  0  0  0  0  0  0  0  0  0
  188.4650  175.9990  135.9150 O   0  0  0  0  0  0  0  0  0  0  0  0
  187.2710  175.2880  135.7760 C   0  0  0  0  0  0  0  0  0  0  0  0
  186.8450  174.2720  136.7830 C   0  0  0  0  0  1  0  0  0  0  0  0
  186.5360  175.5060  134.7790 O   0  0  0  0  0  0  0  0  0  0  0  0
  1 20  1  0  0  0  0
  1 10  1  0  0  0  0
  1 16  1  1  0  0  0
  2 27  2  0  0  0  0
  3  4  1  0  0  0  0
  4 21  2  0  0  0  0
  5  6  1  0  0  0  0
  6 28  2  0  0  0  0
  6 18  1  0  0  0  0
  7 24  1  1  0  0  0
  8 12  1  0  0  0  0
  9 15  2  0  0  0  0
  9 26  1  0  0  0  0
 10 17  1  0  0  0  0
 11 13  1  0  0  0  0
 11  3  2  0  0  0  0
 12  2  1  0  0  0  0
 12 13  1  0  0  0  0
 13 22  2  0  0  0  0
 14 23  1  0  0  0  0
 16 19  1  0  0  0  0
 17  7  1  0  0  0  0
 17  8  1  0  0  0  0
 18 15  1  0  0  0  0
 19  7  1  0  0  0  0
 20 10  1  0  0  0  0
 22 14  1  0  0  0  0
 22 21  1  0  0  0  0
 23 28  1  0  0  0  0
 24  2  1  0  0  0  0
 25  5  2  0  0  0  0
 27 14  1  0  0  0  0
 27  5  1  0  0  0  0
 28  9  1  0  0  0  0
 29 20  1  0  0  0  0
 30 29  1  0  0  0  0
 30 31  1  0  0  0  0
 32 30  2  0  0  0  0
M  END
>  <MODEL>
4

>  <REMARK>
 VINA RESULT:      -9.5      3.680      8.365
  Name = 
  2 active torsions:
  status: ('A' for Active; 'I' for Inactive)
    1  A    between atoms: C_20  and  O_29
    2  A    between atoms: O_29  and  C_30
                            x       y       z     vdW  Elec       q    Type
                         _______ _______ _______ _____ _____    ______ ____

>  <TORSDO>
F 2

$$$$
=
 OpenBabel11122410413D

 32 38  0  0  1  0  0  0  0  0999 V2000
  179.6370  178.8810  141.3580 C   0  0  1  0  0  3  0  0  0  0  0  0
  184.4080  178.5680  143.3300 C   0  0  0  0  0  0  0  0  0  0  0  0
  187.2980  178.2530  139.4720 C   0  0  0  0  0  3  0  0  0  0  0  0
  188.3920  178.0140  140.3000 C   0  0  0  0  0  3  0  0  0  0  0  0
  185.3880  178.3110  145.6210 C   0  0  0  0  0  0  0  0  0  0  0  0
  186.5270  178.0720  146.3740 C   0  0  0  0  0  0  0  0  0  0  0  0
  182.0270  179.3030  142.9620 C   0  0  1  0  0  3  0  0  0  0  0  0
  183.4900  178.9430  141.0360 C   0  0  0  0  0  2  0  0  0  0  0  0
  188.6070  177.6790  146.8280 C   0  0  0  0  0  0  0  0  0  0  0  0
  180.9850  178.9190  140.6400 C   0  0  2  0  0  3  0  0  0  0  0  0
  186.0360  178.4500  140.0280 C   0  0  0  0  0  3  0  0  0  0  0  0
  184.5930  178.6030  141.9610 N   0  0  0  0  0  0  0  0  0  0  0  0
  185.8390  178.4140  141.4240 C   0  0  0  0  0  0  0  0  0  0  0  0
  186.7800  178.1430  143.6270 N   0  0  0  0  0  0  0  0  0  0  0  0
  187.9210  177.7580  147.9910 N   0  0  0  0  0  0  0  0  0  0  0  0
  179.7890  178.5770  142.8670 C   0  0  0  0  0  2  0  0  0  0  0  0
  182.1340  178.6010  141.6100 C   0  0  2  0  0  3  0  0  0  0  0  0
  186.6420  178.0000  147.7130 N   0  0  0  0  0  2  0  0  0  0  0  0
  180.7260  179.4060  143.5270 O   0  0  0  0  0  0  0  0  0  0  0  0
  180.2440  180.2150  140.9430 C   0  0  1  0  0  3  0  0  0  0  0  0
  188.2170  177.9760  141.6820 C   0  0  0  0  0  3  0  0  0  0  0  0
  186.9470  178.1730  142.2670 C   0  0  0  0  0  0  0  0  0  0  0  0
  187.8810  177.9110  144.4200 C   0  0  0  0  0  2  0  0  0  0  0  0
  183.0050  178.6490  143.9100 C   0  0  0  0  0  2  0  0  0  0  0  0
  184.2920  178.5040  146.2130 O   0  0  0  0  0  0  0  0  0  0  0  0
  190.0690  177.4210  146.7280 C   0  0  0  0  0  1  0  0  0  0  0  0
  185.5210  178.3410  144.1910 C   0  0  0  0  0  0  0  0  0  0  0  0
  187.7310  177.8770  145.7910 C   0  0  0  0  0  0  0  0  0  0  0  0
  179.6050  180.6760  139.7610 O   0  0  0  0  0  0  0  0  0  0  0  0
  180.0760  181.7740  139.0370 C   0  0  0  0  0  0  0  0  0  0  0  0
  181.4780  181.8300  138.5260 C   0  0  0  0  0  1  0  0  0  0  0  0
  179.3040  182.7400  138.8110 O   0  0  0  0  0  0  0  0  0  0  0  0
  1 16  1  1  0  0  0
  2 24  1  0  0  0  0
  2 27  2  0  0  0  0
  3 11  2  0  0  0  0
  3  4  1  0  0  0  0
  4 21  2  0  0  0  0
  5 25  2  0  0  0  0
  5  6  1  0  0  0  0
  6 18  1  0  0  0  0
  7 19  1  0  0  0  0
  7 24  1  1  0  0  0
  8 17  1  0  0  0  0
  8 12  1  0  0  0  0
  9 15  2  0  0  0  0
 10 20  1  0  0  0  0
 10  1  1  0  0  0  0
 10 17  1  0  0  0  0
 11 13  1  0  0  0  0
 12  2  1  0  0  0  0
 13 12  1  0  0  0  0
 13 22  2  0  0  0  0
 14 27  1  0  0  0  0
 14 23  1  0  0  0  0
 16 19  1  0  0  0  0
 17  7  1  0  0  0  0
 18 15  1  0  0  0  0
 20  1  1  0  0  0  0
 21 22  1  0  0  0  0
 22 14  1  0  0  0  0
 23 28  1  0  0  0  0
 26  9  1  0  0  0  0
 27  5  1  0  0  0  0
 28  6  2  0  0  0  0
 28  9  1  0  0  0  0
 29 20  1  0  0  0  0
 30 29  1  0  0  0  0
 31 30  1  0  0  0  0
 32 30  2  0  0  0  0
M  END
>  <MODEL>
5

>  <REMARK>
 VINA RESULT:      -9.5      2.713      8.174
  Name = 
  2 active torsions:
  status: ('A' for Active; 'I' for Inactive)
    1  A    between atoms: C_20  and  O_29
    2  A    between atoms: O_29  and  C_30
                            x       y       z     vdW  Elec       q    Type
                         _______ _______ _______ _____ _____    ______ ____

>  <TORSDO>
F 2

$$$$
=
 OpenBabel11122410413D

 32 38  0  0  1  0  0  0  0  0999 V2000
  191.7510  175.7450  146.7630 C   0  0  1  0  0  3  0  0  0  0  0  0
  188.1630  177.6720  143.5760 C   0  0  0  0  0  0  0  0  0  0  0  0
  184.3880  178.6300  146.4350 C   0  0  0  0  0  3  0  0  0  0  0  0
  183.6090  178.9310  145.3210 C   0  0  0  0  0  3  0  0  0  0  0  0
  187.9210  177.9340  141.0970 C   0  0  0  0  0  0  0  0  0  0  0  0
  187.0790  178.2530  140.0420 C   0  0  0  0  0  0  0  0  0  0  0  0
  190.3890  177.2390  144.6700 C   0  0  1  0  0  3  0  0  0  0  0  0
  188.4010  177.5450  146.0610 C   0  0  0  0  0  2  0  0  0  0  0  0
  185.2820  178.8560  138.9980 C   0  0  0  0  0  0  0  0  0  0  0  0
  190.4010  176.3780  147.0960 C   0  0  2  0  0  3  0  0  0  0  0  0
  185.7160  178.2430  146.2700 C   0  0  0  0  0  3  0  0  0  0  0  0
  187.6010  177.7610  144.8350 N   0  0  0  0  0  0  0  0  0  0  0  0
  186.2960  178.1480  144.9880 C   0  0  0  0  0  0  0  0  0  0  0  0
  186.0530  178.3780  142.6000 N   0  0  0  0  0  0  0  0  0  0  0  0
  186.2550  178.6380  138.0850 N   0  0  0  0  0  0  0  0  0  0  0  0
  191.9540  175.5730  145.2390 C   0  0  0  0  0  2  0  0  0  0  0  0
  189.5840  176.6350  145.8190 C   0  0  2  0  0  3  0  0  0  0  0  0
  187.3620  178.2670  138.7250 N   0  0  0  0  0  0  0  0  0  0  0  0
  191.7130  176.7500  144.4920 O   0  0  0  0  0  0  0  0  0  0  0  0
  191.6780  177.2010  147.2060 C   0  0  1  0  0  3  0  0  0  0  0  0
  184.1640  178.8440  144.0450 C   0  0  0  0  0  3  0  0  0  0  0  0
  185.5080  178.4540  143.8550 C   0  0  0  0  0  0  0  0  0  0  0  0
  185.2610  178.6870  141.5190 C   0  0  0  0  0  3  0  0  0  0  0  0
  189.5680  177.1180  143.4070 C   0  0  0  0  0  2  0  0  0  0  0  0
  189.1160  177.6190  140.8520 O   0  0  0  0  0  0  0  0  0  0  0  0
  183.8970  179.2890  138.6670 C   0  0  0  0  0  1  0  0  0  0  0  0
  187.3820  177.9920  142.4270 C   0  0  0  0  0  0  0  0  0  0  0  0
  185.7940  178.6150  140.2470 C   0  0  0  0  0  0  0  0  0  0  0  0
  192.0560  177.2990  148.5700 O   0  0  0  0  0  0  0  0  0  0  0  0
  193.1710  176.6320  149.0860 C   0  0  0  0  0  0  0  0  0  0  0  0
  193.8850  177.1280  150.2990 C   0  0  0  0  0  1  0  0  0  0  0  0
  193.5840  175.5910  148.5150 O   0  0  0  0  0  0  0  0  0  0  0  0
  1 16  1  6  0  0  0
  1 10  1  0  0  0  0
  1 20  1  0  0  0  0
  2 12  1  0  0  0  0
  4  3  2  0  0  0  0
  5 27  1  0  0  0  0
  6 28  1  0  0  0  0
  6  5  1  0  0  0  0
  7 24  1  6  0  0  0
  7 17  1  0  0  0  0
  9 28  1  0  0  0  0
 10 20  1  0  0  0  0
 11  3  1  0  0  0  0
 12 13  1  0  0  0  0
 12  8  1  0  0  0  0
 13 11  2  0  0  0  0
 14 22  1  0  0  0  0
 15 18  1  0  0  0  0
 15  9  2  0  0  0  0
 17  8  1  0  0  0  0
 17 10  1  0  0  0  0
 18  6  2  0  0  0  0
 19  7  1  0  0  0  0
 19 16  1  0  0  0  0
 20 29  1  0  0  0  0
 21  4  1  0  0  0  0
 22 21  2  0  0  0  0
 22 13  1  0  0  0  0
 23 14  1  0  0  0  0
 24  2  1  0  0  0  0
 25  5  2  0  0  0  0
 26  9  1  0  0  0  0
 27 14  1  0  0  0  0
 27  2  2  0  0  0  0
 28 23  2  0  0  0  0
 29 30  1  0  0  0  0
 30 31  1  0  0  0  0
 32 30  2  0  0  0  0
M  END
>  <MODEL>
6

>  <REMARK>
 VINA RESULT:      -9.2      2.368      4.304
  Name = 
  2 active torsions:
  status: ('A' for Active; 'I' for Inactive)
    1  A    between atoms: C_20  and  O_29
    2  A    between atoms: O_29  and  C_30
                            x       y       z     vdW  Elec       q    Type
                         _______ _______ _______ _____ _____    ______ ____

>  <TORSDO>
F 2

$$$$
=
 OpenBabel11122410413D

 32 38  0  0  1  0  0  0  0  0999 V2000
  181.6780  179.5660  139.3130 C   0  0  1  0  0  3  0  0  0  0  0  0
  185.9200  178.2780  141.9760 C   0  0  0  0  0  0  0  0  0  0  0  0
  184.5550  178.4780  146.6060 C   0  0  0  0  0  3  0  0  0  0  0  0
  185.8710  178.2770  147.0120 C   0  0  0  0  0  3  0  0  0  0  0  0
  188.3300  177.8740  141.4250 C   0  0  0  0  0  0  0  0  0  0  0  0
  189.6130  177.6750  141.9120 C   0  0  0  0  0  0  0  0  0  0  0  0
  184.1190  178.2650  140.2160 C   0  0  1  0  0  3  0  0  0  0  0  0
  183.5070  178.5520  142.5660 C   0  0  0  0  0  2  0  0  0  0  0  0
  191.2180  177.4260  143.3430 C   0  0  0  0  0  0  0  0  0  0  0  0
  181.8380  179.2990  140.8090 C   0  0  2  0  0  3  0  0  0  0  0  0
  184.2470  178.5260  145.2480 C   0  0  0  0  0  3  0  0  0  0  0  0
  184.9350  178.4300  142.9330 N   0  0  0  0  0  0  0  0  0  0  0  0
  185.2470  178.3750  144.2660 C   0  0  0  0  0  0  0  0  0  0  0  0
  187.5710  178.0100  143.7380 N   0  0  0  0  0  0  0  0  0  0  0  0
  191.7350  177.3320  142.0960 N   0  0  0  0  0  0  0  0  0  0  0  0
  183.0360  179.5580  138.5720 C   0  0  0  0  0  2  0  0  0  0  0  0
  183.3200  179.1350  141.1840 C   0  0  2  0  0  3  0  0  0  0  0  0
  190.7490  177.4850  141.2150 N   0  0  0  0  0  0  0  0  0  0  0  0
  183.8240  178.4120  138.8330 O   0  0  0  0  0  0  0  0  0  0  0  0
  181.2940  178.2100  139.8930 C   0  0  1  0  0  3  0  0  0  0  0  0
  186.8740  178.1230  146.0570 C   0  0  0  0  0  3  0  0  0  0  0  0
  186.5840  178.1690  144.6750 C   0  0  0  0  0  0  0  0  0  0  0  0
  188.8620  177.8060  144.1690 C   0  0  0  0  0  3  0  0  0  0  0  0
  185.5880  178.4690  140.5060 C   0  0  0  0  0  2  0  0  0  0  0  0
  188.1430  177.8780  140.1780 O   0  0  0  0  0  0  0  0  0  0  0  0
  192.0110  177.3050  144.5960 C   0  0  0  0  0  1  0  0  0  0  0  0
  187.2700  178.0550  142.3770 C   0  0  0  0  0  0  0  0  0  0  0  0
  189.8680  177.6440  143.2390 C   0  0  0  0  0  0  0  0  0  0  0  0
  179.8830  178.1410  140.0340 O   0  0  0  0  0  0  0  0  0  0  0  0
  179.2640  177.2690  140.9330 C   0  0  0  0  0  0  0  0  0  0  0  0
  178.9660  175.8530  140.5680 C   0  0  0  0  0  1  0  0  0  0  0  0
  178.9490  177.6850  142.0770 O   0  0  0  0  0  0  0  0  0  0  0  0
  1 16  1  6  0  0  0
  1 20  1  0  0  0  0
  1 10  1  0  0  0  0
  2 27  2  0  0  0  0
  2 12  1  0  0  0  0
  3  4  1  0  0  0  0
  5  6  1  0  0  0  0
  5 27  1  0  0  0  0
  6 28  1  0  0  0  0
  7 24  1  6  0  0  0
  7 17  1  0  0  0  0
  8 12  1  0  0  0  0
  9 26  1  0  0  0  0
 10 17  1  0  0  0  0
 11  3  2  0  0  0  0
 12 13  1  0  0  0  0
 13 22  2  0  0  0  0
 13 11  1  0  0  0  0
 14 23  1  0  0  0  0
 14 22  1  0  0  0  0
 15  9  2  0  0  0  0
 16 19  1  0  0  0  0
 17  8  1  0  0  0  0
 18  6  2  0  0  0  0
 18 15  1  0  0  0  0
 19  7  1  0  0  0  0
 20 29  1  0  0  0  0
 20 10  1  0  0  0  0
 21  4  2  0  0  0  0
 22 21  1  0  0  0  0
 24  2  1  0  0  0  0
 25  5  2  0  0  0  0
 27 14  1  0  0  0  0
 28  9  1  0  0  0  0
 28 23  2  0  0  0  0
 29 30  1  0  0  0  0
 30 32  2  0  0  0  0
 31 30  1  0  0  0  0
M  END
>  <MODEL>
7

>  <REMARK>
 VINA RESULT:      -8.9      3.166      8.546
  Name = 
  2 active torsions:
  status: ('A' for Active; 'I' for Inactive)
    1  A    between atoms: C_20  and  O_29
    2  A    between atoms: O_29  and  C_30
                            x       y       z     vdW  Elec       q    Type
                         _______ _______ _______ _____ _____    ______ ____

>  <TORSDO>
F 2

$$$$
=
 OpenBabel11122410413D

 32 38  0  0  1  0  0  0  0  0999 V2000
  191.4160  176.0920  144.2690 C   0  0  1  0  0  3  0  0  0  0  0  0
  186.9920  178.0650  142.4550 C   0  0  0  0  0  0  0  0  0  0  0  0
  184.1540  178.4620  146.3440 C   0  0  0  0  0  3  0  0  0  0  0  0
  183.0790  178.8150  145.5340 C   0  0  0  0  0  3  0  0  0  0  0  0
  186.0430  178.5520  140.1890 C   0  0  0  0  0  0  0  0  0  0  0  0
  184.9230  178.9140  139.4550 C   0  0  0  0  0  0  0  0  0  0  0  0
  189.4540  177.6850  142.8270 C   0  0  1  0  0  3  0  0  0  0  0  0
  187.9350  177.7090  144.7420 C   0  0  0  0  0  2  0  0  0  0  0  0
  182.8800  179.4870  139.0320 C   0  0  0  0  0  0  0  0  0  0  0  0
  190.1920  176.5900  145.0360 C   0  0  2  0  0  3  0  0  0  0  0  0
  185.3950  178.1890  145.7710 C   0  0  0  0  0  3  0  0  0  0  0  0
  186.8100  177.9870  143.8220 N   0  0  0  0  0  0  0  0  0  0  0  0
  185.5880  178.2630  144.3760 C   0  0  0  0  0  0  0  0  0  0  0  0
  184.6660  178.7100  142.1950 N   0  0  0  0  0  0  0  0  0  0  0  0
  183.5600  179.4310  137.8640 N   0  0  0  0  0  0  0  0  0  0  0  0
  191.1820  176.0870  142.7400 C   0  0  0  0  0  2  0  0  0  0  0  0
  189.0350  176.9140  144.0760 C   0  0  2  0  0  3  0  0  0  0  0  0
  184.8170  179.0780  138.1230 N   0  0  0  0  0  0  0  0  0  0  0  0
  190.6910  177.3120  142.2310 O   0  0  0  0  0  0  0  0  0  0  0  0
  191.4130  177.4880  144.8790 C   0  0  1  0  0  3  0  0  0  0  0  0
  183.2500  178.8950  144.1530 C   0  0  0  0  0  3  0  0  0  0  0  0
  184.4980  178.6230  143.5520 C   0  0  0  0  0  0  0  0  0  0  0  0
  183.5850  179.0680  141.4210 C   0  0  0  0  0  3  0  0  0  0  0  0
  188.3120  177.6320  141.8380 C   0  0  0  0  0  2  0  0  0  0  0  0
  187.1310  178.3490  139.5860 O   0  0  0  0  0  0  0  0  0  0  0  0
  181.4420  179.8510  139.1520 C   0  0  0  0  0  1  0  0  0  0  0  0
  185.9040  178.4400  141.6150 C   0  0  0  0  0  0  0  0  0  0  0  0
  183.7360  179.1610  140.0510 C   0  0  0  0  0  0  0  0  0  0  0  0
  192.1610  177.4770  146.0860 O   0  0  0  0  0  0  0  0  0  0  0  0
  191.7420  176.7720  147.2170 C   0  0  0  0  0  0  0  0  0  0  0  0
  192.4860  175.5760  147.7120 C   0  0  0  0  0  1  0  0  0  0  0  0
  190.7150  177.1520  147.8350 O   0  0  0  0  0  0  0  0  0  0  0  0
  1 16  1  6  0  0  0
  1 20  1  0  0  0  0
  1 10  1  0  0  0  0
  2 12  1  0  0  0  0
  4  3  2  0  0  0  0
  5 27  1  0  0  0  0
  6 28  1  0  0  0  0
  6  5  1  0  0  0  0
  7 24  1  6  0  0  0
  7 17  1  0  0  0  0
  9 26  1  0  0  0  0
  9 28  1  0  0  0  0
 11  3  1  0  0  0  0
 12 13  1  0  0  0  0
 12  8  1  0  0  0  0
 13 11  2  0  0  0  0
 14 22  1  0  0  0  0
 15 18  1  0  0  0  0
 15  9  2  0  0  0  0
 17  8  1  0  0  0  0
 17 10  1  0  0  0  0
 18  6  2  0  0  0  0
 19 16  1  0  0  0  0
 19  7  1  0  0  0  0
 20 10  1  0  0  0  0
 20 29  1  0  0  0  0
 21  4  1  0  0  0  0
 22 21  2  0  0  0  0
 22 13  1  0  0  0  0
 23 14  1  0  0  0  0
 24  2  1  0  0  0  0
 25  5  2  0  0  0  0
 27 14  1  0  0  0  0
 27  2  2  0  0  0  0
 28 23  2  0  0  0  0
 29 30  1  0  0  0  0
 30 31  1  0  0  0  0
 30 32  2  0  0  0  0
M  END
>  <MODEL>
8

>  <REMARK>
 VINA RESULT:      -8.8      2.131      4.049
  Name = 
  2 active torsions:
  status: ('A' for Active; 'I' for Inactive)
    1  A    between atoms: C_20  and  O_29
    2  A    between atoms: O_29  and  C_30
                            x       y       z     vdW  Elec       q    Type
                         _______ _______ _______ _____ _____    ______ ____

>  <TORSDO>
F 2

$$$$
=
 OpenBabel11122410413D

 32 38  0  0  1  0  0  0  0  0999 V2000
  192.2650  175.5210  136.5220 C   0  0  1  0  0  3  0  0  0  0  0  0
  189.0560  177.4000  140.1170 C   0  0  0  0  0  0  0  0  0  0  0  0
  191.3780  176.7120  144.2970 C   0  0  0  0  0  3  0  0  0  0  0  0
  190.2490  177.1220  145.0010 C   0  0  0  0  0  3  0  0  0  0  0  0
  186.7010  178.2550  140.1480 C   0  0  0  0  0  0  0  0  0  0  0  0
  185.6240  178.6540  140.9240 C   0  0  0  0  0  0  0  0  0  0  0  0
  190.3790  177.1850  137.9850 C   0  0  1  0  0  3  0  0  0  0  0  0
  191.4450  176.6680  140.1240 C   0  0  0  0  0  2  0  0  0  0  0  0
  184.4610  179.1070  142.6930 C   0  0  0  0  0  0  0  0  0  0  0  0
  192.5020  175.7310  138.0170 C   0  0  2  0  0  3  0  0  0  0  0  0
  191.3540  176.6820  142.9040 C   0  0  0  0  0  3  0  0  0  0  0  0
  190.1870  177.0230  140.8150 N   0  0  0  0  0  0  0  0  0  0  0  0
  190.2020  177.0620  142.1840 C   0  0  0  0  0  0  0  0  0  0  0  0
  187.9290  177.8630  142.2180 N   0  0  0  0  0  0  0  0  0  0  0  0
  183.7000  179.3590  141.6030 N   0  0  0  0  0  0  0  0  0  0  0  0
  190.7990  175.8100  136.1190 C   0  0  0  0  0  2  0  0  0  0  0  0
  191.2010  176.1360  138.7290 C   0  0  2  0  0  3  0  0  0  0  0  0
  184.4140  179.0810  140.5140 N   0  0  0  0  0  0  0  0  0  0  0  0
  190.3180  177.0630  136.5690 O   0  0  0  0  0  0  0  0  0  0  0  0
  193.0160  176.7530  137.0100 C   0  0  1  0  0  3  0  0  0  0  0  0
  189.1020  177.5020  144.3080 C   0  0  0  0  0  3  0  0  0  0  0  0
  189.0560  177.4800  142.8970 C   0  0  0  0  0  0  0  0  0  0  0  0
  186.8310  178.2690  142.9420 C   0  0  0  0  0  3  0  0  0  0  0  0
  189.0020  177.2310  138.6070 C   0  0  0  0  0  2  0  0  0  0  0  0
  186.5960  178.2850  138.8920 O   0  0  0  0  0  0  0  0  0  0  0  0
  184.0110  179.3000  144.0980 C   0  0  0  0  0  1  0  0  0  0  0  0
  187.8980  177.8370  140.8250 C   0  0  0  0  0  0  0  0  0  0  0  0
  185.6880  178.6590  142.2730 C   0  0  0  0  0  0  0  0  0  0  0  0
  194.4090  176.5620  136.8180 O   0  0  0  0  0  0  0  0  0  0  0  0
  195.0390  176.8310  135.6010 C   0  0  0  0  0  0  0  0  0  0  0  0
  195.2930  175.7550  134.5980 C   0  0  0  0  0  1  0  0  0  0  0  0
  195.4030  178.0070  135.3420 O   0  0  0  0  0  0  0  0  0  0  0  0
  1 16  1  1  0  0  0
  1 20  1  0  0  0  0
  1 10  1  0  0  0  0
  2 12  1  0  0  0  0
  2 27  2  0  0  0  0
  3  4  1  0  0  0  0
  5 27  1  0  0  0  0
  5  6  1  0  0  0  0
  6 28  1  0  0  0  0
  7 24  1  1  0  0  0
  7 17  1  0  0  0  0
  8 12  1  0  0  0  0
  9 26  1  0  0  0  0
 10 17  1  0  0  0  0
 11  3  2  0  0  0  0
 12 13  1  0  0  0  0
 13 22  2  0  0  0  0
 13 11  1  0  0  0  0
 14 22  1  0  0  0  0
 14 23  1  0  0  0  0
 15  9  2  0  0  0  0
 16 19  1  0  0  0  0
 17  8  1  0  0  0  0
 18  6  2  0  0  0  0
 18 15  1  0  0  0  0
 19  7  1  0  0  0  0
 20 10  1  0  0  0  0
 21  4  2  0  0  0  0
 22 21  1  0  0  0  0
 24  2  1  0  0  0  0
 25  5  2  0  0  0  0
 27 14  1  0  0  0  0
 28  9  1  0  0  0  0
 28 23  2  0  0  0  0
 29 20  1  0  0  0  0
 30 29  1  0  0  0  0
 31 30  1  0  0  0  0
 32 30  2  0  0  0  0
M  END
>  <MODEL>
9

>  <REMARK>
 VINA RESULT:      -8.8      4.626      7.350
  Name = 
  2 active torsions:
  status: ('A' for Active; 'I' for Inactive)
    1  A    between atoms: C_20  and  O_29
    2  A    between atoms: O_29  and  C_30
                            x       y       z     vdW  Elec       q    Type
                         _______ _______ _______ _____ _____    ______ ____

>  <TORSDO>
F 2

$$$$
