=
 OpenBabel11122410283D

 30 35  0  0  1  0  0  0  0  0999 V2000
  185.9750  178.3790  141.9350 C   0  0  0  0  0  0  0  0  0  0  0  0
  183.5000  178.8910  141.9080 C   0  0  0  0  0  0  0  0  0  0  0  0
  185.8870  177.9710  145.9850 N   0  0  0  0  0  0  0  0  0  0  0  0
  187.1420  178.0070  142.6720 C   0  0  0  0  0  0  0  0  0  0  0  0
  186.1040  178.5640  140.5590 C   0  0  0  0  0  3  0  0  0  0  0  0
  189.5040  177.7320  140.0360 O   0  0  0  0  0  0  0  0  0  0  0  0
  190.0520  177.9600  143.7620 C   0  0  1  0  0  3  0  0  0  0  0  0
  188.4160  177.9410  140.6420 C   0  0  0  0  0  0  0  0  0  0  0  0
  189.3530  177.6850  144.9930 N   0  0  0  0  0  0  0  0  0  0  0  0
  187.1820  177.7510  146.2770 C   0  0  0  0  0  0  0  0  0  0  0  0
  187.3150  178.3710  139.9060 C   0  0  0  0  0  0  0  0  0  0  0  0
  188.3230  177.7350  141.9970 N   0  0  0  0  0  0  0  0  0  0  0  0
  182.3100  179.0340  142.6250 C   0  0  0  0  0  3  0  0  0  0  0  0
  190.2420  177.3240  146.0800 C   0  0  0  0  0  2  0  0  0  0  0  0
  191.5060  177.6070  144.0230 C   0  0  0  0  0  2  0  0  0  0  0  0
  183.4390  179.0870  140.4970 N   0  0  0  0  0  1  0  0  0  0  0  0
  185.7940  178.0800  144.6680 N   0  0  0  0  0  0  0  0  0  0  0  0
  182.2790  178.8550  144.0030 C   0  0  0  0  0  3  0  0  0  0  0  0
  184.7120  178.5540  142.5850 C   0  0  0  0  0  0  0  0  0  0  0  0
  186.9980  177.9230  144.0820 C   0  0  0  0  0  0  0  0  0  0  0  0
  187.6910  177.6360  147.6710 C   0  0  0  0  0  1  0  0  0  0  0  0
  187.9250  177.7310  145.1030 C   0  0  0  0  0  0  0  0  0  0  0  0
  191.6460  177.4860  145.5330 C   0  0  0  0  0  2  0  0  0  0  0  0
  189.2440  175.6500  142.9740 C   0  0  0  0  0  1  0  0  0  0  0  0
  183.4470  178.5300  144.6840 C   0  0  0  0  0  3  0  0  0  0  0  0
  184.6560  178.3760  143.9920 C   0  0  0  0  0  0  0  0  0  0  0  0
  189.4940  177.1160  142.6280 C   0  0  2  0  0  3  0  0  0  0  0  0
  187.4380  178.5810  138.5270 O   0  0  0  0  0  0  0  0  0  0  0  0
  187.3150  176.5010  137.3420 C   0  0  0  0  0  1  0  0  0  0  0  0
  186.6810  177.8560  137.5670 C   0  0  0  0  0  2  0  0  0  0  0  0
  1 19  1  0  0  0  0
  1  4  2  0  0  0  0
  2 19  2  0  0  0  0
  2 13  1  0  0  0  0
  3 10  2  0  0  0  0
  4 20  1  0  0  0  0
  5  1  1  0  0  0  0
  6  8  2  0  0  0  0
  7 15  1  1  0  0  0
  7  9  1  0  0  0  0
  8 12  1  0  0  0  0
  9 22  1  0  0  0  0
  9 14  1  0  0  0  0
 10 21  1  0  0  0  0
 11  5  2  0  0  0  0
 11  8  1  0  0  0  0
 12 27  1  0  0  0  0
 12  4  1  0  0  0  0
 13 18  2  0  0  0  0
 15 23  1  0  0  0  0
 16  2  1  0  0  0  0
 17  3  1  0  0  0  0
 18 25  1  0  0  0  0
 19 26  1  0  0  0  0
 20 17  1  0  0  0  0
 20 22  2  0  0  0  0
 22 10  1  0  0  0  0
 23 14  1  0  0  0  0
 26 17  1  0  0  0  0
 26 25  2  0  0  0  0
 27 24  1  1  0  0  0
 27  7  1  0  0  0  0
 28 11  1  0  0  0  0
 29 30  1  0  0  0  0
 30 28  1  0  0  0  0
M  END
>  <MODEL>
1

>  <REMARK>
 VINA RESULT:     -10.3      0.000      0.000
  Name = 
  2 active torsions:
  status: ('A' for Active; 'I' for Inactive)
    1  A    between atoms: C_11  and  O_28
    2  A    between atoms: O_28  and  C_30
                            x       y       z     vdW  Elec       q    Type
                         _______ _______ _______ _____ _____    ______ ____

>  <TORSDO>
F 2

$$$$
=
 OpenBabel11122410283D

 30 35  0  0  1  0  0  0  0  0999 V2000
  187.1890  178.2250  140.8930 C   0  0  0  0  0  0  0  0  0  0  0  0
  184.8870  178.8170  140.0360 C   0  0  0  0  0  0  0  0  0  0  0  0
  185.7480  177.9490  144.6910 N   0  0  0  0  0  0  0  0  0  0  0  0
  188.0300  177.8380  141.9830 C   0  0  0  0  0  0  0  0  0  0  0  0
  187.7740  178.3630  139.6350 C   0  0  0  0  0  3  0  0  0  0  0  0
  191.1180  177.4020  140.2870 O   0  0  0  0  0  0  0  0  0  0  0  0
  190.4100  177.7300  143.9780 C   0  0  1  0  0  3  0  0  0  0  0  0
  189.9010  177.6670  140.4930 C   0  0  0  0  0  0  0  0  0  0  0  0
  189.3310  177.5170  144.9120 N   0  0  0  0  0  0  0  0  0  0  0  0
  186.8630  177.6960  145.4000 C   0  0  0  0  0  0  0  0  0  0  0  0
  189.1240  178.1090  139.4250 C   0  0  0  0  0  0  0  0  0  0  0  0
  189.3550  177.5070  141.7430 N   0  0  0  0  0  0  0  0  0  0  0  0
  183.5330  179.0210  140.3140 C   0  0  0  0  0  3  0  0  0  0  0  0
  189.7950  177.1620  146.2390 C   0  0  0  0  0  2  0  0  0  0  0  0
  191.6790  177.3380  144.7140 C   0  0  0  0  0  2  0  0  0  0  0  0
  185.3040  178.9700  138.6810 N   0  0  0  0  0  1  0  0  0  0  0  0
  186.1010  178.0190  143.4160 N   0  0  0  0  0  0  0  0  0  0  0  0
  183.0400  178.8880  141.6070 C   0  0  0  0  0  3  0  0  0  0  0  0
  185.7900  178.4620  141.0830 C   0  0  0  0  0  0  0  0  0  0  0  0
  187.4230  177.8040  143.2660 C   0  0  0  0  0  0  0  0  0  0  0  0
  186.8770  177.6080  146.8860 C   0  0  0  0  0  1  0  0  0  0  0  0
  187.9510  177.6140  144.5410 C   0  0  0  0  0  0  0  0  0  0  0  0
  191.3070  177.2610  146.1870 C   0  0  0  0  0  2  0  0  0  0  0  0
  189.8130  175.4250  143.0110 C   0  0  0  0  0  1  0  0  0  0  0  0
  183.9020  178.5460  142.6430 C   0  0  0  0  0  3  0  0  0  0  0  0
  185.2640  178.3300  142.3950 C   0  0  0  0  0  0  0  0  0  0  0  0
  190.2240  176.8690  142.7390 C   0  0  2  0  0  3  0  0  0  0  0  0
  189.7050  178.2710  138.1610 O   0  0  0  0  0  0  0  0  0  0  0  0
  188.8720  177.8880  135.9470 C   0  0  0  0  0  1  0  0  0  0  0  0
  189.0270  178.8860  137.0750 C   0  0  0  0  0  2  0  0  0  0  0  0
  1 19  1  0  0  0  0
  1  4  2  0  0  0  0
  2 13  2  0  0  0  0
  2 19  1  0  0  0  0
  3 10  2  0  0  0  0
  4 20  1  0  0  0  0
  5  1  1  0  0  0  0
  6  8  2  0  0  0  0
  7 15  1  1  0  0  0
  7  9  1  0  0  0  0
  8 12  1  0  0  0  0
  9 14  1  0  0  0  0
 10 21  1  0  0  0  0
 11  5  2  0  0  0  0
 11  8  1  0  0  0  0
 12  4  1  0  0  0  0
 12 27  1  0  0  0  0
 13 18  1  0  0  0  0
 15 23  1  0  0  0  0
 16  2  1  0  0  0  0
 17  3  1  0  0  0  0
 18 25  2  0  0  0  0
 19 26  2  0  0  0  0
 20 17  1  0  0  0  0
 20 22  2  0  0  0  0
 22  9  1  0  0  0  0
 22 10  1  0  0  0  0
 23 14  1  0  0  0  0
 26 25  1  0  0  0  0
 26 17  1  0  0  0  0
 27 24  1  1  0  0  0
 27  7  1  0  0  0  0
 28 11  1  0  0  0  0
 29 30  1  0  0  0  0
 30 28  1  0  0  0  0
M  END
>  <MODEL>
2

>  <REMARK>
 VINA RESULT:      -9.7      1.324      1.647
  Name = 
  2 active torsions:
  status: ('A' for Active; 'I' for Inactive)
    1  A    between atoms: C_11  and  O_28
    2  A    between atoms: O_28  and  C_30
                            x       y       z     vdW  Elec       q    Type
                         _______ _______ _______ _____ _____    ______ ____

>  <TORSDO>
F 2

$$$$
=
 OpenBabel11122410283D

 30 35  0  0  1  0  0  0  0  0999 V2000
  186.6970  177.9540  144.6400 C   0  0  0  0  0  0  0  0  0  0  0  0
  184.2470  178.4660  144.9900 C   0  0  0  0  0  0  0  0  0  0  0  0
  186.3190  178.6750  140.6510 N   0  0  0  0  0  0  0  0  0  0  0  0
  187.8220  177.8880  143.7610 C   0  0  0  0  0  0  0  0  0  0  0  0
  186.8960  177.6270  145.9810 C   0  0  0  0  0  3  0  0  0  0  0  0
  190.3780  176.9980  146.0590 O   0  0  0  0  0  0  0  0  0  0  0  0
  190.3580  176.8600  142.2890 C   0  0  1  0  0  3  0  0  0  0  0  0
  189.2370  177.2850  145.6010 C   0  0  0  0  0  0  0  0  0  0  0  0
  189.6940  177.4850  141.1710 N   0  0  0  0  0  0  0  0  0  0  0  0
  187.5500  178.3850  140.1920 C   0  0  0  0  0  0  0  0  0  0  0  0
  188.1470  177.2720  146.4690 C   0  0  0  0  0  0  0  0  0  0  0  0
  189.0800  177.6150  144.2770 N   0  0  0  0  0  0  0  0  0  0  0  0
  183.0260  178.8630  144.4380 C   0  0  0  0  0  3  0  0  0  0  0  0
  190.5240  177.5460  139.9830 C   0  0  0  0  0  2  0  0  0  0  0  0
  191.7910  176.6260  141.8420 C   0  0  0  0  0  2  0  0  0  0  0  0
  184.2730  178.2020  146.3910 N   0  0  0  0  0  1  0  0  0  0  0  0
  186.3410  178.5100  141.9660 N   0  0  0  0  0  0  0  0  0  0  0  0
  182.9130  179.1450  143.0810 C   0  0  0  0  0  3  0  0  0  0  0  0
  185.4050  178.3460  144.1630 C   0  0  0  0  0  0  0  0  0  0  0  0
  187.5640  178.1310  142.3870 C   0  0  0  0  0  0  0  0  0  0  0  0
  187.9000  178.3950  138.7450 C   0  0  0  0  0  1  0  0  0  0  0  0
  188.3670  178.0180  141.2540 C   0  0  0  0  0  0  0  0  0  0  0  0
  191.7950  176.7970  140.3300 C   0  0  0  0  0  2  0  0  0  0  0  0
  190.6470  179.2330  143.2360 C   0  0  0  0  0  1  0  0  0  0  0  0
  184.0280  179.0320  142.2560 C   0  0  0  0  0  3  0  0  0  0  0  0
  185.2660  178.6400  142.7820 C   0  0  0  0  0  0  0  0  0  0  0  0
  190.3220  177.7660  143.5090 C   0  0  2  0  0  3  0  0  0  0  0  0
  188.3310  176.9250  147.8130 O   0  0  0  0  0  0  0  0  0  0  0  0
  189.5600  178.6290  148.9670 C   0  0  0  0  0  1  0  0  0  0  0  0
  188.2540  177.8710  148.8700 C   0  0  0  0  0  2  0  0  0  0  0  0
  1  5  1  0  0  0  0
  2 16  1  0  0  0  0
  3 17  1  0  0  0  0
  4 12  1  0  0  0  0
  4  1  2  0  0  0  0
  5 11  2  0  0  0  0
  7 15  1  6  0  0  0
  7 27  1  0  0  0  0
  8  6  2  0  0  0  0
  8 11  1  0  0  0  0
  9 22  1  0  0  0  0
  9  7  1  0  0  0  0
 10  3  2  0  0  0  0
 10 22  1  0  0  0  0
 11 28  1  0  0  0  0
 12  8  1  0  0  0  0
 13  2  1  0  0  0  0
 14 23  1  0  0  0  0
 14  9  1  0  0  0  0
 17 20  1  0  0  0  0
 17 26  1  0  0  0  0
 18 13  2  0  0  0  0
 19  1  1  0  0  0  0
 19  2  2  0  0  0  0
 20  4  1  0  0  0  0
 21 10  1  0  0  0  0
 22 20  2  0  0  0  0
 23 15  1  0  0  0  0
 25 26  2  0  0  0  0
 25 18  1  0  0  0  0
 26 19  1  0  0  0  0
 27 24  1  6  0  0  0
 27 12  1  0  0  0  0
 28 30  1  0  0  0  0
 30 29  1  0  0  0  0
M  END
>  <MODEL>
3

>  <REMARK>
 VINA RESULT:      -9.3      2.306      5.357
  Name = 
  2 active torsions:
  status: ('A' for Active; 'I' for Inactive)
    1  A    between atoms: C_11  and  O_28
    2  A    between atoms: O_28  and  C_30
                            x       y       z     vdW  Elec       q    Type
                         _______ _______ _______ _____ _____    ______ ____

>  <TORSDO>
F 2

$$$$
=
 OpenBabel11122410283D

 30 35  0  0  1  0  0  0  0  0999 V2000
  189.2340  177.1680  143.3960 C   0  0  0  0  0  0  0  0  0  0  0  0
  191.1900  176.5150  144.8570 C   0  0  0  0  0  0  0  0  0  0  0  0
  186.9450  177.8440  146.6940 N   0  0  0  0  0  0  0  0  0  0  0  0
  187.8950  177.6560  143.2870 C   0  0  0  0  0  0  0  0  0  0  0  0
  189.9280  176.8970  142.2170 C   0  0  0  0  0  3  0  0  0  0  0  0
  187.5840  177.8870  139.7570 O   0  0  0  0  0  0  0  0  0  0  0  0
  184.9210  177.9440  142.4300 C   0  0  1  0  0  3  0  0  0  0  0  0
  188.0790  177.6570  140.8960 C   0  0  0  0  0  0  0  0  0  0  0  0
  184.7780  178.2620  143.8300 N   0  0  0  0  0  0  0  0  0  0  0  0
  185.7540  178.1580  146.1540 C   0  0  0  0  0  0  0  0  0  0  0  0
  189.3610  177.1150  140.9680 C   0  0  0  0  0  0  0  0  0  0  0  0
  187.3710  177.9490  142.0360 N   0  0  0  0  0  0  0  0  0  0  0  0
  191.7080  176.3520  146.1440 C   0  0  0  0  0  3  0  0  0  0  0  0
  183.4530  178.7460  144.1660 C   0  0  0  0  0  2  0  0  0  0  0  0
  183.6320  178.3970  141.7680 C   0  0  0  0  0  2  0  0  0  0  0  0
  192.0560  176.2190  143.7640 N   0  0  0  0  0  1  0  0  0  0  0  0
  187.7890  177.6410  145.6940 N   0  0  0  0  0  0  0  0  0  0  0  0
  190.9330  176.6220  147.2660 C   0  0  0  0  0  3  0  0  0  0  0  0
  189.8470  176.9650  144.6740 C   0  0  0  0  0  0  0  0  0  0  0  0
  187.1840  177.8270  144.5030 C   0  0  0  0  0  0  0  0  0  0  0  0
  184.5310  178.3960  146.9690 C   0  0  0  0  0  1  0  0  0  0  0  0
  185.8540  178.1410  144.7680 C   0  0  0  0  0  0  0  0  0  0  0  0
  182.6370  178.6280  142.8950 C   0  0  0  0  0  2  0  0  0  0  0  0
  186.2350  180.1450  142.2310 C   0  0  0  0  0  1  0  0  0  0  0  0
  189.6220  177.0590  147.1120 C   0  0  0  0  0  3  0  0  0  0  0  0
  189.0760  177.2360  145.8330 C   0  0  0  0  0  0  0  0  0  0  0  0
  186.1130  178.6760  141.8340 C   0  0  2  0  0  3  0  0  0  0  0  0
  190.0600  176.8200  139.7920 O   0  0  0  0  0  0  0  0  0  0  0  0
  191.9550  176.3790  138.3930 C   0  0  0  0  0  1  0  0  0  0  0  0
  191.4470  177.0820  139.6330 C   0  0  0  0  0  2  0  0  0  0  0  0
  1 19  1  0  0  0  0
  2 13  1  0  0  0  0
  4  1  2  0  0  0  0
  4 20  1  0  0  0  0
  5  1  1  0  0  0  0
  6  8  2  0  0  0  0
  7 15  1  6  0  0  0
  7  9  1  0  0  0  0
  8 11  1  0  0  0  0
  8 12  1  0  0  0  0
  9 14  1  0  0  0  0
  9 22  1  0  0  0  0
 10  3  2  0  0  0  0
 10 21  1  0  0  0  0
 11  5  2  0  0  0  0
 12  4  1  0  0  0  0
 13 18  2  0  0  0  0
 15 23  1  0  0  0  0
 16  2  1  0  0  0  0
 17 26  1  0  0  0  0
 17  3  1  0  0  0  0
 19  2  2  0  0  0  0
 19 26  1  0  0  0  0
 20 22  2  0  0  0  0
 20 17  1  0  0  0  0
 22 10  1  0  0  0  0
 23 14  1  0  0  0  0
 25 18  1  0  0  0  0
 26 25  2  0  0  0  0
 27 12  1  0  0  0  0
 27 24  1  1  0  0  0
 27  7  1  0  0  0  0
 28 11  1  0  0  0  0
 29 30  1  0  0  0  0
 30 28  1  0  0  0  0
M  END
>  <MODEL>
4

>  <REMARK>
 VINA RESULT:      -8.9      1.658      5.498
  Name = 
  2 active torsions:
  status: ('A' for Active; 'I' for Inactive)
    1  A    between atoms: C_11  and  O_28
    2  A    between atoms: O_28  and  C_30
                            x       y       z     vdW  Elec       q    Type
                         _______ _______ _______ _____ _____    ______ ____

>  <TORSDO>
F 2

$$$$
=
 OpenBabel11122410283D

 30 35  0  0  1  0  0  0  0  0999 V2000
  187.4170  177.6600  143.3800 C   0  0  0  0  0  0  0  0  0  0  0  0
  186.1680  178.0200  145.5470 C   0  0  0  0  0  0  0  0  0  0  0  0
  184.2490  179.1040  141.2680 N   0  0  0  0  0  0  0  0  0  0  0  0
  187.4680  177.7950  141.9570 C   0  0  0  0  0  0  0  0  0  0  0  0
  188.5170  177.0930  144.0220 C   0  0  0  0  0  3  0  0  0  0  0  0
  190.7390  176.5710  141.3170 O   0  0  0  0  0  0  0  0  0  0  0  0
  187.8610  177.1420  138.9450 C   0  0  1  0  0  3  0  0  0  0  0  0
  189.6940  176.9030  141.9440 C   0  0  0  0  0  0  0  0  0  0  0  0
  186.6660  177.9440  138.8410 N   0  0  0  0  0  0  0  0  0  0  0  0
  184.6590  178.9440  139.9960 C   0  0  0  0  0  0  0  0  0  0  0  0
  189.6470  176.6940  143.3200 C   0  0  0  0  0  0  0  0  0  0  0  0
  188.6340  177.4710  141.2800 N   0  0  0  0  0  0  0  0  0  0  0  0
  185.0140  178.4750  146.1910 C   0  0  0  0  0  3  0  0  0  0  0  0
  186.3100  178.2530  137.4700 C   0  0  0  0  0  2  0  0  0  0  0  0
  188.4160  177.0410  137.5350 C   0  0  0  0  0  2  0  0  0  0  0  0
  187.2100  177.4990  146.3680 N   0  0  0  0  0  1  0  0  0  0  0  0
  185.2360  178.6970  142.0530 N   0  0  0  0  0  0  0  0  0  0  0  0
  183.9520  179.0030  145.4660 C   0  0  0  0  0  3  0  0  0  0  0  0
  186.2730  178.0930  144.1250 C   0  0  0  0  0  0  0  0  0  0  0  0
  186.2940  178.2840  141.3270 C   0  0  0  0  0  0  0  0  0  0  0  0
  183.7920  179.2370  138.8220 C   0  0  0  0  0  1  0  0  0  0  0  0
  185.9410  178.4100  139.9860 C   0  0  0  0  0  0  0  0  0  0  0  0
  187.2980  177.4930  136.6070 C   0  0  0  0  0  2  0  0  0  0  0  0
  189.0550  179.3030  139.6620 C   0  0  0  0  0  1  0  0  0  0  0  0
  184.0320  179.0810  144.0800 C   0  0  0  0  0  3  0  0  0  0  0  0
  185.1770  178.6370  143.4070 C   0  0  0  0  0  0  0  0  0  0  0  0
  188.8710  177.8020  139.8700 C   0  0  2  0  0  3  0  0  0  0  0  0
  190.7380  176.1070  143.9720 O   0  0  0  0  0  0  0  0  0  0  0  0
  191.6790  176.3780  146.1600 C   0  0  0  0  0  1  0  0  0  0  0  0
  191.6810  176.8580  144.7250 C   0  0  0  0  0  2  0  0  0  0  0  0
  1  5  1  0  0  0  0
  1 19  1  0  0  0  0
  2 13  1  0  0  0  0
  2 16  1  0  0  0  0
  3 17  1  0  0  0  0
  4  1  2  0  0  0  0
  6  8  2  0  0  0  0
  7 15  1  6  0  0  0
  7 27  1  0  0  0  0
  8 11  1  0  0  0  0
  9  7  1  0  0  0  0
  9 22  1  0  0  0  0
 10  3  2  0  0  0  0
 11 28  1  0  0  0  0
 11  5  2  0  0  0  0
 12  8  1  0  0  0  0
 12  4  1  0  0  0  0
 14  9  1  0  0  0  0
 17 26  1  0  0  0  0
 18 13  2  0  0  0  0
 19  2  2  0  0  0  0
 20  4  1  0  0  0  0
 20 17  1  0  0  0  0
 21 10  1  0  0  0  0
 22 10  1  0  0  0  0
 22 20  2  0  0  0  0
 23 14  1  0  0  0  0
 23 15  1  0  0  0  0
 25 18  1  0  0  0  0
 26 25  2  0  0  0  0
 26 19  1  0  0  0  0
 27 24  1  1  0  0  0
 27 12  1  0  0  0  0
 28 30  1  0  0  0  0
 30 29  1  0  0  0  0
M  END
>  <MODEL>
5

>  <REMARK>
 VINA RESULT:      -8.6      1.691      5.607
  Name = 
  2 active torsions:
  status: ('A' for Active; 'I' for Inactive)
    1  A    between atoms: C_11  and  O_28
    2  A    between atoms: O_28  and  C_30
                            x       y       z     vdW  Elec       q    Type
                         _______ _______ _______ _____ _____    ______ ____

>  <TORSDO>
F 2

$$$$
=
 OpenBabel11122410283D

 30 35  0  0  1  0  0  0  0  0999 V2000
  185.8640  178.3990  142.3140 C   0  0  0  0  0  0  0  0  0  0  0  0
  186.5670  178.3400  144.7410 C   0  0  0  0  0  0  0  0  0  0  0  0
  181.9600  178.7640  143.4120 N   0  0  0  0  0  0  0  0  0  0  0  0
  184.8260  178.5470  141.3410 C   0  0  0  0  0  0  0  0  0  0  0  0
  187.1670  178.2120  141.8550 C   0  0  0  0  0  3  0  0  0  0  0  0
  186.7340  178.4280  138.3490 O   0  0  0  0  0  0  0  0  0  0  0  0
  183.0150  178.0570  138.8650 C   0  0  1  0  0  3  0  0  0  0  0  0
  186.4460  178.4090  139.5780 C   0  0  0  0  0  0  0  0  0  0  0  0
  181.9940  178.4370  139.8110 N   0  0  0  0  0  0  0  0  0  0  0  0
  181.3280  178.7440  142.2240 C   0  0  0  0  0  0  0  0  0  0  0  0
  187.4690  178.1930  140.4990 C   0  0  0  0  0  0  0  0  0  0  0  0
  185.1530  178.6110  139.9950 N   0  0  0  0  0  0  0  0  0  0  0  0
  186.1950  178.4030  146.0860 C   0  0  0  0  0  3  0  0  0  0  0  0
  180.6930  178.6190  139.1960 C   0  0  0  0  0  2  0  0  0  0  0  0
  182.3630  178.1410  137.4960 C   0  0  0  0  0  2  0  0  0  0  0  0
  187.9540  178.1760  144.4550 N   0  0  0  0  0  1  0  0  0  0  0  0
  183.2600  178.6900  143.1670 N   0  0  0  0  0  0  0  0  0  0  0  0
  184.8640  178.5660  146.4540 C   0  0  0  0  0  3  0  0  0  0  0  0
  185.5770  178.4450  143.7160 C   0  0  0  0  0  0  0  0  0  0  0  0
  183.5010  178.6370  141.8410 C   0  0  0  0  0  0  0  0  0  0  0  0
  179.8450  178.7480  142.0950 C   0  0  0  0  0  1  0  0  0  0  0  0
  182.2640  178.6460  141.2020 C   0  0  0  0  0  0  0  0  0  0  0  0
  180.8640  178.2140  137.7460 C   0  0  0  0  0  2  0  0  0  0  0  0
  183.8450  180.4840  139.0300 C   0  0  0  0  0  1  0  0  0  0  0  0
  183.8840  178.6690  145.4730 C   0  0  0  0  0  3  0  0  0  0  0  0
  184.2260  178.6130  144.1150 C   0  0  0  0  0  0  0  0  0  0  0  0
  184.2020  179.0020  138.9480 C   0  0  2  0  0  3  0  0  0  0  0  0
  188.7780  177.9830  140.0500 O   0  0  0  0  0  0  0  0  0  0  0  0
  190.9750  177.0290  139.9900 C   0  0  0  0  0  1  0  0  0  0  0  0
  189.7800  177.3730  140.8510 C   0  0  0  0  0  2  0  0  0  0  0  0
  1 19  1  0  0  0  0
  2 13  1  0  0  0  0
  4 20  1  0  0  0  0
  4  1  2  0  0  0  0
  5  1  1  0  0  0  0
  6  8  2  0  0  0  0
  7 15  1  6  0  0  0
  7 27  1  0  0  0  0
  7  9  1  0  0  0  0
  8 12  1  0  0  0  0
  8 11  1  0  0  0  0
  9 22  1  0  0  0  0
 10  3  2  0  0  0  0
 11  5  2  0  0  0  0
 12  4  1  0  0  0  0
 13 18  2  0  0  0  0
 14  9  1  0  0  0  0
 15 23  1  0  0  0  0
 16  2  1  0  0  0  0
 17  3  1  0  0  0  0
 17 26  1  0  0  0  0
 19 26  1  0  0  0  0
 19  2  2  0  0  0  0
 20 17  1  0  0  0  0
 21 10  1  0  0  0  0
 22 20  2  0  0  0  0
 22 10  1  0  0  0  0
 23 14  1  0  0  0  0
 25 18  1  0  0  0  0
 26 25  2  0  0  0  0
 27 24  1  1  0  0  0
 27 12  1  0  0  0  0
 28 11  1  0  0  0  0
 28 30  1  0  0  0  0
 29 30  1  0  0  0  0
M  END
>  <MODEL>
6

>  <REMARK>
 VINA RESULT:      -8.2      2.211      6.168
  Name = 
  2 active torsions:
  status: ('A' for Active; 'I' for Inactive)
    1  A    between atoms: C_11  and  O_28
    2  A    between atoms: O_28  and  C_30
                            x       y       z     vdW  Elec       q    Type
                         _______ _______ _______ _____ _____    ______ ____

>  <TORSDO>
F 2

$$$$
=
 OpenBabel11122410283D

 30 35  0  0  1  0  0  0  0  0999 V2000
  188.2950  177.9760  141.3110 C   0  0  0  0  0  0  0  0  0  0  0  0
  189.2750  177.8420  143.6370 C   0  0  0  0  0  0  0  0  0  0  0  0
  191.7690  176.5660  139.7230 N   0  0  0  0  0  0  0  0  0  0  0  0
  188.4310  177.7360  139.9080 C   0  0  0  0  0  0  0  0  0  0  0  0
  187.0970  178.5230  141.7670 C   0  0  0  0  0  3  0  0  0  0  0  0
  185.2130  178.7240  138.7760 O   0  0  0  0  0  0  0  0  0  0  0  0
  188.3930  178.1490  136.8280 C   0  0  1  0  0  3  0  0  0  0  0  0
  186.1850  178.4980  139.5510 C   0  0  0  0  0  0  0  0  0  0  0  0
  189.6280  177.4110  136.9350 N   0  0  0  0  0  0  0  0  0  0  0  0
  191.5170  176.6120  138.4020 C   0  0  0  0  0  0  0  0  0  0  0  0
  186.0480  178.8070  140.9020 C   0  0  0  0  0  0  0  0  0  0  0  0
  187.3460  177.9450  139.0690 N   0  0  0  0  0  0  0  0  0  0  0  0
  190.3580  177.5000  144.4510 C   0  0  0  0  0  3  0  0  0  0  0  0
  190.1690  177.0260  135.6460 C   0  0  0  0  0  2  0  0  0  0  0  0
  188.0170  178.1170  135.3570 C   0  0  0  0  0  2  0  0  0  0  0  0
  188.1140  178.3610  144.2800 N   0  0  0  0  0  1  0  0  0  0  0  0
  190.6730  176.9720  140.3470 N   0  0  0  0  0  0  0  0  0  0  0  0
  191.5270  176.9830  143.9050 C   0  0  0  0  0  3  0  0  0  0  0  0
  189.3540  177.6620  142.2220 C   0  0  0  0  0  0  0  0  0  0  0  0
  189.6970  177.2710  139.4660 C   0  0  0  0  0  0  0  0  0  0  0  0
  192.5390  176.2850  137.3700 C   0  0  0  0  0  1  0  0  0  0  0  0
  190.2230  177.0700  138.1920 C   0  0  0  0  0  0  0  0  0  0  0  0
  189.2630  177.6650  134.6120 C   0  0  0  0  0  2  0  0  0  0  0  0
  187.2210  175.9810  137.5590 C   0  0  0  0  0  1  0  0  0  0  0  0
  191.6280  176.8020  142.5300 C   0  0  0  0  0  3  0  0  0  0  0  0
  190.5570  177.1310  141.6880 C   0  0  0  0  0  0  0  0  0  0  0  0
  187.3060  177.5010  137.6700 C   0  0  2  0  0  3  0  0  0  0  0  0
  184.8560  179.3760  141.3680 O   0  0  0  0  0  0  0  0  0  0  0  0
  183.9210  179.0930  143.5560 C   0  0  0  0  0  1  0  0  0  0  0  0
  183.8920  178.6440  142.1110 C   0  0  0  0  0  2  0  0  0  0  0  0
  1  5  1  0  0  0  0
  1 19  1  0  0  0  0
  2 16  1  0  0  0  0
  2 13  1  0  0  0  0
  3 17  1  0  0  0  0
  4  1  2  0  0  0  0
  6  8  2  0  0  0  0
  7 15  1  6  0  0  0
  7  9  1  0  0  0  0
  7 27  1  0  0  0  0
  8 11  1  0  0  0  0
  9 22  1  0  0  0  0
 10  3  2  0  0  0  0
 11 28  1  0  0  0  0
 11  5  2  0  0  0  0
 12  8  1  0  0  0  0
 12  4  1  0  0  0  0
 14  9  1  0  0  0  0
 17 26  1  0  0  0  0
 18 13  2  0  0  0  0
 19  2  2  0  0  0  0
 20  4  1  0  0  0  0
 20 17  1  0  0  0  0
 21 10  1  0  0  0  0
 22 10  1  0  0  0  0
 22 20  2  0  0  0  0
 23 15  1  0  0  0  0
 23 14  1  0  0  0  0
 25 18  1  0  0  0  0
 26 19  1  0  0  0  0
 26 25  2  0  0  0  0
 27 24  1  1  0  0  0
 27 12  1  0  0  0  0
 28 30  1  0  0  0  0
 30 29  1  0  0  0  0
M  END
>  <MODEL>
7

>  <REMARK>
 VINA RESULT:      -8.0      2.523      6.946
  Name = 
  2 active torsions:
  status: ('A' for Active; 'I' for Inactive)
    1  A    between atoms: C_11  and  O_28
    2  A    between atoms: O_28  and  C_30
                            x       y       z     vdW  Elec       q    Type
                         _______ _______ _______ _____ _____    ______ ____

>  <TORSDO>
F 2

$$$$
=
 OpenBabel11122410283D

 30 35  0  0  1  0  0  0  0  0999 V2000
  187.9640  177.7050  145.1210 C   0  0  0  0  0  0  0  0  0  0  0  0
  185.8860  178.2130  146.4660 C   0  0  0  0  0  0  0  0  0  0  0  0
  185.9770  178.5310  141.6640 N   0  0  0  0  0  0  0  0  0  0  0  0
  188.6240  177.6600  143.8530 C   0  0  0  0  0  0  0  0  0  0  0  0
  188.6970  177.3420  146.2500 C   0  0  0  0  0  3  0  0  0  0  0  0
  191.8910  176.7040  144.8630 O   0  0  0  0  0  0  0  0  0  0  0  0
  190.3080  176.6650  141.4380 C   0  0  1  0  0  3  0  0  0  0  0  0
  190.6660  177.0060  144.9260 C   0  0  0  0  0  0  0  0  0  0  0  0
  189.2490  177.3200  140.7110 N   0  0  0  0  0  0  0  0  0  0  0  0
  186.9040  178.2510  140.7300 C   0  0  0  0  0  0  0  0  0  0  0  0
  190.0330  176.9730  146.1670 C   0  0  0  0  0  0  0  0  0  0  0  0
  189.9790  177.3710  143.7940 N   0  0  0  0  0  0  0  0  0  0  0  0
  184.5520  178.6280  146.4790 C   0  0  0  0  0  3  0  0  0  0  0  0
  189.5120  177.4110  139.2880 C   0  0  0  0  0  2  0  0  0  0  0  0
  191.4240  176.4400  140.4330 C   0  0  0  0  0  2  0  0  0  0  0  0
  186.4870  177.9120  147.7230 N   0  0  0  0  0  1  0  0  0  0  0  0
  186.5400  178.3320  142.8480 N   0  0  0  0  0  0  0  0  0  0  0  0
  183.8910  178.9450  145.2980 C   0  0  0  0  0  3  0  0  0  0  0  0
  186.5960  178.1120  145.2310 C   0  0  0  0  0  0  0  0  0  0  0  0
  187.8220  177.9400  142.7150 C   0  0  0  0  0  0  0  0  0  0  0  0
  186.6230  178.2990  139.2690 C   0  0  0  0  0  1  0  0  0  0  0  0
  188.0820  177.8540  141.3490 C   0  0  0  0  0  0  0  0  0  0  0  0
  190.8030  176.6510  139.0600 C   0  0  0  0  0  2  0  0  0  0  0  0
  190.9940  179.0110  142.2350 C   0  0  0  0  0  1  0  0  0  0  0  0
  184.5620  178.8510  144.0830 C   0  0  0  0  0  3  0  0  0  0  0  0
  185.9010  178.4430  144.0390 C   0  0  0  0  0  0  0  0  0  0  0  0
  190.7920  177.5390  142.5840 C   0  0  2  0  0  3  0  0  0  0  0  0
  190.7530  176.5900  147.3050 O   0  0  0  0  0  0  0  0  0  0  0  0
  192.8020  175.6290  148.0940 C   0  0  0  0  0  1  0  0  0  0  0  0
  191.4920  175.3790  147.3780 C   0  0  0  0  0  2  0  0  0  0  0  0
  1 19  1  0  0  0  0
  1  5  1  0  0  0  0
  2 13  1  0  0  0  0
  2 16  1  0  0  0  0
  3 17  1  0  0  0  0
  4  1  2  0  0  0  0
  6  8  2  0  0  0  0
  7 15  1  6  0  0  0
  7 27  1  0  0  0  0
  8 11  1  0  0  0  0
  9 22  1  0  0  0  0
  9  7  1  0  0  0  0
 10 22  1  0  0  0  0
 10  3  2  0  0  0  0
 11  5  2  0  0  0  0
 11 28  1  0  0  0  0
 12  4  1  0  0  0  0
 12  8  1  0  0  0  0
 14  9  1  0  0  0  0
 17 26  1  0  0  0  0
 18 13  2  0  0  0  0
 19  2  2  0  0  0  0
 20 17  1  0  0  0  0
 20  4  1  0  0  0  0
 21 10  1  0  0  0  0
 22 20  2  0  0  0  0
 23 14  1  0  0  0  0
 23 15  1  0  0  0  0
 25 18  1  0  0  0  0
 26 25  2  0  0  0  0
 26 19  1  0  0  0  0
 27 24  1  6  0  0  0
 27 12  1  0  0  0  0
 28 30  1  0  0  0  0
 30 29  1  0  0  0  0
M  END
>  <MODEL>
8

>  <REMARK>
 VINA RESULT:      -7.9      2.394      5.626
  Name = 
  2 active torsions:
  status: ('A' for Active; 'I' for Inactive)
    1  A    between atoms: C_11  and  O_28
    2  A    between atoms: O_28  and  C_30
                            x       y       z     vdW  Elec       q    Type
                         _______ _______ _______ _____ _____    ______ ____

>  <TORSDO>
F 2

$$$$
=
 OpenBabel11122410283D

 30 35  0  0  1  0  0  0  0  0999 V2000
  185.3990  178.4450  141.6460 C   0  0  0  0  0  0  0  0  0  0  0  0
  185.3470  178.4150  144.1730 C   0  0  0  0  0  0  0  0  0  0  0  0
  189.3530  177.4730  141.6760 N   0  0  0  0  0  0  0  0  0  0  0  0
  186.1240  178.2320  140.4320 C   0  0  0  0  0  0  0  0  0  0  0  0
  184.0660  178.8420  141.5500 C   0  0  0  0  0  3  0  0  0  0  0  0
  183.5640  178.8340  138.0460 O   0  0  0  0  0  0  0  0  0  0  0  0
  187.3060  178.6580  137.5900 C   0  0  1  0  0  3  0  0  0  0  0  0
  184.1520  178.7210  139.1580 C   0  0  0  0  0  0  0  0  0  0  0  0
  188.4620  178.0730  138.2230 N   0  0  0  0  0  0  0  0  0  0  0  0
  189.6610  177.4970  140.3670 C   0  0  0  0  0  0  0  0  0  0  0  0
  183.4390  179.0030  140.3210 C   0  0  0  0  0  0  0  0  0  0  0  0
  185.4620  178.3150  139.2160 N   0  0  0  0  0  0  0  0  0  0  0  0
  186.0320  178.2010  145.3720 C   0  0  0  0  0  3  0  0  0  0  0  0
  189.5240  177.7630  137.2850 C   0  0  0  0  0  2  0  0  0  0  0  0
  187.5710  178.5900  136.0970 C   0  0  0  0  0  2  0  0  0  0  0  0
  183.9740  178.7870  144.2640 N   0  0  0  0  0  1  0  0  0  0  0  0
  188.0590  177.7400  141.7800 N   0  0  0  0  0  0  0  0  0  0  0  0
  187.3720  177.8320  145.3740 C   0  0  0  0  0  3  0  0  0  0  0  0
  186.0190  178.2550  142.9230 C   0  0  0  0  0  0  0  0  0  0  0  0
  187.5030  177.9260  140.5660 C   0  0  0  0  0  0  0  0  0  0  0  0
  191.0450  177.3020  139.8550 C   0  0  0  0  0  1  0  0  0  0  0  0
  188.5240  177.7970  139.6270 C   0  0  0  0  0  0  0  0  0  0  0  0
  189.0560  178.2960  135.9450 C   0  0  0  0  0  2  0  0  0  0  0  0
  186.1880  176.3600  137.8730 C   0  0  0  0  0  1  0  0  0  0  0  0
  188.0470  177.6720  144.1680 C   0  0  0  0  0  3  0  0  0  0  0  0
  187.3860  177.8760  142.9500 C   0  0  0  0  0  0  0  0  0  0  0  0
  186.0490  177.8780  137.9430 C   0  0  2  0  0  3  0  0  0  0  0  0
  182.1050  179.4220  140.2360 O   0  0  0  0  0  0  0  0  0  0  0  0
  180.7910  177.4180  140.2480 C   0  0  0  0  0  1  0  0  0  0  0  0
  181.0440  178.7570  140.9070 C   0  0  0  0  0  2  0  0  0  0  0  0
  1 19  1  0  0  0  0
  2 16  1  0  0  0  0
  2 13  1  0  0  0  0
  3 17  1  0  0  0  0
  4 20  1  0  0  0  0
  4  1  2  0  0  0  0
  5  1  1  0  0  0  0
  6  8  2  0  0  0  0
  7 15  1  6  0  0  0
  7 27  1  0  0  0  0
  7  9  1  0  0  0  0
  8 12  1  0  0  0  0
  8 11  1  0  0  0  0
  9 22  1  0  0  0  0
 10  3  2  0  0  0  0
 11  5  2  0  0  0  0
 12  4  1  0  0  0  0
 13 18  2  0  0  0  0
 14  9  1  0  0  0  0
 17 26  1  0  0  0  0
 19 26  1  0  0  0  0
 19  2  2  0  0  0  0
 20 17  1  0  0  0  0
 21 10  1  0  0  0  0
 22 10  1  0  0  0  0
 22 20  2  0  0  0  0
 23 15  1  0  0  0  0
 23 14  1  0  0  0  0
 25 18  1  0  0  0  0
 26 25  2  0  0  0  0
 27 24  1  1  0  0  0
 27 12  1  0  0  0  0
 28 11  1  0  0  0  0
 28 30  1  0  0  0  0
 29 30  1  0  0  0  0
M  END
>  <MODEL>
9

>  <REMARK>
 VINA RESULT:      -7.5      2.365      5.659
  Name = 
  2 active torsions:
  status: ('A' for Active; 'I' for Inactive)
    1  A    between atoms: C_11  and  O_28
    2  A    between atoms: O_28  and  C_30
                            x       y       z     vdW  Elec       q    Type
                         _______ _______ _______ _____ _____    ______ ____

>  <TORSDO>
F 2

$$$$
