=
 OpenBabel11122411263D

 37 43  0  0  1  0  0  0  0  0999 V2000
  182.5220  180.1400  138.8050 C   0  0  0  0  0  2  0  0  0  0  0  0
  185.2440  178.7210  143.2620 C   0  0  0  0  0  0  0  0  0  0  0  0
  185.7460  178.5790  138.9350 C   0  0  1  0  0  3  0  0  0  0  0  0
  181.2940  180.6480  138.0890 C   0  0  0  0  0  0  0  0  0  0  0  0
  183.0410  175.7940  138.2170 C   0  0  0  0  0  2  0  0  0  0  0  0
  186.7410  178.2080  141.2500 C   0  0  1  0  0  3  0  0  0  0  0  0
  184.3530  177.9830  138.6760 C   0  0  1  0  0  3  0  0  0  0  0  0
  181.1600  178.6660  136.6800 C   0  0  0  0  0  0  0  0  0  0  0  0
  185.7520  179.0140  140.3940 C   0  0  2  0  0  3  0  0  0  0  0  0
  184.3840  176.5320  138.1370 C   0  0  2  0  0  3  0  0  0  0  0  0
  188.1630  178.3220  140.7010 C   0  0  0  0  0  2  0  0  0  0  0  0
  180.7740  179.9870  137.0950 N   0  0  0  0  0  0  0  0  0  0  0  0
  184.3130  178.8700  140.8860 C   0  0  2  0  0  3  0  0  0  0  0  0
  184.9210  180.1520  143.6500 C   0  0  0  0  0  1  0  0  0  0  0  0
  187.0700  177.4020  137.0750 C   0  0  0  0  0  2  0  0  0  0  0  0
  188.2350  178.1430  139.1750 C   0  0  0  0  0  2  0  0  0  0  0  0
  184.1930  178.2070  142.2670 C   0  0  0  0  0  2  0  0  0  0  0  0
  181.5190  177.6680  137.6550 N   0  0  0  0  0  0  0  0  0  0  0  0
  181.9770  176.3370  137.2570 C   0  0  0  0  0  2  0  0  0  0  0  0
  186.9210  177.6380  138.5800 C   0  0  1  0  0  3  0  0  0  0  0  0
  183.5430  178.1140  139.9010 N   0  0  1  0  0  0  0  0  0  0  0  0
  186.6770  178.6660  142.7050 C   0  0  0  0  0  2  0  0  0  0  0  0
  184.9710  176.4520  136.7100 C   0  0  1  0  0  3  0  0  0  0  0  0
  185.1800  177.8650  144.5090 C   0  0  0  0  0  1  0  0  0  0  0  0
  181.2370  177.9240  139.0610 C   0  0  0  0  0  2  0  0  0  0  0  0
  180.9610  178.2620  135.1030 S   0  0  0  0  0  0  0  0  0  0  0  0
  182.2960  178.8570  139.6390 C   0  0  2  0  0  3  0  0  0  0  0  0
  185.8510  177.5110  136.3690 O   0  0  0  0  0  0  0  0  0  0  0  0
  185.2210  174.6400  135.0010 C   0  0  0  0  0  3  0  0  0  0  0  0
  185.4630  175.0910  136.3020 C   0  0  0  0  0  0  0  0  0  0  0  0
  186.1820  174.2810  137.1950 C   0  0  0  0  0  3  0  0  0  0  0  0
  187.3340  172.2450  137.6520 F   0  0  0  0  0  0  0  0  0  0  0  0
  186.3920  172.5770  135.4880 C   0  0  0  0  0  3  0  0  0  0  0  0
  186.6430  173.0250  136.7870 C   0  0  0  0  0  0  0  0  0  0  0  0
  185.6830  173.3840  134.5940 C   0  0  0  0  0  3  0  0  0  0  0  0
  180.7670  182.9670  137.2320 C   0  0  0  0  0  1  0  0  0  0  0  0
  180.7220  182.0000  138.4040 C   0  0  0  0  0  2  0  0  0  0  0  0
  1 27  1  0  0  0  0
  2 14  1  0  0  0  0
  2 24  1  0  0  0  0
  3  9  1  0  0  0  0
  4 37  1  0  0  0  0
  4  1  1  0  0  0  0
  6 22  1  0  0  0  0
  7  3  1  0  0  0  0
  7 21  1  0  0  0  0
  8 12  1  0  0  0  0
  8 18  1  0  0  0  0
  9 13  1  0  0  0  0
  9  6  1  0  0  0  0
 10  5  1  0  0  0  0
 10  7  1  0  0  0  0
 11  6  1  0  0  0  0
 12  4  2  0  0  0  0
 13 17  1  0  0  0  0
 15 20  1  0  0  0  0
 16 11  1  0  0  0  0
 17  2  1  0  0  0  0
 18 25  1  0  0  0  0
 19 18  1  0  0  0  0
 19  5  1  0  0  0  0
 20  3  1  0  0  0  0
 20 16  1  0  0  0  0
 21 13  1  0  0  0  0
 22  2  1  0  0  0  0
 23 10  1  0  0  0  0
 25 27  1  0  0  0  0
 26  8  2  0  0  0  0
 27 21  1  0  0  0  0
 28 23  1  0  0  0  0
 28 15  1  0  0  0  0
 29 30  1  0  0  0  0
 30 23  1  0  0  0  0
 30 31  2  0  0  0  0
 33 34  2  0  0  0  0
 34 31  1  0  0  0  0
 34 32  1  0  0  0  0
 35 29  2  0  0  0  0
 35 33  1  0  0  0  0
 36 37  1  0  0  0  0
M  END
>  <MODEL>
1

>  <REMARK>
 VINA RESULT:      -6.7      0.000      0.000
  Name = 
  2 active torsions:
  status: ('A' for Active; 'I' for Inactive)
    1  A    between atoms: C_4  and  C_37
    2  A    between atoms: C_23  and  C_30
                            x       y       z     vdW  Elec       q    Type
                         _______ _______ _______ _____ _____    ______ ____

>  <TORSDO>
F 2

$$$$
=
 OpenBabel11122411263D

 37 43  0  0  1  0  0  0  0  0999 V2000
  182.4560  179.9580  138.7340 C   0  0  0  0  0  2  0  0  0  0  0  0
  185.4820  178.6230  143.0170 C   0  0  0  0  0  0  0  0  0  0  0  0
  185.7300  178.5000  138.6680 C   0  0  1  0  0  3  0  0  0  0  0  0
  181.1710  180.4270  138.0940 C   0  0  0  0  0  0  0  0  0  0  0  0
  183.0770  175.6310  138.1050 C   0  0  0  0  0  2  0  0  0  0  0  0
  186.8720  178.1590  140.9190 C   0  0  1  0  0  3  0  0  0  0  0  0
  184.3430  177.8600  138.4900 C   0  0  1  0  0  3  0  0  0  0  0  0
  181.0170  178.4420  136.6900 C   0  0  0  0  0  0  0  0  0  0  0  0
  185.8090  178.9340  140.1250 C   0  0  2  0  0  3  0  0  0  0  0  0
  184.3890  176.4110  137.9470 C   0  0  2  0  0  3  0  0  0  0  0  0
  188.2550  178.3200  140.2860 C   0  0  0  0  0  2  0  0  0  0  0  0
  180.6150  179.7490  137.1310 N   0  0  0  0  0  0  0  0  0  0  0  0
  184.4070  178.7440  140.7010 C   0  0  2  0  0  3  0  0  0  0  0  0
  185.1380  180.0420  143.4280 C   0  0  0  0  0  1  0  0  0  0  0  0
  186.9780  177.3670  136.7290 C   0  0  0  0  0  2  0  0  0  0  0  0
  188.2410  178.1450  138.7580 C   0  0  0  0  0  2  0  0  0  0  0  0
  184.3910  178.0760  142.0850 C   0  0  0  0  0  2  0  0  0  0  0  0
  181.4650  177.4550  137.6390 N   0  0  0  0  0  0  0  0  0  0  0  0
  181.9410  176.1400  137.2120 C   0  0  0  0  0  2  0  0  0  0  0  0
  186.9120  177.5980  138.2410 C   0  0  1  0  0  3  0  0  0  0  0  0
  183.6040  177.9650  139.7620 N   0  0  1  0  0  0  0  0  0  0  0  0
  186.8810  178.6140  142.3760 C   0  0  0  0  0  2  0  0  0  0  0  0
  184.8930  176.3520  136.4870 C   0  0  1  0  0  3  0  0  0  0  0  0
  185.5210  177.7640  144.2640 C   0  0  0  0  0  1  0  0  0  0  0  0
  181.2590  177.7010  139.0600 C   0  0  0  0  0  2  0  0  0  0  0  0
  180.7380  178.0330  135.1270 S   0  0  0  0  0  0  0  0  0  0  0  0
  182.3210  178.6680  139.5770 C   0  0  2  0  0  3  0  0  0  0  0  0
  185.7160  177.4380  136.0970 O   0  0  0  0  0  0  0  0  0  0  0  0
  186.7680  174.7260  136.1540 C   0  0  0  0  0  3  0  0  0  0  0  0
  185.4020  175.0070  136.0470 C   0  0  0  0  0  0  0  0  0  0  0  0
  184.5280  174.0230  135.5590 C   0  0  0  0  0  3  0  0  0  0  0  0
  184.1760  171.8290  134.6980 F   0  0  0  0  0  0  0  0  0  0  0  0
  186.3890  172.5020  135.2750 C   0  0  0  0  0  3  0  0  0  0  0  0
  185.0230  172.7740  135.1710 C   0  0  0  0  0  0  0  0  0  0  0  0
  187.2620  173.4760  135.7670 C   0  0  0  0  0  3  0  0  0  0  0  0
  179.0610  181.7970  138.3310 C   0  0  0  0  0  1  0  0  0  0  0  0
  180.5760  181.7590  138.4460 C   0  0  0  0  0  2  0  0  0  0  0  0
  1 27  1  0  0  0  0
  2 14  1  0  0  0  0
  2 24  1  0  0  0  0
  3  9  1  0  0  0  0
  4 37  1  0  0  0  0
  4  1  1  0  0  0  0
  6 22  1  0  0  0  0
  7  3  1  0  0  0  0
  7 21  1  0  0  0  0
  8 12  1  0  0  0  0
  8 18  1  0  0  0  0
  9 13  1  0  0  0  0
  9  6  1  0  0  0  0
 10  5  1  0  0  0  0
 10  7  1  0  0  0  0
 11  6  1  0  0  0  0
 12  4  2  0  0  0  0
 13 17  1  0  0  0  0
 15 20  1  0  0  0  0
 16 11  1  0  0  0  0
 17  2  1  0  0  0  0
 18 25  1  0  0  0  0
 19 18  1  0  0  0  0
 19  5  1  0  0  0  0
 20  3  1  0  0  0  0
 20 16  1  0  0  0  0
 21 13  1  0  0  0  0
 22  2  1  0  0  0  0
 23 10  1  0  0  0  0
 25 27  1  0  0  0  0
 26  8  2  0  0  0  0
 27 21  1  0  0  0  0
 28 23  1  0  0  0  0
 28 15  1  0  0  0  0
 30 29  1  0  0  0  0
 30 23  1  0  0  0  0
 31 30  2  0  0  0  0
 32 34  1  0  0  0  0
 33 35  1  0  0  0  0
 34 33  2  0  0  0  0
 34 31  1  0  0  0  0
 35 29  2  0  0  0  0
 36 37  1  0  0  0  0
M  END
>  <MODEL>
2

>  <REMARK>
 VINA RESULT:      -5.3      0.902      1.108
  Name = 
  2 active torsions:
  status: ('A' for Active; 'I' for Inactive)
    1  A    between atoms: C_4  and  C_37
    2  A    between atoms: C_23  and  C_30
                            x       y       z     vdW  Elec       q    Type
                         _______ _______ _______ _____ _____    ______ ____

>  <TORSDO>
F 2

$$$$
=
 OpenBabel11122411263D

 37 43  0  0  1  0  0  0  0  0999 V2000
  183.3280  173.9930  136.7660 C   0  0  0  0  0  2  0  0  0  0  0  0
  187.7400  176.9320  135.6770 C   0  0  0  0  0  0  0  0  0  0  0  0
  184.3650  176.9920  138.4340 C   0  0  1  0  0  3  0  0  0  0  0  0
  182.3560  172.8760  136.4720 C   0  0  0  0  0  0  0  0  0  0  0  0
  181.5870  177.9330  135.7910 C   0  0  0  0  0  2  0  0  0  0  0  0
  186.5910  177.9910  137.7060 C   0  0  1  0  0  3  0  0  0  0  0  0
  183.3130  176.7680  137.3350 C   0  0  1  0  0  3  0  0  0  0  0  0
  180.4560  174.3990  136.4040 C   0  0  0  0  0  0  0  0  0  0  0  0
  185.7160  176.7310  137.7820 C   0  0  2  0  0  3  0  0  0  0  0  0
  182.3850  177.9850  137.1000 C   0  0  2  0  0  3  0  0  0  0  0  0
  186.8270  178.5810  139.0970 C   0  0  0  0  0  2  0  0  0  0  0  0
  181.0760  173.1020  136.4000 N   0  0  0  0  0  0  0  0  0  0  0  0
  185.4150  176.1520  136.4010 C   0  0  2  0  0  3  0  0  0  0  0  0
  188.4040  175.5720  135.7770 C   0  0  0  0  0  1  0  0  0  0  0  0
  183.0340  178.5390  139.9940 C   0  0  0  0  0  2  0  0  0  0  0  0
  185.5450  178.6580  139.9420 C   0  0  0  0  0  2  0  0  0  0  0  0
  186.2670  176.7610  135.2760 C   0  0  0  0  0  2  0  0  0  0  0  0
  181.0770  175.5090  135.7270 N   0  0  0  0  0  0  0  0  0  0  0  0
  180.5010  176.8520  135.7700 C   0  0  0  0  0  2  0  0  0  0  0  0
  184.2850  178.3720  139.1260 C   0  0  1  0  0  3  0  0  0  0  0  0
  183.9960  176.3310  136.1040 N   0  0  1  0  0  0  0  0  0  0  0  0
  187.9150  177.6740  137.0150 C   0  0  0  0  0  2  0  0  0  0  0  0
  181.4530  178.2490  138.3040 C   0  0  1  0  0  3  0  0  0  0  0  0
  188.4410  177.7250  134.5940 C   0  0  0  0  0  1  0  0  0  0  0  0
  182.1910  175.2490  134.8260 C   0  0  0  0  0  2  0  0  0  0  0  0
  178.9310  174.5250  136.9940 S   0  0  0  0  0  0  0  0  0  0  0  0
  183.4690  175.0370  135.6320 C   0  0  2  0  0  3  0  0  0  0  0  0
  181.9370  177.7680  139.5480 O   0  0  0  0  0  0  0  0  0  0  0  0
  179.5890  179.8150  138.8870 C   0  0  0  0  0  3  0  0  0  0  0  0
  180.8740  179.6350  138.3650 C   0  0  0  0  0  0  0  0  0  0  0  0
  181.6100  180.7500  137.9340 C   0  0  0  0  0  3  0  0  0  0  0  0
  181.7680  183.1030  137.5960 F   0  0  0  0  0  0  0  0  0  0  0  0
  179.7690  182.2040  138.5330 C   0  0  0  0  0  3  0  0  0  0  0  0
  181.0560  182.0310  138.0160 C   0  0  0  0  0  0  0  0  0  0  0  0
  179.0360  181.0970  138.9690 C   0  0  0  0  0  3  0  0  0  0  0  0
  184.2890  171.3060  136.0400 C   0  0  0  0  0  1  0  0  0  0  0  0
  182.8190  171.4500  136.4010 C   0  0  0  0  0  2  0  0  0  0  0  0
  2 14  1  0  0  0  0
  2 22  1  0  0  0  0
  3 20  1  0  0  0  0
  4  1  1  0  0  0  0
  5 10  1  0  0  0  0
  6  9  1  0  0  0  0
  6 11  1  0  0  0  0
  7  3  1  0  0  0  0
  8 26  2  0  0  0  0
  9  3  1  0  0  0  0
 10  7  1  0  0  0  0
 10 23  1  0  0  0  0
 11 16  1  0  0  0  0
 12  8  1  0  0  0  0
 12  4  2  0  0  0  0
 13  9  1  0  0  0  0
 17  2  1  0  0  0  0
 17 13  1  0  0  0  0
 18 19  1  0  0  0  0
 18  8  1  0  0  0  0
 19  5  1  0  0  0  0
 20 16  1  0  0  0  0
 20 15  1  0  0  0  0
 21 13  1  0  0  0  0
 21  7  1  0  0  0  0
 22  6  1  0  0  0  0
 23 30  1  0  0  0  0
 23 28  1  0  0  0  0
 24  2  1  0  0  0  0
 25 27  1  0  0  0  0
 25 18  1  0  0  0  0
 27 21  1  0  0  0  0
 27  1  1  0  0  0  0
 28 15  1  0  0  0  0
 29 35  1  0  0  0  0
 30 29  2  0  0  0  0
 31 34  2  0  0  0  0
 31 30  1  0  0  0  0
 32 34  1  0  0  0  0
 33 35  2  0  0  0  0
 34 33  1  0  0  0  0
 36 37  1  0  0  0  0
 37  4  1  0  0  0  0
M  END
>  <MODEL>
3

>  <REMARK>
 VINA RESULT:      -5.1      3.161      6.977
  Name = 
  2 active torsions:
  status: ('A' for Active; 'I' for Inactive)
    1  A    between atoms: C_4  and  C_37
    2  A    between atoms: C_23  and  C_30
                            x       y       z     vdW  Elec       q    Type
                         _______ _______ _______ _____ _____    ______ ____

>  <TORSDO>
F 2

$$$$
=
 OpenBabel11122411263D

 37 43  0  0  1  0  0  0  0  0999 V2000
  184.7430  178.0640  141.9500 C   0  0  0  0  0  2  0  0  0  0  0  0
  181.7050  180.7210  138.3460 C   0  0  0  0  0  0  0  0  0  0  0  0
  184.2080  177.1570  138.5230 C   0  0  1  0  0  3  0  0  0  0  0  0
  185.4090  177.9240  143.2980 C   0  0  0  0  0  0  0  0  0  0  0  0
  187.6830  179.0110  138.7940 C   0  0  0  0  0  2  0  0  0  0  0  0
  182.5830  178.6060  137.2010 C   0  0  1  0  0  3  0  0  0  0  0  0
  185.3870  177.8770  139.1980 C   0  0  1  0  0  3  0  0  0  0  0  0
  187.6160  177.6520  142.3010 C   0  0  0  0  0  0  0  0  0  0  0  0
  183.0330  178.1240  138.5890 C   0  0  2  0  0  3  0  0  0  0  0  0
  186.6420  177.9980  138.3010 C   0  0  2  0  0  3  0  0  0  0  0  0
  182.1960  177.4270  136.3080 C   0  0  0  0  0  2  0  0  0  0  0  0
  186.6810  177.6620  143.3930 N   0  0  0  0  0  0  0  0  0  0  0  0
  183.4810  179.2780  139.4840 C   0  0  2  0  0  3  0  0  0  0  0  0
  180.6870  180.6370  139.4680 C   0  0  0  0  0  1  0  0  0  0  0  0
  185.5030  175.5010  137.0480 C   0  0  0  0  0  2  0  0  0  0  0  0
  183.2100  176.2720  136.3650 C   0  0  0  0  0  2  0  0  0  0  0  0
  183.1240  180.6660  138.9300 C   0  0  0  0  0  2  0  0  0  0  0  0
  187.5040  178.6140  141.2340 N   0  0  0  0  0  0  0  0  0  0  0  0
  188.4010  178.5850  140.0800 C   0  0  0  0  0  2  0  0  0  0  0  0
  184.4990  176.6560  137.0900 C   0  0  1  0  0  3  0  0  0  0  0  0
  184.9230  179.1840  139.7010 N   0  0  1  0  0  0  0  0  0  0  0  0
  181.4280  179.5950  137.3330 C   0  0  0  0  0  2  0  0  0  0  0  0
  187.2970  176.6250  138.0260 C   0  0  1  0  0  3  0  0  0  0  0  0
  181.5290  182.0510  137.6430 C   0  0  0  0  0  1  0  0  0  0  0  0
  186.6090  179.7510  141.4020 C   0  0  0  0  0  2  0  0  0  0  0  0
  188.9300  176.6780  142.4160 S   0  0  0  0  0  0  0  0  0  0  0  0
  185.1690  179.3160  141.1490 C   0  0  2  0  0  3  0  0  0  0  0  0
  186.4180  175.5160  138.1250 O   0  0  0  0  0  0  0  0  0  0  0  0
  187.9950  177.4870  135.7820 C   0  0  0  0  0  3  0  0  0  0  0  0
  188.2050  176.5840  136.8280 C   0  0  0  0  0  0  0  0  0  0  0  0
  189.2720  175.6750  136.7570 C   0  0  0  0  0  3  0  0  0  0  0  0
  191.1410  174.7870  135.5740 F   0  0  0  0  0  0  0  0  0  0  0  0
  189.8940  176.5680  134.5940 C   0  0  0  0  0  3  0  0  0  0  0  0
  190.1130  175.6670  135.6400 C   0  0  0  0  0  0  0  0  0  0  0  0
  188.8360  177.4780  134.6650 C   0  0  0  0  0  3  0  0  0  0  0  0
  183.5160  179.0020  144.5800 C   0  0  0  0  0  1  0  0  0  0  0  0
  184.6010  177.9370  144.5620 C   0  0  0  0  0  2  0  0  0  0  0  0
  1  4  1  0  0  0  0
  2 17  1  0  0  0  0
  2 14  1  0  0  0  0
  3  9  1  0  0  0  0
  3  7  1  0  0  0  0
  4 12  2  0  0  0  0
  4 37  1  0  0  0  0
  5 19  1  0  0  0  0
  6 22  1  0  0  0  0
  6  9  1  0  0  0  0
  7 21  1  0  0  0  0
  8 26  2  0  0  0  0
  8 12  1  0  0  0  0
  9 13  1  0  0  0  0
 10  5  1  0  0  0  0
 10  7  1  0  0  0  0
 11 16  1  0  0  0  0
 11  6  1  0  0  0  0
 13 21  1  0  0  0  0
 15 20  1  0  0  0  0
 15 28  1  0  0  0  0
 16 20  1  0  0  0  0
 17 13  1  0  0  0  0
 18 25  1  0  0  0  0
 18  8  1  0  0  0  0
 19 18  1  0  0  0  0
 20  3  1  0  0  0  0
 21 27  1  0  0  0  0
 22  2  1  0  0  0  0
 23 28  1  0  0  0  0
 23 10  1  0  0  0  0
 24  2  1  0  0  0  0
 27 25  1  0  0  0  0
 27  1  1  0  0  0  0
 29 30  1  0  0  0  0
 30 23  1  0  0  0  0
 31 30  2  0  0  0  0
 32 34  1  0  0  0  0
 33 35  1  0  0  0  0
 33 34  2  0  0  0  0
 34 31  1  0  0  0  0
 35 29  2  0  0  0  0
 37 36  1  0  0  0  0
M  END
>  <MODEL>
4

>  <REMARK>
 VINA RESULT:      -4.1      2.743      5.769
  Name = 
  2 active torsions:
  status: ('A' for Active; 'I' for Inactive)
    1  A    between atoms: C_4  and  C_37
    2  A    between atoms: C_23  and  C_30
                            x       y       z     vdW  Elec       q    Type
                         _______ _______ _______ _____ _____    ______ ____

>  <TORSDO>
F 2

$$$$
=
 OpenBabel11122411263D

 37 43  0  0  1  0  0  0  0  0999 V2000
  183.2110  177.8030  140.3800 C   0  0  0  0  0  2  0  0  0  0  0  0
  180.2990  178.0050  135.8240 C   0  0  0  0  0  0  0  0  0  0  0  0
  183.4740  175.5860  137.5750 C   0  0  1  0  0  3  0  0  0  0  0  0
  183.6570  178.3580  141.7120 C   0  0  0  0  0  0  0  0  0  0  0  0
  186.3480  178.2800  137.3090 C   0  0  0  0  0  2  0  0  0  0  0  0
  181.8090  175.9430  135.6810 C   0  0  1  0  0  3  0  0  0  0  0  0
  184.3310  176.7970  137.9810 C   0  0  1  0  0  3  0  0  0  0  0  0
  186.0020  178.3490  141.0540 C   0  0  0  0  0  0  0  0  0  0  0  0
  182.1180  176.1490  137.1710 C   0  0  2  0  0  3  0  0  0  0  0  0
  185.6590  176.9140  137.1950 C   0  0  2  0  0  3  0  0  0  0  0  0
  181.8530  174.4590  135.3110 C   0  0  0  0  0  2  0  0  0  0  0  0
  184.9210  178.5070  141.9870 N   0  0  0  0  0  0  0  0  0  0  0  0
  182.1390  177.6270  137.5570 C   0  0  2  0  0  3  0  0  0  0  0  0
  179.1540  178.0670  136.8160 C   0  0  0  0  0  1  0  0  0  0  0  0
  185.3360  173.9230  136.9740 C   0  0  0  0  0  2  0  0  0  0  0  0
  183.0760  173.7310  135.8910 C   0  0  0  0  0  2  0  0  0  0  0  0
  181.5760  178.5580  136.4720 C   0  0  0  0  0  2  0  0  0  0  0  0
  185.8580  178.7800  139.6860 N   0  0  0  0  0  0  0  0  0  0  0  0
  186.9180  178.5730  138.7010 C   0  0  0  0  0  2  0  0  0  0  0  0
  184.1050  174.6910  136.4840 C   0  0  1  0  0  3  0  0  0  0  0  0
  183.5080  178.0170  137.8880 N   0  0  1  0  0  0  0  0  0  0  0  0
  180.4560  176.5550  135.3300 C   0  0  0  0  0  2  0  0  0  0  0  0
  186.6420  175.7720  137.5360 C   0  0  1  0  0  3  0  0  0  0  0  0
  179.9480  178.8790  134.6380 C   0  0  0  0  0  1  0  0  0  0  0  0
  184.7140  179.6080  139.3270 C   0  0  0  0  0  2  0  0  0  0  0  0
  187.4640  177.8850  141.6350 S   0  0  0  0  0  0  0  0  0  0  0  0
  183.4720  178.7360  139.1750 C   0  0  2  0  0  3  0  0  0  0  0  0
  186.0310  174.5830  138.0120 O   0  0  0  0  0  0  0  0  0  0  0  0
  187.9630  176.5140  135.5430 C   0  0  0  0  0  3  0  0  0  0  0  0
  187.7230  175.5400  136.5160 C   0  0  0  0  0  0  0  0  0  0  0  0
  188.5110  174.3790  136.5440 C   0  0  0  0  0  3  0  0  0  0  0  0
  190.2770  173.0700  135.6240 F   0  0  0  0  0  0  0  0  0  0  0  0
  189.7520  175.1670  134.6210 C   0  0  0  0  0  3  0  0  0  0  0  0
  189.5210  174.1930  135.5960 C   0  0  0  0  0  0  0  0  0  0  0  0
  188.9740  176.3290  134.5940 C   0  0  0  0  0  3  0  0  0  0  0  0
  183.3120  179.0000  144.1320 C   0  0  0  0  0  1  0  0  0  0  0  0
  182.6670  178.6160  142.8100 C   0  0  0  0  0  2  0  0  0  0  0  0
  1  4  1  0  0  0  0
  2 17  1  0  0  0  0
  2 14  1  0  0  0  0
  3  7  1  0  0  0  0
  4 12  2  0  0  0  0
  4 37  1  0  0  0  0
  5 19  1  0  0  0  0
  6  9  1  0  0  0  0
  8 26  2  0  0  0  0
  8 12  1  0  0  0  0
  9 13  1  0  0  0  0
  9  3  1  0  0  0  0
 10  5  1  0  0  0  0
 10 23  1  0  0  0  0
 10  7  1  0  0  0  0
 11  6  1  0  0  0  0
 11 16  1  0  0  0  0
 13 21  1  0  0  0  0
 15 28  1  0  0  0  0
 16 20  1  0  0  0  0
 17 13  1  0  0  0  0
 18  8  1  0  0  0  0
 19 18  1  0  0  0  0
 20 15  1  0  0  0  0
 20  3  1  0  0  0  0
 21  7  1  0  0  0  0
 21 27  1  0  0  0  0
 22  6  1  0  0  0  0
 22  2  1  0  0  0  0
 23 28  1  0  0  0  0
 24  2  1  0  0  0  0
 25 18  1  0  0  0  0
 27 25  1  0  0  0  0
 27  1  1  0  0  0  0
 29 30  1  0  0  0  0
 30 31  2  0  0  0  0
 30 23  1  0  0  0  0
 33 34  2  0  0  0  0
 34 32  1  0  0  0  0
 34 31  1  0  0  0  0
 35 33  1  0  0  0  0
 35 29  2  0  0  0  0
 37 36  1  0  0  0  0
M  END
>  <MODEL>
5

>  <REMARK>
 VINA RESULT:      -3.9      2.548      5.785
  Name = 
  2 active torsions:
  status: ('A' for Active; 'I' for Inactive)
    1  A    between atoms: C_4  and  C_37
    2  A    between atoms: C_23  and  C_30
                            x       y       z     vdW  Elec       q    Type
                         _______ _______ _______ _____ _____    ______ ____

>  <TORSDO>
F 2

$$$$
=
 OpenBabel11122411263D

 37 43  0  0  1  0  0  0  0  0999 V2000
  181.3190  179.8870  140.7660 C   0  0  0  0  0  2  0  0  0  0  0  0
  185.2450  178.4480  144.2020 C   0  0  0  0  0  0  0  0  0  0  0  0
  184.5510  178.6000  139.9010 C   0  0  1  0  0  3  0  0  0  0  0  0
  179.9110  180.3300  140.4500 C   0  0  0  0  0  0  0  0  0  0  0  0
  181.9420  175.6420  139.7200 C   0  0  0  0  0  2  0  0  0  0  0  0
  186.1640  178.1810  141.8270 C   0  0  1  0  0  3  0  0  0  0  0  0
  183.1820  177.9040  139.9800 C   0  0  1  0  0  3  0  0  0  0  0  0
  179.5270  178.4280  138.9760 C   0  0  0  0  0  0  0  0  0  0  0  0
  184.9280  178.9480  141.3350 C   0  0  2  0  0  3  0  0  0  0  0  0
  183.1600  176.4940  139.3400 C   0  0  2  0  0  3  0  0  0  0  0  0
  187.3710  178.4470  140.9270 C   0  0  0  0  0  2  0  0  0  0  0  0
  179.1840  179.6850  139.5830 N   0  0  0  0  0  0  0  0  0  0  0  0
  183.6910  178.6550  142.1830 C   0  0  2  0  0  3  0  0  0  0  0  0
  184.9480  179.8210  144.7740 C   0  0  0  0  0  1  0  0  0  0  0  0
  185.3890  177.6490  137.6670 C   0  0  0  0  0  2  0  0  0  0  0  0
  187.0330  178.3640  139.4290 C   0  0  0  0  0  2  0  0  0  0  0  0
  183.9990  177.9050  143.4880 C   0  0  0  0  0  2  0  0  0  0  0  0
  180.2040  177.4090  139.7370 N   0  0  0  0  0  0  0  0  0  0  0  0
  180.6220  176.1480  139.1270 C   0  0  0  0  0  2  0  0  0  0  0  0
  185.6430  177.7840  139.1710 C   0  0  1  0  0  3  0  0  0  0  0  0
  182.7320  177.8950  141.3850 N   0  0  1  0  0  0  0  0  0  0  0  0
  186.4720  178.5470  143.2770 C   0  0  0  0  0  2  0  0  0  0  0  0
  183.3380  176.5480  137.8060 C   0  0  1  0  0  3  0  0  0  0  0  0
  185.5830  177.5180  145.3480 C   0  0  0  0  0  1  0  0  0  0  0  0
  180.3020  177.5590  141.1830 C   0  0  0  0  0  2  0  0  0  0  0  0
  178.9310  178.1010  137.4840 S   0  0  0  0  0  0  0  0  0  0  0  0
  181.4150  178.5430  141.5260 C   0  0  2  0  0  3  0  0  0  0  0  0
  184.0190  177.6950  137.3260 O   0  0  0  0  0  0  0  0  0  0  0  0
  185.0330  174.7270  137.5220 C   0  0  0  0  0  3  0  0  0  0  0  0
  183.7870  175.2580  137.1750 C   0  0  0  0  0  0  0  0  0  0  0  0
  182.9670  174.5690  136.2690 C   0  0  0  0  0  3  0  0  0  0  0  0
  182.6060  172.7020  134.8320 F   0  0  0  0  0  0  0  0  0  0  0  0
  184.6480  172.8410  136.0530 C   0  0  0  0  0  3  0  0  0  0  0  0
  183.3990  173.3630  135.7080 C   0  0  0  0  0  0  0  0  0  0  0  0
  185.4650  173.5210  136.9600 C   0  0  0  0  0  3  0  0  0  0  0  0
  178.9630  181.5050  142.4760 C   0  0  0  0  0  1  0  0  0  0  0  0
  179.3600  181.6070  141.0120 C   0  0  0  0  0  2  0  0  0  0  0  0
  1 27  1  0  0  0  0
  2 14  1  0  0  0  0
  2 24  1  0  0  0  0
  3  7  1  0  0  0  0
  3  9  1  0  0  0  0
  4  1  1  0  0  0  0
  4 37  1  0  0  0  0
  6 22  1  0  0  0  0
  7 21  1  0  0  0  0
  8 12  1  0  0  0  0
  8 18  1  0  0  0  0
  9  6  1  0  0  0  0
  9 13  1  0  0  0  0
 10  5  1  0  0  0  0
 10  7  1  0  0  0  0
 11  6  1  0  0  0  0
 12  4  2  0  0  0  0
 13 17  1  0  0  0  0
 15 20  1  0  0  0  0
 16 11  1  0  0  0  0
 17  2  1  0  0  0  0
 18 25  1  0  0  0  0
 19  5  1  0  0  0  0
 19 18  1  0  0  0  0
 20 16  1  0  0  0  0
 20  3  1  0  0  0  0
 21 27  1  0  0  0  0
 21 13  1  0  0  0  0
 22  2  1  0  0  0  0
 23 10  1  0  0  0  0
 25 27  1  0  0  0  0
 26  8  2  0  0  0  0
 28 15  1  0  0  0  0
 28 23  1  0  0  0  0
 30 29  1  0  0  0  0
 30 23  1  0  0  0  0
 31 30  2  0  0  0  0
 32 34  1  0  0  0  0
 33 35  1  0  0  0  0
 34 33  2  0  0  0  0
 34 31  1  0  0  0  0
 35 29  2  0  0  0  0
 37 36  1  0  0  0  0
M  END
>  <MODEL>
6

>  <REMARK>
 VINA RESULT:      -3.8      2.064      2.414
  Name = 
  2 active torsions:
  status: ('A' for Active; 'I' for Inactive)
    1  A    between atoms: C_4  and  C_37
    2  A    between atoms: C_23  and  C_30
                            x       y       z     vdW  Elec       q    Type
                         _______ _______ _______ _____ _____    ______ ____

>  <TORSDO>
F 2

$$$$
