=
 OpenBabel11122411093D

 31 35  0  0  0  0  0  0  0  0999 V2000
  184.9260  178.6130  144.8160 C   0  0  0  0  0  0  0  0  0  0  0  0
  188.5070  177.5440  144.4760 C   0  0  0  0  0  0  0  0  0  0  0  0
  189.0200  177.4870  145.7970 C   0  0  0  0  0  0  0  0  0  0  0  0
  188.3050  177.2170  139.2320 O   0  0  0  0  0  0  0  0  0  0  0  0
  189.4670  176.9060  139.6020 C   0  0  0  0  0  0  0  0  0  0  0  0
  188.7180  177.7560  148.2170 C   0  0  0  0  0  0  0  0  0  0  0  0
  187.1700  177.9090  144.1690 C   0  0  0  0  0  0  0  0  0  0  0  0
  184.5330  178.6280  143.4770 C   0  0  0  0  0  3  0  0  0  0  0  0
  188.2150  177.7530  146.9130 O   0  0  0  0  0  0  0  0  0  0  0  0
  188.9140  177.2500  142.0790 C   0  0  0  0  0  0  0  0  0  0  0  0
  184.0170  178.9520  145.8080 O   0  0  0  0  0  1  0  0  0  0  0  0
  191.1570  176.8080  144.9530 N   0  0  0  0  0  0  0  0  0  0  0  0
  187.9310  177.8960  149.1880 O   0  0  0  0  0  0  0  0  0  0  0  0
  187.6270  177.6050  141.8280 N   0  0  0  0  0  0  0  0  0  0  0  0
  189.3770  177.2130  143.4040 C   0  0  0  0  0  0  0  0  0  0  0  0
  189.7990  176.9130  140.9990 N   0  0  0  0  0  2  0  0  0  0  0  0
  186.2330  178.2570  145.1570 C   0  0  0  0  0  3  0  0  0  0  0  0
  190.1920  177.6680  148.4690 C   0  0  0  0  0  2  0  0  0  0  0  0
  186.7570  177.9300  142.8140 C   0  0  0  0  0  0  0  0  0  0  0  0
  185.4470  178.2870  142.4790 C   0  0  0  0  0  3  0  0  0  0  0  0
  190.7000  176.8440  143.6770 C   0  0  0  0  0  3  0  0  0  0  0  0
  190.3620  177.1280  146.0030 C   0  0  0  0  0  0  0  0  0  0  0  0
  190.8830  177.0680  147.3310 N   0  0  0  0  0  2  0  0  0  0  0  0
  192.3670  175.7640  136.6380 C   0  0  0  0  0  0  0  0  0  0  0  0
  190.0870  175.9230  137.4180 C   0  0  0  0  0  3  0  0  0  0  0  0
  192.5740  177.5030  140.2460 Cl  0  0  0  0  0  0  0  0  0  0  0  0
  193.2610  175.3960  135.6900 F   0  0  0  0  0  0  0  0  0  0  0  0
  191.0060  175.5420  136.4380 C   0  0  0  0  0  3  0  0  0  0  0  0
  191.8980  176.7530  138.8050 C   0  0  0  0  0  0  0  0  0  0  0  0
  190.5090  176.5310  138.6120 C   0  0  0  0  0  0  0  0  0  0  0  0
  192.8090  176.3670  137.8160 C   0  0  0  0  0  3  0  0  0  0  0  0
  1 17  1  0  0  0  0
  1 11  1  0  0  0  0
  2  3  2  0  0  0  0
  3 22  1  0  0  0  0
  3  9  1  0  0  0  0
  4  5  2  0  0  0  0
  5 16  1  0  0  0  0
  6 18  1  0  0  0  0
  6 13  2  0  0  0  0
  7  2  1  0  0  0  0
  7 17  2  0  0  0  0
  8  1  2  0  0  0  0
  9  6  1  0  0  0  0
 10 15  1  0  0  0  0
 12 22  2  0  0  0  0
 14 10  2  0  0  0  0
 14 19  1  0  0  0  0
 15 21  2  0  0  0  0
 15  2  1  0  0  0  0
 16 10  1  0  0  0  0
 19  7  1  0  0  0  0
 20 19  2  0  0  0  0
 20  8  1  0  0  0  0
 21 12  1  0  0  0  0
 22 23  1  0  0  0  0
 23 18  1  0  0  0  0
 24 31  1  0  0  0  0
 25 30  2  0  0  0  0
 27 24  1  0  0  0  0
 28 24  2  0  0  0  0
 28 25  1  0  0  0  0
 29 26  1  0  0  0  0
 30 29  1  0  0  0  0
 30  5  1  0  0  0  0
 31 29  2  0  0  0  0
M  END
>  <MODEL>
1

>  <REMARK>
 VINA RESULT:     -10.9      0.000      0.000
  Name = 
  1 active torsions:
  status: ('A' for Active; 'I' for Inactive)
    1  A    between atoms: C_5  and  C_30
                            x       y       z     vdW  Elec       q    Type
                         _______ _______ _______ _____ _____    ______ ____

>  <TORSDO>
F 1

$$$$
=
 OpenBabel11122411093D

 31 35  0  0  0  0  0  0  0  0999 V2000
  184.9320  178.6280  144.8080 C   0  0  0  0  0  0  0  0  0  0  0  0
  188.5070  177.5320  144.4860 C   0  0  0  0  0  0  0  0  0  0  0  0
  189.0190  177.4920  145.8080 C   0  0  0  0  0  0  0  0  0  0  0  0
  188.3060  177.1300  139.2470 O   0  0  0  0  0  0  0  0  0  0  0  0
  189.4660  176.8170  139.6220 C   0  0  0  0  0  0  0  0  0  0  0  0
  188.7170  177.7980  148.2240 C   0  0  0  0  0  0  0  0  0  0  0  0
  187.1720  177.9010  144.1730 C   0  0  0  0  0  0  0  0  0  0  0  0
  184.5400  178.6250  143.4690 C   0  0  0  0  0  3  0  0  0  0  0  0
  188.2150  177.7790  146.9190 O   0  0  0  0  0  0  0  0  0  0  0  0
  188.9130  177.2010  142.0940 C   0  0  0  0  0  0  0  0  0  0  0  0
  184.0250  178.9870  145.7950 O   0  0  0  0  0  1  0  0  0  0  0  0
  191.1520  176.7880  144.9750 N   0  0  0  0  0  0  0  0  0  0  0  0
  187.9310  177.9570  149.1920 O   0  0  0  0  0  0  0  0  0  0  0  0
  187.6280  177.5600  141.8360 N   0  0  0  0  0  0  0  0  0  0  0  0
  189.3760  177.1800  143.4200 C   0  0  0  0  0  0  0  0  0  0  0  0
  189.7970  176.8430  141.0200 N   0  0  0  0  0  2  0  0  0  0  0  0
  186.2370  178.2690  145.1550 C   0  0  0  0  0  3  0  0  0  0  0  0
  190.1910  177.7050  148.4770 C   0  0  0  0  0  2  0  0  0  0  0  0
  186.7590  177.9050  142.8180 C   0  0  0  0  0  0  0  0  0  0  0  0
  185.4530  178.2640  142.4770 C   0  0  0  0  0  3  0  0  0  0  0  0
  190.6960  176.8080  143.6990 C   0  0  0  0  0  3  0  0  0  0  0  0
  190.3580  177.1280  146.0200 C   0  0  0  0  0  0  0  0  0  0  0  0
  190.8790  177.0840  147.3490 N   0  0  0  0  0  2  0  0  0  0  0  0
  192.5870  175.7350  136.8680 C   0  0  0  0  0  0  0  0  0  0  0  0
  191.8390  176.7530  138.9260 C   0  0  0  0  0  3  0  0  0  0  0  0
  188.6070  175.2480  136.9360 Cl  0  0  0  0  0  0  0  0  0  0  0  0
  193.5870  175.4060  136.0170 F   0  0  0  0  0  0  0  0  0  0  0  0
  192.8720  176.4140  138.0510 C   0  0  0  0  0  3  0  0  0  0  0  0
  190.2250  175.7290  137.4300 C   0  0  0  0  0  0  0  0  0  0  0  0
  190.5050  176.4210  138.6380 C   0  0  0  0  0  0  0  0  0  0  0  0
  191.2690  175.3960  136.5610 C   0  0  0  0  0  3  0  0  0  0  0  0
  1 17  1  0  0  0  0
  1 11  1  0  0  0  0
  2  3  2  0  0  0  0
  3 22  1  0  0  0  0
  3  9  1  0  0  0  0
  4  5  2  0  0  0  0
  5 16  1  0  0  0  0
  6 18  1  0  0  0  0
  6 13  2  0  0  0  0
  7  2  1  0  0  0  0
  7 17  2  0  0  0  0
  8  1  2  0  0  0  0
  9  6  1  0  0  0  0
 10 15  1  0  0  0  0
 12 22  2  0  0  0  0
 14 10  2  0  0  0  0
 14 19  1  0  0  0  0
 15 21  2  0  0  0  0
 15  2  1  0  0  0  0
 16 10  1  0  0  0  0
 19  7  1  0  0  0  0
 20 19  2  0  0  0  0
 20  8  1  0  0  0  0
 21 12  1  0  0  0  0
 22 23  1  0  0  0  0
 23 18  1  0  0  0  0
 24 28  1  0  0  0  0
 26 29  1  0  0  0  0
 27 24  1  0  0  0  0
 28 25  2  0  0  0  0
 29 30  2  0  0  0  0
 30 25  1  0  0  0  0
 30  5  1  0  0  0  0
 31 24  2  0  0  0  0
 31 29  1  0  0  0  0
M  END
>  <MODEL>
2

>  <REMARK>
 VINA RESULT:     -10.8      1.022      1.340
  Name = 
  1 active torsions:
  status: ('A' for Active; 'I' for Inactive)
    1  A    between atoms: C_5  and  C_30
                            x       y       z     vdW  Elec       q    Type
                         _______ _______ _______ _____ _____    ______ ____

>  <TORSDO>
F 1

$$$$
=
 OpenBabel11122411093D

 31 35  0  0  0  0  0  0  0  0999 V2000
  186.8940  178.0120  147.2930 C   0  0  0  0  0  0  0  0  0  0  0  0
  187.6360  177.8710  143.6170 C   0  0  0  0  0  0  0  0  0  0  0  0
  189.0270  177.6120  143.5140 C   0  0  0  0  0  0  0  0  0  0  0  0
  182.6570  178.7830  142.1940 O   0  0  0  0  0  0  0  0  0  0  0  0
  183.3480  178.6550  141.1500 C   0  0  0  0  0  0  0  0  0  0  0  0
  191.2080  177.2160  144.5650 C   0  0  0  0  0  0  0  0  0  0  0  0
  186.9510  177.9960  144.8540 C   0  0  0  0  0  0  0  0  0  0  0  0
  185.5220  178.2630  147.2700 C   0  0  0  0  0  3  0  0  0  0  0  0
  189.8260  177.4170  144.6470 O   0  0  0  0  0  0  0  0  0  0  0  0
  185.5080  178.2610  142.4690 C   0  0  0  0  0  0  0  0  0  0  0  0
  187.5560  177.8930  148.5070 O   0  0  0  0  0  1  0  0  0  0  0  0
  188.8680  177.6430  141.1230 N   0  0  0  0  0  0  0  0  0  0  0  0
  191.8600  176.9410  145.6050 O   0  0  0  0  0  0  0  0  0  0  0  0
  184.8910  178.3740  143.6740 N   0  0  0  0  0  0  0  0  0  0  0  0
  186.8890  178.0080  142.4180 C   0  0  0  0  0  0  0  0  0  0  0  0
  184.7570  178.3970  141.2520 N   0  0  0  0  0  2  0  0  0  0  0  0
  187.6010  177.8810  146.0960 C   0  0  0  0  0  3  0  0  0  0  0  0
  191.9310  177.3960  143.2650 C   0  0  0  0  0  2  0  0  0  0  0  0
  185.5580  178.2520  144.8470 C   0  0  0  0  0  0  0  0  0  0  0  0
  184.8560  178.3820  146.0490 C   0  0  0  0  0  3  0  0  0  0  0  0
  187.5360  177.8840  141.1830 C   0  0  0  0  0  3  0  0  0  0  0  0
  189.6190  177.5170  142.2440 C   0  0  0  0  0  0  0  0  0  0  0  0
  191.0190  177.2550  142.1340 N   0  0  0  0  0  2  0  0  0  0  0  0
  181.5540  179.1420  137.2710 C   0  0  0  0  0  0  0  0  0  0  0  0
  182.4560  180.0560  139.3160 C   0  0  0  0  0  3  0  0  0  0  0  0
  182.6800  175.9820  139.4690 Cl  0  0  0  0  0  0  0  0  0  0  0  0
  180.9900  179.3210  136.0540 F   0  0  0  0  0  0  0  0  0  0  0  0
  181.8740  180.2440  138.0620 C   0  0  0  0  0  3  0  0  0  0  0  0
  182.3980  177.6510  138.9920 C   0  0  0  0  0  0  0  0  0  0  0  0
  182.7280  178.7680  139.8050 C   0  0  0  0  0  0  0  0  0  0  0  0
  181.8160  177.8530  137.7360 C   0  0  0  0  0  3  0  0  0  0  0  0
  1 11  1  0  0  0  0
  2  7  1  0  0  0  0
  3  2  2  0  0  0  0
  3  9  1  0  0  0  0
  5 16  1  0  0  0  0
  5  4  2  0  0  0  0
  6  9  1  0  0  0  0
  6 13  2  0  0  0  0
  7 17  1  0  0  0  0
  8  1  1  0  0  0  0
 10 14  2  0  0  0  0
 12 21  1  0  0  0  0
 12 22  2  0  0  0  0
 14 19  1  0  0  0  0
 15 10  1  0  0  0  0
 15  2  1  0  0  0  0
 16 10  1  0  0  0  0
 17  1  2  0  0  0  0
 18  6  1  0  0  0  0
 19  7  2  0  0  0  0
 19 20  1  0  0  0  0
 20  8  2  0  0  0  0
 21 15  2  0  0  0  0
 22  3  1  0  0  0  0
 23 22  1  0  0  0  0
 23 18  1  0  0  0  0
 24 31  2  0  0  0  0
 24 28  1  0  0  0  0
 25 30  1  0  0  0  0
 27 24  1  0  0  0  0
 28 25  2  0  0  0  0
 29 26  1  0  0  0  0
 29 30  2  0  0  0  0
 30  5  1  0  0  0  0
 31 29  1  0  0  0  0
M  END
>  <MODEL>
3

>  <REMARK>
 VINA RESULT:     -10.4      4.257      6.356
  Name = 
  1 active torsions:
  status: ('A' for Active; 'I' for Inactive)
    1  A    between atoms: C_5  and  C_30
                            x       y       z     vdW  Elec       q    Type
                         _______ _______ _______ _____ _____    ______ ____

>  <TORSDO>
F 1

$$$$
=
 OpenBabel11122411093D

 31 35  0  0  0  0  0  0  0  0999 V2000
  190.7790  177.2980  141.7500 C   0  0  0  0  0  0  0  0  0  0  0  0
  187.4410  178.0510  143.2920 C   0  0  0  0  0  0  0  0  0  0  0  0
  187.6140  177.8780  144.6900 C   0  0  0  0  0  0  0  0  0  0  0  0
  185.1300  179.1060  138.6880 O   0  0  0  0  0  0  0  0  0  0  0  0
  184.2750  179.2500  139.6010 C   0  0  0  0  0  0  0  0  0  0  0  0
  189.0300  177.3130  146.6110 C   0  0  0  0  0  0  0  0  0  0  0  0
  188.4810  177.8630  142.3440 C   0  0  0  0  0  0  0  0  0  0  0  0
  190.4910  177.5030  140.4010 C   0  0  0  0  0  3  0  0  0  0  0  0
  188.8560  177.5420  145.2430 O   0  0  0  0  0  0  0  0  0  0  0  0
  185.9420  178.6270  141.4430 C   0  0  0  0  0  0  0  0  0  0  0  0
  192.0560  176.9170  142.1370 O   0  0  0  0  0  1  0  0  0  0  0  0
  185.3170  178.4550  145.0580 N   0  0  0  0  0  0  0  0  0  0  0  0
  190.1860  177.1190  147.0680 O   0  0  0  0  0  0  0  0  0  0  0  0
  186.9640  178.4360  140.5690 N   0  0  0  0  0  0  0  0  0  0  0  0
  186.1600  178.4390  142.8180 C   0  0  0  0  0  0  0  0  0  0  0  0
  184.6450  179.0210  140.9700 N   0  0  0  0  0  2  0  0  0  0  0  0
  189.7810  177.4760  142.7120 C   0  0  0  0  0  3  0  0  0  0  0  0
  187.8490  177.2230  147.5290 C   0  0  0  0  0  2  0  0  0  0  0  0
  188.2050  178.0660  140.9700 C   0  0  0  0  0  0  0  0  0  0  0  0
  189.2070  177.8870  140.0130 C   0  0  0  0  0  3  0  0  0  0  0  0
  185.1170  178.6380  143.7300 C   0  0  0  0  0  3  0  0  0  0  0  0
  186.5210  178.0740  145.5500 C   0  0  0  0  0  0  0  0  0  0  0  0
  186.6890  177.9020  146.9580 N   0  0  0  0  0  2  0  0  0  0  0  0
  180.2950  180.5590  138.6280 C   0  0  0  0  0  0  0  0  0  0  0  0
  182.6810  180.9230  138.7190 C   0  0  0  0  0  3  0  0  0  0  0  0
  181.8440  177.2190  140.2190 Cl  0  0  0  0  0  0  0  0  0  0  0  0
  179.0520  180.9930  138.3120 F   0  0  0  0  0  0  0  0  0  0  0  0
  181.4010  181.3740  138.3930 C   0  0  0  0  0  3  0  0  0  0  0  0
  181.7490  178.8300  139.5190 C   0  0  0  0  0  0  0  0  0  0  0  0
  182.8810  179.6540  139.2840 C   0  0  0  0  0  0  0  0  0  0  0  0
  180.4710  179.2930  139.1880 C   0  0  0  0  0  3  0  0  0  0  0  0
  1 11  1  0  0  0  0
  1 17  1  0  0  0  0
  2  3  2  0  0  0  0
  3  9  1  0  0  0  0
  3 22  1  0  0  0  0
  4  5  2  0  0  0  0
  5 16  1  0  0  0  0
  6 13  2  0  0  0  0
  6 18  1  0  0  0  0
  7 17  2  0  0  0  0
  7  2  1  0  0  0  0
  8  1  2  0  0  0  0
  9  6  1  0  0  0  0
 10 15  1  0  0  0  0
 12 22  2  0  0  0  0
 14 19  1  0  0  0  0
 14 10  2  0  0  0  0
 15  2  1  0  0  0  0
 15 21  2  0  0  0  0
 16 10  1  0  0  0  0
 19  7  1  0  0  0  0
 20  8  1  0  0  0  0
 20 19  2  0  0  0  0
 21 12  1  0  0  0  0
 22 23  1  0  0  0  0
 23 18  1  0  0  0  0
 24 31  1  0  0  0  0
 25 30  2  0  0  0  0
 27 24  1  0  0  0  0
 28 24  2  0  0  0  0
 28 25  1  0  0  0  0
 29 26  1  0  0  0  0
 30 29  1  0  0  0  0
 30  5  1  0  0  0  0
 31 29  2  0  0  0  0
M  END
>  <MODEL>
4

>  <REMARK>
 VINA RESULT:     -10.2      4.646      7.049
  Name = 
  1 active torsions:
  status: ('A' for Active; 'I' for Inactive)
    1  A    between atoms: C_5  and  C_30
                            x       y       z     vdW  Elec       q    Type
                         _______ _______ _______ _____ _____    ______ ____

>  <TORSDO>
F 1

$$$$
=
 OpenBabel11122411093D

 31 35  0  0  0  0  0  0  0  0999 V2000
  183.9060  179.0450  140.0630 C   0  0  0  0  0  0  0  0  0  0  0  0
  187.5480  178.1560  140.2430 C   0  0  0  0  0  0  0  0  0  0  0  0
  188.0130  178.1610  138.9020 C   0  0  0  0  0  0  0  0  0  0  0  0
  187.5680  177.7100  145.4820 O   0  0  0  0  0  0  0  0  0  0  0  0
  188.7290  177.4670  145.0600 C   0  0  0  0  0  0  0  0  0  0  0  0
  187.6020  178.4590  136.5020 C   0  0  0  0  0  0  0  0  0  0  0  0
  186.2080  178.4490  140.6080 C   0  0  0  0  0  0  0  0  0  0  0  0
  183.5660  179.0140  141.4160 C   0  0  0  0  0  3  0  0  0  0  0  0
  187.1750  178.5030  137.8320 O   0  0  0  0  0  0  0  0  0  0  0  0
  188.0620  177.8320  142.6150 C   0  0  0  0  0  0  0  0  0  0  0  0
  182.9430  179.3550  139.1130 O   0  0  0  0  0  1  0  0  0  0  0  0
  190.2110  177.5650  139.6490 N   0  0  0  0  0  0  0  0  0  0  0  0
  186.8430  178.8770  135.5900 O   0  0  0  0  0  0  0  0  0  0  0  0
  186.7700  178.1180  142.9230 N   0  0  0  0  0  0  0  0  0  0  0  0
  188.4750  177.8450  141.2720 C   0  0  0  0  0  0  0  0  0  0  0  0
  189.0050  177.5180  143.6520 N   0  0  0  0  0  2  0  0  0  0  0  0
  185.2150  178.7640  139.6650 C   0  0  0  0  0  3  0  0  0  0  0  0
  188.9240  177.8530  136.1420 C   0  0  0  0  0  2  0  0  0  0  0  0
  185.8470  178.4200  141.9780 C   0  0  0  0  0  0  0  0  0  0  0  0
  184.5360  178.7020  142.3700 C   0  0  0  0  0  3  0  0  0  0  0  0
  189.8040  177.5580  140.9410 C   0  0  0  0  0  3  0  0  0  0  0  0
  189.3550  177.8450  138.6350 C   0  0  0  0  0  0  0  0  0  0  0  0
  189.8290  177.8500  137.2880 N   0  0  0  0  0  2  0  0  0  0  0  0
  191.9840  176.4050  147.6640 C   0  0  0  0  0  0  0  0  0  0  0  0
  190.9350  176.4320  145.4890 C   0  0  0  0  0  3  0  0  0  0  0  0
  188.4960  178.3190  148.1650 Cl  0  0  0  0  0  0  0  0  0  0  0  0
  193.0200  176.0590  148.4640 F   0  0  0  0  0  0  0  0  0  0  0  0
  192.0050  176.0740  146.3110 C   0  0  0  0  0  3  0  0  0  0  0  0
  189.8130  177.4560  147.3820 C   0  0  0  0  0  0  0  0  0  0  0  0
  189.8260  177.1230  146.0020 C   0  0  0  0  0  0  0  0  0  0  0  0
  190.8920  177.0920  148.1950 C   0  0  0  0  0  3  0  0  0  0  0  0
  1  8  1  0  0  0  0
  2  7  1  0  0  0  0
  2 15  1  0  0  0  0
  3  2  2  0  0  0  0
  5  4  2  0  0  0  0
  5 30  1  0  0  0  0
  6  9  1  0  0  0  0
  7 19  2  0  0  0  0
  8 20  2  0  0  0  0
  9  3  1  0  0  0  0
 10 14  2  0  0  0  0
 10 16  1  0  0  0  0
 11  1  1  0  0  0  0
 12 21  1  0  0  0  0
 13  6  2  0  0  0  0
 15 10  1  0  0  0  0
 16  5  1  0  0  0  0
 17  1  2  0  0  0  0
 17  7  1  0  0  0  0
 18  6  1  0  0  0  0
 18 23  1  0  0  0  0
 19 20  1  0  0  0  0
 19 14  1  0  0  0  0
 21 15  2  0  0  0  0
 22  3  1  0  0  0  0
 22 12  2  0  0  0  0
 23 22  1  0  0  0  0
 24 31  1  0  0  0  0
 24 27  1  0  0  0  0
 25 30  2  0  0  0  0
 25 28  1  0  0  0  0
 28 24  2  0  0  0  0
 29 26  1  0  0  0  0
 29 31  2  0  0  0  0
 30 29  1  0  0  0  0
M  END
>  <MODEL>
5

>  <REMARK>
 VINA RESULT:     -10.1      3.613      7.655
  Name = 
  1 active torsions:
  status: ('A' for Active; 'I' for Inactive)
    1  A    between atoms: C_5  and  C_30
                            x       y       z     vdW  Elec       q    Type
                         _______ _______ _______ _____ _____    ______ ____

>  <TORSDO>
F 1

$$$$
=
 OpenBabel11122411093D

 31 35  0  0  0  0  0  0  0  0999 V2000
  187.2850  178.0660  147.7020 C   0  0  0  0  0  0  0  0  0  0  0  0
  187.6510  177.7240  143.9820 C   0  0  0  0  0  0  0  0  0  0  0  0
  189.0050  177.3620  143.7600 C   0  0  0  0  0  0  0  0  0  0  0  0
  182.6290  178.9320  142.9980 O   0  0  0  0  0  0  0  0  0  0  0  0
  183.2050  178.7130  141.9010 C   0  0  0  0  0  0  0  0  0  0  0  0
  191.2470  176.8530  144.6160 C   0  0  0  0  0  0  0  0  0  0  0  0
  187.1020  177.9480  145.2720 C   0  0  0  0  0  0  0  0  0  0  0  0
  185.9370  178.4130  147.7970 C   0  0  0  0  0  3  0  0  0  0  0  0
  189.8970  177.1560  144.8200 O   0  0  0  0  0  0  0  0  0  0  0  0
  185.4520  178.2190  143.0260 C   0  0  0  0  0  0  0  0  0  0  0  0
  188.0540  177.9490  148.8520 O   0  0  0  0  0  1  0  0  0  0  0  0
  188.6150  177.3080  141.3960 N   0  0  0  0  0  0  0  0  0  0  0  0
  191.9780  176.5740  145.6010 O   0  0  0  0  0  0  0  0  0  0  0  0
  184.9650  178.4240  144.2770 N   0  0  0  0  0  0  0  0  0  0  0  0
  186.8010  177.8660  142.8550 C   0  0  0  0  0  0  0  0  0  0  0  0
  184.5970  178.3590  141.8800 N   0  0  0  0  0  2  0  0  0  0  0  0
  187.8610  177.8360  146.4500 C   0  0  0  0  0  3  0  0  0  0  0  0
  191.8490  176.9280  143.2470 C   0  0  0  0  0  2  0  0  0  0  0  0
  185.7350  178.3020  145.3860 C   0  0  0  0  0  0  0  0  0  0  0  0
  185.1650  178.5300  146.6410 C   0  0  0  0  0  3  0  0  0  0  0  0
  187.3140  177.6460  141.5710 C   0  0  0  0  0  3  0  0  0  0  0  0
  189.4620  177.1740  142.4460 C   0  0  0  0  0  0  0  0  0  0  0  0
  190.8240  176.8080  142.2150 N   0  0  0  0  0  2  0  0  0  0  0  0
  181.1940  179.0660  138.1150 C   0  0  0  0  0  0  0  0  0  0  0  0
  183.1610  179.2970  139.4970 C   0  0  0  0  0  3  0  0  0  0  0  0
  180.1010  177.8380  141.7720 Cl  0  0  0  0  0  0  0  0  0  0  0  0
  180.5840  179.1860  136.9120 F   0  0  0  0  0  0  0  0  0  0  0  0
  182.5340  179.4220  138.2560 C   0  0  0  0  0  3  0  0  0  0  0  0
  181.1000  178.4560  140.4630 C   0  0  0  0  0  0  0  0  0  0  0  0
  182.4640  178.8160  140.6170 C   0  0  0  0  0  0  0  0  0  0  0  0
  180.4830  178.5850  139.2140 C   0  0  0  0  0  3  0  0  0  0  0  0
  1  8  1  0  0  0  0
  1 11  1  0  0  0  0
  2  7  1  0  0  0  0
  3  2  2  0  0  0  0
  3  9  1  0  0  0  0
  5  4  2  0  0  0  0
  6  9  1  0  0  0  0
  6 13  2  0  0  0  0
  7 19  2  0  0  0  0
  7 17  1  0  0  0  0
 10 14  2  0  0  0  0
 12 21  1  0  0  0  0
 12 22  2  0  0  0  0
 14 19  1  0  0  0  0
 15 10  1  0  0  0  0
 15  2  1  0  0  0  0
 16  5  1  0  0  0  0
 16 10  1  0  0  0  0
 17  1  2  0  0  0  0
 18  6  1  0  0  0  0
 19 20  1  0  0  0  0
 20  8  2  0  0  0  0
 21 15  2  0  0  0  0
 22  3  1  0  0  0  0
 23 22  1  0  0  0  0
 23 18  1  0  0  0  0
 24 28  2  0  0  0  0
 24 31  1  0  0  0  0
 25 30  2  0  0  0  0
 27 24  1  0  0  0  0
 28 25  1  0  0  0  0
 29 30  1  0  0  0  0
 29 26  1  0  0  0  0
 30  5  1  0  0  0  0
 31 29  2  0  0  0  0
M  END
>  <MODEL>
6

>  <REMARK>
 VINA RESULT:     -10.1      4.501      6.734
  Name = 
  1 active torsions:
  status: ('A' for Active; 'I' for Inactive)
    1  A    between atoms: C_5  and  C_30
                            x       y       z     vdW  Elec       q    Type
                         _______ _______ _______ _____ _____    ______ ____

>  <TORSDO>
F 1

$$$$
=
 OpenBabel11122411093D

 31 35  0  0  0  0  0  0  0  0999 V2000
  186.7810  178.1190  147.0510 C   0  0  0  0  0  0  0  0  0  0  0  0
  187.4630  177.9810  143.3630 C   0  0  0  0  0  0  0  0  0  0  0  0
  188.8550  177.7400  143.2370 C   0  0  0  0  0  0  0  0  0  0  0  0
  182.4490  178.8250  142.0230 O   0  0  0  0  0  0  0  0  0  0  0  0
  183.1240  178.7040  140.9680 C   0  0  0  0  0  0  0  0  0  0  0  0
  191.0580  177.3750  144.2530 C   0  0  0  0  0  0  0  0  0  0  0  0
  186.7980  178.0990  144.6120 C   0  0  0  0  0  0  0  0  0  0  0  0
  185.4050  178.3510  147.0510 C   0  0  0  0  0  3  0  0  0  0  0  0
  189.6760  177.5580  144.3580 O   0  0  0  0  0  0  0  0  0  0  0  0
  185.3110  178.3410  142.2510 C   0  0  0  0  0  0  0  0  0  0  0  0
  187.4650  178.0110  148.2540 O   0  0  0  0  0  1  0  0  0  0  0  0
  188.6560  177.7660  140.8490 N   0  0  0  0  0  0  0  0  0  0  0  0
  191.7320  177.1100  145.2810 O   0  0  0  0  0  0  0  0  0  0  0  0
  184.7130  178.4480  143.4660 N   0  0  0  0  0  0  0  0  0  0  0  0
  186.6940  178.1060  142.1770 C   0  0  0  0  0  0  0  0  0  0  0  0
  184.5380  178.4650  141.0470 N   0  0  0  0  0  2  0  0  0  0  0  0
  187.4690  177.9950  145.8420 C   0  0  0  0  0  3  0  0  0  0  0  0
  191.7580  177.5620  142.9400 C   0  0  0  0  0  2  0  0  0  0  0  0
  185.4010  178.3370  144.6280 C   0  0  0  0  0  0  0  0  0  0  0  0
  184.7180  178.4590  145.8410 C   0  0  0  0  0  3  0  0  0  0  0  0
  187.3220  177.9890  140.9310 C   0  0  0  0  0  3  0  0  0  0  0  0
  189.4280  177.6520  141.9580 C   0  0  0  0  0  0  0  0  0  0  0  0
  190.8290  177.4080  141.8250 N   0  0  0  0  0  2  0  0  0  0  0  0
  181.3750  178.9090  137.0440 C   0  0  0  0  0  0  0  0  0  0  0  0
  183.0920  178.1410  138.5590 C   0  0  0  0  0  3  0  0  0  0  0  0
  180.4100  180.4180  140.6320 Cl  0  0  0  0  0  0  0  0  0  0  0  0
  180.8430  178.9580  135.8000 F   0  0  0  0  0  0  0  0  0  0  0  0
  182.5460  178.1900  137.2750 C   0  0  0  0  0  3  0  0  0  0  0  0
  181.2870  179.5360  139.3880 C   0  0  0  0  0  0  0  0  0  0  0  0
  182.4800  178.8070  139.6330 C   0  0  0  0  0  0  0  0  0  0  0  0
  180.7500  179.5770  138.0970 C   0  0  0  0  0  3  0  0  0  0  0  0
  1 11  1  0  0  0  0
  2  7  1  0  0  0  0
  3  2  2  0  0  0  0
  3  9  1  0  0  0  0
  5 16  1  0  0  0  0
  5  4  2  0  0  0  0
  6  9  1  0  0  0  0
  6 13  2  0  0  0  0
  7 19  2  0  0  0  0
  7 17  1  0  0  0  0
  8  1  1  0  0  0  0
 10 14  2  0  0  0  0
 12 21  1  0  0  0  0
 12 22  2  0  0  0  0
 14 19  1  0  0  0  0
 15 10  1  0  0  0  0
 15  2  1  0  0  0  0
 16 10  1  0  0  0  0
 17  1  2  0  0  0  0
 18  6  1  0  0  0  0
 19 20  1  0  0  0  0
 20  8  2  0  0  0  0
 21 15  2  0  0  0  0
 22  3  1  0  0  0  0
 23 22  1  0  0  0  0
 23 18  1  0  0  0  0
 24 28  2  0  0  0  0
 24 31  1  0  0  0  0
 25 30  2  0  0  0  0
 27 24  1  0  0  0  0
 28 25  1  0  0  0  0
 29 30  1  0  0  0  0
 29 26  1  0  0  0  0
 30  5  1  0  0  0  0
 31 29  2  0  0  0  0
M  END
>  <MODEL>
7

>  <REMARK>
 VINA RESULT:      -9.9      4.461      6.592
  Name = 
  1 active torsions:
  status: ('A' for Active; 'I' for Inactive)
    1  A    between atoms: C_5  and  C_30
                            x       y       z     vdW  Elec       q    Type
                         _______ _______ _______ _____ _____    ______ ____

>  <TORSDO>
F 1

$$$$
=
 OpenBabel11122411093D

 31 35  0  0  0  0  0  0  0  0999 V2000
  187.1740  178.0400  147.5430 C   0  0  0  0  0  0  0  0  0  0  0  0
  187.5770  177.8000  143.8190 C   0  0  0  0  0  0  0  0  0  0  0  0
  188.9420  177.4810  143.5990 C   0  0  0  0  0  0  0  0  0  0  0  0
  182.5310  178.8930  142.8250 O   0  0  0  0  0  0  0  0  0  0  0  0
  183.1200  178.7170  141.7270 C   0  0  0  0  0  0  0  0  0  0  0  0
  191.1900  177.0140  144.4610 C   0  0  0  0  0  0  0  0  0  0  0  0
  187.0120  177.9770  145.1100 C   0  0  0  0  0  0  0  0  0  0  0  0
  185.8160  178.3470  147.6360 C   0  0  0  0  0  3  0  0  0  0  0  0
  189.8310  177.2740  144.6610 O   0  0  0  0  0  0  0  0  0  0  0  0
  185.3720  178.2570  142.8570 C   0  0  0  0  0  0  0  0  0  0  0  0
  187.9370  177.9160  148.6960 O   0  0  0  0  0  1  0  0  0  0  0  0
  188.5700  177.4750  141.2310 N   0  0  0  0  0  0  0  0  0  0  0  0
  191.9220  176.7310  145.4440 O   0  0  0  0  0  0  0  0  0  0  0  0
  184.8700  178.4180  144.1090 N   0  0  0  0  0  0  0  0  0  0  0  0
  186.7310  177.9460  142.6890 C   0  0  0  0  0  0  0  0  0  0  0  0
  184.5210  178.4020  141.7090 N   0  0  0  0  0  2  0  0  0  0  0  0
  187.7650  177.8570  146.2910 C   0  0  0  0  0  3  0  0  0  0  0  0
  191.8010  177.1400  143.0980 C   0  0  0  0  0  2  0  0  0  0  0  0
  185.6350  178.2900  145.2210 C   0  0  0  0  0  0  0  0  0  0  0  0
  185.0490  178.4710  146.4770 C   0  0  0  0  0  3  0  0  0  0  0  0
  187.2600  177.7730  141.4040 C   0  0  0  0  0  3  0  0  0  0  0  0
  189.4140  177.3390  142.2840 C   0  0  0  0  0  0  0  0  0  0  0  0
  190.7870  177.0160  142.0560 N   0  0  0  0  0  2  0  0  0  0  0  0
  180.8580  179.0280  138.0820 C   0  0  0  0  0  0  0  0  0  0  0  0
  180.9860  178.7260  140.4740 C   0  0  0  0  0  3  0  0  0  0  0  0
  184.7610  179.1930  138.9880 Cl  0  0  0  0  0  0  0  0  0  0  0  0
  180.1240  179.1230  136.9480 F   0  0  0  0  0  0  0  0  0  0  0  0
  180.2270  178.8230  139.3070 C   0  0  0  0  0  3  0  0  0  0  0  0
  183.0200  179.0410  139.1870 C   0  0  0  0  0  0  0  0  0  0  0  0
  182.3860  178.8310  140.4400 C   0  0  0  0  0  0  0  0  0  0  0  0
  182.2480  179.1370  138.0240 C   0  0  0  0  0  3  0  0  0  0  0  0
  1  8  1  0  0  0  0
  1 11  1  0  0  0  0
  2  7  1  0  0  0  0
  3  2  2  0  0  0  0
  3  9  1  0  0  0  0
  5  4  2  0  0  0  0
  6  9  1  0  0  0  0
  6 13  2  0  0  0  0
  7 19  2  0  0  0  0
  7 17  1  0  0  0  0
 10 14  2  0  0  0  0
 12 21  1  0  0  0  0
 12 22  2  0  0  0  0
 14 19  1  0  0  0  0
 15 10  1  0  0  0  0
 15  2  1  0  0  0  0
 16  5  1  0  0  0  0
 16 10  1  0  0  0  0
 17  1  2  0  0  0  0
 18  6  1  0  0  0  0
 19 20  1  0  0  0  0
 20  8  2  0  0  0  0
 21 15  2  0  0  0  0
 22  3  1  0  0  0  0
 23 22  1  0  0  0  0
 23 18  1  0  0  0  0
 24 28  1  0  0  0  0
 26 29  1  0  0  0  0
 27 24  1  0  0  0  0
 28 25  2  0  0  0  0
 29 30  2  0  0  0  0
 30 25  1  0  0  0  0
 30  5  1  0  0  0  0
 31 24  2  0  0  0  0
 31 29  1  0  0  0  0
M  END
>  <MODEL>
8

>  <REMARK>
 VINA RESULT:      -9.9      4.185      6.573
  Name = 
  1 active torsions:
  status: ('A' for Active; 'I' for Inactive)
    1  A    between atoms: C_5  and  C_30
                            x       y       z     vdW  Elec       q    Type
                         _______ _______ _______ _____ _____    ______ ____

>  <TORSDO>
F 1

$$$$
=
 OpenBabel11122411093D

 31 35  0  0  0  0  0  0  0  0999 V2000
  185.4720  178.2620  146.3190 C   0  0  0  0  0  0  0  0  0  0  0  0
  185.6110  178.3400  142.5690 C   0  0  0  0  0  0  0  0  0  0  0  0
  184.3000  178.6730  142.1420 C   0  0  0  0  0  0  0  0  0  0  0  0
  190.7200  177.1150  142.3570 O   0  0  0  0  0  0  0  0  0  0  0  0
  190.2980  177.2510  141.1790 C   0  0  0  0  0  0  0  0  0  0  0  0
  181.9630  179.2180  142.6510 C   0  0  0  0  0  0  0  0  0  0  0  0
  185.9820  178.2120  143.9340 C   0  0  0  0  0  0  0  0  0  0  0  0
  186.7950  177.9360  146.6190 C   0  0  0  0  0  3  0  0  0  0  0  0
  183.2730  178.9440  143.0550 O   0  0  0  0  0  0  0  0  0  0  0  0
  187.9190  177.8010  141.9540 C   0  0  0  0  0  0  0  0  0  0  0  0
  184.5550  178.4510  147.3430 O   0  0  0  0  0  1  0  0  0  0  0  0
  185.0050  178.5650  139.8540 N   0  0  0  0  0  0  0  0  0  0  0  0
  181.1050  179.5580  143.5060 O   0  0  0  0  0  0  0  0  0  0  0  0
  188.2330  177.6880  143.2710 N   0  0  0  0  0  0  0  0  0  0  0  0
  186.6060  178.1280  141.5790 C   0  0  0  0  0  0  0  0  0  0  0  0
  188.9210  177.5890  140.9470 N   0  0  0  0  0  2  0  0  0  0  0  0
  185.0710  178.3980  144.9880 C   0  0  0  0  0  3  0  0  0  0  0  0
  181.5500  179.0420  141.2210 C   0  0  0  0  0  2  0  0  0  0  0  0
  187.3200  177.8800  144.2550 C   0  0  0  0  0  0  0  0  0  0  0  0
  187.7160  177.7450  145.5880 C   0  0  0  0  0  3  0  0  0  0  0  0
  186.2700  178.2530  140.2260 C   0  0  0  0  0  3  0  0  0  0  0  0
  184.0240  178.7640  140.7680 C   0  0  0  0  0  0  0  0  0  0  0  0
  182.7060  179.1000  140.3310 N   0  0  0  0  0  2  0  0  0  0  0  0
  193.0470  176.7530  137.9100 C   0  0  0  0  0  0  0  0  0  0  0  0
  192.5780  177.2820  140.2180 C   0  0  0  0  0  3  0  0  0  0  0  0
  189.0760  176.3780  138.3220 Cl  0  0  0  0  0  0  0  0  0  0  0  0
  193.9330  176.6020  136.8960 F   0  0  0  0  0  0  0  0  0  0  0  0
  193.4930  177.1280  139.1760 C   0  0  0  0  0  3  0  0  0  0  0  0
  190.7610  176.6840  138.7240 C   0  0  0  0  0  0  0  0  0  0  0  0
  191.2040  177.0660  140.0170 C   0  0  0  0  0  0  0  0  0  0  0  0
  191.6880  176.5320  137.6870 C   0  0  0  0  0  3  0  0  0  0  0  0
  1  8  1  0  0  0  0
  1 11  1  0  0  0  0
  2  7  1  0  0  0  0
  3  2  2  0  0  0  0
  3  9  1  0  0  0  0
  5  4  2  0  0  0  0
  6  9  1  0  0  0  0
  6 13  2  0  0  0  0
  7 19  2  0  0  0  0
  7 17  1  0  0  0  0
 10 14  2  0  0  0  0
 12 21  1  0  0  0  0
 12 22  2  0  0  0  0
 14 19  1  0  0  0  0
 15 10  1  0  0  0  0
 15  2  1  0  0  0  0
 16  5  1  0  0  0  0
 16 10  1  0  0  0  0
 17  1  2  0  0  0  0
 18  6  1  0  0  0  0
 19 20  1  0  0  0  0
 20  8  2  0  0  0  0
 21 15  2  0  0  0  0
 22  3  1  0  0  0  0
 23 22  1  0  0  0  0
 23 18  1  0  0  0  0
 24 28  1  0  0  0  0
 26 29  1  0  0  0  0
 27 24  1  0  0  0  0
 28 25  2  0  0  0  0
 29 30  2  0  0  0  0
 30 25  1  0  0  0  0
 30  5  1  0  0  0  0
 31 24  2  0  0  0  0
 31 29  1  0  0  0  0
M  END
>  <MODEL>
9

>  <REMARK>
 VINA RESULT:      -9.6      2.335      5.108
  Name = 
  1 active torsions:
  status: ('A' for Active; 'I' for Inactive)
    1  A    between atoms: C_5  and  C_30
                            x       y       z     vdW  Elec       q    Type
                         _______ _______ _______ _____ _____    ______ ____

>  <TORSDO>
F 1

$$$$
