=
 OpenBabel11122411343D

 37 43  0  0  1  0  0  0  0  0999 V2000
  190.2560  175.0870  136.5520 C   0  0  1  0  0  0  0  0  0  0  0  0
  188.6080  178.7090  138.1830 C   0  0  1  0  0  3  0  0  0  0  0  0
  187.7990  178.9370  141.9940 C   0  0  0  0  0  2  0  0  0  0  0  0
  189.7180  177.5610  136.1180 C   0  0  2  0  0  3  0  0  0  0  0  0
  188.5280  178.2120  139.6180 C   0  0  1  0  0  3  0  0  0  0  0  0
  189.7450  177.8490  137.6380 C   0  0  2  0  0  3  0  0  0  0  0  0
  187.3760  178.5580  140.5720 C   0  0  0  0  0  0  0  0  0  0  0  0
  188.3680  177.2770  135.6350 N   0  0  0  0  0  2  0  0  0  0  0  0
  189.8560  176.6140  138.5430 C   0  0  2  0  0  3  0  0  0  0  0  0
  191.5300  174.3620  136.9320 C   0  0  0  0  0  1  0  0  0  0  0  0
  186.4260  177.4320  137.9070 C   0  0  0  0  0  2  0  0  0  0  0  0
  187.5340  178.4400  135.9010 C   0  0  0  0  0  2  0  0  0  0  0  0
  189.4260  175.3390  137.8210 C   0  0  0  0  0  2  0  0  0  0  0  0
  189.6050  177.6180  143.4430 C   0  0  1  0  0  3  0  0  0  0  0  0
  189.2260  178.4770  142.2570 C   0  0  1  0  0  3  0  0  0  0  0  0
  187.2920  178.5670  137.4000 C   0  0  2  0  0  3  0  0  0  0  0  0
  189.0270  176.8280  139.7270 N   0  0  1  0  0  0  0  0  0  0  0  0
  190.6360  176.3790  135.8010 C   0  0  0  0  0  2  0  0  0  0  0  0
  186.0530  178.3660  140.2940 C   0  0  0  0  0  0  0  0  0  0  0  0
  189.5180  174.2700  135.6960 O   0  0  0  0  0  1  0  0  0  0  0  0
  189.1070  176.9610  142.1590 C   0  0  1  0  0  3  0  0  0  0  0  0
  189.9160  176.7040  140.8950 C   0  0  0  0  0  2  0  0  0  0  0  0
  185.4790  178.0020  138.9410 C   0  0  0  0  0  2  0  0  0  0  0  0
  183.6650  178.6290  140.9960 C   0  0  0  0  0  3  0  0  0  0  0  0
  185.0220  178.5690  141.3440 C   0  0  0  0  0  0  0  0  0  0  0  0
  185.3780  178.6480  142.6580 N   0  0  0  0  0  0  0  0  0  0  0  0
  184.8970  178.8960  145.0620 C   0  0  0  0  0  1  0  0  0  0  0  0
  183.0990  178.8810  143.3300 C   0  0  0  0  0  3  0  0  0  0  0  0
  184.4560  178.8060  143.6450 C   0  0  0  0  0  0  0  0  0  0  0  0
  182.7040  178.7890  141.9950 C   0  0  0  0  0  3  0  0  0  0  0  0
  189.8450  176.9920  146.1960 O   0  0  0  0  0  0  0  0  0  0  0  0
  191.0490  176.6750  146.0050 C   0  0  0  0  0  0  0  0  0  0  0  0
  191.0950  177.4860  143.5770 C   0  0  0  0  0  0  0  0  0  0  0  0
  191.7070  176.9690  144.7660 N   0  0  0  0  0  2  0  0  0  0  0  0
  191.8360  177.8550  142.6270 O   0  0  0  0  0  0  0  0  0  0  0  0
  192.1000  176.9890  148.0890 O   0  0  0  0  0  1  0  0  0  0  0  0
  191.8200  176.0400  147.1070 C   0  0  0  0  0  2  0  0  0  0  0  0
  1 10  1  1  0  0  0
  1 13  1  0  0  0  0
  2  5  1  0  0  0  0
  3 15  1  0  0  0  0
  4  6  1  0  0  0  0
  5 17  1  0  0  0  0
  5  7  1  0  0  0  0
  6  2  1  0  0  0  0
  6  9  1  0  0  0  0
  7  3  1  0  0  0  0
  8 12  1  0  0  0  0
  8  4  1  0  0  0  0
  9 17  1  0  0  0  0
 11 23  1  0  0  0  0
 12 16  1  0  0  0  0
 13  9  1  0  0  0  0
 14 33  1  0  0  0  0
 15 14  1  0  0  0  0
 16 11  1  0  0  0  0
 16  2  1  0  0  0  0
 17 22  1  0  0  0  0
 18  4  1  0  0  0  0
 18  1  1  0  0  0  0
 19  7  2  0  0  0  0
 19 25  1  0  0  0  0
 20  1  1  0  0  0  0
 21 15  1  0  0  0  0
 21 14  1  0  0  0  0
 22 21  1  0  0  0  0
 23 19  1  0  0  0  0
 24 25  2  0  0  0  0
 24 30  1  0  0  0  0
 25 26  1  0  0  0  0
 26 29  2  0  0  0  0
 28 29  1  0  0  0  0
 29 27  1  0  0  0  0
 30 28  2  0  0  0  0
 32 31  2  0  0  0  0
 32 37  1  0  0  0  0
 33 34  1  0  0  0  0
 34 32  1  0  0  0  0
 35 33  2  0  0  0  0
 37 36  1  0  0  0  0
M  END
>  <MODEL>
1

>  <REMARK>
 VINA RESULT:      -9.4      0.000      0.000
  Name = 
  3 active torsions:
  status: ('A' for Active; 'I' for Inactive)
    1  A    between atoms: C_4  and  C_37
    2  A    between atoms: C_8  and  C_18
    3  A    between atoms: C_23  and  C_30
                            x       y       z     vdW  Elec       q    Type
                         _______ _______ _______ _____ _____    ______ ____

>  <TORSDO>
F 3

$$$$
=
 OpenBabel11122411343D

 37 43  0  0  1  0  0  0  0  0999 V2000
  182.3380  176.7020  136.5680 C   0  0  1  0  0  0  0  0  0  0  0  0
  183.9670  179.4950  139.4030 C   0  0  1  0  0  3  0  0  0  0  0  0
  187.4900  178.8590  140.9590 C   0  0  0  0  0  2  0  0  0  0  0  0
  182.0910  179.0160  137.6520 C   0  0  2  0  0  3  0  0  0  0  0  0
  185.2750  178.7510  139.6210 C   0  0  1  0  0  3  0  0  0  0  0  0
  183.6000  179.0340  137.9950 C   0  0  2  0  0  3  0  0  0  0  0  0
  185.9740  178.6450  140.9850 C   0  0  0  0  0  0  0  0  0  0  0  0
  181.2800  178.5130  138.7590 N   0  0  0  0  0  2  0  0  0  0  0  0
  184.3520  177.7210  137.7350 C   0  0  2  0  0  3  0  0  0  0  0  0
  182.9120  176.2400  135.2440 C   0  0  0  0  0  1  0  0  0  0  0  0
  183.0470  177.8110  141.0710 C   0  0  0  0  0  2  0  0  0  0  0  0
  181.4850  179.3840  139.9070 C   0  0  0  0  0  2  0  0  0  0  0  0
  183.4030  176.5270  137.6630 C   0  0  0  0  0  2  0  0  0  0  0  0
  189.1460  177.7680  139.1800 C   0  0  1  0  0  3  0  0  0  0  0  0
  188.0160  178.7080  139.5400 C   0  0  1  0  0  3  0  0  0  0  0  0
  182.8920  179.1870  140.4580 C   0  0  2  0  0  3  0  0  0  0  0  0
  185.3300  177.5250  138.8020 N   0  0  1  0  0  0  0  0  0  0  0  0
  181.8550  178.1570  136.4090 C   0  0  0  0  0  2  0  0  0  0  0  0
  185.3780  178.2000  142.1300 C   0  0  0  0  0  0  0  0  0  0  0  0
  181.2440  175.8970  136.8830 O   0  0  0  0  0  1  0  0  0  0  0  0
  187.7140  177.2480  139.2290 C   0  0  1  0  0  3  0  0  0  0  0  0
  186.6480  177.4110  138.1540 C   0  0  0  0  0  2  0  0  0  0  0  0
  183.8950  177.9540  142.3150 C   0  0  0  0  0  2  0  0  0  0  0  0
  187.4020  177.2890  143.2870 C   0  0  0  0  0  3  0  0  0  0  0  0
  186.1780  177.9700  143.3600 C   0  0  0  0  0  0  0  0  0  0  0  0
  185.7590  178.4610  144.5610 N   0  0  0  0  0  0  0  0  0  0  0  0
  185.9750  178.8380  146.9870 C   0  0  0  0  0  1  0  0  0  0  0  0
  187.6970  177.6070  145.6620 C   0  0  0  0  0  3  0  0  0  0  0  0
  186.4810  178.2910  145.7000 C   0  0  0  0  0  0  0  0  0  0  0  0
  188.1580  177.1050  144.4460 C   0  0  0  0  0  3  0  0  0  0  0  0
  190.7780  175.4810  138.8120 O   0  0  0  0  0  0  0  0  0  0  0  0
  190.8000  175.7130  137.5740 C   0  0  0  0  0  0  0  0  0  0  0  0
  189.6030  177.9680  137.7630 C   0  0  0  0  0  0  0  0  0  0  0  0
  190.3030  176.9470  137.0400 N   0  0  0  0  0  2  0  0  0  0  0  0
  189.3840  179.0700  137.1930 O   0  0  0  0  0  0  0  0  0  0  0  0
  190.8640  173.4560  136.9030 O   0  0  0  0  0  1  0  0  0  0  0  0
  191.4100  174.7160  136.6550 C   0  0  0  0  0  2  0  0  0  0  0  0
  1 10  1  6  0  0  0
  1 20  1  0  0  0  0
  1 13  1  0  0  0  0
  2  5  1  0  0  0  0
  2 16  1  0  0  0  0
  3  7  1  0  0  0  0
  4  6  1  0  0  0  0
  4  8  1  0  0  0  0
  5  7  1  0  0  0  0
  6  2  1  0  0  0  0
  7 19  2  0  0  0  0
  8 12  1  0  0  0  0
  9  6  1  0  0  0  0
  9 17  1  0  0  0  0
 11 23  1  0  0  0  0
 12 16  1  0  0  0  0
 13  9  1  0  0  0  0
 14 21  1  0  0  0  0
 14 15  1  0  0  0  0
 15  3  1  0  0  0  0
 16 11  1  0  0  0  0
 17  5  1  0  0  0  0
 18  1  1  0  0  0  0
 18  4  1  0  0  0  0
 19 23  1  0  0  0  0
 19 25  1  0  0  0  0
 21 15  1  0  0  0  0
 22 17  1  0  0  0  0
 22 21  1  0  0  0  0
 24 25  2  0  0  0  0
 24 30  1  0  0  0  0
 25 26  1  0  0  0  0
 26 29  2  0  0  0  0
 28 29  1  0  0  0  0
 29 27  1  0  0  0  0
 30 28  2  0  0  0  0
 32 31  2  0  0  0  0
 33 14  1  0  0  0  0
 34 32  1  0  0  0  0
 34 33  1  0  0  0  0
 35 33  2  0  0  0  0
 37 36  1  0  0  0  0
 37 32  1  0  0  0  0
M  END
>  <MODEL>
2

>  <REMARK>
 VINA RESULT:      -8.8      2.978      6.129
  Name = 
  3 active torsions:
  status: ('A' for Active; 'I' for Inactive)
    1  A    between atoms: C_4  and  C_37
    2  A    between atoms: C_8  and  C_18
    3  A    between atoms: C_23  and  C_30
                            x       y       z     vdW  Elec       q    Type
                         _______ _______ _______ _____ _____    ______ ____

>  <TORSDO>
F 3

$$$$
=
 OpenBabel11122411343D

 37 43  0  0  1  0  0  0  0  0999 V2000
  182.2250  176.7280  136.5670 C   0  0  1  0  0  0  0  0  0  0  0  0
  183.5290  179.6380  139.4520 C   0  0  1  0  0  3  0  0  0  0  0  0
  186.9380  179.1640  141.2910 C   0  0  0  0  0  2  0  0  0  0  0  0
  181.8140  179.0540  137.5730 C   0  0  2  0  0  3  0  0  0  0  0  0
  184.8410  178.9470  139.7890 C   0  0  1  0  0  3  0  0  0  0  0  0
  183.2890  179.1340  138.0310 C   0  0  2  0  0  3  0  0  0  0  0  0
  185.4330  178.8960  141.2040 C   0  0  0  0  0  0  0  0  0  0  0  0
  180.9360  178.5450  138.6250 N   0  0  0  0  0  2  0  0  0  0  0  0
  184.1050  177.8450  137.8610 C   0  0  2  0  0  3  0  0  0  0  0  0
  182.9160  176.2600  135.3020 C   0  0  0  0  0  1  0  0  0  0  0  0
  182.5400  177.9570  141.0830 C   0  0  0  0  0  2  0  0  0  0  0  0
  181.0190  179.4470  139.7640 C   0  0  0  0  0  2  0  0  0  0  0  0
  183.2060  176.6150  137.7450 C   0  0  0  0  0  2  0  0  0  0  0  0
  188.7660  178.0980  139.6730 C   0  0  1  0  0  3  0  0  0  0  0  0
  187.5800  179.0030  139.9210 C   0  0  1  0  0  3  0  0  0  0  0  0
  182.3850  179.3130  140.4270 C   0  0  2  0  0  3  0  0  0  0  0  0
  185.0020  177.7070  139.0060 N   0  0  1  0  0  0  0  0  0  0  0  0
  181.7050  178.1610  136.3360 C   0  0  0  0  0  2  0  0  0  0  0  0
  184.7660  178.4530  142.3100 C   0  0  0  0  0  0  0  0  0  0  0  0
  181.1380  175.8900  136.8150 O   0  0  0  0  0  1  0  0  0  0  0  0
  187.3530  177.5260  139.6230 C   0  0  1  0  0  3  0  0  0  0  0  0
  186.3700  177.6280  138.4650 C   0  0  0  0  0  2  0  0  0  0  0  0
  183.2820  178.1570  142.3860 C   0  0  0  0  0  2  0  0  0  0  0  0
  184.8580  178.6610  144.8030 C   0  0  0  0  0  3  0  0  0  0  0  0
  185.4750  178.2780  143.6030 C   0  0  0  0  0  0  0  0  0  0  0  0
  186.7090  177.6980  143.6430 N   0  0  0  0  0  0  0  0  0  0  0  0
  188.7200  176.8700  144.8010 C   0  0  0  0  0  1  0  0  0  0  0  0
  186.7910  177.8800  146.0220 C   0  0  0  0  0  3  0  0  0  0  0  0
  187.3730  177.4990  144.8120 C   0  0  0  0  0  0  0  0  0  0  0  0
  185.5240  178.4630  146.0130 C   0  0  0  0  0  3  0  0  0  0  0  0
  190.5930  175.9350  139.5330 O   0  0  0  0  0  0  0  0  0  0  0  0
  190.7020  176.1260  138.2930 C   0  0  0  0  0  0  0  0  0  0  0  0
  189.3260  178.2840  138.2910 C   0  0  0  0  0  0  0  0  0  0  0  0
  190.1600  177.2970  137.6700 N   0  0  0  0  0  2  0  0  0  0  0  0
  189.0720  179.3450  137.6600 O   0  0  0  0  0  0  0  0  0  0  0  0
  190.7770  173.9350  137.4320 O   0  0  0  0  0  1  0  0  0  0  0  0
  191.4620  175.1490  137.4690 C   0  0  0  0  0  2  0  0  0  0  0  0
  1 10  1  6  0  0  0
  1 20  1  0  0  0  0
  1 13  1  0  0  0  0
  2  5  1  0  0  0  0
  2 16  1  0  0  0  0
  4  6  1  0  0  0  0
  4  8  1  0  0  0  0
  5  7  1  0  0  0  0
  6  2  1  0  0  0  0
  7  3  1  0  0  0  0
  7 19  2  0  0  0  0
  8 12  1  0  0  0  0
  9  6  1  0  0  0  0
  9 17  1  0  0  0  0
 11 23  1  0  0  0  0
 12 16  1  0  0  0  0
 13  9  1  0  0  0  0
 14 15  1  0  0  0  0
 15  3  1  0  0  0  0
 16 11  1  0  0  0  0
 17  5  1  0  0  0  0
 18  1  1  0  0  0  0
 18  4  1  0  0  0  0
 19 23  1  0  0  0  0
 19 25  1  0  0  0  0
 21 14  1  0  0  0  0
 21 15  1  0  0  0  0
 22 17  1  0  0  0  0
 22 21  1  0  0  0  0
 24 30  1  0  0  0  0
 25 26  1  0  0  0  0
 25 24  2  0  0  0  0
 26 29  2  0  0  0  0
 27 29  1  0  0  0  0
 29 28  1  0  0  0  0
 30 28  2  0  0  0  0
 32 31  2  0  0  0  0
 33 14  1  0  0  0  0
 34 33  1  0  0  0  0
 34 32  1  0  0  0  0
 35 33  2  0  0  0  0
 36 37  1  0  0  0  0
 37 32  1  0  0  0  0
M  END
>  <MODEL>
3

>  <REMARK>
 VINA RESULT:      -8.7      2.947      6.062
  Name = 
  3 active torsions:
  status: ('A' for Active; 'I' for Inactive)
    1  A    between atoms: C_4  and  C_37
    2  A    between atoms: C_8  and  C_18
    3  A    between atoms: C_23  and  C_30
                            x       y       z     vdW  Elec       q    Type
                         _______ _______ _______ _____ _____    ______ ____

>  <TORSDO>
F 3

$$$$
=
 OpenBabel11122411343D

 37 43  0  0  1  0  0  0  0  0999 V2000
  191.3690  174.4160  136.7930 C   0  0  1  0  0  0  0  0  0  0  0  0
  189.4030  178.1700  137.5250 C   0  0  1  0  0  3  0  0  0  0  0  0
  187.8070  178.8840  141.0150 C   0  0  0  0  0  2  0  0  0  0  0  0
  190.9270  176.7900  135.9180 C   0  0  2  0  0  3  0  0  0  0  0  0
  189.0240  177.8690  138.9670 C   0  0  1  0  0  3  0  0  0  0  0  0
  190.6320  177.2810  137.3540 C   0  0  2  0  0  3  0  0  0  0  0  0
  187.6950  178.3030  139.6030 C   0  0  0  0  0  0  0  0  0  0  0  0
  189.7100  176.4000  135.2080 N   0  0  0  0  0  2  0  0  0  0  0  0
  190.5540  176.1850  138.4260 C   0  0  2  0  0  3  0  0  0  0  0  0
  192.5370  173.7900  137.5280 C   0  0  0  0  0  1  0  0  0  0  0  0
  187.3320  176.7980  136.9810 C   0  0  0  0  0  2  0  0  0  0  0  0
  188.8360  177.5610  135.1300 C   0  0  0  0  0  2  0  0  0  0  0  0
  190.2890  174.8100  137.8140 C   0  0  0  0  0  2  0  0  0  0  0  0
  189.2710  177.8320  142.9770 C   0  0  1  0  0  3  0  0  0  0  0  0
  189.1480  178.5110  141.6300 C   0  0  1  0  0  3  0  0  0  0  0  0
  188.2820  177.8810  136.5130 C   0  0  2  0  0  3  0  0  0  0  0  0
  189.4930  176.5290  139.3690 N   0  0  1  0  0  0  0  0  0  0  0  0
  191.8950  175.6060  135.9660 C   0  0  0  0  0  2  0  0  0  0  0  0
  186.4610  178.0330  139.0850 C   0  0  0  0  0  0  0  0  0  0  0  0
  190.8310  173.4680  135.9240 O   0  0  0  0  0  1  0  0  0  0  0  0
  189.0570  176.9930  141.7220 C   0  0  1  0  0  3  0  0  0  0  0  0
  190.1150  176.5930  140.7030 C   0  0  0  0  0  2  0  0  0  0  0  0
  186.1870  177.4720  137.7050 C   0  0  0  0  0  2  0  0  0  0  0  0
  185.2360  178.2530  141.2560 C   0  0  0  0  0  3  0  0  0  0  0  0
  185.2310  178.3420  139.8570 C   0  0  0  0  0  0  0  0  0  0  0  0
  184.1010  178.7650  139.2200 N   0  0  0  0  0  0  0  0  0  0  0  0
  181.7600  179.5300  139.1570 C   0  0  0  0  0  1  0  0  0  0  0  0
  182.9370  178.9920  141.2910 C   0  0  0  0  0  3  0  0  0  0  0  0
  182.9670  179.0830  139.8990 C   0  0  0  0  0  0  0  0  0  0  0  0
  184.0820  178.5750  141.9710 C   0  0  0  0  0  3  0  0  0  0  0  0
  188.9260  177.3520  145.7490 O   0  0  0  0  0  0  0  0  0  0  0  0
  190.1510  177.0760  145.8390 C   0  0  0  0  0  0  0  0  0  0  0  0
  190.7000  177.7680  143.4360 C   0  0  0  0  0  0  0  0  0  0  0  0
  191.0540  177.3350  144.7570 N   0  0  0  0  0  2  0  0  0  0  0  0
  191.6190  178.1200  142.6490 O   0  0  0  0  0  0  0  0  0  0  0  0
  192.0560  176.7620  147.1880 O   0  0  0  0  0  1  0  0  0  0  0  0
  190.6830  176.5280  147.1150 C   0  0  0  0  0  2  0  0  0  0  0  0
  1 10  1  1  0  0  0
  1 13  1  0  0  0  0
  2  5  1  0  0  0  0
  3 15  1  0  0  0  0
  4 18  1  0  0  0  0
  4  6  1  0  0  0  0
  5 17  1  0  0  0  0
  5  7  1  0  0  0  0
  6  2  1  0  0  0  0
  6  9  1  0  0  0  0
  7  3  1  0  0  0  0
  8  4  1  0  0  0  0
  9 17  1  0  0  0  0
 11 23  1  0  0  0  0
 12  8  1  0  0  0  0
 12 16  1  0  0  0  0
 13  9  1  0  0  0  0
 14 33  1  0  0  0  0
 15 21  1  0  0  0  0
 15 14  1  0  0  0  0
 16 11  1  0  0  0  0
 16  2  1  0  0  0  0
 17 22  1  0  0  0  0
 18  1  1  0  0  0  0
 19  7  2  0  0  0  0
 19 25  1  0  0  0  0
 20  1  1  0  0  0  0
 21 14  1  0  0  0  0
 22 21  1  0  0  0  0
 23 19  1  0  0  0  0
 24 30  1  0  0  0  0
 25 24  2  0  0  0  0
 26 25  1  0  0  0  0
 26 29  2  0  0  0  0
 27 29  1  0  0  0  0
 28 30  2  0  0  0  0
 29 28  1  0  0  0  0
 31 32  2  0  0  0  0
 32 37  1  0  0  0  0
 33 34  1  0  0  0  0
 34 32  1  0  0  0  0
 35 33  2  0  0  0  0
 37 36  1  0  0  0  0
M  END
>  <MODEL>
4

>  <REMARK>
 VINA RESULT:      -7.9      1.252      1.834
  Name = 
  3 active torsions:
  status: ('A' for Active; 'I' for Inactive)
    1  A    between atoms: C_4  and  C_37
    2  A    between atoms: C_8  and  C_18
    3  A    between atoms: C_23  and  C_30
                            x       y       z     vdW  Elec       q    Type
                         _______ _______ _______ _____ _____    ______ ____

>  <TORSDO>
F 3

$$$$
=
 OpenBabel11122411343D

 37 43  0  0  1  0  0  0  0  0999 V2000
  183.4330  172.4500  135.5140 C   0  0  1  0  0  0  0  0  0  0  0  0
  182.2530  176.3900  136.7730 C   0  0  1  0  0  3  0  0  0  0  0  0
  184.7060  178.5760  138.8810 C   0  0  0  0  0  2  0  0  0  0  0  0
  181.7030  174.3320  135.2650 C   0  0  2  0  0  3  0  0  0  0  0  0
  183.5500  176.7160  137.4990 C   0  0  1  0  0  3  0  0  0  0  0  0
  182.7410  175.3720  135.7460 C   0  0  2  0  0  3  0  0  0  0  0  0
  183.6090  177.5090  138.8130 C   0  0  0  0  0  0  0  0  0  0  0  0
  180.8710  173.8370  136.3600 N   0  0  0  0  0  2  0  0  0  0  0  0
  184.0630  174.7930  136.2710 C   0  0  2  0  0  3  0  0  0  0  0  0
  184.6260  172.0320  134.6800 C   0  0  0  0  0  1  0  0  0  0  0  0
  181.6800  175.1560  138.9220 C   0  0  0  0  0  2  0  0  0  0  0  0
  180.1610  174.9670  136.9410 C   0  0  0  0  0  2  0  0  0  0  0  0
  183.9190  173.3280  136.6790 C   0  0  0  0  0  2  0  0  0  0  0  0
  187.2290  178.2100  138.1080 C   0  0  1  0  0  3  0  0  0  0  0  0
  185.7510  178.3220  137.8040 C   0  0  1  0  0  3  0  0  0  0  0  0
  181.1410  175.8590  137.6930 C   0  0  2  0  0  3  0  0  0  0  0  0
  184.5020  175.5940  137.4110 N   0  0  1  0  0  0  0  0  0  0  0  0
  182.4190  173.1590  134.5940 C   0  0  0  0  0  2  0  0  0  0  0  0
  182.9040  177.2000  139.9400 C   0  0  0  0  0  0  0  0  0  0  0  0
  182.8360  171.3060  136.0430 O   0  0  0  0  0  1  0  0  0  0  0  0
  186.3360  176.9790  138.2230 C   0  0  1  0  0  3  0  0  0  0  0  0
  185.8470  176.0990  137.0810 C   0  0  0  0  0  2  0  0  0  0  0  0
  181.7850  176.1820  140.0290 C   0  0  0  0  0  2  0  0  0  0  0  0
  182.1300  178.6570  141.8230 C   0  0  0  0  0  3  0  0  0  0  0  0
  183.1560  177.9210  141.2130 C   0  0  0  0  0  0  0  0  0  0  0  0
  184.3700  177.8340  141.8290 N   0  0  0  0  0  0  0  0  0  0  0  0
  185.9690  178.3400  143.6340 C   0  0  0  0  0  1  0  0  0  0  0  0
  183.6280  179.2080  143.6340 C   0  0  0  0  0  3  0  0  0  0  0  0
  184.6260  178.4590  143.0090 C   0  0  0  0  0  0  0  0  0  0  0  0
  182.3720  179.3040  143.0340 C   0  0  0  0  0  3  0  0  0  0  0  0
  189.7160  177.3010  139.1190 O   0  0  0  0  0  0  0  0  0  0  0  0
  190.1040  177.0930  137.9390 C   0  0  0  0  0  0  0  0  0  0  0  0
  188.0510  178.1690  136.8510 C   0  0  0  0  0  0  0  0  0  0  0  0
  189.3520  177.5670  136.8150 N   0  0  0  0  0  2  0  0  0  0  0  0
  187.5970  178.6910  135.7980 O   0  0  0  0  0  0  0  0  0  0  0  0
  191.3570  175.1310  138.2940 O   0  0  0  0  0  1  0  0  0  0  0  0
  191.3970  176.3960  137.7080 C   0  0  0  0  0  2  0  0  0  0  0  0
  1 10  1  6  0  0  0
  1 20  1  0  0  0  0
  1 13  1  0  0  0  0
  2  5  1  0  0  0  0
  2 16  1  0  0  0  0
  4  6  1  0  0  0  0
  4  8  1  0  0  0  0
  5  7  1  0  0  0  0
  6  9  1  0  0  0  0
  6  2  1  0  0  0  0
  7  3  1  0  0  0  0
  7 19  2  0  0  0  0
  8 12  1  0  0  0  0
  9 13  1  0  0  0  0
  9 17  1  0  0  0  0
 11 23  1  0  0  0  0
 12 16  1  0  0  0  0
 14 21  1  0  0  0  0
 15 14  1  0  0  0  0
 15 21  1  0  0  0  0
 15  3  1  0  0  0  0
 16 11  1  0  0  0  0
 17  5  1  0  0  0  0
 18  4  1  0  0  0  0
 18  1  1  0  0  0  0
 19 23  1  0  0  0  0
 19 25  1  0  0  0  0
 22 17  1  0  0  0  0
 22 21  1  0  0  0  0
 24 30  1  0  0  0  0
 25 24  2  0  0  0  0
 25 26  1  0  0  0  0
 26 29  2  0  0  0  0
 29 27  1  0  0  0  0
 29 28  1  0  0  0  0
 30 28  2  0  0  0  0
 32 31  2  0  0  0  0
 33 14  1  0  0  0  0
 34 33  1  0  0  0  0
 34 32  1  0  0  0  0
 35 33  2  0  0  0  0
 37 32  1  0  0  0  0
 37 36  1  0  0  0  0
M  END
>  <MODEL>
5

>  <REMARK>
 VINA RESULT:      -7.8      3.939      6.308
  Name = 
  3 active torsions:
  status: ('A' for Active; 'I' for Inactive)
    1  A    between atoms: C_4  and  C_37
    2  A    between atoms: C_8  and  C_18
    3  A    between atoms: C_23  and  C_30
                            x       y       z     vdW  Elec       q    Type
                         _______ _______ _______ _____ _____    ______ ____

>  <TORSDO>
F 3

$$$$
=
 OpenBabel11122411343D

 37 43  0  0  1  0  0  0  0  0999 V2000
  182.2600  177.5240  139.5480 C   0  0  1  0  0  0  0  0  0  0  0  0
  185.3170  179.5540  141.7900 C   0  0  1  0  0  3  0  0  0  0  0  0
  189.0660  178.5910  141.2850 C   0  0  0  0  0  2  0  0  0  0  0  0
  182.8010  179.5000  141.0960 C   0  0  2  0  0  3  0  0  0  0  0  0
  186.4860  178.7920  141.1850 C   0  0  1  0  0  3  0  0  0  0  0  0
  184.2870  179.4480  140.6690 C   0  0  2  0  0  3  0  0  0  0  0  0
  187.7230  178.3620  141.9860 C   0  0  0  0  0  0  0  0  0  0  0  0
  182.5510  178.7330  142.3140 N   0  0  0  0  0  2  0  0  0  0  0  0
  184.6830  178.2470  139.7980 C   0  0  2  0  0  3  0  0  0  0  0  0
  182.0950  177.4070  138.0460 C   0  0  0  0  0  1  0  0  0  0  0  0
  185.1040  177.5030  143.2780 C   0  0  0  0  0  2  0  0  0  0  0  0
  183.3610  179.2970  143.3830 C   0  0  0  0  0  2  0  0  0  0  0  0
  183.6860  177.0970  139.9290 C   0  0  0  0  0  2  0  0  0  0  0  0
  189.5710  177.9860  138.7400 C   0  0  1  0  0  3  0  0  0  0  0  0
  188.8490  178.7980  139.7930 C   0  0  1  0  0  3  0  0  0  0  0  0
  184.8320  178.9860  143.1340 C   0  0  2  0  0  3  0  0  0  0  0  0
  186.0180  177.8050  140.1940 N   0  0  1  0  0  0  0  0  0  0  0  0
  181.9200  178.9690  139.9640 C   0  0  0  0  0  2  0  0  0  0  0  0
  187.6870  177.6440  143.1470 C   0  0  0  0  0  0  0  0  0  0  0  0
  181.3590  176.6550  140.1630 O   0  0  0  0  0  1  0  0  0  0  0  0
  188.2790  177.4550  139.3530 C   0  0  1  0  0  3  0  0  0  0  0  0
  186.8600  177.8660  138.9860 C   0  0  0  0  0  2  0  0  0  0  0  0
  186.4450  177.3450  143.9610 C   0  0  0  0  0  2  0  0  0  0  0  0
  189.8920  176.4730  142.9650 C   0  0  0  0  0  3  0  0  0  0  0  0
  188.9380  177.1280  143.7580 C   0  0  0  0  0  0  0  0  0  0  0  0
  189.1960  177.3280  145.0820 N   0  0  0  0  0  0  0  0  0  0  0  0
  190.5720  177.1280  147.1160 C   0  0  0  0  0  1  0  0  0  0  0  0
  191.3060  176.2270  144.9060 C   0  0  0  0  0  3  0  0  0  0  0  0
  190.3430  176.8920  145.6660 C   0  0  0  0  0  0  0  0  0  0  0  0
  191.0760  176.0190  143.5460 C   0  0  0  0  0  3  0  0  0  0  0  0
  190.4360  175.8120  137.1420 O   0  0  0  0  0  0  0  0  0  0  0  0
  189.9110  176.3590  136.1370 C   0  0  0  0  0  0  0  0  0  0  0  0
  189.3320  178.5320  137.3610 C   0  0  0  0  0  0  0  0  0  0  0  0
  189.4300  177.7080  136.1910 N   0  0  0  0  0  2  0  0  0  0  0  0
  189.0540  179.7530  137.2190 O   0  0  0  0  0  0  0  0  0  0  0  0
  188.5900  175.0160  134.7230 O   0  0  0  0  0  1  0  0  0  0  0  0
  189.8430  175.6130  134.8520 C   0  0  0  0  0  2  0  0  0  0  0  0
  1 10  1  6  0  0  0
  1 13  1  0  0  0  0
  1 18  1  0  0  0  0
  1 20  1  0  0  0  0
  2 16  1  0  0  0  0
  3  7  1  0  0  0  0
  4  8  1  0  0  0  0
  5  2  1  0  0  0  0
  5  7  1  0  0  0  0
  6  4  1  0  0  0  0
  6  2  1  0  0  0  0
  7 19  2  0  0  0  0
  8 12  1  0  0  0  0
  9 13  1  0  0  0  0
  9 17  1  0  0  0  0
  9  6  1  0  0  0  0
 11 23  1  0  0  0  0
 14 21  1  0  0  0  0
 14 15  1  0  0  0  0
 15  3  1  0  0  0  0
 16 11  1  0  0  0  0
 16 12  1  0  0  0  0
 17  5  1  0  0  0  0
 18  4  1  0  0  0  0
 19 25  1  0  0  0  0
 19 23  1  0  0  0  0
 21 15  1  0  0  0  0
 22 21  1  0  0  0  0
 22 17  1  0  0  0  0
 24 30  2  0  0  0  0
 24 25  1  0  0  0  0
 25 26  2  0  0  0  0
 26 29  1  0  0  0  0
 28 29  2  0  0  0  0
 29 27  1  0  0  0  0
 30 28  1  0  0  0  0
 32 34  1  0  0  0  0
 32 31  2  0  0  0  0
 33 14  1  0  0  0  0
 34 33  1  0  0  0  0
 35 33  2  0  0  0  0
 36 37  1  0  0  0  0
 37 32  1  0  0  0  0
M  END
>  <MODEL>
6

>  <REMARK>
 VINA RESULT:      -7.7      2.974      7.253
  Name = 
  3 active torsions:
  status: ('A' for Active; 'I' for Inactive)
    1  A    between atoms: C_4  and  C_37
    2  A    between atoms: C_8  and  C_18
    3  A    between atoms: C_23  and  C_30
                            x       y       z     vdW  Elec       q    Type
                         _______ _______ _______ _____ _____    ______ ____

>  <TORSDO>
F 3

$$$$
=
 OpenBabel11122411343D

 37 43  0  0  1  0  0  0  0  0999 V2000
  190.6130  176.3430  144.1740 C   0  0  1  0  0  0  0  0  0  0  0  0
  189.4390  178.7400  140.8020 C   0  0  1  0  0  3  0  0  0  0  0  0
  185.7020  178.8220  139.6770 C   0  0  0  0  0  2  0  0  0  0  0  0
  191.3300  178.1580  142.5030 C   0  0  2  0  0  3  0  0  0  0  0  0
  187.9610  178.3850  140.8650 C   0  0  1  0  0  3  0  0  0  0  0  0
  189.8510  178.5370  142.2570 C   0  0  2  0  0  3  0  0  0  0  0  0
  187.0870  178.1710  139.6210 C   0  0  0  0  0  0  0  0  0  0  0  0
  191.8210  177.1910  141.5230 N   0  0  0  0  0  2  0  0  0  0  0  0
  188.8130  177.6060  142.8990 C   0  0  2  0  0  3  0  0  0  0  0  0
  190.1160  176.3990  145.6040 C   0  0  0  0  0  1  0  0  0  0  0  0
  189.6410  176.5150  139.5870 C   0  0  0  0  0  2  0  0  0  0  0  0
  191.7100  177.7860  140.2000 C   0  0  0  0  0  2  0  0  0  0  0  0
  189.4050  176.2370  143.2280 C   0  0  0  0  0  2  0  0  0  0  0  0
  184.0620  178.7220  141.7750 C   0  0  1  0  0  3  0  0  0  0  0  0
  185.3460  179.1740  141.1150 C   0  0  1  0  0  3  0  0  0  0  0  0
  190.2420  177.8890  139.8040 C   0  0  2  0  0  3  0  0  0  0  0  0
  187.6860  177.4600  141.9800 N   0  0  1  0  0  0  0  0  0  0  0  0
  191.4880  177.5860  143.9130 C   0  0  0  0  0  2  0  0  0  0  0  0
  187.3830  177.3130  138.6010 C   0  0  0  0  0  0  0  0  0  0  0  0
  191.3970  175.2010  144.0190 O   0  0  0  0  0  1  0  0  0  0  0  0
  185.2820  177.8050  141.7820 C   0  0  1  0  0  3  0  0  0  0  0  0
  186.4840  177.8960  142.7120 C   0  0  0  0  0  2  0  0  0  0  0  0
  188.7060  176.6040  138.4010 C   0  0  0  0  0  2  0  0  0  0  0  0
  186.5590  177.6220  136.2580 C   0  0  0  0  0  3  0  0  0  0  0  0
  186.3950  177.0450  137.5250 C   0  0  0  0  0  0  0  0  0  0  0  0
  185.3490  176.1960  137.7420 N   0  0  0  0  0  0  0  0  0  0  0  0
  183.3150  174.9840  137.0600 C   0  0  0  0  0  1  0  0  0  0  0  0
  184.5720  176.4770  135.5020 C   0  0  0  0  0  3  0  0  0  0  0  0
  184.4420  175.9080  136.7700 C   0  0  0  0  0  0  0  0  0  0  0  0
  185.6390  177.3380  135.2470 C   0  0  0  0  0  3  0  0  0  0  0  0
  181.2490  178.5390  142.0610 O   0  0  0  0  0  0  0  0  0  0  0  0
  181.3650  178.8630  143.2730 C   0  0  0  0  0  0  0  0  0  0  0  0
  183.8680  179.3760  143.1130 C   0  0  0  0  0  0  0  0  0  0  0  0
  182.6080  179.3440  143.7980 N   0  0  0  0  0  2  0  0  0  0  0  0
  184.8310  179.9890  143.6480 O   0  0  0  0  0  0  0  0  0  0  0  0
  179.7010  177.4930  144.2220 O   0  0  0  0  0  1  0  0  0  0  0  0
  180.1740  178.8030  144.1610 C   0  0  0  0  0  2  0  0  0  0  0  0
  1 10  1  1  0  0  0
  2  5  1  0  0  0  0
  2  6  1  0  0  0  0
  3 15  1  0  0  0  0
  4 18  1  0  0  0  0
  5 17  1  0  0  0  0
  6  4  1  0  0  0  0
  6  9  1  0  0  0  0
  7  3  1  0  0  0  0
  7  5  1  0  0  0  0
  8  4  1  0  0  0  0
  9 13  1  0  0  0  0
 11 16  1  0  0  0  0
 12  8  1  0  0  0  0
 13  1  1  0  0  0  0
 14 21  1  0  0  0  0
 14 33  1  0  0  0  0
 15 14  1  0  0  0  0
 15 21  1  0  0  0  0
 16 12  1  0  0  0  0
 16  2  1  0  0  0  0
 17 22  1  0  0  0  0
 17  9  1  0  0  0  0
 18  1  1  0  0  0  0
 19  7  2  0  0  0  0
 20  1  1  0  0  0  0
 21 22  1  0  0  0  0
 23 19  1  0  0  0  0
 23 11  1  0  0  0  0
 24 25  1  0  0  0  0
 25 26  2  0  0  0  0
 25 19  1  0  0  0  0
 28 29  2  0  0  0  0
 29 27  1  0  0  0  0
 29 26  1  0  0  0  0
 30 28  1  0  0  0  0
 30 24  2  0  0  0  0
 31 32  2  0  0  0  0
 32 34  1  0  0  0  0
 32 37  1  0  0  0  0
 33 35  2  0  0  0  0
 33 34  1  0  0  0  0
 37 36  1  0  0  0  0
M  END
>  <MODEL>
7

>  <REMARK>
 VINA RESULT:      -7.3      3.189      6.789
  Name = 
  3 active torsions:
  status: ('A' for Active; 'I' for Inactive)
    1  A    between atoms: C_4  and  C_37
    2  A    between atoms: C_8  and  C_18
    3  A    between atoms: C_23  and  C_30
                            x       y       z     vdW  Elec       q    Type
                         _______ _______ _______ _____ _____    ______ ____

>  <TORSDO>
F 3

$$$$
=
 OpenBabel11122411343D

 37 43  0  0  1  0  0  0  0  0999 V2000
  180.0100  176.8400  136.4890 C   0  0  1  0  0  0  0  0  0  0  0  0
  182.2450  179.6710  138.8320 C   0  0  1  0  0  3  0  0  0  0  0  0
  185.9230  178.8710  139.8650 C   0  0  0  0  0  2  0  0  0  0  0  0
  180.0870  179.2270  137.4310 C   0  0  2  0  0  3  0  0  0  0  0  0
  183.5210  178.8460  138.8970 C   0  0  1  0  0  3  0  0  0  0  0  0
  181.6290  179.1540  137.5350 C   0  0  2  0  0  3  0  0  0  0  0  0
  184.4190  178.7720  140.1400 C   0  0  0  0  0  0  0  0  0  0  0  0
  179.4330  178.8530  138.6830 N   0  0  0  0  0  2  0  0  0  0  0  0
  182.2460  177.7760  137.2540 C   0  0  2  0  0  3  0  0  0  0  0  0
  180.3350  176.2590  135.1280 C   0  0  0  0  0  1  0  0  0  0  0  0
  181.4970  178.1620  140.7370 C   0  0  0  0  0  2  0  0  0  0  0  0
  179.8720  179.7730  139.7210 C   0  0  0  0  0  2  0  0  0  0  0  0
  181.2230  176.6530  137.4150 C   0  0  0  0  0  2  0  0  0  0  0  0
  187.2020  177.5570  137.9320 C   0  0  1  0  0  3  0  0  0  0  0  0
  186.2060  178.5970  138.3950 C   0  0  1  0  0  3  0  0  0  0  0  0
  181.3340  179.5070  140.0600 C   0  0  2  0  0  3  0  0  0  0  0  0
  183.3660  177.5730  138.1690 N   0  0  1  0  0  0  0  0  0  0  0  0
  179.6010  178.3150  136.3040 C   0  0  0  0  0  2  0  0  0  0  0  0
  183.9870  178.4410  141.3920 C   0  0  0  0  0  0  0  0  0  0  0  0
  178.9320  176.1380  137.0260 O   0  0  0  0  0  1  0  0  0  0  0  0
  185.7650  177.1470  138.2400 C   0  0  1  0  0  3  0  0  0  0  0  0
  184.5540  177.3230  137.3340 C   0  0  0  0  0  2  0  0  0  0  0  0
  182.5400  178.3170  141.8220 C   0  0  0  0  0  2  0  0  0  0  0  0
  186.2710  177.8290  142.2130 C   0  0  0  0  0  3  0  0  0  0  0  0
  184.9570  178.2270  142.4960 C   0  0  0  0  0  0  0  0  0  0  0  0
  184.5960  178.4630  143.7900 N   0  0  0  0  0  0  0  0  0  0  0  0
  185.0220  178.5650  146.2150 C   0  0  0  0  0  1  0  0  0  0  0  0
  186.7790  177.8960  144.5720 C   0  0  0  0  0  3  0  0  0  0  0  0
  185.4680  178.3030  144.8210 C   0  0  0  0  0  0  0  0  0  0  0  0
  187.1810  177.6600  143.2570 C   0  0  0  0  0  3  0  0  0  0  0  0
  188.5220  175.0930  137.4630 O   0  0  0  0  0  0  0  0  0  0  0  0
  188.3650  175.2600  136.2250 C   0  0  0  0  0  0  0  0  0  0  0  0
  187.4390  177.6370  136.4510 C   0  0  0  0  0  0  0  0  0  0  0  0
  187.9090  176.5120  135.6950 N   0  0  0  0  0  2  0  0  0  0  0  0
  187.2370  178.7260  135.8510 O   0  0  0  0  0  0  0  0  0  0  0  0
  188.8510  172.9670  135.9990 O   0  0  0  0  0  1  0  0  0  0  0  0
  188.7170  174.1600  135.2890 C   0  0  0  0  0  2  0  0  0  0  0  0
  1 10  1  6  0  0  0
  1 20  1  0  0  0  0
  1 13  1  0  0  0  0
  2  5  1  0  0  0  0
  2 16  1  0  0  0  0
  3  7  1  0  0  0  0
  4  6  1  0  0  0  0
  4  8  1  0  0  0  0
  5  7  1  0  0  0  0
  6  2  1  0  0  0  0
  7 19  2  0  0  0  0
  8 12  1  0  0  0  0
  9 13  1  0  0  0  0
  9  6  1  0  0  0  0
  9 17  1  0  0  0  0
 11 23  1  0  0  0  0
 12 16  1  0  0  0  0
 14 21  1  0  0  0  0
 14 15  1  0  0  0  0
 15  3  1  0  0  0  0
 16 11  1  0  0  0  0
 17  5  1  0  0  0  0
 18  1  1  0  0  0  0
 18  4  1  0  0  0  0
 19 23  1  0  0  0  0
 19 25  1  0  0  0  0
 21 15  1  0  0  0  0
 22 17  1  0  0  0  0
 22 21  1  0  0  0  0
 24 25  2  0  0  0  0
 24 30  1  0  0  0  0
 25 26  1  0  0  0  0
 26 29  2  0  0  0  0
 28 29  1  0  0  0  0
 29 27  1  0  0  0  0
 30 28  2  0  0  0  0
 32 31  2  0  0  0  0
 33 14  1  0  0  0  0
 34 32  1  0  0  0  0
 34 33  1  0  0  0  0
 35 33  2  0  0  0  0
 37 36  1  0  0  0  0
 37 32  1  0  0  0  0
M  END
>  <MODEL>
8

>  <REMARK>
 VINA RESULT:      -7.2      3.704      7.514
  Name = 
  3 active torsions:
  status: ('A' for Active; 'I' for Inactive)
    1  A    between atoms: C_4  and  C_37
    2  A    between atoms: C_8  and  C_18
    3  A    between atoms: C_23  and  C_30
                            x       y       z     vdW  Elec       q    Type
                         _______ _______ _______ _____ _____    ______ ____

>  <TORSDO>
F 3

$$$$
=
 OpenBabel11122411343D

 37 43  0  0  1  0  0  0  0  0999 V2000
  183.9620  171.3510  135.8740 C   0  0  1  0  0  0  0  0  0  0  0  0
  181.8640  175.1030  135.7800 C   0  0  1  0  0  3  0  0  0  0  0  0
  183.2490  178.1600  137.7730 C   0  0  0  0  0  2  0  0  0  0  0  0
  182.0920  172.7120  134.7590 C   0  0  2  0  0  3  0  0  0  0  0  0
  182.8370  175.8490  136.6800 C   0  0  1  0  0  3  0  0  0  0  0  0
  182.7750  174.0320  135.1880 C   0  0  2  0  0  3  0  0  0  0  0  0
  182.4000  176.8860  137.7250 C   0  0  0  0  0  0  0  0  0  0  0  0
  181.0790  172.2790  135.7190 N   0  0  0  0  0  2  0  0  0  0  0  0
  183.9730  173.8790  136.1350 C   0  0  2  0  0  3  0  0  0  0  0  0
  185.3920  171.0460  135.4760 C   0  0  0  0  0  1  0  0  0  0  0  0
  180.9200  174.2370  137.9770 C   0  0  0  0  0  2  0  0  0  0  0  0
  180.0630  173.3170  135.8110 C   0  0  0  0  0  2  0  0  0  0  0  0
  183.9580  172.5330  136.8570 C   0  0  0  0  0  2  0  0  0  0  0  0
  185.9120  178.2120  137.7290 C   0  0  1  0  0  3  0  0  0  0  0  0
  184.5790  177.9310  137.0710 C   0  0  1  0  0  3  0  0  0  0  0  0
  180.6390  174.5380  136.5180 C   0  0  2  0  0  3  0  0  0  0  0  0
  183.9430  174.9710  137.1040 N   0  0  1  0  0  0  0  0  0  0  0  0
  183.1450  171.6150  134.5940 C   0  0  0  0  0  2  0  0  0  0  0  0
  181.4680  176.6640  138.6970 C   0  0  0  0  0  0  0  0  0  0  0  0
  183.4340  170.2350  136.5220 O   0  0  0  0  0  1  0  0  0  0  0  0
  185.2310  176.8640  137.9420 C   0  0  1  0  0  3  0  0  0  0  0  0
  185.2270  175.6840  136.9800 C   0  0  0  0  0  2  0  0  0  0  0  0
  180.5470  175.4640  138.7800 C   0  0  0  0  0  2  0  0  0  0  0  0
  182.0560  177.6850  140.9050 C   0  0  0  0  0  3  0  0  0  0  0  0
  181.2370  177.6670  139.7680 C   0  0  0  0  0  0  0  0  0  0  0  0
  180.2610  178.6100  139.6340 N   0  0  0  0  0  0  0  0  0  0  0  0
  178.9580  180.5600  140.3930 C   0  0  0  0  0  1  0  0  0  0  0  0
  180.8330  179.5950  141.7320 C   0  0  0  0  0  3  0  0  0  0  0  0
  180.0410  179.5590  140.5830 C   0  0  0  0  0  0  0  0  0  0  0  0
  181.8470  178.6510  141.8900 C   0  0  0  0  0  3  0  0  0  0  0  0
  188.1320  178.1200  139.4870 O   0  0  0  0  0  0  0  0  0  0  0  0
  188.8630  177.7650  138.5250 C   0  0  0  0  0  0  0  0  0  0  0  0
  187.0470  178.0990  136.7510 C   0  0  0  0  0  0  0  0  0  0  0  0
  188.3870  177.8140  137.1730 N   0  0  0  0  0  2  0  0  0  0  0  0
  186.8250  178.2760  135.5230 O   0  0  0  0  0  0  0  0  0  0  0  0
  190.2880  176.0100  139.1840 O   0  0  0  0  0  1  0  0  0  0  0  0
  190.2650  177.3470  138.7880 C   0  0  0  0  0  2  0  0  0  0  0  0
  1 10  1  6  0  0  0
  1 20  1  0  0  0  0
  1 13  1  0  0  0  0
  2 16  1  0  0  0  0
  2  5  1  0  0  0  0
  4  6  1  0  0  0  0
  4  8  1  0  0  0  0
  5 17  1  0  0  0  0
  5  7  1  0  0  0  0
  6  2  1  0  0  0  0
  6  9  1  0  0  0  0
  7  3  1  0  0  0  0
  7 19  2  0  0  0  0
  8 12  1  0  0  0  0
  9 13  1  0  0  0  0
  9 17  1  0  0  0  0
 11 23  1  0  0  0  0
 12 16  1  0  0  0  0
 14 21  1  0  0  0  0
 15 14  1  0  0  0  0
 15  3  1  0  0  0  0
 15 21  1  0  0  0  0
 16 11  1  0  0  0  0
 18  4  1  0  0  0  0
 18  1  1  0  0  0  0
 19 23  1  0  0  0  0
 19 25  1  0  0  0  0
 22 17  1  0  0  0  0
 22 21  1  0  0  0  0
 24 30  1  0  0  0  0
 25 24  2  0  0  0  0
 26 25  1  0  0  0  0
 26 29  2  0  0  0  0
 27 29  1  0  0  0  0
 28 30  2  0  0  0  0
 29 28  1  0  0  0  0
 32 37  1  0  0  0  0
 32 31  2  0  0  0  0
 33 34  1  0  0  0  0
 33 14  1  0  0  0  0
 34 32  1  0  0  0  0
 35 33  2  0  0  0  0
 37 36  1  0  0  0  0
M  END
>  <MODEL>
9

>  <REMARK>
 VINA RESULT:      -7.1      4.772      7.008
  Name = 
  3 active torsions:
  status: ('A' for Active; 'I' for Inactive)
    1  A    between atoms: C_4  and  C_37
    2  A    between atoms: C_8  and  C_18
    3  A    between atoms: C_23  and  C_30
                            x       y       z     vdW  Elec       q    Type
                         _______ _______ _______ _____ _____    ______ ____

>  <TORSDO>
F 3

$$$$
