=
 OpenBabel11122411353D

 37 44  0  0  1  0  0  0  0  0999 V2000
  184.0710  177.6640  139.2910 C   0  0  0  0  0  2  0  0  0  0  0  0
  187.4120  177.5210  136.0330 C   0  0  0  0  0  0  0  0  0  0  0  0
  188.6590  177.6800  140.0130 C   0  0  0  0  0  0  0  0  0  0  0  0
  182.6630  178.1910  139.0760 C   0  0  0  0  0  0  0  0  0  0  0  0
  186.0670  178.5890  142.7810 C   0  0  0  0  0  2  0  0  0  0  0  0
  189.3320  177.4860  137.6950 C   0  0  0  0  0  0  0  0  0  0  0  0
  187.4770  178.0200  140.6760 C   0  0  0  0  0  0  0  0  0  0  0  0
  182.2370  178.7580  141.4850 C   0  0  0  0  0  0  0  0  0  0  0  0
  188.3910  177.7490  138.6740 C   0  0  0  0  0  0  0  0  0  0  0  0
  187.3040  178.0850  142.1360 N   0  0  0  0  0  0  0  0  0  0  0  0
  190.6310  177.1490  138.1080 C   0  0  0  0  0  3  0  0  0  0  0  0
  181.8490  178.5880  140.0730 C   0  0  0  0  0  3  0  0  0  0  0  0
  187.1240  178.0840  138.4270 N   0  0  0  0  0  0  0  0  0  0  0  0
  187.0130  176.0560  136.0840 C   0  0  0  0  0  1  0  0  0  0  0  0
  190.2770  177.1810  141.9110 C   0  0  0  0  0  2  0  0  0  0  0  0
  190.9320  177.0670  139.4870 C   0  0  0  0  0  3  0  0  0  0  0  0
  186.5970  178.3110  137.0820 C   0  0  0  0  0  2  0  0  0  0  0  0
  183.6100  178.8740  141.8020 N   0  0  0  0  0  0  0  0  0  0  0  0
  184.9070  178.1220  141.9650 C   0  0  1  0  0  3  0  0  0  0  0  0
  189.9470  177.3420  140.4610 C   0  0  0  0  0  0  0  0  0  0  0  0
  186.5280  178.2740  139.6270 C   0  0  0  0  0  0  0  0  0  0  0  0
  188.9410  177.6490  136.2520 C   0  0  0  0  0  2  0  0  0  0  0  0
  188.3720  177.5220  142.9840 C   0  0  1  0  0  3  0  0  0  0  0  0
  187.0750  178.0560  134.6580 C   0  0  0  0  0  1  0  0  0  0  0  0
  184.8840  179.2310  141.1600 C   0  0  1  0  0  3  0  0  0  0  0  0
  181.3630  178.8600  142.3840 O   0  0  0  0  0  0  0  0  0  0  0  0
  185.0840  178.7380  139.7450 C   0  0  2  0  0  3  0  0  0  0  0  0
  189.5960  178.1280  142.6830 O   0  0  0  0  0  0  0  0  0  0  0  0
  189.1480  177.4070  145.3640 C   0  0  0  0  0  3  0  0  0  0  0  0
  188.0980  177.6040  144.4610 C   0  0  0  0  0  0  0  0  0  0  0  0
  186.8030  177.8430  144.9420 C   0  0  0  0  0  3  0  0  0  0  0  0
  184.9490  178.1920  146.9160 Cl  0  0  0  0  0  0  0  0  0  0  0  0
  187.6180  177.7000  147.2180 C   0  0  0  0  0  3  0  0  0  0  0  0
  186.5650  177.8920  146.3190 C   0  0  0  0  0  0  0  0  0  0  0  0
  188.9100  177.4580  146.7400 C   0  0  0  0  0  3  0  0  0  0  0  0
  182.9820  177.6810  136.7570 O   0  0  0  0  0  1  0  0  0  0  0  0
  182.0640  178.1430  137.7050 C   0  0  0  0  0  2  0  0  0  0  0  0
  2 14  1  0  0  0  0
  2 22  1  0  0  0  0
  2 17  1  0  0  0  0
  3 20  1  0  0  0  0
  3  7  1  0  0  0  0
  4  1  1  0  0  0  0
  4 12  2  0  0  0  0
  6 11  2  0  0  0  0
  6  9  1  0  0  0  0
  7 10  1  0  0  0  0
  8 18  1  0  0  0  0
  8 26  2  0  0  0  0
  9  3  2  0  0  0  0
 10  5  1  0  0  0  0
 10 23  1  0  0  0  0
 11 16  1  0  0  0  0
 12  8  1  0  0  0  0
 13  9  1  0  0  0  0
 13 21  1  0  0  0  0
 15 28  1  0  0  0  0
 16 20  2  0  0  0  0
 17 13  1  0  0  0  0
 18 19  1  0  0  0  0
 19  5  1  1  0  0  0
 20 15  1  0  0  0  0
 21 27  1  0  0  0  0
 21  7  2  0  0  0  0
 22  6  1  0  0  0  0
 23 30  1  1  0  0  0
 24  2  1  0  0  0  0
 25 18  1  6  0  0  0
 25 19  1  0  0  0  0
 27  1  1  1  0  0  0
 27 25  1  0  0  0  0
 28 23  1  0  0  0  0
 29 35  1  0  0  0  0
 30 31  1  0  0  0  0
 30 29  2  0  0  0  0
 31 34  2  0  0  0  0
 34 32  1  0  0  0  0
 34 33  1  0  0  0  0
 35 33  2  0  0  0  0
 36 37  1  0  0  0  0
 37  4  1  0  0  0  0
M  END
>  <MODEL>
1

>  <REMARK>
 VINA RESULT:     -11.1      0.000      0.000
  Name = 
  2 active torsions:
  status: ('A' for Active; 'I' for Inactive)
    1  A    between atoms: C_4  and  C_37
    2  A    between atoms: C_23  and  C_30
                            x       y       z     vdW  Elec       q    Type
                         _______ _______ _______ _____ _____    ______ ____

>  <TORSDO>
F 2

$$$$
=
 OpenBabel11122411353D

 37 44  0  0  1  0  0  0  0  0999 V2000
  189.2490  176.7030  138.7270 C   0  0  0  0  0  2  0  0  0  0  0  0
  190.2850  176.9990  143.2690 C   0  0  0  0  0  0  0  0  0  0  0  0
  186.4510  178.1840  142.1240 C   0  0  0  0  0  0  0  0  0  0  0  0
  190.2610  176.7490  137.5950 C   0  0  0  0  0  0  0  0  0  0  0  0
  185.6860  178.7460  138.3410 C   0  0  0  0  0  2  0  0  0  0  0  0
  187.9800  177.8090  143.9630 C   0  0  0  0  0  0  0  0  0  0  0  0
  186.5740  178.2700  140.7340 C   0  0  0  0  0  0  0  0  0  0  0  0
  188.6490  177.5640  135.8500 C   0  0  0  0  0  0  0  0  0  0  0  0
  187.7040  177.9450  142.6140 C   0  0  0  0  0  0  0  0  0  0  0  0
  185.4730  178.5270  139.7920 N   0  0  0  0  0  0  0  0  0  0  0  0
  186.9140  177.9430  144.8670 C   0  0  0  0  0  3  0  0  0  0  0  0
  189.9490  177.0530  136.3200 C   0  0  0  0  0  3  0  0  0  0  0  0
  188.6170  177.8480  141.6470 N   0  0  0  0  0  0  0  0  0  0  0  0
  189.9990  175.5120  143.1470 C   0  0  0  0  0  1  0  0  0  0  0  0
  183.9590  178.5090  142.5150 C   0  0  0  0  0  2  0  0  0  0  0  0
  185.6080  178.1860  144.3840 C   0  0  0  0  0  3  0  0  0  0  0  0
  190.0470  177.6800  141.9030 C   0  0  0  0  0  2  0  0  0  0  0  0
  187.7610  178.1290  136.7950 N   0  0  0  0  0  0  0  0  0  0  0  0
  186.7780  177.8290  137.8990 C   0  0  1  0  0  3  0  0  0  0  0  0
  185.3610  178.3200  143.0000 C   0  0  0  0  0  0  0  0  0  0  0  0
  187.9720  178.0540  140.4760 C   0  0  0  0  0  0  0  0  0  0  0  0
  189.4070  177.6040  144.3930 C   0  0  0  0  0  2  0  0  0  0  0  0
  184.0920  178.4530  140.3070 C   0  0  1  0  0  3  0  0  0  0  0  0
  191.7400  177.1720  143.6480 C   0  0  0  0  0  1  0  0  0  0  0  0
  187.7840  178.7310  138.1370 C   0  0  1  0  0  3  0  0  0  0  0  0
  188.3590  177.5550  134.6260 O   0  0  0  0  0  0  0  0  0  0  0  0
  188.7070  178.0870  139.1450 C   0  0  2  0  0  3  0  0  0  0  0  0
  183.9320  179.3310  141.3840 O   0  0  0  0  0  0  0  0  0  0  0  0
  182.5020  177.6150  138.5610 C   0  0  0  0  0  3  0  0  0  0  0  0
  183.0310  178.6990  139.2700 C   0  0  0  0  0  0  0  0  0  0  0  0
  182.5910  179.9990  138.9830 C   0  0  0  0  0  3  0  0  0  0  0  0
  181.0710  181.8320  137.6450 Cl  0  0  0  0  0  0  0  0  0  0  0  0
  181.0890  179.1230  137.2970 C   0  0  0  0  0  3  0  0  0  0  0  0
  181.6200  180.2090  137.9990 C   0  0  0  0  0  0  0  0  0  0  0  0
  181.5310  177.8260  137.5780 C   0  0  0  0  0  3  0  0  0  0  0  0
  191.7150  174.9520  138.2230 O   0  0  0  0  0  1  0  0  0  0  0  0
  191.6660  176.2980  137.8490 C   0  0  0  0  0  2  0  0  0  0  0  0
  2 24  1  0  0  0  0
  2 22  1  0  0  0  0
  3  9  2  0  0  0  0
  3 20  1  0  0  0  0
  4 37  1  0  0  0  0
  4  1  1  0  0  0  0
  5 10  1  0  0  0  0
  6 22  1  0  0  0  0
  6 11  2  0  0  0  0
  7  3  1  0  0  0  0
  8 12  1  0  0  0  0
  8 18  1  0  0  0  0
  9  6  1  0  0  0  0
 10 23  1  0  0  0  0
 10  7  1  0  0  0  0
 12  4  2  0  0  0  0
 13 17  1  0  0  0  0
 13  9  1  0  0  0  0
 14  2  1  0  0  0  0
 15 20  1  0  0  0  0
 16 11  1  0  0  0  0
 17  2  1  0  0  0  0
 18 19  1  0  0  0  0
 19 25  1  0  0  0  0
 19  5  1  6  0  0  0
 20 16  2  0  0  0  0
 21  7  2  0  0  0  0
 21 13  1  0  0  0  0
 23 30  1  6  0  0  0
 23 28  1  0  0  0  0
 25 18  1  6  0  0  0
 25 27  1  0  0  0  0
 26  8  2  0  0  0  0
 27  1  1  6  0  0  0
 27 21  1  0  0  0  0
 28 15  1  0  0  0  0
 29 30  1  0  0  0  0
 31 30  2  0  0  0  0
 32 34  1  0  0  0  0
 33 35  1  0  0  0  0
 33 34  2  0  0  0  0
 34 31  1  0  0  0  0
 35 29  2  0  0  0  0
 37 36  1  0  0  0  0
M  END
>  <MODEL>
2

>  <REMARK>
 VINA RESULT:     -11.1      2.584      7.378
  Name = 
  2 active torsions:
  status: ('A' for Active; 'I' for Inactive)
    1  A    between atoms: C_4  and  C_37
    2  A    between atoms: C_23  and  C_30
                            x       y       z     vdW  Elec       q    Type
                         _______ _______ _______ _____ _____    ______ ____

>  <TORSDO>
F 2

$$$$
=
 OpenBabel11122411353D

 37 44  0  0  1  0  0  0  0  0999 V2000
  184.0780  177.8480  140.4210 C   0  0  0  0  0  2  0  0  0  0  0  0
  187.3270  177.6920  137.0720 C   0  0  0  0  0  0  0  0  0  0  0  0
  188.6820  177.7730  141.0190 C   0  0  0  0  0  0  0  0  0  0  0  0
  182.6740  178.4020  140.2510 C   0  0  0  0  0  0  0  0  0  0  0  0
  186.1830  178.6880  143.8680 C   0  0  0  0  0  2  0  0  0  0  0  0
  189.2910  177.6000  138.6820 C   0  0  0  0  0  0  0  0  0  0  0  0
  187.5250  178.1240  141.7190 C   0  0  0  0  0  0  0  0  0  0  0  0
  182.3230  178.9430  142.6790 C   0  0  0  0  0  0  0  0  0  0  0  0
  188.3800  177.8650  139.6890 C   0  0  0  0  0  0  0  0  0  0  0  0
  187.3930  178.1720  143.1840 N   0  0  0  0  0  0  0  0  0  0  0  0
  190.5940  177.2350  139.0550 C   0  0  0  0  0  3  0  0  0  0  0  0
  181.8940  178.8000  141.2750 C   0  0  0  0  0  3  0  0  0  0  0  0
  187.1130  178.2260  139.4810 N   0  0  0  0  0  0  0  0  0  0  0  0
  186.9030  176.2340  137.1150 C   0  0  0  0  0  1  0  0  0  0  0  0
  190.3410  177.2190  142.8660 C   0  0  0  0  0  2  0  0  0  0  0  0
  190.9300  177.1280  140.4240 C   0  0  0  0  0  3  0  0  0  0  0  0
  186.5550  178.4810  138.1540 C   0  0  0  0  0  2  0  0  0  0  0  0
  183.7060  179.0300  142.9600 N   0  0  0  0  0  0  0  0  0  0  0  0
  184.9930  178.2530  143.0780 C   0  0  1  0  0  3  0  0  0  0  0  0
  189.9760  177.4060  141.4280 C   0  0  0  0  0  0  0  0  0  0  0  0
  186.5530  178.4100  140.6990 C   0  0  0  0  0  0  0  0  0  0  0  0
  188.8630  177.7900  137.2510 C   0  0  0  0  0  2  0  0  0  0  0  0
  188.4720  177.5780  143.9950 C   0  0  1  0  0  3  0  0  0  0  0  0
  186.9640  178.2530  135.7140 C   0  0  0  0  0  1  0  0  0  0  0  0
  184.9680  179.3740  142.2880 C   0  0  1  0  0  3  0  0  0  0  0  0
  181.4750  179.0470  143.6020 O   0  0  0  0  0  0  0  0  0  0  0  0
  185.1210  178.8970  140.8630 C   0  0  2  0  0  3  0  0  0  0  0  0
  189.6990  178.1670  143.6690 O   0  0  0  0  0  0  0  0  0  0  0  0
  186.9400  177.5020  145.9760 C   0  0  0  0  0  3  0  0  0  0  0  0
  188.2400  177.6450  145.4790 C   0  0  0  0  0  0  0  0  0  0  0  0
  189.3010  177.8800  146.3660 C   0  0  0  0  0  3  0  0  0  0  0  0
  190.3870  178.2520  148.8430 Cl  0  0  0  0  0  0  0  0  0  0  0  0
  187.7610  177.8130  148.2330 C   0  0  0  0  0  3  0  0  0  0  0  0
  189.0610  177.9610  147.7400 C   0  0  0  0  0  0  0  0  0  0  0  0
  186.7010  177.5830  147.3510 C   0  0  0  0  0  3  0  0  0  0  0  0
  182.9910  178.2630  137.8810 O   0  0  0  0  0  1  0  0  0  0  0  0
  182.0380  178.3840  138.8960 C   0  0  0  0  0  2  0  0  0  0  0  0
  2 14  1  0  0  0  0
  2 22  1  0  0  0  0
  2 17  1  0  0  0  0
  3 20  1  0  0  0  0
  3  7  1  0  0  0  0
  4  1  1  0  0  0  0
  4 12  2  0  0  0  0
  6 11  2  0  0  0  0
  6  9  1  0  0  0  0
  7 10  1  0  0  0  0
  8 18  1  0  0  0  0
  8 26  2  0  0  0  0
  9  3  2  0  0  0  0
 10  5  1  0  0  0  0
 10 23  1  0  0  0  0
 11 16  1  0  0  0  0
 12  8  1  0  0  0  0
 13  9  1  0  0  0  0
 13 21  1  0  0  0  0
 15 28  1  0  0  0  0
 16 20  2  0  0  0  0
 17 13  1  0  0  0  0
 18 19  1  0  0  0  0
 19  5  1  1  0  0  0
 20 15  1  0  0  0  0
 21 27  1  0  0  0  0
 21  7  2  0  0  0  0
 22  6  1  0  0  0  0
 23 30  1  1  0  0  0
 24  2  1  0  0  0  0
 25 18  1  6  0  0  0
 25 19  1  0  0  0  0
 27  1  1  1  0  0  0
 27 25  1  0  0  0  0
 28 23  1  0  0  0  0
 29 35  1  0  0  0  0
 30 29  2  0  0  0  0
 30 31  1  0  0  0  0
 31 34  2  0  0  0  0
 34 33  1  0  0  0  0
 34 32  1  0  0  0  0
 35 33  2  0  0  0  0
 36 37  1  0  0  0  0
 37  4  1  0  0  0  0
M  END
>  <MODEL>
3

>  <REMARK>
 VINA RESULT:     -11.0      1.333      1.628
  Name = 
  2 active torsions:
  status: ('A' for Active; 'I' for Inactive)
    1  A    between atoms: C_4  and  C_37
    2  A    between atoms: C_23  and  C_30
                            x       y       z     vdW  Elec       q    Type
                         _______ _______ _______ _____ _____    ______ ____

>  <TORSDO>
F 2

$$$$
=
 OpenBabel11122411353D

 37 44  0  0  1  0  0  0  0  0999 V2000
  188.1600  178.6540  139.9970 C   0  0  0  0  0  2  0  0  0  0  0  0
  183.5810  178.9560  139.1380 C   0  0  0  0  0  0  0  0  0  0  0  0
  184.7250  178.3830  143.1100 C   0  0  0  0  0  0  0  0  0  0  0  0
  189.2100  178.2080  138.9940 C   0  0  0  0  0  0  0  0  0  0  0  0
  188.3970  177.3330  143.8980 C   0  0  0  0  0  2  0  0  0  0  0  0
  182.8920  178.7590  141.5750 C   0  0  0  0  0  0  0  0  0  0  0  0
  186.0720  178.0330  142.9800 C   0  0  0  0  0  0  0  0  0  0  0  0
  190.8820  177.4410  140.7050 C   0  0  0  0  0  0  0  0  0  0  0  0
  184.2120  178.4470  141.8460 C   0  0  0  0  0  0  0  0  0  0  0  0
  187.0180  177.8410  144.0910 N   0  0  0  0  0  0  0  0  0  0  0  0
  182.0390  179.0030  142.6630 C   0  0  0  0  0  3  0  0  0  0  0  0
  190.4320  177.7550  139.3370 C   0  0  0  0  0  3  0  0  0  0  0  0
  185.1300  178.1890  140.9130 N   0  0  0  0  0  0  0  0  0  0  0  0
  183.9660  180.4240  139.1060 C   0  0  0  0  0  1  0  0  0  0  0  0
  184.4250  178.6390  145.6230 C   0  0  0  0  0  2  0  0  0  0  0  0
  182.5470  178.9460  143.9810 C   0  0  0  0  0  3  0  0  0  0  0  0
  184.8260  178.1070  139.4840 C   0  0  0  0  0  2  0  0  0  0  0  0
  189.9070  177.2400  141.7100 N   0  0  0  0  0  0  0  0  0  0  0  0
  188.9250  177.9200  142.6310 C   0  0  1  0  0  3  0  0  0  0  0  0
  183.9010  178.6240  144.2230 C   0  0  0  0  0  0  0  0  0  0  0  0
  186.2840  177.9140  141.5630 C   0  0  0  0  0  0  0  0  0  0  0  0
  182.4230  178.7450  140.1450 C   0  0  0  0  0  2  0  0  0  0  0  0
  186.6010  178.2800  145.4360 C   0  0  1  0  0  3  0  0  0  0  0  0
  183.0980  178.5620  137.7580 C   0  0  0  0  0  1  0  0  0  0  0  0
  188.4840  176.8910  141.8400 C   0  0  1  0  0  3  0  0  0  0  0  0
  192.1040  177.2940  140.9620 O   0  0  0  0  0  0  0  0  0  0  0  0
  187.5480  177.5020  140.8240 C   0  0  2  0  0  3  0  0  0  0  0  0
  185.4030  177.6550  145.7970 O   0  0  0  0  0  0  0  0  0  0  0  0
  187.3460  178.4350  147.8240 C   0  0  0  0  0  3  0  0  0  0  0  0
  187.6400  178.0750  146.5040 C   0  0  0  0  0  0  0  0  0  0  0  0
  188.9050  177.5590  146.1900 C   0  0  0  0  0  3  0  0  0  0  0  0
  191.4420  176.7520  146.7980 Cl  0  0  0  0  0  0  0  0  0  0  0  0
  189.5650  177.7540  148.5120 C   0  0  0  0  0  3  0  0  0  0  0  0
  189.8650  177.3980  147.1930 C   0  0  0  0  0  0  0  0  0  0  0  0
  188.3060  178.2730  148.8270 C   0  0  0  0  0  3  0  0  0  0  0  0
  188.7550  179.7520  137.2210 O   0  0  0  0  0  1  0  0  0  0  0  0
  188.9570  178.4050  137.5320 C   0  0  0  0  0  2  0  0  0  0  0  0
  2 17  1  0  0  0  0
  2 22  1  0  0  0  0
  3 20  1  0  0  0  0
  4 12  2  0  0  0  0
  4  1  1  0  0  0  0
  5 10  1  0  0  0  0
  6  9  1  0  0  0  0
  6 11  2  0  0  0  0
  7  3  1  0  0  0  0
  7 10  1  0  0  0  0
  8 26  2  0  0  0  0
  8 18  1  0  0  0  0
  9  3  2  0  0  0  0
 10 23  1  0  0  0  0
 11 16  1  0  0  0  0
 12  8  1  0  0  0  0
 13 21  1  0  0  0  0
 13  9  1  0  0  0  0
 14  2  1  0  0  0  0
 15 28  1  0  0  0  0
 16 20  2  0  0  0  0
 17 13  1  0  0  0  0
 18 19  1  0  0  0  0
 19  5  1  1  0  0  0
 20 15  1  0  0  0  0
 21  7  2  0  0  0  0
 22  6  1  0  0  0  0
 23 28  1  0  0  0  0
 23 30  1  1  0  0  0
 24  2  1  0  0  0  0
 25 18  1  6  0  0  0
 25 19  1  0  0  0  0
 27  1  1  1  0  0  0
 27 21  1  0  0  0  0
 27 25  1  0  0  0  0
 29 35  1  0  0  0  0
 30 29  2  0  0  0  0
 31 30  1  0  0  0  0
 31 34  2  0  0  0  0
 32 34  1  0  0  0  0
 33 35  2  0  0  0  0
 34 33  1  0  0  0  0
 36 37  1  0  0  0  0
 37  4  1  0  0  0  0
M  END
>  <MODEL>
4

>  <REMARK>
 VINA RESULT:     -10.5      2.321      5.760
  Name = 
  2 active torsions:
  status: ('A' for Active; 'I' for Inactive)
    1  A    between atoms: C_4  and  C_37
    2  A    between atoms: C_23  and  C_30
                            x       y       z     vdW  Elec       q    Type
                         _______ _______ _______ _____ _____    ______ ____

>  <TORSDO>
F 2

$$$$
=
 OpenBabel11122411353D

 37 44  0  0  1  0  0  0  0  0999 V2000
  189.4770  176.8720  142.5980 C   0  0  0  0  0  2  0  0  0  0  0  0
  188.6150  177.7120  147.1090 C   0  0  0  0  0  0  0  0  0  0  0  0
  185.5140  178.4630  144.4200 C   0  0  0  0  0  0  0  0  0  0  0  0
  190.8530  176.8830  141.9550 C   0  0  0  0  0  0  0  0  0  0  0  0
  186.2940  178.5730  140.6010 C   0  0  0  0  0  2  0  0  0  0  0  0
  186.1980  178.4010  146.7410 C   0  0  0  0  0  0  0  0  0  0  0  0
  186.1740  178.4160  143.1890 C   0  0  0  0  0  0  0  0  0  0  0  0
  190.0390  177.3840  139.6320 C   0  0  0  0  0  0  0  0  0  0  0  0
  186.4760  178.3760  145.3860 C   0  0  0  0  0  0  0  0  0  0  0  0
  185.5290  178.4860  141.8680 N   0  0  0  0  0  0  0  0  0  0  0  0
  184.8580  178.5410  147.1330 C   0  0  0  0  0  3  0  0  0  0  0  0
  191.0630  177.0290  140.6310 C   0  0  0  0  0  3  0  0  0  0  0  0
  187.7010  178.2540  144.8720 N   0  0  0  0  0  0  0  0  0  0  0  0
  188.4510  176.2020  147.0720 C   0  0  0  0  0  1  0  0  0  0  0  0
  183.0610  178.6260  143.7640 C   0  0  0  0  0  2  0  0  0  0  0  0
  183.8430  178.6280  146.1520 C   0  0  0  0  0  3  0  0  0  0  0  0
  188.9170  178.2290  145.6840 C   0  0  0  0  0  2  0  0  0  0  0  0
  188.8310  177.9690  140.0760 N   0  0  0  0  0  0  0  0  0  0  0  0
  187.5020  177.7060  140.7380 C   0  0  1  0  0  3  0  0  0  0  0  0
  184.1610  178.6000  144.7770 C   0  0  0  0  0  0  0  0  0  0  0  0
  187.5660  178.2880  143.5260 C   0  0  0  0  0  0  0  0  0  0  0  0
  187.3440  178.3560  147.7160 C   0  0  0  0  0  2  0  0  0  0  0  0
  184.0620  178.3550  141.8090 C   0  0  1  0  0  3  0  0  0  0  0  0
  189.7940  178.0390  148.0000 C   0  0  0  0  0  1  0  0  0  0  0  0
  188.3000  178.7050  141.2340 C   0  0  1  0  0  3  0  0  0  0  0  0
  190.2590  177.2270  138.4030 O   0  0  0  0  0  0  0  0  0  0  0  0
  188.7680  178.2430  142.5940 C   0  0  2  0  0  3  0  0  0  0  0  0
  183.4580  179.3230  142.6180 O   0  0  0  0  0  0  0  0  0  0  0  0
  183.2260  179.6510  139.8340 C   0  0  0  0  0  3  0  0  0  0  0  0
  183.4910  178.4080  140.4180 C   0  0  0  0  0  0  0  0  0  0  0  0
  183.1920  177.2320  139.7160 C   0  0  0  0  0  3  0  0  0  0  0  0
  182.2700  175.8340  137.5590 Cl  0  0  0  0  0  0  0  0  0  0  0  0
  182.3820  178.5470  137.8500 C   0  0  0  0  0  3  0  0  0  0  0  0
  182.6400  177.3030  138.4330 C   0  0  0  0  0  0  0  0  0  0  0  0
  182.6760  179.7210  138.5510 C   0  0  0  0  0  3  0  0  0  0  0  0
  191.6990  176.0040  144.0150 O   0  0  0  0  0  1  0  0  0  0  0  0
  192.0560  176.5740  142.7900 C   0  0  0  0  0  2  0  0  0  0  0  0
  2 22  1  0  0  0  0
  2 24  1  0  0  0  0
  3 20  2  0  0  0  0
  3  9  1  0  0  0  0
  4  1  1  0  0  0  0
  4 37  1  0  0  0  0
  5 10  1  0  0  0  0
  6 11  1  0  0  0  0
  6 22  1  0  0  0  0
  7 21  2  0  0  0  0
  7  3  1  0  0  0  0
  8 18  1  0  0  0  0
  8 12  1  0  0  0  0
  9  6  2  0  0  0  0
 10  7  1  0  0  0  0
 12  4  2  0  0  0  0
 13  9  1  0  0  0  0
 13 17  1  0  0  0  0
 14  2  1  0  0  0  0
 15 20  1  0  0  0  0
 16 11  2  0  0  0  0
 17  2  1  0  0  0  0
 18 19  1  0  0  0  0
 19  5  1  6  0  0  0
 19 25  1  0  0  0  0
 20 16  1  0  0  0  0
 21 13  1  0  0  0  0
 23 30  1  6  0  0  0
 23 10  1  0  0  0  0
 23 28  1  0  0  0  0
 25 18  1  6  0  0  0
 25 27  1  0  0  0  0
 26  8  2  0  0  0  0
 27  1  1  6  0  0  0
 27 21  1  0  0  0  0
 28 15  1  0  0  0  0
 29 30  1  0  0  0  0
 31 30  2  0  0  0  0
 32 34  1  0  0  0  0
 33 34  2  0  0  0  0
 33 35  1  0  0  0  0
 34 31  1  0  0  0  0
 35 29  2  0  0  0  0
 37 36  1  0  0  0  0
M  END
>  <MODEL>
5

>  <REMARK>
 VINA RESULT:     -10.3      2.855      8.276
  Name = 
  2 active torsions:
  status: ('A' for Active; 'I' for Inactive)
    1  A    between atoms: C_4  and  C_37
    2  A    between atoms: C_23  and  C_30
                            x       y       z     vdW  Elec       q    Type
                         _______ _______ _______ _____ _____    ______ ____

>  <TORSDO>
F 2

$$$$
=
 OpenBabel11122411353D

 37 44  0  0  1  0  0  0  0  0999 V2000
  186.7060  178.8700  144.8740 C   0  0  0  0  0  2  0  0  0  0  0  0
  191.0590  177.5490  143.8280 C   0  0  0  0  0  0  0  0  0  0  0  0
  188.3600  177.8420  140.6590 C   0  0  0  0  0  0  0  0  0  0  0  0
  186.0370  178.6830  146.2250 C   0  0  0  0  0  0  0  0  0  0  0  0
  184.5500  178.1550  141.4300 C   0  0  0  0  0  2  0  0  0  0  0  0
  190.6480  177.4160  141.3250 C   0  0  0  0  0  0  0  0  0  0  0  0
  187.1350  177.9410  141.3250 C   0  0  0  0  0  0  0  0  0  0  0  0
  183.6840  178.7100  145.3450 C   0  0  0  0  0  0  0  0  0  0  0  0
  189.3060  177.5890  141.6120 C   0  0  0  0  0  0  0  0  0  0  0  0
  185.8340  178.2000  140.6890 N   0  0  0  0  0  0  0  0  0  0  0  0
  191.0460  177.4880  139.9810 C   0  0  0  0  0  3  0  0  0  0  0  0
  184.7020  178.7000  146.4110 C   0  0  0  0  0  3  0  0  0  0  0  0
  188.7880  177.5420  142.8400 N   0  0  0  0  0  0  0  0  0  0  0  0
  191.2520  179.0490  143.9680 C   0  0  0  0  0  1  0  0  0  0  0  0
  187.7430  178.2690  138.2290 C   0  0  0  0  0  2  0  0  0  0  0  0
  190.0860  177.7530  138.9760 C   0  0  0  0  0  3  0  0  0  0  0  0
  189.5670  177.2030  144.0310 C   0  0  0  0  0  2  0  0  0  0  0  0
  184.0640  178.3150  144.0400 N   0  0  0  0  0  0  0  0  0  0  0  0
  184.7880  178.7350  142.7860 C   0  0  1  0  0  3  0  0  0  0  0  0
  188.7230  177.9240  139.3040 C   0  0  0  0  0  0  0  0  0  0  0  0
  187.4560  177.7390  142.7120 C   0  0  0  0  0  0  0  0  0  0  0  0
  191.5920  177.0850  142.4490 C   0  0  0  0  0  2  0  0  0  0  0  0
  185.8280  178.6280  139.2780 C   0  0  1  0  0  3  0  0  0  0  0  0
  191.8650  176.8640  144.9110 C   0  0  0  0  0  1  0  0  0  0  0  0
  185.1110  177.5340  143.3650 C   0  0  1  0  0  3  0  0  0  0  0  0
  182.4880  179.0030  145.6010 O   0  0  0  0  0  0  0  0  0  0  0  0
  186.5140  177.6830  143.9050 C   0  0  2  0  0  3  0  0  0  0  0  0
  186.4980  177.6880  138.4860 O   0  0  0  0  0  0  0  0  0  0  0  0
  183.8410  177.9310  137.9190 C   0  0  0  0  0  3  0  0  0  0  0  0
  184.4580  178.8990  138.7180 C   0  0  0  0  0  0  0  0  0  0  0  0
  183.8080  180.1180  138.9610 C   0  0  0  0  0  3  0  0  0  0  0  0
  181.7360  181.8800  138.7180 Cl  0  0  0  0  0  0  0  0  0  0  0  0
  181.9290  179.3870  137.6180 C   0  0  0  0  0  3  0  0  0  0  0  0
  182.5450  180.3600  138.4120 C   0  0  0  0  0  0  0  0  0  0  0  0
  182.5780  178.1730  137.3720 C   0  0  0  0  0  3  0  0  0  0  0  0
  187.9200  177.6930  147.3240 O   0  0  0  0  0  1  0  0  0  0  0  0
  186.8810  178.6180  147.4590 C   0  0  0  0  0  2  0  0  0  0  0  0
  1  4  1  0  0  0  0
  2 14  1  0  0  0  0
  2 17  1  0  0  0  0
  2 24  1  0  0  0  0
  3  7  1  0  0  0  0
  3  9  1  0  0  0  0
  4 12  2  0  0  0  0
  4 37  1  0  0  0  0
  6  9  2  0  0  0  0
  6 22  1  0  0  0  0
  7 21  2  0  0  0  0
  8 26  2  0  0  0  0
  8 12  1  0  0  0  0
  9 13  1  0  0  0  0
 10  7  1  0  0  0  0
 10  5  1  0  0  0  0
 11  6  1  0  0  0  0
 13 17  1  0  0  0  0
 15 28  1  0  0  0  0
 15 20  1  0  0  0  0
 16 20  1  0  0  0  0
 16 11  2  0  0  0  0
 18  8  1  0  0  0  0
 19  5  1  6  0  0  0
 19 25  1  0  0  0  0
 19 18  1  0  0  0  0
 20  3  2  0  0  0  0
 21 13  1  0  0  0  0
 21 27  1  0  0  0  0
 22  2  1  0  0  0  0
 23 30  1  6  0  0  0
 23 10  1  0  0  0  0
 25 27  1  0  0  0  0
 25 18  1  1  0  0  0
 27  1  1  6  0  0  0
 28 23  1  0  0  0  0
 29 30  1  0  0  0  0
 30 31  2  0  0  0  0
 33 34  2  0  0  0  0
 34 32  1  0  0  0  0
 34 31  1  0  0  0  0
 35 33  1  0  0  0  0
 35 29  2  0  0  0  0
 36 37  1  0  0  0  0
M  END
>  <MODEL>
6

>  <REMARK>
 VINA RESULT:     -10.0      2.545      6.626
  Name = 
  2 active torsions:
  status: ('A' for Active; 'I' for Inactive)
    1  A    between atoms: C_4  and  C_37
    2  A    between atoms: C_23  and  C_30
                            x       y       z     vdW  Elec       q    Type
                         _______ _______ _______ _____ _____    ______ ____

>  <TORSDO>
F 2

$$$$
=
 OpenBabel11122411353D

 37 44  0  0  1  0  0  0  0  0999 V2000
  183.5460  177.9010  141.3650 C   0  0  0  0  0  2  0  0  0  0  0  0
  183.6450  177.5050  136.7140 C   0  0  0  0  0  0  0  0  0  0  0  0
  187.3220  177.5250  138.6880 C   0  0  0  0  0  0  0  0  0  0  0  0
  182.4260  178.5450  142.1630 C   0  0  0  0  0  0  0  0  0  0  0  0
  187.4660  178.6240  142.4260 C   0  0  0  0  0  2  0  0  0  0  0  0
  186.1720  177.2950  136.5690 C   0  0  0  0  0  0  0  0  0  0  0  0
  186.9650  177.9570  139.9680 C   0  0  0  0  0  0  0  0  0  0  0  0
  183.8410  179.1260  144.1550 C   0  0  0  0  0  0  0  0  0  0  0  0
  186.2010  177.6270  137.9120 C   0  0  0  0  0  0  0  0  0  0  0  0
  187.8650  178.0240  141.1300 N   0  0  0  0  0  0  0  0  0  0  0  0
  187.3640  176.8470  135.9790 C   0  0  0  0  0  3  0  0  0  0  0  0
  182.5680  179.0010  143.4230 C   0  0  0  0  0  3  0  0  0  0  0  0
  185.1480  178.0700  138.6000 N   0  0  0  0  0  0  0  0  0  0  0  0
  183.2990  176.0790  137.1060 C   0  0  0  0  0  1  0  0  0  0  0  0
  189.7670  176.8760  138.9470 C   0  0  0  0  0  2  0  0  0  0  0  0
  188.5360  176.7280  136.7620 C   0  0  0  0  0  3  0  0  0  0  0  0
  183.8480  178.3520  137.9900 C   0  0  0  0  0  2  0  0  0  0  0  0
  185.0500  179.1230  143.4200 N   0  0  0  0  0  0  0  0  0  0  0  0
  186.0380  178.2630  142.6740 C   0  0  1  0  0  3  0  0  0  0  0  0
  188.5310  177.0760  138.1300 C   0  0  0  0  0  0  0  0  0  0  0  0
  185.5720  178.2990  139.8640 C   0  0  0  0  0  0  0  0  0  0  0  0
  184.8960  177.5020  135.8000 C   0  0  0  0  0  2  0  0  0  0  0  0
  189.1810  177.3660  141.0240 C   0  0  1  0  0  3  0  0  0  0  0  0
  182.4800  178.0790  135.9350 C   0  0  0  0  0  1  0  0  0  0  0  0
  185.5330  179.3780  142.0550 C   0  0  1  0  0  3  0  0  0  0  0  0
  183.8520  179.2930  145.4020 O   0  0  0  0  0  0  0  0  0  0  0  0
  184.6560  178.8820  140.9290 C   0  0  2  0  0  3  0  0  0  0  0  0
  189.8840  177.8700  139.9240 O   0  0  0  0  0  0  0  0  0  0  0  0
  190.2830  178.7150  142.8260 C   0  0  0  0  0  3  0  0  0  0  0  0
  190.0220  177.4590  142.2670 C   0  0  0  0  0  0  0  0  0  0  0  0
  190.5730  176.3100  142.8520 C   0  0  0  0  0  3  0  0  0  0  0  0
  192.0550  174.9840  144.7230 Cl  0  0  0  0  0  0  0  0  0  0  0  0
  191.6250  177.6760  144.5530 C   0  0  0  0  0  3  0  0  0  0  0  0
  191.3710  176.4190  143.9950 C   0  0  0  0  0  0  0  0  0  0  0  0
  191.0800  178.8230  143.9680 C   0  0  0  0  0  3  0  0  0  0  0  0
  180.8770  177.5930  140.6040 O   0  0  0  0  0  1  0  0  0  0  0  0
  181.0390  178.5600  141.6000 C   0  0  0  0  0  2  0  0  0  0  0  0
  1  4  1  0  0  0  0
  2 14  1  0  0  0  0
  2 17  1  0  0  0  0
  3  7  1  0  0  0  0
  4 12  2  0  0  0  0
  6  9  1  0  0  0  0
  7 10  1  0  0  0  0
  8 26  2  0  0  0  0
  9 13  1  0  0  0  0
  9  3  2  0  0  0  0
 10  5  1  0  0  0  0
 11  6  2  0  0  0  0
 11 16  1  0  0  0  0
 12  8  1  0  0  0  0
 13 21  1  0  0  0  0
 15 28  1  0  0  0  0
 16 20  2  0  0  0  0
 17 13  1  0  0  0  0
 18  8  1  0  0  0  0
 19  5  1  1  0  0  0
 19 18  1  0  0  0  0
 20  3  1  0  0  0  0
 20 15  1  0  0  0  0
 21  7  2  0  0  0  0
 21 27  1  0  0  0  0
 22  6  1  0  0  0  0
 22  2  1  0  0  0  0
 23 10  1  0  0  0  0
 23 30  1  1  0  0  0
 24  2  1  0  0  0  0
 25 19  1  0  0  0  0
 25 18  1  1  0  0  0
 27  1  1  1  0  0  0
 27 25  1  0  0  0  0
 28 23  1  0  0  0  0
 29 35  1  0  0  0  0
 30 29  2  0  0  0  0
 30 31  1  0  0  0  0
 31 34  2  0  0  0  0
 34 33  1  0  0  0  0
 34 32  1  0  0  0  0
 35 33  2  0  0  0  0
 36 37  1  0  0  0  0
 37  4  1  0  0  0  0
M  END
>  <MODEL>
7

>  <REMARK>
 VINA RESULT:      -9.9      2.367      3.422
  Name = 
  2 active torsions:
  status: ('A' for Active; 'I' for Inactive)
    1  A    between atoms: C_4  and  C_37
    2  A    between atoms: C_23  and  C_30
                            x       y       z     vdW  Elec       q    Type
                         _______ _______ _______ _____ _____    ______ ____

>  <TORSDO>
F 2

$$$$
=
 OpenBabel11122411353D

 37 44  0  0  1  0  0  0  0  0999 V2000
  185.5110  178.9720  144.1160 C   0  0  0  0  0  2  0  0  0  0  0  0
  188.3060  177.5020  147.5550 C   0  0  0  0  0  0  0  0  0  0  0  0
  189.7860  177.2170  143.6630 C   0  0  0  0  0  0  0  0  0  0  0  0
  183.9950  179.0250  144.1850 C   0  0  0  0  0  0  0  0  0  0  0  0
  187.3360  177.6480  140.6610 C   0  0  0  0  0  2  0  0  0  0  0  0
  190.2480  176.9250  146.0220 C   0  0  0  0  0  0  0  0  0  0  0  0
  188.6380  177.4290  142.8960 C   0  0  0  0  0  0  0  0  0  0  0  0
  183.6260  178.8870  141.7050 C   0  0  0  0  0  0  0  0  0  0  0  0
  189.3810  177.1410  144.9660 C   0  0  0  0  0  0  0  0  0  0  0  0
  188.6000  177.5660  141.4320 N   0  0  0  0  0  0  0  0  0  0  0  0
  191.6100  176.7580  145.7280 C   0  0  0  0  0  3  0  0  0  0  0  0
  183.1950  179.0700  143.1020 C   0  0  0  0  0  3  0  0  0  0  0  0
  188.0640  177.3110  145.0970 N   0  0  0  0  0  0  0  0  0  0  0  0
  188.5080  179.0040  147.6570 C   0  0  0  0  0  1  0  0  0  0  0  0
  191.6530  177.2040  141.9350 C   0  0  0  0  0  2  0  0  0  0  0  0
  192.0560  176.8370  144.3880 C   0  0  0  0  0  3  0  0  0  0  0  0
  187.3590  177.1920  146.3730 C   0  0  0  0  0  2  0  0  0  0  0  0
  184.8740  178.2680  141.4550 N   0  0  0  0  0  0  0  0  0  0  0  0
  186.3690  178.4600  141.4590 C   0  0  1  0  0  3  0  0  0  0  0  0
  191.1440  177.0580  143.3340 C   0  0  0  0  0  0  0  0  0  0  0  0
  187.5640  177.4770  143.8510 C   0  0  0  0  0  0  0  0  0  0  0  0
  189.6810  176.8020  147.4110 C   0  0  0  0  0  2  0  0  0  0  0  0
  189.8810  177.7360  140.7210 C   0  0  1  0  0  3  0  0  0  0  0  0
  187.6530  177.0230  148.8340 C   0  0  0  0  0  1  0  0  0  0  0  0
  185.8410  177.3830  142.1230 C   0  0  1  0  0  3  0  0  0  0  0  0
  182.8750  179.2160  140.7520 O   0  0  0  0  0  0  0  0  0  0  0  0
  186.0720  177.6310  143.5950 C   0  0  2  0  0  3  0  0  0  0  0  0
  190.7410  176.6730  141.0170 O   0  0  0  0  0  0  0  0  0  0  0  0
  189.0560  179.0030  138.7230 C   0  0  0  0  0  3  0  0  0  0  0  0
  189.7460  177.8980  139.2310 C   0  0  0  0  0  0  0  0  0  0  0  0
  190.2730  176.9420  138.3510 C   0  0  0  0  0  3  0  0  0  0  0  0
  190.7760  175.9060  135.8750 Cl  0  0  0  0  0  0  0  0  0  0  0  0
  189.4310  178.2080  136.4660 C   0  0  0  0  0  3  0  0  0  0  0  0
  190.1160  177.0990  136.9710 C   0  0  0  0  0  0  0  0  0  0  0  0
  188.9000  179.1600  137.3430 C   0  0  0  0  0  3  0  0  0  0  0  0
  184.0910  178.6280  146.5450 O   0  0  0  0  0  1  0  0  0  0  0  0
  183.3270  179.1840  145.5150 C   0  0  0  0  0  2  0  0  0  0  0  0
  1  4  1  0  0  0  0
  2 14  1  0  0  0  0
  2 24  1  0  0  0  0
  3  9  1  0  0  0  0
  4 37  1  0  0  0  0
  5 10  1  0  0  0  0
  6 22  1  0  0  0  0
  7  3  1  0  0  0  0
  7 21  2  0  0  0  0
  8 12  1  0  0  0  0
  9 13  1  0  0  0  0
  9  6  2  0  0  0  0
 10  7  1  0  0  0  0
 11  6  1  0  0  0  0
 12  4  2  0  0  0  0
 13 17  1  0  0  0  0
 15 20  1  0  0  0  0
 16 11  2  0  0  0  0
 17  2  1  0  0  0  0
 18 19  1  0  0  0  0
 18  8  1  0  0  0  0
 19  5  1  6  0  0  0
 19 25  1  0  0  0  0
 20  3  2  0  0  0  0
 20 16  1  0  0  0  0
 21 13  1  0  0  0  0
 22  2  1  0  0  0  0
 23 30  1  6  0  0  0
 23 28  1  0  0  0  0
 23 10  1  0  0  0  0
 25 18  1  1  0  0  0
 25 27  1  0  0  0  0
 26  8  2  0  0  0  0
 27 21  1  0  0  0  0
 27  1  1  6  0  0  0
 28 15  1  0  0  0  0
 29 30  1  0  0  0  0
 31 30  2  0  0  0  0
 32 34  1  0  0  0  0
 33 34  2  0  0  0  0
 33 35  1  0  0  0  0
 34 31  1  0  0  0  0
 35 29  2  0  0  0  0
 37 36  1  0  0  0  0
M  END
>  <MODEL>
8

>  <REMARK>
 VINA RESULT:      -9.8      2.882      7.128
  Name = 
  2 active torsions:
  status: ('A' for Active; 'I' for Inactive)
    1  A    between atoms: C_4  and  C_37
    2  A    between atoms: C_23  and  C_30
                            x       y       z     vdW  Elec       q    Type
                         _______ _______ _______ _____ _____    ______ ____

>  <TORSDO>
F 2

$$$$
=
 OpenBabel11122411353D

 37 44  0  0  1  0  0  0  0  0999 V2000
  188.1160  177.0320  143.9760 C   0  0  0  0  0  2  0  0  0  0  0  0
  184.3120  178.9270  142.0430 C   0  0  0  0  0  0  0  0  0  0  0  0
  187.4450  177.9360  139.4710 C   0  0  0  0  0  0  0  0  0  0  0  0
  188.5540  177.2290  145.4160 C   0  0  0  0  0  0  0  0  0  0  0  0
  190.9440  177.0930  140.9720 C   0  0  0  0  0  2  0  0  0  0  0  0
  185.1820  178.7740  139.6620 C   0  0  0  0  0  0  0  0  0  0  0  0
  188.4950  177.7030  140.3630 C   0  0  0  0  0  0  0  0  0  0  0  0
  190.9860  176.7540  145.0050 C   0  0  0  0  0  0  0  0  0  0  0  0
  186.4010  178.4170  140.2090 C   0  0  0  0  0  0  0  0  0  0  0  0
  189.8250  177.1870  140.0030 N   0  0  0  0  0  0  0  0  0  0  0  0
  185.0250  178.6480  138.2730 C   0  0  0  0  0  3  0  0  0  0  0  0
  189.8110  177.0180  145.8550 C   0  0  0  0  0  3  0  0  0  0  0  0
  186.6910  178.4890  141.5090 N   0  0  0  0  0  0  0  0  0  0  0  0
  183.8430  177.4950  142.2290 C   0  0  0  0  0  1  0  0  0  0  0  0
  188.4040  177.2050  137.2310 C   0  0  0  0  0  2  0  0  0  0  0  0
  186.0890  178.1480  137.4870 C   0  0  0  0  0  3  0  0  0  0  0  0
  185.7810  179.0500  142.5080 C   0  0  0  0  0  2  0  0  0  0  0  0
  190.9200  177.0880  143.6320 N   0  0  0  0  0  0  0  0  0  0  0  0
  190.3710  176.6800  142.2880 C   0  0  1  0  0  3  0  0  0  0  0  0
  187.3210  177.7940  138.0780 C   0  0  0  0  0  0  0  0  0  0  0  0
  187.9710  178.0740  141.6490 C   0  0  0  0  0  0  0  0  0  0  0  0
  184.1220  179.3470  140.5640 C   0  0  0  0  0  2  0  0  0  0  0  0
  190.0100  176.6420  138.6450 C   0  0  1  0  0  3  0  0  0  0  0  0
  183.4550  179.8230  142.9120 C   0  0  0  0  0  1  0  0  0  0  0  0
  190.1600  177.9620  142.7260 C   0  0  1  0  0  3  0  0  0  0  0  0
  192.0490  176.2990  145.5010 O   0  0  0  0  0  0  0  0  0  0  0  0
  188.6790  178.0840  142.9960 C   0  0  2  0  0  3  0  0  0  0  0  0
  189.6640  177.6020  137.6890 O   0  0  0  0  0  0  0  0  0  0  0  0
  192.5040  176.8690  138.7530 C   0  0  0  0  0  3  0  0  0  0  0  0
  191.3910  176.1100  138.3750 C   0  0  0  0  0  0  0  0  0  0  0  0
  191.5760  174.8830  137.7200 C   0  0  0  0  0  3  0  0  0  0  0  0
  193.0950  172.8860  136.6420 Cl  0  0  0  0  0  0  0  0  0  0  0  0
  193.9770  175.1760  137.8420 C   0  0  0  0  0  3  0  0  0  0  0  0
  192.8670  174.4180  137.4570 C   0  0  0  0  0  0  0  0  0  0  0  0
  193.7950  176.4020  138.4910 C   0  0  0  0  0  3  0  0  0  0  0  0
  186.2440  177.6220  145.9110 O   0  0  0  0  0  1  0  0  0  0  0  0
  187.5260  177.5340  146.4610 C   0  0  0  0  0  2  0  0  0  0  0  0
  1  4  1  0  0  0  0
  2 14  1  0  0  0  0
  2 17  1  0  0  0  0
  2 24  1  0  0  0  0
  3  9  1  0  0  0  0
  3  7  1  0  0  0  0
  4 12  2  0  0  0  0
  4 37  1  0  0  0  0
  6  9  2  0  0  0  0
  6 22  1  0  0  0  0
  7 21  2  0  0  0  0
  8 26  2  0  0  0  0
  8 12  1  0  0  0  0
  9 13  1  0  0  0  0
 10  7  1  0  0  0  0
 10  5  1  0  0  0  0
 11  6  1  0  0  0  0
 13 21  1  0  0  0  0
 13 17  1  0  0  0  0
 15 28  1  0  0  0  0
 15 20  1  0  0  0  0
 16 20  1  0  0  0  0
 16 11  2  0  0  0  0
 18  8  1  0  0  0  0
 19  5  1  6  0  0  0
 19 25  1  0  0  0  0
 19 18  1  0  0  0  0
 20  3  2  0  0  0  0
 21 27  1  0  0  0  0
 22  2  1  0  0  0  0
 23 30  1  6  0  0  0
 23 10  1  0  0  0  0
 25 27  1  0  0  0  0
 25 18  1  1  0  0  0
 27  1  1  1  0  0  0
 28 23  1  0  0  0  0
 30 29  2  0  0  0  0
 31 30  1  0  0  0  0
 32 34  1  0  0  0  0
 33 35  2  0  0  0  0
 34 31  2  0  0  0  0
 34 33  1  0  0  0  0
 35 29  1  0  0  0  0
 36 37  1  0  0  0  0
M  END
>  <MODEL>
9

>  <REMARK>
 VINA RESULT:      -9.5      3.231      7.404
  Name = 
  2 active torsions:
  status: ('A' for Active; 'I' for Inactive)
    1  A    between atoms: C_4  and  C_37
    2  A    between atoms: C_23  and  C_30
                            x       y       z     vdW  Elec       q    Type
                         _______ _______ _______ _____ _____    ______ ____

>  <TORSDO>
F 2

$$$$
