=
 OpenBabel11122411483D

 37 43  0  0  1  0  0  0  0  0999 V2000
  182.7240  178.0020  140.8340 C   0  0  1  0  0  0  0  0  0  0  0  0
  185.7890  178.8510  142.8580 C   0  0  1  0  0  3  0  0  0  0  0  0
  188.8170  178.9850  141.6760 O   0  0  0  0  0  0  0  0  0  0  0  0
  183.2820  179.4910  142.5110 C   0  0  2  0  0  3  0  0  0  0  0  0
  186.6080  178.0120  141.8720 C   0  0  2  0  0  3  0  0  0  0  0  0
  184.7220  179.5430  141.9880 C   0  0  2  0  0  3  0  0  0  0  0  0
  188.1050  177.9050  142.2200 C   0  0  2  0  0  3  0  0  0  0  0  0
  183.2910  179.7250  144.0120 C   0  0  0  0  0  2  0  0  0  0  0  0
  184.8270  178.9640  140.5810 C   0  0  2  0  0  3  0  0  0  0  0  0
  182.1500  179.0340  140.0730 O   0  0  0  0  0  1  0  0  0  0  0  0
  186.2570  177.5420  144.9920 C   0  0  0  0  0  2  0  0  0  0  0  0
  184.0670  178.6370  144.7640 C   0  0  0  0  0  2  0  0  0  0  0  0
  184.0690  177.7750  140.4630 O   0  0  0  0  0  0  0  0  0  0  0  0
  189.2840  177.6020  139.6860 C   0  0  0  0  0  2  0  0  0  0  0  0
  189.8230  178.4460  140.8470 C   0  0  0  0  0  2  0  0  0  0  0  0
  185.2000  177.9630  143.9740 C   0  0  1  0  0  3  0  0  0  0  0  0
  186.3080  178.6260  140.5020 C   0  0  2  0  0  3  0  0  0  0  0  0
  182.6370  178.2700  142.2180 O   0  0  0  0  0  0  0  0  0  0  0  0
  188.3930  177.7310  143.7290 C   0  0  1  0  0  3  0  0  0  0  0  0
  182.0150  176.8440  140.5790 F   0  0  0  0  0  0  0  0  0  0  0  0
  188.1990  178.3310  138.9140 C   0  0  0  0  0  2  0  0  0  0  0  0
  186.8120  177.8110  139.2910 C   0  0  2  0  0  3  0  0  0  0  0  0
  187.4140  176.7640  144.3820 C   0  0  0  0  0  2  0  0  0  0  0  0
  190.1200  175.9040  143.4730 C   0  0  0  0  0  2  0  0  0  0  0  0
  189.8250  177.2840  144.0400 C   0  0  2  0  0  3  0  0  0  0  0  0
  190.1630  177.3550  145.5340 C   0  0  0  0  0  2  0  0  0  0  0  0
  191.9220  176.7160  147.2180 N   0  0  0  0  0  1  0  0  0  0  0  0
  192.0050  175.8010  145.0560 N   0  0  0  0  0  0  0  0  0  0  0  0
  191.4290  176.6190  145.8880 C   0  0  0  0  0  0  0  0  0  0  0  0
  191.6040  175.6270  143.6580 C   0  0  0  0  0  2  0  0  0  0  0  0
  185.9180  177.9690  138.0500 C   0  0  1  0  0  3  0  0  0  0  0  0
  186.1950  176.9770  136.9050 C   0  0  2  0  0  3  0  0  0  0  0  0
  185.0420  176.7450  137.8550 C   0  0  2  0  0  3  0  0  0  0  0  0
  183.7500  177.1600  137.1820 C   0  0  0  0  0  2  0  0  0  0  0  0
  183.4730  178.4790  137.4900 F   0  0  0  0  0  0  0  0  0  0  0  0
  186.6880  174.6670  137.2150 O   0  0  0  0  0  1  0  0  0  0  0  0
  187.2690  175.9330  137.1810 C   0  0  0  0  0  2  0  0  0  0  0  0
  1 10  1  6  0  0  0
  1 18  1  0  0  0  0
  2 16  1  0  0  0  0
  3  7  1  0  0  0  0
  4  8  1  0  0  0  0
  5  7  1  0  0  0  0
  5  2  1  0  0  0  0
  6  4  1  0  0  0  0
  6  2  1  0  0  0  0
  7 19  1  0  0  0  0
  8 12  1  0  0  0  0
  9  6  1  0  0  0  0
 13  9  1  0  0  0  0
 13  1  1  0  0  0  0
 14 15  1  0  0  0  0
 15  3  1  0  0  0  0
 16 12  1  0  0  0  0
 16 11  1  0  0  0  0
 17  9  1  0  0  0  0
 17  5  1  0  0  0  0
 18  4  1  0  0  0  0
 19 25  1  0  0  0  0
 19 23  1  0  0  0  0
 20  1  1  0  0  0  0
 21 22  1  0  0  0  0
 21 14  1  0  0  0  0
 22 17  1  0  0  0  0
 23 11  1  0  0  0  0
 24 30  1  0  0  0  0
 24 25  1  0  0  0  0
 25 26  1  0  0  0  0
 26 29  1  0  0  0  0
 28 29  2  0  0  0  0
 29 27  1  0  0  0  0
 30 28  1  0  0  0  0
 31 22  1  0  0  0  0
 32 37  1  0  0  0  0
 32 33  1  0  0  0  0
 32 31  1  0  0  0  0
 33 31  1  0  0  0  0
 34 35  1  0  0  0  0
 34 33  1  0  0  0  0
 37 36  1  0  0  0  0
M  END
>  <MODEL>
1

>  <REMARK>
 VINA RESULT:      -7.9      0.000      0.000
  Name = 
  4 active torsions:
  status: ('A' for Active; 'I' for Inactive)
    1  A    between atoms: C_1  and  C_27
    2  A    between atoms: C_4  and  C_37
    3  A    between atoms: C_8  and  C_12
    4  A    between atoms: C_23  and  C_30
                            x       y       z     vdW  Elec       q    Type
                         _______ _______ _______ _____ _____    ______ ____

>  <TORSDO>
F 4

$$$$
=
 OpenBabel11122411483D

 37 43  0  0  1  0  0  0  0  0999 V2000
  185.6300  179.1200  146.0520 C   0  0  1  0  0  0  0  0  0  0  0  0
  186.7010  177.6570  142.7470 C   0  0  1  0  0  3  0  0  0  0  0  0
  189.3750  175.8600  142.2910 O   0  0  0  0  0  0  0  0  0  0  0  0
  184.6080  178.1130  144.2400 C   0  0  2  0  0  3  0  0  0  0  0  0
  188.1470  177.7140  143.2510 C   0  0  2  0  0  3  0  0  0  0  0  0
  185.8710  177.2800  143.9890 C   0  0  2  0  0  3  0  0  0  0  0  0
  189.1960  177.2500  142.2220 C   0  0  2  0  0  3  0  0  0  0  0  0
  183.9050  178.3580  142.9160 C   0  0  0  0  0  2  0  0  0  0  0  0
  186.8050  177.3050  145.1940 C   0  0  2  0  0  3  0  0  0  0  0  0
  184.9480  178.2710  146.9400 O   0  0  0  0  0  1  0  0  0  0  0  0
  186.9130  179.1970  140.7290 C   0  0  0  0  0  2  0  0  0  0  0  0
  184.7710  179.1630  141.9390 C   0  0  0  0  0  2  0  0  0  0  0  0
  186.9080  178.6110  145.7310 O   0  0  0  0  0  0  0  0  0  0  0  0
  191.2340  176.2340  143.8700 C   0  0  0  0  0  2  0  0  0  0  0  0
  190.7420  175.6280  142.5500 C   0  0  0  0  0  2  0  0  0  0  0  0
  186.2910  179.0010  142.1100 C   0  0  1  0  0  3  0  0  0  0  0  0
  188.1320  176.9170  144.5570 C   0  0  2  0  0  3  0  0  0  0  0  0
  184.8820  179.3430  144.8750 O   0  0  0  0  0  0  0  0  0  0  0  0
  188.9160  177.7210  140.7770 C   0  0  1  0  0  3  0  0  0  0  0  0
  185.8060  180.3360  146.6820 F   0  0  0  0  0  0  0  0  0  0  0  0
  190.3330  175.8630  145.0330 C   0  0  0  0  0  2  0  0  0  0  0  0
  189.4150  177.0250  145.4100 C   0  0  2  0  0  3  0  0  0  0  0  0
  188.4340  179.1660  140.7370 C   0  0  0  0  0  2  0  0  0  0  0  0
  189.9720  176.3310  138.9500 C   0  0  0  0  0  2  0  0  0  0  0  0
  190.1110  177.5630  139.8300 C   0  0  2  0  0  3  0  0  0  0  0  0
  191.4590  177.5740  140.5620 C   0  0  0  0  0  2  0  0  0  0  0  0
  193.9220  177.1800  140.2180 N   0  0  0  0  0  1  0  0  0  0  0  0
  192.4000  176.4940  138.5650 N   0  0  0  0  0  0  0  0  0  0  0  0
  192.6000  177.0960  139.7020 C   0  0  0  0  0  0  0  0  0  0  0  0
  191.0920  176.3600  137.9220 C   0  0  0  0  0  2  0  0  0  0  0  0
  189.1420  176.9140  146.9190 C   0  0  1  0  0  3  0  0  0  0  0  0
  190.3900  176.9340  147.8200 C   0  0  2  0  0  3  0  0  0  0  0  0
  189.5590  178.1840  147.6390 C   0  0  2  0  0  3  0  0  0  0  0  0
  188.6780  178.3770  148.8560 C   0  0  0  0  0  2  0  0  0  0  0  0
  187.5540  177.5800  148.7430 F   0  0  0  0  0  0  0  0  0  0  0  0
  192.6480  176.2090  147.5870 O   0  0  0  0  0  1  0  0  0  0  0  0
  191.7190  177.1280  147.1030 C   0  0  0  0  0  2  0  0  0  0  0  0
  1 20  1  1  0  0  0
  1 10  1  0  0  0  0
  2  5  1  0  0  0  0
  2  6  1  0  0  0  0
  3 15  1  0  0  0  0
  4 18  1  0  0  0  0
  5 17  1  0  0  0  0
  6  4  1  0  0  0  0
  6  9  1  0  0  0  0
  7  3  1  0  0  0  0
  7  5  1  0  0  0  0
  8  4  1  0  0  0  0
  9 13  1  0  0  0  0
 11 23  1  0  0  0  0
 11 16  1  0  0  0  0
 12 16  1  0  0  0  0
 12  8  1  0  0  0  0
 13  1  1  0  0  0  0
 14 21  1  0  0  0  0
 15 14  1  0  0  0  0
 16  2  1  0  0  0  0
 17  9  1  0  0  0  0
 17 22  1  0  0  0  0
 18  1  1  0  0  0  0
 19  7  1  0  0  0  0
 21 22  1  0  0  0  0
 22 31  1  0  0  0  0
 23 19  1  0  0  0  0
 24 25  1  0  0  0  0
 25 26  1  0  0  0  0
 25 19  1  0  0  0  0
 28 29  2  0  0  0  0
 29 27  1  0  0  0  0
 29 26  1  0  0  0  0
 30 28  1  0  0  0  0
 30 24  1  0  0  0  0
 31 33  1  0  0  0  0
 31 32  1  0  0  0  0
 33 32  1  0  0  0  0
 33 34  1  0  0  0  0
 35 34  1  0  0  0  0
 37 36  1  0  0  0  0
 37 32  1  0  0  0  0
M  END
>  <MODEL>
2

>  <REMARK>
 VINA RESULT:      -7.4      3.565      6.657
  Name = 
  4 active torsions:
  status: ('A' for Active; 'I' for Inactive)
    1  A    between atoms: C_1  and  C_27
    2  A    between atoms: C_4  and  C_37
    3  A    between atoms: C_8  and  C_12
    4  A    between atoms: C_23  and  C_30
                            x       y       z     vdW  Elec       q    Type
                         _______ _______ _______ _____ _____    ______ ____

>  <TORSDO>
F 4

$$$$
=
 OpenBabel11122411483D

 37 43  0  0  1  0  0  0  0  0999 V2000
  190.6810  176.3390  138.3530 C   0  0  1  0  0  0  0  0  0  0  0  0
  187.3960  177.8590  137.3010 C   0  0  1  0  0  3  0  0  0  0  0  0
  185.3050  179.3340  139.3100 O   0  0  0  0  0  0  0  0  0  0  0  0
  189.8870  177.5750  136.5700 C   0  0  2  0  0  3  0  0  0  0  0  0
  186.8790  177.5910  138.7190 C   0  0  2  0  0  3  0  0  0  0  0  0
  188.8720  178.2590  137.4950 C   0  0  2  0  0  3  0  0  0  0  0  0
  185.4060  177.9840  138.9410 C   0  0  2  0  0  3  0  0  0  0  0  0
  189.3080  177.5030  135.1670 C   0  0  0  0  0  2  0  0  0  0  0  0
  189.2200  178.0420  138.9630 C   0  0  2  0  0  3  0  0  0  0  0  0
  191.7740  177.2090  138.5030 O   0  0  0  0  0  1  0  0  0  0  0  0
  185.7430  176.4340  135.9890 C   0  0  0  0  0  2  0  0  0  0  0  0
  188.0300  176.6580  135.1100 C   0  0  0  0  0  2  0  0  0  0  0  0
  189.6110  176.7040  139.2010 O   0  0  0  0  0  0  0  0  0  0  0  0
  185.3720  178.6340  141.6760 C   0  0  0  0  0  2  0  0  0  0  0  0
  184.6390  179.3780  140.5520 C   0  0  0  0  0  2  0  0  0  0  0  0
  187.2010  176.6190  136.4040 C   0  0  1  0  0  3  0  0  0  0  0  0
  187.8790  178.3010  139.6340 C   0  0  2  0  0  3  0  0  0  0  0  0
  190.2450  176.2840  137.0110 O   0  0  0  0  0  0  0  0  0  0  0  0
  184.4740  177.6430  137.7560 C   0  0  1  0  0  3  0  0  0  0  0  0
  191.0970  175.0720  138.7180 F   0  0  0  0  0  0  0  0  0  0  0  0
  186.8310  179.0410  141.7640 C   0  0  0  0  0  2  0  0  0  0  0  0
  187.7370  177.9820  141.1380 C   0  0  2  0  0  3  0  0  0  0  0  0
  184.7910  176.2740  137.1650 C   0  0  0  0  0  2  0  0  0  0  0  0
  182.5910  176.6480  139.1160 C   0  0  0  0  0  2  0  0  0  0  0  0
  182.9820  177.7090  138.1000 C   0  0  2  0  0  3  0  0  0  0  0  0
  182.0800  177.6520  136.8620 C   0  0  0  0  0  2  0  0  0  0  0  0
  179.6740  177.4380  136.1500 N   0  0  0  0  0  1  0  0  0  0  0  0
  180.2650  176.9870  138.3790 N   0  0  0  0  0  0  0  0  0  0  0  0
  180.6350  177.3870  137.1960 C   0  0  0  0  0  0  0  0  0  0  0  0
  181.1540  176.9100  139.5390 C   0  0  0  0  0  2  0  0  0  0  0  0
  189.0770  178.0310  141.8900 C   0  0  1  0  0  3  0  0  0  0  0  0
  189.0710  177.4000  143.2950 C   0  0  2  0  0  3  0  0  0  0  0  0
  189.6240  176.6330  142.1150 C   0  0  2  0  0  3  0  0  0  0  0  0
  191.1370  176.6910  142.1480 C   0  0  0  0  0  2  0  0  0  0  0  0
  191.5660  177.8710  141.5700 F   0  0  0  0  0  0  0  0  0  0  0  0
  187.2990  177.3620  144.8870 O   0  0  0  0  0  1  0  0  0  0  0  0
  187.7600  176.7530  143.7220 C   0  0  0  0  0  2  0  0  0  0  0  0
  1 10  1  1  0  0  0
  1 20  1  0  0  0  0
  1 13  1  0  0  0  0
  2  6  1  0  0  0  0
  2  5  1  0  0  0  0
  3 15  1  0  0  0  0
  4 18  1  0  0  0  0
  4  6  1  0  0  0  0
  5  7  1  0  0  0  0
  5 17  1  0  0  0  0
  6  9  1  0  0  0  0
  7  3  1  0  0  0  0
  8  4  1  0  0  0  0
  9 13  1  0  0  0  0
  9 17  1  0  0  0  0
 11 16  1  0  0  0  0
 11 23  1  0  0  0  0
 12  8  1  0  0  0  0
 12 16  1  0  0  0  0
 14 21  1  0  0  0  0
 15 14  1  0  0  0  0
 16  2  1  0  0  0  0
 17 22  1  0  0  0  0
 18  1  1  0  0  0  0
 19 25  1  0  0  0  0
 19  7  1  0  0  0  0
 22 21  1  0  0  0  0
 22 31  1  0  0  0  0
 23 19  1  0  0  0  0
 24 30  1  0  0  0  0
 25 24  1  0  0  0  0
 26 29  1  0  0  0  0
 26 25  1  0  0  0  0
 27 29  1  0  0  0  0
 28 30  1  0  0  0  0
 29 28  2  0  0  0  0
 31 33  1  0  0  0  0
 31 32  1  0  0  0  0
 32 37  1  0  0  0  0
 33 34  1  0  0  0  0
 33 32  1  0  0  0  0
 35 34  1  0  0  0  0
 37 36  1  0  0  0  0
M  END
>  <MODEL>
3

>  <REMARK>
 VINA RESULT:      -7.2      4.414      8.420
  Name = 
  4 active torsions:
  status: ('A' for Active; 'I' for Inactive)
    1  A    between atoms: C_1  and  C_27
    2  A    between atoms: C_4  and  C_37
    3  A    between atoms: C_8  and  C_12
    4  A    between atoms: C_23  and  C_30
                            x       y       z     vdW  Elec       q    Type
                         _______ _______ _______ _____ _____    ______ ____

>  <TORSDO>
F 4

$$$$
=
 OpenBabel11122411483D

 37 43  0  0  1  0  0  0  0  0999 V2000
  182.4130  177.1090  139.2460 C   0  0  1  0  0  0  0  0  0  0  0  0
  185.2770  178.8010  141.0200 C   0  0  1  0  0  3  0  0  0  0  0  0
  188.2460  179.2300  139.7620 O   0  0  0  0  0  0  0  0  0  0  0  0
  182.7000  178.9410  140.6250 C   0  0  2  0  0  3  0  0  0  0  0  0
  186.2320  177.9510  140.1760 C   0  0  2  0  0  3  0  0  0  0  0  0
  184.1140  179.1410  140.0670 C   0  0  2  0  0  3  0  0  0  0  0  0
  187.7230  178.1590  140.5020 C   0  0  2  0  0  3  0  0  0  0  0  0
  182.6590  179.4340  142.0610 C   0  0  0  0  0  2  0  0  0  0  0  0
  184.3240  178.3500  138.7810 C   0  0  2  0  0  3  0  0  0  0  0  0
  181.6770  177.8810  138.3310 O   0  0  0  0  0  1  0  0  0  0  0  0
  185.9450  177.9840  143.3380 C   0  0  0  0  0  2  0  0  0  0  0  0
  183.6030  178.6410  142.9730 C   0  0  0  0  0  2  0  0  0  0  0  0
  183.7790  177.0480  138.8890 O   0  0  0  0  0  0  0  0  0  0  0  0
  188.9530  177.6160  138.0330 C   0  0  0  0  0  2  0  0  0  0  0  0
  189.3340  178.7300  139.0170 C   0  0  0  0  0  2  0  0  0  0  0  0
  184.8390  178.0370  142.2870 C   0  0  1  0  0  3  0  0  0  0  0  0
  185.8420  178.2560  138.7280 C   0  0  2  0  0  3  0  0  0  0  0  0
  182.2720  177.5980  140.5640 O   0  0  0  0  0  0  0  0  0  0  0  0
  188.0260  178.3030  142.0110 C   0  0  1  0  0  3  0  0  0  0  0  0
  181.9100  175.8230  139.2140 F   0  0  0  0  0  0  0  0  0  0  0  0
  187.7660  178.0060  137.1710 C   0  0  0  0  0  2  0  0  0  0  0  0
  186.4840  177.3370  137.6650 C   0  0  2  0  0  3  0  0  0  0  0  0
  187.2200  177.3160  142.8460 C   0  0  0  0  0  2  0  0  0  0  0  0
  190.1610  177.0130  141.6110 C   0  0  0  0  0  2  0  0  0  0  0  0
  189.5120  178.1640  142.3620 C   0  0  2  0  0  3  0  0  0  0  0  0
  189.7620  178.0550  143.8710 C   0  0  0  0  0  2  0  0  0  0  0  0
  191.5580  177.5740  145.5690 N   0  0  0  0  0  1  0  0  0  0  0  0
  191.9500  177.0910  143.3030 N   0  0  0  0  0  0  0  0  0  0  0  0
  191.1570  177.5930  144.2050 C   0  0  0  0  0  0  0  0  0  0  0  0
  191.6590  177.0700  141.8680 C   0  0  0  0  0  2  0  0  0  0  0  0
  185.5840  177.1220  136.4370 C   0  0  1  0  0  3  0  0  0  0  0  0
  185.9730  175.9380  135.5320 C   0  0  2  0  0  3  0  0  0  0  0  0
  184.8470  175.7990  136.5310 C   0  0  2  0  0  3  0  0  0  0  0  0
  183.5210  175.9170  135.8080 C   0  0  0  0  0  2  0  0  0  0  0  0
  183.1760  177.2500  135.6920 F   0  0  0  0  0  0  0  0  0  0  0  0
  188.1820  175.1720  135.0740 O   0  0  0  0  0  1  0  0  0  0  0  0
  187.1510  175.1010  136.0090 C   0  0  0  0  0  2  0  0  0  0  0  0
  1 10  1  6  0  0  0
  1 18  1  0  0  0  0
  2 16  1  0  0  0  0
  3  7  1  0  0  0  0
  4  8  1  0  0  0  0
  5  7  1  0  0  0  0
  5  2  1  0  0  0  0
  6  4  1  0  0  0  0
  6  2  1  0  0  0  0
  7 19  1  0  0  0  0
  8 12  1  0  0  0  0
  9 13  1  0  0  0  0
  9  6  1  0  0  0  0
 13  1  1  0  0  0  0
 14 15  1  0  0  0  0
 15  3  1  0  0  0  0
 16 12  1  0  0  0  0
 16 11  1  0  0  0  0
 17  9  1  0  0  0  0
 17  5  1  0  0  0  0
 18  4  1  0  0  0  0
 19 25  1  0  0  0  0
 19 23  1  0  0  0  0
 20  1  1  0  0  0  0
 21 22  1  0  0  0  0
 21 14  1  0  0  0  0
 22 17  1  0  0  0  0
 23 11  1  0  0  0  0
 24 30  1  0  0  0  0
 24 25  1  0  0  0  0
 25 26  1  0  0  0  0
 26 29  1  0  0  0  0
 28 29  2  0  0  0  0
 29 27  1  0  0  0  0
 30 28  1  0  0  0  0
 31 33  1  0  0  0  0
 31 22  1  0  0  0  0
 32 37  1  0  0  0  0
 32 31  1  0  0  0  0
 32 33  1  0  0  0  0
 34 33  1  0  0  0  0
 35 34  1  0  0  0  0
 36 37  1  0  0  0  0
M  END
>  <MODEL>
4

>  <REMARK>
 VINA RESULT:      -7.1      1.548      1.914
  Name = 
  4 active torsions:
  status: ('A' for Active; 'I' for Inactive)
    1  A    between atoms: C_1  and  C_27
    2  A    between atoms: C_4  and  C_37
    3  A    between atoms: C_8  and  C_12
    4  A    between atoms: C_23  and  C_30
                            x       y       z     vdW  Elec       q    Type
                         _______ _______ _______ _____ _____    ______ ____

>  <TORSDO>
F 4

$$$$
=
 OpenBabel11122411483D

 37 43  0  0  1  0  0  0  0  0999 V2000
  181.5940  177.7470  137.4210 C   0  0  1  0  0  0  0  0  0  0  0  0
  183.2210  179.4340  140.3730 C   0  0  1  0  0  3  0  0  0  0  0  0
  186.4310  179.5890  140.8860 O   0  0  0  0  0  0  0  0  0  0  0  0
  181.2740  179.6770  138.6520 C   0  0  2  0  0  3  0  0  0  0  0  0
  184.3950  178.4620  140.2140 C   0  0  2  0  0  3  0  0  0  0  0  0
  182.7800  179.7500  138.9310 C   0  0  2  0  0  3  0  0  0  0  0  0
  185.4970  178.6180  141.2790 C   0  0  2  0  0  3  0  0  0  0  0  0
  180.5230  180.2970  139.8170 C   0  0  0  0  0  2  0  0  0  0  0  0
  183.5660  178.8370  137.9970 C   0  0  2  0  0  3  0  0  0  0  0  0
  181.5320  178.4720  136.2190 O   0  0  0  0  0  1  0  0  0  0  0  0
  182.4780  178.7920  142.7230 C   0  0  0  0  0  2  0  0  0  0  0  0
  180.7590  179.5390  141.1290 C   0  0  0  0  0  2  0  0  0  0  0  0
  182.9280  177.5820  137.8560 O   0  0  0  0  0  0  0  0  0  0  0  0
  187.7940  177.7920  139.8830 C   0  0  0  0  0  2  0  0  0  0  0  0
  187.6960  178.9670  140.8650 C   0  0  0  0  0  2  0  0  0  0  0  0
  182.1090  178.8100  141.2410 C   0  0  1  0  0  3  0  0  0  0  0  0
  184.8640  178.6570  138.7700 C   0  0  2  0  0  3  0  0  0  0  0  0
  180.8210  178.3590  138.4330 O   0  0  0  0  0  0  0  0  0  0  0  0
  184.9650  178.8790  142.7070 C   0  0  1  0  0  3  0  0  0  0  0  0
  181.0680  176.4920  137.1840 F   0  0  0  0  0  0  0  0  0  0  0  0
  187.2880  178.1670  138.5020 C   0  0  0  0  0  2  0  0  0  0  0  0
  185.8830  177.6140  138.2620 C   0  0  2  0  0  3  0  0  0  0  0  0
  183.7510  178.0150  143.0240 C   0  0  0  0  0  2  0  0  0  0  0  0
  186.7420  177.3630  143.6700 C   0  0  0  0  0  2  0  0  0  0  0  0
  186.0170  178.6930  143.8050 C   0  0  2  0  0  3  0  0  0  0  0  0
  185.4450  178.8720  145.2170 C   0  0  0  0  0  2  0  0  0  0  0  0
  186.0170  178.6000  147.6540 N   0  0  0  0  0  1  0  0  0  0  0  0
  187.4090  177.6360  146.0250 N   0  0  0  0  0  0  0  0  0  0  0  0
  186.3710  178.3740  146.2960 C   0  0  0  0  0  0  0  0  0  0  0  0
  187.8860  177.3480  144.6720 C   0  0  0  0  0  2  0  0  0  0  0  0
  185.7580  177.3390  136.7550 C   0  0  1  0  0  3  0  0  0  0  0  0
  186.4930  176.0850  136.2480 C   0  0  2  0  0  3  0  0  0  0  0  0
  185.0030  176.0470  136.5010 C   0  0  2  0  0  3  0  0  0  0  0  0
  184.2700  176.1520  135.1790 C   0  0  0  0  0  2  0  0  0  0  0  0
  184.1410  177.4820  134.8270 F   0  0  0  0  0  0  0  0  0  0  0  0
  188.5410  175.1330  137.0070 O   0  0  0  0  0  1  0  0  0  0  0  0
  187.1870  175.2490  137.3150 C   0  0  0  0  0  2  0  0  0  0  0  0
  1 10  1  6  0  0  0
  1 13  1  0  0  0  0
  1 18  1  0  0  0  0
  2 16  1  0  0  0  0
  3  7  1  0  0  0  0
  4  6  1  0  0  0  0
  4  8  1  0  0  0  0
  5  2  1  0  0  0  0
  5  7  1  0  0  0  0
  6  2  1  0  0  0  0
  7 19  1  0  0  0  0
  8 12  1  0  0  0  0
  9 17  1  0  0  0  0
  9  6  1  0  0  0  0
 11 23  1  0  0  0  0
 12 16  1  0  0  0  0
 13  9  1  0  0  0  0
 14 15  1  0  0  0  0
 15  3  1  0  0  0  0
 16 11  1  0  0  0  0
 17  5  1  0  0  0  0
 18  4  1  0  0  0  0
 19 23  1  0  0  0  0
 19 25  1  0  0  0  0
 20  1  1  0  0  0  0
 21 14  1  0  0  0  0
 22 21  1  0  0  0  0
 22 17  1  0  0  0  0
 24 25  1  0  0  0  0
 24 30  1  0  0  0  0
 25 26  1  0  0  0  0
 26 29  1  0  0  0  0
 28 29  2  0  0  0  0
 29 27  1  0  0  0  0
 30 28  1  0  0  0  0
 31 22  1  0  0  0  0
 32 33  1  0  0  0  0
 32 31  1  0  0  0  0
 32 37  1  0  0  0  0
 33 31  1  0  0  0  0
 34 33  1  0  0  0  0
 35 34  1  0  0  0  0
 36 37  1  0  0  0  0
M  END
>  <MODEL>
5

>  <REMARK>
 VINA RESULT:      -6.7      2.312      3.555
  Name = 
  4 active torsions:
  status: ('A' for Active; 'I' for Inactive)
    1  A    between atoms: C_1  and  C_27
    2  A    between atoms: C_4  and  C_37
    3  A    between atoms: C_8  and  C_12
    4  A    between atoms: C_23  and  C_30
                            x       y       z     vdW  Elec       q    Type
                         _______ _______ _______ _____ _____    ______ ____

>  <TORSDO>
F 4

$$$$
=
 OpenBabel11122411483D

 37 43  0  0  1  0  0  0  0  0999 V2000
  184.8320  176.8300  137.3560 C   0  0  1  0  0  0  0  0  0  0  0  0
  186.8800  178.4560  140.0720 C   0  0  1  0  0  3  0  0  0  0  0  0
  190.1180  178.2670  140.3210 O   0  0  0  0  0  0  0  0  0  0  0  0
  184.8320  178.8400  138.4980 C   0  0  2  0  0  3  0  0  0  0  0  0
  187.9210  177.3500  139.8760 C   0  0  2  0  0  3  0  0  0  0  0  0
  186.3550  178.7530  138.6540 C   0  0  2  0  0  3  0  0  0  0  0  0
  189.1200  177.4280  140.8410 C   0  0  2  0  0  3  0  0  0  0  0  0
  184.2550  179.5970  139.6820 C   0  0  0  0  0  2  0  0  0  0  0  0
  186.9550  177.7130  137.7130 C   0  0  2  0  0  3  0  0  0  0  0  0
  184.7500  177.5010  136.1250 O   0  0  0  0  0  1  0  0  0  0  0  0
  186.2710  178.0160  142.5060 C   0  0  0  0  0  2  0  0  0  0  0  0
  184.5160  178.8780  141.0120 C   0  0  0  0  0  2  0  0  0  0  0  0
  186.1720  176.5340  137.6940 O   0  0  0  0  0  0  0  0  0  0  0  0
  191.1850  176.2800  139.3170 C   0  0  0  0  0  2  0  0  0  0  0  0
  191.3010  177.5030  140.2360 C   0  0  0  0  0  2  0  0  0  0  0  0
  185.7820  178.0060  141.0590 C   0  0  1  0  0  3  0  0  0  0  0  0
  188.2850  177.4220  138.3910 C   0  0  2  0  0  3  0  0  0  0  0  0
  184.2200  177.5740  138.3910 O   0  0  0  0  0  0  0  0  0  0  0  0
  188.7420  177.8160  142.2890 C   0  0  1  0  0  3  0  0  0  0  0  0
  184.1530  175.6340  137.2330 F   0  0  0  0  0  0  0  0  0  0  0  0
  190.6080  176.6460  137.9620 C   0  0  0  0  0  2  0  0  0  0  0  0
  189.1360  176.2460  137.8640 C   0  0  2  0  0  3  0  0  0  0  0  0
  187.4710  177.1130  142.7480 C   0  0  0  0  0  2  0  0  0  0  0  0
  190.4690  176.1810  143.1410 C   0  0  0  0  0  2  0  0  0  0  0  0
  189.8560  177.5620  143.3100 C   0  0  2  0  0  3  0  0  0  0  0  0
  189.4040  177.7950  144.7570 C   0  0  0  0  0  2  0  0  0  0  0  0
  190.1330  177.5030  147.1500 N   0  0  0  0  0  1  0  0  0  0  0  0
  191.3280  176.4250  145.4370 N   0  0  0  0  0  0  0  0  0  0  0  0
  190.3690  177.2400  145.7730 C   0  0  0  0  0  0  0  0  0  0  0  0
  191.6810  176.0900  144.0560 C   0  0  0  0  0  2  0  0  0  0  0  0
  188.8540  175.9170  136.3890 C   0  0  1  0  0  3  0  0  0  0  0  0
  189.4360  174.5830  135.8860 C   0  0  2  0  0  3  0  0  0  0  0  0
  187.9770  174.6850  136.2670 C   0  0  2  0  0  3  0  0  0  0  0  0
  187.1400  174.7940  135.0090 C   0  0  0  0  0  2  0  0  0  0  0  0
  187.0560  176.1190  134.6250 F   0  0  0  0  0  0  0  0  0  0  0  0
  191.4120  173.3810  136.4570 O   0  0  0  0  0  1  0  0  0  0  0  0
  190.1520  173.7390  136.9320 C   0  0  0  0  0  2  0  0  0  0  0  0
  1 10  1  6  0  0  0
  1 13  1  0  0  0  0
  1 18  1  0  0  0  0
  2 16  1  0  0  0  0
  3  7  1  0  0  0  0
  4  6  1  0  0  0  0
  4  8  1  0  0  0  0
  5  2  1  0  0  0  0
  5  7  1  0  0  0  0
  6  2  1  0  0  0  0
  7 19  1  0  0  0  0
  8 12  1  0  0  0  0
  9 17  1  0  0  0  0
  9  6  1  0  0  0  0
 11 23  1  0  0  0  0
 12 16  1  0  0  0  0
 13  9  1  0  0  0  0
 14 15  1  0  0  0  0
 15  3  1  0  0  0  0
 16 11  1  0  0  0  0
 17  5  1  0  0  0  0
 18  4  1  0  0  0  0
 19 23  1  0  0  0  0
 19 25  1  0  0  0  0
 20  1  1  0  0  0  0
 21 14  1  0  0  0  0
 22 21  1  0  0  0  0
 22 17  1  0  0  0  0
 24 25  1  0  0  0  0
 24 30  1  0  0  0  0
 25 26  1  0  0  0  0
 26 29  1  0  0  0  0
 28 29  2  0  0  0  0
 29 27  1  0  0  0  0
 30 28  1  0  0  0  0
 31 22  1  0  0  0  0
 32 33  1  0  0  0  0
 32 31  1  0  0  0  0
 32 37  1  0  0  0  0
 33 31  1  0  0  0  0
 34 33  1  0  0  0  0
 35 34  1  0  0  0  0
 36 37  1  0  0  0  0
M  END
>  <MODEL>
6

>  <REMARK>
 VINA RESULT:      -6.6      2.074      3.276
  Name = 
  4 active torsions:
  status: ('A' for Active; 'I' for Inactive)
    1  A    between atoms: C_1  and  C_27
    2  A    between atoms: C_4  and  C_37
    3  A    between atoms: C_8  and  C_12
    4  A    between atoms: C_23  and  C_30
                            x       y       z     vdW  Elec       q    Type
                         _______ _______ _______ _____ _____    ______ ____

>  <TORSDO>
F 4

$$$$
=
 OpenBabel11122411483D

 37 43  0  0  1  0  0  0  0  0999 V2000
  189.9380  176.7130  141.4420 C   0  0  1  0  0  0  0  0  0  0  0  0
  187.5120  178.0310  138.8770 C   0  0  1  0  0  3  0  0  0  0  0  0
  184.7190  179.5500  139.5700 O   0  0  0  0  0  0  0  0  0  0  0  0
  190.0580  177.7990  139.4060 C   0  0  2  0  0  3  0  0  0  0  0  0
  186.3970  177.8360  139.9090 C   0  0  2  0  0  3  0  0  0  0  0  0
  188.7260  178.5010  139.7010 C   0  0  2  0  0  3  0  0  0  0  0  0
  184.9870  178.1830  139.3930 C   0  0  2  0  0  3  0  0  0  0  0  0
  190.1980  177.6140  137.9050 C   0  0  0  0  0  2  0  0  0  0  0  0
  188.3530  178.3940  141.1750 C   0  0  2  0  0  3  0  0  0  0  0  0
  190.8320  177.6330  142.0150 O   0  0  0  0  0  1  0  0  0  0  0  0
  186.6650  176.4600  137.0590 C   0  0  0  0  0  2  0  0  0  0  0  0
  189.0970  176.7180  137.3250 C   0  0  0  0  0  2  0  0  0  0  0  0
  188.5950  177.0890  141.6680 O   0  0  0  0  0  0  0  0  0  0  0  0
  183.6820  179.0070  141.7430 C   0  0  0  0  0  2  0  0  0  0  0  0
  183.5510  179.6470  140.3550 C   0  0  0  0  0  2  0  0  0  0  0  0
  187.7620  176.7290  138.0880 C   0  0  1  0  0  3  0  0  0  0  0  0
  186.8530  178.6420  141.1270 C   0  0  2  0  0  3  0  0  0  0  0  0
  190.1770  176.5540  140.0580 O   0  0  0  0  0  0  0  0  0  0  0  0
  184.7140  177.7300  137.9410 C   0  0  1  0  0  3  0  0  0  0  0  0
  190.1430  175.4900  142.0520 F   0  0  0  0  0  0  0  0  0  0  0  0
  184.9310  179.4760  142.4660 C   0  0  0  0  0  2  0  0  0  0  0  0
  186.0290  178.4150  142.4130 C   0  0  2  0  0  3  0  0  0  0  0  0
  185.2760  176.3400  137.6690 C   0  0  0  0  0  2  0  0  0  0  0  0
  182.3580  177.1060  138.6060 C   0  0  0  0  0  2  0  0  0  0  0  0
  183.2330  177.7600  137.5480 C   0  0  2  0  0  3  0  0  0  0  0  0
  182.9700  177.1620  136.1610 C   0  0  0  0  0  2  0  0  0  0  0  0
  181.1180  176.4510  134.6100 N   0  0  0  0  0  1  0  0  0  0  0  0
  180.6290  176.9060  136.8620 N   0  0  0  0  0  0  0  0  0  0  0  0
  181.5110  176.8850  135.9050 C   0  0  0  0  0  0  0  0  0  0  0  0
  180.9050  177.3510  138.2300 C   0  0  0  0  0  2  0  0  0  0  0  0
  186.8650  178.5650  143.6940 C   0  0  1  0  0  3  0  0  0  0  0  0
  186.1130  178.2950  145.0110 C   0  0  2  0  0  3  0  0  0  0  0  0
  187.0060  177.2340  144.4090 C   0  0  2  0  0  3  0  0  0  0  0  0
  188.3230  177.2080  145.1560 C   0  0  0  0  0  2  0  0  0  0  0  0
  189.1860  178.1340  144.6020 F   0  0  0  0  0  0  0  0  0  0  0  0
  183.8490  178.6520  145.6610 O   0  0  0  0  0  1  0  0  0  0  0  0
  184.6640  177.8510  144.8640 C   0  0  0  0  0  2  0  0  0  0  0  0
  1 13  1  0  0  0  0
  1 10  1  1  0  0  0
  1 20  1  0  0  0  0
  2  6  1  0  0  0  0
  2  5  1  0  0  0  0
  3 15  1  0  0  0  0
  4  6  1  0  0  0  0
  4 18  1  0  0  0  0
  5 17  1  0  0  0  0
  6  9  1  0  0  0  0
  7  3  1  0  0  0  0
  7  5  1  0  0  0  0
  8  4  1  0  0  0  0
  9 13  1  0  0  0  0
 11 23  1  0  0  0  0
 11 16  1  0  0  0  0
 12  8  1  0  0  0  0
 12 16  1  0  0  0  0
 14 21  1  0  0  0  0
 15 14  1  0  0  0  0
 16  2  1  0  0  0  0
 17  9  1  0  0  0  0
 17 22  1  0  0  0  0
 18  1  1  0  0  0  0
 19  7  1  0  0  0  0
 22 21  1  0  0  0  0
 22 31  1  0  0  0  0
 23 19  1  0  0  0  0
 25 19  1  0  0  0  0
 25 24  1  0  0  0  0
 26 25  1  0  0  0  0
 27 29  1  0  0  0  0
 28 30  1  0  0  0  0
 29 26  1  0  0  0  0
 29 28  2  0  0  0  0
 30 24  1  0  0  0  0
 31 33  1  0  0  0  0
 31 32  1  0  0  0  0
 33 32  1  0  0  0  0
 33 34  1  0  0  0  0
 35 34  1  0  0  0  0
 37 32  1  0  0  0  0
 37 36  1  0  0  0  0
M  END
>  <MODEL>
7

>  <REMARK>
 VINA RESULT:      -6.6      4.309      8.303
  Name = 
  4 active torsions:
  status: ('A' for Active; 'I' for Inactive)
    1  A    between atoms: C_1  and  C_27
    2  A    between atoms: C_4  and  C_37
    3  A    between atoms: C_8  and  C_12
    4  A    between atoms: C_23  and  C_30
                            x       y       z     vdW  Elec       q    Type
                         _______ _______ _______ _____ _____    ______ ____

>  <TORSDO>
F 4

$$$$
=
 OpenBabel11122411483D

 37 43  0  0  1  0  0  0  0  0999 V2000
  179.9480  176.7640  140.6780 C   0  0  1  0  0  0  0  0  0  0  0  0
  183.0430  178.8660  141.1450 C   0  0  1  0  0  3  0  0  0  0  0  0
  185.5120  179.0290  139.0330 O   0  0  0  0  0  0  0  0  0  0  0  0
  180.4530  178.8730  141.4770 C   0  0  2  0  0  3  0  0  0  0  0  0
  183.7960  177.8540  140.2750 C   0  0  2  0  0  3  0  0  0  0  0  0
  181.6410  178.9560  140.5110 C   0  0  2  0  0  3  0  0  0  0  0  0
  185.2990  178.1540  140.1100 C   0  0  2  0  0  3  0  0  0  0  0  0
  180.7670  179.6890  142.7200 C   0  0  0  0  0  2  0  0  0  0  0  0
  181.5550  177.8880  139.4270 C   0  0  2  0  0  3  0  0  0  0  0  0
  178.9320  177.2890  139.8620 O   0  0  0  0  0  1  0  0  0  0  0  0
  184.3820  178.6260  143.2990 C   0  0  0  0  0  2  0  0  0  0  0  0
  181.9840  179.1460  143.4790 C   0  0  0  0  0  2  0  0  0  0  0  0
  181.1650  176.6410  139.9710 O   0  0  0  0  0  0  0  0  0  0  0  0
  185.8470  177.0640  137.5770 C   0  0  0  0  0  2  0  0  0  0  0  0
  186.3920  178.3830  138.1400 C   0  0  0  0  0  2  0  0  0  0  0  0
  183.0300  178.4150  142.6200 C   0  0  1  0  0  3  0  0  0  0  0  0
  183.0030  177.8050  138.9670 C   0  0  2  0  0  3  0  0  0  0  0  0
  180.1340  177.5480  141.8390 O   0  0  0  0  0  0  0  0  0  0  0  0
  185.9890  178.6530  141.3990 C   0  0  1  0  0  3  0  0  0  0  0  0
  179.5600  175.5000  141.0760 F   0  0  0  0  0  0  0  0  0  0  0  0
  184.4430  177.2240  137.0240 C   0  0  0  0  0  2  0  0  0  0  0  0
  183.4020  176.6720  137.9970 C   0  0  2  0  0  3  0  0  0  0  0  0
  185.5230  177.8790  142.6260 C   0  0  0  0  0  2  0  0  0  0  0  0
  188.0200  177.5700  140.3580 C   0  0  0  0  0  2  0  0  0  0  0  0
  187.5200  178.6210  141.3350 C   0  0  2  0  0  3  0  0  0  0  0  0
  188.1730  178.4540  142.7130 C   0  0  0  0  0  2  0  0  0  0  0  0
  190.3860  178.0370  143.8390 N   0  0  0  0  0  1  0  0  0  0  0  0
  190.1880  177.7090  141.5210 N   0  0  0  0  0  0  0  0  0  0  0  0
  189.6330  178.0940  142.6340 C   0  0  0  0  0  0  0  0  0  0  0  0
  189.5250  177.7390  140.2150 C   0  0  0  0  0  2  0  0  0  0  0  0
  182.2220  176.1610  137.1540 C   0  0  1  0  0  3  0  0  0  0  0  0
  182.4430  174.8060  136.4580 C   0  0  2  0  0  3  0  0  0  0  0  0
  181.6480  174.8850  137.7420 C   0  0  2  0  0  3  0  0  0  0  0  0
  180.1700  174.8090  137.4190 C   0  0  0  0  0  2  0  0  0  0  0  0
  179.4950  174.2340  138.4790 F   0  0  0  0  0  0  0  0  0  0  0  0
  183.5370  172.8220  137.1940 O   0  0  0  0  0  1  0  0  0  0  0  0
  183.7710  174.1220  136.7510 C   0  0  0  0  0  2  0  0  0  0  0  0
  1 10  1  6  0  0  0
  1 20  1  0  0  0  0
  1 18  1  0  0  0  0
  2 16  1  0  0  0  0
  3  7  1  0  0  0  0
  4 18  1  0  0  0  0
  4  8  1  0  0  0  0
  5  2  1  0  0  0  0
  6  2  1  0  0  0  0
  6  4  1  0  0  0  0
  7  5  1  0  0  0  0
  7 19  1  0  0  0  0
  8 12  1  0  0  0  0
  9 13  1  0  0  0  0
  9  6  1  0  0  0  0
 13  1  1  0  0  0  0
 14 15  1  0  0  0  0
 15  3  1  0  0  0  0
 16 11  1  0  0  0  0
 16 12  1  0  0  0  0
 17  9  1  0  0  0  0
 17  5  1  0  0  0  0
 19 23  1  0  0  0  0
 21 14  1  0  0  0  0
 21 22  1  0  0  0  0
 22 17  1  0  0  0  0
 23 11  1  0  0  0  0
 24 25  1  0  0  0  0
 25 19  1  0  0  0  0
 25 26  1  0  0  0  0
 28 29  2  0  0  0  0
 29 26  1  0  0  0  0
 29 27  1  0  0  0  0
 30 24  1  0  0  0  0
 30 28  1  0  0  0  0
 31 33  1  0  0  0  0
 31 22  1  0  0  0  0
 32 37  1  0  0  0  0
 32 31  1  0  0  0  0
 32 33  1  0  0  0  0
 34 33  1  0  0  0  0
 34 35  1  0  0  0  0
 37 36  1  0  0  0  0
M  END
>  <MODEL>
8

>  <REMARK>
 VINA RESULT:      -6.3      2.349      3.732
  Name = 
  4 active torsions:
  status: ('A' for Active; 'I' for Inactive)
    1  A    between atoms: C_1  and  C_27
    2  A    between atoms: C_4  and  C_37
    3  A    between atoms: C_8  and  C_12
    4  A    between atoms: C_23  and  C_30
                            x       y       z     vdW  Elec       q    Type
                         _______ _______ _______ _____ _____    ______ ____

>  <TORSDO>
F 4

$$$$
=
 OpenBabel11122411483D

 37 43  0  0  1  0  0  0  0  0999 V2000
  183.1740  177.3240  140.2220 C   0  0  1  0  0  0  0  0  0  0  0  0
  186.7090  178.6350  140.2590 C   0  0  1  0  0  3  0  0  0  0  0  0
  188.5680  179.0380  137.6200 O   0  0  0  0  0  0  0  0  0  0  0  0
  184.3560  178.9660  141.3410 C   0  0  2  0  0  3  0  0  0  0  0  0
  186.9620  177.8350  138.9770 C   0  0  2  0  0  3  0  0  0  0  0  0
  185.2630  179.1480  140.1180 C   0  0  2  0  0  3  0  0  0  0  0  0
  188.4090  177.9190  138.4520 C   0  0  2  0  0  3  0  0  0  0  0  0
  185.1460  179.2900  142.5970 C   0  0  0  0  0  2  0  0  0  0  0  0
  184.6620  178.5010  138.8750 C   0  0  2  0  0  3  0  0  0  0  0  0
  182.1540  178.2370  139.9080 O   0  0  0  0  0  1  0  0  0  0  0  0
  188.4210  177.5190  141.7800 C   0  0  0  0  0  2  0  0  0  0  0  0
  186.3370  178.3450  142.7940 C   0  0  0  0  0  2  0  0  0  0  0  0
  184.1200  177.2280  139.1760 O   0  0  0  0  0  0  0  0  0  0  0  0
  188.0550  177.5980  135.6820 C   0  0  0  0  0  2  0  0  0  0  0  0
  189.0240  178.5660  136.3710 C   0  0  0  0  0  2  0  0  0  0  0  0
  186.9370  177.7550  141.5060 C   0  0  1  0  0  3  0  0  0  0  0  0
  185.8940  178.3270  137.9980 C   0  0  2  0  0  3  0  0  0  0  0  0
  183.8170  177.6650  141.4330 O   0  0  0  0  0  0  0  0  0  0  0  0
  189.4870  177.8710  139.5590 C   0  0  1  0  0  3  0  0  0  0  0  0
  182.5950  176.0810  140.3830 F   0  0  0  0  0  0  0  0  0  0  0  0
  186.6420  178.1510  135.6330 C   0  0  0  0  0  2  0  0  0  0  0  0
  185.7600  177.5030  136.6990 C   0  0  2  0  0  3  0  0  0  0  0  0
  189.1510  176.8410  140.6300 C   0  0  0  0  0  2  0  0  0  0  0  0
  190.9720  176.3260  138.2200 C   0  0  0  0  0  2  0  0  0  0  0  0
  190.9030  177.6080  139.0340 C   0  0  2  0  0  3  0  0  0  0  0  0
  191.9630  177.6200  140.1430 C   0  0  0  0  0  2  0  0  0  0  0  0
  194.3880  177.1170  140.5940 N   0  0  0  0  0  1  0  0  0  0  0  0
  193.4070  176.3770  138.5920 N   0  0  0  0  0  0  0  0  0  0  0  0
  193.2840  177.0460  139.7020 C   0  0  0  0  0  0  0  0  0  0  0  0
  192.3520  176.2470  137.5850 C   0  0  0  0  0  2  0  0  0  0  0  0
  184.3260  177.4830  136.1480 C   0  0  1  0  0  3  0  0  0  0  0  0
  184.0390  176.4030  135.0880 C   0  0  2  0  0  3  0  0  0  0  0  0
  183.6180  176.1940  136.5240 C   0  0  2  0  0  3  0  0  0  0  0  0
  182.1330  176.4620  136.6520 C   0  0  0  0  0  2  0  0  0  0  0  0
  181.9220  177.8160  136.8270 F   0  0  0  0  0  0  0  0  0  0  0  0
  185.0270  174.2720  135.4890 O   0  0  0  0  0  1  0  0  0  0  0  0
  185.1940  175.4590  134.7780 C   0  0  0  0  0  2  0  0  0  0  0  0
  1 10  1  6  0  0  0
  1 20  1  0  0  0  0
  1 18  1  0  0  0  0
  2 16  1  0  0  0  0
  3  7  1  0  0  0  0
  4 18  1  0  0  0  0
  4  8  1  0  0  0  0
  5  2  1  0  0  0  0
  6  2  1  0  0  0  0
  6  4  1  0  0  0  0
  7  5  1  0  0  0  0
  7 19  1  0  0  0  0
  8 12  1  0  0  0  0
  9 13  1  0  0  0  0
  9  6  1  0  0  0  0
 13  1  1  0  0  0  0
 14 15  1  0  0  0  0
 15  3  1  0  0  0  0
 16 11  1  0  0  0  0
 16 12  1  0  0  0  0
 17  9  1  0  0  0  0
 17  5  1  0  0  0  0
 19 23  1  0  0  0  0
 21 14  1  0  0  0  0
 21 22  1  0  0  0  0
 22 17  1  0  0  0  0
 23 11  1  0  0  0  0
 24 25  1  0  0  0  0
 25 19  1  0  0  0  0
 25 26  1  0  0  0  0
 28 29  2  0  0  0  0
 29 26  1  0  0  0  0
 29 27  1  0  0  0  0
 30 24  1  0  0  0  0
 30 28  1  0  0  0  0
 31 33  1  0  0  0  0
 31 22  1  0  0  0  0
 32 31  1  0  0  0  0
 32 33  1  0  0  0  0
 33 34  1  0  0  0  0
 34 35  1  0  0  0  0
 37 32  1  0  0  0  0
 37 36  1  0  0  0  0
M  END
>  <MODEL>
9

>  <REMARK>
 VINA RESULT:      -6.0      2.509      3.702
  Name = 
  4 active torsions:
  status: ('A' for Active; 'I' for Inactive)
    1  A    between atoms: C_1  and  C_27
    2  A    between atoms: C_4  and  C_37
    3  A    between atoms: C_8  and  C_12
    4  A    between atoms: C_23  and  C_30
                            x       y       z     vdW  Elec       q    Type
                         _______ _______ _______ _____ _____    ______ ____

>  <TORSDO>
F 4

$$$$
