=
 OpenBabel11122411533D

 28 31  0  0  1  0  0  0  0  0999 V2000
  180.8500  179.0950  140.1700 C   0  0  2  0  0  3  0  0  0  0  0  0
  180.0450  177.0720  137.6510 O   0  0  0  0  0  0  0  0  0  0  0  0
  180.1020  181.6590  139.0560 C   0  0  0  0  0  3  0  0  0  0  0  0
  181.4350  178.1770  141.0700 O   0  0  0  0  0  0  0  0  0  0  0  0
  181.3350  178.4520  136.0660 O   0  0  0  0  0  0  0  0  0  0  0  0
  181.4010  177.3200  137.0510 S   0  0  0  0  0  0  0  0  0  0  0  0
  182.8700  175.0400  137.2630 C   0  0  1  0  0  3  0  0  0  0  0  0
  182.5960  177.6280  138.3210 C   0  0  1  0  0  3  0  0  0  0  0  0
  184.2000  178.9430  143.4840 C   0  0  0  0  0  1  0  0  0  0  0  0
  184.3560  179.1230  139.0560 C   0  0  2  0  0  3  0  0  0  0  0  0
  184.0030  175.6990  137.8370 O   0  0  0  0  0  0  0  0  0  0  0  0
  182.0180  175.8450  136.2560 C   0  0  0  0  0  2  0  0  0  0  0  0
  183.4530  178.2340  142.3640 C   0  0  2  0  0  3  0  0  0  0  0  0
  181.8800  179.9250  139.3670 C   0  0  2  0  0  3  0  0  0  0  0  0
  183.3150  173.7420  136.6230 C   0  0  0  0  0  1  0  0  0  0  0  0
  184.2520  178.0210  141.2180 O   0  0  0  0  0  0  0  0  0  0  0  0
  181.1370  180.8130  138.3760 C   0  0  0  0  0  2  0  0  0  0  0  0
  179.7440  179.9370  140.8410 C   0  0  0  0  0  2  0  0  0  0  0  0
  179.4520  181.2440  140.1490 C   0  0  0  0  0  3  0  0  0  0  0  0
  182.1130  178.8980  142.0670 C   0  0  0  0  0  2  0  0  0  0  0  0
  184.9950  177.8250  138.5460 C   0  0  1  0  0  3  0  0  0  0  0  0
  184.5180  179.2520  140.5800 C   0  0  1  0  0  3  0  0  0  0  0  0
  183.9010  177.1080  137.7720 C   0  0  2  0  0  3  0  0  0  0  0  0
  182.9010  179.0880  138.5710 C   0  0  2  0  0  3  0  0  0  0  0  0
  186.5010  178.4840  141.2000 C   0  0  0  0  0  1  0  0  0  0  0  0
  185.8220  179.6600  140.8760 O   0  0  0  0  0  0  0  0  0  0  0  0
  186.1640  178.1500  137.6350 C   0  0  0  0  0  2  0  0  0  0  0  0
  187.2160  177.2650  137.8750 O   0  0  0  0  0  1  0  0  0  0  0  0
  1 18  1  1  0  0  0
  1  4  1  0  0  0  0
  3 19  2  0  0  0  0
  4 20  1  0  0  0  0
  5  6  2  0  0  0  0
  6  2  2  0  0  0  0
  7 15  1  6  0  0  0
  7 11  1  0  0  0  0
  8  6  1  6  0  0  0
  8 24  1  0  0  0  0
 10 22  1  0  0  0  0
 12  6  1  0  0  0  0
 12  7  1  0  0  0  0
 13  9  1  0  0  0  0
 14  1  1  0  0  0  0
 16 13  1  0  0  0  0
 17  3  1  0  0  0  0
 17 14  1  0  0  0  0
 19 18  1  0  0  0  0
 20 13  1  0  0  0  0
 21 10  1  0  0  0  0
 22 26  1  0  0  0  0
 22 16  1  0  0  0  0
 23 11  1  0  0  0  0
 23  8  1  0  0  0  0
 23 21  1  0  0  0  0
 24 10  1  0  0  0  0
 24 14  1  0  0  0  0
 26 25  1  0  0  0  0
 27 28  1  0  0  0  0
 27 21  1  0  0  0  0
M  END
>  <MODEL>
1

>  <REMARK>
 VINA RESULT:      -5.7      0.000      0.000
  Name = 
  2 active torsions:
  status: ('A' for Active; 'I' for Inactive)
    1  A    between atoms: C_5  and  C_24
    2  A    between atoms: O_17  and  C_25
                            x       y       z     vdW  Elec       q    Type
                         _______ _______ _______ _____ _____    ______ ____

>  <TORSDO>
F 2

$$$$
=
 OpenBabel11122411533D

 28 31  0  0  1  0  0  0  0  0999 V2000
  182.1700  177.7880  137.0350 C   0  0  2  0  0  3  0  0  0  0  0  0
  181.2740  180.0550  134.7670 O   0  0  0  0  0  0  0  0  0  0  0  0
  180.2260  175.7100  136.5090 C   0  0  0  0  0  3  0  0  0  0  0  0
  183.1920  178.4850  137.7160 O   0  0  0  0  0  0  0  0  0  0  0  0
  178.9310  179.9650  135.5300 O   0  0  0  0  0  0  0  0  0  0  0  0
  180.2740  180.6040  135.7460 S   0  0  0  0  0  0  0  0  0  0  0  0
  181.1290  183.0490  136.5760 C   0  0  1  0  0  3  0  0  0  0  0  0
  180.8440  180.3810  137.4080 C   0  0  1  0  0  3  0  0  0  0  0  0
  184.0490  178.1090  141.3480 C   0  0  0  0  0  1  0  0  0  0  0  0
  180.2400  179.5710  139.6100 C   0  0  2  0  0  3  0  0  0  0  0  0
  180.9690  182.7490  137.9660 O   0  0  0  0  0  0  0  0  0  0  0  0
  180.1460  182.3780  135.5890 C   0  0  0  0  0  2  0  0  0  0  0  0
  183.6700  178.7980  140.0450 C   0  0  2  0  0  3  0  0  0  0  0  0
  180.8130  177.7850  137.7810 C   0  0  2  0  0  3  0  0  0  0  0  0
  181.0930  184.5500  136.3790 C   0  0  0  0  0  1  0  0  0  0  0  0
  182.5940  179.7030  140.1940 O   0  0  0  0  0  0  0  0  0  0  0  0
  179.7740  177.0810  136.9160 C   0  0  0  0  0  2  0  0  0  0  0  0
  182.6360  176.3950  136.5620 C   0  0  0  0  0  2  0  0  0  0  0  0
  181.5170  175.4140  136.3180 C   0  0  0  0  0  3  0  0  0  0  0  0
  183.4830  177.8000  138.9080 C   0  0  0  0  0  2  0  0  0  0  0  0
  180.2580  181.1050  139.6390 C   0  0  1  0  0  3  0  0  0  0  0  0
  181.3990  178.9940  140.4410 C   0  0  1  0  0  3  0  0  0  0  0  0
  180.2680  181.5400  138.1830 C   0  0  2  0  0  3  0  0  0  0  0  0
  180.2650  179.1830  138.1270 C   0  0  2  0  0  3  0  0  0  0  0  0
  180.0520  178.1460  141.9820 C   0  0  0  0  0  1  0  0  0  0  0  0
  181.0810  179.0720  141.8000 O   0  0  0  0  0  0  0  0  0  0  0  0
  179.0150  181.6220  140.3390 C   0  0  0  0  0  2  0  0  0  0  0  0
  179.2140  181.6280  141.7200 O   0  0  0  0  0  1  0  0  0  0  0  0
  1 18  1  1  0  0  0
  1  4  1  0  0  0  0
  1 14  1  0  0  0  0
  2  6  2  0  0  0  0
  3 17  1  0  0  0  0
  4 20  1  0  0  0  0
  5  6  2  0  0  0  0
  7 15  1  1  0  0  0
  7 11  1  0  0  0  0
  8  6  1  6  0  0  0
  8 24  1  0  0  0  0
  8 23  1  0  0  0  0
 10 21  1  0  0  0  0
 10 22  1  0  0  0  0
 11 23  1  0  0  0  0
 12  6  1  0  0  0  0
 12  7  1  0  0  0  0
 13 16  1  0  0  0  0
 13  9  1  0  0  0  0
 14 24  1  0  0  0  0
 16 22  1  0  0  0  0
 17 14  1  0  0  0  0
 19  3  2  0  0  0  0
 19 18  1  0  0  0  0
 20 13  1  0  0  0  0
 21 27  1  0  0  0  0
 22 26  1  0  0  0  0
 23 21  1  0  0  0  0
 24 10  1  0  0  0  0
 26 25  1  0  0  0  0
 27 28  1  0  0  0  0
M  END
>  <MODEL>
2

>  <REMARK>
 VINA RESULT:      -5.5      2.291      5.676
  Name = 
  2 active torsions:
  status: ('A' for Active; 'I' for Inactive)
    1  A    between atoms: C_5  and  C_24
    2  A    between atoms: O_17  and  C_25
                            x       y       z     vdW  Elec       q    Type
                         _______ _______ _______ _____ _____    ______ ____

>  <TORSDO>
F 2

$$$$
=
 OpenBabel11122411533D

 28 31  0  0  1  0  0  0  0  0999 V2000
  180.6910  178.5260  141.0100 C   0  0  2  0  0  3  0  0  0  0  0  0
  180.4700  181.5080  139.5440 O   0  0  0  0  0  0  0  0  0  0  0  0
  183.1290  178.8590  142.5320 C   0  0  0  0  0  3  0  0  0  0  0  0
  179.5940  177.8600  140.4200 O   0  0  0  0  0  0  0  0  0  0  0  0
  182.7880  181.3300  138.7220 O   0  0  0  0  0  0  0  0  0  0  0  0
  181.3500  181.0010  138.4360 S   0  0  0  0  0  0  0  0  0  0  0  0
  179.8460  180.7530  136.1820 C   0  0  1  0  0  3  0  0  0  0  0  0
  181.1120  179.2620  138.1990 C   0  0  1  0  0  3  0  0  0  0  0  0
  179.4000  174.1850  139.6990 C   0  0  0  0  0  1  0  0  0  0  0  0
  182.2370  177.1270  137.9790 C   0  0  2  0  0  3  0  0  0  0  0  0
  180.2790  179.4160  135.9150 O   0  0  0  0  0  0  0  0  0  0  0  0
  180.8560  181.7010  136.8690 C   0  0  0  0  0  2  0  0  0  0  0  0
  179.3510  175.6840  139.4420 C   0  0  2  0  0  3  0  0  0  0  0  0
  182.0560  178.1570  140.3820 C   0  0  2  0  0  3  0  0  0  0  0  0
  179.3520  181.3880  134.8990 C   0  0  0  0  0  1  0  0  0  0  0  0
  180.0730  176.0690  138.2890 O   0  0  0  0  0  0  0  0  0  0  0  0
  183.1470  178.9950  141.0390 C   0  0  0  0  0  2  0  0  0  0  0  0
  180.6580  178.4420  142.5500 C   0  0  0  0  0  2  0  0  0  0  0  0
  181.9970  178.6430  143.2130 C   0  0  0  0  0  3  0  0  0  0  0  0
  179.7090  176.4860  140.6880 C   0  0  0  0  0  2  0  0  0  0  0  0
  181.7120  177.5500  136.6010 C   0  0  1  0  0  3  0  0  0  0  0  0
  181.4580  175.9140  138.5130 C   0  0  1  0  0  3  0  0  0  0  0  0
  181.3660  179.0240  136.7310 C   0  0  2  0  0  3  0  0  0  0  0  0
  182.1480  178.3800  138.8600 C   0  0  2  0  0  3  0  0  0  0  0  0
  183.2740  174.6950  138.1590 C   0  0  0  0  0  1  0  0  0  0  0  0
  181.9090  174.7550  137.8750 O   0  0  0  0  0  0  0  0  0  0  0  0
  182.7930  177.3490  135.5540 C   0  0  0  0  0  2  0  0  0  0  0  0
  184.0510  177.3720  136.1580 O   0  0  0  0  0  1  0  0  0  0  0  0
  1 18  1  1  0  0  0
  3 19  2  0  0  0  0
  4 20  1  0  0  0  0
  4  1  1  0  0  0  0
  6  5  2  0  0  0  0
  6  2  2  0  0  0  0
  7 15  1  6  0  0  0
  7 12  1  0  0  0  0
  8  6  1  6  0  0  0
  8 24  1  0  0  0  0
 10 22  1  0  0  0  0
 10 24  1  0  0  0  0
 11  7  1  0  0  0  0
 11 23  1  0  0  0  0
 12  6  1  0  0  0  0
 13  9  1  0  0  0  0
 13 20  1  0  0  0  0
 14  1  1  0  0  0  0
 14 17  1  0  0  0  0
 16 22  1  0  0  0  0
 16 13  1  0  0  0  0
 17  3  1  0  0  0  0
 18 19  1  0  0  0  0
 21 23  1  0  0  0  0
 21 10  1  0  0  0  0
 23  8  1  0  0  0  0
 24 14  1  0  0  0  0
 26 25  1  0  0  0  0
 26 22  1  0  0  0  0
 27 28  1  0  0  0  0
 27 21  1  0  0  0  0
M  END
>  <MODEL>
3

>  <REMARK>
 VINA RESULT:      -5.5      2.413      4.775
  Name = 
  2 active torsions:
  status: ('A' for Active; 'I' for Inactive)
    1  A    between atoms: C_5  and  C_24
    2  A    between atoms: O_17  and  C_25
                            x       y       z     vdW  Elec       q    Type
                         _______ _______ _______ _____ _____    ______ ____

>  <TORSDO>
F 2

$$$$
=
 OpenBabel11122411533D

 28 31  0  0  1  0  0  0  0  0999 V2000
  181.3460  179.3280  138.7720 C   0  0  2  0  0  3  0  0  0  0  0  0
  184.5620  180.1360  139.0770 O   0  0  0  0  0  0  0  0  0  0  0  0
  180.5840  179.1170  141.5550 C   0  0  0  0  0  3  0  0  0  0  0  0
  181.2370  179.2030  137.3690 O   0  0  0  0  0  0  0  0  0  0  0  0
  184.9470  178.2340  140.5980 O   0  0  0  0  0  0  0  0  0  0  0  0
  184.8970  178.6730  139.1620 S   0  0  0  0  0  0  0  0  0  0  0  0
  186.1950  177.9490  136.8830 C   0  0  1  0  0  3  0  0  0  0  0  0
  183.7380  177.7150  138.2260 C   0  0  1  0  0  3  0  0  0  0  0  0
  178.9310  176.8680  135.5560 C   0  0  0  0  0  1  0  0  0  0  0  0
  182.2580  175.7970  138.2850 C   0  0  2  0  0  3  0  0  0  0  0  0
  185.3550  176.8160  136.6400 O   0  0  0  0  0  0  0  0  0  0  0  0
  186.4550  178.3350  138.3580 C   0  0  0  0  0  2  0  0  0  0  0  0
  180.2330  177.5430  135.9610 C   0  0  2  0  0  3  0  0  0  0  0  0
  181.4670  177.9730  139.5120 C   0  0  2  0  0  3  0  0  0  0  0  0
  187.5180  177.7550  136.1730 C   0  0  0  0  0  1  0  0  0  0  0  0
  181.2720  176.6210  136.2240 O   0  0  0  0  0  0  0  0  0  0  0  0
  181.6630  178.2370  141.0000 C   0  0  0  0  0  2  0  0  0  0  0  0
  180.2750  180.2740  139.3540 C   0  0  0  0  0  2  0  0  0  0  0  0
  179.9840  180.0580  140.8170 C   0  0  0  0  0  3  0  0  0  0  0  0
  180.0210  178.5660  137.0710 C   0  0  0  0  0  2  0  0  0  0  0  0
  183.4840  175.4460  137.4320 C   0  0  1  0  0  3  0  0  0  0  0  0
  180.9970  175.9110  137.4120 C   0  0  1  0  0  3  0  0  0  0  0  0
  184.5160  176.5180  137.7390 C   0  0  2  0  0  3  0  0  0  0  0  0
  182.6300  177.0810  139.0370 C   0  0  2  0  0  3  0  0  0  0  0  0
  180.0360  174.1210  138.2960 C   0  0  0  0  0  1  0  0  0  0  0  0
  180.5340  174.6300  137.0960 O   0  0  0  0  0  0  0  0  0  0  0  0
  184.0080  174.0760  137.8220 C   0  0  0  0  0  2  0  0  0  0  0  0
  183.4470  173.0990  136.9980 O   0  0  0  0  0  1  0  0  0  0  0  0
  1 18  1  1  0  0  0
  1 14  1  0  0  0  0
  2  6  2  0  0  0  0
  4  1  1  0  0  0  0
  6  5  2  0  0  0  0
  7 15  1  1  0  0  0
  7 12  1  0  0  0  0
  8 24  1  0  0  0  0
  8  6  1  1  0  0  0
  9 13  1  0  0  0  0
 10 24  1  0  0  0  0
 11  7  1  0  0  0  0
 11 23  1  0  0  0  0
 12  6  1  0  0  0  0
 13 16  1  0  0  0  0
 13 20  1  0  0  0  0
 14 17  1  0  0  0  0
 16 22  1  0  0  0  0
 17  3  1  0  0  0  0
 18 19  1  0  0  0  0
 19  3  2  0  0  0  0
 20  4  1  0  0  0  0
 21 23  1  0  0  0  0
 21 27  1  0  0  0  0
 21 10  1  0  0  0  0
 22 10  1  0  0  0  0
 23  8  1  0  0  0  0
 24 14  1  0  0  0  0
 26 22  1  0  0  0  0
 26 25  1  0  0  0  0
 28 27  1  0  0  0  0
M  END
>  <MODEL>
4

>  <REMARK>
 VINA RESULT:      -5.5      1.988      4.973
  Name = 
  2 active torsions:
  status: ('A' for Active; 'I' for Inactive)
    1  A    between atoms: C_5  and  C_24
    2  A    between atoms: O_17  and  C_25
                            x       y       z     vdW  Elec       q    Type
                         _______ _______ _______ _____ _____    ______ ____

>  <TORSDO>
F 2

$$$$
=
 OpenBabel11122411533D

 28 31  0  0  1  0  0  0  0  0999 V2000
  187.8520  175.8200  136.9060 C   0  0  2  0  0  3  0  0  0  0  0  0
  189.5640  177.0760  139.4710 O   0  0  0  0  0  0  0  0  0  0  0  0
  189.0400  177.2790  134.7070 C   0  0  0  0  0  3  0  0  0  0  0  0
  186.9340  174.9870  137.5830 O   0  0  0  0  0  0  0  0  0  0  0  0
  189.0540  179.3770  138.7490 O   0  0  0  0  0  0  0  0  0  0  0  0
  188.5720  178.2020  139.5510 S   0  0  0  0  0  0  0  0  0  0  0  0
  187.0950  177.8950  141.8150 C   0  0  1  0  0  3  0  0  0  0  0  0
  186.9720  177.6600  139.0180 C   0  0  1  0  0  3  0  0  0  0  0  0
  183.4460  174.2050  136.4510 C   0  0  0  0  0  1  0  0  0  0  0  0
  185.0970  178.1660  137.5690 C   0  0  2  0  0  3  0  0  0  0  0  0
  185.8400  178.0410  141.1410 O   0  0  0  0  0  0  0  0  0  0  0  0
  188.2980  178.6830  141.2480 C   0  0  0  0  0  2  0  0  0  0  0  0
  184.5680  174.6690  137.3690 C   0  0  2  0  0  3  0  0  0  0  0  0
  187.2520  177.1740  136.4560 C   0  0  2  0  0  3  0  0  0  0  0  0
  186.9200  178.2290  143.2810 C   0  0  0  0  0  1  0  0  0  0  0  0
  184.2960  175.9110  137.9860 O   0  0  0  0  0  0  0  0  0  0  0  0
  188.3500  178.0150  135.8160 C   0  0  0  0  0  2  0  0  0  0  0  0
  188.6100  175.0630  135.7950 C   0  0  0  0  0  2  0  0  0  0  0  0
  189.1840  175.9480  134.7190 C   0  0  0  0  0  3  0  0  0  0  0  0
  185.9270  174.6070  136.6810 C   0  0  0  0  0  2  0  0  0  0  0  0
  184.6920  178.4620  139.0180 C   0  0  1  0  0  3  0  0  0  0  0  0
  184.3360  176.9450  137.0250 C   0  0  1  0  0  3  0  0  0  0  0  0
  185.9900  178.4880  139.8080 C   0  0  2  0  0  3  0  0  0  0  0  0
  186.6220  178.0080  137.5880 C   0  0  2  0  0  3  0  0  0  0  0  0
  183.0560  177.5040  135.3050 C   0  0  0  0  0  1  0  0  0  0  0  0
  183.0320  177.3220  136.6890 O   0  0  0  0  0  0  0  0  0  0  0  0
  183.9970  179.8100  139.0940 C   0  0  0  0  0  2  0  0  0  0  0  0
  182.6130  179.6320  139.1000 O   0  0  0  0  0  1  0  0  0  0  0  0
  1 18  1  6  0  0  0
  1  4  1  0  0  0  0
  2  6  2  0  0  0  0
  3 19  2  0  0  0  0
  3 17  1  0  0  0  0
  5  6  2  0  0  0  0
  6 12  1  0  0  0  0
  7 15  1  1  0  0  0
  8  6  1  1  0  0  0
  8 23  1  0  0  0  0
  9 13  1  0  0  0  0
 10 24  1  0  0  0  0
 10 21  1  0  0  0  0
 11  7  1  0  0  0  0
 12  7  1  0  0  0  0
 13 16  1  0  0  0  0
 14  1  1  0  0  0  0
 14 24  1  0  0  0  0
 17 14  1  0  0  0  0
 19 18  1  0  0  0  0
 20 13  1  0  0  0  0
 20  4  1  0  0  0  0
 21 27  1  0  0  0  0
 21 23  1  0  0  0  0
 22 10  1  0  0  0  0
 22 16  1  0  0  0  0
 23 11  1  0  0  0  0
 24  8  1  0  0  0  0
 25 26  1  0  0  0  0
 26 22  1  0  0  0  0
 27 28  1  0  0  0  0
M  END
>  <MODEL>
5

>  <REMARK>
 VINA RESULT:      -5.4      2.893      7.176
  Name = 
  2 active torsions:
  status: ('A' for Active; 'I' for Inactive)
    1  A    between atoms: C_5  and  C_24
    2  A    between atoms: O_17  and  C_25
                            x       y       z     vdW  Elec       q    Type
                         _______ _______ _______ _____ _____    ______ ____

>  <TORSDO>
F 2

$$$$
=
 OpenBabel11122411533D

 28 31  0  0  1  0  0  0  0  0999 V2000
  183.6360  177.5770  138.1530 C   0  0  2  0  0  3  0  0  0  0  0  0
  180.8360  178.8780  136.9060 O   0  0  0  0  0  0  0  0  0  0  0  0
  183.1010  174.7520  137.8330 C   0  0  0  0  0  3  0  0  0  0  0  0
  184.2940  178.7450  138.6000 O   0  0  0  0  0  0  0  0  0  0  0  0
  179.4610  177.4370  138.3590 O   0  0  0  0  0  0  0  0  0  0  0  0
  180.1990  178.7420  138.2600 S   0  0  0  0  0  0  0  0  0  0  0  0
  179.8540  181.2300  139.3060 C   0  0  1  0  0  3  0  0  0  0  0  0
  181.4130  178.9040  139.5390 C   0  0  1  0  0  3  0  0  0  0  0  0
  186.6020  178.9620  141.5470 C   0  0  0  0  0  1  0  0  0  0  0  0
  182.2950  177.9070  141.5630 C   0  0  2  0  0  3  0  0  0  0  0  0
  180.4610  180.9000  140.5600 O   0  0  0  0  0  0  0  0  0  0  0  0
  179.0880  180.1050  138.5730 C   0  0  0  0  0  2  0  0  0  0  0  0
  185.4230  179.2910  140.6430 C   0  0  2  0  0  3  0  0  0  0  0  0
  182.9360  176.7840  139.2840 C   0  0  2  0  0  3  0  0  0  0  0  0
  178.9410  182.4240  139.4880 C   0  0  0  0  0  1  0  0  0  0  0  0
  184.2020  179.3950  141.3470 O   0  0  0  0  0  0  0  0  0  0  0  0
  182.1950  175.6000  138.6740 C   0  0  0  0  0  2  0  0  0  0  0  0
  184.5370  176.7180  137.2420 C   0  0  0  0  0  2  0  0  0  0  0  0
  184.1370  175.2670  137.1610 C   0  0  0  0  0  3  0  0  0  0  0  0
  185.3600  178.3660  139.4330 C   0  0  0  0  0  2  0  0  0  0  0  0
  181.4960  179.1610  141.9410 C   0  0  1  0  0  3  0  0  0  0  0  0
  183.7980  178.1220  141.8040 C   0  0  1  0  0  3  0  0  0  0  0  0
  180.6790  179.5110  140.7080 C   0  0  2  0  0  3  0  0  0  0  0  0
  181.9200  177.5980  140.1080 C   0  0  2  0  0  3  0  0  0  0  0  0
  184.0790  179.3190  143.6470 C   0  0  0  0  0  1  0  0  0  0  0  0
  184.0720  178.0070  143.1700 O   0  0  0  0  0  0  0  0  0  0  0  0
  180.5820  178.8560  143.1140 C   0  0  0  0  0  2  0  0  0  0  0  0
  179.5770  177.9720  142.7190 O   0  0  0  0  0  1  0  0  0  0  0  0
  1 18  1  1  0  0  0
  1  4  1  0  0  0  0
  1 14  1  0  0  0  0
  2  6  2  0  0  0  0
  3 17  1  0  0  0  0
  4 20  1  0  0  0  0
  6  5  2  0  0  0  0
  6 12  1  0  0  0  0
  7 15  1  1  0  0  0
  7 11  1  0  0  0  0
  8  6  1  6  0  0  0
  8 24  1  0  0  0  0
  8 23  1  0  0  0  0
 10 22  1  0  0  0  0
 10 21  1  0  0  0  0
 11 23  1  0  0  0  0
 12  7  1  0  0  0  0
 13 16  1  0  0  0  0
 13  9  1  0  0  0  0
 14 24  1  0  0  0  0
 16 22  1  0  0  0  0
 17 14  1  0  0  0  0
 19 18  1  0  0  0  0
 19  3  2  0  0  0  0
 20 13  1  0  0  0  0
 21 27  1  0  0  0  0
 22 26  1  0  0  0  0
 23 21  1  0  0  0  0
 24 10  1  0  0  0  0
 26 25  1  0  0  0  0
 28 27  1  0  0  0  0
M  END
>  <MODEL>
6

>  <REMARK>
 VINA RESULT:      -5.2      1.553      5.252
  Name = 
  2 active torsions:
  status: ('A' for Active; 'I' for Inactive)
    1  A    between atoms: C_5  and  C_24
    2  A    between atoms: O_17  and  C_25
                            x       y       z     vdW  Elec       q    Type
                         _______ _______ _______ _____ _____    ______ ____

>  <TORSDO>
F 2

$$$$
=
 OpenBabel11122411533D

 28 31  0  0  1  0  0  0  0  0999 V2000
  184.6930  174.5300  135.3570 C   0  0  2  0  0  3  0  0  0  0  0  0
  181.3740  174.7400  135.5260 O   0  0  0  0  0  0  0  0  0  0  0  0
  185.1680  172.2260  137.0410 C   0  0  0  0  0  3  0  0  0  0  0  0
  184.9920  175.6800  134.5940 O   0  0  0  0  0  0  0  0  0  0  0  0
  181.4460  174.6720  137.9900 O   0  0  0  0  0  0  0  0  0  0  0  0
  181.5140  175.5590  136.7790 S   0  0  0  0  0  0  0  0  0  0  0  0
  180.7750  178.1180  136.2270 C   0  0  1  0  0  3  0  0  0  0  0  0
  183.0140  176.5010  136.7430 C   0  0  1  0  0  3  0  0  0  0  0  0
  188.1080  177.7470  134.8830 C   0  0  0  0  0  1  0  0  0  0  0  0
  185.0100  177.0840  137.9860 C   0  0  2  0  0  3  0  0  0  0  0  0
  181.9530  178.6930  136.8010 O   0  0  0  0  0  0  0  0  0  0  0  0
  180.2440  176.8120  136.8590 C   0  0  0  0  0  2  0  0  0  0  0  0
  186.6220  177.4200  134.8490 C   0  0  2  0  0  3  0  0  0  0  0  0
  184.9270  174.7120  136.8770 C   0  0  2  0  0  3  0  0  0  0  0  0
  179.6700  179.1530  136.2050 C   0  0  0  0  0  1  0  0  0  0  0  0
  185.9070  177.9990  135.9220 O   0  0  0  0  0  0  0  0  0  0  0  0
  184.4930  173.4420  137.6000 C   0  0  0  0  0  2  0  0  0  0  0  0
  185.3360  173.2590  134.7650 C   0  0  0  0  0  2  0  0  0  0  0  0
  185.5160  172.1350  135.7530 C   0  0  0  0  0  3  0  0  0  0  0  0
  186.3720  175.9260  134.6780 C   0  0  0  0  0  2  0  0  0  0  0  0
  184.0620  178.2910  137.9830 C   0  0  1  0  0  3  0  0  0  0  0  0
  186.2590  177.3660  137.1340 C   0  0  1  0  0  3  0  0  0  0  0  0
  182.7150  177.7510  137.5310 C   0  0  2  0  0  3  0  0  0  0  0  0
  184.1680  175.8940  137.5090 C   0  0  2  0  0  3  0  0  0  0  0  0
  188.0470  177.3040  138.4400 C   0  0  0  0  0  1  0  0  0  0  0  0
  187.1360  178.1830  137.8510 O   0  0  0  0  0  0  0  0  0  0  0  0
  183.9600  178.8700  139.3820 C   0  0  0  0  0  2  0  0  0  0  0  0
  184.5730  180.1230  139.4250 O   0  0  0  0  0  1  0  0  0  0  0  0
  1 18  1  6  0  0  0
  1 14  1  0  0  0  0
  2  6  2  0  0  0  0
  3 17  1  0  0  0  0
  4 20  1  0  0  0  0
  4  1  1  0  0  0  0
  6 12  1  0  0  0  0
  6  5  2  0  0  0  0
  7 15  1  1  0  0  0
  7 11  1  0  0  0  0
  7 12  1  0  0  0  0
  8  6  1  1  0  0  0
  8 24  1  0  0  0  0
  8 23  1  0  0  0  0
 11 23  1  0  0  0  0
 13  9  1  0  0  0  0
 13 16  1  0  0  0  0
 14 24  1  0  0  0  0
 14 17  1  0  0  0  0
 16 22  1  0  0  0  0
 18 19  1  0  0  0  0
 19  3  2  0  0  0  0
 20 13  1  0  0  0  0
 21 10  1  0  0  0  0
 21 27  1  0  0  0  0
 22 26  1  0  0  0  0
 22 10  1  0  0  0  0
 23 21  1  0  0  0  0
 24 10  1  0  0  0  0
 26 25  1  0  0  0  0
 27 28  1  0  0  0  0
M  END
>  <MODEL>
7

>  <REMARK>
 VINA RESULT:      -5.2      2.604      6.191
  Name = 
  2 active torsions:
  status: ('A' for Active; 'I' for Inactive)
    1  A    between atoms: C_5  and  C_24
    2  A    between atoms: O_17  and  C_25
                            x       y       z     vdW  Elec       q    Type
                         _______ _______ _______ _____ _____    ______ ____

>  <TORSDO>
F 2

$$$$
=
 OpenBabel11122411533D

 28 31  0  0  1  0  0  0  0  0999 V2000
  192.9790  174.6150  137.3760 C   0  0  2  0  0  3  0  0  0  0  0  0
  193.8090  175.9870  140.2950 O   0  0  0  0  0  0  0  0  0  0  0  0
  194.7950  176.0010  135.6010 C   0  0  0  0  0  3  0  0  0  0  0  0
  191.8940  173.7990  137.7670 O   0  0  0  0  0  0  0  0  0  0  0  0
  193.5540  178.2540  139.3590 O   0  0  0  0  0  0  0  0  0  0  0  0
  192.8430  177.1050  140.0170 S   0  0  0  0  0  0  0  0  0  0  0  0
  190.7340  176.8700  141.7190 C   0  0  1  0  0  3  0  0  0  0  0  0
  191.4880  176.5260  139.0340 C   0  0  1  0  0  3  0  0  0  0  0  0
  188.9310  172.9370  135.6370 C   0  0  0  0  0  1  0  0  0  0  0  0
  190.1590  176.9560  137.0550 C   0  0  2  0  0  3  0  0  0  0  0  0
  189.7520  176.9760  140.6830 O   0  0  0  0  0  0  0  0  0  0  0  0
  192.0560  177.6480  141.5250 C   0  0  0  0  0  2  0  0  0  0  0  0
  189.7110  173.4480  136.8400 C   0  0  2  0  0  3  0  0  0  0  0  0
  192.5510  175.9450  136.7080 C   0  0  2  0  0  3  0  0  0  0  0  0
  190.1120  177.2580  143.0440 C   0  0  0  0  0  1  0  0  0  0  0  0
  189.2630  174.7100  137.2910 O   0  0  0  0  0  0  0  0  0  0  0  0
  193.7960  176.7730  136.4100 C   0  0  0  0  0  2  0  0  0  0  0  0
  194.0440  173.8240  136.5880 C   0  0  0  0  0  2  0  0  0  0  0  0
  194.9260  174.6740  135.7100 C   0  0  0  0  0  3  0  0  0  0  0  0
  191.2170  173.3740  136.6120 C   0  0  0  0  0  2  0  0  0  0  0  0
  189.3230  177.3030  138.2930 C   0  0  1  0  0  3  0  0  0  0  0  0
  189.6020  175.7070  136.3500 C   0  0  1  0  0  3  0  0  0  0  0  0
  190.3100  177.3730  139.4460 C   0  0  2  0  0  3  0  0  0  0  0  0
  191.6020  176.8150  137.5540 C   0  0  2  0  0  3  0  0  0  0  0  0
  188.9460  176.8860  134.5940 C   0  0  0  0  0  1  0  0  0  0  0  0
  188.4690  176.0570  135.6100 O   0  0  0  0  0  0  0  0  0  0  0  0
  188.6420  178.6450  138.0950 C   0  0  0  0  0  2  0  0  0  0  0  0
  187.3400  178.5980  138.5960 O   0  0  0  0  0  1  0  0  0  0  0  0
  1 18  1  6  0  0  0
  1  4  1  0  0  0  0
  3 19  2  0  0  0  0
  3 17  1  0  0  0  0
  5  6  2  0  0  0  0
  6  2  2  0  0  0  0
  6 12  1  0  0  0  0
  7 15  1  1  0  0  0
  8 23  1  0  0  0  0
  8  6  1  1  0  0  0
  9 13  1  0  0  0  0
 10 24  1  0  0  0  0
 10 21  1  0  0  0  0
 11  7  1  0  0  0  0
 12  7  1  0  0  0  0
 13 16  1  0  0  0  0
 14  1  1  0  0  0  0
 14 24  1  0  0  0  0
 17 14  1  0  0  0  0
 19 18  1  0  0  0  0
 20 13  1  0  0  0  0
 20  4  1  0  0  0  0
 21 23  1  0  0  0  0
 22 10  1  0  0  0  0
 22 16  1  0  0  0  0
 23 11  1  0  0  0  0
 24  8  1  0  0  0  0
 25 26  1  0  0  0  0
 26 22  1  0  0  0  0
 27 21  1  0  0  0  0
 27 28  1  0  0  0  0
M  END
>  <MODEL>
8

>  <REMARK>
 VINA RESULT:      -5.1      6.585     10.609
  Name = 
  2 active torsions:
  status: ('A' for Active; 'I' for Inactive)
    1  A    between atoms: C_5  and  C_24
    2  A    between atoms: O_17  and  C_25
                            x       y       z     vdW  Elec       q    Type
                         _______ _______ _______ _____ _____    ______ ____

>  <TORSDO>
F 2

$$$$
=
 OpenBabel11122411533D

 28 31  0  0  1  0  0  0  0  0999 V2000
  183.2520  176.4150  138.1050 C   0  0  2  0  0  3  0  0  0  0  0  0
  183.6760  177.1690  141.3210 O   0  0  0  0  0  0  0  0  0  0  0  0
  185.7930  177.2680  137.0170 C   0  0  0  0  0  3  0  0  0  0  0  0
  181.9090  175.9750  138.1120 O   0  0  0  0  0  0  0  0  0  0  0  0
  184.3650  179.4650  140.7420 O   0  0  0  0  0  0  0  0  0  0  0  0
  183.1980  178.5640  141.0320 S   0  0  0  0  0  0  0  0  0  0  0  0
  180.7530  178.8950  142.1770 C   0  0  1  0  0  3  0  0  0  0  0  0
  182.0310  178.5580  139.6980 C   0  0  1  0  0  3  0  0  0  0  0  0
  179.4760  176.3390  135.2820 C   0  0  0  0  0  1  0  0  0  0  0  0
  181.4500  179.5790  137.5790 C   0  0  2  0  0  3  0  0  0  0  0  0
  180.1490  179.4130  140.9870 O   0  0  0  0  0  0  0  0  0  0  0  0
  182.2500  179.2030  142.4040 C   0  0  0  0  0  2  0  0  0  0  0  0
  180.0370  176.4530  136.6920 C   0  0  2  0  0  3  0  0  0  0  0  0
  183.4310  177.8640  137.5920 C   0  0  2  0  0  3  0  0  0  0  0  0
  179.9570  179.3500  143.3830 C   0  0  0  0  0  1  0  0  0  0  0  0
  179.8900  177.7470  137.2400 O   0  0  0  0  0  0  0  0  0  0  0  0
  184.9000  178.2540  137.7090 C   0  0  0  0  0  2  0  0  0  0  0  0
  184.1940  175.3870  137.4440 C   0  0  0  0  0  2  0  0  0  0  0  0
  185.4860  175.9690  136.9290 C   0  0  0  0  0  3  0  0  0  0  0  0
  181.4560  175.9030  136.7840 C   0  0  0  0  0  2  0  0  0  0  0  0
  180.4680  180.0740  138.6490 C   0  0  1  0  0  3  0  0  0  0  0  0
  180.7430  178.6540  136.5740 C   0  0  1  0  0  3  0  0  0  0  0  0
  181.0990  179.7100  139.9830 C   0  0  2  0  0  3  0  0  0  0  0  0
  182.6040  178.9230  138.3470 C   0  0  2  0  0  3  0  0  0  0  0  0
  180.9310  179.9070  134.7570 C   0  0  0  0  0  1  0  0  0  0  0  0
  179.9990  179.4240  135.6770 O   0  0  0  0  0  0  0  0  0  0  0  0
  180.2980  181.5780  138.5360 C   0  0  0  0  0  2  0  0  0  0  0  0
  181.1850  182.0880  137.5870 O   0  0  0  0  0  1  0  0  0  0  0  0
  1 18  1  6  0  0  0
  1  4  1  0  0  0  0
  3 17  1  0  0  0  0
  5  6  2  0  0  0  0
  6  2  2  0  0  0  0
  6 12  1  0  0  0  0
  7 12  1  0  0  0  0
  7 15  1  1  0  0  0
  8 23  1  0  0  0  0
  8  6  1  1  0  0  0
  9 13  1  0  0  0  0
 10 24  1  0  0  0  0
 10 21  1  0  0  0  0
 11  7  1  0  0  0  0
 13 20  1  0  0  0  0
 13 16  1  0  0  0  0
 14 17  1  0  0  0  0
 14  1  1  0  0  0  0
 14 24  1  0  0  0  0
 19  3  2  0  0  0  0
 19 18  1  0  0  0  0
 20  4  1  0  0  0  0
 21 23  1  0  0  0  0
 22 16  1  0  0  0  0
 22 10  1  0  0  0  0
 23 11  1  0  0  0  0
 24  8  1  0  0  0  0
 25 26  1  0  0  0  0
 26 22  1  0  0  0  0
 27 21  1  0  0  0  0
 28 27  1  0  0  0  0
M  END
>  <MODEL>
9

>  <REMARK>
 VINA RESULT:      -5.0      1.984      6.242
  Name = 
  2 active torsions:
  status: ('A' for Active; 'I' for Inactive)
    1  A    between atoms: C_5  and  C_24
    2  A    between atoms: O_17  and  C_25
                            x       y       z     vdW  Elec       q    Type
                         _______ _______ _______ _____ _____    ______ ____

>  <TORSDO>
F 2

$$$$
