=
 OpenBabel11122410353D

 32 38  0  0  1  0  0  0  0  0999 V2000
  181.8650  178.5980  139.6770 C   0  0  1  0  0  3  0  0  0  0  0  0
  186.1320  178.2200  142.7520 C   0  0  0  0  0  0  0  0  0  0  0  0
  189.6510  177.3480  139.5170 C   0  0  0  0  0  3  0  0  0  0  0  0
  190.6580  177.2910  140.5940 C   0  0  0  0  0  3  0  0  0  0  0  0
  186.6070  177.9970  145.2120 C   0  0  0  0  0  0  0  0  0  0  0  0
  187.6390  177.6140  146.1640 C   0  0  0  0  0  0  0  0  0  0  0  0
  183.8520  178.8850  141.9270 C   0  0  1  0  0  3  0  0  0  0  0  0
  185.6950  178.6760  140.2970 C   0  0  0  0  0  2  0  0  0  0  0  0
  189.6560  177.0130  146.9620 C   0  0  0  0  0  0  0  0  0  0  0  0
  183.3640  178.6900  139.3820 C   0  0  2  0  0  3  0  0  0  0  0  0
  188.4180  177.8080  139.7510 C   0  0  0  0  0  3  0  0  0  0  0  0
  186.6010  178.2580  141.3770 N   0  0  0  0  0  0  0  0  0  0  0  0
  188.0370  178.3920  141.0930 C   0  0  1  0  0  3  0  0  0  0  0  0
  188.4690  177.7930  143.4600 C   0  0  0  0  0  0  0  0  0  0  0  0
  188.8120  177.1090  147.9450 N   0  0  0  0  0  0  0  0  0  0  0  0
  181.5390  178.1260  141.1090 C   0  0  0  0  0  2  0  0  0  0  0  0
  184.2540  178.2880  140.5760 C   0  0  2  0  0  3  0  0  0  0  0  0
  187.5460  177.4870  147.4470 N   0  0  0  0  0  2  0  0  0  0  0  0
  182.3540  178.7860  142.2290 C   0  0  0  0  0  2  0  0  0  0  0  0
  182.5480  179.9590  139.6050 C   0  0  1  0  0  3  0  0  0  0  0  0
  190.3140  177.5190  141.8640 C   0  0  0  0  0  3  0  0  0  0  0  0
  188.9160  177.8620  142.2000 C   0  0  0  0  0  0  0  0  0  0  0  0
  189.3840  177.4100  144.5160 N   0  0  0  0  0  2  0  0  0  0  0  0
  184.6470  178.2050  143.0240 C   0  0  0  0  0  2  0  0  0  0  0  0
  185.4510  178.2980  145.6140 O   0  0  0  0  0  0  0  0  0  0  0  0
  191.0870  176.6410  147.1200 C   0  0  0  0  0  1  0  0  0  0  0  0
  187.0140  178.0430  143.7670 C   0  0  0  0  0  0  0  0  0  0  0  0
  188.9650  177.3310  145.7370 C   0  0  0  0  0  0  0  0  0  0  0  0
  182.2670  180.5620  138.3520 O   0  0  0  0  0  0  0  0  0  0  0  0
  181.1200  181.3290  138.1340 C   0  0  0  0  0  0  0  0  0  0  0  0
  180.6440  181.6480  136.7560 C   0  0  0  0  0  1  0  0  0  0  0  0
  180.4700  181.7610  139.1210 O   0  0  0  0  0  0  0  0  0  0  0  0
  1 16  1  1  0  0  0
  2 24  1  0  0  0  0
  2 27  2  0  0  0  0
  3 11  2  0  0  0  0
  3  4  1  0  0  0  0
  4 21  2  0  0  0  0
  5 25  2  0  0  0  0
  5  6  1  0  0  0  0
  6 18  1  0  0  0  0
  7 19  1  1  0  0  0
  7 24  1  0  0  0  0
  8 17  1  0  0  0  0
  8 12  1  0  0  0  0
  9 26  1  0  0  0  0
  9 15  2  0  0  0  0
 10 20  1  0  0  0  0
 10  1  1  0  0  0  0
 10 17  1  0  0  0  0
 11 13  1  0  0  0  0
 12  2  1  0  0  0  0
 13 12  1  0  0  0  0
 13 22  1  0  0  0  0
 14 27  1  0  0  0  0
 14 23  1  0  0  0  0
 16 19  1  0  0  0  0
 17  7  1  0  0  0  0
 18 15  1  0  0  0  0
 20  1  1  0  0  0  0
 21 22  1  0  0  0  0
 22 14  2  0  0  0  0
 23 28  1  0  0  0  0
 27  5  1  0  0  0  0
 28  6  2  0  0  0  0
 28  9  1  0  0  0  0
 29 20  1  0  0  0  0
 30 29  1  0  0  0  0
 30 32  2  0  0  0  0
 31 30  1  0  0  0  0
M  END
>  <MODEL>
1

>  <REMARK>
 VINA RESULT:     -10.0      0.000      0.000
  Name = 
  2 active torsions:
  status: ('A' for Active; 'I' for Inactive)
    1  A    between atoms: C_20  and  O_29
    2  A    between atoms: O_29  and  C_30
                            x       y       z     vdW  Elec       q    Type
                         _______ _______ _______ _____ _____    ______ ____

>  <TORSDO>
F 2

$$$$
=
 OpenBabel11122410353D

 32 38  0  0  1  0  0  0  0  0999 V2000
  187.6560  178.7000  136.8810 C   0  0  1  0  0  3  0  0  0  0  0  0
  187.5970  177.8980  142.0920 C   0  0  0  0  0  0  0  0  0  0  0  0
  183.1080  179.3170  143.2950 C   0  0  0  0  0  3  0  0  0  0  0  0
  183.3640  179.0020  144.7130 C   0  0  0  0  0  3  0  0  0  0  0  0
  189.2840  177.4160  143.8940 C   0  0  0  0  0  0  0  0  0  0  0  0
  189.4830  177.4460  145.3350 C   0  0  0  0  0  0  0  0  0  0  0  0
  188.1930  177.6630  139.6600 C   0  0  1  0  0  3  0  0  0  0  0  0
  185.8520  178.1510  140.2710 C   0  0  0  0  0  2  0  0  0  0  0  0
  189.0110  177.6480  147.5270 C   0  0  0  0  0  0  0  0  0  0  0  0
  186.5180  178.5700  137.8940 C   0  0  2  0  0  3  0  0  0  0  0  0
  183.9480  178.9120  142.3370 C   0  0  0  0  0  3  0  0  0  0  0  0
  186.2310  178.1910  141.6910 N   0  0  0  0  0  0  0  0  0  0  0  0
  185.1310  178.0230  142.6510 C   0  0  1  0  0  3  0  0  0  0  0  0
  186.8340  177.9310  144.4500 C   0  0  0  0  0  0  0  0  0  0  0  0
  190.2680  177.3610  147.3790 N   0  0  0  0  0  0  0  0  0  0  0  0
  189.0550  178.7970  137.5240 C   0  0  0  0  0  2  0  0  0  0  0  0
  186.9940  178.5650  139.3610 C   0  0  2  0  0  3  0  0  0  0  0  0
  190.5680  177.2320  146.0050 N   0  0  0  0  0  0  0  0  0  0  0  0
  189.3390  177.7980  138.6530 C   0  0  0  0  0  2  0  0  0  0  0  0
  186.9640  177.3580  137.0840 C   0  0  1  0  0  3  0  0  0  0  0  0
  184.5290  178.4720  145.0960 C   0  0  0  0  0  3  0  0  0  0  0  0
  185.5670  178.1650  144.0890 C   0  0  0  0  0  0  0  0  0  0  0  0
  187.1830  177.9420  145.8560 N   0  0  0  0  0  0  0  0  0  0  0  0
  188.6970  177.9590  141.0590 C   0  0  0  0  0  2  0  0  0  0  0  0
  190.2370  177.1120  143.1270 O   0  0  0  0  0  0  0  0  0  0  0  0
  188.3460  177.8480  148.8420 C   0  0  0  0  0  1  0  0  0  0  0  0
  187.9000  177.7260  143.4030 C   0  0  0  0  0  0  0  0  0  0  0  0
  188.4060  177.7250  146.2200 C   0  0  0  0  0  0  0  0  0  0  0  0
  186.0450  177.1360  136.0260 O   0  0  0  0  0  0  0  0  0  0  0  0
  184.7690  176.6120  136.2440 C   0  0  0  0  0  0  0  0  0  0  0  0
  184.5350  175.5040  137.2160 C   0  0  0  0  0  1  0  0  0  0  0  0
  183.7920  177.0840  135.6070 O   0  0  0  0  0  0  0  0  0  0  0  0
  1 20  1  0  0  0  0
  1 16  1  1  0  0  0
  1 10  1  0  0  0  0
  2 27  2  0  0  0  0
  3  4  1  0  0  0  0
  4 21  2  0  0  0  0
  5  6  1  0  0  0  0
  6 18  2  0  0  0  0
  6 28  1  0  0  0  0
  7 19  1  6  0  0  0
  7 24  1  0  0  0  0
  8 12  1  0  0  0  0
  9 26  1  0  0  0  0
 10 17  1  0  0  0  0
 11 13  1  0  0  0  0
 11  3  2  0  0  0  0
 12  2  1  0  0  0  0
 12 13  1  0  0  0  0
 13 22  1  0  0  0  0
 14 23  1  0  0  0  0
 15  9  2  0  0  0  0
 16 19  1  0  0  0  0
 17  7  1  0  0  0  0
 17  8  1  0  0  0  0
 18 15  1  0  0  0  0
 20 10  1  0  0  0  0
 22 14  2  0  0  0  0
 22 21  1  0  0  0  0
 23 28  2  0  0  0  0
 24  2  1  0  0  0  0
 25  5  2  0  0  0  0
 27  5  1  0  0  0  0
 27 14  1  0  0  0  0
 28  9  1  0  0  0  0
 29 30  1  0  0  0  0
 29 20  1  0  0  0  0
 30 31  1  0  0  0  0
 32 30  2  0  0  0  0
M  END
>  <MODEL>
2

>  <REMARK>
 VINA RESULT:      -9.8      2.768      4.877
  Name = 
  2 active torsions:
  status: ('A' for Active; 'I' for Inactive)
    1  A    between atoms: C_20  and  O_29
    2  A    between atoms: O_29  and  C_30
                            x       y       z     vdW  Elec       q    Type
                         _______ _______ _______ _____ _____    ______ ____

>  <TORSDO>
F 2

$$$$
=
 OpenBabel11122410353D

 32 38  0  0  1  0  0  0  0  0999 V2000
  189.2280  177.9290  147.8640 C   0  0  1  0  0  3  0  0  0  0  0  0
  186.2800  178.1110  143.4960 C   0  0  0  0  0  0  0  0  0  0  0  0
  189.6460  178.2360  139.9940 C   0  0  0  0  0  3  0  0  0  0  0  0
  188.5970  178.2810  138.9570 C   0  0  0  0  0  3  0  0  0  0  0  0
  183.8640  178.5210  142.9290 C   0  0  0  0  0  0  0  0  0  0  0  0
  182.9740  178.8750  141.8330 C   0  0  0  0  0  0  0  0  0  0  0  0
  186.9940  177.6380  145.8600 C   0  0  1  0  0  3  0  0  0  0  0  0
  188.6670  177.4650  144.0530 C   0  0  0  0  0  2  0  0  0  0  0  0
  182.2760  179.3120  139.7380 C   0  0  0  0  0  0  0  0  0  0  0  0
  189.5360  177.6320  146.3960 C   0  0  2  0  0  3  0  0  0  0  0  0
  189.3450  177.9500  141.2650 C   0  0  0  0  0  3  0  0  0  0  0  0
  187.6520  177.8800  143.0750 N   0  0  0  0  0  0  0  0  0  0  0  0
  187.9440  177.5510  141.6720 C   0  0  1  0  0  3  0  0  0  0  0  0
  185.6590  178.3300  141.1060 C   0  0  0  0  0  0  0  0  0  0  0  0
  181.2750  179.4140  140.5590 N   0  0  0  0  0  0  0  0  0  0  0  0
  187.8470  178.5770  148.0930 C   0  0  0  0  0  2  0  0  0  0  0  0
  188.4060  178.0450  145.4310 C   0  0  2  0  0  3  0  0  0  0  0  0
  181.7090  179.1390  141.8740 N   0  0  0  0  0  2  0  0  0  0  0  0
  186.6790  177.9410  147.3280 C   0  0  0  0  0  2  0  0  0  0  0  0
  189.1710  176.4970  147.3450 C   0  0  1  0  0  3  0  0  0  0  0  0
  187.3050  178.2240  139.2890 C   0  0  0  0  0  3  0  0  0  0  0  0
  186.9120  178.0830  140.7070 C   0  0  2  0  0  3  0  0  0  0  0  0
  184.6640  178.7060  140.1240 N   0  0  0  0  0  0  0  0  0  0  0  0
  185.9860  178.3270  144.9620 C   0  0  0  0  0  2  0  0  0  0  0  0
  183.4140  178.3990  144.0990 O   0  0  0  0  0  0  0  0  0  0  0  0
  182.1810  179.5280  138.2700 C   0  0  0  0  0  1  0  0  0  0  0  0
  185.3030  178.2840  142.5710 C   0  0  0  0  0  0  0  0  0  0  0  0
  183.4500  178.9560  140.4960 C   0  0  0  0  0  0  0  0  0  0  0  0
  190.3500  175.8080  147.7290 O   0  0  0  0  0  0  0  0  0  0  0  0
  191.6170  176.1900  147.2800 C   0  0  0  0  0  0  0  0  0  0  0  0
  192.0420  175.9740  145.8660 C   0  0  0  0  0  1  0  0  0  0  0  0
  192.4190  176.7290  148.0850 O   0  0  0  0  0  0  0  0  0  0  0  0
  1 16  1  6  0  0  0
  2 24  1  0  0  0  0
  3 11  2  0  0  0  0
  4 21  2  0  0  0  0
  4  3  1  0  0  0  0
  5 25  2  0  0  0  0
  6 18  1  0  0  0  0
  6  5  1  0  0  0  0
  7 24  1  6  0  0  0
  7 19  1  0  0  0  0
  8 17  1  0  0  0  0
  9 28  1  0  0  0  0
  9 15  2  0  0  0  0
 10 20  1  0  0  0  0
 10  1  1  0  0  0  0
 11 13  1  0  0  0  0
 12  2  1  0  0  0  0
 12  8  1  0  0  0  0
 13 12  1  0  0  0  0
 14 27  1  0  0  0  0
 15 18  1  0  0  0  0
 17  7  1  0  0  0  0
 17 10  1  0  0  0  0
 19 16  1  0  0  0  0
 20 29  1  0  0  0  0
 20  1  1  0  0  0  0
 21 22  1  0  0  0  0
 22 14  1  0  0  0  0
 22 13  1  0  0  0  0
 23 28  1  0  0  0  0
 23 14  2  0  0  0  0
 26  9  1  0  0  0  0
 27  5  1  0  0  0  0
 27  2  2  0  0  0  0
 28  6  2  0  0  0  0
 30 29  1  0  0  0  0
 30 32  2  0  0  0  0
 31 30  1  0  0  0  0
M  END
>  <MODEL>
3

>  <REMARK>
 VINA RESULT:      -9.7      2.460      8.166
  Name = 
  2 active torsions:
  status: ('A' for Active; 'I' for Inactive)
    1  A    between atoms: C_20  and  O_29
    2  A    between atoms: O_29  and  C_30
                            x       y       z     vdW  Elec       q    Type
                         _______ _______ _______ _____ _____    ______ ____

>  <TORSDO>
F 2

$$$$
=
 OpenBabel11122410353D

 32 38  0  0  1  0  0  0  0  0999 V2000
  192.3210  175.3880  136.5360 C   0  0  1  0  0  3  0  0  0  0  0  0
  189.0620  177.4540  140.1310 C   0  0  0  0  0  0  0  0  0  0  0  0
  191.3520  176.4330  144.2930 C   0  0  0  0  0  3  0  0  0  0  0  0
  190.2800  177.0850  145.0690 C   0  0  0  0  0  3  0  0  0  0  0  0
  186.7110  178.3450  140.1790 C   0  0  0  0  0  0  0  0  0  0  0  0
  185.6110  178.6690  141.0760 C   0  0  0  0  0  0  0  0  0  0  0  0
  190.2610  177.0730  137.9530 C   0  0  1  0  0  3  0  0  0  0  0  0
  191.5050  176.7810  140.0640 C   0  0  0  0  0  2  0  0  0  0  0  0
  184.4850  179.0210  142.9930 C   0  0  0  0  0  0  0  0  0  0  0  0
  192.5130  175.7800  138.0020 C   0  0  2  0  0  3  0  0  0  0  0  0
  191.4270  176.5780  142.9660 C   0  0  0  0  0  3  0  0  0  0  0  0
  190.2860  177.0880  140.8250 N   0  0  0  0  0  0  0  0  0  0  0  0
  190.4910  177.5020  142.2200 C   0  0  1  0  0  3  0  0  0  0  0  0
  188.0670  178.0140  142.3310 C   0  0  0  0  0  0  0  0  0  0  0  0
  183.7020  179.2470  141.9820 N   0  0  0  0  0  0  0  0  0  0  0  0
  190.8520  175.4350  136.0650 C   0  0  0  0  0  2  0  0  0  0  0  0
  191.1980  176.1400  138.7230 C   0  0  2  0  0  3  0  0  0  0  0  0
  184.4060  179.0280  140.7780 N   0  0  0  0  0  0  0  0  0  0  0  0
  190.0580  176.6790  136.4870 C   0  0  0  0  0  2  0  0  0  0  0  0
  192.9080  176.7480  136.8930 C   0  0  1  0  0  3  0  0  0  0  0  0
  189.2540  177.6790  144.4530 C   0  0  0  0  0  3  0  0  0  0  0  0
  189.2010  177.7150  142.9750 C   0  0  0  0  0  0  0  0  0  0  0  0
  186.8840  178.3460  143.0960 N   0  0  0  0  0  0  0  0  0  0  0  0
  188.9220  177.1260  138.6630 C   0  0  0  0  0  2  0  0  0  0  0  0
  186.5610  178.4380  138.9310 O   0  0  0  0  0  0  0  0  0  0  0  0
  184.0780  179.1610  144.4160 C   0  0  0  0  0  1  0  0  0  0  0  0
  188.0040  177.9410  140.8250 C   0  0  0  0  0  0  0  0  0  0  0  0
  185.7780  178.6310  142.4870 C   0  0  0  0  0  0  0  0  0  0  0  0
  194.3170  176.7130  136.7200 O   0  0  0  0  0  0  0  0  0  0  0  0
  194.9110  176.5980  135.4610 C   0  0  0  0  0  0  0  0  0  0  0  0
  195.7990  175.4490  135.1180 C   0  0  0  0  0  1  0  0  0  0  0  0
  194.6930  177.4830  134.5940 O   0  0  0  0  0  0  0  0  0  0  0  0
  1 16  1  1  0  0  0
  1 20  1  0  0  0  0
  1 10  1  0  0  0  0
  2 12  1  0  0  0  0
  2 27  2  0  0  0  0
  3  4  1  0  0  0  0
  5 27  1  0  0  0  0
  5  6  1  0  0  0  0
  6 28  1  0  0  0  0
  7 19  1  6  0  0  0
  7 24  1  0  0  0  0
  7 17  1  0  0  0  0
  8 12  1  0  0  0  0
  9 26  1  0  0  0  0
 10 17  1  0  0  0  0
 11  3  2  0  0  0  0
 12 13  1  0  0  0  0
 13 11  1  0  0  0  0
 13 22  1  0  0  0  0
 14 22  2  0  0  0  0
 14 23  1  0  0  0  0
 15  9  2  0  0  0  0
 16 19  1  0  0  0  0
 17  8  1  0  0  0  0
 18  6  2  0  0  0  0
 18 15  1  0  0  0  0
 20 10  1  0  0  0  0
 21  4  2  0  0  0  0
 22 21  1  0  0  0  0
 24  2  1  0  0  0  0
 25  5  2  0  0  0  0
 27 14  1  0  0  0  0
 28  9  1  0  0  0  0
 28 23  2  0  0  0  0
 29 20  1  0  0  0  0
 30 29  1  0  0  0  0
 31 30  1  0  0  0  0
 32 30  2  0  0  0  0
M  END
>  <MODEL>
4

>  <REMARK>
 VINA RESULT:      -9.1      4.366      8.186
  Name = 
  2 active torsions:
  status: ('A' for Active; 'I' for Inactive)
    1  A    between atoms: C_20  and  O_29
    2  A    between atoms: O_29  and  C_30
                            x       y       z     vdW  Elec       q    Type
                         _______ _______ _______ _____ _____    ______ ____

>  <TORSDO>
F 2

$$$$
=
 OpenBabel11122410353D

 32 38  0  0  1  0  0  0  0  0999 V2000
  191.6630  175.6270  146.9920 C   0  0  1  0  0  3  0  0  0  0  0  0
  188.1950  177.7030  143.6040 C   0  0  0  0  0  0  0  0  0  0  0  0
  184.2720  178.3180  146.4030 C   0  0  0  0  0  3  0  0  0  0  0  0
  183.5180  178.8730  145.2630 C   0  0  0  0  0  3  0  0  0  0  0  0
  188.0180  178.0020  141.1130 C   0  0  0  0  0  0  0  0  0  0  0  0
  187.0700  178.2720  140.0420 C   0  0  0  0  0  0  0  0  0  0  0  0
  190.3800  177.0820  144.6830 C   0  0  1  0  0  3  0  0  0  0  0  0
  188.4520  177.6260  146.1240 C   0  0  0  0  0  2  0  0  0  0  0  0
  185.1410  178.8180  139.0180 C   0  0  0  0  0  0  0  0  0  0  0  0
  190.3610  176.4060  147.1910 C   0  0  2  0  0  3  0  0  0  0  0  0
  185.5950  178.1410  146.3330 C   0  0  0  0  0  3  0  0  0  0  0  0
  187.6150  177.8190  144.9320 N   0  0  0  0  0  0  0  0  0  0  0  0
  186.3890  178.6040  145.1320 C   0  0  1  0  0  3  0  0  0  0  0  0
  186.0570  178.5450  142.6750 C   0  0  0  0  0  0  0  0  0  0  0  0
  186.0570  178.5950  138.1260 N   0  0  0  0  0  0  0  0  0  0  0  0
  191.9220  175.2110  145.5290 C   0  0  0  0  0  2  0  0  0  0  0  0
  189.5610  176.6170  145.8890 C   0  0  2  0  0  3  0  0  0  0  0  0
  187.2690  178.2530  138.7640 N   0  0  0  0  0  0  0  0  0  0  0  0
  191.6800  176.2980  144.4750 C   0  0  0  0  0  2  0  0  0  0  0  0
  191.7010  177.1320  147.2310 C   0  0  1  0  0  3  0  0  0  0  0  0
  184.1010  179.0370  144.0730 C   0  0  0  0  0  3  0  0  0  0  0  0
  185.5270  178.6900  143.8950 C   0  0  0  0  0  0  0  0  0  0  0  0
  185.2260  178.7710  141.5100 N   0  0  0  0  0  0  0  0  0  0  0  0
  189.5190  176.9950  143.4380 C   0  0  0  0  0  2  0  0  0  0  0  0
  189.2220  177.7420  140.8460 O   0  0  0  0  0  0  0  0  0  0  0  0
  183.7420  179.2090  138.7030 C   0  0  0  0  0  1  0  0  0  0  0  0
  187.4850  178.0860  142.5140 C   0  0  0  0  0  0  0  0  0  0  0  0
  185.7230  178.6280  140.3240 C   0  0  0  0  0  0  0  0  0  0  0  0
  192.0570  177.3860  148.5820 O   0  0  0  0  0  0  0  0  0  0  0  0
  193.1530  176.7720  149.1920 C   0  0  0  0  0  0  0  0  0  0  0  0
  193.8620  177.4040  150.3430 C   0  0  0  0  0  1  0  0  0  0  0  0
  193.5550  175.6600  148.7620 O   0  0  0  0  0  0  0  0  0  0  0  0
  1 16  1  6  0  0  0
  1 10  1  0  0  0  0
  1 20  1  0  0  0  0
  2 12  1  0  0  0  0
  4  3  1  0  0  0  0
  5 27  1  0  0  0  0
  6 28  1  0  0  0  0
  6  5  1  0  0  0  0
  7 24  1  6  0  0  0
  7 17  1  0  0  0  0
  9 28  1  0  0  0  0
 10 20  1  0  0  0  0
 11  3  2  0  0  0  0
 12 13  1  0  0  0  0
 12  8  1  0  0  0  0
 13 11  1  0  0  0  0
 14 22  2  0  0  0  0
 15 18  1  0  0  0  0
 15  9  2  0  0  0  0
 17  8  1  0  0  0  0
 17 10  1  0  0  0  0
 18  6  2  0  0  0  0
 19  7  1  0  0  0  0
 19 16  1  0  0  0  0
 20 29  1  0  0  0  0
 21  4  2  0  0  0  0
 22 21  1  0  0  0  0
 22 13  1  0  0  0  0
 23 14  1  0  0  0  0
 24  2  1  0  0  0  0
 25  5  2  0  0  0  0
 26  9  1  0  0  0  0
 27 14  1  0  0  0  0
 27  2  2  0  0  0  0
 28 23  2  0  0  0  0
 29 30  1  0  0  0  0
 30 31  1  0  0  0  0
 32 30  2  0  0  0  0
M  END
>  <MODEL>
5

>  <REMARK>
 VINA RESULT:      -9.1      3.118      9.506
  Name = 
  2 active torsions:
  status: ('A' for Active; 'I' for Inactive)
    1  A    between atoms: C_20  and  O_29
    2  A    between atoms: O_29  and  C_30
                            x       y       z     vdW  Elec       q    Type
                         _______ _______ _______ _____ _____    ______ ____

>  <TORSDO>
F 2

$$$$
=
 OpenBabel11122410353D

 32 38  0  0  1  0  0  0  0  0999 V2000
  189.8610  176.5600  146.6080 C   0  0  1  0  0  3  0  0  0  0  0  0
  188.4240  177.8290  141.6950 C   0  0  0  0  0  0  0  0  0  0  0  0
  183.6010  178.2490  142.1160 C   0  0  0  0  0  3  0  0  0  0  0  0
  183.4830  178.5860  140.6850 C   0  0  0  0  0  3  0  0  0  0  0  0
  189.4890  177.8410  139.4170 C   0  0  0  0  0  0  0  0  0  0  0  0
  189.1850  177.8800  137.9940 C   0  0  0  0  0  0  0  0  0  0  0  0
  189.8160  177.5970  143.7770 C   0  0  1  0  0  3  0  0  0  0  0  0
  187.3990  178.0480  144.0040 C   0  0  0  0  0  2  0  0  0  0  0  0
  187.9910  178.0750  136.0960 C   0  0  0  0  0  0  0  0  0  0  0  0
  188.5910  177.1900  146.0320 C   0  0  2  0  0  3  0  0  0  0  0  0
  184.7930  178.2290  142.7230 C   0  0  0  0  0  3  0  0  0  0  0  0
  187.2560  178.0120  142.5410 N   0  0  0  0  0  0  0  0  0  0  0  0
  186.0510  178.6570  142.0010 C   0  0  1  0  0  3  0  0  0  0  0  0
  186.9860  178.3020  139.7320 C   0  0  0  0  0  0  0  0  0  0  0  0
  189.2400  177.8730  135.8040 N   0  0  0  0  0  0  0  0  0  0  0  0
  190.8340  176.0270  145.5360 C   0  0  0  0  0  2  0  0  0  0  0  0
  188.5330  177.1640  144.4910 C   0  0  2  0  0  3  0  0  0  0  0  0
  189.9920  177.7510  136.9930 N   0  0  0  0  0  0  0  0  0  0  0  0
  191.0880  176.9610  144.3450 C   0  0  0  0  0  2  0  0  0  0  0  0
  189.6930  178.0750  146.6050 C   0  0  1  0  0  3  0  0  0  0  0  0
  184.5700  178.6940  139.9160 C   0  0  0  0  0  3  0  0  0  0  0  0
  185.9130  178.5070  140.5060 C   0  0  0  0  0  0  0  0  0  0  0  0
  186.8310  178.3010  138.2920 N   0  0  0  0  0  0  0  0  0  0  0  0
  189.6920  177.2750  142.3000 C   0  0  0  0  0  2  0  0  0  0  0  0
  190.6790  177.7050  139.8090 O   0  0  0  0  0  0  0  0  0  0  0  0
  186.9140  178.2570  135.0880 C   0  0  0  0  0  1  0  0  0  0  0  0
  188.3280  178.0060  140.3540 C   0  0  0  0  0  0  0  0  0  0  0  0
  187.8580  178.0950  137.5320 C   0  0  0  0  0  0  0  0  0  0  0  0
  189.3170  178.5100  147.9030 O   0  0  0  0  0  0  0  0  0  0  0  0
  188.0220  178.3480  148.3980 C   0  0  0  0  0  0  0  0  0  0  0  0
  186.8610  179.0720  147.8020 C   0  0  0  0  0  1  0  0  0  0  0  0
  187.8260  177.5730  149.3690 O   0  0  0  0  0  0  0  0  0  0  0  0
  1 16  1  6  0  0  0
  2 24  1  0  0  0  0
  2 12  1  0  0  0  0
  3 11  2  0  0  0  0
  4  3  1  0  0  0  0
  5 25  2  0  0  0  0
  5 27  1  0  0  0  0
  6  5  1  0  0  0  0
  7 24  1  6  0  0  0
  7 19  1  0  0  0  0
  7 17  1  0  0  0  0
  8 17  1  0  0  0  0
  9 28  1  0  0  0  0
 10 20  1  0  0  0  0
 10  1  1  0  0  0  0
 12  8  1  0  0  0  0
 13 12  1  0  0  0  0
 13 11  1  0  0  0  0
 14 27  1  0  0  0  0
 14 22  2  0  0  0  0
 15  9  2  0  0  0  0
 15 18  1  0  0  0  0
 17 10  1  0  0  0  0
 18  6  2  0  0  0  0
 19 16  1  0  0  0  0
 20  1  1  0  0  0  0
 20 29  1  0  0  0  0
 21 22  1  0  0  0  0
 21  4  2  0  0  0  0
 22 13  1  0  0  0  0
 23 14  1  0  0  0  0
 26  9  1  0  0  0  0
 27  2  2  0  0  0  0
 28  6  1  0  0  0  0
 28 23  2  0  0  0  0
 29 30  1  0  0  0  0
 30 32  2  0  0  0  0
 31 30  1  0  0  0  0
M  END
>  <MODEL>
6

>  <REMARK>
 VINA RESULT:      -9.0      3.413      8.495
  Name = 
  2 active torsions:
  status: ('A' for Active; 'I' for Inactive)
    1  A    between atoms: C_20  and  O_29
    2  A    between atoms: O_29  and  C_30
                            x       y       z     vdW  Elec       q    Type
                         _______ _______ _______ _____ _____    ______ ____

>  <TORSDO>
F 2

$$$$
=
 OpenBabel11122410353D

 32 38  0  0  1  0  0  0  0  0999 V2000
  181.5400  179.7320  139.3890 C   0  0  1  0  0  3  0  0  0  0  0  0
  185.8960  178.2670  141.9750 C   0  0  0  0  0  0  0  0  0  0  0  0
  184.5660  178.8240  146.6150 C   0  0  0  0  0  3  0  0  0  0  0  0
  185.8940  178.3720  147.0740 C   0  0  0  0  0  3  0  0  0  0  0  0
  188.3050  177.8180  141.4070 C   0  0  0  0  0  0  0  0  0  0  0  0
  189.6310  177.6930  141.9920 C   0  0  0  0  0  0  0  0  0  0  0  0
  184.1490  178.4400  140.1750 C   0  0  1  0  0  3  0  0  0  0  0  0
  183.4340  178.4850  142.5370 C   0  0  0  0  0  2  0  0  0  0  0  0
  191.2410  177.5380  143.5580 C   0  0  0  0  0  0  0  0  0  0  0  0
  181.7890  179.3010  140.8350 C   0  0  2  0  0  3  0  0  0  0  0  0
  184.1910  178.6770  145.3410 C   0  0  0  0  0  3  0  0  0  0  0  0
  184.8380  178.3990  142.9630 N   0  0  0  0  0  0  0  0  0  0  0  0
  185.0600  177.9450  144.3430 C   0  0  1  0  0  3  0  0  0  0  0  0
  187.4870  177.8810  143.8370 C   0  0  0  0  0  0  0  0  0  0  0  0
  191.7760  177.4660  142.3780 N   0  0  0  0  0  0  0  0  0  0  0  0
  182.8320  179.9560  138.5750 C   0  0  0  0  0  2  0  0  0  0  0  0
  183.2830  179.1810  141.1970 C   0  0  2  0  0  3  0  0  0  0  0  0
  190.7690  177.5620  141.3930 N   0  0  0  0  0  0  0  0  0  0  0  0
  183.9100  178.8750  138.7260 C   0  0  0  0  0  2  0  0  0  0  0  0
  181.3060  178.2850  139.8060 C   0  0  1  0  0  3  0  0  0  0  0  0
  186.8220  177.9790  146.1970 C   0  0  0  0  0  3  0  0  0  0  0  0
  186.5140  177.9650  144.7510 C   0  0  0  0  0  0  0  0  0  0  0  0
  188.8620  177.7640  144.2750 N   0  0  0  0  0  0  0  0  0  0  0  0
  185.6090  178.6260  140.5370 C   0  0  0  0  0  2  0  0  0  0  0  0
  188.1540  177.7640  140.1560 O   0  0  0  0  0  0  0  0  0  0  0  0
  192.0050  177.4640  144.8310 C   0  0  0  0  0  1  0  0  0  0  0  0
  187.1610  177.9760  142.3670 C   0  0  0  0  0  0  0  0  0  0  0  0
  189.8150  177.6900  143.4020 C   0  0  0  0  0  0  0  0  0  0  0  0
  179.9150  178.0650  139.9820 O   0  0  0  0  0  0  0  0  0  0  0  0
  179.4140  177.2010  140.9580 C   0  0  0  0  0  0  0  0  0  0  0  0
  179.1860  175.7520  140.6770 C   0  0  0  0  0  1  0  0  0  0  0  0
  179.1480  177.6510  142.1020 O   0  0  0  0  0  0  0  0  0  0  0  0
  1 16  1  6  0  0  0
  1 20  1  0  0  0  0
  1 10  1  0  0  0  0
  2 27  2  0  0  0  0
  2 12  1  0  0  0  0
  3  4  1  0  0  0  0
  5  6  1  0  0  0  0
  5 27  1  0  0  0  0
  6 28  1  0  0  0  0
  7 19  1  6  0  0  0
  7 24  1  0  0  0  0
  7 17  1  0  0  0  0
  8 12  1  0  0  0  0
  9 26  1  0  0  0  0
 10 17  1  0  0  0  0
 11  3  2  0  0  0  0
 12 13  1  0  0  0  0
 13 22  1  0  0  0  0
 13 11  1  0  0  0  0
 14 23  1  0  0  0  0
 14 22  2  0  0  0  0
 15  9  2  0  0  0  0
 16 19  1  0  0  0  0
 17  8  1  0  0  0  0
 18  6  2  0  0  0  0
 18 15  1  0  0  0  0
 20 29  1  0  0  0  0
 20 10  1  0  0  0  0
 21  4  2  0  0  0  0
 22 21  1  0  0  0  0
 24  2  1  0  0  0  0
 25  5  2  0  0  0  0
 27 14  1  0  0  0  0
 28  9  1  0  0  0  0
 28 23  2  0  0  0  0
 29 30  1  0  0  0  0
 30 32  2  0  0  0  0
 31 30  1  0  0  0  0
M  END
>  <MODEL>
7

>  <REMARK>
 VINA RESULT:      -9.0      2.280      4.471
  Name = 
  2 active torsions:
  status: ('A' for Active; 'I' for Inactive)
    1  A    between atoms: C_20  and  O_29
    2  A    between atoms: O_29  and  C_30
                            x       y       z     vdW  Elec       q    Type
                         _______ _______ _______ _____ _____    ______ ____

>  <TORSDO>
F 2

$$$$
=
 OpenBabel11122410353D

 32 38  0  0  1  0  0  0  0  0999 V2000
  190.8040  177.7540  144.8330 C   0  0  1  0  0  3  0  0  0  0  0  0
  186.7750  178.1450  141.4540 C   0  0  0  0  0  0  0  0  0  0  0  0
  189.0550  178.8350  137.2190 C   0  0  0  0  0  3  0  0  0  0  0  0
  187.7630  178.9060  136.5090 C   0  0  0  0  0  3  0  0  0  0  0  0
  184.2810  178.4390  141.5980 C   0  0  0  0  0  0  0  0  0  0  0  0
  183.1130  178.8320  140.8240 C   0  0  0  0  0  0  0  0  0  0  0  0
  188.1240  177.5000  143.4760 C   0  0  1  0  0  3  0  0  0  0  0  0
  189.2480  177.6160  141.2810 C   0  0  0  0  0  2  0  0  0  0  0  0
  181.8540  179.4170  139.0510 C   0  0  0  0  0  0  0  0  0  0  0  0
  190.7140  177.6210  143.3120 C   0  0  2  0  0  3  0  0  0  0  0  0
  189.1230  178.4090  138.4840 C   0  0  0  0  0  3  0  0  0  0  0  0
  187.9890  178.0510  140.6600 N   0  0  0  0  0  0  0  0  0  0  0  0
  187.9030  177.8780  139.2030 C   0  0  1  0  0  3  0  0  0  0  0  0
  185.5200  178.5460  139.3540 C   0  0  0  0  0  0  0  0  0  0  0  0
  181.1110  179.3700  140.1150 N   0  0  0  0  0  0  0  0  0  0  0  0
  189.5120  178.2800  145.4910 C   0  0  0  0  0  2  0  0  0  0  0  0
  189.3470  178.0440  142.7340 C   0  0  2  0  0  3  0  0  0  0  0  0
  181.8970  179.0030  141.2280 N   0  0  0  0  0  2  0  0  0  0  0  0
  188.2070  177.6410  144.9990 C   0  0  0  0  0  2  0  0  0  0  0  0
  190.6670  176.3780  144.1930 C   0  0  1  0  0  3  0  0  0  0  0  0
  186.6130  178.7280  137.1640 C   0  0  0  0  0  3  0  0  0  0  0  0
  186.6260  178.4250  138.6110 C   0  0  0  0  0  0  0  0  0  0  0  0
  184.2800  178.9440  138.7190 N   0  0  0  0  0  2  0  0  0  0  0  0
  186.8820  178.2000  142.9590 C   0  0  0  0  0  2  0  0  0  0  0  0
  184.1710  178.1750  142.8250 O   0  0  0  0  0  0  0  0  0  0  0  0
  181.3550  179.7640  137.6950 C   0  0  0  0  0  1  0  0  0  0  0  0
  185.5780  178.3370  140.8470 C   0  0  0  0  0  0  0  0  0  0  0  0
  183.2040  179.0730  139.4260 C   0  0  0  0  0  0  0  0  0  0  0  0
  191.9340  175.7390  144.1720 O   0  0  0  0  0  0  0  0  0  0  0  0
  192.3360  174.8450  145.1670 C   0  0  0  0  0  0  0  0  0  0  0  0
  192.4100  175.2530  146.6010 C   0  0  0  0  0  1  0  0  0  0  0  0
  192.6420  173.6660  144.8490 O   0  0  0  0  0  0  0  0  0  0  0  0
  1 16  1  1  0  0  0
  2 24  1  0  0  0  0
  3 11  2  0  0  0  0
  4 21  2  0  0  0  0
  4  3  1  0  0  0  0
  5 25  2  0  0  0  0
  6 18  1  0  0  0  0
  6  5  1  0  0  0  0
  7 24  1  6  0  0  0
  7 19  1  0  0  0  0
  8 17  1  0  0  0  0
  9 28  1  0  0  0  0
  9 15  2  0  0  0  0
 10 20  1  0  0  0  0
 10  1  1  0  0  0  0
 11 13  1  0  0  0  0
 12  8  1  0  0  0  0
 12  2  1  0  0  0  0
 13 12  1  0  0  0  0
 14 27  1  0  0  0  0
 15 18  1  0  0  0  0
 17 10  1  0  0  0  0
 17  7  1  0  0  0  0
 19 16  1  0  0  0  0
 20  1  1  0  0  0  0
 21 22  1  0  0  0  0
 22 13  1  0  0  0  0
 22 14  2  0  0  0  0
 23 14  1  0  0  0  0
 23 28  1  0  0  0  0
 26  9  1  0  0  0  0
 27  2  2  0  0  0  0
 27  5  1  0  0  0  0
 28  6  2  0  0  0  0
 29 20  1  0  0  0  0
 29 30  1  0  0  0  0
 30 31  1  0  0  0  0
 32 30  2  0  0  0  0
M  END
>  <MODEL>
8

>  <REMARK>
 VINA RESULT:      -8.7      2.968      8.374
  Name = 
  2 active torsions:
  status: ('A' for Active; 'I' for Inactive)
    1  A    between atoms: C_20  and  O_29
    2  A    between atoms: O_29  and  C_30
                            x       y       z     vdW  Elec       q    Type
                         _______ _______ _______ _____ _____    ______ ____

>  <TORSDO>
F 2

$$$$
=
 OpenBabel11122410353D

 32 38  0  0  1  0  0  0  0  0999 V2000
  185.8190  177.8670  144.4710 C   0  0  1  0  0  3  0  0  0  0  0  0
  189.0610  177.5910  140.3210 C   0  0  0  0  0  0  0  0  0  0  0  0
  185.9460  177.5030  136.5930 C   0  0  0  0  0  3  0  0  0  0  0  0
  187.0630  177.4280  135.6320 C   0  0  0  0  0  3  0  0  0  0  0  0
  191.5020  177.1280  139.9270 C   0  0  0  0  0  0  0  0  0  0  0  0
  192.4590  176.7480  138.8990 C   0  0  0  0  0  0  0  0  0  0  0  0
  188.1930  178.0970  142.6260 C   0  0  1  0  0  3  0  0  0  0  0  0
  186.6540  178.2880  140.7050 C   0  0  0  0  0  2  0  0  0  0  0  0
  193.2930  176.2790  136.8610 C   0  0  0  0  0  0  0  0  0  0  0  0
  185.6200  178.1570  142.9820 C   0  0  2  0  0  3  0  0  0  0  0  0
  186.1630  177.7940  137.8790 C   0  0  0  0  0  3  0  0  0  0  0  0
  187.7270  177.8450  139.8030 N   0  0  0  0  0  0  0  0  0  0  0  0
  187.5400  178.1680  138.3810 C   0  0  1  0  0  3  0  0  0  0  0  0
  189.8430  177.3400  137.9820 C   0  0  0  0  0  0  0  0  0  0  0  0
  194.2320  176.1640  137.7500 N   0  0  0  0  0  0  0  0  0  0  0  0
  187.1670  177.1930  144.8000 C   0  0  0  0  0  2  0  0  0  0  0  0
  186.8070  177.7140  142.1020 C   0  0  2  0  0  3  0  0  0  0  0  0
  193.7120  176.4590  139.0300 N   0  0  0  0  0  2  0  0  0  0  0  0
  188.3980  177.7990  144.1140 C   0  0  0  0  0  2  0  0  0  0  0  0
  185.9420  179.2930  143.9470 C   0  0  1  0  0  3  0  0  0  0  0  0
  188.3300  177.4630  136.0530 C   0  0  0  0  0  3  0  0  0  0  0  0
  188.6260  177.6080  137.4940 C   0  0  2  0  0  3  0  0  0  0  0  0
  190.8970  176.9360  137.0740 N   0  0  0  0  0  0  0  0  0  0  0  0
  189.2470  177.3810  141.8050 C   0  0  0  0  0  2  0  0  0  0  0  0
  191.8720  177.2500  141.1260 O   0  0  0  0  0  0  0  0  0  0  0  0
  193.4860  176.0500  135.4050 C   0  0  0  0  0  1  0  0  0  0  0  0
  190.0960  177.3900  139.4680 C   0  0  0  0  0  0  0  0  0  0  0  0
  192.0760  176.6650  137.5320 C   0  0  0  0  0  0  0  0  0  0  0  0
  184.7520  180.0080  144.2430 O   0  0  0  0  0  0  0  0  0  0  0  0
  183.5780  179.3680  144.6460 C   0  0  0  0  0  0  0  0  0  0  0  0
  182.4630  179.1050  143.6890 C   0  0  0  0  0  1  0  0  0  0  0  0
  183.4550  179.0030  145.8430 O   0  0  0  0  0  0  0  0  0  0  0  0
  1 16  1  6  0  0  0
  2 24  1  0  0  0  0
  3 11  2  0  0  0  0
  4 21  2  0  0  0  0
  4  3  1  0  0  0  0
  5 25  2  0  0  0  0
  6 18  1  0  0  0  0
  6  5  1  0  0  0  0
  7 24  1  6  0  0  0
  7 19  1  0  0  0  0
  8 17  1  0  0  0  0
  9 28  1  0  0  0  0
  9 15  2  0  0  0  0
 10 20  1  0  0  0  0
 10  1  1  0  0  0  0
 11 13  1  0  0  0  0
 12  2  1  0  0  0  0
 12  8  1  0  0  0  0
 13 12  1  0  0  0  0
 14 27  1  0  0  0  0
 15 18  1  0  0  0  0
 17  7  1  0  0  0  0
 17 10  1  0  0  0  0
 19 16  1  0  0  0  0
 20 29  1  0  0  0  0
 20  1  1  0  0  0  0
 21 22  1  0  0  0  0
 22 14  1  0  0  0  0
 22 13  1  0  0  0  0
 23 28  1  0  0  0  0
 23 14  2  0  0  0  0
 26  9  1  0  0  0  0
 27  5  1  0  0  0  0
 27  2  2  0  0  0  0
 28  6  2  0  0  0  0
 29 30  1  0  0  0  0
 30 32  2  0  0  0  0
 31 30  1  0  0  0  0
M  END
>  <MODEL>
9

>  <REMARK>
 VINA RESULT:      -8.6      3.722      6.819
  Name = 
  2 active torsions:
  status: ('A' for Active; 'I' for Inactive)
    1  A    between atoms: C_20  and  O_29
    2  A    between atoms: O_29  and  C_30
                            x       y       z     vdW  Elec       q    Type
                         _______ _______ _______ _____ _____    ______ ____

>  <TORSDO>
F 2

$$$$
