=
 OpenBabel11122411213D

 37 43  0  0  1  0  0  0  0  0999 V2000
  188.3930  176.4360  138.6280 C   0  0  0  0  0  2  0  0  0  0  0  0
  190.0380  177.0800  143.2150 C   0  0  0  0  0  0  0  0  0  0  0  0
  186.2100  178.2970  141.8790 C   0  0  0  0  0  0  0  0  0  0  0  0
  189.2400  176.1540  137.4480 N   0  0  0  0  0  0  0  0  0  0  0  0
  185.7530  179.1260  138.2920 O   0  0  0  0  0  0  0  0  0  0  0  0
  187.5540  177.5060  143.6840 C   0  0  0  0  0  0  0  0  0  0  0  0
  186.4270  178.6270  140.4880 C   0  0  0  0  0  0  0  0  0  0  0  0
  187.1700  176.7100  136.0830 C   0  0  0  0  0  0  0  0  0  0  0  0
  187.4000  177.8080  142.3480 C   0  0  0  0  0  0  0  0  0  0  0  0
  185.4210  178.7980  139.5790 C   0  0  0  0  0  0  0  0  0  0  0  0
  186.4370  177.6000  144.5260 C   0  0  0  0  0  3  0  0  0  0  0  0
  188.6900  176.6820  136.1760 C   0  0  0  0  0  2  0  0  0  0  0  0
  188.4210  177.7710  141.3730 N   0  0  0  0  0  0  0  0  0  0  0  0
  191.0880  176.0460  143.4980 C   0  0  0  0  0  1  0  0  0  0  0  0
  183.8880  178.7340  142.0840 O   0  0  0  0  0  0  0  0  0  0  0  0
  185.2220  178.1240  144.0550 C   0  0  0  0  0  3  0  0  0  0  0  0
  189.6860  177.0380  141.6730 C   0  0  0  0  0  2  0  0  0  0  0  0
  186.4520  178.0420  136.2370 C   0  0  0  0  0  2  0  0  0  0  0  0
  186.7250  178.3830  137.6460 C   0  0  1  0  0  3  0  0  0  0  0  0
  185.1170  178.4220  142.6850 C   0  0  0  0  0  0  0  0  0  0  0  0
  187.9130  178.6060  140.2600 C   0  0  1  0  0  3  0  0  0  0  0  0
  188.8380  176.8660  144.1950 C   0  0  0  0  0  2  0  0  0  0  0  0
  184.0920  178.2050  139.6690 C   0  0  0  0  0  0  0  0  0  0  0  0
  190.6760  178.4000  143.5300 C   0  0  0  0  0  1  0  0  0  0  0  0
  188.0140  178.8520  137.8240 O   0  0  0  0  0  0  0  0  0  0  0  0
  186.5770  175.6950  136.1040 O   0  0  0  0  0  0  0  0  0  0  0  0
  188.3720  178.0270  138.9080 C   0  0  2  0  0  3  0  0  0  0  0  0
  183.4310  178.1660  140.8550 C   0  0  0  0  0  3  0  0  0  0  0  0
  183.7710  175.9660  138.7510 N   0  0  0  0  0  0  0  0  0  0  0  0
  183.5570  177.2650  138.6670 C   0  0  0  0  0  0  0  0  0  0  0  0
  182.8850  177.8160  137.5230 C   0  0  0  0  0  3  0  0  0  0  0  0
  181.8550  177.3940  135.3340 O   0  0  0  0  0  1  0  0  0  0  0  0
  182.6750  175.5580  136.6420 C   0  0  0  0  0  3  0  0  0  0  0  0
  182.4830  176.9200  136.5280 C   0  0  0  0  0  0  0  0  0  0  0  0
  183.3440  175.0910  137.8090 C   0  0  0  0  0  3  0  0  0  0  0  0
  190.8230  174.3300  137.1310 C   0  0  0  0  0  1  0  0  0  0  0  0
  189.3520  174.7140  137.2970 C   0  0  0  0  0  2  0  0  0  0  0  0
  2 14  1  0  0  0  0
  2 24  1  0  0  0  0
  2 22  1  0  0  0  0
  3  9  2  0  0  0  0
  3 20  1  0  0  0  0
  4  1  1  0  0  0  0
  5 10  1  0  0  0  0
  6 22  1  0  0  0  0
  6 11  2  0  0  0  0
  7  3  1  0  0  0  0
  8 26  2  0  0  0  0
  8 12  1  0  0  0  0
  8 18  1  0  0  0  0
  9  6  1  0  0  0  0
 10 23  1  0  0  0  0
 10  7  2  0  0  0  0
 12  4  1  0  0  0  0
 13 17  1  0  0  0  0
 13  9  1  0  0  0  0
 15 20  1  0  0  0  0
 16 11  1  0  0  0  0
 17  2  1  0  0  0  0
 19 18  1  6  0  0  0
 19 25  1  0  0  0  0
 19  5  1  0  0  0  0
 20 16  2  0  0  0  0
 21  7  1  6  0  0  0
 21 13  1  0  0  0  0
 23 28  2  0  0  0  0
 25 27  1  0  0  0  0
 27  1  1  6  0  0  0
 27 21  1  0  0  0  0
 28 15  1  0  0  0  0
 30 29  1  0  0  0  0
 30 23  1  0  0  0  0
 31 30  2  0  0  0  0
 32 34  1  0  0  0  0
 33 35  1  0  0  0  0
 34 33  2  0  0  0  0
 34 31  1  0  0  0  0
 35 29  2  0  0  0  0
 36 37  1  0  0  0  0
 37  4  1  0  0  0  0
M  END
>  <MODEL>
1

>  <REMARK>
 VINA RESULT:      -9.3      0.000      0.000
  Name = 
  2 active torsions:
  status: ('A' for Active; 'I' for Inactive)
    1  A    between atoms: N_4  and  C_37
    2  A    between atoms: C_23  and  C_30
                            x       y       z     vdW  Elec       q    Type
                         _______ _______ _______ _____ _____    ______ ____

>  <TORSDO>
F 2

$$$$
=
 OpenBabel11122411213D

 37 43  0  0  1  0  0  0  0  0999 V2000
  189.6330  175.9970  138.1890 C   0  0  0  0  0  2  0  0  0  0  0  0
  190.3160  177.0340  142.9460 C   0  0  0  0  0  0  0  0  0  0  0  0
  186.9580  178.3040  140.7030 C   0  0  0  0  0  0  0  0  0  0  0  0
  190.6870  175.5480  137.2530 N   0  0  0  0  0  0  0  0  0  0  0  0
  187.3320  178.7730  137.0430 O   0  0  0  0  0  0  0  0  0  0  0  0
  187.8270  177.6370  142.8220 C   0  0  0  0  0  0  0  0  0  0  0  0
  187.4880  178.4740  139.3680 C   0  0  0  0  0  0  0  0  0  0  0  0
  188.9990  176.0650  135.4250 C   0  0  0  0  0  0  0  0  0  0  0  0
  187.9820  177.8050  141.4620 C   0  0  0  0  0  0  0  0  0  0  0  0
  186.7120  178.6010  138.2500 C   0  0  0  0  0  0  0  0  0  0  0  0
  186.5680  177.8790  143.3890 C   0  0  0  0  0  3  0  0  0  0  0  0
  190.4600  175.9670  135.8480 C   0  0  0  0  0  2  0  0  0  0  0  0
  189.1800  177.6110  140.7410 N   0  0  0  0  0  0  0  0  0  0  0  0
  191.2020  175.9800  143.5440 C   0  0  0  0  0  1  0  0  0  0  0  0
  184.6850  178.8820  140.3570 O   0  0  0  0  0  0  0  0  0  0  0  0
  185.5220  178.4140  142.6180 C   0  0  0  0  0  3  0  0  0  0  0  0
  190.2950  176.8480  141.3750 C   0  0  0  0  0  2  0  0  0  0  0  0
  188.3670  177.4430  135.2970 C   0  0  0  0  0  2  0  0  0  0  0  0
  188.3600  177.9150  136.6940 C   0  0  1  0  0  3  0  0  0  0  0  0
  185.7310  178.5710  141.2370 C   0  0  0  0  0  0  0  0  0  0  0  0
  188.9830  178.3500  139.4720 C   0  0  1  0  0  3  0  0  0  0  0  0
  188.9230  176.9880  143.6570 C   0  0  0  0  0  2  0  0  0  0  0  0
  185.3530  178.0920  138.1030 C   0  0  0  0  0  0  0  0  0  0  0  0
  190.9700  178.3430  143.2690 C   0  0  0  0  0  1  0  0  0  0  0  0
  189.6140  178.3310  137.1040 O   0  0  0  0  0  0  0  0  0  0  0  0
  188.3420  175.0920  135.4090 O   0  0  0  0  0  0  0  0  0  0  0  0
  189.6730  177.6080  138.3110 C   0  0  2  0  0  3  0  0  0  0  0  0
  184.4560  178.2130  139.1150 C   0  0  0  0  0  3  0  0  0  0  0  0
  184.1400  177.3580  136.1160 N   0  0  0  0  0  0  0  0  0  0  0  0
  184.9740  177.0810  137.0990 C   0  0  0  0  0  0  0  0  0  0  0  0
  185.4550  175.7410  137.2850 C   0  0  0  0  0  3  0  0  0  0  0  0
  185.3860  173.4010  136.5390 O   0  0  0  0  0  1  0  0  0  0  0  0
  184.1550  175.0750  135.3390 C   0  0  0  0  0  3  0  0  0  0  0  0
  184.9970  174.7690  136.3900 C   0  0  0  0  0  0  0  0  0  0  0  0
  183.7290  176.4280  135.2200 C   0  0  0  0  0  3  0  0  0  0  0  0
  191.7530  173.6020  136.2470 C   0  0  0  0  0  1  0  0  0  0  0  0
  190.7210  174.0960  137.2620 C   0  0  0  0  0  2  0  0  0  0  0  0
  2 24  1  0  0  0  0
  2 14  1  0  0  0  0
  2 22  1  0  0  0  0
  3 20  2  0  0  0  0
  3  9  1  0  0  0  0
  4 37  1  0  0  0  0
  4  1  1  0  0  0  0
  5 10  1  0  0  0  0
  6 11  1  0  0  0  0
  6 22  1  0  0  0  0
  7  3  1  0  0  0  0
  8 12  1  0  0  0  0
  9  6  2  0  0  0  0
 10  7  2  0  0  0  0
 12  4  1  0  0  0  0
 13 17  1  0  0  0  0
 13  9  1  0  0  0  0
 15 20  1  0  0  0  0
 16 11  2  0  0  0  0
 17  2  1  0  0  0  0
 18  8  1  0  0  0  0
 19 18  1  6  0  0  0
 19  5  1  0  0  0  0
 19 25  1  0  0  0  0
 20 16  1  0  0  0  0
 21  7  1  6  0  0  0
 21 13  1  0  0  0  0
 23 10  1  0  0  0  0
 23 28  2  0  0  0  0
 25 27  1  0  0  0  0
 26  8  2  0  0  0  0
 27  1  1  6  0  0  0
 27 21  1  0  0  0  0
 28 15  1  0  0  0  0
 29 30  1  0  0  0  0
 30 31  2  0  0  0  0
 30 23  1  0  0  0  0
 33 34  2  0  0  0  0
 34 32  1  0  0  0  0
 34 31  1  0  0  0  0
 35 33  1  0  0  0  0
 35 29  2  0  0  0  0
 36 37  1  0  0  0  0
M  END
>  <MODEL>
2

>  <REMARK>
 VINA RESULT:      -8.9      1.659      2.006
  Name = 
  2 active torsions:
  status: ('A' for Active; 'I' for Inactive)
    1  A    between atoms: N_4  and  C_37
    2  A    between atoms: C_23  and  C_30
                            x       y       z     vdW  Elec       q    Type
                         _______ _______ _______ _____ _____    ______ ____

>  <TORSDO>
F 2

$$$$
=
 OpenBabel11122411213D

 37 43  0  0  1  0  0  0  0  0999 V2000
  188.4880  177.2150  141.3500 C   0  0  0  0  0  2  0  0  0  0  0  0
  184.6910  178.8410  144.0140 C   0  0  0  0  0  0  0  0  0  0  0  0
  184.6020  178.3650  139.8090 C   0  0  0  0  0  0  0  0  0  0  0  0
  189.8970  177.1800  141.8020 N   0  0  0  0  0  0  0  0  0  0  0  0
  187.7810  178.6380  137.9160 O   0  0  0  0  0  0  0  0  0  0  0  0
  183.3950  178.3130  141.8660 C   0  0  0  0  0  0  0  0  0  0  0  0
  185.9670  178.6310  139.4100 C   0  0  0  0  0  0  0  0  0  0  0  0
  190.4590  176.7730  139.3580 C   0  0  0  0  0  0  0  0  0  0  0  0
  184.5860  178.4160  141.1770 C   0  0  0  0  0  0  0  0  0  0  0  0
  186.4760  178.3200  138.1810 C   0  0  0  0  0  0  0  0  0  0  0  0
  182.2240  178.0420  141.1450 C   0  0  0  0  0  3  0  0  0  0  0  0
  190.8830  177.3420  140.7060 C   0  0  0  0  0  2  0  0  0  0  0  0
  185.8460  178.6900  141.7500 N   0  0  0  0  0  0  0  0  0  0  0  0
  184.8300  178.3200  145.4150 C   0  0  0  0  0  1  0  0  0  0  0  0
  183.6100  177.8880  137.7090 O   0  0  0  0  0  0  0  0  0  0  0  0
  182.2340  178.0140  139.7400 C   0  0  0  0  0  3  0  0  0  0  0  0
  186.0250  178.5320  143.2230 C   0  0  0  0  0  2  0  0  0  0  0  0
  190.0050  177.7330  138.2690 C   0  0  0  0  0  2  0  0  0  0  0  0
  188.7530  178.2730  138.8310 C   0  0  1  0  0  3  0  0  0  0  0  0
  183.4710  178.1280  139.0840 C   0  0  0  0  0  0  0  0  0  0  0  0
  186.6810  179.1650  140.6210 C   0  0  1  0  0  3  0  0  0  0  0  0
  183.3770  178.2660  143.3880 C   0  0  0  0  0  2  0  0  0  0  0  0
  185.9770  177.2710  137.3000 C   0  0  0  0  0  0  0  0  0  0  0  0
  184.5400  180.3260  144.1480 C   0  0  0  0  0  1  0  0  0  0  0  0
  188.9940  179.2170  139.8140 O   0  0  0  0  0  0  0  0  0  0  0  0
  190.2930  175.6140  139.2530 O   0  0  0  0  0  0  0  0  0  0  0  0
  188.1360  178.6930  140.8010 C   0  0  2  0  0  3  0  0  0  0  0  0
  184.6420  177.0830  137.1360 C   0  0  0  0  0  3  0  0  0  0  0  0
  187.7720  176.2340  136.0100 N   0  0  0  0  0  0  0  0  0  0  0  0
  186.7890  176.1130  136.8810 C   0  0  0  0  0  0  0  0  0  0  0  0
  186.4070  174.8170  137.3680 C   0  0  0  0  0  3  0  0  0  0  0  0
  186.7630  172.3890  137.2680 O   0  0  0  0  0  1  0  0  0  0  0  0
  188.1690  173.8560  135.9930 C   0  0  0  0  0  3  0  0  0  0  0  0
  187.1160  173.7170  136.8750 C   0  0  0  0  0  0  0  0  0  0  0  0
  188.4890  175.1750  135.5640 C   0  0  0  0  0  3  0  0  0  0  0  0
  191.1890  176.0430  143.5260 C   0  0  0  0  0  1  0  0  0  0  0  0
  190.1510  175.8880  142.4140 C   0  0  0  0  0  2  0  0  0  0  0  0
  1  4  1  0  0  0  0
  2 24  1  0  0  0  0
  2 14  1  0  0  0  0
  3  9  1  0  0  0  0
  4 37  1  0  0  0  0
  5 10  1  0  0  0  0
  5 19  1  0  0  0  0
  6 22  1  0  0  0  0
  7  3  1  0  0  0  0
  8 12  1  0  0  0  0
  9 13  1  0  0  0  0
  9  6  2  0  0  0  0
 10  7  2  0  0  0  0
 11  6  1  0  0  0  0
 12  4  1  0  0  0  0
 13 17  1  0  0  0  0
 15 20  1  0  0  0  0
 16 11  2  0  0  0  0
 17  2  1  0  0  0  0
 18  8  1  0  0  0  0
 19 18  1  6  0  0  0
 19 25  1  0  0  0  0
 20 16  1  0  0  0  0
 20  3  2  0  0  0  0
 21  7  1  6  0  0  0
 21 27  1  0  0  0  0
 21 13  1  0  0  0  0
 22  2  1  0  0  0  0
 23 10  1  0  0  0  0
 25 27  1  0  0  0  0
 26  8  2  0  0  0  0
 27  1  1  6  0  0  0
 28 23  2  0  0  0  0
 28 15  1  0  0  0  0
 29 30  1  0  0  0  0
 30 23  1  0  0  0  0
 30 31  2  0  0  0  0
 33 34  2  0  0  0  0
 34 32  1  0  0  0  0
 34 31  1  0  0  0  0
 35 33  1  0  0  0  0
 35 29  2  0  0  0  0
 37 36  1  0  0  0  0
M  END
>  <MODEL>
3

>  <REMARK>
 VINA RESULT:      -7.8      1.997      4.536
  Name = 
  2 active torsions:
  status: ('A' for Active; 'I' for Inactive)
    1  A    between atoms: N_4  and  C_37
    2  A    between atoms: C_23  and  C_30
                            x       y       z     vdW  Elec       q    Type
                         _______ _______ _______ _____ _____    ______ ____

>  <TORSDO>
F 2

$$$$
=
 OpenBabel11122411213D

 37 43  0  0  1  0  0  0  0  0999 V2000
  185.3370  175.1170  136.6970 C   0  0  0  0  0  2  0  0  0  0  0  0
  190.0550  175.9690  137.7810 C   0  0  0  0  0  0  0  0  0  0  0  0
  186.8210  178.1860  139.3760 C   0  0  0  0  0  0  0  0  0  0  0  0
  184.8530  174.3450  135.5300 N   0  0  0  0  0  0  0  0  0  0  0  0
  183.6940  178.4530  137.3980 O   0  0  0  0  0  0  0  0  0  0  0  0
  189.0190  177.3170  139.7000 C   0  0  0  0  0  0  0  0  0  0  0  0
  185.8380  178.1590  138.3160 C   0  0  0  0  0  0  0  0  0  0  0  0
  182.5770  175.3330  136.0770 C   0  0  0  0  0  0  0  0  0  0  0  0
  187.8630  177.4050  138.9530 C   0  0  0  0  0  0  0  0  0  0  0  0
  184.5250  178.5030  138.4840 C   0  0  0  0  0  0  0  0  0  0  0  0
  189.0590  177.9490  140.9510 C   0  0  0  0  0  3  0  0  0  0  0  0
  183.5330  174.7910  135.0220 C   0  0  0  0  0  2  0  0  0  0  0  0
  187.6620  176.8340  137.6780 N   0  0  0  0  0  0  0  0  0  0  0  0
  190.8310  174.7010  137.5710 C   0  0  0  0  0  1  0  0  0  0  0  0
  185.6650  179.4390  141.0240 O   0  0  0  0  0  0  0  0  0  0  0  0
  188.0020  178.7710  141.3760 C   0  0  0  0  0  3  0  0  0  0  0  0
  188.5960  175.7720  137.2010 C   0  0  0  0  0  2  0  0  0  0  0  0
  182.3660  176.8360  136.1680 C   0  0  0  0  0  2  0  0  0  0  0  0
  183.6880  177.3110  136.6160 C   0  0  1  0  0  3  0  0  0  0  0  0
  186.8480  178.8320  140.5770 C   0  0  0  0  0  0  0  0  0  0  0  0
  186.5140  177.5760  137.1060 C   0  0  1  0  0  3  0  0  0  0  0  0
  190.1400  176.3720  139.2900 C   0  0  0  0  0  2  0  0  0  0  0  0
  183.7900  178.4420  139.7420 C   0  0  0  0  0  0  0  0  0  0  0  0
  190.7610  177.0140  136.9710 C   0  0  0  0  0  1  0  0  0  0  0  0
  184.6100  177.3210  135.5850 O   0  0  0  0  0  0  0  0  0  0  0  0
  182.1880  174.6130  136.9200 O   0  0  0  0  0  0  0  0  0  0  0  0
  185.6480  176.6360  136.2450 C   0  0  2  0  0  3  0  0  0  0  0  0
  184.3670  178.8540  140.9000 C   0  0  0  0  0  3  0  0  0  0  0  0
  182.6660  176.2750  139.7810 N   0  0  0  0  0  0  0  0  0  0  0  0
  182.6100  177.5820  139.9460 C   0  0  0  0  0  0  0  0  0  0  0  0
  181.3560  178.2240  140.2240 C   0  0  0  0  0  3  0  0  0  0  0  0
  178.9310  177.9720  140.5260 O   0  0  0  0  0  1  0  0  0  0  0  0
  180.2980  176.0340  140.1700 C   0  0  0  0  0  3  0  0  0  0  0  0
  180.2250  177.4050  140.3050 C   0  0  0  0  0  0  0  0  0  0  0  0
  181.5800  175.4740  139.9010 C   0  0  0  0  0  3  0  0  0  0  0  0
  185.1440  172.7920  137.3850 C   0  0  0  0  0  1  0  0  0  0  0  0
  184.7080  172.9560  135.9270 C   0  0  0  0  0  2  0  0  0  0  0  0
  2 22  1  0  0  0  0
  3 20  1  0  0  0  0
  4 37  1  0  0  0  0
  4  1  1  0  0  0  0
  5 10  1  0  0  0  0
  6 11  2  0  0  0  0
  7 10  2  0  0  0  0
  7  3  1  0  0  0  0
  8 18  1  0  0  0  0
  8 26  2  0  0  0  0
  9  3  2  0  0  0  0
  9  6  1  0  0  0  0
 10 23  1  0  0  0  0
 11 16  1  0  0  0  0
 12  4  1  0  0  0  0
 12  8  1  0  0  0  0
 13  9  1  0  0  0  0
 14  2  1  0  0  0  0
 17 13  1  0  0  0  0
 17  2  1  0  0  0  0
 19 18  1  6  0  0  0
 19  5  1  0  0  0  0
 20 15  1  0  0  0  0
 20 16  2  0  0  0  0
 21 13  1  0  0  0  0
 21  7  1  1  0  0  0
 22  6  1  0  0  0  0
 23 30  1  0  0  0  0
 23 28  2  0  0  0  0
 24  2  1  0  0  0  0
 25 27  1  0  0  0  0
 25 19  1  0  0  0  0
 27  1  1  1  0  0  0
 27 21  1  0  0  0  0
 28 15  1  0  0  0  0
 29 35  2  0  0  0  0
 29 30  1  0  0  0  0
 30 31  2  0  0  0  0
 31 34  1  0  0  0  0
 33 34  2  0  0  0  0
 34 32  1  0  0  0  0
 35 33  1  0  0  0  0
 37 36  1  0  0  0  0
M  END
>  <MODEL>
4

>  <REMARK>
 VINA RESULT:      -6.8      2.156      4.117
  Name = 
  2 active torsions:
  status: ('A' for Active; 'I' for Inactive)
    1  A    between atoms: N_4  and  C_37
    2  A    between atoms: C_23  and  C_30
                            x       y       z     vdW  Elec       q    Type
                         _______ _______ _______ _____ _____    ______ ____

>  <TORSDO>
F 2

$$$$
