=
 OpenBabel11122411503D

 28 32  0  0  1  0  0  0  0  0999 V2000
  180.1570  179.4180  141.1300 C   0  0  0  0  0  0  0  0  0  0  0  0
  178.9310  178.3110  137.2170 O   0  0  0  0  0  0  0  0  0  0  0  0
  185.3440  179.8030  140.2210 O   0  0  0  0  0  0  0  0  0  0  0  0
  179.5820  181.6000  139.4650 C   0  0  0  0  0  3  0  0  0  0  0  0
  184.5720  178.0990  138.8000 N   0  0  0  0  0  0  0  0  0  0  0  0
  180.5110  178.3220  142.0910 C   0  0  0  0  0  2  0  0  0  0  0  0
  180.4260  179.1340  135.4460 O   0  0  0  0  0  0  0  0  0  0  0  0
  180.2570  178.1160  136.5370 S   0  0  0  0  0  0  0  0  0  0  0  0
  181.2190  175.5640  136.4010 C   0  0  0  0  0  0  0  0  0  0  0  0
  181.6030  178.2770  137.6960 C   0  0  2  0  0  3  0  0  0  0  0  0
  183.3680  179.4490  144.2250 N   0  0  0  0  0  1  0  0  0  0  0  0
  182.4830  177.6640  139.8730 C   0  0  1  0  0  3  0  0  0  0  0  0
  182.2220  175.8970  137.1590 N   0  0  0  0  0  0  0  0  0  0  0  0
  180.3290  176.5360  135.8620 N   0  0  0  0  0  2  0  0  0  0  0  0
  182.6780  178.8680  143.1260 C   0  0  0  0  0  0  0  0  0  0  0  0
  180.5440  179.3790  139.7670 C   0  0  0  0  0  0  0  0  0  0  0  0
  184.4630  178.9550  139.9170 C   0  0  0  0  0  0  0  0  0  0  0  0
  180.9610  174.1260  136.1350 C   0  0  0  0  0  1  0  0  0  0  0  0
  183.4960  178.2040  142.0570 C   0  0  0  0  0  2  0  0  0  0  0  0
  180.2520  180.4890  138.9550 C   0  0  0  0  0  3  0  0  0  0  0  0
  179.4730  180.5360  141.6270 C   0  0  0  0  0  3  0  0  0  0  0  0
  179.1840  181.6220  140.8000 C   0  0  0  0  0  3  0  0  0  0  0  0
  181.3760  178.8530  143.1430 N   0  0  0  0  0  0  0  0  0  0  0  0
  183.4530  177.1780  138.7780 C   0  0  1  0  0  3  0  0  0  0  0  0
  183.2090  178.7610  140.6730 C   0  0  2  0  0  3  0  0  0  0  0  0
  182.7080  177.2500  137.4570 C   0  0  2  0  0  3  0  0  0  0  0  0
  185.7810  177.9280  138.0110 C   0  0  0  0  0  1  0  0  0  0  0  0
  181.2070  178.1440  139.1630 C   0  0  1  0  0  3  0  0  0  0  0  0
  1 21  1  0  0  0  0
  1  6  1  0  0  0  0
  4 22  1  0  0  0  0
  5 17  1  0  0  0  0
  6 23  1  0  0  0  0
  7  8  2  0  0  0  0
  8  2  2  0  0  0  0
  9 13  2  0  0  0  0
 10  8  1  6  0  0  0
 10 28  1  0  0  0  0
 12 25  1  0  0  0  0
 13 26  1  0  0  0  0
 14  9  1  0  0  0  0
 14  8  1  0  0  0  0
 15 23  2  0  0  0  0
 15 11  1  0  0  0  0
 16  1  2  0  0  0  0
 17  3  2  0  0  0  0
 17 25  1  0  0  0  0
 18  9  1  0  0  0  0
 19 15  1  0  0  0  0
 20  4  2  0  0  0  0
 20 16  1  0  0  0  0
 22 21  2  0  0  0  0
 24  5  1  0  0  0  0
 24 12  1  0  0  0  0
 25 19  1  0  0  0  0
 26 10  1  0  0  0  0
 26 24  1  0  0  0  0
 27  5  1  0  0  0  0
 28 16  1  0  0  0  0
 28 12  1  0  0  0  0
M  END
>  <MODEL>
1

>  <REMARK>
 VINA RESULT:      -5.9      0.000      0.000
  Name = 
  0 active torsions:
  status: ('A' for Active; 'I' for Inactive)
                            x       y       z     vdW  Elec       q    Type
                         _______ _______ _______ _____ _____    ______ ____

>  <TORSDO>
F 0

$$$$
=
 OpenBabel11122411503D

 28 32  0  0  1  0  0  0  0  0999 V2000
  184.0240  175.1480  136.8270 C   0  0  0  0  0  0  0  0  0  0  0  0
  185.8380  178.4290  138.8200 O   0  0  0  0  0  0  0  0  0  0  0  0
  178.9790  176.5890  137.4250 O   0  0  0  0  0  0  0  0  0  0  0  0
  184.5730  177.3270  135.1490 C   0  0  0  0  0  3  0  0  0  0  0  0
  180.0960  177.3640  139.3400 N   0  0  0  0  0  0  0  0  0  0  0  0
  183.6680  173.9400  137.6420 C   0  0  0  0  0  2  0  0  0  0  0  0
  184.4990  180.4910  138.7450 O   0  0  0  0  0  0  0  0  0  0  0  0
  184.6350  179.1360  139.3790 S   0  0  0  0  0  0  0  0  0  0  0  0
  183.9680  178.5930  141.9710 C   0  0  0  0  0  0  0  0  0  0  0  0
  183.1450  178.2020  139.0810 C   0  0  2  0  0  3  0  0  0  0  0  0
  180.4650  172.5000  136.3560 N   0  0  0  0  0  1  0  0  0  0  0  0
  182.0690  176.0290  139.1640 C   0  0  1  0  0  3  0  0  0  0  0  0
  182.8490  178.0610  141.5760 N   0  0  0  0  0  0  0  0  0  0  0  0
  184.8130  179.3150  141.0800 N   0  0  0  0  0  2  0  0  0  0  0  0
  181.3440  173.3120  137.1250 C   0  0  0  0  0  0  0  0  0  0  0  0
  183.8170  176.4660  137.3030 C   0  0  0  0  0  0  0  0  0  0  0  0
  179.9750  176.5470  138.1960 C   0  0  0  0  0  0  0  0  0  0  0  0
  184.4050  178.3960  143.3760 C   0  0  0  0  0  1  0  0  0  0  0  0
  180.7400  174.2030  138.1700 C   0  0  0  0  0  2  0  0  0  0  0  0
  184.0900  177.5420  136.4400 C   0  0  0  0  0  3  0  0  0  0  0  0
  184.5200  174.9460  135.5310 C   0  0  0  0  0  3  0  0  0  0  0  0
  184.7960  176.0290  134.6960 C   0  0  0  0  0  3  0  0  0  0  0  0
  182.6280  173.1750  136.9580 N   0  0  0  0  0  0  0  0  0  0  0  0
  181.2990  177.0120  140.0690 C   0  0  1  0  0  3  0  0  0  0  0  0
  181.1380  175.6590  137.9950 C   0  0  2  0  0  3  0  0  0  0  0  0
  182.1920  178.2230  140.2740 C   0  0  2  0  0  3  0  0  0  0  0  0
  179.0190  178.1720  139.8910 C   0  0  0  0  0  1  0  0  0  0  0  0
  183.3660  176.7330  138.7360 C   0  0  1  0  0  3  0  0  0  0  0  0
  1 16  1  0  0  0  0
  1  6  1  0  0  0  0
  2  8  2  0  0  0  0
  3 17  2  0  0  0  0
  4 20  1  0  0  0  0
  5 27  1  0  0  0  0
  5 24  1  0  0  0  0
  7  8  2  0  0  0  0
  8 14  1  0  0  0  0
  9 18  1  0  0  0  0
 10  8  1  1  0  0  0
 10 26  1  0  0  0  0
 11 15  1  0  0  0  0
 12 24  1  0  0  0  0
 13  9  2  0  0  0  0
 14  9  1  0  0  0  0
 15 19  1  0  0  0  0
 16 28  1  0  0  0  0
 17  5  1  0  0  0  0
 20 16  2  0  0  0  0
 21  1  2  0  0  0  0
 22  4  2  0  0  0  0
 22 21  1  0  0  0  0
 23 15  2  0  0  0  0
 23  6  1  0  0  0  0
 24 26  1  0  0  0  0
 25 19  1  0  0  0  0
 25 17  1  0  0  0  0
 25 12  1  0  0  0  0
 26 13  1  0  0  0  0
 28 10  1  0  0  0  0
 28 12  1  0  0  0  0
M  END
>  <MODEL>
2

>  <REMARK>
 VINA RESULT:      -5.8      2.475      6.644
  Name = 
  0 active torsions:
  status: ('A' for Active; 'I' for Inactive)
                            x       y       z     vdW  Elec       q    Type
                         _______ _______ _______ _____ _____    ______ ____

>  <TORSDO>
F 0

$$$$
=
 OpenBabel11122411503D

 28 32  0  0  1  0  0  0  0  0999 V2000
  183.3850  175.0800  136.8230 C   0  0  0  0  0  0  0  0  0  0  0  0
  187.1160  176.7550  137.9670 O   0  0  0  0  0  0  0  0  0  0  0  0
  180.5720  179.5460  136.6400 O   0  0  0  0  0  0  0  0  0  0  0  0
  184.9860  175.8600  134.6570 C   0  0  0  0  0  3  0  0  0  0  0  0
  182.1570  179.8590  138.3460 N   0  0  0  0  0  0  0  0  0  0  0  0
  182.4440  174.6530  137.9100 C   0  0  0  0  0  2  0  0  0  0  0  0
  187.4180  179.0830  137.2350 O   0  0  0  0  0  0  0  0  0  0  0  0
  186.7310  178.1850  138.2230 S   0  0  0  0  0  0  0  0  0  0  0  0
  186.2060  178.8860  140.8100 C   0  0  0  0  0  0  0  0  0  0  0  0
  184.9670  178.4090  138.0860 C   0  0  2  0  0  3  0  0  0  0  0  0
  178.9340  175.3810  136.8410 N   0  0  0  0  0  1  0  0  0  0  0  0
  182.7680  177.5750  138.6840 C   0  0  1  0  0  3  0  0  0  0  0  0
  184.9680  179.1320  140.4970 N   0  0  0  0  0  0  0  0  0  0  0  0
  187.1960  178.6270  139.8190 N   0  0  0  0  0  2  0  0  0  0  0  0
  180.2170  175.5850  137.4190 C   0  0  0  0  0  0  0  0  0  0  0  0
  184.1350  176.2800  136.9040 C   0  0  0  0  0  0  0  0  0  0  0  0
  181.3950  179.0640  137.4630 C   0  0  0  0  0  0  0  0  0  0  0  0
  186.5890  178.8150  142.2430 C   0  0  0  0  0  1  0  0  0  0  0  0
  180.4660  176.8800  138.1350 C   0  0  0  0  0  2  0  0  0  0  0  0
  184.9230  176.6540  135.8020 C   0  0  0  0  0  3  0  0  0  0  0  0
  183.4660  174.2850  135.6710 C   0  0  0  0  0  3  0  0  0  0  0  0
  184.2640  174.6700  134.5940 C   0  0  0  0  0  3  0  0  0  0  0  0
  181.0790  174.6090  137.3890 N   0  0  0  0  0  0  0  0  0  0  0  0
  182.9320  179.0090  139.2270 C   0  0  1  0  0  3  0  0  0  0  0  0
  181.6790  177.6190  137.5970 C   0  0  2  0  0  3  0  0  0  0  0  0
  184.4110  179.3460  139.1560 C   0  0  2  0  0  3  0  0  0  0  0  0
  181.9310  181.2770  138.5760 C   0  0  0  0  0  1  0  0  0  0  0  0
  184.1470  177.1270  138.1740 C   0  0  1  0  0  3  0  0  0  0  0  0
  1 16  1  0  0  0  0
  1  6  1  0  0  0  0
  2  8  2  0  0  0  0
  3 17  2  0  0  0  0
  4 20  1  0  0  0  0
  5 27  1  0  0  0  0
  5 24  1  0  0  0  0
  7  8  2  0  0  0  0
  8 14  1  0  0  0  0
  9 18  1  0  0  0  0
 10 28  1  0  0  0  0
 10  8  1  1  0  0  0
 10 26  1  0  0  0  0
 11 15  1  0  0  0  0
 12 24  1  0  0  0  0
 13  9  2  0  0  0  0
 14  9  1  0  0  0  0
 15 19  1  0  0  0  0
 16 28  1  0  0  0  0
 17 25  1  0  0  0  0
 17  5  1  0  0  0  0
 20 16  2  0  0  0  0
 21  1  2  0  0  0  0
 22  4  2  0  0  0  0
 22 21  1  0  0  0  0
 23 15  2  0  0  0  0
 23  6  1  0  0  0  0
 25 19  1  0  0  0  0
 25 12  1  0  0  0  0
 26 24  1  0  0  0  0
 26 13  1  0  0  0  0
 28 12  1  0  0  0  0
M  END
>  <MODEL>
3

>  <REMARK>
 VINA RESULT:      -5.5      2.831      6.581
  Name = 
  0 active torsions:
  status: ('A' for Active; 'I' for Inactive)
                            x       y       z     vdW  Elec       q    Type
                         _______ _______ _______ _____ _____    ______ ____

>  <TORSDO>
F 0

$$$$
=
 OpenBabel11122411503D

 28 32  0  0  1  0  0  0  0  0999 V2000
  186.0990  175.8790  135.3580 C   0  0  0  0  0  0  0  0  0  0  0  0
  182.3690  176.6180  137.2480 O   0  0  0  0  0  0  0  0  0  0  0  0
  189.2430  176.7600  139.5080 O   0  0  0  0  0  0  0  0  0  0  0  0
  184.9650  173.6070  136.5480 C   0  0  0  0  0  3  0  0  0  0  0  0
  187.4160  178.2120  139.7730 N   0  0  0  0  0  0  0  0  0  0  0  0
  186.8010  177.0370  134.7110 C   0  0  0  0  0  2  0  0  0  0  0  0
  182.3830  176.1680  139.6660 O   0  0  0  0  0  0  0  0  0  0  0  0
  182.8150  177.1240  138.5920 S   0  0  0  0  0  0  0  0  0  0  0  0
  182.9360  179.8320  138.9210 C   0  0  0  0  0  0  0  0  0  0  0  0
  184.5880  177.3070  138.6530 C   0  0  2  0  0  3  0  0  0  0  0  0
  190.4890  176.6590  135.2060 N   0  0  0  0  0  1  0  0  0  0  0  0
  186.5770  178.1350  137.5370 C   0  0  1  0  0  3  0  0  0  0  0  0
  184.2240  179.7610  139.0780 N   0  0  0  0  0  0  0  0  0  0  0  0
  182.1160  178.6680  138.8840 N   0  0  0  0  0  2  0  0  0  0  0  0
  189.1450  177.0440  135.4670 C   0  0  0  0  0  0  0  0  0  0  0  0
  185.4430  175.9990  136.6080 C   0  0  0  0  0  0  0  0  0  0  0  0
  188.2540  177.3650  139.0160 C   0  0  0  0  0  0  0  0  0  0  0  0
  182.3050  181.1620  138.7180 C   0  0  0  0  0  1  0  0  0  0  0  0
  188.8780  177.8780  136.6860 C   0  0  0  0  0  2  0  0  0  0  0  0
  184.8900  174.8440  137.1890 C   0  0  0  0  0  3  0  0  0  0  0  0
  186.1570  174.6330  134.7180 C   0  0  0  0  0  3  0  0  0  0  0  0
  185.5920  173.5020  135.3080 C   0  0  0  0  0  3  0  0  0  0  0  0
  188.2280  176.7430  134.5940 N   0  0  0  0  0  0  0  0  0  0  0  0
  186.4340  178.8330  138.9050 C   0  0  1  0  0  3  0  0  0  0  0  0
  187.8390  177.2550  137.6020 C   0  0  2  0  0  3  0  0  0  0  0  0
  185.0220  178.5690  139.3950 C   0  0  2  0  0  3  0  0  0  0  0  0
  187.7080  178.6650  141.1230 C   0  0  0  0  0  1  0  0  0  0  0  0
  185.2770  177.3520  137.2940 C   0  0  1  0  0  3  0  0  0  0  0  0
  1 16  1  0  0  0  0
  2  8  2  0  0  0  0
  4 20  1  0  0  0  0
  5 27  1  0  0  0  0
  6  1  1  0  0  0  0
  8 14  1  0  0  0  0
  8  7  2  0  0  0  0
  9 13  2  0  0  0  0
 10  8  1  6  0  0  0
 10 26  1  0  0  0  0
 11 15  1  0  0  0  0
 12 25  1  0  0  0  0
 12 24  1  0  0  0  0
 13 26  1  0  0  0  0
 14  9  1  0  0  0  0
 15 19  1  0  0  0  0
 16 20  2  0  0  0  0
 16 28  1  0  0  0  0
 17  3  2  0  0  0  0
 17  5  1  0  0  0  0
 18  9  1  0  0  0  0
 19 25  1  0  0  0  0
 21 22  1  0  0  0  0
 21  1  2  0  0  0  0
 22  4  2  0  0  0  0
 23  6  1  0  0  0  0
 23 15  2  0  0  0  0
 24 26  1  0  0  0  0
 24  5  1  0  0  0  0
 25 17  1  0  0  0  0
 28 12  1  0  0  0  0
 28 10  1  0  0  0  0
M  END
>  <MODEL>
4

>  <REMARK>
 VINA RESULT:      -5.4      3.503      7.140
  Name = 
  0 active torsions:
  status: ('A' for Active; 'I' for Inactive)
                            x       y       z     vdW  Elec       q    Type
                         _______ _______ _______ _____ _____    ______ ____

>  <TORSDO>
F 0

$$$$
=
 OpenBabel11122411503D

 28 32  0  0  1  0  0  0  0  0999 V2000
  185.7710  173.4400  136.6920 C   0  0  0  0  0  0  0  0  0  0  0  0
  187.9550  176.7540  138.2050 O   0  0  0  0  0  0  0  0  0  0  0  0
  181.6920  176.0910  134.6380 O   0  0  0  0  0  0  0  0  0  0  0  0
  187.5720  174.5450  134.8480 C   0  0  0  0  0  3  0  0  0  0  0  0
  182.3650  177.3180  136.5250 N   0  0  0  0  0  0  0  0  0  0  0  0
  184.7630  172.7920  137.5950 C   0  0  0  0  0  2  0  0  0  0  0  0
  187.5620  178.8420  136.9650 O   0  0  0  0  0  0  0  0  0  0  0  0
  186.9870  177.8790  137.9640 S   0  0  0  0  0  0  0  0  0  0  0  0
  185.4020  178.6230  140.0600 C   0  0  0  0  0  0  0  0  0  0  0  0
  185.4290  177.2650  137.3510 C   0  0  2  0  0  3  0  0  0  0  0  0
  181.8210  171.7080  135.5570 N   0  0  0  0  0  1  0  0  0  0  0  0
  183.6590  175.6240  137.6040 C   0  0  1  0  0  3  0  0  0  0  0  0
  184.3470  178.2410  139.4040 N   0  0  0  0  0  0  0  0  0  0  0  0
  186.6840  178.7010  139.4440 N   0  0  0  0  0  2  0  0  0  0  0  0
  182.6520  172.5450  136.3500 C   0  0  0  0  0  0  0  0  0  0  0  0
  185.9270  174.8470  136.6250 C   0  0  0  0  0  0  0  0  0  0  0  0
  182.3120  176.1500  135.7340 C   0  0  0  0  0  0  0  0  0  0  0  0
  185.2800  178.9330  141.5070 C   0  0  0  0  0  1  0  0  0  0  0  0
  182.1290  173.9000  136.7260 C   0  0  0  0  0  2  0  0  0  0  0  0
  186.8300  175.3770  135.6850 C   0  0  0  0  0  3  0  0  0  0  0  0
  186.5320  172.6140  135.8530 C   0  0  0  0  0  3  0  0  0  0  0  0
  187.4300  173.1610  134.9370 C   0  0  0  0  0  3  0  0  0  0  0  0
  183.7800  172.0670  136.7920 N   0  0  0  0  0  0  0  0  0  0  0  0
  183.0660  177.0390  137.7630 C   0  0  1  0  0  3  0  0  0  0  0  0
  183.0670  175.0220  136.3170 C   0  0  2  0  0  3  0  0  0  0  0  0
  184.2320  177.9910  137.9610 C   0  0  2  0  0  3  0  0  0  0  0  0
  181.5480  178.5000  136.3020 C   0  0  0  0  0  1  0  0  0  0  0  0
  185.1880  175.7770  137.5820 C   0  0  1  0  0  3  0  0  0  0  0  0
  1  6  1  0  0  0  0
  3 17  2  0  0  0  0
  4 22  2  0  0  0  0
  4 20  1  0  0  0  0
  5 24  1  0  0  0  0
  7  8  2  0  0  0  0
  8  2  2  0  0  0  0
  8 14  1  0  0  0  0
  9 18  1  0  0  0  0
 10 28  1  0  0  0  0
 10 26  1  0  0  0  0
 10  8  1  1  0  0  0
 11 15  1  0  0  0  0
 12 24  1  0  0  0  0
 13  9  2  0  0  0  0
 14  9  1  0  0  0  0
 15 19  1  0  0  0  0
 15 23  2  0  0  0  0
 16  1  1  0  0  0  0
 16 28  1  0  0  0  0
 17 25  1  0  0  0  0
 17  5  1  0  0  0  0
 20 16  2  0  0  0  0
 21  1  2  0  0  0  0
 22 21  1  0  0  0  0
 23  6  1  0  0  0  0
 24 26  1  0  0  0  0
 25 19  1  0  0  0  0
 25 12  1  0  0  0  0
 26 13  1  0  0  0  0
 27  5  1  0  0  0  0
 28 12  1  0  0  0  0
M  END
>  <MODEL>
5

>  <REMARK>
 VINA RESULT:      -5.4      3.594      7.773
  Name = 
  0 active torsions:
  status: ('A' for Active; 'I' for Inactive)
                            x       y       z     vdW  Elec       q    Type
                         _______ _______ _______ _____ _____    ______ ____

>  <TORSDO>
F 0

$$$$
=
 OpenBabel11122411503D

 28 32  0  0  1  0  0  0  0  0999 V2000
  185.9940  177.1550  137.4770 C   0  0  0  0  0  0  0  0  0  0  0  0
  182.5420  177.3630  135.0120 O   0  0  0  0  0  0  0  0  0  0  0  0
  183.6040  177.5570  142.1690 O   0  0  0  0  0  0  0  0  0  0  0  0
  184.8210  174.6600  136.9600 C   0  0  0  0  0  3  0  0  0  0  0  0
  182.3120  178.8380  140.6830 N   0  0  0  0  0  0  0  0  0  0  0  0
  186.6820  178.4390  137.8330 C   0  0  0  0  0  2  0  0  0  0  0  0
  180.4980  176.5390  136.1060 O   0  0  0  0  0  0  0  0  0  0  0  0
  181.4760  177.6770  136.0250 S   0  0  0  0  0  0  0  0  0  0  0  0
  180.7870  180.3020  136.3290 C   0  0  0  0  0  0  0  0  0  0  0  0
  182.1840  177.9530  137.6380 C   0  0  2  0  0  3  0  0  0  0  0  0
  187.9580  178.2090  141.3410 N   0  0  0  0  0  1  0  0  0  0  0  0
  183.9150  179.0630  138.9250 C   0  0  1  0  0  3  0  0  0  0  0  0
  181.2370  180.2830  137.5490 N   0  0  0  0  0  0  0  0  0  0  0  0
  180.6480  179.1110  135.5600 N   0  0  0  0  0  2  0  0  0  0  0  0
  187.0640  178.4670  140.2660 C   0  0  0  0  0  0  0  0  0  0  0  0
  184.5820  177.0370  137.4570 C   0  0  0  0  0  0  0  0  0  0  0  0
  183.4930  178.1720  141.0750 C   0  0  0  0  0  0  0  0  0  0  0  0
  180.4610  181.6070  135.7000 C   0  0  0  0  0  1  0  0  0  0  0  0
  185.7340  179.0810  140.5920 C   0  0  0  0  0  2  0  0  0  0  0  0
  184.0180  175.7740  137.2040 C   0  0  0  0  0  3  0  0  0  0  0  0
  186.7900  176.0300  137.2180 C   0  0  0  0  0  3  0  0  0  0  0  0
  186.2090  174.7890  136.9590 C   0  0  0  0  0  3  0  0  0  0  0  0
  187.4720  178.2530  139.0480 N   0  0  0  0  0  0  0  0  0  0  0  0
  182.5320  179.5280  139.4270 C   0  0  1  0  0  3  0  0  0  0  0  0
  184.5690  178.2610  140.0650 C   0  0  2  0  0  3  0  0  0  0  0  0
  181.5140  179.1060  138.3820 C   0  0  2  0  0  3  0  0  0  0  0  0
  181.1810  179.0890  141.5600 C   0  0  0  0  0  1  0  0  0  0  0  0
  183.6780  178.2530  137.6410 C   0  0  1  0  0  3  0  0  0  0  0  0
  1  6  1  0  0  0  0
  2  8  2  0  0  0  0
  4 20  1  0  0  0  0
  5 17  1  0  0  0  0
  5 27  1  0  0  0  0
  6 23  1  0  0  0  0
  8  7  2  0  0  0  0
  9 13  2  0  0  0  0
 10  8  1  6  0  0  0
 10 28  1  0  0  0  0
 10 26  1  0  0  0  0
 12 24  1  0  0  0  0
 12 25  1  0  0  0  0
 13 26  1  0  0  0  0
 14  8  1  0  0  0  0
 14  9  1  0  0  0  0
 15 19  1  0  0  0  0
 15 11  1  0  0  0  0
 16  1  1  0  0  0  0
 16 28  1  0  0  0  0
 17  3  2  0  0  0  0
 18  9  1  0  0  0  0
 20 16  2  0  0  0  0
 21  1  2  0  0  0  0
 22  4  2  0  0  0  0
 22 21  1  0  0  0  0
 23 15  2  0  0  0  0
 24  5  1  0  0  0  0
 25 19  1  0  0  0  0
 25 17  1  0  0  0  0
 26 24  1  0  0  0  0
 28 12  1  0  0  0  0
M  END
>  <MODEL>
6

>  <REMARK>
 VINA RESULT:      -5.2      2.390      5.359
  Name = 
  0 active torsions:
  status: ('A' for Active; 'I' for Inactive)
                            x       y       z     vdW  Elec       q    Type
                         _______ _______ _______ _____ _____    ______ ____

>  <TORSDO>
F 0

$$$$
=
 OpenBabel11122411503D

 28 32  0  0  1  0  0  0  0  0999 V2000
  185.5300  175.6780  136.7840 C   0  0  0  0  0  0  0  0  0  0  0  0
  181.8040  174.2630  135.3190 O   0  0  0  0  0  0  0  0  0  0  0  0
  183.8120  177.8090  141.3000 O   0  0  0  0  0  0  0  0  0  0  0  0
  184.8960  173.0800  137.6300 C   0  0  0  0  0  3  0  0  0  0  0  0
  182.0620  178.0850  139.7580 N   0  0  0  0  0  0  0  0  0  0  0  0
  185.9510  177.0680  136.4090 C   0  0  0  0  0  2  0  0  0  0  0  0
  180.1810  173.7400  137.0930 O   0  0  0  0  0  0  0  0  0  0  0  0
  180.8510  174.8450  136.3260 S   0  0  0  0  0  0  0  0  0  0  0  0
  179.6330  177.1980  135.6680 C   0  0  0  0  0  0  0  0  0  0  0  0
  181.7020  175.9150  137.4710 C   0  0  2  0  0  3  0  0  0  0  0  0
  187.7370  178.6260  139.3010 N   0  0  0  0  0  1  0  0  0  0  0  0
  183.3010  177.7190  137.7480 C   0  0  1  0  0  3  0  0  0  0  0  0
  180.2460  177.7950  136.6470 N   0  0  0  0  0  0  0  0  0  0  0  0
  179.6600  175.7820  135.5140 N   0  0  0  0  0  2  0  0  0  0  0  0
  186.6620  178.2430  138.4530 C   0  0  0  0  0  0  0  0  0  0  0  0
  184.1950  175.3650  137.1390 C   0  0  0  0  0  0  0  0  0  0  0  0
  183.4080  177.8430  140.1080 C   0  0  0  0  0  0  0  0  0  0  0  0
  178.9310  178.0180  134.6480 C   0  0  0  0  0  1  0  0  0  0  0  0
  185.2880  178.7430  138.7910 C   0  0  0  0  0  2  0  0  0  0  0  0
  183.9030  174.0580  137.5690 C   0  0  0  0  0  3  0  0  0  0  0  0
  186.5160  174.6830  136.8390 C   0  0  0  0  0  3  0  0  0  0  0  0
  186.2020  173.3900  137.2570 C   0  0  0  0  0  3  0  0  0  0  0  0
  186.9290  177.5630  137.3750 N   0  0  0  0  0  0  0  0  0  0  0  0
  181.9360  178.1590  138.3160 C   0  0  1  0  0  3  0  0  0  0  0  0
  184.2780  177.6180  138.9340 C   0  0  2  0  0  3  0  0  0  0  0  0
  180.9020  177.1730  137.8030 C   0  0  2  0  0  3  0  0  0  0  0  0
  181.0420  178.5420  140.6870 C   0  0  0  0  0  1  0  0  0  0  0  0
  183.0740  176.3920  137.0070 C   0  0  1  0  0  3  0  0  0  0  0  0
  1 21  2  0  0  0  0
  1 16  1  0  0  0  0
  2  8  2  0  0  0  0
  5 17  1  0  0  0  0
  5 27  1  0  0  0  0
  6  1  1  0  0  0  0
  6 23  1  0  0  0  0
  8  7  2  0  0  0  0
  9 13  2  0  0  0  0
 10  8  1  6  0  0  0
 10 26  1  0  0  0  0
 12 24  1  0  0  0  0
 12 25  1  0  0  0  0
 13 26  1  0  0  0  0
 14  9  1  0  0  0  0
 14  8  1  0  0  0  0
 15 19  1  0  0  0  0
 15 11  1  0  0  0  0
 16 20  2  0  0  0  0
 17  3  2  0  0  0  0
 18  9  1  0  0  0  0
 19 25  1  0  0  0  0
 20  4  1  0  0  0  0
 21 22  1  0  0  0  0
 22  4  2  0  0  0  0
 23 15  2  0  0  0  0
 24  5  1  0  0  0  0
 25 17  1  0  0  0  0
 26 24  1  0  0  0  0
 28 16  1  0  0  0  0
 28 10  1  0  0  0  0
 28 12  1  0  0  0  0
M  END
>  <MODEL>
7

>  <REMARK>
 VINA RESULT:      -5.2      2.716      5.699
  Name = 
  0 active torsions:
  status: ('A' for Active; 'I' for Inactive)
                            x       y       z     vdW  Elec       q    Type
                         _______ _______ _______ _____ _____    ______ ____

>  <TORSDO>
F 0

$$$$
=
 OpenBabel11122411503D

 28 32  0  0  1  0  0  0  0  0999 V2000
  183.3540  177.2870  136.1050 C   0  0  0  0  0  0  0  0  0  0  0  0
  187.0440  179.0970  137.1750 O   0  0  0  0  0  0  0  0  0  0  0  0
  184.4580  172.3520  137.6260 O   0  0  0  0  0  0  0  0  0  0  0  0
  183.4230  178.2430  138.7410 C   0  0  0  0  0  3  0  0  0  0  0  0
  186.4950  173.2660  136.8970 N   0  0  0  0  0  0  0  0  0  0  0  0
  183.2240  176.7220  134.7220 C   0  0  0  0  0  2  0  0  0  0  0  0
  188.1960  177.9640  139.0290 O   0  0  0  0  0  0  0  0  0  0  0  0
  187.8580  177.8950  137.5670 S   0  0  0  0  0  0  0  0  0  0  0  0
  189.5140  176.8430  135.6680 C   0  0  0  0  0  0  0  0  0  0  0  0
  186.9680  176.3840  137.2460 C   0  0  2  0  0  3  0  0  0  0  0  0
  181.1600  173.6060  134.8660 N   0  0  0  0  0  1  0  0  0  0  0  0
  185.6290  175.1210  135.6650 C   0  0  1  0  0  3  0  0  0  0  0  0
  188.8180  175.7450  135.6630 N   0  0  0  0  0  0  0  0  0  0  0  0
  189.3090  177.8590  136.6450 N   0  0  0  0  0  2  0  0  0  0  0  0
  182.3100  174.4410  134.8980 C   0  0  0  0  0  0  0  0  0  0  0  0
  184.5340  177.1330  136.8730 C   0  0  0  0  0  0  0  0  0  0  0  0
  185.0860  173.2280  136.9740 C   0  0  0  0  0  0  0  0  0  0  0  0
  190.5140  177.0700  134.5940 C   0  0  0  0  0  1  0  0  0  0  0  0
  183.6500  173.7830  135.0480 C   0  0  0  0  0  2  0  0  0  0  0  0
  184.5410  177.6120  138.1960 C   0  0  0  0  0  3  0  0  0  0  0  0
  182.2410  177.9330  136.6610 C   0  0  0  0  0  3  0  0  0  0  0  0
  182.2740  178.4110  137.9710 C   0  0  0  0  0  3  0  0  0  0  0  0
  182.1600  175.7200  134.6990 N   0  0  0  0  0  0  0  0  0  0  0  0
  186.9080  174.3250  135.9970 C   0  0  1  0  0  3  0  0  0  0  0  0
  184.4370  174.3260  136.2290 C   0  0  2  0  0  3  0  0  0  0  0  0
  187.8650  175.2850  136.6810 C   0  0  2  0  0  3  0  0  0  0  0  0
  187.3720  172.2000  137.3530 C   0  0  0  0  0  1  0  0  0  0  0  0
  185.7980  176.5200  136.2780 C   0  0  1  0  0  3  0  0  0  0  0  0
  1 21  2  0  0  0  0
  1 16  1  0  0  0  0
  2  8  2  0  0  0  0
  5 17  1  0  0  0  0
  5 27  1  0  0  0  0
  6  1  1  0  0  0  0
  8  7  2  0  0  0  0
  9 14  1  0  0  0  0
 10  8  1  6  0  0  0
 11 15  1  0  0  0  0
 12 24  1  0  0  0  0
 12 25  1  0  0  0  0
 12 28  1  0  0  0  0
 13  9  2  0  0  0  0
 13 26  1  0  0  0  0
 14  8  1  0  0  0  0
 15 19  1  0  0  0  0
 16 20  2  0  0  0  0
 17  3  2  0  0  0  0
 18  9  1  0  0  0  0
 19 25  1  0  0  0  0
 20  4  1  0  0  0  0
 21 22  1  0  0  0  0
 22  4  2  0  0  0  0
 23  6  1  0  0  0  0
 23 15  2  0  0  0  0
 24 26  1  0  0  0  0
 24  5  1  0  0  0  0
 25 17  1  0  0  0  0
 26 10  1  0  0  0  0
 28 16  1  0  0  0  0
 28 10  1  0  0  0  0
M  END
>  <MODEL>
8

>  <REMARK>
 VINA RESULT:      -5.0      4.556      7.296
  Name = 
  0 active torsions:
  status: ('A' for Active; 'I' for Inactive)
                            x       y       z     vdW  Elec       q    Type
                         _______ _______ _______ _____ _____    ______ ____

>  <TORSDO>
F 0

$$$$
=
 OpenBabel11122411503D

 28 32  0  0  1  0  0  0  0  0999 V2000
  186.7460  177.5010  143.0840 C   0  0  0  0  0  0  0  0  0  0  0  0
  186.5070  177.4230  138.8450 O   0  0  0  0  0  0  0  0  0  0  0  0
  191.7350  179.1720  143.5340 O   0  0  0  0  0  0  0  0  0  0  0  0
  185.9090  179.9270  141.9540 C   0  0  0  0  0  3  0  0  0  0  0  0
  191.6730  177.8670  141.5820 N   0  0  0  0  0  0  0  0  0  0  0  0
  187.2080  176.2570  143.7840 C   0  0  0  0  0  2  0  0  0  0  0  0
  188.0080  179.0300  137.7430 O   0  0  0  0  0  0  0  0  0  0  0  0
  187.9310  177.7140  138.4640 S   0  0  0  0  0  0  0  0  0  0  0  0
  189.5280  175.5720  137.9000 C   0  0  0  0  0  0  0  0  0  0  0  0
  188.9810  177.7770  139.9040 C   0  0  2  0  0  3  0  0  0  0  0  0
  189.2870  177.2230  146.7390 N   0  0  0  0  0  1  0  0  0  0  0  0
  189.6190  176.7170  141.9910 C   0  0  1  0  0  3  0  0  0  0  0  0
  190.2730  175.8500  138.9290 N   0  0  0  0  0  0  0  0  0  0  0  0
  188.5180  176.4640  137.4390 N   0  0  0  0  0  2  0  0  0  0  0  0
  188.9610  176.8810  145.3980 C   0  0  0  0  0  0  0  0  0  0  0  0
  187.3480  177.9580  141.8860 C   0  0  0  0  0  0  0  0  0  0  0  0
  191.1650  178.3000  142.8250 C   0  0  0  0  0  0  0  0  0  0  0  0
  189.6970  174.2630  137.2190 C   0  0  0  0  0  1  0  0  0  0  0  0
  190.0860  176.7530  144.4130 C   0  0  0  0  0  2  0  0  0  0  0  0
  186.9180  179.1820  141.3430 C   0  0  0  0  0  3  0  0  0  0  0  0
  185.7250  178.2530  143.6810 C   0  0  0  0  0  3  0  0  0  0  0  0
  185.3050  179.4590  143.1190 C   0  0  0  0  0  3  0  0  0  0  0  0
  187.7220  176.6020  145.1080 N   0  0  0  0  0  0  0  0  0  0  0  0
  190.8490  176.7920  141.0630 C   0  0  1  0  0  3  0  0  0  0  0  0
  189.8960  177.6380  143.1930 C   0  0  2  0  0  3  0  0  0  0  0  0
  190.3370  177.1150  139.6710 C   0  0  2  0  0  3  0  0  0  0  0  0
  192.9980  178.1900  141.0780 C   0  0  0  0  0  1  0  0  0  0  0  0
  188.3970  177.1270  141.1540 C   0  0  1  0  0  3  0  0  0  0  0  0
  1 21  1  0  0  0  0
  1  6  1  0  0  0  0
  4 22  1  0  0  0  0
  5 17  1  0  0  0  0
  6 23  1  0  0  0  0
  7  8  2  0  0  0  0
  8  2  2  0  0  0  0
  9 13  2  0  0  0  0
 10  8  1  6  0  0  0
 10 28  1  0  0  0  0
 12 25  1  0  0  0  0
 13 26  1  0  0  0  0
 14  9  1  0  0  0  0
 14  8  1  0  0  0  0
 15 11  1  0  0  0  0
 16  1  2  0  0  0  0
 17 25  1  0  0  0  0
 17  3  2  0  0  0  0
 18  9  1  0  0  0  0
 19 15  1  0  0  0  0
 20 16  1  0  0  0  0
 20  4  2  0  0  0  0
 22 21  2  0  0  0  0
 23 15  2  0  0  0  0
 24  5  1  0  0  0  0
 24 12  1  0  0  0  0
 25 19  1  0  0  0  0
 26 10  1  0  0  0  0
 26 24  1  0  0  0  0
 27  5  1  0  0  0  0
 28 16  1  0  0  0  0
 28 12  1  0  0  0  0
M  END
>  <MODEL>
9

>  <REMARK>
 VINA RESULT:      -5.0      5.978      7.546
  Name = 
  0 active torsions:
  status: ('A' for Active; 'I' for Inactive)
                            x       y       z     vdW  Elec       q    Type
                         _______ _______ _______ _____ _____    ______ ____

>  <TORSDO>
F 0

$$$$
