=
 OpenBabel11122412183D

 34 40  0  0  1  0  0  0  0  0999 V2000
  188.9850  177.5800  146.9960 C   0  0  1  0  0  3  0  0  0  0  0  0
  191.0500  176.1430  147.5130 C   0  0  0  0  0  2  0  0  0  0  0  0
  183.8560  178.1470  142.6880 C   0  0  2  0  0  3  0  0  0  0  0  0
  186.6130  178.1040  146.1330 C   0  0  1  0  0  3  0  0  0  0  0  0
  186.0700  177.9780  143.6750 C   0  0  1  0  0  3  0  0  0  0  0  0
  185.3320  178.0330  141.1620 C   0  0  0  0  0  2  0  0  0  0  0  0
  183.8240  177.8080  141.2150 C   0  0  0  0  0  2  0  0  0  0  0  0
  183.5120  179.8220  144.5390 C   0  0  0  0  0  2  0  0  0  0  0  0
  190.7540  177.0870  145.3680 C   0  0  2  0  0  3  0  0  0  0  0  0
  187.5560  178.0110  143.3340 C   0  0  0  0  0  2  0  0  0  0  0  0
  184.2990  178.7940  145.3780 C   0  0  0  0  0  2  0  0  0  0  0  0
  189.8950  177.2700  144.1100 C   0  0  1  0  0  3  0  0  0  0  0  0
  192.2290  175.7000  146.6490 C   0  0  0  0  0  2  0  0  0  0  0  0
  185.8000  178.7450  145.0000 C   0  0  1  0  0  3  0  0  0  0  0  0
  182.9820  179.2800  143.1930 C   0  0  0  0  0  2  0  0  0  0  0  0
  188.1180  178.1180  145.8100 C   0  0  2  0  0  3  0  0  0  0  0  0
  185.2740  178.6300  142.5570 C   0  0  1  0  0  3  0  0  0  0  0  0
  188.3870  177.3990  144.4640 C   0  0  1  0  0  3  0  0  0  0  0  0
  187.1360  178.1070  148.6270 C   0  0  0  0  0  2  0  0  0  0  0  0
  186.3830  178.7970  147.4790 C   0  0  0  0  0  2  0  0  0  0  0  0
  191.9300  176.1540  145.2220 C   0  0  0  0  0  2  0  0  0  0  0  0
  188.1370  177.0490  148.1560 C   0  0  0  0  0  2  0  0  0  0  0  0
  189.9760  176.5220  146.5200 C   0  0  2  0  0  3  0  0  0  0  0  0
  190.4090  178.4880  143.3380 C   0  0  0  0  0  2  0  0  0  0  0  0
  191.4400  178.0890  142.2940 C   0  0  0  0  0  2  0  0  0  0  0  0
  191.0330  176.7930  141.6180 C   0  0  0  0  0  2  0  0  0  0  0  0
  190.6980  177.0660  140.1680 C   0  0  0  0  0  2  0  0  0  0  0  0
  189.1950  177.0030  139.9760 C   0  0  0  0  0  2  0  0  0  0  0  0
  188.6360  178.3830  139.6690 C   0  0  0  0  0  2  0  0  0  0  0  0
  188.9660  178.2340  136.3630 C   0  0  0  0  0  2  0  0  0  0  0  0
  187.7950  177.0160  137.7650 C   0  0  0  0  0  2  0  0  0  0  0  0
  187.9250  178.4020  138.3220 C   0  0  2  0  0  3  0  0  0  0  0  0
  188.1300  177.1120  136.4230 O   0  0  0  0  0  0  0  0  0  0  0  0
  188.6730  179.1340  137.4020 O   0  0  0  0  0  0  0  0  0  0  0  0
  1 22  1  1  0  0  0
  3  7  1  6  0  0  0
  3 15  1  0  0  0  0
  4 20  1  1  0  0  0
  5 10  1  6  0  0  0
  5 14  1  0  0  0  0
  6  7  1  0  0  0  0
  6 17  1  0  0  0  0
  8 11  1  0  0  0  0
  9 21  1  6  0  0  0
  9 23  1  0  0  0  0
 10 18  1  0  0  0  0
 12 24  1  1  0  0  0
 12 18  1  0  0  0  0
 12  9  1  0  0  0  0
 13  2  1  0  0  0  0
 14 11  1  1  0  0  0
 14  4  1  0  0  0  0
 15  8  1  0  0  0  0
 16  4  1  0  0  0  0
 16  1  1  0  0  0  0
 17  3  1  0  0  0  0
 17  5  1  0  0  0  0
 18 16  1  0  0  0  0
 20 19  1  0  0  0  0
 21 13  1  0  0  0  0
 22 19  1  0  0  0  0
 23  1  1  0  0  0  0
 23  2  1  0  0  0  0
 25 24  1  0  0  0  0
 26 25  1  0  0  0  0
 27 26  1  0  0  0  0
 28 27  1  0  0  0  0
 29 28  1  0  0  0  0
 30 33  1  0  0  0  0
 30 34  1  0  0  0  0
 31 32  1  0  0  0  0
 32 29  1  0  0  0  0
 33 31  1  0  0  0  0
 34 32  1  0  0  0  0
M  END
>  <MODEL>
1

>  <REMARK>
 VINA RESULT:      -9.7      0.000      0.000
  Name = 
  7 active torsions:
  status: ('A' for Active; 'I' for Inactive)
    1  A    between atoms: C_10  and  C_17
    2  A    between atoms: C_10  and  C_22
    3  A    between atoms: C_13  and  C_24
    4  A    between atoms: C_17  and  C_28
    5  A    between atoms: C_22  and  C_24
    6  A    between atoms: C_28  and  C_29
    7  A    between atoms: C_29  and  C_32
                            x       y       z     vdW  Elec       q    Type
                         _______ _______ _______ _____ _____    ______ ____

>  <TORSDO>
F 7

$$$$
=
 OpenBabel11122412183D

 34 40  0  0  1  0  0  0  0  0999 V2000
  188.9850  177.6000  146.8320 C   0  0  1  0  0  3  0  0  0  0  0  0
  191.0400  176.1430  147.3350 C   0  0  0  0  0  2  0  0  0  0  0  0
  183.7290  178.1100  142.6720 C   0  0  2  0  0  3  0  0  0  0  0  0
  186.5960  178.1370  146.0260 C   0  0  1  0  0  3  0  0  0  0  0  0
  185.9710  177.9350  143.5940 C   0  0  1  0  0  3  0  0  0  0  0  0
  185.1530  177.9140  141.1050 C   0  0  0  0  0  2  0  0  0  0  0  0
  183.6440  177.7190  141.2140 C   0  0  0  0  0  2  0  0  0  0  0  0
  183.4750  179.8560  144.4710 C   0  0  0  0  0  2  0  0  0  0  0  0
  190.6910  177.0160  145.1670 C   0  0  2  0  0  3  0  0  0  0  0  0
  187.4460  177.9270  143.2040 C   0  0  0  0  0  2  0  0  0  0  0  0
  184.2710  178.8440  145.3210 C   0  0  0  0  0  2  0  0  0  0  0  0
  189.7950  177.1710  143.9320 C   0  0  1  0  0  3  0  0  0  0  0  0
  192.1820  175.6480  146.4500 C   0  0  0  0  0  2  0  0  0  0  0  0
  185.7580  178.7530  144.8980 C   0  0  1  0  0  3  0  0  0  0  0  0
  182.8920  179.2770  143.1630 C   0  0  0  0  0  2  0  0  0  0  0  0
  188.0890  178.1110  145.6560 C   0  0  2  0  0  3  0  0  0  0  0  0
  185.1500  178.5610  142.4790 C   0  0  1  0  0  3  0  0  0  0  0  0
  188.3020  177.3410  144.3290 C   0  0  1  0  0  3  0  0  0  0  0  0
  187.1990  178.2200  148.5010 C   0  0  0  0  0  2  0  0  0  0  0  0
  186.4220  178.8820  147.3530 C   0  0  0  0  0  2  0  0  0  0  0  0
  191.8450  176.0570  145.0180 C   0  0  0  0  0  2  0  0  0  0  0  0
  188.1660  177.1260  148.0370 C   0  0  0  0  0  2  0  0  0  0  0  0
  189.9410  176.5080  146.3640 C   0  0  2  0  0  3  0  0  0  0  0  0
  190.3050  178.3500  143.1000 C   0  0  0  0  0  2  0  0  0  0  0  0
  191.1570  177.8790  141.9320 C   0  0  0  0  0  2  0  0  0  0  0  0
  190.3290  177.0370  140.9810 C   0  0  0  0  0  2  0  0  0  0  0  0
  189.3560  177.9260  140.2390 C   0  0  0  0  0  2  0  0  0  0  0  0
  189.6350  177.8500  138.7500 C   0  0  0  0  0  2  0  0  0  0  0  0
  189.1440  176.5290  138.1810 C   0  0  0  0  0  2  0  0  0  0  0  0
  192.1210  175.1020  137.7810 C   0  0  0  0  0  2  0  0  0  0  0  0
  190.1040  174.4470  137.2090 C   0  0  0  0  0  2  0  0  0  0  0  0
  190.1480  175.9460  137.1950 C   0  0  2  0  0  3  0  0  0  0  0  0
  191.4270  174.0280  137.2090 O   0  0  0  0  0  0  0  0  0  0  0  0
  191.4410  176.3120  137.5630 O   0  0  0  0  0  0  0  0  0  0  0  0
  1 22  1  1  0  0  0
  3  7  1  6  0  0  0
  3 15  1  0  0  0  0
  4 20  1  1  0  0  0
  5 10  1  6  0  0  0
  5 14  1  0  0  0  0
  6  7  1  0  0  0  0
  6 17  1  0  0  0  0
  8 11  1  0  0  0  0
  9 21  1  6  0  0  0
  9 23  1  0  0  0  0
 10 18  1  0  0  0  0
 12 24  1  1  0  0  0
 12 18  1  0  0  0  0
 12  9  1  0  0  0  0
 13  2  1  0  0  0  0
 14 11  1  1  0  0  0
 14  4  1  0  0  0  0
 15  8  1  0  0  0  0
 16  4  1  0  0  0  0
 16  1  1  0  0  0  0
 17  3  1  0  0  0  0
 17  5  1  0  0  0  0
 18 16  1  0  0  0  0
 20 19  1  0  0  0  0
 21 13  1  0  0  0  0
 22 19  1  0  0  0  0
 23  1  1  0  0  0  0
 23  2  1  0  0  0  0
 25 24  1  0  0  0  0
 26 25  1  0  0  0  0
 27 26  1  0  0  0  0
 28 27  1  0  0  0  0
 29 28  1  0  0  0  0
 31 33  1  0  0  0  0
 32 31  1  0  0  0  0
 32 34  1  0  0  0  0
 32 29  1  0  0  0  0
 33 30  1  0  0  0  0
 34 30  1  0  0  0  0
M  END
>  <MODEL>
2

>  <REMARK>
 VINA RESULT:      -9.1      1.454      1.678
  Name = 
  7 active torsions:
  status: ('A' for Active; 'I' for Inactive)
    1  A    between atoms: C_10  and  C_17
    2  A    between atoms: C_10  and  C_22
    3  A    between atoms: C_13  and  C_24
    4  A    between atoms: C_17  and  C_28
    5  A    between atoms: C_22  and  C_24
    6  A    between atoms: C_28  and  C_29
    7  A    between atoms: C_29  and  C_32
                            x       y       z     vdW  Elec       q    Type
                         _______ _______ _______ _____ _____    ______ ____

>  <TORSDO>
F 7

$$$$
=
 OpenBabel11122412183D

 34 40  0  0  1  0  0  0  0  0999 V2000
  188.3450  177.9070  145.8390 C   0  0  1  0  0  3  0  0  0  0  0  0
  190.5160  176.5800  146.1890 C   0  0  0  0  0  2  0  0  0  0  0  0
  182.6680  177.9430  142.2390 C   0  0  2  0  0  3  0  0  0  0  0  0
  185.8600  178.2850  145.2660 C   0  0  1  0  0  3  0  0  0  0  0  0
  184.9990  177.9260  142.9250 C   0  0  1  0  0  3  0  0  0  0  0  0
  183.9300  177.7350  140.5400 C   0  0  0  0  0  2  0  0  0  0  0  0
  182.4540  177.4740  140.8180 C   0  0  0  0  0  2  0  0  0  0  0  0
  182.5080  179.7670  143.9710 C   0  0  0  0  0  2  0  0  0  0  0  0
  189.8980  177.3210  144.0310 C   0  0  2  0  0  3  0  0  0  0  0  0
  186.4240  177.9700  142.3820 C   0  0  0  0  0  2  0  0  0  0  0  0
  183.4410  178.8410  144.7780 C   0  0  0  0  0  2  0  0  0  0  0  0
  188.8730  177.3670  142.8920 C   0  0  1  0  0  3  0  0  0  0  0  0
  191.5850  176.0950  145.2120 C   0  0  0  0  0  2  0  0  0  0  0  0
  184.8780  178.7990  144.2050 C   0  0  1  0  0  3  0  0  0  0  0  0
  181.8250  179.0920  142.7610 C   0  0  0  0  0  2  0  0  0  0  0  0
  187.3060  178.3120  144.7410 C   0  0  2  0  0  3  0  0  0  0  0  0
  184.0350  178.4530  141.8760 C   0  0  1  0  0  3  0  0  0  0  0  0
  187.4220  177.4850  143.4360 C   0  0  1  0  0  3  0  0  0  0  0  0
  186.7100  178.5260  147.6560 C   0  0  0  0  0  2  0  0  0  0  0  0
  185.7840  179.0890  146.5670 C   0  0  0  0  0  2  0  0  0  0  0  0
  191.0810  176.4120  143.8060 C   0  0  0  0  0  2  0  0  0  0  0  0
  187.6820  177.4580  147.1440 C   0  0  0  0  0  2  0  0  0  0  0  0
  189.3050  176.8400  145.3230 C   0  0  2  0  0  3  0  0  0  0  0  0
  189.2300  178.5250  141.9560 C   0  0  0  0  0  2  0  0  0  0  0  0
  189.4390  178.0420  140.5300 C   0  0  0  0  0  2  0  0  0  0  0  0
  190.7950  177.3780  140.3890 C   0  0  0  0  0  2  0  0  0  0  0  0
  190.7520  176.3830  139.2510 C   0  0  0  0  0  2  0  0  0  0  0  0
  189.5420  176.6620  138.3810 C   0  0  0  0  0  2  0  0  0  0  0  0
  189.9460  176.7680  136.9200 C   0  0  0  0  0  2  0  0  0  0  0  0
  187.0110  178.2810  136.5280 C   0  0  0  0  0  2  0  0  0  0  0  0
  188.9790  179.0530  137.1220 C   0  0  0  0  0  2  0  0  0  0  0  0
  189.1760  177.8760  136.2140 C   0  0  2  0  0  3  0  0  0  0  0  0
  187.6600  179.4480  136.9540 O   0  0  0  0  0  0  0  0  0  0  0  0
  187.9050  177.4230  135.8660 O   0  0  0  0  0  0  0  0  0  0  0  0
  1 22  1  1  0  0  0
  3  7  1  6  0  0  0
  3 15  1  0  0  0  0
  4 20  1  1  0  0  0
  5 10  1  6  0  0  0
  5 14  1  0  0  0  0
  6  7  1  0  0  0  0
  6 17  1  0  0  0  0
  8 11  1  0  0  0  0
  9 21  1  6  0  0  0
  9 23  1  0  0  0  0
 10 18  1  0  0  0  0
 12 24  1  6  0  0  0
 12 18  1  0  0  0  0
 12  9  1  0  0  0  0
 13  2  1  0  0  0  0
 14 11  1  1  0  0  0
 14  4  1  0  0  0  0
 15  8  1  0  0  0  0
 16  4  1  0  0  0  0
 16  1  1  0  0  0  0
 17  3  1  0  0  0  0
 17  5  1  0  0  0  0
 18 16  1  0  0  0  0
 20 19  1  0  0  0  0
 21 13  1  0  0  0  0
 22 19  1  0  0  0  0
 23  1  1  0  0  0  0
 23  2  1  0  0  0  0
 25 24  1  0  0  0  0
 26 25  1  0  0  0  0
 27 26  1  0  0  0  0
 28 27  1  0  0  0  0
 29 28  1  0  0  0  0
 30 33  1  0  0  0  0
 32 29  1  0  0  0  0
 32 31  1  0  0  0  0
 33 31  1  0  0  0  0
 34 32  1  0  0  0  0
 34 30  1  0  0  0  0
M  END
>  <MODEL>
3

>  <REMARK>
 VINA RESULT:      -8.7      1.144      1.712
  Name = 
  7 active torsions:
  status: ('A' for Active; 'I' for Inactive)
    1  A    between atoms: C_10  and  C_17
    2  A    between atoms: C_10  and  C_22
    3  A    between atoms: C_13  and  C_24
    4  A    between atoms: C_17  and  C_28
    5  A    between atoms: C_22  and  C_24
    6  A    between atoms: C_28  and  C_29
    7  A    between atoms: C_29  and  C_32
                            x       y       z     vdW  Elec       q    Type
                         _______ _______ _______ _____ _____    ______ ____

>  <TORSDO>
F 7

$$$$
=
 OpenBabel11122412183D

 34 40  0  0  1  0  0  0  0  0999 V2000
  188.0160  177.9550  145.1320 C   0  0  1  0  0  3  0  0  0  0  0  0
  190.2590  176.7120  145.2760 C   0  0  0  0  0  2  0  0  0  0  0  0
  182.1630  177.9820  141.8250 C   0  0  2  0  0  3  0  0  0  0  0  0
  185.4900  178.2550  144.7110 C   0  0  1  0  0  3  0  0  0  0  0  0
  184.5250  178.0260  142.3940 C   0  0  1  0  0  3  0  0  0  0  0  0
  183.3440  177.9590  140.0560 C   0  0  0  0  0  2  0  0  0  0  0  0
  181.8960  177.6080  140.3850 C   0  0  0  0  0  2  0  0  0  0  0  0
  182.0130  179.6660  143.6940 C   0  0  0  0  0  2  0  0  0  0  0  0
  189.4970  177.5770  143.2130 C   0  0  2  0  0  3  0  0  0  0  0  0
  185.9160  178.1770  141.7870 C   0  0  0  0  0  2  0  0  0  0  0  0
  183.0260  178.7290  144.3840 C   0  0  0  0  0  2  0  0  0  0  0  0
  188.4130  177.6560  142.1310 C   0  0  1  0  0  3  0  0  0  0  0  0
  191.2960  176.3500  144.2150 C   0  0  0  0  0  2  0  0  0  0  0  0
  184.4330  178.7980  143.7400 C   0  0  1  0  0  3  0  0  0  0  0  0
  181.2990  179.0490  142.4720 C   0  0  0  0  0  2  0  0  0  0  0  0
  186.9050  178.3890  144.1190 C   0  0  2  0  0  3  0  0  0  0  0  0
  183.4860  178.5810  141.4350 C   0  0  1  0  0  3  0  0  0  0  0  0
  186.9880  177.6650  142.7530 C   0  0  1  0  0  3  0  0  0  0  0  0
  186.4520  178.3620  147.0680 C   0  0  0  0  0  2  0  0  0  0  0  0
  185.4470  178.9580  146.0710 C   0  0  0  0  0  2  0  0  0  0  0  0
  190.7050  176.7440  142.8620 C   0  0  0  0  0  2  0  0  0  0  0  0
  187.4420  177.3820  146.4310 C   0  0  0  0  0  2  0  0  0  0  0  0
  188.9930  176.9750  144.4920 C   0  0  2  0  0  3  0  0  0  0  0  0
  188.6700  178.8950  141.2690 C   0  0  0  0  0  2  0  0  0  0  0  0
  189.1580  178.5130  139.8800 C   0  0  0  0  0  2  0  0  0  0  0  0
  188.4490  177.2630  139.3960 C   0  0  0  0  0  2  0  0  0  0  0  0
  187.7560  177.5550  138.0830 C   0  0  0  0  0  2  0  0  0  0  0  0
  188.0790  176.4580  137.0870 C   0  0  0  0  0  2  0  0  0  0  0  0
  189.2220  176.8810  136.1780 C   0  0  0  0  0  2  0  0  0  0  0  0
  191.5970  175.8180  138.2480 C   0  0  0  0  0  2  0  0  0  0  0  0
  190.0650  174.7320  137.1090 C   0  0  0  0  0  2  0  0  0  0  0  0
  190.4340  175.9760  136.3580 C   0  0  2  0  0  3  0  0  0  0  0  0
  191.0760  174.5340  138.0380 O   0  0  0  0  0  0  0  0  0  0  0  0
  191.4030  176.6290  137.1170 O   0  0  0  0  0  0  0  0  0  0  0  0
  1 22  1  1  0  0  0
  3  7  1  6  0  0  0
  3 15  1  0  0  0  0
  4 20  1  1  0  0  0
  5 10  1  6  0  0  0
  5 14  1  0  0  0  0
  6  7  1  0  0  0  0
  6 17  1  0  0  0  0
  8 11  1  0  0  0  0
  9 21  1  6  0  0  0
  9 23  1  0  0  0  0
 10 18  1  0  0  0  0
 12 24  1  1  0  0  0
 12 18  1  0  0  0  0
 12  9  1  0  0  0  0
 13  2  1  0  0  0  0
 14 11  1  1  0  0  0
 14  4  1  0  0  0  0
 15  8  1  0  0  0  0
 16  4  1  0  0  0  0
 16  1  1  0  0  0  0
 17  3  1  0  0  0  0
 17  5  1  0  0  0  0
 18 16  1  0  0  0  0
 20 19  1  0  0  0  0
 21 13  1  0  0  0  0
 22 19  1  0  0  0  0
 23  1  1  0  0  0  0
 23  2  1  0  0  0  0
 25 24  1  0  0  0  0
 26 25  1  0  0  0  0
 27 26  1  0  0  0  0
 28 27  1  0  0  0  0
 29 32  1  0  0  0  0
 29 28  1  0  0  0  0
 31 33  1  0  0  0  0
 32 31  1  0  0  0  0
 32 34  1  0  0  0  0
 33 30  1  0  0  0  0
 34 30  1  0  0  0  0
M  END
>  <MODEL>
4

>  <REMARK>
 VINA RESULT:      -8.5      1.656      2.700
  Name = 
  7 active torsions:
  status: ('A' for Active; 'I' for Inactive)
    1  A    between atoms: C_10  and  C_17
    2  A    between atoms: C_10  and  C_22
    3  A    between atoms: C_13  and  C_24
    4  A    between atoms: C_17  and  C_28
    5  A    between atoms: C_22  and  C_24
    6  A    between atoms: C_28  and  C_29
    7  A    between atoms: C_29  and  C_32
                            x       y       z     vdW  Elec       q    Type
                         _______ _______ _______ _____ _____    ______ ____

>  <TORSDO>
F 7

$$$$
=
 OpenBabel11122412183D

 34 40  0  0  1  0  0  0  0  0999 V2000
  187.9550  177.2130  144.3530 C   0  0  1  0  0  3  0  0  0  0  0  0
  186.8810  178.3400  146.3960 C   0  0  0  0  0  2  0  0  0  0  0  0
  189.6230  178.3340  137.9380 C   0  0  2  0  0  3  0  0  0  0  0  0
  189.2870  177.0640  142.1500 C   0  0  1  0  0  3  0  0  0  0  0  0
  188.4090  178.1080  140.0310 C   0  0  1  0  0  3  0  0  0  0  0  0
  187.6200  179.0060  137.6990 C   0  0  0  0  0  2  0  0  0  0  0  0
  188.9170  179.2020  136.9210 C   0  0  0  0  0  2  0  0  0  0  0  0
  190.5480  176.0870  138.6050 C   0  0  0  0  0  2  0  0  0  0  0  0
  185.7420  178.2730  144.3260 C   0  0  2  0  0  3  0  0  0  0  0  0
  187.0140  178.1980  140.6390 C   0  0  0  0  0  2  0  0  0  0  0  0
  190.5940  176.7200  140.0120 C   0  0  0  0  0  2  0  0  0  0  0  0
  185.7080  178.5810  142.8240 C   0  0  1  0  0  3  0  0  0  0  0  0
  185.5520  179.0690  146.5780 C   0  0  0  0  0  2  0  0  0  0  0  0
  189.1850  176.9000  140.6280 C   0  0  1  0  0  3  0  0  0  0  0  0
  190.3590  177.0980  137.4530 C   0  0  0  0  0  2  0  0  0  0  0  0
  187.8900  177.1650  142.7900 C   0  0  2  0  0  3  0  0  0  0  0  0
  188.3000  177.9280  138.5260 C   0  0  1  0  0  3  0  0  0  0  0  0
  187.0930  178.3360  142.1620 C   0  0  1  0  0  3  0  0  0  0  0  0
  190.2270  176.1200  144.3220 C   0  0  0  0  0  2  0  0  0  0  0  0
  190.0580  175.9170  142.8090 C   0  0  0  0  0  2  0  0  0  0  0  0
  184.9140  179.1870  145.1950 C   0  0  0  0  0  2  0  0  0  0  0  0
  189.3900  177.2730  144.8840 C   0  0  0  0  0  2  0  0  0  0  0  0
  187.1240  178.3670  144.9040 C   0  0  2  0  0  3  0  0  0  0  0  0
  184.6060  177.7410  142.1750 C   0  0  0  0  0  2  0  0  0  0  0  0
  183.3280  178.5450  141.9940 C   0  0  0  0  0  2  0  0  0  0  0  0
  182.8230  178.4200  140.5690 C   0  0  0  0  0  2  0  0  0  0  0  0
  183.7060  179.2350  139.6500 C   0  0  0  0  0  2  0  0  0  0  0  0
  184.0520  178.4140  138.4230 C   0  0  0  0  0  2  0  0  0  0  0  0
  183.5620  176.9840  138.5810 C   0  0  0  0  0  2  0  0  0  0  0  0
  185.9530  175.2940  137.0050 C   0  0  0  0  0  2  0  0  0  0  0  0
  183.9700  174.6830  137.7230 C   0  0  0  0  0  2  0  0  0  0  0  0
  183.9270  176.1390  137.3670 C   0  0  2  0  0  3  0  0  0  0  0  0
  185.1150  174.1780  137.1240 O   0  0  0  0  0  0  0  0  0  0  0  0
  185.2020  176.4790  136.9200 O   0  0  0  0  0  0  0  0  0  0  0  0
  1 22  1  6  0  0  0
  1 23  1  0  0  0  0
  2 13  1  0  0  0  0
  3  7  1  6  0  0  0
  3 17  1  0  0  0  0
  4 16  1  0  0  0  0
  4 20  1  1  0  0  0
  5 14  1  0  0  0  0
  5 10  1  1  0  0  0
  6 17  1  0  0  0  0
  7  6  1  0  0  0  0
  8 11  1  0  0  0  0
  9 23  1  0  0  0  0
  9 21  1  1  0  0  0
 10 18  1  0  0  0  0
 12 24  1  6  0  0  0
 12  9  1  0  0  0  0
 14 11  1  6  0  0  0
 14  4  1  0  0  0  0
 15  3  1  0  0  0  0
 15  8  1  0  0  0  0
 16  1  1  0  0  0  0
 17  5  1  0  0  0  0
 18 16  1  0  0  0  0
 18 12  1  0  0  0  0
 19 22  1  0  0  0  0
 20 19  1  0  0  0  0
 21 13  1  0  0  0  0
 23  2  1  0  0  0  0
 25 24  1  0  0  0  0
 26 25  1  0  0  0  0
 27 26  1  0  0  0  0
 28 29  1  0  0  0  0
 28 27  1  0  0  0  0
 30 33  1  0  0  0  0
 32 31  1  0  0  0  0
 32 29  1  0  0  0  0
 33 31  1  0  0  0  0
 34 30  1  0  0  0  0
 34 32  1  0  0  0  0
M  END
>  <MODEL>
5

>  <REMARK>
 VINA RESULT:      -8.2      1.945      5.923
  Name = 
  7 active torsions:
  status: ('A' for Active; 'I' for Inactive)
    1  A    between atoms: C_10  and  C_17
    2  A    between atoms: C_10  and  C_22
    3  A    between atoms: C_13  and  C_24
    4  A    between atoms: C_17  and  C_28
    5  A    between atoms: C_22  and  C_24
    6  A    between atoms: C_28  and  C_29
    7  A    between atoms: C_29  and  C_32
                            x       y       z     vdW  Elec       q    Type
                         _______ _______ _______ _____ _____    ______ ____

>  <TORSDO>
F 7

$$$$
=
 OpenBabel11122412183D

 34 40  0  0  1  0  0  0  0  0999 V2000
  182.6900  179.0790  143.5670 C   0  0  1  0  0  3  0  0  0  0  0  0
  183.8030  178.6370  145.8390 C   0  0  0  0  0  2  0  0  0  0  0  0
  182.1390  176.5810  137.3500 C   0  0  2  0  0  3  0  0  0  0  0  0
  181.6270  178.4980  141.2910 C   0  0  1  0  0  3  0  0  0  0  0  0
  182.9960  177.4640  139.4450 C   0  0  1  0  0  3  0  0  0  0  0  0
  184.2650  176.5090  137.3610 C   0  0  0  0  0  2  0  0  0  0  0  0
  183.1720  175.8230  136.5470 C   0  0  0  0  0  2  0  0  0  0  0  0
  180.5460  178.5230  137.5570 C   0  0  0  0  0  2  0  0  0  0  0  0
  185.1020  178.7350  143.8660 C   0  0  2  0  0  3  0  0  0  0  0  0
  184.2830  177.8840  140.1490 C   0  0  0  0  0  2  0  0  0  0  0  0
  180.5240  178.1190  139.0460 C   0  0  0  0  0  2  0  0  0  0  0  0
  185.3890  178.2340  142.4460 C   0  0  1  0  0  3  0  0  0  0  0  0
  185.2560  178.3720  146.2300 C   0  0  0  0  0  2  0  0  0  0  0  0
  181.8480  178.4590  139.7730 C   0  0  1  0  0  3  0  0  0  0  0  0
  181.1430  177.4560  136.6120 C   0  0  0  0  0  2  0  0  0  0  0  0
  182.9140  178.9140  142.0260 C   0  0  2  0  0  3  0  0  0  0  0  0
  183.2180  177.4450  137.9430 C   0  0  1  0  0  3  0  0  0  0  0  0
  184.0750  177.9550  141.6640 C   0  0  1  0  0  3  0  0  0  0  0  0
  180.2200  179.4280  143.2010 C   0  0  0  0  0  2  0  0  0  0  0  0
  180.4930  179.4480  141.6890 C   0  0  0  0  0  2  0  0  0  0  0  0
  186.0510  178.2480  144.9330 C   0  0  0  0  0  2  0  0  0  0  0  0
  181.2810  178.6730  144.0070 C   0  0  0  0  0  2  0  0  0  0  0  0
  183.7470  178.3200  144.3620 C   0  0  2  0  0  3  0  0  0  0  0  0
  186.2740  179.2600  141.7330 C   0  0  0  0  0  2  0  0  0  0  0  0
  187.5350  178.6160  141.1800 C   0  0  0  0  0  2  0  0  0  0  0  0
  188.4820  178.2530  142.3080 C   0  0  0  0  0  2  0  0  0  0  0  0
  188.7310  176.7610  142.2940 C   0  0  0  0  0  2  0  0  0  0  0  0
  189.5240  176.3700  143.5270 C   0  0  0  0  0  2  0  0  0  0  0  0
  189.0980  177.2040  144.7240 C   0  0  0  0  0  2  0  0  0  0  0  0
  190.9830  176.3990  147.3420 C   0  0  0  0  0  2  0  0  0  0  0  0
  191.4920  176.7480  145.2350 C   0  0  0  0  0  2  0  0  0  0  0  0
  190.2950  177.5810  145.5870 C   0  0  2  0  0  3  0  0  0  0  0  0
  192.0560  176.3620  146.4420 O   0  0  0  0  0  0  0  0  0  0  0  0
  190.0110  177.3260  146.9270 O   0  0  0  0  0  0  0  0  0  0  0  0
  1 22  1  1  0  0  0
  1 23  1  0  0  0  0
  2 13  1  0  0  0  0
  3  7  1  6  0  0  0
  3 17  1  0  0  0  0
  4 20  1  6  0  0  0
  4 16  1  0  0  0  0
  5 14  1  0  0  0  0
  5 10  1  1  0  0  0
  6 17  1  0  0  0  0
  7  6  1  0  0  0  0
  8 11  1  0  0  0  0
  9 23  1  0  0  0  0
  9 21  1  1  0  0  0
 10 18  1  0  0  0  0
 12 24  1  6  0  0  0
 12  9  1  0  0  0  0
 14 11  1  6  0  0  0
 14  4  1  0  0  0  0
 15  3  1  0  0  0  0
 15  8  1  0  0  0  0
 16  1  1  0  0  0  0
 17  5  1  0  0  0  0
 18 16  1  0  0  0  0
 18 12  1  0  0  0  0
 19 22  1  0  0  0  0
 20 19  1  0  0  0  0
 21 13  1  0  0  0  0
 23  2  1  0  0  0  0
 25 24  1  0  0  0  0
 25 26  1  0  0  0  0
 27 26  1  0  0  0  0
 27 28  1  0  0  0  0
 28 29  1  0  0  0  0
 29 32  1  0  0  0  0
 31 32  1  0  0  0  0
 31 33  1  0  0  0  0
 32 34  1  0  0  0  0
 33 30  1  0  0  0  0
 34 30  1  0  0  0  0
M  END
>  <MODEL>
6

>  <REMARK>
 VINA RESULT:      -8.1      3.399      6.803
  Name = 
  7 active torsions:
  status: ('A' for Active; 'I' for Inactive)
    1  A    between atoms: C_10  and  C_17
    2  A    between atoms: C_10  and  C_22
    3  A    between atoms: C_13  and  C_24
    4  A    between atoms: C_17  and  C_28
    5  A    between atoms: C_22  and  C_24
    6  A    between atoms: C_28  and  C_29
    7  A    between atoms: C_29  and  C_32
                            x       y       z     vdW  Elec       q    Type
                         _______ _______ _______ _____ _____    ______ ____

>  <TORSDO>
F 7

$$$$
=
 OpenBabel11122412183D

 34 40  0  0  1  0  0  0  0  0999 V2000
  189.3760  176.9320  145.1160 C   0  0  1  0  0  3  0  0  0  0  0  0
  188.5790  177.9520  147.3340 C   0  0  0  0  0  2  0  0  0  0  0  0
  189.8590  178.2430  138.5400 C   0  0  2  0  0  3  0  0  0  0  0  0
  190.3280  176.9090  142.7190 C   0  0  1  0  0  3  0  0  0  0  0  0
  189.0330  177.9030  140.8000 C   0  0  1  0  0  3  0  0  0  0  0  0
  187.8000  178.7610  138.6530 C   0  0  0  0  0  2  0  0  0  0  0  0
  188.9300  179.0640  137.6750 C   0  0  0  0  0  2  0  0  0  0  0  0
  191.0470  176.0670  138.9930 C   0  0  0  0  0  2  0  0  0  0  0  0
  187.1180  177.8190  145.4820 C   0  0  2  0  0  3  0  0  0  0  0  0
  187.7560  177.8800  141.6340 C   0  0  0  0  0  2  0  0  0  0  0  0
  191.2810  176.6870  140.3860 C   0  0  0  0  0  2  0  0  0  0  0  0
  186.8110  178.1390  144.0130 C   0  0  1  0  0  3  0  0  0  0  0  0
  187.2490  178.5760  147.7520 C   0  0  0  0  0  2  0  0  0  0  0  0
  189.9850  176.7530  141.2320 C   0  0  1  0  0  3  0  0  0  0  0  0
  190.5930  177.0720  137.9120 C   0  0  0  0  0  2  0  0  0  0  0  0
  189.0550  176.8950  143.5850 C   0  0  2  0  0  3  0  0  0  0  0  0
  188.6870  177.7310  139.3310 C   0  0  1  0  0  3  0  0  0  0  0  0
  188.0790  178.0070  143.1250 C   0  0  1  0  0  3  0  0  0  0  0  0
  191.6860  176.0170  144.6830 C   0  0  0  0  0  2  0  0  0  0  0  0
  191.2810  175.8170  143.2140 C   0  0  0  0  0  2  0  0  0  0  0  0
  186.3820  178.6580  146.4970 C   0  0  0  0  0  2  0  0  0  0  0  0
  190.8720  177.0970  145.4020 C   0  0  0  0  0  2  0  0  0  0  0  0
  188.5660  178.0130  145.8240 C   0  0  2  0  0  3  0  0  0  0  0  0
  185.6800  177.2230  143.5380 C   0  0  0  0  0  2  0  0  0  0  0  0
  184.5550  178.0180  142.8950 C   0  0  0  0  0  2  0  0  0  0  0  0
  184.3310  179.3180  143.6430 C   0  0  0  0  0  2  0  0  0  0  0  0
  182.9620  179.2980  144.2870 C   0  0  0  0  0  2  0  0  0  0  0  0
  181.9340  178.8340  143.2740 C   0  0  0  0  0  2  0  0  0  0  0  0
  180.5740  178.6630  143.9310 C   0  0  0  0  0  2  0  0  0  0  0  0
  179.3070  180.8470  141.7670 C   0  0  0  0  0  2  0  0  0  0  0  0
  179.8880  178.7410  141.5390 C   0  0  0  0  0  2  0  0  0  0  0  0
  179.4470  178.9700  142.9540 C   0  0  2  0  0  3  0  0  0  0  0  0
  179.4180  179.8260  140.8130 O   0  0  0  0  0  0  0  0  0  0  0  0
  179.0910  180.3140  143.0500 O   0  0  0  0  0  0  0  0  0  0  0  0
  1 22  1  6  0  0  0
  1 23  1  0  0  0  0
  2 13  1  0  0  0  0
  3  7  1  6  0  0  0
  3 17  1  0  0  0  0
  4 20  1  1  0  0  0
  4 16  1  0  0  0  0
  5 14  1  0  0  0  0
  5 10  1  1  0  0  0
  6 17  1  0  0  0  0
  7  6  1  0  0  0  0
  8 11  1  0  0  0  0
  9 23  1  0  0  0  0
  9 21  1  1  0  0  0
 10 18  1  0  0  0  0
 12 24  1  6  0  0  0
 12  9  1  0  0  0  0
 14 11  1  6  0  0  0
 14  4  1  0  0  0  0
 15  3  1  0  0  0  0
 15  8  1  0  0  0  0
 16  1  1  0  0  0  0
 17  5  1  0  0  0  0
 18 16  1  0  0  0  0
 18 12  1  0  0  0  0
 19 22  1  0  0  0  0
 20 19  1  0  0  0  0
 21 13  1  0  0  0  0
 23  2  1  0  0  0  0
 25 24  1  0  0  0  0
 25 26  1  0  0  0  0
 26 27  1  0  0  0  0
 28 29  1  0  0  0  0
 28 27  1  0  0  0  0
 30 34  1  0  0  0  0
 31 32  1  0  0  0  0
 32 34  1  0  0  0  0
 32 29  1  0  0  0  0
 33 31  1  0  0  0  0
 33 30  1  0  0  0  0
M  END
>  <MODEL>
7

>  <REMARK>
 VINA RESULT:      -8.0      3.015      6.867
  Name = 
  7 active torsions:
  status: ('A' for Active; 'I' for Inactive)
    1  A    between atoms: C_10  and  C_17
    2  A    between atoms: C_10  and  C_22
    3  A    between atoms: C_13  and  C_24
    4  A    between atoms: C_17  and  C_28
    5  A    between atoms: C_22  and  C_24
    6  A    between atoms: C_28  and  C_29
    7  A    between atoms: C_29  and  C_32
                            x       y       z     vdW  Elec       q    Type
                         _______ _______ _______ _____ _____    ______ ____

>  <TORSDO>
F 7

$$$$
=
 OpenBabel11122412183D

 34 40  0  0  1  0  0  0  0  0999 V2000
  182.7750  178.8820  140.7680 C   0  0  1  0  0  3  0  0  0  0  0  0
  180.6690  178.3920  142.1540 C   0  0  0  0  0  2  0  0  0  0  0  0
  189.2380  177.1410  140.1360 C   0  0  2  0  0  3  0  0  0  0  0  0
  185.0360  178.3900  139.6300 C   0  0  1  0  0  3  0  0  0  0  0  0
  187.0980  177.9060  140.9960 C   0  0  1  0  0  3  0  0  0  0  0  0
  189.3770  177.5090  142.2260 C   0  0  0  0  0  2  0  0  0  0  0  0
  190.2080  176.7220  141.2170 C   0  0  0  0  0  2  0  0  0  0  0  0
  188.6480  178.6680  138.2200 C   0  0  0  0  0  2  0  0  0  0  0  0
  182.6880  179.0080  143.2170 C   0  0  2  0  0  3  0  0  0  0  0  0
  186.4270  178.4900  142.2360 C   0  0  0  0  0  2  0  0  0  0  0  0
  187.2340  178.0810  138.4170 C   0  0  0  0  0  2  0  0  0  0  0  0
  184.1820  178.7630  143.4630 C   0  0  1  0  0  3  0  0  0  0  0  0
  180.4170  178.3850  143.6610 C   0  0  0  0  0  2  0  0  0  0  0  0
  186.5550  178.5920  139.7110 C   0  0  1  0  0  3  0  0  0  0  0  0
  189.7740  177.8780  138.9220 C   0  0  0  0  0  2  0  0  0  0  0  0
  184.3340  178.9640  140.8740 C   0  0  2  0  0  3  0  0  0  0  0  0
  188.5990  178.1260  141.0750 C   0  0  1  0  0  3  0  0  0  0  0  0
  184.9070  178.3210  142.1610 C   0  0  1  0  0  3  0  0  0  0  0  0
  182.9230  178.7560  138.2540 C   0  0  0  0  0  2  0  0  0  0  0  0
  184.4300  179.0250  138.3750 C   0  0  0  0  0  2  0  0  0  0  0  0
  181.7680  178.5960  144.3400 C   0  0  0  0  0  2  0  0  0  0  0  0
  182.3060  178.1400  139.5130 C   0  0  0  0  0  2  0  0  0  0  0  0
  182.1690  178.2620  142.0230 C   0  0  2  0  0  3  0  0  0  0  0  0
  184.7950  180.0330  144.0590 C   0  0  0  0  0  2  0  0  0  0  0  0
  185.3050  179.7930  145.4710 C   0  0  0  0  0  2  0  0  0  0  0  0
  185.2270  178.3180  145.8170 C   0  0  0  0  0  2  0  0  0  0  0  0
  186.5500  177.8680  146.3990 C   0  0  0  0  0  2  0  0  0  0  0  0
  187.4670  177.4180  145.2790 C   0  0  0  0  0  2  0  0  0  0  0  0
  188.9000  177.8390  145.5590 C   0  0  0  0  0  2  0  0  0  0  0  0
  191.7540  176.5560  146.6840 C   0  0  0  0  0  2  0  0  0  0  0  0
  190.1690  177.6900  147.6960 C   0  0  0  0  0  2  0  0  0  0  0  0
  189.5610  176.9100  146.5690 C   0  0  2  0  0  3  0  0  0  0  0  0
  191.4180  177.1280  147.9180 O   0  0  0  0  0  0  0  0  0  0  0  0
  190.6000  176.2100  145.9600 O   0  0  0  0  0  0  0  0  0  0  0  0
  1 22  1  6  0  0  0
  1 16  1  0  0  0  0
  1 23  1  0  0  0  0
  2 13  1  0  0  0  0
  3 15  1  6  0  0  0
  3 17  1  0  0  0  0
  3  7  1  0  0  0  0
  4 20  1  6  0  0  0
  4 14  1  0  0  0  0
  4 16  1  0  0  0  0
  5 17  1  0  0  0  0
  5 10  1  1  0  0  0
  7  6  1  0  0  0  0
  8 11  1  0  0  0  0
  8 15  1  0  0  0  0
  9 12  1  0  0  0  0
  9 21  1  1  0  0  0
 12 24  1  6  0  0  0
 13 21  1  0  0  0  0
 14 11  1  6  0  0  0
 14  5  1  0  0  0  0
 16 18  1  0  0  0  0
 17  6  1  0  0  0  0
 18 10  1  0  0  0  0
 18 12  1  0  0  0  0
 19 20  1  0  0  0  0
 19 22  1  0  0  0  0
 23  2  1  0  0  0  0
 23  9  1  0  0  0  0
 24 25  1  0  0  0  0
 25 26  1  0  0  0  0
 26 27  1  0  0  0  0
 28 29  1  0  0  0  0
 28 27  1  0  0  0  0
 29 32  1  0  0  0  0
 30 33  1  0  0  0  0
 31 33  1  0  0  0  0
 32 31  1  0  0  0  0
 34 32  1  0  0  0  0
 34 30  1  0  0  0  0
M  END
>  <MODEL>
8

>  <REMARK>
 VINA RESULT:      -7.9      2.922      8.098
  Name = 
  7 active torsions:
  status: ('A' for Active; 'I' for Inactive)
    1  A    between atoms: C_10  and  C_17
    2  A    between atoms: C_10  and  C_22
    3  A    between atoms: C_13  and  C_24
    4  A    between atoms: C_17  and  C_28
    5  A    between atoms: C_22  and  C_24
    6  A    between atoms: C_28  and  C_29
    7  A    between atoms: C_29  and  C_32
                            x       y       z     vdW  Elec       q    Type
                         _______ _______ _______ _____ _____    ______ ____

>  <TORSDO>
F 7

$$$$
=
 OpenBabel11122412183D

 34 40  0  0  1  0  0  0  0  0999 V2000
  188.0480  177.9320  145.2210 C   0  0  1  0  0  3  0  0  0  0  0  0
  190.2800  176.6740  145.3950 C   0  0  0  0  0  2  0  0  0  0  0  0
  182.2040  177.9400  141.8970 C   0  0  2  0  0  3  0  0  0  0  0  0
  185.5250  178.2430  144.7860 C   0  0  1  0  0  3  0  0  0  0  0  0
  184.5650  177.9760  142.4720 C   0  0  1  0  0  3  0  0  0  0  0  0
  183.3890  177.8720  140.1330 C   0  0  0  0  0  2  0  0  0  0  0  0
  181.9380  177.5390  140.4650 C   0  0  0  0  0  2  0  0  0  0  0  0
  182.0620  179.6610  143.7330 C   0  0  0  0  0  2  0  0  0  0  0  0
  189.5310  177.5050  143.3130 C   0  0  2  0  0  3  0  0  0  0  0  0
  185.9590  178.1050  141.8670 C   0  0  0  0  0  2  0  0  0  0  0  0
  183.0670  178.7290  144.4440 C   0  0  0  0  0  2  0  0  0  0  0  0
  188.4510  177.5710  142.2270 C   0  0  1  0  0  3  0  0  0  0  0  0
  191.3170  176.2840  144.3440 C   0  0  0  0  0  2  0  0  0  0  0  0
  184.4750  178.7750  143.8020 C   0  0  1  0  0  3  0  0  0  0  0  0
  181.3460  179.0250  142.5210 C   0  0  0  0  0  2  0  0  0  0  0  0
  186.9430  178.3550  144.1970 C   0  0  2  0  0  3  0  0  0  0  0  0
  183.5330  178.5200  141.4990 C   0  0  1  0  0  3  0  0  0  0  0  0
  187.0240  177.6030  142.8450 C   0  0  1  0  0  3  0  0  0  0  0  0
  186.4820  178.3890  147.1440 C   0  0  0  0  0  2  0  0  0  0  0  0
  185.4840  178.9730  146.1320 C   0  0  0  0  0  2  0  0  0  0  0  0
  190.7340  176.6560  142.9830 C   0  0  0  0  0  2  0  0  0  0  0  0
  187.4660  177.3890  146.5290 C   0  0  0  0  0  2  0  0  0  0  0  0
  189.0190  176.9320  144.6030 C   0  0  2  0  0  3  0  0  0  0  0  0
  188.7200  178.7900  141.3420 C   0  0  0  0  0  2  0  0  0  0  0  0
  189.2590  178.3800  139.9810 C   0  0  0  0  0  2  0  0  0  0  0  0
  188.1180  178.1090  139.0200 C   0  0  0  0  0  2  0  0  0  0  0  0
  188.6600  178.0070  137.6110 C   0  0  0  0  0  2  0  0  0  0  0  0
  189.8620  177.0820  137.5980 C   0  0  0  0  0  2  0  0  0  0  0  0
  189.4240  175.6390  137.4110 C   0  0  0  0  0  2  0  0  0  0  0  0
  187.9880  173.9330  134.9440 C   0  0  0  0  0  2  0  0  0  0  0  0
  187.2570  174.5090  136.9330 C   0  0  0  0  0  2  0  0  0  0  0  0
  188.2370  175.5410  136.4610 C   0  0  2  0  0  3  0  0  0  0  0  0
  186.8940  173.7840  135.8070 O   0  0  0  0  0  0  0  0  0  0  0  0
  188.6710  175.1330  135.2010 O   0  0  0  0  0  0  0  0  0  0  0  0
  1 22  1  1  0  0  0
  3  7  1  6  0  0  0
  3 15  1  0  0  0  0
  4 20  1  1  0  0  0
  5 10  1  6  0  0  0
  5 14  1  0  0  0  0
  6  7  1  0  0  0  0
  6 17  1  0  0  0  0
  8 11  1  0  0  0  0
  9 21  1  6  0  0  0
  9 23  1  0  0  0  0
 10 18  1  0  0  0  0
 12 24  1  1  0  0  0
 12 18  1  0  0  0  0
 12  9  1  0  0  0  0
 13  2  1  0  0  0  0
 14 11  1  1  0  0  0
 14  4  1  0  0  0  0
 15  8  1  0  0  0  0
 16  4  1  0  0  0  0
 16  1  1  0  0  0  0
 17  3  1  0  0  0  0
 17  5  1  0  0  0  0
 18 16  1  0  0  0  0
 20 19  1  0  0  0  0
 21 13  1  0  0  0  0
 22 19  1  0  0  0  0
 23  1  1  0  0  0  0
 23  2  1  0  0  0  0
 25 24  1  0  0  0  0
 26 25  1  0  0  0  0
 27 26  1  0  0  0  0
 28 27  1  0  0  0  0
 29 28  1  0  0  0  0
 30 34  1  0  0  0  0
 30 33  1  0  0  0  0
 32 31  1  0  0  0  0
 32 29  1  0  0  0  0
 33 31  1  0  0  0  0
 34 32  1  0  0  0  0
M  END
>  <MODEL>
9

>  <REMARK>
 VINA RESULT:      -7.9      1.652      2.630
  Name = 
  7 active torsions:
  status: ('A' for Active; 'I' for Inactive)
    1  A    between atoms: C_10  and  C_17
    2  A    between atoms: C_10  and  C_22
    3  A    between atoms: C_13  and  C_24
    4  A    between atoms: C_17  and  C_28
    5  A    between atoms: C_22  and  C_24
    6  A    between atoms: C_28  and  C_29
    7  A    between atoms: C_29  and  C_32
                            x       y       z     vdW  Elec       q    Type
                         _______ _______ _______ _____ _____    ______ ____

>  <TORSDO>
F 7

$$$$
