=
 OpenBabel11122411503D

 28 32  0  0  1  0  0  0  0  0999 V2000
  189.2680  178.1680  138.8700 C   0  0  0  0  0  0  0  0  0  0  0  0
  193.2240  177.4560  138.9860 O   0  0  0  0  0  0  0  0  0  0  0  0
  187.5680  173.5880  136.9140 O   0  0  0  0  0  0  0  0  0  0  0  0
  190.0090  176.7530  141.1750 C   0  0  0  0  0  3  0  0  0  0  0  0
  189.6720  173.9730  135.9440 N   0  0  0  0  0  0  0  0  0  0  0  0
  188.7690  178.8930  137.6550 C   0  0  0  0  0  2  0  0  0  0  0  0
  194.0930  175.1760  138.8360 O   0  0  0  0  0  0  0  0  0  0  0  0
  193.3900  176.2680  138.0800 S   0  0  0  0  0  0  0  0  0  0  0  0
  194.2470  175.6800  135.7400 C   0  0  2  0  0  3  0  0  0  0  0  0
  191.8310  175.6720  137.5470 N   0  0  2  0  0  0  0  0  0  0  0  0
  185.3960  177.4340  137.1710 N   0  0  0  0  0  2  0  0  0  0  0  0
  189.8350  176.3160  136.3570 C   0  0  1  0  0  3  0  0  0  0  0  0
  192.8280  175.6500  135.2200 C   0  0  0  0  0  2  0  0  0  0  0  0
  194.3620  176.7330  136.7300 N   0  0  0  0  0  2  0  0  0  0  0  0
  186.6740  177.5410  137.0290 C   0  0  0  0  0  0  0  0  0  0  0  0
  190.2050  177.1130  138.7730 C   0  0  0  0  0  0  0  0  0  0  0  0
  188.4950  174.3820  136.6040 C   0  0  0  0  0  0  0  0  0  0  0  0
  195.1920  175.9700  134.5940 C   0  0  0  0  0  1  0  0  0  0  0  0
  187.3760  176.5400  136.1630 C   0  0  0  0  0  2  0  0  0  0  0  0
  190.5500  176.4040  139.9370 C   0  0  0  0  0  3  0  0  0  0  0  0
  188.7410  178.5180  140.1200 C   0  0  0  0  0  3  0  0  0  0  0  0
  189.1120  177.8170  141.2690 C   0  0  0  0  0  3  0  0  0  0  0  0
  187.3260  178.7180  137.5240 N   0  0  0  0  0  2  0  0  0  0  0  0
  190.4870  175.1330  135.6350 C   0  0  1  0  0  3  0  0  0  0  0  0
  188.4850  175.8270  136.9140 C   0  0  2  0  0  3  0  0  0  0  0  0
  191.8740  175.0030  136.2320 C   0  0  2  0  0  3  0  0  0  0  0  0
  189.8680  172.6620  135.3500 C   0  0  0  0  0  1  0  0  0  0  0  0
  190.8400  176.7460  137.4350 C   0  0  1  0  0  3  0  0  0  0  0  0
  1 21  1  0  0  0  0
  4 22  1  0  0  0  0
  5 17  1  0  0  0  0
  6  1  1  0  0  0  0
  8  7  2  0  0  0  0
  8  2  2  0  0  0  0
  9 18  1  6  0  0  0
  9 14  1  0  0  0  0
 10  8  1  6  0  0  0
 12 25  1  0  0  0  0
 12 28  1  0  0  0  0
 13  9  1  0  0  0  0
 13 26  1  0  0  0  0
 14  8  1  0  0  0  0
 15 11  2  0  0  0  0
 15 23  1  0  0  0  0
 16  1  2  0  0  0  0
 16 20  1  0  0  0  0
 17  3  2  0  0  0  0
 17 25  1  0  0  0  0
 19 25  1  0  0  0  0
 19 15  1  0  0  0  0
 20  4  2  0  0  0  0
 21 22  2  0  0  0  0
 23  6  1  0  0  0  0
 24  5  1  0  0  0  0
 24 26  1  0  0  0  0
 24 12  1  0  0  0  0
 26 10  1  0  0  0  0
 27  5  1  0  0  0  0
 28 10  1  0  0  0  0
 28 16  1  0  0  0  0
M  END
>  <MODEL>
1

>  <REMARK>
 VINA RESULT:      -6.6      0.000      0.000
  Name = 
  0 active torsions:
  status: ('A' for Active; 'I' for Inactive)
                            x       y       z     vdW  Elec       q    Type
                         _______ _______ _______ _____ _____    ______ ____

>  <TORSDO>
F 0

$$$$
=
 OpenBabel11122411503D

 28 32  0  0  1  0  0  0  0  0999 V2000
  180.0940  179.3430  140.9730 C   0  0  0  0  0  0  0  0  0  0  0  0
  178.9310  178.2780  137.2740 O   0  0  0  0  0  0  0  0  0  0  0  0
  185.2840  179.7680  140.2150 O   0  0  0  0  0  0  0  0  0  0  0  0
  179.8040  181.5660  139.2870 C   0  0  0  0  0  3  0  0  0  0  0  0
  184.5550  178.0460  138.7950 N   0  0  0  0  0  0  0  0  0  0  0  0
  180.3100  178.2170  141.9400 C   0  0  0  0  0  2  0  0  0  0  0  0
  180.4080  178.6010  135.3530 O   0  0  0  0  0  0  0  0  0  0  0  0
  180.2090  177.8250  136.6240 S   0  0  0  0  0  0  0  0  0  0  0  0
  181.4010  175.6740  135.9120 C   0  0  2  0  0  3  0  0  0  0  0  0
  181.5760  178.1130  137.6810 N   0  0  2  0  0  0  0  0  0  0  0  0
  183.0880  179.4790  144.0450 N   0  0  0  0  0  2  0  0  0  0  0  0
  182.4720  177.5670  139.8520 C   0  0  1  0  0  3  0  0  0  0  0  0
  182.2640  175.7340  137.1510 C   0  0  0  0  0  2  0  0  0  0  0  0
  180.0710  176.1460  136.2430 N   0  0  0  0  0  2  0  0  0  0  0  0
  182.5340  178.8660  143.0540 C   0  0  0  0  0  0  0  0  0  0  0  0
  180.5660  179.2780  139.6410 C   0  0  0  0  0  0  0  0  0  0  0  0
  184.4220  178.9040  139.9060 C   0  0  0  0  0  0  0  0  0  0  0  0
  181.3150  174.2410  135.4330 C   0  0  0  0  0  1  0  0  0  0  0  0
  183.4230  178.1950  142.0510 C   0  0  0  0  0  2  0  0  0  0  0  0
  180.4270  180.4090  138.8170 C   0  0  0  0  0  3  0  0  0  0  0  0
  179.4580  180.5050  141.4300 C   0  0  0  0  0  3  0  0  0  0  0  0
  179.3090  181.6110  140.5910 C   0  0  0  0  0  3  0  0  0  0  0  0
  181.1130  178.6740  143.0700 N   0  0  0  0  0  2  0  0  0  0  0  0
  183.4560  177.1000  138.7740 C   0  0  1  0  0  3  0  0  0  0  0  0
  183.1590  178.6960  140.6430 C   0  0  2  0  0  3  0  0  0  0  0  0
  182.6940  177.1720  137.4660 C   0  0  2  0  0  3  0  0  0  0  0  0
  185.7700  177.8950  138.0120 C   0  0  0  0  0  1  0  0  0  0  0  0
  181.2100  178.0080  139.0960 C   0  0  1  0  0  3  0  0  0  0  0  0
  1 21  1  0  0  0  0
  1  6  1  0  0  0  0
  4 22  1  0  0  0  0
  5 17  1  0  0  0  0
  6 23  1  0  0  0  0
  7  8  2  0  0  0  0
  8  2  2  0  0  0  0
  9 18  1  1  0  0  0
  9 14  1  0  0  0  0
  9 13  1  0  0  0  0
 10  8  1  6  0  0  0
 10 28  1  0  0  0  0
 12 25  1  0  0  0  0
 13 26  1  0  0  0  0
 14  8  1  0  0  0  0
 15 23  1  0  0  0  0
 15 11  2  0  0  0  0
 16  1  2  0  0  0  0
 17  3  2  0  0  0  0
 17 25  1  0  0  0  0
 19 15  1  0  0  0  0
 20  4  2  0  0  0  0
 20 16  1  0  0  0  0
 22 21  2  0  0  0  0
 24  5  1  0  0  0  0
 24 12  1  0  0  0  0
 25 19  1  0  0  0  0
 26 10  1  0  0  0  0
 26 24  1  0  0  0  0
 27  5  1  0  0  0  0
 28 16  1  0  0  0  0
 28 12  1  0  0  0  0
M  END
>  <MODEL>
2

>  <REMARK>
 VINA RESULT:      -5.6      6.910     10.230
  Name = 
  0 active torsions:
  status: ('A' for Active; 'I' for Inactive)
                            x       y       z     vdW  Elec       q    Type
                         _______ _______ _______ _____ _____    ______ ____

>  <TORSDO>
F 0

$$$$
=
 OpenBabel11122411503D

 28 32  0  0  1  0  0  0  0  0999 V2000
  184.3880  175.0590  136.7350 C   0  0  0  0  0  0  0  0  0  0  0  0
  185.8990  178.2560  138.6500 O   0  0  0  0  0  0  0  0  0  0  0  0
  179.2510  176.1640  137.0180 O   0  0  0  0  0  0  0  0  0  0  0  0
  184.6330  177.2770  135.0370 C   0  0  0  0  0  3  0  0  0  0  0  0
  180.2120  177.0140  138.9860 N   0  0  0  0  0  0  0  0  0  0  0  0
  184.1880  173.8300  137.5720 C   0  0  0  0  0  2  0  0  0  0  0  0
  184.5480  180.2630  139.0000 O   0  0  0  0  0  0  0  0  0  0  0  0
  184.7110  178.8180  139.3800 S   0  0  0  0  0  0  0  0  0  0  0  0
  183.7420  178.9670  141.7450 C   0  0  2  0  0  3  0  0  0  0  0  0
  183.2510  177.9520  138.9450 N   0  0  2  0  0  0  0  0  0  0  0  0
  181.1740  172.2980  136.0520 N   0  0  0  0  0  2  0  0  0  0  0  0
  182.2410  175.7620  138.9640 C   0  0  1  0  0  3  0  0  0  0  0  0
  182.7870  177.8370  141.4330 C   0  0  0  0  0  2  0  0  0  0  0  0
  185.0040  178.7120  141.0790 N   0  0  0  0  0  2  0  0  0  0  0  0
  181.8440  173.0520  136.8560 C   0  0  0  0  0  0  0  0  0  0  0  0
  184.0220  176.3430  137.2030 C   0  0  0  0  0  0  0  0  0  0  0  0
  180.1960  176.1780  137.8500 C   0  0  0  0  0  0  0  0  0  0  0  0
  183.9720  179.0260  143.2400 C   0  0  0  0  0  1  0  0  0  0  0  0
  181.0860  173.8730  137.8540 C   0  0  0  0  0  2  0  0  0  0  0  0
  184.1350  177.4400  136.3300 C   0  0  0  0  0  3  0  0  0  0  0  0
  184.8980  174.9100  135.4390 C   0  0  0  0  0  3  0  0  0  0  0  0
  185.0240  176.0140  134.5940 C   0  0  0  0  0  3  0  0  0  0  0  0
  183.2710  172.9130  136.9040 N   0  0  0  0  0  2  0  0  0  0  0  0
  181.3780  176.7170  139.7950 C   0  0  1  0  0  3  0  0  0  0  0  0
  181.4140  175.3500  137.7310 C   0  0  2  0  0  3  0  0  0  0  0  0
  182.2270  177.9540  140.0090 C   0  0  2  0  0  3  0  0  0  0  0  0
  179.0730  177.7840  139.4560 C   0  0  0  0  0  1  0  0  0  0  0  0
  183.5180  176.5470  138.6280 C   0  0  1  0  0  3  0  0  0  0  0  0
  1 16  1  0  0  0  0
  1  6  1  0  0  0  0
  2  8  2  0  0  0  0
  3 17  2  0  0  0  0
  4 20  1  0  0  0  0
  5 27  1  0  0  0  0
  5 24  1  0  0  0  0
  7  8  2  0  0  0  0
  8 14  1  0  0  0  0
  9 18  1  1  0  0  0
 10  8  1  1  0  0  0
 10 26  1  0  0  0  0
 11 15  2  0  0  0  0
 12 24  1  0  0  0  0
 13  9  1  0  0  0  0
 14  9  1  0  0  0  0
 15 23  1  0  0  0  0
 15 19  1  0  0  0  0
 16 28  1  0  0  0  0
 17  5  1  0  0  0  0
 20 16  2  0  0  0  0
 21  1  2  0  0  0  0
 22  4  2  0  0  0  0
 22 21  1  0  0  0  0
 23  6  1  0  0  0  0
 24 26  1  0  0  0  0
 25 17  1  0  0  0  0
 25 19  1  0  0  0  0
 25 12  1  0  0  0  0
 26 13  1  0  0  0  0
 28 10  1  0  0  0  0
 28 12  1  0  0  0  0
M  END
>  <MODEL>
3

>  <REMARK>
 VINA RESULT:      -5.5      6.598      9.094
  Name = 
  0 active torsions:
  status: ('A' for Active; 'I' for Inactive)
                            x       y       z     vdW  Elec       q    Type
                         _______ _______ _______ _____ _____    ______ ____

>  <TORSDO>
F 0

$$$$
=
 OpenBabel11122411503D

 28 32  0  0  1  0  0  0  0  0999 V2000
  185.3560  175.9450  135.6270 C   0  0  0  0  0  0  0  0  0  0  0  0
  181.7390  175.6870  137.3670 O   0  0  0  0  0  0  0  0  0  0  0  0
  188.2310  177.5700  139.7240 O   0  0  0  0  0  0  0  0  0  0  0  0
  185.0250  173.5200  136.9950 C   0  0  0  0  0  3  0  0  0  0  0  0
  186.1010  178.5210  140.0010 N   0  0  0  0  0  0  0  0  0  0  0  0
  185.6400  177.2250  134.8970 C   0  0  0  0  0  2  0  0  0  0  0  0
  181.5200  175.6360  139.8010 O   0  0  0  0  0  0  0  0  0  0  0  0
  181.9010  176.4920  138.6260 S   0  0  0  0  0  0  0  0  0  0  0  0
  181.2350  178.7590  139.6130 C   0  0  2  0  0  3  0  0  0  0  0  0
  183.5640  177.0100  138.8210 N   0  0  2  0  0  0  0  0  0  0  0  0
  189.2830  177.6660  135.4280 N   0  0  0  0  0  2  0  0  0  0  0  0
  185.3120  178.2910  137.7630 C   0  0  1  0  0  3  0  0  0  0  0  0
  182.6100  179.3060  139.3020 C   0  0  0  0  0  2  0  0  0  0  0  0
  180.8400  177.8530  138.5520 N   0  0  0  0  0  2  0  0  0  0  0  0
  188.0230  177.7870  135.6810 C   0  0  0  0  0  0  0  0  0  0  0  0
  184.7390  175.9380  136.9000 C   0  0  0  0  0  0  0  0  0  0  0  0
  187.1240  177.9210  139.2380 C   0  0  0  0  0  0  0  0  0  0  0  0
  180.2470  179.9030  139.6830 C   0  0  0  0  0  1  0  0  0  0  0  0
  187.6180  178.5570  136.9020 C   0  0  0  0  0  2  0  0  0  0  0  0
  184.5990  174.7140  137.5780 C   0  0  0  0  0  3  0  0  0  0  0  0
  185.7680  174.7380  135.0470 C   0  0  0  0  0  3  0  0  0  0  0  0
  185.6000  173.5300  135.7250 C   0  0  0  0  0  3  0  0  0  0  0  0
  187.0770  177.3730  134.6870 N   0  0  0  0  0  2  0  0  0  0  0  0
  185.0030  178.9030  139.1340 C   0  0  1  0  0  3  0  0  0  0  0  0
  186.7430  177.7260  137.8230 C   0  0  2  0  0  3  0  0  0  0  0  0
  183.7030  178.2670  139.5820 C   0  0  2  0  0  3  0  0  0  0  0  0
  186.2670  179.0050  141.3610 C   0  0  0  0  0  1  0  0  0  0  0  0
  184.2270  177.2280  137.5330 C   0  0  1  0  0  3  0  0  0  0  0  0
  1 16  1  0  0  0  0
  2  8  2  0  0  0  0
  4 20  1  0  0  0  0
  5 27  1  0  0  0  0
  6  1  1  0  0  0  0
  8  7  2  0  0  0  0
  9 18  1  6  0  0  0
 10  8  1  6  0  0  0
 10 26  1  0  0  0  0
 11 15  2  0  0  0  0
 12 25  1  0  0  0  0
 12 24  1  0  0  0  0
 13 26  1  0  0  0  0
 13  9  1  0  0  0  0
 14  8  1  0  0  0  0
 14  9  1  0  0  0  0
 15 19  1  0  0  0  0
 16 28  1  0  0  0  0
 16 20  2  0  0  0  0
 17  3  2  0  0  0  0
 17  5  1  0  0  0  0
 19 25  1  0  0  0  0
 21  1  2  0  0  0  0
 21 22  1  0  0  0  0
 22  4  2  0  0  0  0
 23  6  1  0  0  0  0
 23 15  1  0  0  0  0
 24 26  1  0  0  0  0
 24  5  1  0  0  0  0
 25 17  1  0  0  0  0
 28 12  1  0  0  0  0
 28 10  1  0  0  0  0
M  END
>  <MODEL>
4

>  <REMARK>
 VINA RESULT:      -5.4      4.510      8.490
  Name = 
  0 active torsions:
  status: ('A' for Active; 'I' for Inactive)
                            x       y       z     vdW  Elec       q    Type
                         _______ _______ _______ _____ _____    ______ ____

>  <TORSDO>
F 0

$$$$
=
 OpenBabel11122411503D

 28 32  0  0  1  0  0  0  0  0999 V2000
  186.0170  177.0560  137.4000 C   0  0  0  0  0  0  0  0  0  0  0  0
  182.7110  177.2420  135.1190 O   0  0  0  0  0  0  0  0  0  0  0  0
  183.8650  177.5460  142.1780 O   0  0  0  0  0  0  0  0  0  0  0  0
  184.7280  174.5720  137.2230 C   0  0  0  0  0  3  0  0  0  0  0  0
  182.5370  178.8300  140.7270 N   0  0  0  0  0  0  0  0  0  0  0  0
  186.7590  178.3470  137.5830 C   0  0  0  0  0  2  0  0  0  0  0  0
  180.4950  176.9040  136.0930 O   0  0  0  0  0  0  0  0  0  0  0  0
  181.6810  177.8240  136.0470 S   0  0  0  0  0  0  0  0  0  0  0  0
  180.4370  180.0210  136.4780 C   0  0  2  0  0  3  0  0  0  0  0  0
  182.3300  177.9920  137.6660 N   0  0  2  0  0  0  0  0  0  0  0  0
  188.1080  178.0270  141.0210 N   0  0  0  0  0  2  0  0  0  0  0  0
  184.0870  179.0570  138.9290 C   0  0  1  0  0  3  0  0  0  0  0  0
  181.3780  180.3390  137.6170 C   0  0  0  0  0  2  0  0  0  0  0  0
  181.1800  179.3570  135.4250 N   0  0  0  0  0  2  0  0  0  0  0  0
  187.2570  178.3440  140.1050 C   0  0  0  0  0  0  0  0  0  0  0  0
  184.6070  176.9920  137.4900 C   0  0  0  0  0  0  0  0  0  0  0  0
  183.7240  178.1590  141.0870 C   0  0  0  0  0  0  0  0  0  0  0  0
  179.8530  181.3090  135.9380 C   0  0  0  0  0  1  0  0  0  0  0  0
  185.9780  179.0030  140.5270 C   0  0  0  0  0  2  0  0  0  0  0  0
  183.9810  175.7350  137.4170 C   0  0  0  0  0  3  0  0  0  0  0  0
  186.7560  175.8840  137.1940 C   0  0  0  0  0  3  0  0  0  0  0  0
  186.1160  174.6470  137.1010 C   0  0  0  0  0  3  0  0  0  0  0  0
  187.6550  178.2530  138.7310 N   0  0  0  0  0  2  0  0  0  0  0  0
  182.7300  179.5240  139.4680 C   0  0  1  0  0  3  0  0  0  0  0  0
  184.7640  178.2330  140.0400 C   0  0  2  0  0  3  0  0  0  0  0  0
  181.7080  179.0860  138.4380 C   0  0  2  0  0  3  0  0  0  0  0  0
  181.4300  179.0860  141.6330 C   0  0  0  0  0  1  0  0  0  0  0  0
  183.7710  178.2560  137.6570 C   0  0  1  0  0  3  0  0  0  0  0  0
  1 16  1  0  0  0  0
  1  6  1  0  0  0  0
  2  8  2  0  0  0  0
  4 20  1  0  0  0  0
  5 17  1  0  0  0  0
  5 27  1  0  0  0  0
  6 23  1  0  0  0  0
  8  7  2  0  0  0  0
  9 18  1  6  0  0  0
  9 13  1  0  0  0  0
 10  8  1  6  0  0  0
 10 26  1  0  0  0  0
 12 24  1  0  0  0  0
 12 25  1  0  0  0  0
 13 26  1  0  0  0  0
 14  8  1  0  0  0  0
 14  9  1  0  0  0  0
 15 19  1  0  0  0  0
 15 11  2  0  0  0  0
 16 28  1  0  0  0  0
 17  3  2  0  0  0  0
 20 16  2  0  0  0  0
 21  1  2  0  0  0  0
 22 21  1  0  0  0  0
 22  4  2  0  0  0  0
 23 15  1  0  0  0  0
 24  5  1  0  0  0  0
 25 19  1  0  0  0  0
 25 17  1  0  0  0  0
 26 24  1  0  0  0  0
 28 10  1  0  0  0  0
 28 12  1  0  0  0  0
M  END
>  <MODEL>
5

>  <REMARK>
 VINA RESULT:      -5.2      5.533      9.172
  Name = 
  0 active torsions:
  status: ('A' for Active; 'I' for Inactive)
                            x       y       z     vdW  Elec       q    Type
                         _______ _______ _______ _____ _____    ______ ____

>  <TORSDO>
F 0

$$$$
=
 OpenBabel11122411503D

 28 32  0  0  1  0  0  0  0  0999 V2000
  183.1060  176.3140  138.7590 C   0  0  0  0  0  0  0  0  0  0  0  0
  185.8150  177.8170  141.3230 O   0  0  0  0  0  0  0  0  0  0  0  0
  179.2770  179.8880  139.2700 O   0  0  0  0  0  0  0  0  0  0  0  0
  184.6510  178.3370  137.5820 C   0  0  0  0  0  3  0  0  0  0  0  0
  180.3050  179.7250  141.3760 N   0  0  0  0  0  0  0  0  0  0  0  0
  182.2070  175.2470  139.3090 C   0  0  0  0  0  2  0  0  0  0  0  0
  185.6600  180.1300  142.0980 O   0  0  0  0  0  0  0  0  0  0  0  0
  185.0110  178.7760  142.1560 S   0  0  0  0  0  0  0  0  0  0  0  0
  183.9910  178.9750  144.4960 C   0  0  2  0  0  3  0  0  0  0  0  0
  183.3750  178.9070  141.5430 N   0  0  2  0  0  0  0  0  0  0  0  0
  179.0330  175.8450  137.4900 N   0  0  0  0  0  2  0  0  0  0  0  0
  181.3870  177.6200  141.0850 C   0  0  1  0  0  3  0  0  0  0  0  0
  182.6350  178.5990  143.9450 C   0  0  0  0  0  2  0  0  0  0  0  0
  185.0100  178.2210  143.7920 N   0  0  0  0  0  2  0  0  0  0  0  0
  179.8980  175.9690  138.4390 C   0  0  0  0  0  0  0  0  0  0  0  0
  183.4020  177.4860  139.4940 C   0  0  0  0  0  0  0  0  0  0  0  0
  179.9930  179.2480  140.0860 C   0  0  0  0  0  0  0  0  0  0  0  0
  184.0450  178.6280  145.9680 C   0  0  0  0  0  1  0  0  0  0  0  0
  179.5610  176.8670  139.5910 C   0  0  0  0  0  2  0  0  0  0  0  0
  184.1630  178.4970  138.8790 C   0  0  0  0  0  3  0  0  0  0  0  0
  183.6120  176.1600  137.4610 C   0  0  0  0  0  3  0  0  0  0  0  0
  184.3840  177.1640  136.8750 C   0  0  0  0  0  3  0  0  0  0  0  0
  181.0320  175.0920  138.4560 N   0  0  0  0  0  2  0  0  0  0  0  0
  181.0500  178.7140  142.1030 C   0  0  1  0  0  3  0  0  0  0  0  0
  180.6140  177.9410  139.7910 C   0  0  2  0  0  3  0  0  0  0  0  0
  182.3840  179.2530  142.5810 C   0  0  2  0  0  3  0  0  0  0  0  0
  179.6800  180.8780  142.0010 C   0  0  0  0  0  1  0  0  0  0  0  0
  182.9150  177.6590  140.9280 C   0  0  1  0  0  3  0  0  0  0  0  0
  1  6  1  0  0  0  0
  1 16  1  0  0  0  0
  2  8  2  0  0  0  0
  3 17  2  0  0  0  0
  4 20  1  0  0  0  0
  5 27  1  0  0  0  0
  5 24  1  0  0  0  0
  7  8  2  0  0  0  0
  8 14  1  0  0  0  0
  9 18  1  1  0  0  0
 10  8  1  1  0  0  0
 10 26  1  0  0  0  0
 11 15  2  0  0  0  0
 12 24  1  0  0  0  0
 13  9  1  0  0  0  0
 14  9  1  0  0  0  0
 15 23  1  0  0  0  0
 15 19  1  0  0  0  0
 16 28  1  0  0  0  0
 17  5  1  0  0  0  0
 19 25  1  0  0  0  0
 20 16  2  0  0  0  0
 21  1  2  0  0  0  0
 22 21  1  0  0  0  0
 22  4  2  0  0  0  0
 23  6  1  0  0  0  0
 24 26  1  0  0  0  0
 25 17  1  0  0  0  0
 25 12  1  0  0  0  0
 26 13  1  0  0  0  0
 28 12  1  0  0  0  0
 28 10  1  0  0  0  0
M  END
>  <MODEL>
6

>  <REMARK>
 VINA RESULT:      -5.1      7.190     10.008
  Name = 
  0 active torsions:
  status: ('A' for Active; 'I' for Inactive)
                            x       y       z     vdW  Elec       q    Type
                         _______ _______ _______ _____ _____    ______ ____

>  <TORSDO>
F 0

$$$$
=
 OpenBabel11122411503D

 28 32  0  0  1  0  0  0  0  0999 V2000
  186.7540  175.4210  135.4170 C   0  0  0  0  0  0  0  0  0  0  0  0
  183.0040  175.9310  136.7760 O   0  0  0  0  0  0  0  0  0  0  0  0
  189.4790  176.7540  139.7170 O   0  0  0  0  0  0  0  0  0  0  0  0
  185.8480  173.1870  136.8490 C   0  0  0  0  0  3  0  0  0  0  0  0
  187.5470  178.0900  139.7260 N   0  0  0  0  0  0  0  0  0  0  0  0
  187.3410  176.5790  134.6650 C   0  0  0  0  0  2  0  0  0  0  0  0
  182.5480  176.0750  139.1730 O   0  0  0  0  0  0  0  0  0  0  0  0
  183.1930  176.7720  138.0080 S   0  0  0  0  0  0  0  0  0  0  0  0
  182.8700  179.1800  138.8180 C   0  0  2  0  0  3  0  0  0  0  0  0
  184.8960  176.9910  138.3540 N   0  0  2  0  0  0  0  0  0  0  0  0
  190.9340  176.3860  135.5550 N   0  0  0  0  0  2  0  0  0  0  0  0
  186.9450  177.8660  137.4300 C   0  0  1  0  0  3  0  0  0  0  0  0
  184.3460  179.4480  138.6290 C   0  0  0  0  0  2  0  0  0  0  0  0
  182.4160  178.2950  137.7630 N   0  0  0  0  0  2  0  0  0  0  0  0
  189.7010  176.7490  135.6690 C   0  0  0  0  0  0  0  0  0  0  0  0
  186.0280  175.6060  136.6170 C   0  0  0  0  0  0  0  0  0  0  0  0
  188.5070  177.2680  139.1020 C   0  0  0  0  0  0  0  0  0  0  0  0
  182.1110  180.4860  138.7320 C   0  0  0  0  0  1  0  0  0  0  0  0
  189.3320  177.6540  136.8050 C   0  0  0  0  0  2  0  0  0  0  0  0
  185.5990  174.4730  137.3300 C   0  0  0  0  0  3  0  0  0  0  0  0
  186.9880  174.1250  134.9370 C   0  0  0  0  0  3  0  0  0  0  0  0
  186.5340  173.0120  135.6470 C   0  0  0  0  0  3  0  0  0  0  0  0
  188.7930  176.4510  134.6000 N   0  0  0  0  0  2  0  0  0  0  0  0
  186.6270  178.6090  138.7320 C   0  0  1  0  0  3  0  0  0  0  0  0
  188.2340  177.0560  137.6650 C   0  0  2  0  0  3  0  0  0  0  0  0
  185.1940  178.2480  139.0690 C   0  0  2  0  0  3  0  0  0  0  0  0
  187.6700  178.6210  141.0730 C   0  0  0  0  0  1  0  0  0  0  0  0
  185.7080  177.0040  137.1340 C   0  0  1  0  0  3  0  0  0  0  0  0
  1 16  1  0  0  0  0
  2  8  2  0  0  0  0
  4 20  1  0  0  0  0
  5 27  1  0  0  0  0
  6  1  1  0  0  0  0
  8  7  2  0  0  0  0
  9 18  1  6  0  0  0
 10  8  1  6  0  0  0
 10 26  1  0  0  0  0
 11 15  2  0  0  0  0
 12 25  1  0  0  0  0
 12 24  1  0  0  0  0
 13  9  1  0  0  0  0
 13 26  1  0  0  0  0
 14  8  1  0  0  0  0
 14  9  1  0  0  0  0
 15 19  1  0  0  0  0
 16 28  1  0  0  0  0
 16 20  2  0  0  0  0
 17  3  2  0  0  0  0
 17  5  1  0  0  0  0
 19 25  1  0  0  0  0
 21  1  2  0  0  0  0
 21 22  1  0  0  0  0
 22  4  2  0  0  0  0
 23  6  1  0  0  0  0
 23 15  1  0  0  0  0
 24 26  1  0  0  0  0
 24  5  1  0  0  0  0
 25 17  1  0  0  0  0
 28 12  1  0  0  0  0
 28 10  1  0  0  0  0
M  END
>  <MODEL>
7

>  <REMARK>
 VINA RESULT:      -5.1      3.459      7.602
  Name = 
  0 active torsions:
  status: ('A' for Active; 'I' for Inactive)
                            x       y       z     vdW  Elec       q    Type
                         _______ _______ _______ _____ _____    ______ ____

>  <TORSDO>
F 0

$$$$
=
 OpenBabel11122411503D

 28 32  0  0  1  0  0  0  0  0999 V2000
  185.9990  175.3040  135.6400 C   0  0  0  0  0  0  0  0  0  0  0  0
  182.1600  174.5910  136.6030 O   0  0  0  0  0  0  0  0  0  0  0  0
  187.4970  178.0940  139.8440 O   0  0  0  0  0  0  0  0  0  0  0  0
  185.7430  173.1040  137.3610 C   0  0  0  0  0  3  0  0  0  0  0  0
  185.2380  178.6250  139.4770 N   0  0  0  0  0  0  0  0  0  0  0  0
  186.2400  176.4850  134.7480 C   0  0  0  0  0  2  0  0  0  0  0  0
  181.3700  174.8760  138.8990 O   0  0  0  0  0  0  0  0  0  0  0  0
  181.8800  175.5980  137.6840 S   0  0  0  0  0  0  0  0  0  0  0  0
  180.6380  177.8080  138.0430 C   0  0  2  0  0  3  0  0  0  0  0  0
  183.3400  176.4660  138.1160 N   0  0  2  0  0  0  0  0  0  0  0  0
  189.5260  177.7330  135.9290 N   0  0  0  0  0  2  0  0  0  0  0  0
  185.0610  177.8950  137.2140 C   0  0  1  0  0  3  0  0  0  0  0  0
  181.9400  178.5680  137.9240 C   0  0  0  0  0  2  0  0  0  0  0  0
  180.6620  176.6880  137.1230 N   0  0  0  0  0  2  0  0  0  0  0  0
  188.2400  177.6340  135.8850 C   0  0  0  0  0  0  0  0  0  0  0  0
  185.1020  175.3700  136.7320 C   0  0  0  0  0  0  0  0  0  0  0  0
  186.4980  178.1330  139.0770 C   0  0  0  0  0  0  0  0  0  0  0  0
  179.4910  178.7260  137.6780 C   0  0  0  0  0  1  0  0  0  0  0  0
  187.4330  178.4850  136.8180 C   0  0  0  0  0  2  0  0  0  0  0  0
  185.0020  174.2630  137.5940 C   0  0  0  0  0  3  0  0  0  0  0  0
  186.7290  174.1310  135.4090 C   0  0  0  0  0  3  0  0  0  0  0  0
  186.5990  173.0330  136.2620 C   0  0  0  0  0  3  0  0  0  0  0  0
  187.6420  176.8870  134.8170 N   0  0  0  0  0  2  0  0  0  0  0  0
  184.3360  178.6370  138.3410 C   0  0  1  0  0  3  0  0  0  0  0  0
  186.5080  177.6480  137.6820 C   0  0  2  0  0  3  0  0  0  0  0  0
  183.0860  177.8280  138.6260 C   0  0  2  0  0  3  0  0  0  0  0  0
  184.9900  179.3370  140.7180 C   0  0  0  0  0  1  0  0  0  0  0  0
  184.2500  176.6110  136.9770 C   0  0  1  0  0  3  0  0  0  0  0  0
  1 16  1  0  0  0  0
  2  8  2  0  0  0  0
  4 20  1  0  0  0  0
  5 27  1  0  0  0  0
  6 23  1  0  0  0  0
  6  1  1  0  0  0  0
  8  7  2  0  0  0  0
  9 18  1  6  0  0  0
 10  8  1  6  0  0  0
 10 26  1  0  0  0  0
 12 25  1  0  0  0  0
 12 24  1  0  0  0  0
 13  9  1  0  0  0  0
 13 26  1  0  0  0  0
 14  8  1  0  0  0  0
 14  9  1  0  0  0  0
 15 11  2  0  0  0  0
 15 19  1  0  0  0  0
 16 28  1  0  0  0  0
 16 20  2  0  0  0  0
 17  5  1  0  0  0  0
 17  3  2  0  0  0  0
 19 25  1  0  0  0  0
 21  1  2  0  0  0  0
 21 22  1  0  0  0  0
 22  4  2  0  0  0  0
 23 15  1  0  0  0  0
 24 26  1  0  0  0  0
 24  5  1  0  0  0  0
 25 17  1  0  0  0  0
 28 12  1  0  0  0  0
 28 10  1  0  0  0  0
M  END
>  <MODEL>
8

>  <REMARK>
 VINA RESULT:      -4.8      4.556      8.499
  Name = 
  0 active torsions:
  status: ('A' for Active; 'I' for Inactive)
                            x       y       z     vdW  Elec       q    Type
                         _______ _______ _______ _____ _____    ______ ____

>  <TORSDO>
F 0

$$$$
=
 OpenBabel11122411503D

 28 32  0  0  1  0  0  0  0  0999 V2000
  183.5440  177.4960  136.4290 C   0  0  0  0  0  0  0  0  0  0  0  0
  187.1700  179.1540  136.9520 O   0  0  0  0  0  0  0  0  0  0  0  0
  184.5580  172.5670  137.9690 O   0  0  0  0  0  0  0  0  0  0  0  0
  183.9660  178.2700  139.0910 C   0  0  0  0  0  3  0  0  0  0  0  0
  186.5300  173.3580  136.9680 N   0  0  0  0  0  0  0  0  0  0  0  0
  183.2380  177.0180  135.0400 C   0  0  0  0  0  2  0  0  0  0  0  0
  188.8650  178.0540  138.3270 O   0  0  0  0  0  0  0  0  0  0  0  0
  188.0850  177.9650  137.0460 S   0  0  0  0  0  0  0  0  0  0  0  0
  189.8350  176.7120  135.6580 C   0  0  2  0  0  3  0  0  0  0  0  0
  187.1660  176.4730  137.0470 N   0  0  2  0  0  0  0  0  0  0  0  0
  181.0930  174.0580  135.6580 N   0  0  0  0  0  2  0  0  0  0  0  0
  185.6030  175.1810  135.7420 C   0  0  1  0  0  3  0  0  0  0  0  0
  188.8080  175.6630  135.2970 C   0  0  0  0  0  2  0  0  0  0  0  0
  189.1850  178.0060  135.7140 N   0  0  0  0  0  2  0  0  0  0  0  0
  182.1910  174.7090  135.4720 C   0  0  0  0  0  0  0  0  0  0  0  0
  184.7960  177.2480  137.0400 C   0  0  0  0  0  0  0  0  0  0  0  0
  185.1410  173.3840  137.2080 C   0  0  0  0  0  0  0  0  0  0  0  0
  190.9120  176.7420  134.5950 C   0  0  0  0  0  1  0  0  0  0  0  0
  183.4770  173.9410  135.4680 C   0  0  0  0  0  2  0  0  0  0  0  0
  184.9810  177.6270  138.3810 C   0  0  0  0  0  3  0  0  0  0  0  0
  182.5370  178.1530  137.1480 C   0  0  0  0  0  3  0  0  0  0  0  0
  182.7470  178.5420  138.4710 C   0  0  0  0  0  3  0  0  0  0  0  0
  182.1170  176.0830  135.0680 N   0  0  0  0  0  2  0  0  0  0  0  0
  186.8710  174.3520  135.9680 C   0  0  1  0  0  3  0  0  0  0  0  0
  184.4560  174.4810  136.4950 C   0  0  2  0  0  3  0  0  0  0  0  0
  187.9090  175.3250  136.4930 C   0  0  2  0  0  3  0  0  0  0  0  0
  187.4160  172.2820  137.3780 C   0  0  0  0  0  1  0  0  0  0  0  0
  185.9320  176.5870  136.2660 C   0  0  1  0  0  3  0  0  0  0  0  0
  1 16  2  0  0  0  0
  1 21  1  0  0  0  0
  2  8  2  0  0  0  0
  5 17  1  0  0  0  0
  5 27  1  0  0  0  0
  6 23  1  0  0  0  0
  6  1  1  0  0  0  0
  8  7  2  0  0  0  0
  9 18  1  6  0  0  0
  9 14  1  0  0  0  0
 10  8  1  6  0  0  0
 12 24  1  0  0  0  0
 12 28  1  0  0  0  0
 12 25  1  0  0  0  0
 13  9  1  0  0  0  0
 13 26  1  0  0  0  0
 14  8  1  0  0  0  0
 15 11  2  0  0  0  0
 16 20  1  0  0  0  0
 17  3  2  0  0  0  0
 19 15  1  0  0  0  0
 19 25  1  0  0  0  0
 20  4  2  0  0  0  0
 21 22  2  0  0  0  0
 22  4  1  0  0  0  0
 23 15  1  0  0  0  0
 24 26  1  0  0  0  0
 24  5  1  0  0  0  0
 25 17  1  0  0  0  0
 26 10  1  0  0  0  0
 28 16  1  0  0  0  0
 28 10  1  0  0  0  0
M  END
>  <MODEL>
9

>  <REMARK>
 VINA RESULT:      -4.8      3.568      5.243
  Name = 
  0 active torsions:
  status: ('A' for Active; 'I' for Inactive)
                            x       y       z     vdW  Elec       q    Type
                         _______ _______ _______ _____ _____    ______ ____

>  <TORSDO>
F 0

$$$$
