=
 OpenBabel11122411093D

 31 35  0  0  1  0  0  0  0  0999 V2000
  184.8090  178.4130  145.1090 C   0  0  2  0  0  3  0  0  0  0  0  0
  188.4300  177.5700  144.1050 C   0  0  0  0  0  0  0  0  0  0  0  0
  189.1530  177.3930  145.3200 C   0  0  0  0  0  0  0  0  0  0  0  0
  189.2820  177.4480  147.6930 C   0  0  0  0  0  0  0  0  0  0  0  0
  187.0730  178.0080  144.0430 C   0  0  0  0  0  0  0  0  0  0  0  0
  184.4430  179.2180  143.8760 C   0  0  0  0  0  2  0  0  0  0  0  0
  188.5870  177.6210  146.5390 N   0  0  0  0  0  0  0  0  0  0  0  0
  188.4690  177.4260  141.6500 C   0  0  0  0  0  0  0  0  0  0  0  0
  184.2030  178.9770  146.2300 O   0  0  0  0  0  1  0  0  0  0  0  0
  191.1050  176.7050  144.0590 C   0  0  0  0  0  3  0  0  0  0  0  0
  188.6830  177.6870  148.8840 F   0  0  0  0  0  0  0  0  0  0  0  0
  187.1400  177.8480  141.6150 C   0  0  0  0  0  3  0  0  0  0  0  0
  189.1150  177.2840  142.8870 C   0  0  0  0  0  0  0  0  0  0  0  0
  186.3220  178.4410  145.2830 C   0  0  0  0  0  2  0  0  0  0  0  0
  190.5750  177.0360  147.6540 N   0  0  0  0  0  0  0  0  0  0  0  0
  186.4480  178.1530  142.7800 C   0  0  0  0  0  0  0  0  0  0  0  0
  184.9950  178.5180  142.6410 C   0  0  0  0  0  2  0  0  0  0  0  0
  190.4110  176.8690  142.9070 N   0  0  0  0  0  0  0  0  0  0  0  0
  190.4920  176.9620  145.2780 C   0  0  0  0  0  0  0  0  0  0  0  0
  191.1900  176.7890  146.4700 C   0  0  0  0  0  3  0  0  0  0  0  0
  188.7350  179.0750  139.2160 O   0  0  0  0  0  0  0  0  0  0  0  0
  189.2920  177.9460  139.2730 C   0  0  0  0  0  0  0  0  0  0  0  0
  189.1840  177.1230  140.4420 N   0  0  0  0  0  2  0  0  0  0  0  0
  190.4040  174.7260  137.1840 C   0  0  0  0  0  0  0  0  0  0  0  0
  189.1600  176.8090  137.0880 C   0  0  0  0  0  3  0  0  0  0  0  0
  192.1650  177.0720  139.4480 O   0  0  0  0  0  1  0  0  0  0  0  0
  190.5310  173.5340  136.8040 O   0  0  0  0  0  0  0  0  0  0  0  0
  189.3090  175.5520  136.6680 C   0  0  0  0  0  3  0  0  0  0  0  0
  191.2240  176.5600  138.5640 C   0  0  0  0  0  0  0  0  0  0  0  0
  190.0800  177.4430  138.1070 C   0  0  2  0  0  3  0  0  0  0  0  0
  191.3590  175.3010  138.1370 C   0  0  0  0  0  3  0  0  0  0  0  0
  1 14  1  0  0  0  0
  1  9  1  1  0  0  0
  2  3  2  0  0  0  0
  3  7  1  0  0  0  0
  4 11  1  0  0  0  0
  5  2  1  0  0  0  0
  5 14  1  0  0  0  0
  6  1  1  0  0  0  0
  7  4  2  0  0  0  0
  8 13  1  0  0  0  0
 10 19  2  0  0  0  0
 12  8  2  0  0  0  0
 12 16  1  0  0  0  0
 13 18  2  0  0  0  0
 13  2  1  0  0  0  0
 15  4  1  0  0  0  0
 16  5  2  0  0  0  0
 17 16  1  0  0  0  0
 17  6  1  0  0  0  0
 18 10  1  0  0  0  0
 19  3  1  0  0  0  0
 19 20  1  0  0  0  0
 20 15  2  0  0  0  0
 21 22  2  0  0  0  0
 22 23  1  0  0  0  0
 23  8  1  0  0  0  0
 24 31  1  0  0  0  0
 25 30  1  0  0  0  0
 27 24  2  0  0  0  0
 28 25  2  0  0  0  0
 28 24  1  0  0  0  0
 29 26  1  0  0  0  0
 30 29  1  0  0  0  0
 30 22  1  1  0  0  0
 31 29  2  0  0  0  0
M  END
>  <MODEL>
1

>  <REMARK>
 VINA RESULT:     -11.1      0.000      0.000
  Name = 
  2 active torsions:
  status: ('A' for Active; 'I' for Inactive)
    1  A    between atoms: C_5  and  C_30
    2  A    between atoms: C_10  and  N_16
                            x       y       z     vdW  Elec       q    Type
                         _______ _______ _______ _____ _____    ______ ____

>  <TORSDO>
F 2

$$$$
=
 OpenBabel11122411093D

 31 35  0  0  1  0  0  0  0  0999 V2000
  190.2420  177.5010  146.6490 C   0  0  2  0  0  3  0  0  0  0  0  0
  187.6570  177.7980  143.8100 C   0  0  0  0  0  0  0  0  0  0  0  0
  186.4190  178.1370  144.4280 C   0  0  0  0  0  0  0  0  0  0  0  0
  185.0950  178.5250  146.3640 C   0  0  0  0  0  0  0  0  0  0  0  0
  188.8470  177.4840  144.5320 C   0  0  0  0  0  0  0  0  0  0  0  0
  191.1710  176.5130  145.9690 C   0  0  0  0  0  2  0  0  0  0  0  0
  186.2790  178.1990  145.7820 N   0  0  0  0  0  0  0  0  0  0  0  0
  188.8800  177.4660  141.7020 C   0  0  0  0  0  0  0  0  0  0  0  0
  190.1790  177.2210  148.0130 O   0  0  0  0  0  1  0  0  0  0  0  0
  185.3970  178.3870  142.2440 C   0  0  0  0  0  3  0  0  0  0  0  0
  184.9980  178.5740  147.7140 F   0  0  0  0  0  0  0  0  0  0  0  0
  190.0320  177.1700  142.4290 C   0  0  0  0  0  3  0  0  0  0  0  0
  187.6960  177.7810  142.3840 C   0  0  0  0  0  0  0  0  0  0  0  0
  188.8520  177.3670  146.0410 C   0  0  0  0  0  2  0  0  0  0  0  0
  184.0110  178.8000  145.5940 N   0  0  0  0  0  0  0  0  0  0  0  0
  190.0270  177.1590  143.8190 C   0  0  0  0  0  0  0  0  0  0  0  0
  191.3410  176.9100  144.5090 C   0  0  0  0  0  2  0  0  0  0  0  0
  186.5790  178.0710  141.6620 N   0  0  0  0  0  0  0  0  0  0  0  0
  185.2970  178.4260  143.6280 C   0  0  0  0  0  0  0  0  0  0  0  0
  184.0920  178.7570  144.2410 C   0  0  0  0  0  3  0  0  0  0  0  0
  191.2050  177.5110  139.8830 O   0  0  0  0  0  0  0  0  0  0  0  0
  190.0370  177.4910  139.4080 C   0  0  0  0  0  0  0  0  0  0  0  0
  188.8880  177.4650  140.2650 N   0  0  0  0  0  2  0  0  0  0  0  0
  187.3580  177.3520  136.4470 C   0  0  0  0  0  0  0  0  0  0  0  0
  189.0560  178.7230  137.5110 C   0  0  0  0  0  3  0  0  0  0  0  0
  189.9150  174.9970  137.7300 O   0  0  0  0  0  1  0  0  0  0  0  0
  186.2660  177.2870  135.8250 O   0  0  0  0  0  0  0  0  0  0  0  0
  187.9100  178.6530  136.8310 C   0  0  0  0  0  3  0  0  0  0  0  0
  189.2410  176.1810  137.4570 C   0  0  0  0  0  0  0  0  0  0  0  0
  189.8330  177.4950  137.9280 C   0  0  2  0  0  3  0  0  0  0  0  0
  188.0910  176.1270  136.7790 C   0  0  0  0  0  3  0  0  0  0  0  0
  1  9  1  1  0  0  0
  2  3  1  0  0  0  0
  2  5  1  0  0  0  0
  3  7  1  0  0  0  0
  4 11  1  0  0  0  0
  5 14  1  0  0  0  0
  6  1  1  0  0  0  0
  7  4  2  0  0  0  0
  8 13  1  0  0  0  0
  8 12  2  0  0  0  0
 10 19  1  0  0  0  0
 12 16  1  0  0  0  0
 13  2  2  0  0  0  0
 14  1  1  0  0  0  0
 15  4  1  0  0  0  0
 16 17  1  0  0  0  0
 16  5  2  0  0  0  0
 17  6  1  0  0  0  0
 18 10  2  0  0  0  0
 18 13  1  0  0  0  0
 19 20  1  0  0  0  0
 19  3  2  0  0  0  0
 20 15  2  0  0  0  0
 22 21  2  0  0  0  0
 22 23  1  0  0  0  0
 23  8  1  0  0  0  0
 24 31  1  0  0  0  0
 24 28  1  0  0  0  0
 25 30  1  0  0  0  0
 27 24  2  0  0  0  0
 28 25  2  0  0  0  0
 29 26  1  0  0  0  0
 29 30  1  0  0  0  0
 30 22  1  1  0  0  0
 31 29  2  0  0  0  0
M  END
>  <MODEL>
2

>  <REMARK>
 VINA RESULT:     -10.7      2.188      4.300
  Name = 
  2 active torsions:
  status: ('A' for Active; 'I' for Inactive)
    1  A    between atoms: C_5  and  C_30
    2  A    between atoms: C_10  and  N_16
                            x       y       z     vdW  Elec       q    Type
                         _______ _______ _______ _____ _____    ______ ____

>  <TORSDO>
F 2

$$$$
=
 OpenBabel11122411093D

 31 35  0  0  1  0  0  0  0  0999 V2000
  185.2100  178.2240  146.0130 C   0  0  2  0  0  3  0  0  0  0  0  0
  188.2390  177.6390  143.7090 C   0  0  0  0  0  0  0  0  0  0  0  0
  189.3330  177.3080  144.5590 C   0  0  0  0  0  0  0  0  0  0  0  0
  190.2760  177.0200  146.7220 C   0  0  0  0  0  0  0  0  0  0  0  0
  186.9550  178.0430  144.1830 C   0  0  0  0  0  0  0  0  0  0  0  0
  184.4600  179.1890  145.1140 C   0  0  0  0  0  2  0  0  0  0  0  0
  189.2290  177.3390  145.9180 N   0  0  0  0  0  0  0  0  0  0  0  0
  187.4230  177.8550  141.3980 C   0  0  0  0  0  0  0  0  0  0  0  0
  185.0430  178.6010  147.3450 O   0  0  0  0  0  1  0  0  0  0  0  0
  190.7120  176.8660  142.6150 C   0  0  0  0  0  3  0  0  0  0  0  0
  190.1320  177.0660  148.0680 F   0  0  0  0  0  0  0  0  0  0  0  0
  186.1750  178.2400  141.8870 C   0  0  0  0  0  3  0  0  0  0  0  0
  188.4530  177.5530  142.3010 C   0  0  0  0  0  0  0  0  0  0  0  0
  186.6900  178.2690  145.6560 C   0  0  0  0  0  2  0  0  0  0  0  0
  191.4650  176.6550  146.1790 N   0  0  0  0  0  0  0  0  0  0  0  0
  185.9360  178.3520  143.2510 C   0  0  0  0  0  0  0  0  0  0  0  0
  184.5330  178.6920  143.6770 C   0  0  0  0  0  2  0  0  0  0  0  0
  189.6660  177.1760  141.8110 N   0  0  0  0  0  0  0  0  0  0  0  0
  190.5640  176.9250  143.9940 C   0  0  0  0  0  0  0  0  0  0  0  0
  191.6270  176.6010  144.8330 C   0  0  0  0  0  3  0  0  0  0  0  0
  185.7780  178.8820  139.1720 O   0  0  0  0  0  0  0  0  0  0  0  0
  186.8470  178.2590  138.9280 C   0  0  0  0  0  0  0  0  0  0  0  0
  187.6690  177.7510  139.9870 N   0  0  0  0  0  2  0  0  0  0  0  0
  189.3820  176.3380  136.5090 C   0  0  0  0  0  0  0  0  0  0  0  0
  187.0450  176.5970  137.1160 C   0  0  0  0  0  3  0  0  0  0  0  0
  188.9850  179.8700  137.5560 O   0  0  0  0  0  1  0  0  0  0  0  0
  190.3070  175.5910  136.0980 O   0  0  0  0  0  0  0  0  0  0  0  0
  188.0220  175.8130  136.6580 C   0  0  0  0  0  3  0  0  0  0  0  0
  188.6870  178.5400  137.2870 C   0  0  0  0  0  0  0  0  0  0  0  0
  187.2740  178.0380  137.5130 C   0  0  2  0  0  3  0  0  0  0  0  0
  189.6550  177.7420  136.8300 C   0  0  0  0  0  3  0  0  0  0  0  0
  1  9  1  1  0  0  0
  2  5  1  0  0  0  0
  2  3  2  0  0  0  0
  3  7  1  0  0  0  0
  4 11  1  0  0  0  0
  5 14  1  0  0  0  0
  6  1  1  0  0  0  0
  7  4  2  0  0  0  0
  8 12  2  0  0  0  0
  8 13  1  0  0  0  0
 10 19  2  0  0  0  0
 12 16  1  0  0  0  0
 13  2  1  0  0  0  0
 14  1  1  0  0  0  0
 15  4  1  0  0  0  0
 16 17  1  0  0  0  0
 16  5  2  0  0  0  0
 17  6  1  0  0  0  0
 18 13  2  0  0  0  0
 18 10  1  0  0  0  0
 19  3  1  0  0  0  0
 19 20  1  0  0  0  0
 20 15  2  0  0  0  0
 22 21  2  0  0  0  0
 22 23  1  0  0  0  0
 23  8  1  0  0  0  0
 24 28  1  0  0  0  0
 24 31  1  0  0  0  0
 25 30  1  0  0  0  0
 27 24  2  0  0  0  0
 28 25  2  0  0  0  0
 29 30  1  0  0  0  0
 29 26  1  0  0  0  0
 30 22  1  1  0  0  0
 31 29  2  0  0  0  0
M  END
>  <MODEL>
3

>  <REMARK>
 VINA RESULT:     -10.4      1.557      1.923
  Name = 
  2 active torsions:
  status: ('A' for Active; 'I' for Inactive)
    1  A    between atoms: C_5  and  C_30
    2  A    between atoms: C_10  and  N_16
                            x       y       z     vdW  Elec       q    Type
                         _______ _______ _______ _____ _____    ______ ____

>  <TORSDO>
F 2

$$$$
=
 OpenBabel11122411093D

 31 35  0  0  1  0  0  0  0  0999 V2000
  187.2630  177.7960  147.8360 C   0  0  2  0  0  3  0  0  0  0  0  0
  187.8940  177.6480  144.0400 C   0  0  0  0  0  0  0  0  0  0  0  0
  189.2610  177.2830  143.8740 C   0  0  0  0  0  0  0  0  0  0  0  0
  191.4110  176.8020  144.7670 C   0  0  0  0  0  0  0  0  0  0  0  0
  187.2910  177.9230  145.3040 C   0  0  0  0  0  0  0  0  0  0  0  0
  186.1390  178.8150  147.8110 C   0  0  0  0  0  2  0  0  0  0  0  0
  190.1090  177.1530  144.9330 N   0  0  0  0  0  0  0  0  0  0  0  0
  185.7350  178.0830  142.9460 C   0  0  0  0  0  0  0  0  0  0  0  0
  188.0600  178.0080  148.9600 O   0  0  0  0  0  1  0  0  0  0  0  0
  188.9340  177.1450  141.4760 C   0  0  0  0  0  3  0  0  0  0  0  0
  192.2220  176.6850  145.8450 F   0  0  0  0  0  0  0  0  0  0  0  0
  185.1660  178.3390  144.1930 C   0  0  0  0  0  3  0  0  0  0  0  0
  187.0910  177.7370  142.8640 C   0  0  0  0  0  0  0  0  0  0  0  0
  188.1060  177.9640  146.5790 C   0  0  0  0  0  2  0  0  0  0  0  0
  191.9000  176.5680  143.5220 N   0  0  0  0  0  0  0  0  0  0  0  0
  185.9220  178.2800  145.3580 C   0  0  0  0  0  0  0  0  0  0  0  0
  185.1970  178.4910  146.6590 C   0  0  0  0  0  2  0  0  0  0  0  0
  187.6330  177.4870  141.6410 N   0  0  0  0  0  0  0  0  0  0  0  0
  189.7650  177.0370  142.5830 C   0  0  0  0  0  0  0  0  0  0  0  0
  191.1010  176.6780  142.4300 C   0  0  0  0  0  3  0  0  0  0  0  0
  182.8960  178.8370  142.6520 O   0  0  0  0  0  0  0  0  0  0  0  0
  183.5700  178.5230  141.6340 C   0  0  0  0  0  0  0  0  0  0  0  0
  184.9510  178.1560  141.7430 N   0  0  0  0  0  2  0  0  0  0  0  0
  183.5220  176.8660  137.9990 C   0  0  0  0  0  0  0  0  0  0  0  0
  182.2350  177.2100  140.0290 C   0  0  0  0  0  3  0  0  0  0  0  0
  184.5640  180.1670  139.3190 O   0  0  0  0  0  1  0  0  0  0  0  0
  183.8000  176.1290  137.0180 O   0  0  0  0  0  0  0  0  0  0  0  0
  182.5150  176.4420  138.9760 C   0  0  0  0  0  3  0  0  0  0  0  0
  183.9220  178.9400  139.2140 C   0  0  0  0  0  0  0  0  0  0  0  0
  182.9300  178.5290  140.2850 C   0  0  2  0  0  3  0  0  0  0  0  0
  184.1930  178.1580  138.1650 C   0  0  0  0  0  3  0  0  0  0  0  0
  1  9  1  1  0  0  0
  2  5  1  0  0  0  0
  3  2  1  0  0  0  0
  3  7  1  0  0  0  0
  4  7  2  0  0  0  0
  4 11  1  0  0  0  0
  5 16  2  0  0  0  0
  5 14  1  0  0  0  0
  6  1  1  0  0  0  0
  8 12  2  0  0  0  0
 10 18  2  0  0  0  0
 10 19  1  0  0  0  0
 12 16  1  0  0  0  0
 13  8  1  0  0  0  0
 13  2  2  0  0  0  0
 14  1  1  0  0  0  0
 15  4  1  0  0  0  0
 16 17  1  0  0  0  0
 17  6  1  0  0  0  0
 18 13  1  0  0  0  0
 19  3  2  0  0  0  0
 20 19  1  0  0  0  0
 20 15  2  0  0  0  0
 22 23  1  0  0  0  0
 22 21  2  0  0  0  0
 23  8  1  0  0  0  0
 24 31  1  0  0  0  0
 24 28  1  0  0  0  0
 25 30  1  0  0  0  0
 27 24  2  0  0  0  0
 28 25  2  0  0  0  0
 29 26  1  0  0  0  0
 29 30  1  0  0  0  0
 30 22  1  1  0  0  0
 31 29  2  0  0  0  0
M  END
>  <MODEL>
4

>  <REMARK>
 VINA RESULT:     -10.4      3.294      5.019
  Name = 
  2 active torsions:
  status: ('A' for Active; 'I' for Inactive)
    1  A    between atoms: C_5  and  C_30
    2  A    between atoms: C_10  and  N_16
                            x       y       z     vdW  Elec       q    Type
                         _______ _______ _______ _____ _____    ______ ____

>  <TORSDO>
F 2

$$$$
=
 OpenBabel11122411093D

 31 35  0  0  1  0  0  0  0  0999 V2000
  186.8050  177.5080  146.5930 C   0  0  2  0  0  3  0  0  0  0  0  0
  187.6660  178.1010  142.8870 C   0  0  0  0  0  0  0  0  0  0  0  0
  189.0020  177.6420  142.7070 C   0  0  0  0  0  0  0  0  0  0  0  0
  191.0380  176.7670  143.5680 C   0  0  0  0  0  0  0  0  0  0  0  0
  187.0090  178.1630  144.1530 C   0  0  0  0  0  0  0  0  0  0  0  0
  185.7810  178.6180  146.7400 C   0  0  0  0  0  2  0  0  0  0  0  0
  189.7640  177.2060  143.7480 N   0  0  0  0  0  0  0  0  0  0  0  0
  185.6290  178.9740  141.8190 C   0  0  0  0  0  0  0  0  0  0  0  0
  187.5430  177.3960  147.7710 O   0  0  0  0  0  1  0  0  0  0  0  0
  188.8200  178.0460  140.3230 C   0  0  0  0  0  3  0  0  0  0  0  0
  191.7630  176.3430  144.6300 F   0  0  0  0  0  0  0  0  0  0  0  0
  185.0070  179.0180  143.0660 C   0  0  0  0  0  3  0  0  0  0  0  0
  186.9510  178.5170  141.7240 C   0  0  0  0  0  0  0  0  0  0  0  0
  187.7400  177.8510  145.4410 C   0  0  0  0  0  2  0  0  0  0  0  0
  191.5830  176.7530  142.3250 N   0  0  0  0  0  0  0  0  0  0  0  0
  185.6770  178.6380  144.2220 C   0  0  0  0  0  0  0  0  0  0  0  0
  184.8910  178.6420  145.5050 C   0  0  0  0  0  2  0  0  0  0  0  0
  187.5470  178.4760  140.5000 N   0  0  0  0  0  0  0  0  0  0  0  0
  189.5640  177.6240  141.4160 C   0  0  0  0  0  0  0  0  0  0  0  0
  190.8700  177.1710  141.2490 C   0  0  0  0  0  3  0  0  0  0  0  0
  183.4300  177.5870  140.4200 O   0  0  0  0  0  0  0  0  0  0  0  0
  183.8710  178.6780  139.9690 C   0  0  0  0  0  0  0  0  0  0  0  0
  184.9350  179.3780  140.6270 N   0  0  0  0  0  2  0  0  0  0  0  0
  180.7340  178.6940  137.4950 C   0  0  0  0  0  0  0  0  0  0  0  0
  182.0250  180.0340  139.0550 C   0  0  0  0  0  3  0  0  0  0  0  0
  184.2270  177.4860  137.2300 O   0  0  0  0  0  1  0  0  0  0  0  0
  179.6190  178.4270  136.9780 O   0  0  0  0  0  0  0  0  0  0  0  0
  180.8470  179.7650  138.4890 C   0  0  0  0  0  3  0  0  0  0  0  0
  183.1150  178.2040  137.6540 C   0  0  0  0  0  0  0  0  0  0  0  0
  183.2830  179.2630  138.7270 C   0  0  2  0  0  3  0  0  0  0  0  0
  181.9290  177.9440  137.0980 C   0  0  0  0  0  3  0  0  0  0  0  0
  1  6  1  0  0  0  0
  1  9  1  1  0  0  0
  2  5  1  0  0  0  0
  3  2  1  0  0  0  0
  3  7  1  0  0  0  0
  4  7  2  0  0  0  0
  4 11  1  0  0  0  0
  5 16  2  0  0  0  0
  5 14  1  0  0  0  0
  8 12  2  0  0  0  0
 10 18  2  0  0  0  0
 10 19  1  0  0  0  0
 12 16  1  0  0  0  0
 13  8  1  0  0  0  0
 13  2  2  0  0  0  0
 14  1  1  0  0  0  0
 15  4  1  0  0  0  0
 16 17  1  0  0  0  0
 17  6  1  0  0  0  0
 18 13  1  0  0  0  0
 19  3  2  0  0  0  0
 20 19  1  0  0  0  0
 20 15  2  0  0  0  0
 22 21  2  0  0  0  0
 22 23  1  0  0  0  0
 23  8  1  0  0  0  0
 24 28  1  0  0  0  0
 26 29  1  0  0  0  0
 27 24  2  0  0  0  0
 28 25  2  0  0  0  0
 29 30  1  0  0  0  0
 30 25  1  0  0  0  0
 30 22  1  1  0  0  0
 31 24  1  0  0  0  0
 31 29  2  0  0  0  0
M  END
>  <MODEL>
5

>  <REMARK>
 VINA RESULT:     -10.3      3.793      5.770
  Name = 
  2 active torsions:
  status: ('A' for Active; 'I' for Inactive)
    1  A    between atoms: C_5  and  C_30
    2  A    between atoms: C_10  and  N_16
                            x       y       z     vdW  Elec       q    Type
                         _______ _______ _______ _____ _____    ______ ____

>  <TORSDO>
F 2

$$$$
=
 OpenBabel11122411093D

 31 35  0  0  1  0  0  0  0  0999 V2000
  189.4270  176.7700  146.6930 C   0  0  2  0  0  3  0  0  0  0  0  0
  187.9560  177.8350  143.2980 C   0  0  0  0  0  0  0  0  0  0  0  0
  189.0110  177.7160  142.3480 C   0  0  0  0  0  0  0  0  0  0  0  0
  191.2820  177.2770  141.8030 C   0  0  0  0  0  0  0  0  0  0  0  0
  188.1230  177.6430  144.7020 C   0  0  0  0  0  0  0  0  0  0  0  0
  188.5090  177.5940  147.5760 C   0  0  0  0  0  2  0  0  0  0  0  0
  190.2820  177.3900  142.7150 N   0  0  0  0  0  0  0  0  0  0  0  0
  185.5670  178.2880  143.6720 C   0  0  0  0  0  0  0  0  0  0  0  0
  190.7060  176.7420  147.2480 O   0  0  0  0  0  1  0  0  0  0  0  0
  187.4630  178.2510  140.5610 C   0  0  0  0  0  3  0  0  0  0  0  0
  192.5330  176.9530  142.2090 F   0  0  0  0  0  0  0  0  0  0  0  0
  185.7550  178.0870  145.0390 C   0  0  0  0  0  3  0  0  0  0  0  0
  186.6590  178.1610  142.8010 C   0  0  0  0  0  0  0  0  0  0  0  0
  189.4890  177.4100  145.3130 C   0  0  0  0  0  2  0  0  0  0  0  0
  191.0300  177.4880  140.4850 N   0  0  0  0  0  0  0  0  0  0  0  0
  187.0070  177.7860  145.5610 C   0  0  0  0  0  0  0  0  0  0  0  0
  187.0870  177.5060  147.0370 C   0  0  0  0  0  2  0  0  0  0  0  0
  186.4620  178.3570  141.4680 N   0  0  0  0  0  0  0  0  0  0  0  0
  188.7460  177.9310  140.9820 C   0  0  0  0  0  0  0  0  0  0  0  0
  189.7820  177.8100  140.0600 C   0  0  0  0  0  3  0  0  0  0  0  0
  183.1900  179.2840  145.1110 O   0  0  0  0  0  0  0  0  0  0  0  0
  183.1350  179.0900  143.8670 C   0  0  0  0  0  0  0  0  0  0  0  0
  184.2730  178.6100  143.1390 N   0  0  0  0  0  2  0  0  0  0  0  0
  179.9300  177.4690  142.1160 C   0  0  0  0  0  0  0  0  0  0  0  0
  180.6770  178.8920  143.9360 C   0  0  0  0  0  3  0  0  0  0  0  0
  182.9460  179.2220  140.8680 O   0  0  0  0  0  1  0  0  0  0  0  0
  179.1030  176.6260  141.6850 O   0  0  0  0  0  0  0  0  0  0  0  0
  179.7880  178.0150  143.4690 C   0  0  0  0  0  3  0  0  0  0  0  0
  181.9300  178.8020  141.7170 C   0  0  0  0  0  0  0  0  0  0  0  0
  181.8660  179.3590  143.1260 C   0  0  2  0  0  3  0  0  0  0  0  0
  181.0330  177.9220  141.2640 C   0  0  0  0  0  3  0  0  0  0  0  0
  1  9  1  1  0  0  0
  1  6  1  0  0  0  0
  2  5  1  0  0  0  0
  3  7  1  0  0  0  0
  3  2  1  0  0  0  0
  4 11  1  0  0  0  0
  4  7  2  0  0  0  0
  5 14  1  0  0  0  0
  5 16  2  0  0  0  0
  8 12  2  0  0  0  0
 10 19  1  0  0  0  0
 10 18  2  0  0  0  0
 12 16  1  0  0  0  0
 13  2  2  0  0  0  0
 13  8  1  0  0  0  0
 14  1  1  0  0  0  0
 15  4  1  0  0  0  0
 16 17  1  0  0  0  0
 17  6  1  0  0  0  0
 18 13  1  0  0  0  0
 19  3  2  0  0  0  0
 20 15  2  0  0  0  0
 20 19  1  0  0  0  0
 22 21  2  0  0  0  0
 23  8  1  0  0  0  0
 23 22  1  0  0  0  0
 24 28  1  0  0  0  0
 26 29  1  0  0  0  0
 27 24  2  0  0  0  0
 28 25  2  0  0  0  0
 29 30  1  0  0  0  0
 30 22  1  1  0  0  0
 30 25  1  0  0  0  0
 31 29  2  0  0  0  0
 31 24  1  0  0  0  0
M  END
>  <MODEL>
6

>  <REMARK>
 VINA RESULT:     -10.2      3.599      7.236
  Name = 
  2 active torsions:
  status: ('A' for Active; 'I' for Inactive)
    1  A    between atoms: C_5  and  C_30
    2  A    between atoms: C_10  and  N_16
                            x       y       z     vdW  Elec       q    Type
                         _______ _______ _______ _____ _____    ______ ____

>  <TORSDO>
F 2

$$$$
=
 OpenBabel11122411093D

 31 35  0  0  1  0  0  0  0  0999 V2000
  190.8340  177.2590  146.1810 C   0  0  2  0  0  3  0  0  0  0  0  0
  187.8250  177.6510  143.8110 C   0  0  0  0  0  0  0  0  0  0  0  0
  186.7280  178.0670  144.6200 C   0  0  0  0  0  0  0  0  0  0  0  0
  185.7740  178.5610  146.7400 C   0  0  0  0  0  0  0  0  0  0  0  0
  189.1020  177.2830  144.3300 C   0  0  0  0  0  0  0  0  0  0  0  0
  191.5820  176.2090  145.3810 C   0  0  0  0  0  2  0  0  0  0  0  0
  186.8230  178.1600  145.9760 N   0  0  0  0  0  0  0  0  0  0  0  0
  188.6540  177.2160  141.5370 C   0  0  0  0  0  0  0  0  0  0  0  0
  190.9890  177.0050  147.5430 O   0  0  0  0  0  1  0  0  0  0  0  0
  185.3660  178.3380  142.6330 C   0  0  0  0  0  3  0  0  0  0  0  0
  185.9090  178.6380  148.0850 F   0  0  0  0  0  0  0  0  0  0  0  0
  189.8960  176.8690  142.0670 C   0  0  0  0  0  3  0  0  0  0  0  0
  187.6210  177.6080  142.3990 C   0  0  0  0  0  0  0  0  0  0  0  0
  189.3560  177.1920  145.8190 C   0  0  0  0  0  2  0  0  0  0  0  0
  184.5910  178.8830  146.1570 N   0  0  0  0  0  0  0  0  0  0  0  0
  190.1250  176.8810  143.4370 C   0  0  0  0  0  0  0  0  0  0  0  0
  191.5220  176.5710  143.9030 C   0  0  0  0  0  2  0  0  0  0  0  0
  186.4140  177.9470  141.8690 N   0  0  0  0  0  0  0  0  0  0  0  0
  185.5040  178.4050  144.0120 C   0  0  0  0  0  0  0  0  0  0  0  0
  184.4380  178.8130  144.8100 C   0  0  0  0  0  3  0  0  0  0  0  0
  189.0950  179.3710  139.5680 O   0  0  0  0  0  0  0  0  0  0  0  0
  188.6400  178.2580  139.1890 C   0  0  0  0  0  0  0  0  0  0  0  0
  188.4180  177.1910  140.1190 N   0  0  0  0  0  2  0  0  0  0  0  0
  187.1400  175.7150  136.4960 C   0  0  0  0  0  0  0  0  0  0  0  0
  186.8290  177.8760  137.5590 C   0  0  0  0  0  3  0  0  0  0  0  0
  190.5410  176.9900  137.2320 O   0  0  0  0  0  1  0  0  0  0  0  0
  186.6260  174.6920  135.9760 O   0  0  0  0  0  0  0  0  0  0  0  0
  186.2860  176.8010  136.9860 C   0  0  0  0  0  3  0  0  0  0  0  0
  189.1550  176.9070  137.1730 C   0  0  0  0  0  0  0  0  0  0  0  0
  188.3210  178.0360  137.7460 C   0  0  2  0  0  3  0  0  0  0  0  0
  188.5970  175.8350  136.6040 C   0  0  0  0  0  3  0  0  0  0  0  0
  1  9  1  1  0  0  0
  2  5  1  0  0  0  0
  2  3  2  0  0  0  0
  3  7  1  0  0  0  0
  4 11  1  0  0  0  0
  5 14  1  0  0  0  0
  6  1  1  0  0  0  0
  7  4  2  0  0  0  0
  8 12  2  0  0  0  0
  8 13  1  0  0  0  0
 10 19  2  0  0  0  0
 12 16  1  0  0  0  0
 13  2  1  0  0  0  0
 14  1  1  0  0  0  0
 15  4  1  0  0  0  0
 16 17  1  0  0  0  0
 16  5  2  0  0  0  0
 17  6  1  0  0  0  0
 18 13  2  0  0  0  0
 18 10  1  0  0  0  0
 19  3  1  0  0  0  0
 19 20  1  0  0  0  0
 20 15  2  0  0  0  0
 22 21  2  0  0  0  0
 22 23  1  0  0  0  0
 23  8  1  0  0  0  0
 24 31  1  0  0  0  0
 24 28  1  0  0  0  0
 25 30  1  0  0  0  0
 27 24  2  0  0  0  0
 28 25  2  0  0  0  0
 29 26  1  0  0  0  0
 29 30  1  0  0  0  0
 30 22  1  1  0  0  0
 31 29  2  0  0  0  0
M  END
>  <MODEL>
7

>  <REMARK>
 VINA RESULT:     -10.1      2.235      4.146
  Name = 
  2 active torsions:
  status: ('A' for Active; 'I' for Inactive)
    1  A    between atoms: C_5  and  C_30
    2  A    between atoms: C_10  and  N_16
                            x       y       z     vdW  Elec       q    Type
                         _______ _______ _______ _____ _____    ______ ____

>  <TORSDO>
F 2

$$$$
=
 OpenBabel11122411093D

 31 35  0  0  1  0  0  0  0  0999 V2000
  186.7870  177.4980  146.4220 C   0  0  2  0  0  3  0  0  0  0  0  0
  187.1190  178.1660  142.6440 C   0  0  0  0  0  0  0  0  0  0  0  0
  188.4460  177.7940  142.2860 C   0  0  0  0  0  0  0  0  0  0  0  0
  190.6270  177.0460  142.8640 C   0  0  0  0  0  0  0  0  0  0  0  0
  186.6300  178.1790  143.9850 C   0  0  0  0  0  0  0  0  0  0  0  0
  185.7230  178.5390  146.7160 C   0  0  0  0  0  2  0  0  0  0  0  0
  189.3640  177.4010  143.2140 N   0  0  0  0  0  0  0  0  0  0  0  0
  184.9100  178.9130  141.8620 C   0  0  0  0  0  0  0  0  0  0  0  0
  187.6780  177.4270  147.4920 O   0  0  0  0  0  1  0  0  0  0  0  0
  187.9300  178.2000  139.9520 C   0  0  0  0  0  3  0  0  0  0  0  0
  191.5100  176.6630  143.8170 F   0  0  0  0  0  0  0  0  0  0  0  0
  184.4540  178.9100  143.1790 C   0  0  0  0  0  3  0  0  0  0  0  0
  186.2350  178.5420  141.5900 C   0  0  0  0  0  0  0  0  0  0  0  0
  187.5410  177.9060  145.1630 C   0  0  0  0  0  2  0  0  0  0  0  0
  191.0060  177.0740  141.5600 N   0  0  0  0  0  0  0  0  0  0  0  0
  185.2910  178.5670  144.2330 C   0  0  0  0  0  0  0  0  0  0  0  0
  184.6800  178.5140  145.6070 C   0  0  0  0  0  2  0  0  0  0  0  0
  186.6670  178.5470  140.2990 N   0  0  0  0  0  0  0  0  0  0  0  0
  188.8350  177.8190  140.9330 C   0  0  0  0  0  0  0  0  0  0  0  0
  190.1340  177.4520  140.5920 C   0  0  0  0  0  3  0  0  0  0  0  0
  183.1120  177.1780  140.2890 O   0  0  0  0  0  0  0  0  0  0  0  0
  183.1820  178.4090  140.0280 C   0  0  0  0  0  0  0  0  0  0  0  0
  184.0430  179.2790  140.7760 N   0  0  0  0  0  2  0  0  0  0  0  0
  180.5270  181.2150  139.0070 C   0  0  0  0  0  0  0  0  0  0  0  0
  182.7870  180.4080  138.6380 C   0  0  0  0  0  3  0  0  0  0  0  0
  180.3730  177.5340  139.4030 O   0  0  0  0  0  1  0  0  0  0  0  0
  179.7320  182.1880  139.0720 O   0  0  0  0  0  0  0  0  0  0  0  0
  181.9390  181.4360  138.6840 C   0  0  0  0  0  3  0  0  0  0  0  0
  180.8790  178.8110  139.1970 C   0  0  0  0  0  0  0  0  0  0  0  0
  182.3600  178.9850  138.9210 C   0  0  2  0  0  3  0  0  0  0  0  0
  180.0420  179.8510  139.2420 C   0  0  0  0  0  3  0  0  0  0  0  0
  1  6  1  0  0  0  0
  1  9  1  1  0  0  0
  2  5  1  0  0  0  0
  3  2  1  0  0  0  0
  3  7  1  0  0  0  0
  4  7  2  0  0  0  0
  4 11  1  0  0  0  0
  5 16  2  0  0  0  0
  5 14  1  0  0  0  0
  8 12  2  0  0  0  0
 10 18  2  0  0  0  0
 10 19  1  0  0  0  0
 12 16  1  0  0  0  0
 13  8  1  0  0  0  0
 13  2  2  0  0  0  0
 14  1  1  0  0  0  0
 15  4  1  0  0  0  0
 16 17  1  0  0  0  0
 17  6  1  0  0  0  0
 18 13  1  0  0  0  0
 19  3  2  0  0  0  0
 20 19  1  0  0  0  0
 20 15  2  0  0  0  0
 22 21  2  0  0  0  0
 22 23  1  0  0  0  0
 23  8  1  0  0  0  0
 24 27  2  0  0  0  0
 24 31  1  0  0  0  0
 25 28  2  0  0  0  0
 25 30  1  0  0  0  0
 28 24  1  0  0  0  0
 29 31  2  0  0  0  0
 29 26  1  0  0  0  0
 30 29  1  0  0  0  0
 30 22  1  1  0  0  0
M  END
>  <MODEL>
8

>  <REMARK>
 VINA RESULT:     -10.1      3.979      6.666
  Name = 
  2 active torsions:
  status: ('A' for Active; 'I' for Inactive)
    1  A    between atoms: C_5  and  C_30
    2  A    between atoms: C_10  and  N_16
                            x       y       z     vdW  Elec       q    Type
                         _______ _______ _______ _____ _____    ______ ____

>  <TORSDO>
F 2

$$$$
=
 OpenBabel11122411093D

 31 35  0  0  1  0  0  0  0  0999 V2000
  189.7050  177.6170  146.7700 C   0  0  2  0  0  3  0  0  0  0  0  0
  187.6390  178.0250  143.5460 C   0  0  0  0  0  0  0  0  0  0  0  0
  186.2930  178.2460  143.9570 C   0  0  0  0  0  0  0  0  0  0  0  0
  184.6310  178.4000  145.6500 C   0  0  0  0  0  0  0  0  0  0  0  0
  188.7040  177.7100  144.4430 C   0  0  0  0  0  0  0  0  0  0  0  0
  190.8010  176.7390  146.1940 C   0  0  0  0  0  2  0  0  0  0  0  0
  185.9170  178.1850  145.2650 N   0  0  0  0  0  0  0  0  0  0  0  0
  189.2290  177.9370  141.6710 C   0  0  0  0  0  0  0  0  0  0  0  0
  189.4260  177.2180  148.0760 O   0  0  0  0  0  1  0  0  0  0  0  0
  185.6520  178.6310  141.6510 C   0  0  0  0  0  3  0  0  0  0  0  0
  184.2980  178.3280  146.9610 F   0  0  0  0  0  0  0  0  0  0  0  0
  190.2540  177.6380  142.5680 C   0  0  0  0  0  3  0  0  0  0  0  0
  187.9260  178.1320  142.1530 C   0  0  0  0  0  0  0  0  0  0  0  0
  188.4540  177.4650  145.9150 C   0  0  0  0  0  2  0  0  0  0  0  0
  183.6820  178.6850  144.7220 N   0  0  0  0  0  0  0  0  0  0  0  0
  190.0080  177.5080  143.9290 C   0  0  0  0  0  0  0  0  0  0  0  0
  191.1950  177.2670  144.8220 C   0  0  0  0  0  2  0  0  0  0  0  0
  186.9350  178.4260  141.2670 N   0  0  0  0  0  0  0  0  0  0  0  0
  185.3110  178.5460  142.9940 C   0  0  0  0  0  0  0  0  0  0  0  0
  183.9990  178.7630  143.4050 C   0  0  0  0  0  3  0  0  0  0  0  0
  190.3000  175.9020  139.8200 O   0  0  0  0  0  0  0  0  0  0  0  0
  190.0110  177.0510  139.3900 C   0  0  0  0  0  0  0  0  0  0  0  0
  189.4860  178.0600  140.2630 N   0  0  0  0  0  2  0  0  0  0  0  0
  189.8460  175.6850  135.6390 C   0  0  0  0  0  0  0  0  0  0  0  0
  188.9060  177.2910  137.1990 C   0  0  0  0  0  3  0  0  0  0  0  0
  192.6050  176.6180  137.9300 O   0  0  0  0  0  1  0  0  0  0  0  0
  189.6780  174.9260  134.6500 O   0  0  0  0  0  0  0  0  0  0  0  0
  188.7360  176.5030  136.1360 C   0  0  0  0  0  3  0  0  0  0  0  0
  191.3410  176.5530  137.3560 C   0  0  0  0  0  0  0  0  0  0  0  0
  190.2160  177.3800  137.9480 C   0  0  2  0  0  3  0  0  0  0  0  0
  191.1560  175.7670  136.2920 C   0  0  0  0  0  3  0  0  0  0  0  0
  1  9  1  1  0  0  0
  2  3  1  0  0  0  0
  2  5  1  0  0  0  0
  3  7  1  0  0  0  0
  4 11  1  0  0  0  0
  5 14  1  0  0  0  0
  6  1  1  0  0  0  0
  7  4  2  0  0  0  0
  8 13  1  0  0  0  0
  8 12  2  0  0  0  0
 10 19  1  0  0  0  0
 12 16  1  0  0  0  0
 13  2  2  0  0  0  0
 14  1  1  0  0  0  0
 15  4  1  0  0  0  0
 16  5  2  0  0  0  0
 16 17  1  0  0  0  0
 17  6  1  0  0  0  0
 18 10  2  0  0  0  0
 18 13  1  0  0  0  0
 19 20  1  0  0  0  0
 19  3  2  0  0  0  0
 20 15  2  0  0  0  0
 22 21  2  0  0  0  0
 22 23  1  0  0  0  0
 23  8  1  0  0  0  0
 24 28  1  0  0  0  0
 24 31  1  0  0  0  0
 25 30  1  0  0  0  0
 27 24  2  0  0  0  0
 28 25  2  0  0  0  0
 29 26  1  0  0  0  0
 29 30  1  0  0  0  0
 30 22  1  1  0  0  0
 31 29  2  0  0  0  0
M  END
>  <MODEL>
9

>  <REMARK>
 VINA RESULT:     -10.1      2.197      4.084
  Name = 
  2 active torsions:
  status: ('A' for Active; 'I' for Inactive)
    1  A    between atoms: C_5  and  C_30
    2  A    between atoms: C_10  and  N_16
                            x       y       z     vdW  Elec       q    Type
                         _______ _______ _______ _____ _____    ______ ____

>  <TORSDO>
F 2

$$$$
