=
 OpenBabel11122410413D

 32 37  0  0  1  0  0  0  0  0999 V2000
  187.6690  178.8390  136.8660 C   0  0  0  0  0  2  0  0  0  0  0  0
  187.7950  177.8960  142.0130 C   0  0  1  0  0  3  0  0  0  0  0  0
  183.4700  179.4600  143.4960 C   0  0  0  0  0  3  0  0  0  0  0  0
  183.8020  179.1040  144.8900 C   0  0  0  0  0  3  0  0  0  0  0  0
  189.5160  177.3390  143.6990 C   0  0  0  0  0  0  0  0  0  0  0  0
  189.8110  177.2870  145.0580 C   0  0  0  0  0  0  0  0  0  0  0  0
  188.2660  177.6620  139.5550 C   0  0  1  0  0  3  0  0  0  0  0  0
  185.9380  178.1040  140.2940 C   0  0  0  0  0  2  0  0  0  0  0  0
  189.4100  177.4150  147.2080 N   0  0  0  0  0  0  0  0  0  0  0  0
  186.5540  178.4160  137.8410 C   0  0  2  0  0  3  0  0  0  0  0  0
  184.2250  179.0300  142.4810 C   0  0  0  0  0  3  0  0  0  0  0  0
  186.4100  178.1910  141.6840 N   0  0  1  0  0  0  0  0  0  0  0  0
  185.3730  178.0750  142.7090 C   0  0  1  0  0  3  0  0  0  0  0  0
  187.2080  177.8990  144.3720 C   0  0  0  0  0  0  0  0  0  0  0  0
  190.7000  177.0700  146.9840 C   0  0  0  0  0  3  0  0  0  0  0  0
  189.0440  179.0020  137.5270 C   0  0  0  0  0  2  0  0  0  0  0  0
  187.0180  178.5040  139.3030 C   0  0  2  0  0  3  0  0  0  0  0  0
  190.9820  176.9800  145.6540 N   0  0  0  0  0  0  0  0  0  0  0  0
  189.3400  177.8350  138.4700 C   0  0  0  0  0  2  0  0  0  0  0  0
  184.9650  178.5170  145.1840 C   0  0  0  0  0  3  0  0  0  0  0  0
  185.9230  178.1890  144.1050 C   0  0  2  0  0  3  0  0  0  0  0  0
  187.5970  177.8370  145.6840 N   0  0  0  0  0  0  0  0  0  0  0  0
  188.8260  178.0340  140.9140 C   0  0  0  0  0  2  0  0  0  0  0  0
  190.6050  176.9450  142.7490 C   0  0  0  0  0  1  0  0  0  0  0  0
  188.7590  177.5840  148.4940 C   0  0  0  0  0  1  0  0  0  0  0  0
  188.1710  177.6950  143.3140 C   0  0  0  0  0  0  0  0  0  0  0  0
  188.8770  177.5450  145.9910 C   0  0  0  0  0  0  0  0  0  0  0  0
  186.0480  177.0170  137.4900 C   0  0  0  0  0  2  0  0  0  0  0  0
  186.4360  176.6590  136.1330 N   0  0  0  0  0  2  0  0  0  0  0  0
  187.3500  175.6000  135.8390 C   0  0  0  0  0  0  0  0  0  0  0  0
  187.8840  174.7180  136.9170 C   0  0  0  0  0  1  0  0  0  0  0  0
  187.6830  175.3700  134.6140 N   0  0  0  0  0  2  0  0  0  0  0  0
  1 16  1  0  0  0  0
  1 10  1  0  0  0  0
  2 23  1  1  0  0  0
  2 26  1  0  0  0  0
  3  4  1  0  0  0  0
  4 20  2  0  0  0  0
  5  6  1  0  0  0  0
  6 18  1  0  0  0  0
  6 27  2  0  0  0  0
  7 19  1  6  0  0  0
  7 23  1  0  0  0  0
  9 25  1  0  0  0  0
 10 28  1  6  0  0  0
 10 17  1  0  0  0  0
 11  3  2  0  0  0  0
 12  8  1  6  0  0  0
 12  2  1  0  0  0  0
 12 13  1  0  0  0  0
 13 11  1  6  0  0  0
 13 21  1  0  0  0  0
 14 22  2  0  0  0  0
 15  9  1  0  0  0  0
 16 19  1  0  0  0  0
 17  7  1  0  0  0  0
 17  8  1  1  0  0  0
 18 15  2  0  0  0  0
 21 14  1  0  0  0  0
 21 20  1  1  0  0  0
 22 27  1  0  0  0  0
 24  5  1  0  0  0  0
 26  5  2  0  0  0  0
 26 14  1  0  0  0  0
 27  9  1  0  0  0  0
 29 28  1  0  0  0  0
 30 29  1  0  0  0  0
 30 31  1  0  0  0  0
 32 30  2  0  0  0  0
M  END
>  <MODEL>
1

>  <REMARK>
 VINA RESULT:      -9.7      0.000      0.000
  Name = 
  2 active torsions:
  status: ('A' for Active; 'I' for Inactive)
    1  A    between atoms: C_10  and  C_20
    2  A    between atoms: C_20  and  N_29
                            x       y       z     vdW  Elec       q    Type
                         _______ _______ _______ _____ _____    ______ ____

>  <TORSDO>
F 2

$$$$
=
 OpenBabel11122410413D

 32 37  0  0  1  0  0  0  0  0999 V2000
  180.9450  178.5440  139.3780 C   0  0  0  0  0  2  0  0  0  0  0  0
  185.3730  178.3390  142.1610 C   0  0  1  0  0  3  0  0  0  0  0  0
  188.7160  177.4240  138.7920 C   0  0  0  0  0  3  0  0  0  0  0  0
  189.7720  177.4030  139.8230 C   0  0  0  0  0  3  0  0  0  0  0  0
  185.9920  178.1630  144.5480 C   0  0  0  0  0  0  0  0  0  0  0  0
  187.0130  177.8660  145.4460 C   0  0  0  0  0  0  0  0  0  0  0  0
  183.0440  178.9810  141.4700 C   0  0  1  0  0  3  0  0  0  0  0  0
  184.8230  178.8840  139.7420 C   0  0  0  0  0  2  0  0  0  0  0  0
  189.0510  177.3750  146.0810 N   0  0  0  0  0  0  0  0  0  0  0  0
  182.3810  178.9740  139.0210 C   0  0  2  0  0  3  0  0  0  0  0  0
  187.4950  177.8930  139.0700 C   0  0  0  0  0  3  0  0  0  0  0  0
  185.7700  178.4110  140.7640 N   0  0  1  0  0  0  0  0  0  0  0  0
  187.1850  178.5210  140.4090 C   0  0  1  0  0  3  0  0  0  0  0  0
  187.6960  177.9620  142.7730 C   0  0  0  0  0  0  0  0  0  0  0  0
  188.2320  177.4860  147.1530 C   0  0  0  0  0  3  0  0  0  0  0  0
  180.8020  177.9660  140.7920 C   0  0  0  0  0  2  0  0  0  0  0  0
  183.3940  178.4870  140.0690 C   0  0  2  0  0  3  0  0  0  0  0  0
  186.9550  177.7930  146.7920 N   0  0  0  0  0  0  0  0  0  0  0  0
  181.5540  178.8230  141.8120 C   0  0  0  0  0  2  0  0  0  0  0  0
  189.4810  177.6630  141.1010 C   0  0  0  0  0  3  0  0  0  0  0  0
  188.0950  178.0060  141.4900 C   0  0  2  0  0  3  0  0  0  0  0  0
  188.6290  177.6650  143.7310 N   0  0  0  0  0  0  0  0  0  0  0  0
  183.8970  178.2250  142.4690 C   0  0  0  0  0  2  0  0  0  0  0  0
  184.6560  178.5140  145.1260 C   0  0  0  0  0  1  0  0  0  0  0  0
  190.4720  177.0780  146.0900 C   0  0  0  0  0  1  0  0  0  0  0  0
  186.3160  178.1800  143.1420 C   0  0  0  0  0  0  0  0  0  0  0  0
  188.2670  177.6160  145.0280 C   0  0  0  0  0  0  0  0  0  0  0  0
  182.4470  180.4880  138.8290 C   0  0  0  0  0  2  0  0  0  0  0  0
  181.1740  181.1040  139.1780 N   0  0  0  0  0  2  0  0  0  0  0  0
  180.3890  181.8490  138.2460 C   0  0  0  0  0  0  0  0  0  0  0  0
  180.7810  181.9510  136.8100 C   0  0  0  0  0  1  0  0  0  0  0  0
  179.2930  182.4050  138.6390 N   0  0  0  0  0  2  0  0  0  0  0  0
  1 16  1  0  0  0  0
  2 23  1  6  0  0  0
  2 26  1  0  0  0  0
  3 11  2  0  0  0  0
  3  4  1  0  0  0  0
  4 20  2  0  0  0  0
  5 24  1  0  0  0  0
  5  6  1  0  0  0  0
  6 18  1  0  0  0  0
  7 19  1  1  0  0  0
  7 23  1  0  0  0  0
  9 25  1  0  0  0  0
  9 15  1  0  0  0  0
 10 28  1  1  0  0  0
 10  1  1  0  0  0  0
 10 17  1  0  0  0  0
 12  8  1  1  0  0  0
 12  2  1  0  0  0  0
 13 11  1  6  0  0  0
 13 12  1  0  0  0  0
 13 21  1  0  0  0  0
 14 26  1  0  0  0  0
 14 22  2  0  0  0  0
 16 19  1  0  0  0  0
 17  8  1  6  0  0  0
 17  7  1  0  0  0  0
 18 15  2  0  0  0  0
 21 20  1  1  0  0  0
 21 14  1  0  0  0  0
 22 27  1  0  0  0  0
 26  5  2  0  0  0  0
 27  6  2  0  0  0  0
 27  9  1  0  0  0  0
 28 29  1  0  0  0  0
 30 32  2  0  0  0  0
 30 29  1  0  0  0  0
 31 30  1  0  0  0  0
M  END
>  <MODEL>
2

>  <REMARK>
 VINA RESULT:      -9.3      3.156      5.686
  Name = 
  2 active torsions:
  status: ('A' for Active; 'I' for Inactive)
    1  A    between atoms: C_10  and  C_20
    2  A    between atoms: C_20  and  N_29
                            x       y       z     vdW  Elec       q    Type
                         _______ _______ _______ _____ _____    ______ ____

>  <TORSDO>
F 2

$$$$
=
 OpenBabel11122410413D

 32 37  0  0  1  0  0  0  0  0999 V2000
  181.7330  179.8480  139.3630 C   0  0  0  0  0  2  0  0  0  0  0  0
  185.9780  178.2950  142.0020 C   0  0  1  0  0  3  0  0  0  0  0  0
  184.6270  178.8180  146.6130 C   0  0  0  0  0  3  0  0  0  0  0  0
  185.9530  178.3550  147.0700 C   0  0  0  0  0  3  0  0  0  0  0  0
  188.3570  177.8590  141.4880 C   0  0  0  0  0  0  0  0  0  0  0  0
  189.6310  177.6900  142.0220 C   0  0  0  0  0  0  0  0  0  0  0  0
  184.2680  178.4700  140.1690 C   0  0  1  0  0  3  0  0  0  0  0  0
  183.4950  178.3700  142.5260 C   0  0  0  0  0  2  0  0  0  0  0  0
  191.1340  177.4650  143.6000 N   0  0  0  0  0  0  0  0  0  0  0  0
  181.8700  179.1030  140.7050 C   0  0  2  0  0  3  0  0  0  0  0  0
  184.2520  178.6710  145.3380 C   0  0  0  0  0  3  0  0  0  0  0  0
  184.8970  178.3650  142.9710 N   0  0  1  0  0  0  0  0  0  0  0  0
  185.1180  177.9270  144.3480 C   0  0  1  0  0  3  0  0  0  0  0  0
  187.5430  177.8860  143.8180 C   0  0  0  0  0  0  0  0  0  0  0  0
  191.7130  177.3990  142.3780 C   0  0  0  0  0  3  0  0  0  0  0  0
  183.0750  180.1800  138.6970 C   0  0  0  0  0  2  0  0  0  0  0  0
  183.3250  179.0880  141.1980 C   0  0  2  0  0  3  0  0  0  0  0  0
  190.8030  177.5350  141.3730 N   0  0  0  0  0  0  0  0  0  0  0  0
  184.0190  178.9790  138.7400 C   0  0  0  0  0  2  0  0  0  0  0  0
  186.8780  177.9640  146.1890 C   0  0  0  0  0  3  0  0  0  0  0  0
  186.5690  177.9620  144.7420 C   0  0  2  0  0  3  0  0  0  0  0  0
  188.8340  177.7310  144.2490 N   0  0  0  0  0  0  0  0  0  0  0  0
  185.6940  178.7640  140.5920 C   0  0  0  0  0  2  0  0  0  0  0  0
  188.2310  177.8010  139.9970 C   0  0  0  0  0  1  0  0  0  0  0  0
  191.7920  177.3430  144.8890 C   0  0  0  0  0  1  0  0  0  0  0  0
  187.2540  178.0040  142.4060 C   0  0  0  0  0  0  0  0  0  0  0  0
  189.8360  177.6470  143.3520 C   0  0  0  0  0  0  0  0  0  0  0  0
  181.2980  177.6900  140.5850 C   0  0  0  0  0  2  0  0  0  0  0  0
  180.7940  177.4560  139.2390 N   0  0  0  0  0  2  0  0  0  0  0  0
  181.3520  176.4790  138.3580 C   0  0  0  0  0  0  0  0  0  0  0  0
  182.4310  175.5540  138.8130 C   0  0  0  0  0  1  0  0  0  0  0  0
  180.8830  176.3590  137.1630 N   0  0  0  0  0  2  0  0  0  0  0  0
  1 10  1  0  0  0  0
  2 23  1  1  0  0  0
  2 26  1  0  0  0  0
  2 12  1  0  0  0  0
  3  4  1  0  0  0  0
  5  6  2  0  0  0  0
  5 26  1  0  0  0  0
  6 27  1  0  0  0  0
  7 19  1  6  0  0  0
  7 23  1  0  0  0  0
  7 17  1  0  0  0  0
  9 25  1  0  0  0  0
 10 28  1  6  0  0  0
 10 17  1  0  0  0  0
 11  3  2  0  0  0  0
 12  8  1  6  0  0  0
 12 13  1  0  0  0  0
 13 21  1  0  0  0  0
 13 11  1  1  0  0  0
 14 22  1  0  0  0  0
 14 21  1  0  0  0  0
 15  9  1  0  0  0  0
 16 19  1  0  0  0  0
 16  1  1  0  0  0  0
 17  8  1  1  0  0  0
 18  6  1  0  0  0  0
 18 15  2  0  0  0  0
 20  4  2  0  0  0  0
 21 20  1  1  0  0  0
 24  5  1  0  0  0  0
 26 14  2  0  0  0  0
 27  9  1  0  0  0  0
 27 22  2  0  0  0  0
 29 28  1  0  0  0  0
 30 31  1  0  0  0  0
 30 29  1  0  0  0  0
 32 30  2  0  0  0  0
M  END
>  <MODEL>
3

>  <REMARK>
 VINA RESULT:      -9.3      2.689      4.225
  Name = 
  2 active torsions:
  status: ('A' for Active; 'I' for Inactive)
    1  A    between atoms: C_10  and  C_20
    2  A    between atoms: C_20  and  N_29
                            x       y       z     vdW  Elec       q    Type
                         _______ _______ _______ _____ _____    ______ ____

>  <TORSDO>
F 2

$$$$
=
 OpenBabel11122410413D

 32 37  0  0  1  0  0  0  0  0999 V2000
  188.6730  178.5770  148.1970 C   0  0  0  0  0  2  0  0  0  0  0  0
  186.0000  178.3340  143.7040 C   0  0  1  0  0  3  0  0  0  0  0  0
  189.4990  178.3970  140.3700 C   0  0  0  0  0  3  0  0  0  0  0  0
  188.4930  178.3450  139.2900 C   0  0  0  0  0  3  0  0  0  0  0  0
  183.6520  178.6280  142.9880 C   0  0  0  0  0  0  0  0  0  0  0  0
  182.8040  178.8410  141.9050 C   0  0  0  0  0  0  0  0  0  0  0  0
  186.5850  178.0070  146.1250 C   0  0  1  0  0  3  0  0  0  0  0  0
  188.3460  177.6640  144.4090 C   0  0  0  0  0  2  0  0  0  0  0  0
  182.2550  179.0600  139.7960 N   0  0  0  0  0  0  0  0  0  0  0  0
  189.0130  177.8950  146.8580 C   0  0  2  0  0  3  0  0  0  0  0  0
  189.1560  178.1550  141.6390 C   0  0  0  0  0  3  0  0  0  0  0  0
  187.3910  178.0720  143.3680 N   0  0  1  0  0  0  0  0  0  0  0  0
  187.7580  177.7090  142.0000 C   0  0  1  0  0  3  0  0  0  0  0  0
  185.4680  178.3940  141.3320 C   0  0  0  0  0  0  0  0  0  0  0  0
  181.1630  179.1780  140.5870 C   0  0  0  0  0  3  0  0  0  0  0  0
  187.3180  179.2970  148.2030 C   0  0  0  0  0  2  0  0  0  0  0  0
  188.0340  178.3100  145.7480 C   0  0  2  0  0  3  0  0  0  0  0  0
  181.4710  179.0450  141.9070 N   0  0  0  0  0  0  0  0  0  0  0  0
  186.2350  178.4290  147.5610 C   0  0  0  0  0  2  0  0  0  0  0  0
  187.1910  178.2530  139.5770 C   0  0  0  0  0  3  0  0  0  0  0  0
  186.7470  178.1700  140.9860 C   0  0  2  0  0  3  0  0  0  0  0  0
  184.5590  178.6260  140.3330 N   0  0  0  0  0  0  0  0  0  0  0  0
  185.6780  178.7070  145.1330 C   0  0  0  0  0  2  0  0  0  0  0  0
  183.0200  178.5460  144.3430 C   0  0  0  0  0  1  0  0  0  0  0  0
  182.2990  179.1280  138.3460 C   0  0  0  0  0  1  0  0  0  0  0  0
  185.0560  178.4310  142.7170 C   0  0  0  0  0  0  0  0  0  0  0  0
  183.2660  178.8500  140.6410 C   0  0  0  0  0  0  0  0  0  0  0  0
  189.0600  176.3780  147.0340 C   0  0  0  0  0  2  0  0  0  0  0  0
  190.3140  175.9740  147.6550 N   0  0  0  0  0  2  0  0  0  0  0  0
  191.5670  176.0030  146.9680 C   0  0  0  0  0  0  0  0  0  0  0  0
  191.6800  176.5600  145.5890 C   0  0  0  0  0  1  0  0  0  0  0  0
  192.6300  175.5870  147.5690 N   0  0  0  0  0  2  0  0  0  0  0  0
  1 16  1  0  0  0  0
  2 23  1  6  0  0  0
  3 11  2  0  0  0  0
  4 20  2  0  0  0  0
  4  3  1  0  0  0  0
  5 24  1  0  0  0  0
  6 18  1  0  0  0  0
  6  5  2  0  0  0  0
  7 23  1  6  0  0  0
  7 19  1  0  0  0  0
  9 15  1  0  0  0  0
  9 27  1  0  0  0  0
 10 28  1  1  0  0  0
 10  1  1  0  0  0  0
 12  2  1  0  0  0  0
 12  8  1  1  0  0  0
 13 11  1  6  0  0  0
 13 12  1  0  0  0  0
 14 26  2  0  0  0  0
 15 18  2  0  0  0  0
 17  8  1  6  0  0  0
 17  7  1  0  0  0  0
 17 10  1  0  0  0  0
 19 16  1  0  0  0  0
 21 20  1  6  0  0  0
 21 14  1  0  0  0  0
 21 13  1  0  0  0  0
 22 27  2  0  0  0  0
 22 14  1  0  0  0  0
 25  9  1  0  0  0  0
 26  5  1  0  0  0  0
 26  2  1  0  0  0  0
 27  6  1  0  0  0  0
 28 29  1  0  0  0  0
 30 32  2  0  0  0  0
 30 29  1  0  0  0  0
 31 30  1  0  0  0  0
M  END
>  <MODEL>
4

>  <REMARK>
 VINA RESULT:      -8.5      2.380      8.325
  Name = 
  2 active torsions:
  status: ('A' for Active; 'I' for Inactive)
    1  A    between atoms: C_10  and  C_20
    2  A    between atoms: C_20  and  N_29
                            x       y       z     vdW  Elec       q    Type
                         _______ _______ _______ _____ _____    ______ ____

>  <TORSDO>
F 2

$$$$
=
 OpenBabel11122410413D

 32 37  0  0  1  0  0  0  0  0999 V2000
  192.4570  174.2610  135.9400 C   0  0  0  0  0  2  0  0  0  0  0  0
  189.3860  177.0350  139.1430 C   0  0  1  0  0  3  0  0  0  0  0  0
  191.6240  176.6140  143.4060 C   0  0  0  0  0  3  0  0  0  0  0  0
  190.5750  177.4260  144.0550 C   0  0  0  0  0  3  0  0  0  0  0  0
  187.1070  177.9910  139.0710 C   0  0  0  0  0  0  0  0  0  0  0  0
  186.0610  178.5140  139.8250 C   0  0  0  0  0  0  0  0  0  0  0  0
  190.5430  176.2830  137.0430 C   0  0  1  0  0  3  0  0  0  0  0  0
  191.8450  176.4030  139.1530 C   0  0  0  0  0  2  0  0  0  0  0  0
  185.0520  179.2400  141.6290 N   0  0  0  0  0  0  0  0  0  0  0  0
  192.8030  175.1340  137.1610 C   0  0  2  0  0  3  0  0  0  0  0  0
  191.7160  176.5500  142.0740 C   0  0  0  0  0  3  0  0  0  0  0  0
  190.6210  176.7900  139.8700 N   0  0  1  0  0  0  0  0  0  0  0  0
  190.8270  177.3910  141.1880 C   0  0  1  0  0  3  0  0  0  0  0  0
  188.4150  177.9760  141.1640 C   0  0  0  0  0  0  0  0  0  0  0  0
  184.2340  179.3350  140.5550 C   0  0  0  0  0  3  0  0  0  0  0  0
  190.9590  174.2080  135.6160 C   0  0  0  0  0  2  0  0  0  0  0  0
  191.5410  175.5480  137.9350 C   0  0  2  0  0  3  0  0  0  0  0  0
  184.8330  178.8920  139.4150 N   0  0  0  0  0  0  0  0  0  0  0  0
  190.3360  175.6030  135.6800 C   0  0  0  0  0  2  0  0  0  0  0  0
  189.5790  177.9510  143.3360 C   0  0  0  0  0  3  0  0  0  0  0  0
  189.5360  177.7470  141.8710 C   0  0  2  0  0  3  0  0  0  0  0  0
  187.3250  178.4800  141.8250 N   0  0  0  0  0  0  0  0  0  0  0  0
  189.2260  176.3860  137.7860 C   0  0  0  0  0  2  0  0  0  0  0  0
  186.8930  177.8820  137.5920 C   0  0  0  0  0  1  0  0  0  0  0  0
  184.7550  179.6350  142.9940 C   0  0  0  0  0  1  0  0  0  0  0  0
  188.3350  177.6640  139.7550 C   0  0  0  0  0  0  0  0  0  0  0  0
  186.1850  178.7250  141.1490 C   0  0  0  0  0  0  0  0  0  0  0  0
  193.6250  176.3470  136.7270 C   0  0  0  0  0  2  0  0  0  0  0  0
  195.0440  176.0200  136.7000 N   0  0  0  0  0  2  0  0  0  0  0  0
  195.9350  176.5040  135.6930 C   0  0  0  0  0  0  0  0  0  0  0  0
  195.4780  177.4750  134.6580 C   0  0  0  0  0  1  0  0  0  0  0  0
  197.1710  176.1340  135.7070 N   0  0  0  0  0  2  0  0  0  0  0  0
  1 10  1  0  0  0  0
  2 23  1  1  0  0  0
  2 26  1  0  0  0  0
  2 12  1  0  0  0  0
  3  4  1  0  0  0  0
  5 26  2  0  0  0  0
  5  6  1  0  0  0  0
  6 27  2  0  0  0  0
  7 19  1  6  0  0  0
  7 23  1  0  0  0  0
  7 17  1  0  0  0  0
  9 25  1  0  0  0  0
 10 28  1  6  0  0  0
 10 17  1  0  0  0  0
 11  3  2  0  0  0  0
 12  8  1  6  0  0  0
 12 13  1  0  0  0  0
 13 21  1  0  0  0  0
 13 11  1  1  0  0  0
 14 22  2  0  0  0  0
 14 21  1  0  0  0  0
 15  9  1  0  0  0  0
 16 19  1  0  0  0  0
 16  1  1  0  0  0  0
 17  8  1  1  0  0  0
 18  6  1  0  0  0  0
 18 15  2  0  0  0  0
 20  4  2  0  0  0  0
 21 20  1  6  0  0  0
 24  5  1  0  0  0  0
 26 14  1  0  0  0  0
 27  9  1  0  0  0  0
 27 22  1  0  0  0  0
 29 28  1  0  0  0  0
 30 32  2  0  0  0  0
 30 29  1  0  0  0  0
 31 30  1  0  0  0  0
M  END
>  <MODEL>
5

>  <REMARK>
 VINA RESULT:      -7.5      3.634      6.515
  Name = 
  2 active torsions:
  status: ('A' for Active; 'I' for Inactive)
    1  A    between atoms: C_10  and  C_20
    2  A    between atoms: C_20  and  N_29
                            x       y       z     vdW  Elec       q    Type
                         _______ _______ _______ _____ _____    ______ ____

>  <TORSDO>
F 2

$$$$
=
 OpenBabel11122410413D

 32 37  0  0  1  0  0  0  0  0999 V2000
  179.6310  180.3240  138.0440 C   0  0  0  0  0  2  0  0  0  0  0  0
  184.1660  178.7530  140.1290 C   0  0  1  0  0  3  0  0  0  0  0  0
  183.3430  179.1070  144.8790 C   0  0  0  0  0  3  0  0  0  0  0  0
  184.7170  178.6500  145.1670 C   0  0  0  0  0  3  0  0  0  0  0  0
  186.4760  178.3700  139.3350 C   0  0  0  0  0  0  0  0  0  0  0  0
  187.8040  178.2040  139.7150 C   0  0  0  0  0  0  0  0  0  0  0  0
  182.2570  178.9600  138.5090 C   0  0  1  0  0  3  0  0  0  0  0  0
  181.7580  178.7720  140.9340 C   0  0  0  0  0  2  0  0  0  0  0  0
  189.4800  177.9520  141.1040 N   0  0  0  0  0  0  0  0  0  0  0  0
  179.9270  179.5380  139.3350 C   0  0  2  0  0  3  0  0  0  0  0  0
  182.8270  178.9940  143.6510 C   0  0  0  0  0  3  0  0  0  0  0  0
  183.2010  178.7750  141.2170 N   0  0  1  0  0  0  0  0  0  0  0  0
  183.5830  178.2960  142.5450 C   0  0  1  0  0  3  0  0  0  0  0  0
  185.9320  178.3100  141.7410 C   0  0  0  0  0  0  0  0  0  0  0  0
  189.9160  177.9340  139.8220 C   0  0  0  0  0  3  0  0  0  0  0  0
  180.8830  180.6980  137.2410 C   0  0  0  0  0  2  0  0  0  0  0  0
  181.4300  179.5300  139.6590 C   0  0  2  0  0  3  0  0  0  0  0  0
  188.8970  178.0880  138.9320 N   0  0  0  0  0  0  0  0  0  0  0  0
  181.8400  179.5100  137.1360 C   0  0  0  0  0  2  0  0  0  0  0  0
  185.5410  178.3010  144.1740 C   0  0  0  0  0  3  0  0  0  0  0  0
  185.0690  178.3410  142.7720 C   0  0  2  0  0  3  0  0  0  0  0  0
  187.2650  178.1610  142.0180 N   0  0  0  0  0  0  0  0  0  0  0  0
  183.7180  179.2620  138.7780 C   0  0  0  0  0  2  0  0  0  0  0  0
  186.1810  178.3580  137.8660 C   0  0  0  0  0  1  0  0  0  0  0  0
  190.2810  177.7980  142.3050 C   0  0  0  0  0  1  0  0  0  0  0  0
  185.4830  178.4680  140.3770 C   0  0  0  0  0  0  0  0  0  0  0  0
  188.1600  178.1210  141.0110 C   0  0  0  0  0  0  0  0  0  0  0  0
  179.3620  178.1210  139.2340 C   0  0  0  0  0  2  0  0  0  0  0  0
  179.3060  177.4980  140.5490 N   0  0  0  0  0  2  0  0  0  0  0  0
  179.4070  176.0870  140.7460 C   0  0  0  0  0  0  0  0  0  0  0  0
  179.6900  175.1650  139.6080 C   0  0  0  0  0  1  0  0  0  0  0  0
  179.3030  175.6020  141.9370 N   0  0  0  0  0  2  0  0  0  0  0  0
  1 10  1  0  0  0  0
  2 23  1  1  0  0  0
  2 26  1  0  0  0  0
  2 12  1  0  0  0  0
  3  4  1  0  0  0  0
  5  6  2  0  0  0  0
  5 26  1  0  0  0  0
  6 27  1  0  0  0  0
  7 19  1  6  0  0  0
  7 23  1  0  0  0  0
  7 17  1  0  0  0  0
  9 25  1  0  0  0  0
 10 28  1  6  0  0  0
 10 17  1  0  0  0  0
 11  3  2  0  0  0  0
 12  8  1  6  0  0  0
 12 13  1  0  0  0  0
 13 21  1  0  0  0  0
 13 11  1  1  0  0  0
 14 22  1  0  0  0  0
 14 21  1  0  0  0  0
 15  9  1  0  0  0  0
 16  1  1  0  0  0  0
 17  8  1  1  0  0  0
 18  6  1  0  0  0  0
 18 15  2  0  0  0  0
 19 16  1  0  0  0  0
 20  4  2  0  0  0  0
 21 20  1  1  0  0  0
 24  5  1  0  0  0  0
 26 14  2  0  0  0  0
 27  9  1  0  0  0  0
 27 22  2  0  0  0  0
 28 29  1  0  0  0  0
 29 30  1  0  0  0  0
 30 32  2  0  0  0  0
 31 30  1  0  0  0  0
M  END
>  <MODEL>
6

>  <REMARK>
 VINA RESULT:      -7.5      3.766      6.047
  Name = 
  2 active torsions:
  status: ('A' for Active; 'I' for Inactive)
    1  A    between atoms: C_10  and  C_20
    2  A    between atoms: C_20  and  N_29
                            x       y       z     vdW  Elec       q    Type
                         _______ _______ _______ _____ _____    ______ ____

>  <TORSDO>
F 2

$$$$
=
 OpenBabel11122410413D

 32 37  0  0  1  0  0  0  0  0999 V2000
  193.1000  173.1190  136.2000 C   0  0  0  0  0  2  0  0  0  0  0  0
  189.2860  176.3240  137.8030 C   0  0  1  0  0  3  0  0  0  0  0  0
  190.7370  177.5850  142.2380 C   0  0  0  0  0  3  0  0  0  0  0  0
  189.5260  178.4110  142.4160 C   0  0  0  0  0  3  0  0  0  0  0  0
  186.9900  176.8910  137.0830 C   0  0  0  0  0  0  0  0  0  0  0  0
  185.7850  177.4790  137.4570 C   0  0  0  0  0  0  0  0  0  0  0  0
  190.8620  175.1090  136.2690 C   0  0  1  0  0  3  0  0  0  0  0  0
  191.7450  176.0670  138.3830 C   0  0  0  0  0  2  0  0  0  0  0  0
  184.4100  178.5970  138.7450 N   0  0  0  0  0  0  0  0  0  0  0  0
  193.1470  174.3740  137.0940 C   0  0  2  0  0  3  0  0  0  0  0  0
  191.0740  177.1150  141.0330 C   0  0  0  0  0  3  0  0  0  0  0  0
  190.3840  176.4930  138.7420 N   0  0  1  0  0  0  0  0  0  0  0  0
  190.2980  177.5030  139.7960 C   0  0  1  0  0  3  0  0  0  0  0  0
  187.8910  177.7170  139.2270 C   0  0  0  0  0  0  0  0  0  0  0  0
  183.7960  178.2350  137.5940 C   0  0  0  0  0  3  0  0  0  0  0  0
  191.6950  172.7640  135.6980 C   0  0  0  0  0  2  0  0  0  0  0  0
  191.7360  174.8370  137.4910 C   0  0  2  0  0  3  0  0  0  0  0  0
  184.6270  177.5380  136.7690 N   0  0  0  0  0  0  0  0  0  0  0  0
  190.9620  174.0100  135.1990 C   0  0  0  0  0  2  0  0  0  0  0  0
  188.6390  178.5410  141.4260 C   0  0  0  0  0  3  0  0  0  0  0  0
  188.8790  177.8790  140.1240 C   0  0  2  0  0  3  0  0  0  0  0  0
  186.6630  178.2530  139.5130 N   0  0  0  0  0  0  0  0  0  0  0  0
  189.4280  175.2630  136.7350 C   0  0  0  0  0  2  0  0  0  0  0  0
  187.0580  176.2900  135.7120 C   0  0  0  0  0  1  0  0  0  0  0  0
  183.8390  179.3610  139.8400 C   0  0  0  0  0  1  0  0  0  0  0  0
  188.0940  176.9670  138.0080 C   0  0  0  0  0  0  0  0  0  0  0  0
  185.6490  178.1140  138.6360 C   0  0  0  0  0  0  0  0  0  0  0  0
  193.9350  175.4860  136.4030 C   0  0  0  0  0  2  0  0  0  0  0  0
  195.2540  175.6270  137.0050 N   0  0  0  0  0  2  0  0  0  0  0  0
  196.4460  175.1310  136.3930 C   0  0  0  0  0  0  0  0  0  0  0  0
  196.4220  174.5250  135.0300 C   0  0  0  0  0  1  0  0  0  0  0  0
  197.5740  175.2530  137.0080 N   0  0  0  0  0  2  0  0  0  0  0  0
  1 10  1  0  0  0  0
  2 23  1  1  0  0  0
  2 26  1  0  0  0  0
  2 12  1  0  0  0  0
  3  4  1  0  0  0  0
  5  6  2  0  0  0  0
  5 26  1  0  0  0  0
  6 27  1  0  0  0  0
  7 19  1  6  0  0  0
  7 23  1  0  0  0  0
  7 17  1  0  0  0  0
  9 25  1  0  0  0  0
 10 28  1  6  0  0  0
 10 17  1  0  0  0  0
 11  3  2  0  0  0  0
 12  8  1  6  0  0  0
 12 13  1  0  0  0  0
 13 21  1  0  0  0  0
 13 11  1  1  0  0  0
 14 22  1  0  0  0  0
 14 21  1  0  0  0  0
 15  9  1  0  0  0  0
 16  1  1  0  0  0  0
 17  8  1  6  0  0  0
 18  6  1  0  0  0  0
 18 15  2  0  0  0  0
 19 16  1  0  0  0  0
 20  4  2  0  0  0  0
 21 20  1  6  0  0  0
 24  5  1  0  0  0  0
 26 14  2  0  0  0  0
 27  9  1  0  0  0  0
 27 22  2  0  0  0  0
 28 29  1  0  0  0  0
 30 29  1  0  0  0  0
 30 32  2  0  0  0  0
 31 30  1  0  0  0  0
M  END
>  <MODEL>
7

>  <REMARK>
 VINA RESULT:      -7.1      4.095      7.557
  Name = 
  2 active torsions:
  status: ('A' for Active; 'I' for Inactive)
    1  A    between atoms: C_10  and  C_20
    2  A    between atoms: C_20  and  N_29
                            x       y       z     vdW  Elec       q    Type
                         _______ _______ _______ _____ _____    ______ ____

>  <TORSDO>
F 2

$$$$
=
 OpenBabel11122410413D

 32 37  0  0  1  0  0  0  0  0999 V2000
  188.7670  178.2860  148.5710 C   0  0  0  0  0  2  0  0  0  0  0  0
  187.7190  177.8900  143.4590 C   0  0  1  0  0  3  0  0  0  0  0  0
  192.1190  177.5740  141.4820 C   0  0  0  0  0  3  0  0  0  0  0  0
  191.5240  177.5030  140.1330 C   0  0  0  0  0  3  0  0  0  0  0  0
  185.7640  178.2510  141.9890 C   0  0  0  0  0  0  0  0  0  0  0  0
  185.3370  178.4350  140.6770 C   0  0  0  0  0  0  0  0  0  0  0  0
  187.4480  177.6880  145.9490 C   0  0  1  0  0  3  0  0  0  0  0  0
  189.6500  177.1530  144.9340 C   0  0  0  0  0  2  0  0  0  0  0  0
  185.5320  178.5480  138.4980 N   0  0  0  0  0  0  0  0  0  0  0  0
  189.4850  177.5060  147.4530 C   0  0  2  0  0  3  0  0  0  0  0  0
  191.3600  177.4290  142.5740 C   0  0  0  0  0  3  0  0  0  0  0  0
  189.1220  177.5410  143.6170 N   0  0  1  0  0  0  0  0  0  0  0  0
  189.8950  177.0740  142.4670 C   0  0  1  0  0  3  0  0  0  0  0  0
  188.0050  177.8260  141.0450 C   0  0  0  0  0  0  0  0  0  0  0  0
  184.2500  178.7680  138.8740 C   0  0  0  0  0  3  0  0  0  0  0  0
  187.5380  179.0690  148.0930 C   0  0  0  0  0  2  0  0  0  0  0  0
  188.9570  177.8960  146.0630 C   0  0  2  0  0  3  0  0  0  0  0  0
  184.0950  178.7040  140.2260 N   0  0  0  0  0  0  0  0  0  0  0  0
  186.6720  178.2160  147.1650 C   0  0  0  0  0  2  0  0  0  0  0  0
  190.1980  177.4910  139.9720 C   0  0  0  0  0  3  0  0  0  0  0  0
  189.3090  177.5190  141.1560 C   0  0  2  0  0  3  0  0  0  0  0  0
  187.4940  178.0380  139.7910 N   0  0  0  0  0  0  0  0  0  0  0  0
  186.9680  178.3680  144.6810 C   0  0  0  0  0  2  0  0  0  0  0  0
  184.7160  178.2850  143.0580 C   0  0  0  0  0  1  0  0  0  0  0  0
  186.0560  178.5220  137.1440 C   0  0  0  0  0  1  0  0  0  0  0  0
  187.1620  177.9700  142.2100 C   0  0  0  0  0  0  0  0  0  0  0  0
  186.1900  178.3430  139.6410 C   0  0  0  0  0  0  0  0  0  0  0  0
  189.3700  176.0020  147.7000 C   0  0  0  0  0  2  0  0  0  0  0  0
  190.6180  175.3320  147.3620 N   0  0  0  0  0  2  0  0  0  0  0  0
  191.9030  175.8760  147.6720 C   0  0  0  0  0  0  0  0  0  0  0  0
  192.0400  177.1290  148.4690 C   0  0  0  0  0  1  0  0  0  0  0  0
  192.9660  175.2470  147.3000 N   0  0  0  0  0  2  0  0  0  0  0  0
  2 12  1  0  0  0  0
  2 23  1  6  0  0  0
  3 11  2  0  0  0  0
  4  3  1  0  0  0  0
  5 26  1  0  0  0  0
  5 24  1  0  0  0  0
  6  5  2  0  0  0  0
  7 23  1  6  0  0  0
  7 17  1  0  0  0  0
  7 19  1  0  0  0  0
  9 15  1  0  0  0  0
  9 27  1  0  0  0  0
 10 28  1  1  0  0  0
 10  1  1  0  0  0  0
 12  8  1  1  0  0  0
 13 11  1  1  0  0  0
 13 12  1  0  0  0  0
 14 21  1  0  0  0  0
 14 26  2  0  0  0  0
 15 18  2  0  0  0  0
 16  1  1  0  0  0  0
 17  8  1  6  0  0  0
 17 10  1  0  0  0  0
 18  6  1  0  0  0  0
 19 16  1  0  0  0  0
 20  4  2  0  0  0  0
 21 20  1  6  0  0  0
 21 13  1  0  0  0  0
 22 14  1  0  0  0  0
 25  9  1  0  0  0  0
 26  2  1  0  0  0  0
 27 22  2  0  0  0  0
 27  6  1  0  0  0  0
 29 30  1  0  0  0  0
 29 28  1  0  0  0  0
 30 31  1  0  0  0  0
 32 30  2  0  0  0  0
M  END
>  <MODEL>
8

>  <REMARK>
 VINA RESULT:      -7.0      2.065      8.466
  Name = 
  2 active torsions:
  status: ('A' for Active; 'I' for Inactive)
    1  A    between atoms: C_10  and  C_20
    2  A    between atoms: C_20  and  N_29
                            x       y       z     vdW  Elec       q    Type
                         _______ _______ _______ _____ _____    ______ ____

>  <TORSDO>
F 2

$$$$
=
 OpenBabel11122410413D

 32 37  0  0  1  0  0  0  0  0999 V2000
  190.7560  175.8570  145.6000 C   0  0  0  0  0  2  0  0  0  0  0  0
  188.7750  177.5680  141.0680 C   0  0  1  0  0  3  0  0  0  0  0  0
  184.1090  178.2530  142.1270 C   0  0  0  0  0  3  0  0  0  0  0  0
  183.8410  178.6810  140.7400 C   0  0  0  0  0  3  0  0  0  0  0  0
  189.4950  177.6470  138.7040 C   0  0  0  0  0  0  0  0  0  0  0  0
  189.0800  177.8130  137.3870 C   0  0  0  0  0  0  0  0  0  0  0  0
  190.4260  177.1380  142.9120 C   0  0  1  0  0  3  0  0  0  0  0  0
  188.1240  177.8520  143.5060 C   0  0  0  0  0  2  0  0  0  0  0  0
  187.6770  178.2530  135.7620 N   0  0  0  0  0  0  0  0  0  0  0  0
  189.6370  176.8760  145.3100 C   0  0  2  0  0  3  0  0  0  0  0  0
  185.3620  178.1370  142.5790 C   0  0  0  0  0  3  0  0  0  0  0  0
  187.7630  177.8260  142.0810 N   0  0  1  0  0  0  0  0  0  0  0  0
  186.5410  178.5480  141.7280 C   0  0  1  0  0  3  0  0  0  0  0  0
  187.1870  178.2350  139.3520 C   0  0  0  0  0  0  0  0  0  0  0  0
  188.9080  177.9800  135.2680 C   0  0  0  0  0  3  0  0  0  0  0  0
  191.3920  175.2550  144.3410 C   0  0  0  0  0  2  0  0  0  0  0  0
  189.2340  176.8660  143.8270 C   0  0  2  0  0  3  0  0  0  0  0  0
  189.8050  177.7030  136.2550 N   0  0  0  0  0  0  0  0  0  0  0  0
  191.6810  176.3390  143.3020 C   0  0  0  0  0  2  0  0  0  0  0  0
  184.8340  178.7700  139.8510 C   0  0  0  0  0  3  0  0  0  0  0  0
  186.2240  178.4670  140.2600 C   0  0  2  0  0  3  0  0  0  0  0  0
  186.8700  178.3630  138.0250 N   0  0  0  0  0  0  0  0  0  0  0  0
  190.0180  176.8160  141.4890 C   0  0  0  0  0  2  0  0  0  0  0  0
  190.9500  177.3710  138.9310 C   0  0  0  0  0  1  0  0  0  0  0  0
  186.4890  178.6070  135.0080 C   0  0  0  0  0  1  0  0  0  0  0  0
  188.5140  177.8230  139.7480 C   0  0  0  0  0  0  0  0  0  0  0  0
  187.8100  178.1420  137.0860 C   0  0  0  0  0  0  0  0  0  0  0  0
  190.0580  178.2700  145.7740 C   0  0  0  0  0  2  0  0  0  0  0  0
  189.9410  178.3840  147.2210 N   0  0  0  0  0  2  0  0  0  0  0  0
  188.6980  178.2530  147.9140 C   0  0  0  0  0  0  0  0  0  0  0  0
  187.4470  177.8780  147.1940 C   0  0  0  0  0  1  0  0  0  0  0  0
  188.6640  178.4120  149.1940 N   0  0  0  0  0  2  0  0  0  0  0  0
  2 23  1  6  0  0  0
  2 12  1  0  0  0  0
  3 11  2  0  0  0  0
  4  3  1  0  0  0  0
  5 24  1  0  0  0  0
  5 26  1  0  0  0  0
  6  5  2  0  0  0  0
  7 23  1  6  0  0  0
  7 19  1  0  0  0  0
  7 17  1  0  0  0  0
  9 27  1  0  0  0  0
 10  1  1  0  0  0  0
 10 28  1  6  0  0  0
 12  8  1  1  0  0  0
 13 12  1  0  0  0  0
 13 11  1  1  0  0  0
 14 26  2  0  0  0  0
 14 21  1  0  0  0  0
 15  9  1  0  0  0  0
 15 18  2  0  0  0  0
 16  1  1  0  0  0  0
 17  8  1  1  0  0  0
 17 10  1  0  0  0  0
 18  6  1  0  0  0  0
 19 16  1  0  0  0  0
 20  4  2  0  0  0  0
 21 20  1  6  0  0  0
 21 13  1  0  0  0  0
 22 14  1  0  0  0  0
 25  9  1  0  0  0  0
 26  2  1  0  0  0  0
 27  6  1  0  0  0  0
 27 22  2  0  0  0  0
 28 29  1  0  0  0  0
 29 30  1  0  0  0  0
 30 32  2  0  0  0  0
 31 30  1  0  0  0  0
M  END
>  <MODEL>
9

>  <REMARK>
 VINA RESULT:      -6.7      1.700      7.797
  Name = 
  2 active torsions:
  status: ('A' for Active; 'I' for Inactive)
    1  A    between atoms: C_10  and  C_20
    2  A    between atoms: C_20  and  N_29
                            x       y       z     vdW  Elec       q    Type
                         _______ _______ _______ _____ _____    ______ ____

>  <TORSDO>
F 2

$$$$
