=
 OpenBabel11122412193D

 34 40  0  0  1  0  0  0  0  0999 V2000
  188.6650  177.1770  146.8610 C   0  0  0  0  0  0  0  0  0  0  0  0
  190.9620  176.3530  147.5910 C   0  0  0  0  0  3  0  0  0  0  0  0
  183.7630  178.3230  142.6000 C   0  0  2  0  0  3  0  0  0  0  0  0
  186.6170  178.1910  145.9880 C   0  0  0  0  0  0  0  0  0  0  0  0
  185.9230  177.7380  143.5950 C   0  0  1  0  0  3  0  0  0  0  0  0
  185.2030  177.9340  141.0810 C   0  0  0  0  0  2  0  0  0  0  0  0
  183.6800  178.0090  141.1230 C   0  0  0  0  0  2  0  0  0  0  0  0
  183.8360  180.0490  144.4180 C   0  0  0  0  0  2  0  0  0  0  0  0
  190.5070  176.6620  145.3480 C   0  0  0  0  0  0  0  0  0  0  0  0
  187.4130  177.6940  143.2810 C   0  0  0  0  0  2  0  0  0  0  0  0
  184.3210  178.8650  145.2770 C   0  0  0  0  0  2  0  0  0  0  0  0
  189.7370  177.0810  144.1170 C   0  0  1  0  0  3  0  0  0  0  0  0
  192.0880  176.6360  146.9500 C   0  0  0  0  0  3  0  0  0  0  0  0
  185.6760  178.3950  144.9060 N   0  0  0  0  0  0  0  0  0  0  0  0
  183.1470  179.6130  143.1060 C   0  0  0  0  0  2  0  0  0  0  0  0
  187.8290  177.5020  145.7680 C   0  0  0  0  0  0  0  0  0  0  0  0
  185.2470  178.5200  142.4800 C   0  0  1  0  0  3  0  0  0  0  0  0
  188.2070  177.0010  144.3840 C   0  0  1  0  0  3  0  0  0  0  0  0
  187.1660  178.3470  148.3590 C   0  0  0  0  0  3  0  0  0  0  0  0
  186.3160  178.6310  147.2890 C   0  0  0  0  0  3  0  0  0  0  0  0
  191.8050  176.8430  145.5350 C   0  0  0  0  0  3  0  0  0  0  0  0
  188.3250  177.6020  148.1510 C   0  0  0  0  0  3  0  0  0  0  0  0
  189.8350  176.2630  146.6150 C   0  0  2  0  0  3  0  0  0  0  0  0
  190.1480  178.5010  143.6990 C   0  0  0  0  0  2  0  0  0  0  0  0
  191.2720  178.4660  142.6780 C   0  0  0  0  0  2  0  0  0  0  0  0
  191.2380  177.1630  141.9030 C   0  0  0  0  0  2  0  0  0  0  0  0
  190.8880  177.4450  140.4590 C   0  0  0  0  0  2  0  0  0  0  0  0
  189.4210  177.1400  140.2260 C   0  0  0  0  0  2  0  0  0  0  0  0
  188.6960  178.3700  139.7030 C   0  0  0  0  0  2  0  0  0  0  0  0
  186.8640  176.5240  137.1880 C   0  0  0  0  0  2  0  0  0  0  0  0
  186.9100  178.6940  138.1270 O   0  0  0  0  0  0  0  0  0  0  0  0
  188.1930  178.1490  138.2840 C   0  0  2  0  0  3  0  0  0  0  0  0
  186.3120  177.9290  137.1150 C   0  0  0  0  0  2  0  0  0  0  0  0
  188.1170  176.6700  137.9960 C   0  0  0  0  0  2  0  0  0  0  0  0
  1 22  1  0  0  0  0
  3  7  1  6  0  0  0
  3 15  1  0  0  0  0
  4 20  2  0  0  0  0
  5 10  1  6  0  0  0
  5 14  1  0  0  0  0
  6  7  1  0  0  0  0
  8 11  1  0  0  0  0
  9 21  2  0  0  0  0
  9 23  1  0  0  0  0
 12 24  1  1  0  0  0
 12 18  1  0  0  0  0
 12  9  1  0  0  0  0
 13  2  2  0  0  0  0
 14 11  1  0  0  0  0
 14  4  1  0  0  0  0
 15  8  1  0  0  0  0
 16  4  1  0  0  0  0
 16  1  2  0  0  0  0
 17  6  1  6  0  0  0
 17  3  1  0  0  0  0
 17  5  1  0  0  0  0
 18 10  1  6  0  0  0
 18 16  1  0  0  0  0
 20 19  1  0  0  0  0
 21 13  1  0  0  0  0
 22 19  2  0  0  0  0
 23  1  1  0  0  0  0
 23  2  1  1  0  0  0
 25 24  1  0  0  0  0
 26 25  1  0  0  0  0
 27 26  1  0  0  0  0
 28 27  1  0  0  0  0
 29 28  1  0  0  0  0
 30 34  1  0  0  0  0
 31 32  1  0  0  0  0
 32 29  1  1  0  0  0
 33 30  1  0  0  0  0
 33 31  1  0  0  0  0
 34 32  1  0  0  0  0
M  END
>  <MODEL>
1

>  <REMARK>
 VINA RESULT:      -9.0      0.000      0.000
  Name = 
  7 active torsions:
  status: ('A' for Active; 'I' for Inactive)
    1  A    between atoms: C_10  and  C_17
    2  A    between atoms: C_10  and  C_22
    3  A    between atoms: C_13  and  C_24
    4  A    between atoms: C_17  and  C_28
    5  A    between atoms: C_22  and  C_24
    6  A    between atoms: C_28  and  C_29
    7  A    between atoms: C_29  and  C_32
                            x       y       z     vdW  Elec       q    Type
                         _______ _______ _______ _____ _____    ______ ____

>  <TORSDO>
F 7

$$$$
=
 OpenBabel11122412193D

 34 40  0  0  1  0  0  0  0  0999 V2000
  186.5520  178.2520  143.8970 C   0  0  0  0  0  0  0  0  0  0  0  0
  184.7060  178.8500  145.5480 C   0  0  0  0  0  3  0  0  0  0  0  0
  189.5780  178.1560  138.0380 C   0  0  2  0  0  3  0  0  0  0  0  0
  188.1040  177.4940  142.1650 C   0  0  0  0  0  0  0  0  0  0  0  0
  187.9400  178.4660  139.8320 C   0  0  1  0  0  3  0  0  0  0  0  0
  187.7220  178.8300  137.2440 C   0  0  0  0  0  2  0  0  0  0  0  0
  189.1560  178.7820  136.7270 C   0  0  0  0  0  2  0  0  0  0  0  0
  190.0500  176.0790  139.3610 C   0  0  0  0  0  2  0  0  0  0  0  0
  184.3290  179.0400  143.2780 C   0  0  0  0  0  0  0  0  0  0  0  0
  186.4400  178.5440  140.0830 C   0  0  0  0  0  2  0  0  0  0  0  0
  189.9640  177.0390  140.5630 C   0  0  0  0  0  2  0  0  0  0  0  0
  184.5940  178.9110  141.7960 C   0  0  1  0  0  3  0  0  0  0  0  0
  183.4130  178.6860  145.3030 C   0  0  0  0  0  3  0  0  0  0  0  0
  188.5930  177.5480  140.8030 N   0  0  0  0  0  0  0  0  0  0  0  0
  190.2600  176.8010  138.0120 C   0  0  0  0  0  2  0  0  0  0  0  0
  186.9320  178.1880  142.5370 C   0  0  0  0  0  0  0  0  0  0  0  0
  188.1380  177.9560  138.4130 C   0  0  1  0  0  3  0  0  0  0  0  0
  186.1220  178.9660  141.5140 C   0  0  1  0  0  3  0  0  0  0  0  0
  188.4130  176.8210  144.4880 C   0  0  0  0  0  3  0  0  0  0  0  0
  188.8160  176.7920  143.1520 C   0  0  0  0  0  3  0  0  0  0  0  0
  183.1700  178.7940  143.8700 C   0  0  0  0  0  3  0  0  0  0  0  0
  187.2980  177.5680  144.8650 C   0  0  0  0  0  3  0  0  0  0  0  0
  185.4230  179.1720  144.2780 C   0  0  2  0  0  3  0  0  0  0  0  0
  183.9840  177.6060  141.2640 C   0  0  0  0  0  2  0  0  0  0  0  0
  182.8370  177.8880  140.3080 C   0  0  0  0  0  2  0  0  0  0  0  0
  183.0350  177.1290  139.0100 C   0  0  0  0  0  2  0  0  0  0  0  0
  183.5440  178.0750  137.9460 C   0  0  0  0  0  2  0  0  0  0  0  0
  184.3050  177.2920  136.8950 C   0  0  0  0  0  2  0  0  0  0  0  0
  184.8680  176.0100  137.4870 C   0  0  0  0  0  2  0  0  0  0  0  0
  187.4960  175.8980  135.0030 C   0  0  0  0  0  2  0  0  0  0  0  0
  186.9650  174.9070  137.0830 O   0  0  0  0  0  0  0  0  0  0  0  0
  185.7540  175.2840  136.4860 C   0  0  2  0  0  3  0  0  0  0  0  0
  187.8920  174.8640  136.0320 C   0  0  0  0  0  2  0  0  0  0  0  0
  186.0640  176.1980  135.3260 C   0  0  0  0  0  2  0  0  0  0  0  0
  1 23  1  0  0  0  0
  1 22  1  0  0  0  0
  3  7  1  6  0  0  0
  3 17  1  0  0  0  0
  4 16  1  0  0  0  0
  4 20  2  0  0  0  0
  5 10  1  1  0  0  0
  5 14  1  0  0  0  0
  7  6  1  0  0  0  0
  8 11  1  0  0  0  0
  9 21  2  0  0  0  0
  9 23  1  0  0  0  0
 11 14  1  0  0  0  0
 12 24  1  1  0  0  0
 12  9  1  0  0  0  0
 13  2  2  0  0  0  0
 14  4  1  0  0  0  0
 15  3  1  0  0  0  0
 15  8  1  0  0  0  0
 16  1  2  0  0  0  0
 17  6  1  6  0  0  0
 17  5  1  0  0  0  0
 18 10  1  6  0  0  0
 18 12  1  0  0  0  0
 18 16  1  0  0  0  0
 19 22  2  0  0  0  0
 20 19  1  0  0  0  0
 21 13  1  0  0  0  0
 23  2  1  1  0  0  0
 25 24  1  0  0  0  0
 26 25  1  0  0  0  0
 27 26  1  0  0  0  0
 28 29  1  0  0  0  0
 28 27  1  0  0  0  0
 30 34  1  0  0  0  0
 30 33  1  0  0  0  0
 32 31  1  0  0  0  0
 32 29  1  1  0  0  0
 33 31  1  0  0  0  0
 34 32  1  0  0  0  0
M  END
>  <MODEL>
2

>  <REMARK>
 VINA RESULT:      -8.4      2.300      6.089
  Name = 
  7 active torsions:
  status: ('A' for Active; 'I' for Inactive)
    1  A    between atoms: C_10  and  C_17
    2  A    between atoms: C_10  and  C_22
    3  A    between atoms: C_13  and  C_24
    4  A    between atoms: C_17  and  C_28
    5  A    between atoms: C_22  and  C_24
    6  A    between atoms: C_28  and  C_29
    7  A    between atoms: C_29  and  C_32
                            x       y       z     vdW  Elec       q    Type
                         _______ _______ _______ _____ _____    ______ ____

>  <TORSDO>
F 7

$$$$
=
 OpenBabel11122412193D

 34 40  0  0  1  0  0  0  0  0999 V2000
  185.9040  178.4250  143.7620 C   0  0  0  0  0  0  0  0  0  0  0  0
  183.8670  178.9940  145.1830 C   0  0  0  0  0  3  0  0  0  0  0  0
  189.5300  178.2340  138.2560 C   0  0  2  0  0  3  0  0  0  0  0  0
  187.6650  177.6770  142.2380 C   0  0  0  0  0  0  0  0  0  0  0  0
  187.6990  178.5340  139.8550 C   0  0  1  0  0  3  0  0  0  0  0  0
  187.7370  178.7700  137.2440 C   0  0  0  0  0  2  0  0  0  0  0  0
  189.2180  178.7770  136.8800 C   0  0  0  0  0  2  0  0  0  0  0  0
  189.9640  176.2470  139.7230 C   0  0  0  0  0  2  0  0  0  0  0  0
  183.7220  179.0620  142.8790 C   0  0  0  0  0  0  0  0  0  0  0  0
  186.1790  178.5410  139.9460 C   0  0  0  0  0  2  0  0  0  0  0  0
  189.7040  177.2540  140.8610 C   0  0  0  0  0  2  0  0  0  0  0  0
  184.1480  178.8830  141.4400 C   0  0  1  0  0  3  0  0  0  0  0  0
  182.6170  178.7490  144.8140 C   0  0  0  0  0  3  0  0  0  0  0  0
  188.2920  177.6970  140.9330 N   0  0  0  0  0  0  0  0  0  0  0  0
  190.2780  176.9180  138.3690 C   0  0  0  0  0  2  0  0  0  0  0  0
  186.4280  178.3220  142.4530 C   0  0  0  0  0  0  0  0  0  0  0  0
  188.0710  177.9730  138.4910 C   0  0  1  0  0  3  0  0  0  0  0  0
  185.6920  179.0080  141.3150 C   0  0  1  0  0  3  0  0  0  0  0  0
  187.7620  177.1260  144.6120 C   0  0  0  0  0  3  0  0  0  0  0  0
  188.3040  177.0590  143.3270 C   0  0  0  0  0  3  0  0  0  0  0  0
  182.5210  178.7800  143.3600 C   0  0  0  0  0  3  0  0  0  0  0  0
  186.5770  177.8270  144.8340 C   0  0  0  0  0  3  0  0  0  0  0  0
  184.6980  179.2980  143.9780 C   0  0  2  0  0  3  0  0  0  0  0  0
  183.6620  177.5230  140.9150 C   0  0  0  0  0  2  0  0  0  0  0  0
  182.7320  177.6970  139.7260 C   0  0  0  0  0  2  0  0  0  0  0  0
  182.3750  179.1600  139.5470 C   0  0  0  0  0  2  0  0  0  0  0  0
  182.0930  179.4350  138.0860 C   0  0  0  0  0  2  0  0  0  0  0  0
  181.0040  180.4820  137.9700 C   0  0  0  0  0  2  0  0  0  0  0  0
  180.8290  180.9140  136.5230 C   0  0  0  0  0  2  0  0  0  0  0  0
  181.3160  184.4770  136.9150 C   0  0  0  0  0  2  0  0  0  0  0  0
  180.7680  182.9290  135.2140 O   0  0  0  0  0  0  0  0  0  0  0  0
  180.3680  182.3610  136.4320 C   0  0  2  0  0  3  0  0  0  0  0  0
  180.8920  184.3010  135.4750 C   0  0  0  0  0  2  0  0  0  0  0  0
  180.9860  183.1610  137.5520 C   0  0  0  0  0  2  0  0  0  0  0  0
  1 23  1  0  0  0  0
  1 22  1  0  0  0  0
  3  7  1  6  0  0  0
  3 15  1  0  0  0  0
  3 17  1  0  0  0  0
  4 16  1  0  0  0  0
  4 20  2  0  0  0  0
  5 10  1  1  0  0  0
  5 14  1  0  0  0  0
  7  6  1  0  0  0  0
  8 11  1  0  0  0  0
  9 21  2  0  0  0  0
  9 23  1  0  0  0  0
 11 14  1  0  0  0  0
 12 24  1  1  0  0  0
 12  9  1  0  0  0  0
 13  2  2  0  0  0  0
 14  4  1  0  0  0  0
 15  8  1  0  0  0  0
 16  1  2  0  0  0  0
 17  6  1  6  0  0  0
 17  5  1  0  0  0  0
 18 10  1  6  0  0  0
 18 12  1  0  0  0  0
 18 16  1  0  0  0  0
 19 22  2  0  0  0  0
 20 19  1  0  0  0  0
 21 13  1  0  0  0  0
 23  2  1  1  0  0  0
 25 24  1  0  0  0  0
 26 25  1  0  0  0  0
 27 26  1  0  0  0  0
 28 27  1  0  0  0  0
 29 28  1  0  0  0  0
 30 34  1  0  0  0  0
 31 33  1  0  0  0  0
 31 32  1  0  0  0  0
 32 29  1  6  0  0  0
 32 34  1  0  0  0  0
 33 30  1  0  0  0  0
M  END
>  <MODEL>
3

>  <REMARK>
 VINA RESULT:      -8.2      3.592      7.288
  Name = 
  7 active torsions:
  status: ('A' for Active; 'I' for Inactive)
    1  A    between atoms: C_10  and  C_17
    2  A    between atoms: C_10  and  C_22
    3  A    between atoms: C_13  and  C_24
    4  A    between atoms: C_17  and  C_28
    5  A    between atoms: C_22  and  C_24
    6  A    between atoms: C_28  and  C_29
    7  A    between atoms: C_29  and  C_32
                            x       y       z     vdW  Elec       q    Type
                         _______ _______ _______ _____ _____    ______ ____

>  <TORSDO>
F 7

$$$$
=
 OpenBabel11122412193D

 34 40  0  0  1  0  0  0  0  0999 V2000
  186.4550  178.2810  143.8310 C   0  0  0  0  0  0  0  0  0  0  0  0
  184.5920  178.8860  145.4610 C   0  0  0  0  0  3  0  0  0  0  0  0
  189.5450  178.1660  138.0060 C   0  0  2  0  0  3  0  0  0  0  0  0
  188.0240  177.5160  142.1180 C   0  0  0  0  0  0  0  0  0  0  0  0
  187.8880  178.4840  139.7810 C   0  0  1  0  0  3  0  0  0  0  0  0
  187.7000  178.8440  137.1910 C   0  0  0  0  0  2  0  0  0  0  0  0
  189.1390  178.7900  136.6900 C   0  0  0  0  0  2  0  0  0  0  0  0
  189.9980  176.0900  139.3380 C   0  0  0  0  0  2  0  0  0  0  0  0
  184.2400  179.0730  143.1860 C   0  0  0  0  0  0  0  0  0  0  0  0
  186.3850  178.5660  140.0150 C   0  0  0  0  0  2  0  0  0  0  0  0
  189.9000  177.0530  140.5380 C   0  0  0  0  0  2  0  0  0  0  0  0
  184.5220  178.9410  141.7070 C   0  0  1  0  0  3  0  0  0  0  0  0
  183.3010  178.7250  145.2010 C   0  0  0  0  0  3  0  0  0  0  0  0
  188.5280  177.5660  140.7610 N   0  0  0  0  0  0  0  0  0  0  0  0
  190.2240  176.8090  137.9910 C   0  0  0  0  0  2  0  0  0  0  0  0
  186.8500  178.2130  142.4760 C   0  0  0  0  0  0  0  0  0  0  0  0
  188.1010  177.9710  138.3650 C   0  0  1  0  0  3  0  0  0  0  0  0
  186.0530  178.9910  141.4420 C   0  0  1  0  0  3  0  0  0  0  0  0
  188.3050  176.8460  144.4460 C   0  0  0  0  0  3  0  0  0  0  0  0
  188.7230  176.8140  143.1140 C   0  0  0  0  0  3  0  0  0  0  0  0
  183.0750  178.8310  143.7660 C   0  0  0  0  0  3  0  0  0  0  0  0
  187.1880  177.5960  144.8080 C   0  0  0  0  0  3  0  0  0  0  0  0
  185.3240  179.2040  144.1980 C   0  0  2  0  0  3  0  0  0  0  0  0
  183.9140  177.6360  141.1710 C   0  0  0  0  0  2  0  0  0  0  0  0
  182.6330  177.9060  140.4000 C   0  0  0  0  0  2  0  0  0  0  0  0
  182.9540  178.4270  139.0130 C   0  0  0  0  0  2  0  0  0  0  0  0
  182.4850  179.8610  138.8930 C   0  0  0  0  0  2  0  0  0  0  0  0
  180.9770  179.8880  138.7420 C   0  0  0  0  0  2  0  0  0  0  0  0
  180.3840  181.0590  139.5100 C   0  0  0  0  0  2  0  0  0  0  0  0
  179.1180  178.5060  141.7390 C   0  0  0  0  0  2  0  0  0  0  0  0
  180.2370  180.5850  141.8620 O   0  0  0  0  0  0  0  0  0  0  0  0
  179.5140  180.5770  140.6610 C   0  0  2  0  0  3  0  0  0  0  0  0
  179.6440  179.5900  142.6510 C   0  0  0  0  0  2  0  0  0  0  0  0
  179.0550  179.1650  140.3940 C   0  0  0  0  0  2  0  0  0  0  0  0
  1 23  1  0  0  0  0
  1 22  1  0  0  0  0
  3  7  1  6  0  0  0
  3 17  1  0  0  0  0
  4 16  1  0  0  0  0
  4 20  2  0  0  0  0
  5 10  1  1  0  0  0
  5 14  1  0  0  0  0
  7  6  1  0  0  0  0
  8 11  1  0  0  0  0
  9 21  2  0  0  0  0
  9 23  1  0  0  0  0
 11 14  1  0  0  0  0
 12 24  1  1  0  0  0
 12  9  1  0  0  0  0
 13  2  2  0  0  0  0
 14  4  1  0  0  0  0
 15  3  1  0  0  0  0
 15  8  1  0  0  0  0
 16  1  2  0  0  0  0
 17  6  1  6  0  0  0
 17  5  1  0  0  0  0
 18 10  1  6  0  0  0
 18 12  1  0  0  0  0
 18 16  1  0  0  0  0
 19 22  2  0  0  0  0
 20 19  1  0  0  0  0
 21 13  1  0  0  0  0
 23  2  1  1  0  0  0
 25 24  1  0  0  0  0
 26 25  1  0  0  0  0
 27 26  1  0  0  0  0
 28 27  1  0  0  0  0
 28 29  1  0  0  0  0
 30 33  1  0  0  0  0
 31 33  1  0  0  0  0
 32 29  1  6  0  0  0
 32 31  1  0  0  0  0
 34 32  1  0  0  0  0
 34 30  1  0  0  0  0
M  END
>  <MODEL>
4

>  <REMARK>
 VINA RESULT:      -8.1      2.730      7.148
  Name = 
  7 active torsions:
  status: ('A' for Active; 'I' for Inactive)
    1  A    between atoms: C_10  and  C_17
    2  A    between atoms: C_10  and  C_22
    3  A    between atoms: C_13  and  C_24
    4  A    between atoms: C_17  and  C_28
    5  A    between atoms: C_22  and  C_24
    6  A    between atoms: C_28  and  C_29
    7  A    between atoms: C_29  and  C_32
                            x       y       z     vdW  Elec       q    Type
                         _______ _______ _______ _____ _____    ______ ____

>  <TORSDO>
F 7

$$$$
=
 OpenBabel11122412193D

 34 40  0  0  1  0  0  0  0  0999 V2000
  188.5840  177.2240  146.8540 C   0  0  0  0  0  0  0  0  0  0  0  0
  190.8910  176.4130  147.5690 C   0  0  0  0  0  3  0  0  0  0  0  0
  183.6360  178.3100  142.6310 C   0  0  2  0  0  3  0  0  0  0  0  0
  186.5260  178.2240  145.9910 C   0  0  0  0  0  0  0  0  0  0  0  0
  185.8080  177.7410  143.6100 C   0  0  1  0  0  3  0  0  0  0  0  0
  185.0610  177.9070  141.1020 C   0  0  0  0  0  2  0  0  0  0  0  0
  183.5380  177.9780  141.1580 C   0  0  0  0  0  2  0  0  0  0  0  0
  183.7230  180.0570  144.4280 C   0  0  0  0  0  2  0  0  0  0  0  0
  190.4120  176.6950  145.3280 C   0  0  0  0  0  0  0  0  0  0  0  0
  187.2940  177.6970  143.2810 C   0  0  0  0  0  2  0  0  0  0  0  0
  184.2200  178.8840  145.2960 C   0  0  0  0  0  2  0  0  0  0  0  0
  189.6280  177.0990  144.1010 C   0  0  1  0  0  3  0  0  0  0  0  0
  192.0100  176.6920  146.9130 C   0  0  0  0  0  3  0  0  0  0  0  0
  185.5730  178.4130  144.9160 N   0  0  0  0  0  0  0  0  0  0  0  0
  183.0220  179.6050  143.1290 C   0  0  0  0  0  2  0  0  0  0  0  0
  187.7370  177.5350  145.7660 C   0  0  0  0  0  0  0  0  0  0  0  0
  185.1180  178.5090  142.4930 C   0  0  1  0  0  3  0  0  0  0  0  0
  188.1020  177.0180  144.3840 C   0  0  1  0  0  3  0  0  0  0  0  0
  187.0980  178.4080  148.3540 C   0  0  0  0  0  3  0  0  0  0  0  0
  186.2370  178.6780  147.2890 C   0  0  0  0  0  3  0  0  0  0  0  0
  191.7120  176.8820  145.4990 C   0  0  0  0  0  3  0  0  0  0  0  0
  188.2570  177.6630  148.1420 C   0  0  0  0  0  3  0  0  0  0  0  0
  189.7540  176.3100  146.6060 C   0  0  2  0  0  3  0  0  0  0  0  0
  190.0320  178.5150  143.6620 C   0  0  0  0  0  2  0  0  0  0  0  0
  190.8230  178.4810  142.3650 C   0  0  0  0  0  2  0  0  0  0  0  0
  190.7360  177.1050  141.7320 C   0  0  0  0  0  2  0  0  0  0  0  0
  191.3660  177.1430  140.3570 C   0  0  0  0  0  2  0  0  0  0  0  0
  190.2890  177.3700  139.3150 C   0  0  0  0  0  2  0  0  0  0  0  0
  190.7350  176.8370  137.9620 C   0  0  0  0  0  2  0  0  0  0  0  0
  193.0710  174.3300  136.8020 C   0  0  0  0  0  2  0  0  0  0  0  0
  193.0600  176.6200  137.3930 O   0  0  0  0  0  0  0  0  0  0  0  0
  192.0050  176.0100  138.0870 C   0  0  2  0  0  3  0  0  0  0  0  0
  193.9100  175.5670  137.0250 C   0  0  0  0  0  2  0  0  0  0  0  0
  191.7790  174.6400  137.4960 C   0  0  0  0  0  2  0  0  0  0  0  0
  1 22  1  0  0  0  0
  3  7  1  6  0  0  0
  3 15  1  0  0  0  0
  4 20  2  0  0  0  0
  5 10  1  6  0  0  0
  5 14  1  0  0  0  0
  6  7  1  0  0  0  0
  8 11  1  0  0  0  0
  9 21  2  0  0  0  0
  9 23  1  0  0  0  0
 12 24  1  1  0  0  0
 12 18  1  0  0  0  0
 12  9  1  0  0  0  0
 13  2  2  0  0  0  0
 14 11  1  0  0  0  0
 14  4  1  0  0  0  0
 15  8  1  0  0  0  0
 16  4  1  0  0  0  0
 16  1  2  0  0  0  0
 17  6  1  6  0  0  0
 17  3  1  0  0  0  0
 17  5  1  0  0  0  0
 18 10  1  6  0  0  0
 18 16  1  0  0  0  0
 20 19  1  0  0  0  0
 21 13  1  0  0  0  0
 22 19  2  0  0  0  0
 23  1  1  0  0  0  0
 23  2  1  1  0  0  0
 25 24  1  0  0  0  0
 26 25  1  0  0  0  0
 27 26  1  0  0  0  0
 28 27  1  0  0  0  0
 29 28  1  0  0  0  0
 30 33  1  0  0  0  0
 30 34  1  0  0  0  0
 31 32  1  0  0  0  0
 32 29  1  6  0  0  0
 33 31  1  0  0  0  0
 34 32  1  0  0  0  0
M  END
>  <MODEL>
5

>  <REMARK>
 VINA RESULT:      -8.0      1.961      2.418
  Name = 
  7 active torsions:
  status: ('A' for Active; 'I' for Inactive)
    1  A    between atoms: C_10  and  C_17
    2  A    between atoms: C_10  and  C_22
    3  A    between atoms: C_13  and  C_24
    4  A    between atoms: C_17  and  C_28
    5  A    between atoms: C_22  and  C_24
    6  A    between atoms: C_28  and  C_29
    7  A    between atoms: C_29  and  C_32
                            x       y       z     vdW  Elec       q    Type
                         _______ _______ _______ _____ _____    ______ ____

>  <TORSDO>
F 7

$$$$
=
 OpenBabel11122412193D

 34 40  0  0  1  0  0  0  0  0999 V2000
  191.4180  176.4160  138.2290 C   0  0  0  0  0  0  0  0  0  0  0  0
  191.1920  175.8250  135.7610 C   0  0  0  0  0  3  0  0  0  0  0  0
  189.2820  177.4520  144.3820 C   0  0  2  0  0  3  0  0  0  0  0  0
  191.4620  177.2470  140.5290 C   0  0  0  0  0  0  0  0  0  0  0  0
  189.3900  177.0400  141.9710 C   0  0  1  0  0  3  0  0  0  0  0  0
  187.3310  177.4820  143.5330 C   0  0  0  0  0  2  0  0  0  0  0  0
  187.8840  177.3380  144.9470 C   0  0  0  0  0  2  0  0  0  0  0  0
  191.2520  178.9010  143.8270 C   0  0  0  0  0  2  0  0  0  0  0  0
  189.3170  176.3770  136.9910 C   0  0  0  0  0  0  0  0  0  0  0  0
  188.6020  177.2470  140.6850 C   0  0  0  0  0  2  0  0  0  0  0  0
  191.6780  177.6880  142.9770 C   0  0  0  0  0  2  0  0  0  0  0  0
  188.5040  176.8530  138.1730 C   0  0  1  0  0  3  0  0  0  0  0  0
  190.2780  176.3490  134.9560 C   0  0  0  0  0  3  0  0  0  0  0  0
  190.8050  177.4680  141.8010 N   0  0  0  0  0  0  0  0  0  0  0  0
  190.1850  178.5610  144.8900 C   0  0  0  0  0  2  0  0  0  0  0  0
  190.7370  176.7700  139.4160 C   0  0  0  0  0  0  0  0  0  0  0  0
  188.7180  177.8680  143.0550 C   0  0  1  0  0  3  0  0  0  0  0  0
  189.2400  176.5240  139.5020 C   0  0  1  0  0  3  0  0  0  0  0  0
  193.5090  177.1460  139.2070 C   0  0  0  0  0  3  0  0  0  0  0  0
  192.8460  177.4560  140.3950 C   0  0  0  0  0  3  0  0  0  0  0  0
  189.0960  176.7090  135.7290 C   0  0  0  0  0  3  0  0  0  0  0  0
  192.8020  176.6050  138.1340 C   0  0  0  0  0  3  0  0  0  0  0  0
  190.6420  175.7160  137.1460 C   0  0  2  0  0  3  0  0  0  0  0  0
  188.2340  178.3600  138.0510 C   0  0  0  0  0  2  0  0  0  0  0  0
  186.8260  178.6250  137.5440 C   0  0  0  0  0  2  0  0  0  0  0  0
  185.8280  177.7570  138.2860 C   0  0  0  0  0  2  0  0  0  0  0  0
  184.4940  178.4670  138.3510 C   0  0  0  0  0  2  0  0  0  0  0  0
  184.4720  179.3920  139.5510 C   0  0  0  0  0  2  0  0  0  0  0  0
  184.9340  178.6580  140.8000 C   0  0  0  0  0  2  0  0  0  0  0  0
  182.6630  179.0870  143.5830 C   0  0  0  0  0  2  0  0  0  0  0  0
  182.5790  178.8730  141.2300 O   0  0  0  0  0  0  0  0  0  0  0  0
  183.7520  178.2370  141.6600 C   0  0  2  0  0  3  0  0  0  0  0  0
  181.7690  178.9540  142.3710 C   0  0  0  0  0  2  0  0  0  0  0  0
  184.0030  178.6270  143.0950 C   0  0  0  0  0  2  0  0  0  0  0  0
  1 16  1  0  0  0  0
  3 15  1  1  0  0  0
  3  7  1  0  0  0  0
  4 14  1  0  0  0  0
  5 10  1  6  0  0  0
  5 17  1  0  0  0  0
  6  7  1  0  0  0  0
  8 15  1  0  0  0  0
  9 23  1  0  0  0  0
  9 12  1  0  0  0  0
 11  8  1  0  0  0  0
 12 24  1  6  0  0  0
 12 18  1  0  0  0  0
 13 21  1  0  0  0  0
 13  2  2  0  0  0  0
 14  5  1  0  0  0  0
 14 11  1  0  0  0  0
 16 18  1  0  0  0  0
 16  4  2  0  0  0  0
 17  6  1  1  0  0  0
 17  3  1  0  0  0  0
 18 10  1  1  0  0  0
 19 20  2  0  0  0  0
 20  4  1  0  0  0  0
 21  9  2  0  0  0  0
 22  1  2  0  0  0  0
 22 19  1  0  0  0  0
 23  2  1  6  0  0  0
 23  1  1  0  0  0  0
 25 24  1  0  0  0  0
 25 26  1  0  0  0  0
 26 27  1  0  0  0  0
 27 28  1  0  0  0  0
 28 29  1  0  0  0  0
 31 32  1  0  0  0  0
 31 33  1  0  0  0  0
 32 29  1  6  0  0  0
 32 34  1  0  0  0  0
 33 30  1  0  0  0  0
 34 30  1  0  0  0  0
M  END
>  <MODEL>
6

>  <REMARK>
 VINA RESULT:      -7.8      2.266      7.473
  Name = 
  7 active torsions:
  status: ('A' for Active; 'I' for Inactive)
    1  A    between atoms: C_10  and  C_17
    2  A    between atoms: C_10  and  C_22
    3  A    between atoms: C_13  and  C_24
    4  A    between atoms: C_17  and  C_28
    5  A    between atoms: C_22  and  C_24
    6  A    between atoms: C_28  and  C_29
    7  A    between atoms: C_29  and  C_32
                            x       y       z     vdW  Elec       q    Type
                         _______ _______ _______ _____ _____    ______ ____

>  <TORSDO>
F 7

$$$$
=
 OpenBabel11122412193D

 34 40  0  0  1  0  0  0  0  0999 V2000
  185.9500  178.1340  142.3730 C   0  0  0  0  0  0  0  0  0  0  0  0
  185.2690  178.1860  144.8280 C   0  0  0  0  0  3  0  0  0  0  0  0
  189.8480  176.7220  137.2450 C   0  0  2  0  0  3  0  0  0  0  0  0
  186.8410  178.2860  140.1010 C   0  0  0  0  0  0  0  0  0  0  0  0
  188.9590  177.0300  139.5060 C   0  0  1  0  0  3  0  0  0  0  0  0
  191.3550  176.3350  138.6970 C   0  0  0  0  0  2  0  0  0  0  0  0
  191.1810  176.0080  137.2180 C   0  0  0  0  0  2  0  0  0  0  0  0
  188.5440  178.8300  136.8670 C   0  0  0  0  0  2  0  0  0  0  0  0
  187.4590  177.7400  144.2480 C   0  0  0  0  0  0  0  0  0  0  0  0
  189.3990  177.3030  140.9380 C   0  0  0  0  0  2  0  0  0  0  0  0
  187.4660  178.1000  137.6910 C   0  0  0  0  0  2  0  0  0  0  0  0
  188.6720  177.5870  143.3600 C   0  0  1  0  0  3  0  0  0  0  0  0
  186.0710  178.5760  145.8100 C   0  0  0  0  0  3  0  0  0  0  0  0
  187.8390  177.9280  139.1140 N   0  0  0  0  0  0  0  0  0  0  0  0
  189.6260  177.8870  136.2980 C   0  0  0  0  0  2  0  0  0  0  0  0
  186.9990  177.9140  141.4530 C   0  0  0  0  0  0  0  0  0  0  0  0
  190.1620  177.2690  138.6070 C   0  0  1  0  0  3  0  0  0  0  0  0
  188.2420  177.1760  141.9240 C   0  0  1  0  0  3  0  0  0  0  0  0
  184.6550  179.2210  140.6400 C   0  0  0  0  0  3  0  0  0  0  0  0
  185.6720  178.9650  139.7190 C   0  0  0  0  0  3  0  0  0  0  0  0
  187.4560  178.3070  145.4450 C   0  0  0  0  0  3  0  0  0  0  0  0
  184.7820  178.7860  141.9590 C   0  0  0  0  0  3  0  0  0  0  0  0
  186.0720  177.5360  143.7490 C   0  0  2  0  0  3  0  0  0  0  0  0
  189.4760  178.8960  143.3390 C   0  0  0  0  0  2  0  0  0  0  0  0
  190.6750  178.8170  144.2690 C   0  0  0  0  0  2  0  0  0  0  0  0
  191.5150  177.5970  143.9410 C   0  0  0  0  0  2  0  0  0  0  0  0
  191.1060  176.4490  144.8380 C   0  0  0  0  0  2  0  0  0  0  0  0
  191.9430  176.4730  146.1020 C   0  0  0  0  0  2  0  0  0  0  0  0
  191.0810  176.1830  147.3200 C   0  0  0  0  0  2  0  0  0  0  0  0
  187.9530  177.3260  148.7340 C   0  0  0  0  0  2  0  0  0  0  0  0
  190.1410  178.1380  148.3550 O   0  0  0  0  0  0  0  0  0  0  0  0
  189.9010  177.1400  147.4000 C   0  0  2  0  0  3  0  0  0  0  0  0
  188.8710  178.5250  148.8050 C   0  0  0  0  0  2  0  0  0  0  0  0
  188.6610  176.3850  147.8070 C   0  0  0  0  0  2  0  0  0  0  0  0
  1 23  1  0  0  0  0
  2 13  2  0  0  0  0
  3 15  1  6  0  0  0
  3 17  1  0  0  0  0
  4 16  1  0  0  0  0
  5 10  1  1  0  0  0
  7  3  1  0  0  0  0
  7  6  1  0  0  0  0
  8 11  1  0  0  0  0
  9 21  2  0  0  0  0
 11 14  1  0  0  0  0
 12 24  1  6  0  0  0
 12  9  1  0  0  0  0
 14  5  1  0  0  0  0
 14  4  1  0  0  0  0
 15  8  1  0  0  0  0
 16 18  1  0  0  0  0
 16  1  2  0  0  0  0
 17  6  1  1  0  0  0
 17  5  1  0  0  0  0
 18 10  1  6  0  0  0
 18 12  1  0  0  0  0
 19 22  2  0  0  0  0
 20  4  2  0  0  0  0
 20 19  1  0  0  0  0
 21 13  1  0  0  0  0
 22  1  1  0  0  0  0
 23  9  1  0  0  0  0
 23  2  1  1  0  0  0
 24 25  1  0  0  0  0
 26 25  1  0  0  0  0
 26 27  1  0  0  0  0
 27 28  1  0  0  0  0
 28 29  1  0  0  0  0
 30 33  1  0  0  0  0
 31 33  1  0  0  0  0
 32 29  1  1  0  0  0
 32 34  1  0  0  0  0
 32 31  1  0  0  0  0
 34 30  1  0  0  0  0
M  END
>  <MODEL>
7

>  <REMARK>
 VINA RESULT:      -7.8      2.534      7.008
  Name = 
  7 active torsions:
  status: ('A' for Active; 'I' for Inactive)
    1  A    between atoms: C_10  and  C_17
    2  A    between atoms: C_10  and  C_22
    3  A    between atoms: C_13  and  C_24
    4  A    between atoms: C_17  and  C_28
    5  A    between atoms: C_22  and  C_24
    6  A    between atoms: C_28  and  C_29
    7  A    between atoms: C_29  and  C_32
                            x       y       z     vdW  Elec       q    Type
                         _______ _______ _______ _____ _____    ______ ____

>  <TORSDO>
F 7

$$$$
=
 OpenBabel11122412193D

 34 40  0  0  1  0  0  0  0  0999 V2000
  188.0010  178.0910  138.4210 C   0  0  0  0  0  0  0  0  0  0  0  0
  190.3190  177.6590  137.4560 C   0  0  0  0  0  3  0  0  0  0  0  0
  183.6310  179.5750  143.1330 C   0  0  2  0  0  3  0  0  0  0  0  0
  185.8210  178.2360  139.5190 C   0  0  0  0  0  0  0  0  0  0  0  0
  185.6860  179.0010  141.9300 C   0  0  1  0  0  3  0  0  0  0  0  0
  185.2210  179.2160  144.5010 C   0  0  0  0  0  2  0  0  0  0  0  0
  183.8640  179.9060  144.5900 C   0  0  0  0  0  2  0  0  0  0  0  0
  182.6600  178.0200  141.4220 C   0  0  0  0  0  2  0  0  0  0  0  0
  190.0010  177.6420  139.7430 C   0  0  0  0  0  0  0  0  0  0  0  0
  187.0270  178.3040  142.1160 C   0  0  0  0  0  2  0  0  0  0  0  0
  183.5750  178.7980  140.4560 C   0  0  0  0  0  2  0  0  0  0  0  0
  189.2530  177.6740  141.0560 C   0  0  1  0  0  3  0  0  0  0  0  0
  191.2180  176.8620  138.0180 C   0  0  0  0  0  3  0  0  0  0  0  0
  185.0160  178.5380  140.6850 N   0  0  0  0  0  0  0  0  0  0  0  0
  182.4110  178.7550  142.7570 C   0  0  0  0  0  2  0  0  0  0  0  0
  187.2300  178.2360  139.5960 C   0  0  0  0  0  0  0  0  0  0  0  0
  184.8290  178.6700  143.1410 C   0  0  1  0  0  3  0  0  0  0  0  0
  187.9430  178.4990  140.9120 C   0  0  1  0  0  3  0  0  0  0  0  0
  185.9770  177.8020  137.1240 C   0  0  0  0  0  3  0  0  0  0  0  0
  185.2120  177.9890  138.2760 C   0  0  0  0  0  3  0  0  0  0  0  0
  191.0150  176.8390  139.4610 C   0  0  0  0  0  3  0  0  0  0  0  0
  187.3680  177.8770  137.1910 C   0  0  0  0  0  3  0  0  0  0  0  0
  189.4880  178.3080  138.5150 C   0  0  2  0  0  3  0  0  0  0  0  0
  188.9520  176.2420  141.5230 C   0  0  0  0  0  2  0  0  0  0  0  0
  189.7370  175.9000  142.7790 C   0  0  0  0  0  2  0  0  0  0  0  0
  190.5210  177.1070  143.2540 C   0  0  0  0  0  2  0  0  0  0  0  0
  191.6690  176.6500  144.1260 C   0  0  0  0  0  2  0  0  0  0  0  0
  191.2790  176.7810  145.5850 C   0  0  0  0  0  2  0  0  0  0  0  0
  190.2010  177.8400  145.7570 C   0  0  0  0  0  2  0  0  0  0  0  0
  188.0240  178.1780  148.6260 C   0  0  0  0  0  2  0  0  0  0  0  0
  187.8570  177.8820  146.2860 O   0  0  0  0  0  0  0  0  0  0  0  0
  189.0950  177.3540  146.6810 C   0  0  2  0  0  3  0  0  0  0  0  0
  187.0930  177.9360  147.4600 C   0  0  0  0  0  2  0  0  0  0  0  0
  189.3740  177.8100  148.0920 C   0  0  0  0  0  2  0  0  0  0  0  0
  1 23  1  0  0  0  0
  1 16  1  0  0  0  0
  2 13  2  0  0  0  0
  3 15  1  1  0  0  0
  3 17  1  0  0  0  0
  3  7  1  0  0  0  0
  4 16  2  0  0  0  0
  4 14  1  0  0  0  0
  5 10  1  1  0  0  0
  5 17  1  0  0  0  0
  6  7  1  0  0  0  0
  8 15  1  0  0  0  0
  9 12  1  0  0  0  0
 11 14  1  0  0  0  0
 11  8  1  0  0  0  0
 12 24  1  6  0  0  0
 13 21  1  0  0  0  0
 14  5  1  0  0  0  0
 16 18  1  0  0  0  0
 17  6  1  1  0  0  0
 18 12  1  0  0  0  0
 18 10  1  1  0  0  0
 19 22  1  0  0  0  0
 19 20  2  0  0  0  0
 20  4  1  0  0  0  0
 21  9  2  0  0  0  0
 22  1  2  0  0  0  0
 23  2  1  6  0  0  0
 23  9  1  0  0  0  0
 24 25  1  0  0  0  0
 25 26  1  0  0  0  0
 26 27  1  0  0  0  0
 27 28  1  0  0  0  0
 28 29  1  0  0  0  0
 31 32  1  0  0  0  0
 31 33  1  0  0  0  0
 32 29  1  6  0  0  0
 32 34  1  0  0  0  0
 33 30  1  0  0  0  0
 34 30  1  0  0  0  0
M  END
>  <MODEL>
8

>  <REMARK>
 VINA RESULT:      -7.7      2.019      6.703
  Name = 
  7 active torsions:
  status: ('A' for Active; 'I' for Inactive)
    1  A    between atoms: C_10  and  C_17
    2  A    between atoms: C_10  and  C_22
    3  A    between atoms: C_13  and  C_24
    4  A    between atoms: C_17  and  C_28
    5  A    between atoms: C_22  and  C_24
    6  A    between atoms: C_28  and  C_29
    7  A    between atoms: C_29  and  C_32
                            x       y       z     vdW  Elec       q    Type
                         _______ _______ _______ _____ _____    ______ ____

>  <TORSDO>
F 7

$$$$
=
 OpenBabel11122412193D

 34 40  0  0  1  0  0  0  0  0999 V2000
  183.0480  178.5670  140.7930 C   0  0  0  0  0  0  0  0  0  0  0  0
  180.8380  178.7950  142.0390 C   0  0  0  0  0  3  0  0  0  0  0  0
  189.4540  177.1470  140.1250 C   0  0  2  0  0  3  0  0  0  0  0  0
  185.2770  178.5880  139.7850 C   0  0  0  0  0  0  0  0  0  0  0  0
  187.2260  177.5770  141.0470 C   0  0  1  0  0  3  0  0  0  0  0  0
  189.5120  177.1330  142.2520 C   0  0  0  0  0  2  0  0  0  0  0  0
  190.4350  176.6240  141.1500 C   0  0  0  0  0  2  0  0  0  0  0  0
  188.7500  179.0030  138.5920 C   0  0  0  0  0  2  0  0  0  0  0  0
  182.8120  178.5920  143.2200 C   0  0  0  0  0  0  0  0  0  0  0  0
  186.5270  178.0640  142.3090 C   0  0  0  0  0  2  0  0  0  0  0  0
  187.4190  178.2260  138.5550 C   0  0  0  0  0  2  0  0  0  0  0  0
  184.3020  178.5100  143.4600 C   0  0  1  0  0  3  0  0  0  0  0  0
  180.7100  179.3960  143.2140 C   0  0  0  0  0  3  0  0  0  0  0  0
  186.6870  178.2650  139.8420 N   0  0  0  0  0  0  0  0  0  0  0  0
  189.9380  178.1600  139.1040 C   0  0  0  0  0  2  0  0  0  0  0  0
  184.4460  178.3920  140.9090 C   0  0  0  0  0  0  0  0  0  0  0  0
  188.7090  177.8790  141.2030 C   0  0  1  0  0  3  0  0  0  0  0  0
  185.0130  177.8880  142.2250 C   0  0  1  0  0  3  0  0  0  0  0  0
  183.3240  179.2690  138.4920 C   0  0  0  0  0  3  0  0  0  0  0  0
  184.7000  179.0550  138.5910 C   0  0  0  0  0  3  0  0  0  0  0  0
  181.9560  179.2810  143.9600 C   0  0  0  0  0  3  0  0  0  0  0  0
  182.4970  179.0040  139.5820 C   0  0  0  0  0  3  0  0  0  0  0  0
  182.1810  178.1460  141.9480 C   0  0  2  0  0  3  0  0  0  0  0  0
  184.8610  179.9070  143.7710 C   0  0  0  0  0  2  0  0  0  0  0  0
  185.3190  180.0020  145.2170 C   0  0  0  0  0  2  0  0  0  0  0  0
  185.2350  178.6440  145.8860 C   0  0  0  0  0  2  0  0  0  0  0  0
  186.3000  178.5430  146.9550 C   0  0  0  0  0  2  0  0  0  0  0  0
  187.2610  177.4240  146.6060 C   0  0  0  0  0  2  0  0  0  0  0  0
  188.2410  177.8760  145.5360 C   0  0  0  0  0  2  0  0  0  0  0  0
  191.0080  176.3950  147.3360 C   0  0  0  0  0  2  0  0  0  0  0  0
  190.5210  177.2080  145.1700 O   0  0  0  0  0  0  0  0  0  0  0  0
  189.6690  177.8750  146.0610 C   0  0  2  0  0  3  0  0  0  0  0  0
  191.5620  176.7090  145.9660 C   0  0  0  0  0  2  0  0  0  0  0  0
  189.7210  177.1610  147.3890 C   0  0  0  0  0  2  0  0  0  0  0  0
  1 16  1  0  0  0  0
  1 23  1  0  0  0  0
  2 13  2  0  0  0  0
  3 15  1  6  0  0  0
  3  7  1  0  0  0  0
  3 17  1  0  0  0  0
  4 14  1  0  0  0  0
  4 16  2  0  0  0  0
  5 17  1  0  0  0  0
  5 10  1  1  0  0  0
  7  6  1  0  0  0  0
  8 15  1  0  0  0  0
  9 12  1  0  0  0  0
  9 21  2  0  0  0  0
 11  8  1  0  0  0  0
 11 14  1  0  0  0  0
 12 24  1  6  0  0  0
 13 21  1  0  0  0  0
 14  5  1  0  0  0  0
 16 18  1  0  0  0  0
 17  6  1  1  0  0  0
 18 10  1  1  0  0  0
 18 12  1  0  0  0  0
 19 20  2  0  0  0  0
 19 22  1  0  0  0  0
 20  4  1  0  0  0  0
 22  1  2  0  0  0  0
 23  2  1  6  0  0  0
 23  9  1  0  0  0  0
 24 25  1  0  0  0  0
 25 26  1  0  0  0  0
 26 27  1  0  0  0  0
 28 27  1  0  0  0  0
 29 28  1  0  0  0  0
 30 34  1  0  0  0  0
 31 33  1  0  0  0  0
 31 32  1  0  0  0  0
 32 29  1  6  0  0  0
 32 34  1  0  0  0  0
 33 30  1  0  0  0  0
M  END
>  <MODEL>
9

>  <REMARK>
 VINA RESULT:      -7.6      2.186      7.856
  Name = 
  7 active torsions:
  status: ('A' for Active; 'I' for Inactive)
    1  A    between atoms: C_10  and  C_17
    2  A    between atoms: C_10  and  C_22
    3  A    between atoms: C_13  and  C_24
    4  A    between atoms: C_17  and  C_28
    5  A    between atoms: C_22  and  C_24
    6  A    between atoms: C_28  and  C_29
    7  A    between atoms: C_29  and  C_32
                            x       y       z     vdW  Elec       q    Type
                         _______ _______ _______ _____ _____    ______ ____

>  <TORSDO>
F 7

$$$$
