=
 OpenBabel11122411323D

 37 43  0  0  1  0  0  0  0  0999 V2000
  181.8460  173.9060  135.3990 C   0  0  0  0  0  3  0  0  0  0  0  0
  186.0440  174.2660  135.5410 C   0  0  0  0  0  0  0  0  0  0  0  0
  184.1800  177.4180  137.3190 C   0  0  0  0  0  0  0  0  0  0  0  0
  180.6620  173.1030  135.3230 N   0  0  0  0  0  0  0  0  0  0  0  0
  181.6350  175.9280  139.3630 S   0  0  0  0  0  0  0  0  0  0  0  0
  186.4370  176.7050  136.4030 C   0  0  1  0  0  3  0  0  0  0  0  0
  182.8730  176.9880  137.1410 C   0  0  0  0  0  0  0  0  0  0  0  0
  179.3050  173.1440  137.4150 C   0  0  2  0  0  3  0  0  0  0  0  0
  184.9390  176.7170  136.4070 C   0  0  0  0  0  0  0  0  0  0  0  0
  181.6930  177.1970  138.0540 C   0  0  2  0  0  3  0  0  0  0  0  0
  186.9650  176.9840  137.8120 C   0  0  0  0  0  2  0  0  0  0  0  0
  179.4080  173.5460  135.9400 C   0  0  0  0  0  2  0  0  0  0  0  0
  184.1840  175.8500  135.7170 N   0  0  0  0  0  0  0  0  0  0  0  0
  185.7410  173.5500  136.8470 C   0  0  0  0  0  1  0  0  0  0  0  0
  184.1220  179.4030  138.7980 C   0  0  0  0  0  2  0  0  0  0  0  0
  186.2990  178.2490  138.3770 C   0  0  0  0  0  2  0  0  0  0  0  0
  184.7420  174.7750  134.9060 C   0  0  0  0  0  2  0  0  0  0  0  0
  180.4000  173.7300  138.3080 C   0  0  1  0  0  3  0  0  0  0  0  0
  180.1240  175.1330  138.7170 C   0  0  1  0  0  3  0  0  0  0  0  0
  184.7800  178.0670  138.5330 C   0  0  2  0  0  3  0  0  0  0  0  0
  182.9160  176.0160  136.1530 C   0  0  0  0  0  0  0  0  0  0  0  0
  187.0360  175.4200  135.7940 C   0  0  0  0  0  2  0  0  0  0  0  0
  181.5060  178.6200  138.6000 C   0  0  1  0  0  3  0  0  0  0  0  0
  186.6870  173.2760  134.5940 C   0  0  0  0  0  1  0  0  0  0  0  0
  179.8220  174.0420  139.5520 O   0  0  0  0  0  0  0  0  0  0  0  0
  179.2930  171.7670  137.5350 F   0  0  0  0  0  0  0  0  0  0  0  0
  181.7790  175.1330  135.8960 C   0  0  0  0  0  3  0  0  0  0  0  0
  182.6860  179.1770  139.8900 S   0  0  0  0  0  0  0  0  0  0  0  0
  180.8630  179.2510  136.2700 C   0  0  0  0  0  3  0  0  0  0  0  0
  181.1610  179.6590  137.5750 C   0  0  0  0  0  0  0  0  0  0  0  0
  181.1220  181.0230  137.8980 C   0  0  0  0  0  3  0  0  0  0  0  0
  180.7510  183.6680  137.3380 Cl  0  0  0  0  0  0  0  0  0  0  0  0
  180.5000  181.5570  135.6210 C   0  0  0  0  0  3  0  0  0  0  0  0
  180.7930  181.9680  136.9240 C   0  0  0  0  0  0  0  0  0  0  0  0
  180.5340  180.1970  135.2940 C   0  0  0  0  0  3  0  0  0  0  0  0
  181.7690  170.9330  135.4290 C   0  0  0  0  0  1  0  0  0  0  0  0
  180.7270  171.7810  134.7220 C   0  0  0  0  0  2  0  0  0  0  0  0
  1 27  2  0  0  0  0
  2 22  1  0  0  0  0
  2 14  1  0  0  0  0
  3 20  1  0  0  0  0
  4  1  1  0  0  0  0
  4 12  1  0  0  0  0
  6 22  1  1  0  0  0
  6  9  1  0  0  0  0
  6 11  1  0  0  0  0
  7  3  1  0  0  0  0
  8 26  1  6  0  0  0
  8 18  1  0  0  0  0
  9  3  2  0  0  0  0
 10  7  1  1  0  0  0
 10 23  1  0  0  0  0
 10  5  1  0  0  0  0
 11 16  1  0  0  0  0
 12  8  1  0  0  0  0
 13 21  1  0  0  0  0
 13  9  1  0  0  0  0
 15 28  1  0  0  0  0
 17  2  1  0  0  0  0
 17 13  1  0  0  0  0
 18 19  1  0  0  0  0
 18 25  1  1  0  0  0
 19  5  1  1  0  0  0
 19 25  1  0  0  0  0
 20 16  1  6  0  0  0
 20 15  1  0  0  0  0
 21  7  2  0  0  0  0
 23 30  1  6  0  0  0
 23 28  1  0  0  0  0
 24  2  1  0  0  0  0
 27 21  1  0  0  0  0
 29 30  1  0  0  0  0
 30 31  2  0  0  0  0
 33 34  2  0  0  0  0
 34 32  1  0  0  0  0
 34 31  1  0  0  0  0
 35 33  1  0  0  0  0
 35 29  2  0  0  0  0
 37  4  1  0  0  0  0
 37 36  1  0  0  0  0
M  END
>  <MODEL>
1

>  <REMARK>
 VINA RESULT:      -5.8      0.000      0.000
  Name = 
  2 active torsions:
  status: ('A' for Active; 'I' for Inactive)
    1  A    between atoms: N_4  and  C_37
    2  A    between atoms: C_23  and  C_30
                            x       y       z     vdW  Elec       q    Type
                         _______ _______ _______ _____ _____    ______ ____

>  <TORSDO>
F 2

$$$$
=
 OpenBabel11122411323D

 37 43  0  0  1  0  0  0  0  0999 V2000
  187.2760  177.7860  138.4540 C   0  0  0  0  0  3  0  0  0  0  0  0
  187.4630  178.2080  142.6440 C   0  0  0  0  0  0  0  0  0  0  0  0
  183.7090  178.8540  141.2100 C   0  0  0  0  0  0  0  0  0  0  0  0
  187.7700  177.2260  137.2310 N   0  0  0  0  0  0  0  0  0  0  0  0
  183.1490  176.1680  138.8970 S   0  0  0  0  0  0  0  0  0  0  0  0
  185.1330  179.2160  143.2790 C   0  0  1  0  0  3  0  0  0  0  0  0
  183.9740  178.6100  139.8700 C   0  0  0  0  0  0  0  0  0  0  0  0
  186.1930  175.6040  136.1800 C   0  0  2  0  0  3  0  0  0  0  0  0
  184.9270  179.1180  141.7990 C   0  0  0  0  0  0  0  0  0  0  0  0
  183.0680  177.9890  138.8400 C   0  0  2  0  0  3  0  0  0  0  0  0
  184.0720  178.3900  144.0100 C   0  0  0  0  0  2  0  0  0  0  0  0
  186.8730  176.9760  136.0990 C   0  0  0  0  0  2  0  0  0  0  0  0
  185.9250  179.0030  140.9110 N   0  0  0  0  0  0  0  0  0  0  0  0
  187.1020  176.7400  142.4880 C   0  0  0  0  0  1  0  0  0  0  0  0
  181.2540  179.0700  141.4590 C   0  0  0  0  0  2  0  0  0  0  0  0
  182.6730  178.7650  143.4950 C   0  0  0  0  0  2  0  0  0  0  0  0
  187.3290  178.9290  141.2950 C   0  0  0  0  0  2  0  0  0  0  0  0
  185.3160  175.4060  137.4160 C   0  0  1  0  0  3  0  0  0  0  0  0
  183.9670  176.0160  137.2730 C   0  0  1  0  0  3  0  0  0  0  0  0
  182.5090  178.4240  142.0040 C   0  0  2  0  0  3  0  0  0  0  0  0
  185.3510  178.7020  139.7260 C   0  0  0  0  0  0  0  0  0  0  0  0
  186.5670  178.8550  143.7200 C   0  0  0  0  0  2  0  0  0  0  0  0
  181.6260  178.5170  138.8040 C   0  0  1  0  0  3  0  0  0  0  0  0
  188.9030  178.2980  143.0990 C   0  0  0  0  0  1  0  0  0  0  0  0
  184.1940  174.6480  137.0330 O   0  0  0  0  0  0  0  0  0  0  0  0
  187.1400  174.5990  136.1130 F   0  0  0  0  0  0  0  0  0  0  0  0
  186.0290  178.2270  138.5200 C   0  0  0  0  0  3  0  0  0  0  0  0
  180.5210  178.0090  140.1780 S   0  0  0  0  0  0  0  0  0  0  0  0
  182.4480  180.8750  138.7670 C   0  0  0  0  0  3  0  0  0  0  0  0
  181.4780  179.9460  138.3760 C   0  0  0  0  0  0  0  0  0  0  0  0
  180.3980  180.3670  137.5870 C   0  0  0  0  0  3  0  0  0  0  0  0
  178.9330  182.2190  136.2170 Cl  0  0  0  0  0  0  0  0  0  0  0  0
  181.2570  182.6290  137.5960 C   0  0  0  0  0  3  0  0  0  0  0  0
  180.2880  181.7040  137.1990 C   0  0  0  0  0  0  0  0  0  0  0  0
  182.3380  182.2140  138.3800 C   0  0  0  0  0  3  0  0  0  0  0  0
  189.7880  176.7790  138.5240 C   0  0  0  0  0  1  0  0  0  0  0  0
  189.1570  176.7990  137.1440 C   0  0  0  0  0  2  0  0  0  0  0  0
  1 27  2  0  0  0  0
  2 24  1  0  0  0  0
  2 22  1  0  0  0  0
  3  9  2  0  0  0  0
  3 20  1  0  0  0  0
  4  1  1  0  0  0  0
  6 22  1  6  0  0  0
  6 11  1  0  0  0  0
  7  3  1  0  0  0  0
  8 26  1  1  0  0  0
  8 18  1  0  0  0  0
  9  6  1  0  0  0  0
 10  5  1  1  0  0  0
 10  7  1  0  0  0  0
 12  8  1  0  0  0  0
 12  4  1  0  0  0  0
 13 17  1  0  0  0  0
 13  9  1  0  0  0  0
 14  2  1  0  0  0  0
 16 11  1  0  0  0  0
 17  2  1  0  0  0  0
 18 25  1  6  0  0  0
 19 25  1  6  0  0  0
 19 18  1  0  0  0  0
 19  5  1  0  0  0  0
 20 15  1  6  0  0  0
 20 16  1  0  0  0  0
 21  7  2  0  0  0  0
 21 13  1  0  0  0  0
 23 30  1  1  0  0  0
 23 10  1  0  0  0  0
 23 28  1  0  0  0  0
 27 21  1  0  0  0  0
 28 15  1  0  0  0  0
 30 29  2  0  0  0  0
 31 30  1  0  0  0  0
 32 34  1  0  0  0  0
 33 35  2  0  0  0  0
 34 31  2  0  0  0  0
 34 33  1  0  0  0  0
 35 29  1  0  0  0  0
 37  4  1  0  0  0  0
 37 36  1  0  0  0  0
M  END
>  <MODEL>
2

>  <REMARK>
 VINA RESULT:      -5.8      3.411      6.039
  Name = 
  2 active torsions:
  status: ('A' for Active; 'I' for Inactive)
    1  A    between atoms: N_4  and  C_37
    2  A    between atoms: C_23  and  C_30
                            x       y       z     vdW  Elec       q    Type
                         _______ _______ _______ _____ _____    ______ ____

>  <TORSDO>
F 2

$$$$
=
 OpenBabel11122411323D

 37 43  0  0  1  0  0  0  0  0999 V2000
  186.4340  177.9370  138.4870 C   0  0  0  0  0  3  0  0  0  0  0  0
  187.1740  178.3990  142.6110 C   0  0  0  0  0  0  0  0  0  0  0  0
  183.2290  178.8370  141.7080 C   0  0  0  0  0  0  0  0  0  0  0  0
  186.7830  177.3960  137.2070 N   0  0  0  0  0  0  0  0  0  0  0  0
  182.4990  176.1090  139.4950 S   0  0  0  0  0  0  0  0  0  0  0  0
  184.9030  179.2890  143.5610 C   0  0  1  0  0  3  0  0  0  0  0  0
  183.3200  178.5980  140.3450 C   0  0  0  0  0  0  0  0  0  0  0  0
  185.1650  175.6860  136.3840 C   0  0  2  0  0  3  0  0  0  0  0  0
  184.5010  179.1690  142.1230 C   0  0  0  0  0  0  0  0  0  0  0  0
  182.3150  177.9230  139.4500 C   0  0  2  0  0  3  0  0  0  0  0  0
  183.9990  178.4140  144.4320 C   0  0  0  0  0  2  0  0  0  0  0  0
  185.7540  177.0910  136.2090 C   0  0  0  0  0  2  0  0  0  0  0  0
  185.3710  179.1000  141.1070 N   0  0  0  0  0  0  0  0  0  0  0  0
  186.8730  176.9130  142.5060 C   0  0  0  0  0  1  0  0  0  0  0  0
  180.8240  178.9260  142.2940 C   0  0  0  0  0  2  0  0  0  0  0  0
  182.5250  178.7110  144.1150 C   0  0  0  0  0  2  0  0  0  0  0  0
  186.8180  179.1030  141.2930 C   0  0  0  0  0  2  0  0  0  0  0  0
  184.4780  175.4510  137.7290 C   0  0  1  0  0  3  0  0  0  0  0  0
  183.0930  175.9880  137.7730 C   0  0  1  0  0  3  0  0  0  0  0  0
  182.1740  178.3510  142.6610 C   0  0  2  0  0  3  0  0  0  0  0  0
  184.6570  178.7600  140.0120 C   0  0  0  0  0  0  0  0  0  0  0  0
  186.4010  179.0070  143.8000 C   0  0  0  0  0  2  0  0  0  0  0  0
  180.8560  178.3740  139.6130 C   0  0  1  0  0  3  0  0  0  0  0  0
  188.6560  178.5690  142.8620 C   0  0  0  0  0  1  0  0  0  0  0  0
  183.3560  174.6330  137.5040 O   0  0  0  0  0  0  0  0  0  0  0  0
  186.1450  174.7310  136.1870 F   0  0  0  0  0  0  0  0  0  0  0  0
  185.1860  178.3130  138.7240 C   0  0  0  0  0  3  0  0  0  0  0  0
  179.9780  177.8190  141.1260 S   0  0  0  0  0  0  0  0  0  0  0  0
  179.2490  180.2380  139.1890 C   0  0  0  0  0  3  0  0  0  0  0  0
  180.5740  179.7900  139.2090 C   0  0  0  0  0  0  0  0  0  0  0  0
  181.6060  180.6740  138.8640 C   0  0  0  0  0  3  0  0  0  0  0  0
  182.6110  183.0830  138.0650 Cl  0  0  0  0  0  0  0  0  0  0  0  0
  179.9890  182.4310  138.4740 C   0  0  0  0  0  3  0  0  0  0  0  0
  181.3140  181.9900  138.4970 C   0  0  0  0  0  0  0  0  0  0  0  0
  178.9550  181.5550  138.8210 C   0  0  0  0  0  3  0  0  0  0  0  0
  189.0210  178.2910  136.8390 C   0  0  0  0  0  1  0  0  0  0  0  0
  188.1660  177.0410  136.9300 C   0  0  0  0  0  2  0  0  0  0  0  0
  1 27  2  0  0  0  0
  2 24  1  0  0  0  0
  2 22  1  0  0  0  0
  3  9  2  0  0  0  0
  3 20  1  0  0  0  0
  4  1  1  0  0  0  0
  6 22  1  6  0  0  0
  6 11  1  0  0  0  0
  7  3  1  0  0  0  0
  8 26  1  1  0  0  0
  8 18  1  0  0  0  0
  9  6  1  0  0  0  0
 10  5  1  1  0  0  0
 10 23  1  0  0  0  0
 10  7  1  0  0  0  0
 12  8  1  0  0  0  0
 12  4  1  0  0  0  0
 13 17  1  0  0  0  0
 13  9  1  0  0  0  0
 14  2  1  0  0  0  0
 16 11  1  0  0  0  0
 17  2  1  0  0  0  0
 18 25  1  6  0  0  0
 18 19  1  0  0  0  0
 19 25  1  6  0  0  0
 19  5  1  0  0  0  0
 20 15  1  6  0  0  0
 20 16  1  0  0  0  0
 21  7  2  0  0  0  0
 21 13  1  0  0  0  0
 23 30  1  1  0  0  0
 23 28  1  0  0  0  0
 27 21  1  0  0  0  0
 28 15  1  0  0  0  0
 29 30  1  0  0  0  0
 31 30  2  0  0  0  0
 32 34  1  0  0  0  0
 33 34  2  0  0  0  0
 33 35  1  0  0  0  0
 34 31  1  0  0  0  0
 35 29  2  0  0  0  0
 36 37  1  0  0  0  0
 37  4  1  0  0  0  0
M  END
>  <MODEL>
3

>  <REMARK>
 VINA RESULT:      -5.7      3.408      5.933
  Name = 
  2 active torsions:
  status: ('A' for Active; 'I' for Inactive)
    1  A    between atoms: N_4  and  C_37
    2  A    between atoms: C_23  and  C_30
                            x       y       z     vdW  Elec       q    Type
                         _______ _______ _______ _____ _____    ______ ____

>  <TORSDO>
F 2

$$$$
=
 OpenBabel11122411323D

 37 43  0  0  1  0  0  0  0  0999 V2000
  186.3840  173.7240  137.1000 C   0  0  0  0  0  3  0  0  0  0  0  0
  183.1250  171.2880  135.9990 C   0  0  0  0  0  0  0  0  0  0  0  0
  181.9460  175.0520  137.0080 C   0  0  0  0  0  0  0  0  0  0  0  0
  187.7760  174.0560  137.0310 N   0  0  0  0  0  0  0  0  0  0  0  0
  184.2600  177.2090  135.3140 S   0  0  0  0  0  0  0  0  0  0  0  0
  181.0280  172.7140  136.6460 C   0  0  1  0  0  3  0  0  0  0  0  0
  183.2030  175.5790  137.2680 C   0  0  0  0  0  0  0  0  0  0  0  0
  188.2200  176.2070  135.8480 C   0  0  2  0  0  3  0  0  0  0  0  0
  182.0850  173.6820  137.0790 C   0  0  0  0  0  0  0  0  0  0  0  0
  183.6890  176.9850  137.0310 C   0  0  2  0  0  3  0  0  0  0  0  0
  180.1340  173.3570  135.5830 C   0  0  0  0  0  2  0  0  0  0  0  0
  188.2300  175.4420  137.1770 C   0  0  0  0  0  2  0  0  0  0  0  0
  183.3590  173.3400  137.3180 N   0  0  0  0  0  0  0  0  0  0  0  0
  183.5040  171.9300  134.6740 C   0  0  0  0  0  1  0  0  0  0  0  0
  180.3250  176.9240  137.0500 C   0  0  0  0  0  2  0  0  0  0  0  0
  179.6380  174.7250  136.0770 C   0  0  0  0  0  2  0  0  0  0  0  0
  183.8650  171.9820  137.1510 C   0  0  0  0  0  2  0  0  0  0  0  0
  186.8430  176.3210  135.1950 C   0  0  1  0  0  3  0  0  0  0  0  0
  186.0140  177.4100  135.7770 C   0  0  1  0  0  3  0  0  0  0  0  0
  180.8030  175.7070  136.2880 C   0  0  2  0  0  3  0  0  0  0  0  0
  184.0490  174.4940  137.4450 C   0  0  0  0  0  0  0  0  0  0  0  0
  181.5950  171.3530  136.1920 C   0  0  0  0  0  2  0  0  0  0  0  0
  182.7530  178.1100  137.4960 C   0  0  1  0  0  3  0  0  0  0  0  0
  183.5450  169.8350  135.9620 C   0  0  0  0  0  1  0  0  0  0  0  0
  186.7530  177.5890  134.5940 O   0  0  0  0  0  0  0  0  0  0  0  0
  189.1110  175.6330  134.9610 F   0  0  0  0  0  0  0  0  0  0  0  0
  185.5030  174.6490  137.4530 C   0  0  0  0  0  3  0  0  0  0  0  0
  181.2390  178.3950  136.4980 S   0  0  0  0  0  0  0  0  0  0  0  0
  181.2550  178.3510  139.4790 C   0  0  0  0  0  3  0  0  0  0  0  0
  182.5530  178.2060  138.9780 C   0  0  0  0  0  0  0  0  0  0  0  0
  183.6330  178.1440  139.8700 C   0  0  0  0  0  3  0  0  0  0  0  0
  184.7730  178.1570  142.3500 Cl  0  0  0  0  0  0  0  0  0  0  0  0
  182.1190  178.3810  141.7420 C   0  0  0  0  0  3  0  0  0  0  0  0
  183.4170  178.2320  141.2470 C   0  0  0  0  0  0  0  0  0  0  0  0
  181.0370  178.4400  140.8580 C   0  0  0  0  0  3  0  0  0  0  0  0
  188.0610  171.8630  136.0050 C   0  0  0  0  0  1  0  0  0  0  0  0
  188.7460  173.0240  136.7020 C   0  0  0  0  0  2  0  0  0  0  0  0
  1 27  2  0  0  0  0
  2 22  1  0  0  0  0
  2 17  1  0  0  0  0
  3  9  2  0  0  0  0
  3  7  1  0  0  0  0
  4  1  1  0  0  0  0
  4 12  1  0  0  0  0
  5 19  1  0  0  0  0
  6 11  1  6  0  0  0
  6  9  1  0  0  0  0
  7 21  2  0  0  0  0
  8 26  1  6  0  0  0
  8 12  1  0  0  0  0
  9 13  1  0  0  0  0
 10  5  1  6  0  0  0
 10  7  1  0  0  0  0
 10 23  1  0  0  0  0
 11 16  1  0  0  0  0
 13 21  1  0  0  0  0
 14  2  1  0  0  0  0
 17 13  1  0  0  0  0
 18 25  1  6  0  0  0
 18 19  1  0  0  0  0
 18  8  1  0  0  0  0
 19 25  1  6  0  0  0
 20 16  1  1  0  0  0
 20  3  1  0  0  0  0
 20 15  1  0  0  0  0
 21 27  1  0  0  0  0
 22  6  1  0  0  0  0
 23 30  1  1  0  0  0
 24  2  1  0  0  0  0
 28 15  1  0  0  0  0
 28 23  1  0  0  0  0
 29 35  1  0  0  0  0
 30 29  2  0  0  0  0
 30 31  1  0  0  0  0
 31 34  2  0  0  0  0
 34 33  1  0  0  0  0
 34 32  1  0  0  0  0
 35 33  2  0  0  0  0
 36 37  1  0  0  0  0
 37  4  1  0  0  0  0
M  END
>  <MODEL>
4

>  <REMARK>
 VINA RESULT:      -5.7      3.548      6.037
  Name = 
  2 active torsions:
  status: ('A' for Active; 'I' for Inactive)
    1  A    between atoms: N_4  and  C_37
    2  A    between atoms: C_23  and  C_30
                            x       y       z     vdW  Elec       q    Type
                         _______ _______ _______ _____ _____    ______ ____

>  <TORSDO>
F 2

$$$$
=
 OpenBabel11122411323D

 37 43  0  0  1  0  0  0  0  0999 V2000
  181.4370  178.7950  142.1860 C   0  0  0  0  0  3  0  0  0  0  0  0
  184.9340  178.9710  144.5340 C   0  0  0  0  0  0  0  0  0  0  0  0
  185.7370  177.9740  140.6690 C   0  0  0  0  0  0  0  0  0  0  0  0
  180.0880  179.1980  141.9200 N   0  0  0  0  0  0  0  0  0  0  0  0
  183.8050  180.2850  138.7180 S   0  0  0  0  0  0  0  0  0  0  0  0
  186.7850  177.9650  142.9810 C   0  0  1  0  0  3  0  0  0  0  0  0
  184.4390  178.0390  140.1840 C   0  0  0  0  0  0  0  0  0  0  0  0
  179.8600  180.5890  139.8630 C   0  0  2  0  0  3  0  0  0  0  0  0
  185.6280  177.8460  142.0370 C   0  0  0  0  0  0  0  0  0  0  0  0
  183.9780  178.4720  138.8180 C   0  0  2  0  0  3  0  0  0  0  0  0
  187.8770  178.8400  142.3610 C   0  0  0  0  0  2  0  0  0  0  0  0
  179.5710  179.2500  140.5500 C   0  0  0  0  0  2  0  0  0  0  0  0
  184.3440  177.8780  142.4220 N   0  0  0  0  0  0  0  0  0  0  0  0
  184.8460  180.3860  143.9870 C   0  0  0  0  0  1  0  0  0  0  0  0
  187.2490  177.6930  138.7280 C   0  0  0  0  0  2  0  0  0  0  0  0
  188.2060  178.3390  140.9460 C   0  0  0  0  0  2  0  0  0  0  0  0
  183.9300  178.0630  143.8080 C   0  0  0  0  0  2  0  0  0  0  0  0
  181.3450  180.9220  139.7260 C   0  0  1  0  0  3  0  0  0  0  0  0
  181.9870  180.2420  138.5690 C   0  0  1  0  0  3  0  0  0  0  0  0
  186.9940  178.4610  140.0060 C   0  0  2  0  0  3  0  0  0  0  0  0
  183.6080  177.9860  141.2940 C   0  0  0  0  0  0  0  0  0  0  0  0
  186.3770  178.4440  144.3900 C   0  0  0  0  0  2  0  0  0  0  0  0
  184.7490  177.8850  137.6270 C   0  0  1  0  0  3  0  0  0  0  0  0
  184.5770  179.0050  146.0040 C   0  0  0  0  0  1  0  0  0  0  0  0
  181.5310  181.5710  138.4920 O   0  0  0  0  0  0  0  0  0  0  0  0
  179.2110  181.6140  140.5270 F   0  0  0  0  0  0  0  0  0  0  0  0
  182.1870  178.3160  141.2040 C   0  0  0  0  0  3  0  0  0  0  0  0
  186.4410  178.5330  137.3330 S   0  0  0  0  0  0  0  0  0  0  0  0
  183.4220  175.7810  137.8520 C   0  0  0  0  0  3  0  0  0  0  0  0
  184.6040  176.4050  137.4360 C   0  0  0  0  0  0  0  0  0  0  0  0
  185.6170  175.6380  136.8430 C   0  0  0  0  0  3  0  0  0  0  0  0
  186.7260  173.3150  135.9360 Cl  0  0  0  0  0  0  0  0  0  0  0  0
  184.2720  173.6420  137.0940 C   0  0  0  0  0  3  0  0  0  0  0  0
  185.4520  174.2620  136.6740 C   0  0  0  0  0  0  0  0  0  0  0  0
  183.2560  174.4030  137.6830 C   0  0  0  0  0  3  0  0  0  0  0  0
  179.4960  178.8350  144.2580 C   0  0  0  0  0  1  0  0  0  0  0  0
  179.2500  179.6660  143.0120 C   0  0  0  0  0  2  0  0  0  0  0  0
  2 24  1  0  0  0  0
  3  9  2  0  0  0  0
  4  1  1  0  0  0  0
  4 37  1  0  0  0  0
  6 11  1  6  0  0  0
  6 22  1  0  0  0  0
  7  3  1  0  0  0  0
  7 21  2  0  0  0  0
  8 26  1  1  0  0  0
  8 12  1  0  0  0  0
  9 13  1  0  0  0  0
  9  6  1  0  0  0  0
 10  5  1  1  0  0  0
 10  7  1  0  0  0  0
 12  4  1  0  0  0  0
 13 17  1  0  0  0  0
 14  2  1  0  0  0  0
 16 11  1  0  0  0  0
 17  2  1  0  0  0  0
 18 25  1  6  0  0  0
 18  8  1  0  0  0  0
 19 25  1  6  0  0  0
 19  5  1  0  0  0  0
 19 18  1  0  0  0  0
 20 15  1  6  0  0  0
 20  3  1  0  0  0  0
 20 16  1  0  0  0  0
 21 13  1  0  0  0  0
 22  2  1  0  0  0  0
 23 30  1  1  0  0  0
 23 10  1  0  0  0  0
 27 21  1  0  0  0  0
 27  1  2  0  0  0  0
 28 23  1  0  0  0  0
 28 15  1  0  0  0  0
 30 29  2  0  0  0  0
 31 30  1  0  0  0  0
 32 34  1  0  0  0  0
 33 35  2  0  0  0  0
 34 31  2  0  0  0  0
 34 33  1  0  0  0  0
 35 29  1  0  0  0  0
 37 36  1  0  0  0  0
M  END
>  <MODEL>
5

>  <REMARK>
 VINA RESULT:      -4.7      4.736      7.586
  Name = 
  2 active torsions:
  status: ('A' for Active; 'I' for Inactive)
    1  A    between atoms: N_4  and  C_37
    2  A    between atoms: C_23  and  C_30
                            x       y       z     vdW  Elec       q    Type
                         _______ _______ _______ _____ _____    ______ ____

>  <TORSDO>
F 2

$$$$
=
 OpenBabel11122411323D

 37 43  0  0  1  0  0  0  0  0999 V2000
  186.5130  177.0180  136.4520 C   0  0  0  0  0  3  0  0  0  0  0  0
  188.2930  178.1100  140.1140 C   0  0  0  0  0  0  0  0  0  0  0  0
  184.2390  178.4600  140.2220 C   0  0  0  0  0  0  0  0  0  0  0  0
  186.5290  176.2760  135.2260 N   0  0  0  0  0  0  0  0  0  0  0  0
  183.0290  175.4290  138.7300 S   0  0  0  0  0  0  0  0  0  0  0  0
  186.3270  179.1710  141.4770 C   0  0  1  0  0  3  0  0  0  0  0  0
  183.9770  178.0090  138.9370 C   0  0  0  0  0  0  0  0  0  0  0  0
  184.7990  174.4830  135.1320 C   0  0  2  0  0  3  0  0  0  0  0  0
  185.5660  178.8340  140.2320 C   0  0  0  0  0  0  0  0  0  0  0  0
  182.7910  177.2160  138.4540 C   0  0  2  0  0  3  0  0  0  0  0  0
  185.7060  178.4580  142.6790 C   0  0  0  0  0  2  0  0  0  0  0  0
  185.2830  175.8340  134.5940 C   0  0  0  0  0  2  0  0  0  0  0  0
  186.1420  178.5930  139.0460 N   0  0  0  0  0  0  0  0  0  0  0  0
  188.0150  176.6310  140.3240 C   0  0  0  0  0  1  0  0  0  0  0  0
  182.0700  178.6760  141.3980 C   0  0  0  0  0  2  0  0  0  0  0  0
  184.1930  178.7240  142.7180 C   0  0  0  0  0  2  0  0  0  0  0  0
  187.5860  178.6030  138.8430 C   0  0  0  0  0  2  0  0  0  0  0  0
  184.4940  174.4720  136.6300 C   0  0  1  0  0  3  0  0  0  0  0  0
  183.1540  175.0310  136.9530 C   0  0  1  0  0  3  0  0  0  0  0  0
  183.4840  178.1450  141.4820 C   0  0  2  0  0  3  0  0  0  0  0  0
  185.1750  178.0960  138.2440 C   0  0  0  0  0  0  0  0  0  0  0  0
  187.8430  178.9080  141.3550 C   0  0  0  0  0  2  0  0  0  0  0  0
  181.4140  177.7090  138.9220 C   0  0  1  0  0  3  0  0  0  0  0  0
  189.7850  178.2940  139.9370 C   0  0  0  0  0  1  0  0  0  0  0  0
  183.3750  173.6460  136.8380 O   0  0  0  0  0  0  0  0  0  0  0  0
  185.7180  173.4950  134.8360 F   0  0  0  0  0  0  0  0  0  0  0  0
  185.3610  177.4450  136.9480 C   0  0  0  0  0  3  0  0  0  0  0  0
  180.9780  177.4120  140.6800 S   0  0  0  0  0  0  0  0  0  0  0  0
  181.2510  179.3550  137.0500 C   0  0  0  0  0  3  0  0  0  0  0  0
  180.9980  179.0490  138.3910 C   0  0  0  0  0  0  0  0  0  0  0  0
  180.3550  179.9930  139.2050 C   0  0  0  0  0  3  0  0  0  0  0  0
  179.1770  182.4030  139.7080 Cl  0  0  0  0  0  0  0  0  0  0  0  0
  180.2340  181.5330  137.3430 C   0  0  0  0  0  3  0  0  0  0  0  0
  179.9750  181.2310  138.6830 C   0  0  0  0  0  0  0  0  0  0  0  0
  180.8710  180.5940  136.5260 C   0  0  0  0  0  3  0  0  0  0  0  0
  188.7850  175.5170  135.7560 C   0  0  0  0  0  1  0  0  0  0  0  0
  187.8000  175.8620  134.6540 C   0  0  0  0  0  2  0  0  0  0  0  0
  1 27  2  0  0  0  0
  2 14  1  0  0  0  0
  2 22  1  0  0  0  0
  3  9  2  0  0  0  0
  3 20  1  0  0  0  0
  4  1  1  0  0  0  0
  6 22  1  6  0  0  0
  6 11  1  0  0  0  0
  7  3  1  0  0  0  0
  8 26  1  1  0  0  0
  8 18  1  0  0  0  0
  9  6  1  0  0  0  0
 10  5  1  1  0  0  0
 10 23  1  0  0  0  0
 10  7  1  0  0  0  0
 11 16  1  0  0  0  0
 12  8  1  0  0  0  0
 12  4  1  0  0  0  0
 13  9  1  0  0  0  0
 17 13  1  0  0  0  0
 17  2  1  0  0  0  0
 18 25  1  6  0  0  0
 18 19  1  0  0  0  0
 19 25  1  1  0  0  0
 19  5  1  0  0  0  0
 20 15  1  6  0  0  0
 20 16  1  0  0  0  0
 21  7  2  0  0  0  0
 21 13  1  0  0  0  0
 23 30  1  1  0  0  0
 23 28  1  0  0  0  0
 24  2  1  0  0  0  0
 27 21  1  0  0  0  0
 28 15  1  0  0  0  0
 29 30  1  0  0  0  0
 30 31  2  0  0  0  0
 33 34  2  0  0  0  0
 34 31  1  0  0  0  0
 34 32  1  0  0  0  0
 35 29  2  0  0  0  0
 35 33  1  0  0  0  0
 37  4  1  0  0  0  0
 37 36  1  0  0  0  0
M  END
>  <MODEL>
6

>  <REMARK>
 VINA RESULT:      -4.6      2.747      4.765
  Name = 
  2 active torsions:
  status: ('A' for Active; 'I' for Inactive)
    1  A    between atoms: N_4  and  C_37
    2  A    between atoms: C_23  and  C_30
                            x       y       z     vdW  Elec       q    Type
                         _______ _______ _______ _____ _____    ______ ____

>  <TORSDO>
F 2

$$$$
=
 OpenBabel11122411323D

 37 43  0  0  1  0  0  0  0  0999 V2000
  188.1510  174.9730  137.3050 C   0  0  0  0  0  3  0  0  0  0  0  0
  186.4700  171.3770  135.8850 C   0  0  0  0  0  0  0  0  0  0  0  0
  183.6620  174.2810  136.3900 C   0  0  0  0  0  0  0  0  0  0  0  0
  189.2630  175.8670  137.4360 N   0  0  0  0  0  0  0  0  0  0  0  0
  185.1230  177.2150  134.9280 S   0  0  0  0  0  0  0  0  0  0  0  0
  183.8900  171.7740  136.0690 C   0  0  1  0  0  3  0  0  0  0  0  0
  184.5130  175.2950  136.8080 C   0  0  0  0  0  0  0  0  0  0  0  0
  188.9700  177.9990  136.1750 C   0  0  2  0  0  3  0  0  0  0  0  0
  184.3470  173.1020  136.5900 C   0  0  0  0  0  0  0  0  0  0  0  0
  184.3990  176.7730  136.5420 C   0  0  2  0  0  3  0  0  0  0  0  0
  183.0170  171.9720  134.8280 C   0  0  0  0  0  2  0  0  0  0  0  0
  189.0600  177.3150  137.5440 C   0  0  0  0  0  2  0  0  0  0  0  0
  185.5810  173.3360  137.0580 N   0  0  0  0  0  0  0  0  0  0  0  0
  186.7770  172.1170  134.5940 C   0  0  0  0  0  1  0  0  0  0  0  0
  181.4280  175.2840  136.0200 C   0  0  0  0  0  2  0  0  0  0  0  0
  181.9130  172.9990  135.1260 C   0  0  0  0  0  2  0  0  0  0  0  0
  186.6300  172.3230  137.0840 C   0  0  0  0  0  2  0  0  0  0  0  0
  187.8140  177.5130  135.3000 C   0  0  1  0  0  3  0  0  0  0  0  0
  186.5160  178.1460  135.6520 C   0  0  1  0  0  3  0  0  0  0  0  0
  182.5000  174.3850  135.4440 C   0  0  2  0  0  3  0  0  0  0  0  0
  185.6880  174.6750  137.2040 C   0  0  0  0  0  0  0  0  0  0  0  0
  185.0470  170.7840  135.8220 C   0  0  0  0  0  2  0  0  0  0  0  0
  183.0110  177.3920  136.7580 C   0  0  1  0  0  3  0  0  0  0  0  0
  187.4590  170.2420  136.0320 C   0  0  0  0  0  1  0  0  0  0  0  0
  187.3120  178.6200  134.5940 O   0  0  0  0  0  0  0  0  0  0  0  0
  190.1630  177.8570  135.4920 F   0  0  0  0  0  0  0  0  0  0  0  0
  186.9160  175.4350  137.4350 C   0  0  0  0  0  3  0  0  0  0  0  0
  181.7230  177.0030  135.5090 S   0  0  0  0  0  0  0  0  0  0  0  0
  181.1770  177.1230  138.4320 C   0  0  0  0  0  3  0  0  0  0  0  0
  182.5250  177.3980  138.1770 C   0  0  0  0  0  0  0  0  0  0  0  0
  183.3910  177.6610  139.2480 C   0  0  0  0  0  3  0  0  0  0  0  0
  184.0000  177.9880  141.8880 Cl  0  0  0  0  0  0  0  0  0  0  0  0
  181.5630  177.3840  140.8100 C   0  0  0  0  0  3  0  0  0  0  0  0
  182.9110  177.6550  140.5600 C   0  0  0  0  0  0  0  0  0  0  0  0
  180.6960  177.1170  139.7460 C   0  0  0  0  0  3  0  0  0  0  0  0
  191.5020  176.0120  138.3900 C   0  0  0  0  0  1  0  0  0  0  0  0
  190.6180  175.3460  137.3520 C   0  0  0  0  0  2  0  0  0  0  0  0
  1 27  2  0  0  0  0
  1  4  1  0  0  0  0
  2 24  1  0  0  0  0
  2 17  1  0  0  0  0
  3  9  2  0  0  0  0
  3  7  1  0  0  0  0
  4 12  1  0  0  0  0
  5 19  1  0  0  0  0
  6 11  1  6  0  0  0
  6  9  1  0  0  0  0
  7 21  2  0  0  0  0
  8 26  1  6  0  0  0
  8 12  1  0  0  0  0
  9 13  1  0  0  0  0
 10  5  1  6  0  0  0
 10 23  1  0  0  0  0
 10  7  1  0  0  0  0
 11 16  1  0  0  0  0
 13 17  1  0  0  0  0
 13 21  1  0  0  0  0
 14  2  1  0  0  0  0
 18 25  1  6  0  0  0
 18 19  1  0  0  0  0
 18  8  1  0  0  0  0
 19 25  1  6  0  0  0
 20 16  1  1  0  0  0
 20 15  1  0  0  0  0
 20  3  1  0  0  0  0
 21 27  1  0  0  0  0
 22  2  1  0  0  0  0
 22  6  1  0  0  0  0
 23 30  1  1  0  0  0
 28 15  1  0  0  0  0
 28 23  1  0  0  0  0
 29 35  1  0  0  0  0
 30 29  2  0  0  0  0
 30 31  1  0  0  0  0
 31 34  2  0  0  0  0
 34 33  1  0  0  0  0
 34 32  1  0  0  0  0
 35 33  2  0  0  0  0
 37  4  1  0  0  0  0
 37 36  1  0  0  0  0
M  END
>  <MODEL>
7

>  <REMARK>
 VINA RESULT:      -4.3      3.948      6.649
  Name = 
  2 active torsions:
  status: ('A' for Active; 'I' for Inactive)
    1  A    between atoms: N_4  and  C_37
    2  A    between atoms: C_23  and  C_30
                            x       y       z     vdW  Elec       q    Type
                         _______ _______ _______ _____ _____    ______ ____

>  <TORSDO>
F 2

$$$$
=
 OpenBabel11122411323D

 37 43  0  0  1  0  0  0  0  0999 V2000
  186.8890  174.1240  136.8690 C   0  0  0  0  0  3  0  0  0  0  0  0
  182.9680  172.7890  136.0840 C   0  0  0  0  0  0  0  0  0  0  0  0
  183.0020  176.3250  138.1000 C   0  0  0  0  0  0  0  0  0  0  0  0
  188.2840  174.1660  136.5450 N   0  0  0  0  0  0  0  0  0  0  0  0
  185.4540  178.3160  136.3950 S   0  0  0  0  0  0  0  0  0  0  0  0
  181.4610  174.4050  137.4870 C   0  0  1  0  0  3  0  0  0  0  0  0
  184.3780  176.4940  138.1610 C   0  0  0  0  0  0  0  0  0  0  0  0
  189.0500  176.4070  135.7640 C   0  0  2  0  0  3  0  0  0  0  0  0
  182.7930  174.9860  137.8500 C   0  0  0  0  0  0  0  0  0  0  0  0
  185.1600  177.7800  138.1140 C   0  0  2  0  0  3  0  0  0  0  0  0
  180.5890  175.4720  136.8210 C   0  0  0  0  0  2  0  0  0  0  0  0
  189.0990  175.3410  136.8650 C   0  0  0  0  0  2  0  0  0  0  0  0
  183.9560  174.3360  137.7070 N   0  0  0  0  0  0  0  0  0  0  0  0
  183.2580  173.6580  134.8700 C   0  0  0  0  0  1  0  0  0  0  0  0
  181.9550  178.4190  138.9090 C   0  0  0  0  0  2  0  0  0  0  0  0
  180.5600  176.7380  137.6910 C   0  0  0  0  0  2  0  0  0  0  0  0
  184.0560  172.9930  137.1480 C   0  0  0  0  0  2  0  0  0  0  0  0
  187.6550  176.9700  135.4920 C   0  0  1  0  0  3  0  0  0  0  0  0
  187.2540  178.0210  136.4650 C   0  0  1  0  0  3  0  0  0  0  0  0
  181.9580  177.3680  137.8210 C   0  0  2  0  0  3  0  0  0  0  0  0
  184.9330  175.2490  137.9050 C   0  0  0  0  0  0  0  0  0  0  0  0
  181.5670  173.1190  136.6400 C   0  0  0  0  0  2  0  0  0  0  0  0
  184.6450  178.9170  139.0080 C   0  0  1  0  0  3  0  0  0  0  0  0
  182.9850  171.3400  135.6480 C   0  0  0  0  0  1  0  0  0  0  0  0
  187.7900  178.3410  135.2050 O   0  0  0  0  0  0  0  0  0  0  0  0
  189.5890  175.9090  134.5940 F   0  0  0  0  0  0  0  0  0  0  0  0
  186.3540  175.0900  137.6030 C   0  0  0  0  0  3  0  0  0  0  0  0
  183.1040  179.7590  138.4760 S   0  0  0  0  0  0  0  0  0  0  0  0
  186.0050  178.4430  141.0490 C   0  0  0  0  0  3  0  0  0  0  0  0
  184.7450  178.6670  140.4830 C   0  0  0  0  0  0  0  0  0  0  0  0
  183.6090  178.6650  141.3060 C   0  0  0  0  0  3  0  0  0  0  0  0
  182.3080  178.4300  143.6940 Cl  0  0  0  0  0  0  0  0  0  0  0  0
  184.9930  178.2070  143.2370 C   0  0  0  0  0  3  0  0  0  0  0  0
  183.7330  178.4340  142.6780 C   0  0  0  0  0  0  0  0  0  0  0  0
  186.1300  178.2120  142.4220 C   0  0  0  0  0  3  0  0  0  0  0  0
  190.3880  173.2320  135.7420 C   0  0  0  0  0  1  0  0  0  0  0  0
  188.8790  173.0750  135.7910 C   0  0  0  0  0  2  0  0  0  0  0  0
  1 27  2  0  0  0  0
  2 22  1  0  0  0  0
  2 17  1  0  0  0  0
  3  7  1  0  0  0  0
  4 12  1  0  0  0  0
  4  1  1  0  0  0  0
  5 19  1  0  0  0  0
  6 22  1  6  0  0  0
  6  9  1  0  0  0  0
  8 26  1  6  0  0  0
  8 12  1  0  0  0  0
  9  3  2  0  0  0  0
 10  5  1  6  0  0  0
 10  7  1  0  0  0  0
 10 23  1  0  0  0  0
 11  6  1  0  0  0  0
 11 16  1  0  0  0  0
 13  9  1  0  0  0  0
 13 21  1  0  0  0  0
 14  2  1  0  0  0  0
 17 13  1  0  0  0  0
 18 25  1  6  0  0  0
 18  8  1  0  0  0  0
 18 19  1  0  0  0  0
 19 25  1  6  0  0  0
 20 16  1  1  0  0  0
 20  3  1  0  0  0  0
 20 15  1  0  0  0  0
 21  7  2  0  0  0  0
 23 30  1  1  0  0  0
 24  2  1  0  0  0  0
 27 21  1  0  0  0  0
 28 15  1  0  0  0  0
 28 23  1  0  0  0  0
 29 35  1  0  0  0  0
 30 29  2  0  0  0  0
 30 31  1  0  0  0  0
 31 34  2  0  0  0  0
 34 33  1  0  0  0  0
 34 32  1  0  0  0  0
 35 33  2  0  0  0  0
 36 37  1  0  0  0  0
 37  4  1  0  0  0  0
M  END
>  <MODEL>
8

>  <REMARK>
 VINA RESULT:      -3.8      3.670      6.423
  Name = 
  2 active torsions:
  status: ('A' for Active; 'I' for Inactive)
    1  A    between atoms: N_4  and  C_37
    2  A    between atoms: C_23  and  C_30
                            x       y       z     vdW  Elec       q    Type
                         _______ _______ _______ _____ _____    ______ ____

>  <TORSDO>
F 2

$$$$
=
 OpenBabel11122411323D

 37 43  0  0  1  0  0  0  0  0999 V2000
  189.4290  174.2800  137.3250 C   0  0  0  0  0  3  0  0  0  0  0  0
  186.9130  171.2160  135.8940 C   0  0  0  0  0  0  0  0  0  0  0  0
  184.9120  174.7250  136.3970 C   0  0  0  0  0  0  0  0  0  0  0  0
  190.7270  174.8700  137.4610 N   0  0  0  0  0  0  0  0  0  0  0  0
  187.0580  177.2070  134.9450 S   0  0  0  0  0  0  0  0  0  0  0  0
  184.5110  172.2400  136.0710 C   0  0  1  0  0  3  0  0  0  0  0  0
  185.9850  175.4950  136.8190 C   0  0  0  0  0  0  0  0  0  0  0  0
  190.9760  177.0100  136.2040 C   0  0  2  0  0  3  0  0  0  0  0  0
  185.2820  173.4120  136.5960 C   0  0  0  0  0  0  0  0  0  0  0  0
  186.2430  176.9550  136.5570 C   0  0  2  0  0  3  0  0  0  0  0  0
  183.7180  172.6500  134.8290 C   0  0  0  0  0  2  0  0  0  0  0  0
  190.8890  176.3230  137.5710 C   0  0  0  0  0  2  0  0  0  0  0  0
  186.5340  173.3320  137.0690 N   0  0  0  0  0  0  0  0  0  0  0  0
  187.3980  171.8580  134.6040 C   0  0  0  0  0  1  0  0  0  0  0  0
  182.9970  176.2500  136.0240 C   0  0  0  0  0  2  0  0  0  0  0  0
  182.9030  173.9190  135.1260 C   0  0  0  0  0  2  0  0  0  0  0  0
  187.2990  172.0910  137.0950 C   0  0  0  0  0  2  0  0  0  0  0  0
  189.7390  176.8270  135.3250 C   0  0  1  0  0  3  0  0  0  0  0  0
  188.6370  177.7620  135.6750 C   0  0  1  0  0  3  0  0  0  0  0  0
  183.8150  175.1150  135.4480 C   0  0  2  0  0  3  0  0  0  0  0  0
  186.9690  174.6020  137.2170 C   0  0  0  0  0  0  0  0  0  0  0  0
  185.3870  170.9940  135.8260 C   0  0  0  0  0  2  0  0  0  0  0  0
  185.0510  177.9000  136.7700 C   0  0  1  0  0  3  0  0  0  0  0  0
  187.5890  169.8700  136.0400 C   0  0  0  0  0  1  0  0  0  0  0  0
  189.5290  178.0260  134.6200 O   0  0  0  0  0  0  0  0  0  0  0  0
  192.0990  176.5780  135.5240 F   0  0  0  0  0  0  0  0  0  0  0  0
  188.3460  175.0340  137.4540 C   0  0  0  0  0  3  0  0  0  0  0  0
  183.7110  177.8430  135.5170 S   0  0  0  0  0  0  0  0  0  0  0  0
  185.5030  178.3480  139.1850 C   0  0  0  0  0  3  0  0  0  0  0  0
  184.5770  178.0240  138.1880 C   0  0  0  0  0  0  0  0  0  0  0  0
  183.2310  177.8340  138.5310 C   0  0  0  0  0  3  0  0  0  0  0  0
  181.1350  177.7170  140.2760 Cl  0  0  0  0  0  0  0  0  0  0  0  0
  183.7470  178.2800  140.8520 C   0  0  0  0  0  3  0  0  0  0  0  0
  182.8180  177.9600  139.8590 C   0  0  0  0  0  0  0  0  0  0  0  0
  185.0900  178.4750  140.5150 C   0  0  0  0  0  3  0  0  0  0  0  0
  191.8870  173.2110  136.1010 C   0  0  0  0  0  1  0  0  0  0  0  0
  191.9110  174.0300  137.3790 C   0  0  0  0  0  2  0  0  0  0  0  0
  1 27  2  0  0  0  0
  1  4  1  0  0  0  0
  2 24  1  0  0  0  0
  2 17  1  0  0  0  0
  3  9  2  0  0  0  0
  3  7  1  0  0  0  0
  4 12  1  0  0  0  0
  5 19  1  0  0  0  0
  6 11  1  6  0  0  0
  6  9  1  0  0  0  0
  7 21  2  0  0  0  0
  8 26  1  6  0  0  0
  8 12  1  0  0  0  0
  9 13  1  0  0  0  0
 10  5  1  6  0  0  0
 10 23  1  0  0  0  0
 10  7  1  0  0  0  0
 11 16  1  0  0  0  0
 13 17  1  0  0  0  0
 13 21  1  0  0  0  0
 14  2  1  0  0  0  0
 18 25  1  6  0  0  0
 18 19  1  0  0  0  0
 18  8  1  0  0  0  0
 19 25  1  6  0  0  0
 20 16  1  1  0  0  0
 20 15  1  0  0  0  0
 20  3  1  0  0  0  0
 21 27  1  0  0  0  0
 22  2  1  0  0  0  0
 22  6  1  0  0  0  0
 23 30  1  1  0  0  0
 28 15  1  0  0  0  0
 28 23  1  0  0  0  0
 29 35  1  0  0  0  0
 30 31  1  0  0  0  0
 30 29  2  0  0  0  0
 31 34  2  0  0  0  0
 34 32  1  0  0  0  0
 34 33  1  0  0  0  0
 35 33  2  0  0  0  0
 36 37  1  0  0  0  0
 37  4  1  0  0  0  0
M  END
>  <MODEL>
9

>  <REMARK>
 VINA RESULT:      -3.4      4.329      7.172
  Name = 
  2 active torsions:
  status: ('A' for Active; 'I' for Inactive)
    1  A    between atoms: N_4  and  C_37
    2  A    between atoms: C_23  and  C_30
                            x       y       z     vdW  Elec       q    Type
                         _______ _______ _______ _____ _____    ______ ____

>  <TORSDO>
F 2

$$$$
