=
 OpenBabel11122410403D

 32 37  0  0  1  0  0  0  0  0999 V2000
  189.3440  176.2200  137.3170 O   0  0  0  0  0  0  0  0  0  0  0  0
  186.6550  178.6510  140.1230 N   0  0  1  0  0  0  0  0  0  0  0  0
  187.3700  177.5900  144.8780 C   0  0  0  0  0  3  0  0  0  0  0  0
  186.0650  178.0000  145.1510 C   0  0  0  0  0  3  0  0  0  0  0  0
  184.3090  178.9240  139.2590 C   0  0  1  0  0  3  0  0  0  0  0  0
  182.8370  178.7880  139.6710 C   0  0  1  0  0  3  0  0  0  0  0  0
  188.4950  178.7240  138.5110 C   0  0  1  0  0  3  0  0  0  0  0  0
  188.9630  178.2860  140.9540 C   0  0  0  0  0  2  0  0  0  0  0  0
  181.2820  178.4330  141.3320 C   0  0  2  0  0  3  0  0  0  0  0  0
  190.2760  177.0940  139.2850 C   0  0  0  0  0  3  0  0  0  0  0  0
  187.8320  177.5660  143.5590 C   0  0  0  0  0  3  0  0  0  0  0  0
  187.4860  177.8680  141.0710 C   0  0  1  0  0  3  0  0  0  0  0  0
  186.9980  177.9650  142.5030 C   0  0  0  0  0  0  0  0  0  0  0  0
  184.7470  178.7650  141.6760 C   0  0  2  0  0  3  0  0  0  0  0  0
  181.0080  177.4150  140.2270 C   0  0  0  0  0  2  0  0  0  0  0  0
  188.9590  177.2450  136.4280 C   0  0  0  0  0  2  0  0  0  0  0  0
  189.3860  178.0680  139.5410 C   0  0  0  0  0  0  0  0  0  0  0  0
  182.2060  177.4690  139.3090 C   0  0  0  0  0  2  0  0  0  0  0  0
  188.9400  178.6560  137.0460 C   0  0  0  0  0  2  0  0  0  0  0  0
  190.5620  176.5930  137.9050 C   0  0  1  0  0  3  0  0  0  0  0  0
  185.2160  178.3690  144.1060 C   0  0  0  0  0  3  0  0  0  0  0  0
  185.6640  178.3260  142.7790 C   0  0  0  0  0  0  0  0  0  0  0  0
  183.4580  178.2390  141.8540 O   0  0  0  0  0  0  0  0  0  0  0  0
  187.0560  178.2820  138.7550 C   0  0  0  0  0  2  0  0  0  0  0  0
  184.6100  180.2790  139.0940 O   0  0  0  0  0  1  0  0  0  0  0  0
  180.2290  179.5250  141.3040 C   0  0  0  0  0  1  0  0  0  0  0  0
  185.2390  178.2940  140.3100 C   0  0  2  0  0  3  0  0  0  0  0  0
  182.6060  179.0090  141.1100 N   0  0  1  0  0  0  0  0  0  0  0  0
  191.4900  175.3940  137.9870 C   0  0  0  0  0  2  0  0  0  0  0  0
  192.8740  175.7770  137.5940 C   0  0  0  0  0  0  0  0  0  0  0  0
  193.3920  175.2890  136.5550 O   0  0  0  0  0  0  0  0  0  0  0  0
  193.5830  176.6970  138.3550 O   0  0  0  0  0  1  0  0  0  0  0  0
  1 20  1  0  0  0  0
  2 24  1  6  0  0  0
  2 27  1  0  0  0  0
  2 12  1  0  0  0  0
  3  4  1  0  0  0  0
  5 25  1  1  0  0  0
  5  6  1  0  0  0  0
  5 27  1  0  0  0  0
  6 18  1  1  0  0  0
  6 28  1  0  0  0  0
  7 19  1  6  0  0  0
  7 24  1  0  0  0  0
  7 17  1  0  0  0  0
  9 26  1  6  0  0  0
 10 17  2  0  0  0  0
 11  3  2  0  0  0  0
 12  8  1  1  0  0  0
 12 13  1  0  0  0  0
 13 22  2  0  0  0  0
 13 11  1  0  0  0  0
 14 23  1  1  0  0  0
 14 22  1  0  0  0  0
 15  9  1  0  0  0  0
 16 19  1  0  0  0  0
 16  1  1  0  0  0  0
 17  8  1  0  0  0  0
 18 15  1  0  0  0  0
 20 29  1  1  0  0  0
 20 10  1  0  0  0  0
 21  4  2  0  0  0  0
 22 21  1  0  0  0  0
 27 14  1  0  0  0  0
 28  9  1  0  0  0  0
 28 23  1  0  0  0  0
 30 29  1  0  0  0  0
 30 32  1  0  0  0  0
 31 30  2  0  0  0  0
M  END
>  <MODEL>
1

>  <REMARK>
 VINA RESULT:      -9.6      0.000      0.000
  Name = 
  2 active torsions:
  status: ('A' for Active; 'I' for Inactive)
    1  A    between atoms: C_20  and  C_29
    2  A    between atoms: C_29  and  C_30
                            x       y       z     vdW  Elec       q    Type
                         _______ _______ _______ _____ _____    ______ ____

>  <TORSDO>
F 2

$$$$
=
 OpenBabel11122410403D

 32 37  0  0  1  0  0  0  0  0999 V2000
  189.3210  176.1650  143.8310 O   0  0  0  0  0  0  0  0  0  0  0  0
  190.5880  177.4530  139.6170 N   0  0  1  0  0  0  0  0  0  0  0  0
  186.7740  178.1130  136.5740 C   0  0  0  0  0  3  0  0  0  0  0  0
  187.6090  177.8400  135.4900 C   0  0  0  0  0  3  0  0  0  0  0  0
  192.6360  176.2520  138.7870 C   0  0  1  0  0  3  0  0  0  0  0  0
  193.1880  175.4790  137.5810 C   0  0  1  0  0  3  0  0  0  0  0  0
  190.4920  178.0700  141.9830 C   0  0  1  0  0  3  0  0  0  0  0  0
  188.5320  178.5500  140.4640 C   0  0  0  0  0  2  0  0  0  0  0  0
  192.9320  174.7890  135.4000 C   0  0  2  0  0  3  0  0  0  0  0  0
  188.0870  177.8440  142.7520 C   0  0  0  0  0  3  0  0  0  0  0  0
  187.2670  178.0100  137.8770 C   0  0  0  0  0  3  0  0  0  0  0  0
  189.1070  177.4720  139.5280 C   0  0  1  0  0  3  0  0  0  0  0  0
  188.6030  177.6490  138.1100 C   0  0  0  0  0  0  0  0  0  0  0  0
  190.8620  176.9380  137.2240 C   0  0  2  0  0  3  0  0  0  0  0  0
  193.1880  173.5430  136.2430 C   0  0  0  0  0  2  0  0  0  0  0  0
  190.6360  176.5890  144.1110 C   0  0  0  0  0  2  0  0  0  0  0  0
  188.9970  178.2450  141.8480 C   0  0  0  0  0  0  0  0  0  0  0  0
  193.0510  173.9830  137.6820 C   0  0  0  0  0  2  0  0  0  0  0  0
  191.0570  177.8880  143.3960 C   0  0  0  0  0  2  0  0  0  0  0  0
  188.4580  177.2450  144.0710 C   0  0  1  0  0  3  0  0  0  0  0  0
  188.9320  177.4490  135.7090 C   0  0  0  0  0  3  0  0  0  0  0  0
  189.4270  177.3220  137.0130 C   0  0  0  0  0  0  0  0  0  0  0  0
  191.2300  175.8830  136.3760 O   0  0  0  0  0  0  0  0  0  0  0  0
  190.9560  177.0230  140.9770 C   0  0  0  0  0  2  0  0  0  0  0  0
  193.2990  177.4780  138.8820 O   0  0  0  0  0  1  0  0  0  0  0  0
  194.1700  175.1330  134.5940 C   0  0  0  0  0  1  0  0  0  0  0  0
  191.1190  176.4730  138.6550 C   0  0  2  0  0  3  0  0  0  0  0  0
  192.5960  175.8920  136.2960 N   0  0  1  0  0  0  0  0  0  0  0  0
  187.2030  176.7610  144.7760 C   0  0  0  0  0  2  0  0  0  0  0  0
  186.8430  177.6790  145.8910 C   0  0  0  0  0  0  0  0  0  0  0  0
  187.4790  177.6320  146.9760 O   0  0  0  0  0  1  0  0  0  0  0  0
  185.8280  178.6120  145.7240 O   0  0  0  0  0  0  0  0  0  0  0  0
  1 20  1  0  0  0  0
  1 16  1  0  0  0  0
  2 24  1  1  0  0  0
  3 11  1  0  0  0  0
  4 21  1  0  0  0  0
  4  3  2  0  0  0  0
  5 25  1  6  0  0  0
  6 18  1  1  0  0  0
  6  5  1  0  0  0  0
  7 24  1  6  0  0  0
  7 19  1  0  0  0  0
  8 17  1  0  0  0  0
  9 26  1  1  0  0  0
  9 15  1  0  0  0  0
  9 28  1  0  0  0  0
 10 20  1  0  0  0  0
 11 13  2  0  0  0  0
 12  2  1  0  0  0  0
 12  8  1  1  0  0  0
 13 12  1  0  0  0  0
 14 23  1  6  0  0  0
 14 27  1  0  0  0  0
 15 18  1  0  0  0  0
 17  7  1  0  0  0  0
 17 10  2  0  0  0  0
 19 16  1  0  0  0  0
 20 29  1  6  0  0  0
 21 22  2  0  0  0  0
 22 14  1  0  0  0  0
 22 13  1  0  0  0  0
 27  5  1  0  0  0  0
 27  2  1  0  0  0  0
 28 23  1  0  0  0  0
 28  6  1  0  0  0  0
 29 30  1  0  0  0  0
 30 31  1  0  0  0  0
 32 30  2  0  0  0  0
M  END
>  <MODEL>
2

>  <REMARK>
 VINA RESULT:      -8.2      3.691      8.732
  Name = 
  2 active torsions:
  status: ('A' for Active; 'I' for Inactive)
    1  A    between atoms: C_20  and  C_29
    2  A    between atoms: C_29  and  C_30
                            x       y       z     vdW  Elec       q    Type
                         _______ _______ _______ _____ _____    ______ ____

>  <TORSDO>
F 2

$$$$
=
 OpenBabel11122410403D

 32 37  0  0  1  0  0  0  0  0999 V2000
  187.2930  176.7890  143.6230 O   0  0  0  0  0  0  0  0  0  0  0  0
  183.7290  178.4580  141.2720 N   0  0  1  0  0  0  0  0  0  0  0  0
  179.7300  179.1450  144.0610 C   0  0  0  0  0  3  0  0  0  0  0  0
  178.9310  179.0000  142.9270 C   0  0  0  0  0  3  0  0  0  0  0  0
  183.4790  177.4330  138.9890 C   0  0  1  0  0  3  0  0  0  0  0  0
  182.4510  176.7840  138.0520 C   0  0  1  0  0  3  0  0  0  0  0  0
  185.9900  178.8880  142.1030 C   0  0  1  0  0  3  0  0  0  0  0  0
  183.9860  179.3780  143.5600 C   0  0  0  0  0  2  0  0  0  0  0  0
  180.2570  176.2490  137.6050 C   0  0  2  0  0  3  0  0  0  0  0  0
  185.9930  178.4780  144.6050 C   0  0  0  0  0  3  0  0  0  0  0  0
  181.1130  178.9700  143.9670 C   0  0  0  0  0  3  0  0  0  0  0  0
  183.2030  178.4050  142.6590 C   0  0  1  0  0  3  0  0  0  0  0  0
  181.7120  178.6630  142.7350 C   0  0  0  0  0  0  0  0  0  0  0  0
  181.5010  178.1410  140.2710 C   0  0  2  0  0  3  0  0  0  0  0  0
  181.0660  174.9570  137.5180 C   0  0  0  0  0  2  0  0  0  0  0  0
  187.9760  177.2590  142.4830 C   0  0  0  0  0  2  0  0  0  0  0  0
  185.4250  178.9930  143.5020 C   0  0  0  0  0  0  0  0  0  0  0  0
  182.4220  175.2790  138.1030 C   0  0  0  0  0  2  0  0  0  0  0  0
  187.4940  178.6290  141.9670 C   0  0  0  0  0  2  0  0  0  0  0  0
  187.3260  177.8000  144.5950 C   0  0  1  0  0  3  0  0  0  0  0  0
  179.5110  178.6640  141.7030 C   0  0  0  0  0  3  0  0  0  0  0  0
  180.8940  178.4640  141.6040 C   0  0  0  0  0  0  0  0  0  0  0  0
  180.7420  177.1740  139.5940 O   0  0  0  0  0  0  0  0  0  0  0  0
  185.1100  177.9460  141.2890 C   0  0  0  0  0  2  0  0  0  0  0  0
  183.8370  178.6820  138.4740 O   0  0  0  0  0  1  0  0  0  0  0  0
  179.8770  176.7180  136.2130 C   0  0  0  0  0  1  0  0  0  0  0  0
  182.9140  177.5830  140.4120 C   0  0  2  0  0  3  0  0  0  0  0  0
  181.0740  177.2610  138.2690 N   0  0  1  0  0  0  0  0  0  0  0  0
  187.5960  177.1990  145.9630 C   0  0  0  0  0  2  0  0  0  0  0  0
  189.0410  177.3080  146.3060 C   0  0  0  0  0  0  0  0  0  0  0  0
  189.4860  176.7510  147.3440 O   0  0  0  0  0  1  0  0  0  0  0  0
  189.9060  177.9950  145.4640 O   0  0  0  0  0  0  0  0  0  0  0  0
  1 20  1  0  0  0  0
  2 24  1  1  0  0  0
  2 12  1  0  0  0  0
  4  3  2  0  0  0  0
  5 25  1  6  0  0  0
  5 27  1  0  0  0  0
  6 18  1  1  0  0  0
  6 28  1  0  0  0  0
  6  5  1  0  0  0  0
  7 24  1  1  0  0  0
  7 17  1  0  0  0  0
  9 26  1  6  0  0  0
  9 28  1  0  0  0  0
 11  3  1  0  0  0  0
 12 13  1  0  0  0  0
 12  8  1  1  0  0  0
 13 11  2  0  0  0  0
 14 23  1  1  0  0  0
 14 27  1  0  0  0  0
 14 22  1  0  0  0  0
 15  9  1  0  0  0  0
 15 18  1  0  0  0  0
 16  1  1  0  0  0  0
 17  8  1  0  0  0  0
 17 10  2  0  0  0  0
 19  7  1  0  0  0  0
 19 16  1  0  0  0  0
 20 10  1  0  0  0  0
 20 29  1  1  0  0  0
 21  4  1  0  0  0  0
 22 21  2  0  0  0  0
 22 13  1  0  0  0  0
 27  2  1  0  0  0  0
 28 23  1  0  0  0  0
 29 30  1  0  0  0  0
 30 31  1  0  0  0  0
 32 30  2  0  0  0  0
M  END
>  <MODEL>
3

>  <REMARK>
 VINA RESULT:      -8.0      3.808      5.870
  Name = 
  2 active torsions:
  status: ('A' for Active; 'I' for Inactive)
    1  A    between atoms: C_20  and  C_29
    2  A    between atoms: C_29  and  C_30
                            x       y       z     vdW  Elec       q    Type
                         _______ _______ _______ _____ _____    ______ ____

>  <TORSDO>
F 2

$$$$
=
 OpenBabel11122410403D

 32 37  0  0  1  0  0  0  0  0999 V2000
  190.9830  176.1230  144.2540 O   0  0  0  0  0  0  0  0  0  0  0  0
  188.1670  178.3670  141.4160 N   0  0  1  0  0  0  0  0  0  0  0  0
  183.5360  178.5890  143.0720 C   0  0  0  0  0  3  0  0  0  0  0  0
  183.0860  178.7120  141.7570 C   0  0  0  0  0  3  0  0  0  0  0  0
  188.5870  177.8520  138.9900 C   0  0  1  0  0  3  0  0  0  0  0  0
  187.8770  177.4490  137.6910 C   0  0  1  0  0  3  0  0  0  0  0  0
  190.0980  178.5370  142.9110 C   0  0  1  0  0  3  0  0  0  0  0  0
  187.7560  178.7780  143.8260 C   0  0  0  0  0  2  0  0  0  0  0  0
  185.9070  177.0940  136.5530 C   0  0  2  0  0  3  0  0  0  0  0  0
  189.4180  177.6110  145.1710 C   0  0  0  0  0  3  0  0  0  0  0  0
  184.8940  178.3910  143.3280 C   0  0  0  0  0  3  0  0  0  0  0  0
  187.2800  178.0430  142.5600 C   0  0  1  0  0  3  0  0  0  0  0  0
  185.8190  178.3280  142.2740 C   0  0  0  0  0  0  0  0  0  0  0  0
  186.3130  178.3430  139.7950 C   0  0  2  0  0  3  0  0  0  0  0  0
  186.7420  175.8230  136.4230 C   0  0  0  0  0  2  0  0  0  0  0  0
  191.9420  176.7980  143.4720 C   0  0  0  0  0  2  0  0  0  0  0  0
  189.1650  178.3660  144.0880 C   0  0  0  0  0  0  0  0  0  0  0  0
  187.8730  175.9690  137.4140 C   0  0  0  0  0  2  0  0  0  0  0  0
  191.5870  178.2610  143.1440 C   0  0  0  0  0  2  0  0  0  0  0  0
  190.7190  176.9060  145.3870 C   0  0  1  0  0  3  0  0  0  0  0  0
  183.9910  178.6200  140.6980 C   0  0  0  0  0  3  0  0  0  0  0  0
  185.3530  178.3990  140.9450 C   0  0  0  0  0  0  0  0  0  0  0  0
  185.7970  177.5650  138.7470 O   0  0  0  0  0  0  0  0  0  0  0  0
  189.5030  177.8170  141.7060 C   0  0  0  0  0  2  0  0  0  0  0  0
  189.0410  179.1680  138.8690 O   0  0  0  0  0  1  0  0  0  0  0  0
  185.9160  177.8570  135.2420 C   0  0  0  0  0  1  0  0  0  0  0  0
  187.6460  177.7200  140.2000 C   0  0  2  0  0  3  0  0  0  0  0  0
  186.4810  177.9170  137.6140 N   0  0  1  0  0  0  0  0  0  0  0  0
  190.6150  176.0230  146.6180 C   0  0  0  0  0  2  0  0  0  0  0  0
  191.8800  176.0680  147.4020 C   0  0  0  0  0  0  0  0  0  0  0  0
  192.7620  175.1870  147.2260 O   0  0  0  0  0  0  0  0  0  0  0  0
  192.1030  177.1000  148.3040 O   0  0  0  0  0  1  0  0  0  0  0  0
  1 20  1  0  0  0  0
  2 24  1  1  0  0  0
  2 12  1  0  0  0  0
  3 11  1  0  0  0  0
  4  3  2  0  0  0  0
  5 25  1  6  0  0  0
  5 27  1  0  0  0  0
  6 18  1  1  0  0  0
  6  5  1  0  0  0  0
  7 24  1  6  0  0  0
  7 19  1  0  0  0  0
  7 17  1  0  0  0  0
  8 17  1  0  0  0  0
  9 26  1  6  0  0  0
  9 28  1  0  0  0  0
 10 20  1  0  0  0  0
 12  8  1  1  0  0  0
 13 12  1  0  0  0  0
 13 11  2  0  0  0  0
 14 23  1  6  0  0  0
 14 27  1  0  0  0  0
 14 22  1  0  0  0  0
 15  9  1  0  0  0  0
 15 18  1  0  0  0  0
 16  1  1  0  0  0  0
 17 10  2  0  0  0  0
 19 16  1  0  0  0  0
 20 29  1  1  0  0  0
 21 22  2  0  0  0  0
 21  4  1  0  0  0  0
 22 13  1  0  0  0  0
 27  2  1  0  0  0  0
 28  6  1  0  0  0  0
 28 23  1  0  0  0  0
 29 30  1  0  0  0  0
 30 32  1  0  0  0  0
 31 30  2  0  0  0  0
M  END
>  <MODEL>
4

>  <REMARK>
 VINA RESULT:      -7.8      3.540      5.888
  Name = 
  2 active torsions:
  status: ('A' for Active; 'I' for Inactive)
    1  A    between atoms: C_20  and  C_29
    2  A    between atoms: C_29  and  C_30
                            x       y       z     vdW  Elec       q    Type
                         _______ _______ _______ _____ _____    ______ ____

>  <TORSDO>
F 2

$$$$
=
 OpenBabel11122410403D

 32 37  0  0  1  0  0  0  0  0999 V2000
  190.3420  176.1250  145.0600 O   0  0  0  0  0  0  0  0  0  0  0  0
  189.8120  177.7520  140.8080 N   0  0  1  0  0  0  0  0  0  0  0  0
  185.1220  178.7620  139.7000 C   0  0  0  0  0  3  0  0  0  0  0  0
  185.4130  178.5680  138.3490 C   0  0  0  0  0  3  0  0  0  0  0  0
  191.2570  176.5850  139.1120 C   0  0  1  0  0  3  0  0  0  0  0  0
  191.2130  175.9100  137.7340 C   0  0  1  0  0  3  0  0  0  0  0  0
  190.7440  178.1600  143.0330 C   0  0  1  0  0  3  0  0  0  0  0  0
  188.3610  178.8150  142.5140 C   0  0  0  0  0  2  0  0  0  0  0  0
  190.0340  175.4220  135.8180 C   0  0  2  0  0  3  0  0  0  0  0  0
  188.8690  177.9190  144.7210 C   0  0  0  0  0  3  0  0  0  0  0  0
  186.1050  178.5330  140.6650 C   0  0  0  0  0  3  0  0  0  0  0  0
  188.4310  177.8110  141.3490 C   0  0  1  0  0  3  0  0  0  0  0  0
  187.3940  178.1240  140.2900 C   0  0  0  0  0  0  0  0  0  0  0  0
  189.0360  177.4460  138.4900 C   0  0  2  0  0  3  0  0  0  0  0  0
  190.5460  174.1010  136.3850 C   0  0  0  0  0  2  0  0  0  0  0  0
  191.6760  176.4940  144.7920 C   0  0  0  0  0  2  0  0  0  0  0  0
  189.3400  178.3780  143.5500 C   0  0  0  0  0  0  0  0  0  0  0  0
  191.0460  174.4140  137.7760 C   0  0  0  0  0  2  0  0  0  0  0  0
  191.8340  177.8410  144.0620 C   0  0  0  0  0  2  0  0  0  0  0  0
  189.7200  177.1970  145.7170 C   0  0  1  0  0  3  0  0  0  0  0  0
  186.6820  178.1300  137.9650 C   0  0  0  0  0  3  0  0  0  0  0  0
  187.6680  177.8770  138.9280 C   0  0  0  0  0  0  0  0  0  0  0  0
  188.9570  176.4620  137.4930 O   0  0  0  0  0  0  0  0  0  0  0  0
  190.6880  177.1960  141.8540 C   0  0  0  0  0  2  0  0  0  0  0  0
  191.9680  177.7840  139.0070 O   0  0  0  0  0  1  0  0  0  0  0  0
  190.8420  175.8090  134.5940 C   0  0  0  0  0  1  0  0  0  0  0  0
  189.8380  176.8500  139.6440 C   0  0  2  0  0  3  0  0  0  0  0  0
  190.1640  176.4480  136.8490 N   0  0  1  0  0  0  0  0  0  0  0  0
  188.8460  176.6800  146.8460 C   0  0  0  0  0  2  0  0  0  0  0  0
  188.3460  177.8100  147.6790 C   0  0  0  0  0  0  0  0  0  0  0  0
  189.1370  178.4300  148.4370 O   0  0  0  0  0  1  0  0  0  0  0  0
  187.0170  178.2010  147.5940 O   0  0  0  0  0  0  0  0  0  0  0  0
  1 20  1  0  0  0  0
  2 12  1  0  0  0  0
  2 24  1  1  0  0  0
  3 11  1  0  0  0  0
  4  3  2  0  0  0  0
  5 25  1  6  0  0  0
  5 27  1  0  0  0  0
  6 18  1  1  0  0  0
  6  5  1  0  0  0  0
  7 24  1  6  0  0  0
  7 17  1  0  0  0  0
  7 19  1  0  0  0  0
  8 17  1  0  0  0  0
  9 26  1  6  0  0  0
  9 15  1  0  0  0  0
  9 28  1  0  0  0  0
 10 20  1  0  0  0  0
 12  8  1  1  0  0  0
 13 11  2  0  0  0  0
 13 12  1  0  0  0  0
 14 23  1  6  0  0  0
 14 22  1  0  0  0  0
 14 27  1  0  0  0  0
 15 18  1  0  0  0  0
 16  1  1  0  0  0  0
 17 10  2  0  0  0  0
 19 16  1  0  0  0  0
 20 29  1  1  0  0  0
 21  4  1  0  0  0  0
 21 22  2  0  0  0  0
 22 13  1  0  0  0  0
 27  2  1  0  0  0  0
 28 23  1  0  0  0  0
 28  6  1  0  0  0  0
 29 30  1  0  0  0  0
 30 31  1  0  0  0  0
 32 30  2  0  0  0  0
M  END
>  <MODEL>
5

>  <REMARK>
 VINA RESULT:      -7.6      3.197      7.749
  Name = 
  2 active torsions:
  status: ('A' for Active; 'I' for Inactive)
    1  A    between atoms: C_20  and  C_29
    2  A    between atoms: C_29  and  C_30
                            x       y       z     vdW  Elec       q    Type
                         _______ _______ _______ _____ _____    ______ ____

>  <TORSDO>
F 2

$$$$
=
 OpenBabel11122410403D

 32 37  0  0  1  0  0  0  0  0999 V2000
  189.8470  176.0850  141.4180 O   0  0  0  0  0  0  0  0  0  0  0  0
  186.0320  178.5480  140.7880 N   0  0  1  0  0  0  0  0  0  0  0  0
  183.2220  178.8150  144.8230 C   0  0  0  0  0  3  0  0  0  0  0  0
  182.1030  179.0170  144.0130 C   0  0  0  0  0  3  0  0  0  0  0  0
  184.9490  178.1450  138.5540 C   0  0  1  0  0  3  0  0  0  0  0  0
  183.6000  177.8290  137.8960 C   0  0  1  0  0  3  0  0  0  0  0  0
  188.4770  178.5880  140.8950 C   0  0  1  0  0  3  0  0  0  0  0  0
  187.1080  178.8470  143.0020 C   0  0  0  0  0  2  0  0  0  0  0  0
  181.3190  177.5870  138.0980 C   0  0  2  0  0  3  0  0  0  0  0  0
  189.1780  177.5690  143.1080 C   0  0  0  0  0  3  0  0  0  0  0  0
  184.4670  178.5660  144.2410 C   0  0  0  0  0  3  0  0  0  0  0  0
  185.9520  178.1910  142.2270 C   0  0  1  0  0  3  0  0  0  0  0  0
  184.6110  178.5310  142.8450 C   0  0  0  0  0  0  0  0  0  0  0  0
  183.5840  178.6580  140.5380 C   0  0  2  0  0  3  0  0  0  0  0  0
  181.8590  176.3010  137.4770 C   0  0  0  0  0  2  0  0  0  0  0  0
  190.2140  176.7730  140.2430 C   0  0  0  0  0  2  0  0  0  0  0  0
  188.3860  178.3830  142.3910 C   0  0  0  0  0  0  0  0  0  0  0  0
  183.3600  176.3650  137.6340 C   0  0  0  0  0  2  0  0  0  0  0  0
  189.8110  178.2600  140.2170 C   0  0  0  0  0  2  0  0  0  0  0  0
  190.3270  176.8170  142.5140 C   0  0  1  0  0  3  0  0  0  0  0  0
  182.2260  178.9540  142.6240 C   0  0  0  0  0  3  0  0  0  0  0  0
  183.4680  178.6820  142.0330 C   0  0  0  0  0  0  0  0  0  0  0  0
  182.5190  177.9490  139.9620 O   0  0  0  0  0  0  0  0  0  0  0  0
  187.2600  177.9470  140.2390 C   0  0  0  0  0  2  0  0  0  0  0  0
  185.3180  179.4530  138.2270 O   0  0  0  0  0  1  0  0  0  0  0  0
  180.6100  178.4150  137.0430 C   0  0  0  0  0  1  0  0  0  0  0  0
  184.8730  177.9780  140.0820 C   0  0  2  0  0  3  0  0  0  0  0  0
  182.4420  178.3380  138.6520 N   0  0  1  0  0  0  0  0  0  0  0  0
  190.9050  175.8760  143.5560 C   0  0  0  0  0  2  0  0  0  0  0  0
  191.5870  176.6450  144.6340 C   0  0  0  0  0  0  0  0  0  0  0  0
  191.8250  177.8710  144.4780 O   0  0  0  0  0  0  0  0  0  0  0  0
  191.9300  176.0190  145.8250 O   0  0  0  0  0  1  0  0  0  0  0  0
  1 20  1  0  0  0  0
  2 24  1  6  0  0  0
  2 12  1  0  0  0  0
  4  3  2  0  0  0  0
  5 25  1  1  0  0  0
  5 27  1  0  0  0  0
  6 18  1  1  0  0  0
  6  5  1  0  0  0  0
  6 28  1  0  0  0  0
  7 19  1  6  0  0  0
  7 17  1  0  0  0  0
  9 26  1  6  0  0  0
  9 28  1  0  0  0  0
 11  3  1  0  0  0  0
 12 13  1  0  0  0  0
 12  8  1  1  0  0  0
 13 11  2  0  0  0  0
 14 23  1  6  0  0  0
 14 22  1  0  0  0  0
 15 18  1  0  0  0  0
 15  9  1  0  0  0  0
 16  1  1  0  0  0  0
 17  8  1  0  0  0  0
 17 10  2  0  0  0  0
 19 16  1  0  0  0  0
 20 10  1  0  0  0  0
 20 29  1  1  0  0  0
 21  4  1  0  0  0  0
 22 21  2  0  0  0  0
 22 13  1  0  0  0  0
 24  7  1  0  0  0  0
 27 14  1  0  0  0  0
 27  2  1  0  0  0  0
 28 23  1  0  0  0  0
 29 30  1  0  0  0  0
 30 32  1  0  0  0  0
 31 30  2  0  0  0  0
M  END
>  <MODEL>
6

>  <REMARK>
 VINA RESULT:      -7.2      2.634      3.818
  Name = 
  2 active torsions:
  status: ('A' for Active; 'I' for Inactive)
    1  A    between atoms: C_20  and  C_29
    2  A    between atoms: C_29  and  C_30
                            x       y       z     vdW  Elec       q    Type
                         _______ _______ _______ _____ _____    ______ ____

>  <TORSDO>
F 2

$$$$
=
 OpenBabel11122410403D

 32 37  0  0  1  0  0  0  0  0999 V2000
  185.0590  174.7020  136.7530 O   0  0  0  0  0  0  0  0  0  0  0  0
  188.6200  177.1610  138.2640 N   0  0  1  0  0  0  0  0  0  0  0  0
  192.9090  175.7530  136.2970 C   0  0  0  0  0  3  0  0  0  0  0  0
  193.5710  176.2480  137.4210 C   0  0  0  0  0  3  0  0  0  0  0  0
  188.4990  177.6750  140.7230 C   0  0  1  0  0  3  0  0  0  0  0  0
  189.3230  177.6310  142.0170 C   0  0  1  0  0  3  0  0  0  0  0  0
  186.5390  177.1870  136.9760 C   0  0  1  0  0  3  0  0  0  0  0  0
  188.7170  176.5620  135.8600 C   0  0  0  0  0  2  0  0  0  0  0  0
  191.3560  177.3000  143.0460 C   0  0  2  0  0  3  0  0  0  0  0  0
  186.6930  175.3750  135.2090 C   0  0  0  0  0  3  0  0  0  0  0  0
  191.5130  175.7740  136.2450 C   0  0  0  0  0  3  0  0  0  0  0  0
  189.2520  176.2570  137.2710 C   0  0  1  0  0  3  0  0  0  0  0  0
  190.7660  176.3040  137.3080 C   0  0  0  0  0  0  0  0  0  0  0  0
  190.6720  177.3310  139.6160 C   0  0  2  0  0  3  0  0  0  0  0  0
  190.3470  176.3780  143.7260 C   0  0  0  0  0  2  0  0  0  0  0  0
  184.3610  175.8070  137.2820 C   0  0  0  0  0  2  0  0  0  0  0  0
  187.2360  176.3980  135.8890 C   0  0  0  0  0  0  0  0  0  0  0  0
  189.1170  176.3920  142.8480 C   0  0  0  0  0  2  0  0  0  0  0  0
  185.0070  177.1740  136.9850 C   0  0  0  0  0  2  0  0  0  0  0  0
  185.2730  174.9390  135.3870 C   0  0  1  0  0  3  0  0  0  0  0  0
  192.8380  176.7490  138.4990 C   0  0  0  0  0  3  0  0  0  0  0  0
  191.4370  176.7530  138.4640 C   0  0  0  0  0  0  0  0  0  0  0  0
  191.2030  176.8990  140.8410 O   0  0  0  0  0  0  0  0  0  0  0  0
  187.1820  176.8470  138.3160 C   0  0  0  0  0  2  0  0  0  0  0  0
  188.3010  179.0080  140.3560 O   0  0  0  0  0  1  0  0  0  0  0  0
  191.6810  178.4720  143.9530 C   0  0  0  0  0  1  0  0  0  0  0  0
  189.2050  176.9080  139.5910 C   0  0  2  0  0  3  0  0  0  0  0  0
  190.7730  177.7800  141.7960 N   0  0  1  0  0  0  0  0  0  0  0  0
  185.0340  173.6660  134.5940 C   0  0  0  0  0  2  0  0  0  0  0  0
  185.1620  172.4710  135.4730 C   0  0  0  0  0  0  0  0  0  0  0  0
  184.1290  171.8960  135.9070 O   0  0  0  0  0  1  0  0  0  0  0  0
  186.4180  171.9700  135.7880 O   0  0  0  0  0  0  0  0  0  0  0  0
  1 16  1  0  0  0  0
  2 24  1  1  0  0  0
  2 27  1  0  0  0  0
  3  4  1  0  0  0  0
  4 21  2  0  0  0  0
  5 25  1  6  0  0  0
  5  6  1  0  0  0  0
  6 18  1  6  0  0  0
  7 19  1  1  0  0  0
  7 24  1  0  0  0  0
  8 17  1  0  0  0  0
  9 15  1  0  0  0  0
  9 26  1  1  0  0  0
 10 20  1  0  0  0  0
 10 17  2  0  0  0  0
 11  3  2  0  0  0  0
 11 13  1  0  0  0  0
 12  8  1  6  0  0  0
 12 13  1  0  0  0  0
 12  2  1  0  0  0  0
 13 22  2  0  0  0  0
 14 22  1  6  0  0  0
 14 23  1  0  0  0  0
 17  7  1  0  0  0  0
 18 15  1  0  0  0  0
 19 16  1  0  0  0  0
 20 29  1  6  0  0  0
 20  1  1  0  0  0  0
 22 21  1  0  0  0  0
 23 28  1  0  0  0  0
 27 14  1  0  0  0  0
 27  5  1  0  0  0  0
 28  6  1  0  0  0  0
 28  9  1  0  0  0  0
 29 30  1  0  0  0  0
 30 32  2  0  0  0  0
 30 31  1  0  0  0  0
M  END
>  <MODEL>
7

>  <REMARK>
 VINA RESULT:      -7.1      3.563      7.297
  Name = 
  2 active torsions:
  status: ('A' for Active; 'I' for Inactive)
    1  A    between atoms: C_20  and  C_29
    2  A    between atoms: C_29  and  C_30
                            x       y       z     vdW  Elec       q    Type
                         _______ _______ _______ _____ _____    ______ ____

>  <TORSDO>
F 2

$$$$
=
 OpenBabel11122410403D

 32 37  0  0  1  0  0  0  0  0999 V2000
  184.0680  175.8620  137.5460 O   0  0  0  0  0  0  0  0  0  0  0  0
  188.0380  177.7300  138.8750 N   0  0  1  0  0  0  0  0  0  0  0  0
  191.9290  175.9000  136.4770 C   0  0  0  0  0  3  0  0  0  0  0  0
  192.7380  176.2300  137.5650 C   0  0  0  0  0  3  0  0  0  0  0  0
  188.1790  178.0960  141.3590 C   0  0  1  0  0  3  0  0  0  0  0  0
  189.0880  177.8620  142.5740 C   0  0  1  0  0  3  0  0  0  0  0  0
  185.8860  178.1110  137.7730 C   0  0  1  0  0  3  0  0  0  0  0  0
  187.8650  177.2790  136.4430 C   0  0  0  0  0  2  0  0  0  0  0  0
  191.1300  177.2010  143.4060 C   0  0  2  0  0  3  0  0  0  0  0  0
  185.6530  176.4120  135.9060 C   0  0  0  0  0  3  0  0  0  0  0  0
  190.5490  176.1070  136.5450 C   0  0  0  0  0  3  0  0  0  0  0  0
  188.4610  176.8160  137.7850 C   0  0  1  0  0  3  0  0  0  0  0  0
  189.9650  176.6610  137.6950 C   0  0  0  0  0  0  0  0  0  0  0  0
  190.1920  177.5420  140.0540 C   0  0  2  0  0  3  0  0  0  0  0  0
  190.0600  176.3780  144.1200 C   0  0  0  0  0  2  0  0  0  0  0  0
  183.5700  177.0130  138.1900 C   0  0  0  0  0  2  0  0  0  0  0  0
  186.3820  177.3100  136.5910 C   0  0  0  0  0  0  0  0  0  0  0  0
  188.7800  176.6100  143.3520 C   0  0  0  0  0  2  0  0  0  0  0  0
  184.3710  178.3000  137.9130 C   0  0  0  0  0  2  0  0  0  0  0  0
  184.2060  176.1560  136.1810 C   0  0  1  0  0  3  0  0  0  0  0  0
  192.1660  176.7530  138.7260 C   0  0  0  0  0  3  0  0  0  0  0  0
  190.7800  176.9430  138.8110 C   0  0  0  0  0  0  0  0  0  0  0  0
  190.7530  176.9660  141.2040 O   0  0  0  0  0  0  0  0  0  0  0  0
  186.5780  177.6050  139.0330 C   0  0  0  0  0  2  0  0  0  0  0  0
  188.1360  179.4650  141.0820 O   0  0  0  0  0  1  0  0  0  0  0  0
  191.6800  178.2600  144.3430 C   0  0  0  0  0  1  0  0  0  0  0  0
  188.6840  177.3180  140.1320 C   0  0  2  0  0  3  0  0  0  0  0  0
  190.5230  177.8330  142.2380 N   0  0  1  0  0  0  0  0  0  0  0  0
  183.7340  174.9790  135.3450 C   0  0  0  0  0  2  0  0  0  0  0  0
  183.6760  173.7420  136.1710 C   0  0  0  0  0  0  0  0  0  0  0  0
  182.5760  173.3520  136.6450 O   0  0  0  0  0  1  0  0  0  0  0  0
  184.8280  172.9980  136.3920 O   0  0  0  0  0  0  0  0  0  0  0  0
  1 16  1  0  0  0  0
  2 24  1  1  0  0  0
  2 27  1  0  0  0  0
  3 11  2  0  0  0  0
  3  4  1  0  0  0  0
  4 21  2  0  0  0  0
  5 25  1  6  0  0  0
  5  6  1  0  0  0  0
  6 18  1  6  0  0  0
  7 19  1  1  0  0  0
  7 24  1  0  0  0  0
  8 17  1  0  0  0  0
  9 15  1  0  0  0  0
  9 26  1  1  0  0  0
 10 20  1  0  0  0  0
 10 17  2  0  0  0  0
 11 13  1  0  0  0  0
 12  8  1  6  0  0  0
 12  2  1  0  0  0  0
 13 12  1  0  0  0  0
 13 22  2  0  0  0  0
 14 22  1  6  0  0  0
 14 27  1  0  0  0  0
 14 23  1  0  0  0  0
 17  7  1  0  0  0  0
 18 15  1  0  0  0  0
 19 16  1  0  0  0  0
 20 29  1  6  0  0  0
 20  1  1  0  0  0  0
 21 22  1  0  0  0  0
 23 28  1  0  0  0  0
 27  5  1  0  0  0  0
 28  6  1  0  0  0  0
 28  9  1  0  0  0  0
 29 30  1  0  0  0  0
 30 32  2  0  0  0  0
 30 31  1  0  0  0  0
M  END
>  <MODEL>
8

>  <REMARK>
 VINA RESULT:      -6.9      3.103      7.223
  Name = 
  2 active torsions:
  status: ('A' for Active; 'I' for Inactive)
    1  A    between atoms: C_20  and  C_29
    2  A    between atoms: C_29  and  C_30
                            x       y       z     vdW  Elec       q    Type
                         _______ _______ _______ _____ _____    ______ ____

>  <TORSDO>
F 2

$$$$
=
 OpenBabel11122410403D

 32 37  0  0  1  0  0  0  0  0999 V2000
  181.0340  176.5630  139.8230 O   0  0  0  0  0  0  0  0  0  0  0  0
  185.1260  178.6260  139.9560 N   0  0  1  0  0  0  0  0  0  0  0  0
  187.8310  177.8040  135.9250 C   0  0  0  0  0  3  0  0  0  0  0  0
  188.9880  178.0170  136.6750 C   0  0  0  0  0  3  0  0  0  0  0  0
  186.2180  178.5180  142.2190 C   0  0  1  0  0  3  0  0  0  0  0  0
  187.5400  178.1690  142.9160 C   0  0  1  0  0  3  0  0  0  0  0  0
  182.7000  178.9370  139.8590 C   0  0  1  0  0  3  0  0  0  0  0  0
  184.0290  178.6370  137.7320 C   0  0  0  0  0  2  0  0  0  0  0  0
  189.7710  177.6240  142.7480 C   0  0  2  0  0  3  0  0  0  0  0  0
  181.8220  177.6170  137.8810 C   0  0  0  0  0  3  0  0  0  0  0  0
  186.5830  177.8180  136.5510 C   0  0  0  0  0  3  0  0  0  0  0  0
  185.1230  178.0020  138.6090 C   0  0  1  0  0  3  0  0  0  0  0  0
  186.4760  178.0590  137.9300 C   0  0  0  0  0  0  0  0  0  0  0  0
  187.5760  178.4870  140.1650 C   0  0  2  0  0  3  0  0  0  0  0  0
  189.1030  176.5490  143.6020 C   0  0  0  0  0  2  0  0  0  0  0  0
  180.7830  177.4950  140.8510 C   0  0  0  0  0  2  0  0  0  0  0  0
  182.7230  178.4500  138.4280 C   0  0  0  0  0  0  0  0  0  0  0  0
  187.6160  176.7620  143.4460 C   0  0  0  0  0  2  0  0  0  0  0  0
  181.3570  178.9020  140.5950 C   0  0  0  0  0  2  0  0  0  0  0  0
  180.6120  177.1310  138.6120 C   0  0  1  0  0  3  0  0  0  0  0  0
  188.8990  178.2270  138.0520 C   0  0  0  0  0  3  0  0  0  0  0  0
  187.6520  178.2200  138.6910 C   0  0  0  0  0  0  0  0  0  0  0  0
  188.5680  177.7750  140.8570 O   0  0  0  0  0  0  0  0  0  0  0  0
  183.8530  178.2880  140.6160 C   0  0  0  0  0  2  0  0  0  0  0  0
  186.0130  179.8980  142.2980 O   0  0  0  0  0  1  0  0  0  0  0  0
  190.6010  178.5420  143.6250 C   0  0  0  0  0  1  0  0  0  0  0  0
  186.2310  178.0620  140.7490 C   0  0  2  0  0  3  0  0  0  0  0  0
  188.7270  178.3880  142.0700 N   0  0  1  0  0  0  0  0  0  0  0  0
  179.8980  176.0890  137.7690 C   0  0  0  0  0  2  0  0  0  0  0  0
  180.3500  174.7190  138.1390 C   0  0  0  0  0  0  0  0  0  0  0  0
  181.4000  174.2440  137.6320 O   0  0  0  0  0  0  0  0  0  0  0  0
  179.6340  173.9780  139.0700 O   0  0  0  0  0  1  0  0  0  0  0  0
  1 16  1  0  0  0  0
  2 24  1  1  0  0  0
  2 27  1  0  0  0  0
  3 11  2  0  0  0  0
  3  4  1  0  0  0  0
  4 21  2  0  0  0  0
  5 25  1  6  0  0  0
  5  6  1  0  0  0  0
  6 18  1  6  0  0  0
  7 19  1  1  0  0  0
  7 24  1  0  0  0  0
  8 17  1  0  0  0  0
  9 15  1  0  0  0  0
  9 26  1  1  0  0  0
 10 17  2  0  0  0  0
 10 20  1  0  0  0  0
 11 13  1  0  0  0  0
 12  8  1  6  0  0  0
 12  2  1  0  0  0  0
 13 12  1  0  0  0  0
 13 22  2  0  0  0  0
 14 22  1  6  0  0  0
 14 27  1  0  0  0  0
 14 23  1  0  0  0  0
 17  7  1  0  0  0  0
 18 15  1  0  0  0  0
 19 16  1  0  0  0  0
 20 29  1  6  0  0  0
 20  1  1  0  0  0  0
 21 22  1  0  0  0  0
 23 28  1  0  0  0  0
 27  5  1  0  0  0  0
 28  9  1  0  0  0  0
 28  6  1  0  0  0  0
 29 30  1  0  0  0  0
 30 32  1  0  0  0  0
 31 30  2  0  0  0  0
M  END
>  <MODEL>
9

>  <REMARK>
 VINA RESULT:      -6.8      2.558      7.794
  Name = 
  2 active torsions:
  status: ('A' for Active; 'I' for Inactive)
    1  A    between atoms: C_20  and  C_29
    2  A    between atoms: C_29  and  C_30
                            x       y       z     vdW  Elec       q    Type
                         _______ _______ _______ _____ _____    ______ ____

>  <TORSDO>
F 2

$$$$
