=
 OpenBabel11122410283D

 30 35  0  0  1  0  0  0  0  0999 V2000
  185.9960  178.3790  142.0310 C   0  0  0  0  0  0  0  0  0  0  0  0
  183.5490  178.7710  141.9200 C   0  0  0  0  0  0  0  0  0  0  0  0
  185.9130  178.1830  146.1390 N   0  0  0  0  0  2  0  0  0  0  0  0
  187.1620  178.1130  142.7970 C   0  0  0  0  0  0  0  0  0  0  0  0
  186.0960  178.4580  140.6370 O   0  0  0  0  0  0  0  0  0  0  0  0
  189.5560  177.7470  140.0780 O   0  0  0  0  0  0  0  0  0  0  0  0
  190.1340  177.9610  143.8030 C   0  0  1  0  0  3  0  0  0  0  0  0
  188.4870  178.0090  140.6940 C   0  0  0  0  0  0  0  0  0  0  0  0
  189.4400  178.0260  145.1550 C   0  0  2  0  0  3  0  0  0  0  0  0
  187.2400  178.0180  146.3250 C   0  0  0  0  0  0  0  0  0  0  0  0
  187.3410  178.6480  139.9610 C   0  0  1  0  0  3  0  0  0  0  0  0
  188.3810  177.7700  142.1060 N   0  0  0  0  0  0  0  0  0  0  0  0
  182.3240  178.9160  142.5780 C   0  0  0  0  0  3  0  0  0  0  0  0
  190.0950  176.9520  145.9980 C   0  0  0  0  0  2  0  0  0  0  0  0
  191.5340  177.4460  144.0930 C   0  0  0  0  0  2  0  0  0  0  0  0
  183.5620  178.8610  140.5660 F   0  0  0  0  0  0  0  0  0  0  0  0
  185.8060  178.2340  144.8010 C   0  0  0  0  0  0  0  0  0  0  0  0
  182.2510  178.8320  143.9700 C   0  0  0  0  0  3  0  0  0  0  0  0
  184.7310  178.5340  142.6600 C   0  0  0  0  0  0  0  0  0  0  0  0
  187.0340  178.0890  144.2040 C   0  0  0  0  0  0  0  0  0  0  0  0
  187.7540  177.9760  147.4750 O   0  0  0  0  0  0  0  0  0  0  0  0
  187.9680  177.9410  145.1790 N   0  0  0  0  0  0  0  0  0  0  0  0
  191.5290  176.8960  145.5130 C   0  0  0  0  0  2  0  0  0  0  0  0
  189.0480  175.6830  143.2520 C   0  0  0  0  0  1  0  0  0  0  0  0
  183.4060  178.6010  144.7170 C   0  0  0  0  0  3  0  0  0  0  0  0
  184.6400  178.4500  144.0730 C   0  0  0  0  0  0  0  0  0  0  0  0
  189.4720  177.0670  142.7650 C   0  0  2  0  0  3  0  0  0  0  0  0
  187.2660  178.2670  138.6020 O   0  0  0  0  0  0  0  0  0  0  0  0
  185.7310  177.0890  137.2110 C   0  0  0  0  0  1  0  0  0  0  0  0
  185.9130  178.1920  138.2320 C   0  0  0  0  0  2  0  0  0  0  0  0
  1 19  2  0  0  0  0
  1  4  1  0  0  0  0
  2 13  2  0  0  0  0
  2 19  1  0  0  0  0
  3 10  1  0  0  0  0
  4 20  2  0  0  0  0
  5  1  1  0  0  0  0
  6  8  2  0  0  0  0
  7 15  1  1  0  0  0
  7  9  1  0  0  0  0
  8 12  1  0  0  0  0
  9 22  1  0  0  0  0
  9 14  1  1  0  0  0
 10 21  2  0  0  0  0
 11 28  1  6  0  0  0
 11  5  1  0  0  0  0
 11  8  1  0  0  0  0
 12 27  1  0  0  0  0
 12  4  1  0  0  0  0
 13 18  1  0  0  0  0
 15 23  1  0  0  0  0
 16  2  1  0  0  0  0
 17  3  1  0  0  0  0
 18 25  2  0  0  0  0
 19 26  1  0  0  0  0
 20 17  1  0  0  0  0
 20 22  1  0  0  0  0
 22 10  1  0  0  0  0
 23 14  1  0  0  0  0
 26 25  1  0  0  0  0
 26 17  2  0  0  0  0
 27 24  1  1  0  0  0
 27  7  1  0  0  0  0
 29 30  1  0  0  0  0
 30 28  1  0  0  0  0
M  END
>  <MODEL>
1

>  <REMARK>
 VINA RESULT:     -10.4      0.000      0.000
  Name = 
  2 active torsions:
  status: ('A' for Active; 'I' for Inactive)
    1  A    between atoms: C_11  and  O_28
    2  A    between atoms: O_28  and  C_30
                            x       y       z     vdW  Elec       q    Type
                         _______ _______ _______ _____ _____    ______ ____

>  <TORSDO>
F 2

$$$$
=
 OpenBabel11122410283D

 30 35  0  0  1  0  0  0  0  0999 V2000
  186.7080  178.3460  141.3920 C   0  0  0  0  0  0  0  0  0  0  0  0
  184.3410  178.7410  140.7630 C   0  0  0  0  0  0  0  0  0  0  0  0
  185.7530  178.1520  145.3890 N   0  0  0  0  0  2  0  0  0  0  0  0
  187.6840  178.0780  142.3890 C   0  0  0  0  0  0  0  0  0  0  0  0
  187.1020  178.4240  140.0510 O   0  0  0  0  0  0  0  0  0  0  0  0
  190.6010  177.7090  140.2400 O   0  0  0  0  0  0  0  0  0  0  0  0
  190.3740  177.9240  144.0030 C   0  0  1  0  0  3  0  0  0  0  0  0
  189.4250  177.9730  140.6150 C   0  0  0  0  0  0  0  0  0  0  0  0
  189.4080  177.9900  145.1770 C   0  0  2  0  0  3  0  0  0  0  0  0
  187.0100  177.9850  145.8520 C   0  0  0  0  0  0  0  0  0  0  0  0
  188.4620  178.6130  139.6550 C   0  0  1  0  0  3  0  0  0  0  0  0
  189.0220  177.7340  141.9730 N   0  0  0  0  0  0  0  0  0  0  0  0
  183.0040  178.8870  141.1460 C   0  0  0  0  0  3  0  0  0  0  0  0
  189.8680  176.9160  146.1400 C   0  0  0  0  0  2  0  0  0  0  0  0
  191.6800  177.4070  144.5850 C   0  0  0  0  0  2  0  0  0  0  0  0
  184.6420  178.8300  139.4430 F   0  0  0  0  0  0  0  0  0  0  0  0
  185.9330  178.2020  144.0590 C   0  0  0  0  0  0  0  0  0  0  0  0
  182.6370  178.8030  142.4910 C   0  0  0  0  0  3  0  0  0  0  0  0
  185.3380  178.5030  141.7380 C   0  0  0  0  0  0  0  0  0  0  0  0
  187.2600  178.0560  143.7360 C   0  0  0  0  0  0  0  0  0  0  0  0
  187.2680  177.9430  147.0850 O   0  0  0  0  0  0  0  0  0  0  0  0
  187.9650  177.9070  144.8870 N   0  0  0  0  0  0  0  0  0  0  0  0
  191.3720  176.8570  145.9700 C   0  0  0  0  0  2  0  0  0  0  0  0
  189.4270  175.6470  143.2340 C   0  0  0  0  0  1  0  0  0  0  0  0
  183.6060  178.5720  143.4660 C   0  0  0  0  0  3  0  0  0  0  0  0
  184.9480  178.4190  143.0990 C   0  0  0  0  0  0  0  0  0  0  0  0
  189.9460  177.0300  142.8480 C   0  0  2  0  0  3  0  0  0  0  0  0
  188.6780  178.2320  138.3120 O   0  0  0  0  0  0  0  0  0  0  0  0
  187.1980  178.4420  136.4560 C   0  0  0  0  0  1  0  0  0  0  0  0
  187.4660  177.7600  137.7800 C   0  0  0  0  0  2  0  0  0  0  0  0
  1 19  2  0  0  0  0
  1  4  1  0  0  0  0
  2 13  2  0  0  0  0
  2 19  1  0  0  0  0
  3 10  1  0  0  0  0
  4 20  2  0  0  0  0
  5  1  1  0  0  0  0
  6  8  2  0  0  0  0
  7 15  1  1  0  0  0
  7  9  1  0  0  0  0
  8 12  1  0  0  0  0
  9 14  1  1  0  0  0
 10 21  2  0  0  0  0
 11 28  1  6  0  0  0
 11  5  1  0  0  0  0
 11  8  1  0  0  0  0
 12  4  1  0  0  0  0
 12 27  1  0  0  0  0
 13 18  1  0  0  0  0
 15 23  1  0  0  0  0
 16  2  1  0  0  0  0
 17  3  1  0  0  0  0
 18 25  2  0  0  0  0
 19 26  1  0  0  0  0
 20 17  1  0  0  0  0
 20 22  1  0  0  0  0
 22  9  1  0  0  0  0
 22 10  1  0  0  0  0
 23 14  1  0  0  0  0
 26 25  1  0  0  0  0
 26 17  2  0  0  0  0
 27 24  1  1  0  0  0
 27  7  1  0  0  0  0
 29 30  1  0  0  0  0
 30 28  1  0  0  0  0
M  END
>  <MODEL>
2

>  <REMARK>
 VINA RESULT:     -10.0      0.946      1.037
  Name = 
  2 active torsions:
  status: ('A' for Active; 'I' for Inactive)
    1  A    between atoms: C_11  and  O_28
    2  A    between atoms: O_28  and  C_30
                            x       y       z     vdW  Elec       q    Type
                         _______ _______ _______ _____ _____    ______ ____

>  <TORSDO>
F 2

$$$$
=
 OpenBabel11122410283D

 30 35  0  0  1  0  0  0  0  0999 V2000
  189.0120  177.4720  143.4790 C   0  0  0  0  0  0  0  0  0  0  0  0
  191.1020  176.9270  144.6990 C   0  0  0  0  0  0  0  0  0  0  0  0
  186.8730  177.7280  146.9840 N   0  0  0  0  0  2  0  0  0  0  0  0
  187.6350  177.8230  143.4990 C   0  0  0  0  0  0  0  0  0  0  0  0
  189.6770  177.3770  142.2500 O   0  0  0  0  0  0  0  0  0  0  0  0
  187.1190  178.2930  139.9250 O   0  0  0  0  0  0  0  0  0  0  0  0
  184.6080  178.1750  142.7430 C   0  0  1  0  0  3  0  0  0  0  0  0
  187.6670  177.9740  141.0160 C   0  0  0  0  0  0  0  0  0  0  0  0
  184.4550  178.0890  144.2540 C   0  0  2  0  0  3  0  0  0  0  0  0
  185.6690  177.9780  146.4260 C   0  0  0  0  0  0  0  0  0  0  0  0
  188.9860  177.2540  141.0050 C   0  0  1  0  0  3  0  0  0  0  0  0
  187.0070  178.2290  142.2660 N   0  0  0  0  0  0  0  0  0  0  0  0
  191.7650  176.7160  145.9130 C   0  0  0  0  0  3  0  0  0  0  0  0
  183.5150  179.2140  144.6310 C   0  0  0  0  0  2  0  0  0  0  0  0
  183.3070  178.7810  142.2410 C   0  0  0  0  0  2  0  0  0  0  0  0
  191.8170  176.8160  143.5520 F   0  0  0  0  0  0  0  0  0  0  0  0
  187.6830  177.6490  145.9150 C   0  0  0  0  0  0  0  0  0  0  0  0
  191.0790  176.8180  147.1240 C   0  0  0  0  0  3  0  0  0  0  0  0
  189.7250  177.2480  144.6880 C   0  0  0  0  0  0  0  0  0  0  0  0
  186.9850  177.8600  144.7520 C   0  0  0  0  0  0  0  0  0  0  0  0
  184.6200  178.0700  147.1170 O   0  0  0  0  0  0  0  0  0  0  0  0
  185.6830  178.0820  145.0700 N   0  0  0  0  0  0  0  0  0  0  0  0
  182.5780  179.3520  143.4490 C   0  0  0  0  0  2  0  0  0  0  0  0
  185.9550  180.3710  142.9120 C   0  0  0  0  0  1  0  0  0  0  0  0
  189.7210  177.1320  147.1330 C   0  0  0  0  0  3  0  0  0  0  0  0
  189.0420  177.3490  145.9290 C   0  0  0  0  0  0  0  0  0  0  0  0
  185.7790  179.0090  142.2450 C   0  0  2  0  0  3  0  0  0  0  0  0
  189.8060  177.6080  139.9110 O   0  0  0  0  0  0  0  0  0  0  0  0
  191.7980  176.7740  138.9040 C   0  0  0  0  0  1  0  0  0  0  0  0
  191.1230  177.2040  140.1880 C   0  0  0  0  0  2  0  0  0  0  0  0
  1  4  2  0  0  0  0
  1 19  1  0  0  0  0
  2 13  1  0  0  0  0
  4 20  1  0  0  0  0
  5  1  1  0  0  0  0
  6  8  2  0  0  0  0
  7 15  1  6  0  0  0
  7  9  1  0  0  0  0
  8 12  1  0  0  0  0
  9 14  1  1  0  0  0
  9 22  1  0  0  0  0
 10  3  1  0  0  0  0
 10 21  2  0  0  0  0
 11 28  1  6  0  0  0
 11  8  1  0  0  0  0
 11  5  1  0  0  0  0
 12  4  1  0  0  0  0
 13 18  2  0  0  0  0
 15 23  1  0  0  0  0
 16  2  1  0  0  0  0
 17 26  1  0  0  0  0
 17  3  1  0  0  0  0
 18 25  1  0  0  0  0
 19  2  2  0  0  0  0
 19 26  1  0  0  0  0
 20 22  1  0  0  0  0
 20 17  2  0  0  0  0
 22 10  1  0  0  0  0
 23 14  1  0  0  0  0
 26 25  2  0  0  0  0
 27 12  1  0  0  0  0
 27  7  1  0  0  0  0
 27 24  1  1  0  0  0
 28 30  1  0  0  0  0
 29 30  1  0  0  0  0
M  END
>  <MODEL>
3

>  <REMARK>
 VINA RESULT:      -9.6      2.235      5.535
  Name = 
  2 active torsions:
  status: ('A' for Active; 'I' for Inactive)
    1  A    between atoms: C_11  and  O_28
    2  A    between atoms: O_28  and  C_30
                            x       y       z     vdW  Elec       q    Type
                         _______ _______ _______ _____ _____    ______ ____

>  <TORSDO>
F 2

$$$$
=
 OpenBabel11122410283D

 30 35  0  0  1  0  0  0  0  0999 V2000
  186.7910  177.8140  145.1230 C   0  0  0  0  0  0  0  0  0  0  0  0
  184.4520  178.5080  145.5680 C   0  0  0  0  0  0  0  0  0  0  0  0
  186.4040  178.6110  141.1050 N   0  0  0  0  0  2  0  0  0  0  0  0
  187.8730  177.6560  144.2140 C   0  0  0  0  0  0  0  0  0  0  0  0
  186.9810  177.5020  146.4740 O   0  0  0  0  0  0  0  0  0  0  0  0
  190.4300  176.5580  146.5630 O   0  0  0  0  0  0  0  0  0  0  0  0
  190.4830  176.6490  142.7880 C   0  0  1  0  0  3  0  0  0  0  0  0
  189.3020  176.8750  146.0940 C   0  0  0  0  0  0  0  0  0  0  0  0
  189.7060  177.0850  141.5560 C   0  0  2  0  0  3  0  0  0  0  0  0
  187.6400  178.2110  140.7360 C   0  0  0  0  0  0  0  0  0  0  0  0
  188.0680  176.6980  146.9360 C   0  0  1  0  0  3  0  0  0  0  0  0
  189.1770  177.3350  144.7400 N   0  0  0  0  0  0  0  0  0  0  0  0
  183.2330  179.0030  145.0920 C   0  0  0  0  0  3  0  0  0  0  0  0
  190.6860  177.8780  140.7170 C   0  0  0  0  0  2  0  0  0  0  0  0
  191.9300  176.5440  142.3340 C   0  0  0  0  0  2  0  0  0  0  0  0
  184.5560  178.2290  146.8920 F   0  0  0  0  0  0  0  0  0  0  0  0
  186.4170  178.4210  142.4350 C   0  0  0  0  0  0  0  0  0  0  0  0
  183.0710  179.3080  143.7400 C   0  0  0  0  0  3  0  0  0  0  0  0
  185.5360  178.3130  144.6810 C   0  0  0  0  0  0  0  0  0  0  0  0
  187.6310  177.9330  142.8500 C   0  0  0  0  0  0  0  0  0  0  0  0
  188.0020  178.1900  139.5300 O   0  0  0  0  0  0  0  0  0  0  0  0
  188.4330  177.8000  141.7620 N   0  0  0  0  0  0  0  0  0  0  0  0
  192.0330  177.2390  140.9840 C   0  0  0  0  0  2  0  0  0  0  0  0
  190.5920  179.0680  143.6870 C   0  0  0  0  0  1  0  0  0  0  0  0
  184.1270  179.1210  142.8490 C   0  0  0  0  0  3  0  0  0  0  0  0
  185.3540  178.6290  143.3090 C   0  0  0  0  0  0  0  0  0  0  0  0
  190.3960  177.5840  143.9860 C   0  0  2  0  0  3  0  0  0  0  0  0
  188.3050  176.8750  148.3170 O   0  0  0  0  0  0  0  0  0  0  0  0
  189.7100  178.6280  149.1130 C   0  0  0  0  0  1  0  0  0  0  0  0
  188.3390  178.2520  148.5930 C   0  0  0  0  0  2  0  0  0  0  0  0
  1  5  1  0  0  0  0
  2 16  1  0  0  0  0
  3 17  1  0  0  0  0
  4 12  1  0  0  0  0
  4  1  2  0  0  0  0
  5 11  1  0  0  0  0
  7 15  1  6  0  0  0
  7 27  1  0  0  0  0
  8  6  2  0  0  0  0
  8 11  1  0  0  0  0
  9 14  1  6  0  0  0
  9 22  1  0  0  0  0
  9  7  1  0  0  0  0
 10  3  1  0  0  0  0
 10 22  1  0  0  0  0
 11 28  1  1  0  0  0
 12  8  1  0  0  0  0
 13  2  1  0  0  0  0
 14 23  1  0  0  0  0
 17 20  2  0  0  0  0
 17 26  1  0  0  0  0
 18 13  2  0  0  0  0
 19  1  1  0  0  0  0
 19  2  2  0  0  0  0
 20  4  1  0  0  0  0
 21 10  2  0  0  0  0
 22 20  1  0  0  0  0
 23 15  1  0  0  0  0
 25 26  2  0  0  0  0
 25 18  1  0  0  0  0
 26 19  1  0  0  0  0
 27 24  1  6  0  0  0
 27 12  1  0  0  0  0
 28 30  1  0  0  0  0
 30 29  1  0  0  0  0
M  END
>  <MODEL>
4

>  <REMARK>
 VINA RESULT:      -9.4      1.991      5.346
  Name = 
  2 active torsions:
  status: ('A' for Active; 'I' for Inactive)
    1  A    between atoms: C_11  and  O_28
    2  A    between atoms: O_28  and  C_30
                            x       y       z     vdW  Elec       q    Type
                         _______ _______ _______ _____ _____    ______ ____

>  <TORSDO>
F 2

$$$$
=
 OpenBabel11122410283D

 30 35  0  0  1  0  0  0  0  0999 V2000
  189.9400  177.8070  142.5280 C   0  0  0  0  0  0  0  0  0  0  0  0
  191.4730  177.3620  140.6290 C   0  0  0  0  0  0  0  0  0  0  0  0
  186.7460  178.3610  139.9950 N   0  0  0  0  0  2  0  0  0  0  0  0
  188.6310  178.0770  143.0110 C   0  0  0  0  0  0  0  0  0  0  0  0
  190.9900  177.6530  143.4420 O   0  0  0  0  0  0  0  0  0  0  0  0
  189.3220  178.0030  146.5860 O   0  0  0  0  0  0  0  0  0  0  0  0
  186.2090  179.0800  144.7400 C   0  0  1  0  0  3  0  0  0  0  0  0
  189.5090  178.0170  145.3380 C   0  0  0  0  0  0  0  0  0  0  0  0
  185.5590  179.1670  143.3670 C   0  0  2  0  0  3  0  0  0  0  0  0
  185.8340  178.6690  140.9410 C   0  0  0  0  0  0  0  0  0  0  0  0
  190.9080  178.1050  144.7950 C   0  0  1  0  0  3  0  0  0  0  0  0
  188.3940  178.0230  144.4330 N   0  0  0  0  0  0  0  0  0  0  0  0
  191.6720  177.2250  139.2510 C   0  0  0  0  0  3  0  0  0  0  0  0
  184.1910  178.5380  143.5250 C   0  0  0  0  0  2  0  0  0  0  0  0
  185.0570  179.1060  145.7320 C   0  0  0  0  0  2  0  0  0  0  0  0
  192.5410  177.1990  141.4490 F   0  0  0  0  0  0  0  0  0  0  0  0
  187.8540  178.1250  140.7170 C   0  0  0  0  0  0  0  0  0  0  0  0
  190.6080  177.3820  138.3610 C   0  0  0  0  0  3  0  0  0  0  0  0
  190.1870  177.6600  141.1360 C   0  0  0  0  0  0  0  0  0  0  0  0
  187.6070  178.2750  142.0600 C   0  0  0  0  0  0  0  0  0  0  0  0
  184.6570  179.0090  140.6490 O   0  0  0  0  0  0  0  0  0  0  0  0
  186.3020  178.6190  142.2170 N   0  0  0  0  0  0  0  0  0  0  0  0
  183.7770  178.8560  144.9470 C   0  0  0  0  0  2  0  0  0  0  0  0
  186.4410  176.5130  144.5670 C   0  0  0  0  0  1  0  0  0  0  0  0
  189.3330  177.6780  138.8420 C   0  0  0  0  0  3  0  0  0  0  0  0
  189.1160  177.8150  140.2180 C   0  0  0  0  0  0  0  0  0  0  0  0
  187.0610  177.8440  144.9880 C   0  0  2  0  0  3  0  0  0  0  0  0
  191.8670  177.4760  145.6200 O   0  0  0  0  0  0  0  0  0  0  0  0
  192.1530  175.4070  146.7680 C   0  0  0  0  0  1  0  0  0  0  0  0
  191.7320  176.0840  145.4810 C   0  0  0  0  0  2  0  0  0  0  0  0
  1  4  1  0  0  0  0
  1  5  1  0  0  0  0
  2 19  1  0  0  0  0
  2 16  1  0  0  0  0
  3 17  1  0  0  0  0
  3 10  1  0  0  0  0
  4 12  1  0  0  0  0
  5 11  1  0  0  0  0
  7 27  1  0  0  0  0
  7 15  1  1  0  0  0
  8  6  2  0  0  0  0
  9 14  1  1  0  0  0
  9  7  1  0  0  0  0
 10 22  1  0  0  0  0
 11  8  1  0  0  0  0
 11 28  1  1  0  0  0
 12 27  1  0  0  0  0
 12  8  1  0  0  0  0
 13  2  2  0  0  0  0
 14 23  1  0  0  0  0
 17 20  1  0  0  0  0
 18 25  2  0  0  0  0
 18 13  1  0  0  0  0
 19  1  2  0  0  0  0
 20 22  1  0  0  0  0
 20  4  2  0  0  0  0
 21 10  2  0  0  0  0
 22  9  1  0  0  0  0
 23 15  1  0  0  0  0
 25 26  1  0  0  0  0
 26 17  2  0  0  0  0
 26 19  1  0  0  0  0
 27 24  1  6  0  0  0
 30 28  1  0  0  0  0
 30 29  1  0  0  0  0
M  END
>  <MODEL>
5

>  <REMARK>
 VINA RESULT:      -8.9      2.565      6.650
  Name = 
  2 active torsions:
  status: ('A' for Active; 'I' for Inactive)
    1  A    between atoms: C_11  and  O_28
    2  A    between atoms: O_28  and  C_30
                            x       y       z     vdW  Elec       q    Type
                         _______ _______ _______ _____ _____    ______ ____

>  <TORSDO>
F 2

$$$$
=
 OpenBabel11122410283D

 30 35  0  0  1  0  0  0  0  0999 V2000
  188.0410  177.9330  141.7200 C   0  0  0  0  0  0  0  0  0  0  0  0
  188.8580  177.5090  144.0240 C   0  0  0  0  0  0  0  0  0  0  0  0
  191.6110  176.7090  140.0840 N   0  0  0  0  0  2  0  0  0  0  0  0
  188.2500  177.8850  140.3160 C   0  0  0  0  0  0  0  0  0  0  0  0
  186.8110  178.3830  142.2150 O   0  0  0  0  0  0  0  0  0  0  0  0
  184.9690  179.0170  139.2150 O   0  0  0  0  0  0  0  0  0  0  0  0
  188.1380  178.4800  137.2340 C   0  0  1  0  0  3  0  0  0  0  0  0
  185.9440  178.7500  139.9710 C   0  0  0  0  0  0  0  0  0  0  0  0
  189.5710  177.9750  137.3150 C   0  0  2  0  0  3  0  0  0  0  0  0
  191.2950  176.9510  138.7940 C   0  0  0  0  0  0  0  0  0  0  0  0
  185.8890  179.1350  141.4230 C   0  0  1  0  0  3  0  0  0  0  0  0
  187.1340  178.1480  139.4400 N   0  0  0  0  0  0  0  0  0  0  0  0
  189.8780  177.0730  144.8760 C   0  0  0  0  0  3  0  0  0  0  0  0
  189.7240  177.0050  136.1630 C   0  0  0  0  0  2  0  0  0  0  0  0
  187.7670  178.4020  135.7620 C   0  0  0  0  0  2  0  0  0  0  0  0
  187.6950  177.9300  144.5810 F   0  0  0  0  0  0  0  0  0  0  0  0
  190.4870  177.0510  140.7330 C   0  0  0  0  0  0  0  0  0  0  0  0
  191.0950  176.6270  144.3570 C   0  0  0  0  0  3  0  0  0  0  0  0
  189.0500  177.5000  142.6230 C   0  0  0  0  0  0  0  0  0  0  0  0
  189.5200  177.4730  139.8540 C   0  0  0  0  0  0  0  0  0  0  0  0
  192.1280  176.7980  137.8620 O   0  0  0  0  0  0  0  0  0  0  0  0
  190.0290  177.4060  138.5960 N   0  0  0  0  0  0  0  0  0  0  0  0
  188.8220  177.5470  135.0740 C   0  0  0  0  0  2  0  0  0  0  0  0
  187.1910  176.1840  137.9400 C   0  0  0  0  0  1  0  0  0  0  0  0
  191.3040  176.6130  142.9790 C   0  0  0  0  0  3  0  0  0  0  0  0
  190.2930  177.0430  142.1120 C   0  0  0  0  0  0  0  0  0  0  0  0
  187.1180  177.7040  138.0550 C   0  0  2  0  0  3  0  0  0  0  0  0
  184.5830  179.1000  141.9600 O   0  0  0  0  0  0  0  0  0  0  0  0
  183.9520  179.1510  144.2580 C   0  0  0  0  0  1  0  0  0  0  0  0
  184.6070  178.3540  143.1500 C   0  0  0  0  0  2  0  0  0  0  0  0
  1  5  1  0  0  0  0
  1 19  1  0  0  0  0
  2 16  1  0  0  0  0
  2 13  1  0  0  0  0
  3 17  1  0  0  0  0
  4  1  2  0  0  0  0
  6  8  2  0  0  0  0
  7 15  1  6  0  0  0
  7  9  1  0  0  0  0
  7 27  1  0  0  0  0
  8 11  1  0  0  0  0
  9 14  1  6  0  0  0
  9 22  1  0  0  0  0
 10  3  1  0  0  0  0
 11 28  1  1  0  0  0
 11  5  1  0  0  0  0
 12  8  1  0  0  0  0
 12  4  1  0  0  0  0
 17 26  1  0  0  0  0
 18 13  2  0  0  0  0
 19  2  2  0  0  0  0
 20  4  1  0  0  0  0
 20 17  2  0  0  0  0
 21 10  2  0  0  0  0
 22 10  1  0  0  0  0
 22 20  1  0  0  0  0
 23 15  1  0  0  0  0
 23 14  1  0  0  0  0
 25 18  1  0  0  0  0
 26 19  1  0  0  0  0
 26 25  2  0  0  0  0
 27 24  1  1  0  0  0
 27 12  1  0  0  0  0
 28 30  1  0  0  0  0
 30 29  1  0  0  0  0
M  END
>  <MODEL>
6

>  <REMARK>
 VINA RESULT:      -8.7      2.727      6.694
  Name = 
  2 active torsions:
  status: ('A' for Active; 'I' for Inactive)
    1  A    between atoms: C_11  and  O_28
    2  A    between atoms: O_28  and  C_30
                            x       y       z     vdW  Elec       q    Type
                         _______ _______ _______ _____ _____    ______ ____

>  <TORSDO>
F 2

$$$$
=
 OpenBabel11122410283D

 30 35  0  0  1  0  0  0  0  0999 V2000
  187.7960  177.4570  143.0240 C   0  0  0  0  0  0  0  0  0  0  0  0
  186.8240  177.8740  145.2670 C   0  0  0  0  0  0  0  0  0  0  0  0
  184.5750  179.2070  141.1560 N   0  0  0  0  0  2  0  0  0  0  0  0
  187.7270  177.5980  141.6110 C   0  0  0  0  0  0  0  0  0  0  0  0
  188.9080  176.8290  143.5960 O   0  0  0  0  0  0  0  0  0  0  0  0
  190.9310  176.1050  140.7370 O   0  0  0  0  0  0  0  0  0  0  0  0
  188.0540  177.1400  138.5220 C   0  0  1  0  0  3  0  0  0  0  0  0
  189.9300  176.4600  141.4190 C   0  0  0  0  0  0  0  0  0  0  0  0
  186.6940  177.8210  138.5070 C   0  0  2  0  0  3  0  0  0  0  0  0
  184.9790  178.9880  139.8870 C   0  0  0  0  0  0  0  0  0  0  0  0
  189.8000  176.0030  142.8450 C   0  0  1  0  0  3  0  0  0  0  0  0
  188.8790  177.2350  140.8230 N   0  0  0  0  0  0  0  0  0  0  0  0
  185.7900  178.3970  146.0520 C   0  0  0  0  0  3  0  0  0  0  0  0
  186.7720  178.8570  137.4040 C   0  0  0  0  0  2  0  0  0  0  0  0
  188.5690  177.2390  137.0950 C   0  0  0  0  0  2  0  0  0  0  0  0
  187.8680  177.2800  145.8980 F   0  0  0  0  0  0  0  0  0  0  0  0
  185.5820  178.6930  141.8800 C   0  0  0  0  0  0  0  0  0  0  0  0
  184.6930  179.0200  145.4560 C   0  0  0  0  0  3  0  0  0  0  0  0
  186.7670  177.9740  143.8580 C   0  0  0  0  0  0  0  0  0  0  0  0
  186.5680  178.1910  141.0650 C   0  0  0  0  0  0  0  0  0  0  0  0
  184.2620  179.2910  138.8960 O   0  0  0  0  0  0  0  0  0  0  0  0
  186.1920  178.3840  139.7740 N   0  0  0  0  0  0  0  0  0  0  0  0
  187.6980  178.2540  136.3690 C   0  0  0  0  0  2  0  0  0  0  0  0
  189.2080  179.2590  139.4410 C   0  0  0  0  0  1  0  0  0  0  0  0
  184.6180  179.1260  144.0680 C   0  0  0  0  0  3  0  0  0  0  0  0
  185.6440  178.6100  143.2680 C   0  0  0  0  0  0  0  0  0  0  0  0
  189.0800  177.7380  139.4720 C   0  0  2  0  0  3  0  0  0  0  0  0
  191.0440  175.8430  143.4950 O   0  0  0  0  0  0  0  0  0  0  0  0
  191.6760  176.3780  145.7300 C   0  0  0  0  0  1  0  0  0  0  0  0
  191.2230  176.9130  144.3880 C   0  0  0  0  0  2  0  0  0  0  0  0
  1  5  1  0  0  0  0
  1 19  1  0  0  0  0
  2 16  1  0  0  0  0
  2 13  1  0  0  0  0
  3 17  1  0  0  0  0
  4  1  2  0  0  0  0
  6  8  2  0  0  0  0
  7 15  1  6  0  0  0
  7 27  1  0  0  0  0
  8 11  1  0  0  0  0
  9 14  1  6  0  0  0
  9  7  1  0  0  0  0
  9 22  1  0  0  0  0
 10  3  1  0  0  0  0
 11 28  1  1  0  0  0
 11  5  1  0  0  0  0
 12  8  1  0  0  0  0
 12  4  1  0  0  0  0
 17 26  1  0  0  0  0
 18 13  2  0  0  0  0
 19  2  2  0  0  0  0
 20  4  1  0  0  0  0
 20 17  2  0  0  0  0
 21 10  2  0  0  0  0
 22 10  1  0  0  0  0
 22 20  1  0  0  0  0
 23 15  1  0  0  0  0
 23 14  1  0  0  0  0
 25 18  1  0  0  0  0
 26 19  1  0  0  0  0
 26 25  2  0  0  0  0
 27 24  1  1  0  0  0
 27 12  1  0  0  0  0
 28 30  1  0  0  0  0
 30 29  1  0  0  0  0
M  END
>  <MODEL>
7

>  <REMARK>
 VINA RESULT:      -8.4      2.489      5.712
  Name = 
  2 active torsions:
  status: ('A' for Active; 'I' for Inactive)
    1  A    between atoms: C_11  and  O_28
    2  A    between atoms: O_28  and  C_30
                            x       y       z     vdW  Elec       q    Type
                         _______ _______ _______ _____ _____    ______ ____

>  <TORSDO>
F 2

$$$$
=
 OpenBabel11122410283D

 30 35  0  0  1  0  0  0  0  0999 V2000
  188.3750  177.5280  144.6290 C   0  0  0  0  0  0  0  0  0  0  0  0
  189.6490  177.4030  146.7530 C   0  0  0  0  0  0  0  0  0  0  0  0
  184.9550  178.6970  146.5930 N   0  0  0  0  0  2  0  0  0  0  0  0
  187.1730  177.8330  143.9350 C   0  0  0  0  0  0  0  0  0  0  0  0
  189.4970  177.1110  143.9040 O   0  0  0  0  0  0  0  0  0  0  0  0
  188.3280  177.2700  140.5280 O   0  0  0  0  0  0  0  0  0  0  0  0
  184.8380  177.8780  141.8360 C   0  0  1  0  0  3  0  0  0  0  0  0
  188.3050  177.2840  141.7890 C   0  0  0  0  0  0  0  0  0  0  0  0
  184.0300  178.2140  143.0800 C   0  0  2  0  0  3  0  0  0  0  0  0
  184.1500  178.7500  145.5100 C   0  0  0  0  0  0  0  0  0  0  0  0
  189.4140  176.6250  142.5620 C   0  0  1  0  0  3  0  0  0  0  0  0
  187.1940  177.8610  142.4930 N   0  0  0  0  0  0  0  0  0  0  0  0
  189.6880  177.5580  148.1430 C   0  0  0  0  0  3  0  0  0  0  0  0
  183.1420  179.3750  142.6850 C   0  0  0  0  0  2  0  0  0  0  0  0
  183.9590  178.2840  140.6640 C   0  0  0  0  0  2  0  0  0  0  0  0
  190.7790  176.9940  146.1240 F   0  0  0  0  0  0  0  0  0  0  0  0
  186.1380  178.3450  146.0660 C   0  0  0  0  0  0  0  0  0  0  0  0
  188.5550  177.9770  148.8420 C   0  0  0  0  0  3  0  0  0  0  0  0
  188.4580  177.6710  146.0410 C   0  0  0  0  0  0  0  0  0  0  0  0
  186.0470  178.2030  144.7030 C   0  0  0  0  0  0  0  0  0  0  0  0
  182.9200  179.0030  145.6040 O   0  0  0  0  0  0  0  0  0  0  0  0
  184.7670  178.4690  144.3310 N   0  0  0  0  0  0  0  0  0  0  0  0
  182.8380  179.1510  141.2180 C   0  0  0  0  0  2  0  0  0  0  0  0
  186.1930  180.0690  142.0110 C   0  0  0  0  0  1  0  0  0  0  0  0
  187.3700  178.2440  148.1570 C   0  0  0  0  0  3  0  0  0  0  0  0
  187.3150  178.0970  146.7670 C   0  0  0  0  0  0  0  0  0  0  0  0
  186.1880  178.5710  141.7190 C   0  0  2  0  0  3  0  0  0  0  0  0
  190.6620  176.6800  141.9030 O   0  0  0  0  0  0  0  0  0  0  0  0
  191.9970  178.2510  143.0990 C   0  0  0  0  0  1  0  0  0  0  0  0
  191.6750  176.7890  142.8710 C   0  0  0  0  0  2  0  0  0  0  0  0
  1 19  1  0  0  0  0
  2 13  1  0  0  0  0
  4  1  2  0  0  0  0
  4 20  1  0  0  0  0
  5  1  1  0  0  0  0
  6  8  2  0  0  0  0
  7 15  1  6  0  0  0
  7  9  1  0  0  0  0
  8 12  1  0  0  0  0
  8 11  1  0  0  0  0
  9 14  1  6  0  0  0
  9 22  1  0  0  0  0
 10 21  2  0  0  0  0
 10  3  1  0  0  0  0
 11 28  1  6  0  0  0
 11  5  1  0  0  0  0
 12  4  1  0  0  0  0
 13 18  2  0  0  0  0
 15 23  1  0  0  0  0
 16  2  1  0  0  0  0
 17  3  1  0  0  0  0
 17 26  1  0  0  0  0
 19  2  2  0  0  0  0
 19 26  1  0  0  0  0
 20 17  2  0  0  0  0
 22 20  1  0  0  0  0
 22 10  1  0  0  0  0
 23 14  1  0  0  0  0
 25 18  1  0  0  0  0
 26 25  2  0  0  0  0
 27  7  1  0  0  0  0
 27 24  1  1  0  0  0
 27 12  1  0  0  0  0
 28 30  1  0  0  0  0
 30 29  1  0  0  0  0
M  END
>  <MODEL>
8

>  <REMARK>
 VINA RESULT:      -8.3      2.489      5.719
  Name = 
  2 active torsions:
  status: ('A' for Active; 'I' for Inactive)
    1  A    between atoms: C_11  and  O_28
    2  A    between atoms: O_28  and  C_30
                            x       y       z     vdW  Elec       q    Type
                         _______ _______ _______ _____ _____    ______ ____

>  <TORSDO>
F 2

$$$$
=
 OpenBabel11122410283D

 30 35  0  0  1  0  0  0  0  0999 V2000
  188.1230  178.0790  140.8250 C   0  0  0  0  0  0  0  0  0  0  0  0
  190.4180  177.6910  139.9680 C   0  0  0  0  0  0  0  0  0  0  0  0
  189.3150  177.4200  144.7060 N   0  0  0  0  0  2  0  0  0  0  0  0
  187.2250  178.1940  141.9200 C   0  0  0  0  0  0  0  0  0  0  0  0
  187.6480  178.2910  139.5250 O   0  0  0  0  0  0  0  0  0  0  0  0
  184.2210  179.1410  140.0920 O   0  0  0  0  0  0  0  0  0  0  0  0
  184.6490  178.1680  143.7150 C   0  0  1  0  0  3  0  0  0  0  0  0
  185.3960  178.7450  140.3260 C   0  0  0  0  0  0  0  0  0  0  0  0
  185.6730  177.8180  144.7840 C   0  0  2  0  0  3  0  0  0  0  0  0
  188.1010  177.5590  145.2800 C   0  0  0  0  0  0  0  0  0  0  0  0
  186.2580  178.2590  139.1950 C   0  0  1  0  0  3  0  0  0  0  0  0
  185.8920  178.6860  141.6730 N   0  0  0  0  0  0  0  0  0  0  0  0
  191.7630  177.3990  140.2220 C   0  0  0  0  0  3  0  0  0  0  0  0
  185.3410  178.7010  145.9680 C   0  0  0  0  0  2  0  0  0  0  0  0
  183.4150  178.6280  144.4760 C   0  0  0  0  0  2  0  0  0  0  0  0
  190.0370  177.8830  138.6810 F   0  0  0  0  0  0  0  0  0  0  0  0
  189.0570  177.6460  143.4080 C   0  0  0  0  0  0  0  0  0  0  0  0
  192.2100  177.1930  141.5280 C   0  0  0  0  0  3  0  0  0  0  0  0
  189.4970  177.7830  141.0370 C   0  0  0  0  0  0  0  0  0  0  0  0
  187.7260  177.9250  143.2120 C   0  0  0  0  0  0  0  0  0  0  0  0
  187.9180  177.3670  146.5110 O   0  0  0  0  0  0  0  0  0  0  0  0
  187.1000  177.8790  144.4170 N   0  0  0  0  0  0  0  0  0  0  0  0
  183.8380  178.8730  145.9180 C   0  0  0  0  0  2  0  0  0  0  0  0
  185.6980  180.4980  143.3430 C   0  0  0  0  0  1  0  0  0  0  0  0
  191.3160  177.2770  142.5940 C   0  0  0  0  0  3  0  0  0  0  0  0
  189.9680  177.5720  142.3590 C   0  0  0  0  0  0  0  0  0  0  0  0
  185.0670  179.2500  142.7310 C   0  0  2  0  0  3  0  0  0  0  0  0
  185.9920  178.9110  137.9710 O   0  0  0  0  0  0  0  0  0  0  0  0
  187.2250  178.3370  136.0140 C   0  0  0  0  0  1  0  0  0  0  0  0
  186.0790  177.9690  136.9320 C   0  0  0  0  0  2  0  0  0  0  0  0
  1 19  2  0  0  0  0
  1  4  1  0  0  0  0
  2 13  2  0  0  0  0
  2 19  1  0  0  0  0
  3 10  1  0  0  0  0
  4 20  2  0  0  0  0
  5  1  1  0  0  0  0
  6  8  2  0  0  0  0
  7 15  1  1  0  0  0
  7  9  1  0  0  0  0
  8 12  1  0  0  0  0
  9 14  1  1  0  0  0
 10 21  2  0  0  0  0
 11 28  1  6  0  0  0
 11  5  1  0  0  0  0
 11  8  1  0  0  0  0
 12  4  1  0  0  0  0
 12 27  1  0  0  0  0
 13 18  1  0  0  0  0
 15 23  1  0  0  0  0
 16  2  1  0  0  0  0
 17  3  1  0  0  0  0
 18 25  2  0  0  0  0
 19 26  1  0  0  0  0
 20 17  1  0  0  0  0
 20 22  1  0  0  0  0
 22  9  1  0  0  0  0
 22 10  1  0  0  0  0
 23 14  1  0  0  0  0
 26 25  1  0  0  0  0
 26 17  2  0  0  0  0
 27 24  1  1  0  0  0
 27  7  1  0  0  0  0
 29 30  1  0  0  0  0
 30 28  1  0  0  0  0
M  END
>  <MODEL>
9

>  <REMARK>
 VINA RESULT:      -8.3      1.985      5.140
  Name = 
  2 active torsions:
  status: ('A' for Active; 'I' for Inactive)
    1  A    between atoms: C_11  and  O_28
    2  A    between atoms: O_28  and  C_30
                            x       y       z     vdW  Elec       q    Type
                         _______ _______ _______ _____ _____    ______ ____

>  <TORSDO>
F 2

$$$$
