=
 OpenBabel11122412203D

 34 40  0  0  1  0  0  0  0  0999 V2000
  183.2960  178.8010  142.2680 C   0  0  0  0  0  0  0  0  0  0  0  0
  181.3250  178.1910  140.8580 C   0  0  0  0  0  2  0  0  0  0  0  0
  189.7730  178.2530  143.7090 C   0  0  2  0  0  3  0  0  0  0  0  0
  185.3030  178.4620  143.6320 C   0  0  0  0  0  0  0  0  0  0  0  0
  187.4540  178.1950  142.5250 C   0  0  0  0  0  0  0  0  0  0  0  0
  189.4580  177.5500  141.4410 O   0  0  0  0  0  0  0  0  0  0  0  0
  191.2340  178.4790  143.3580 C   0  0  0  0  0  1  0  0  0  0  0  0
  188.2020  176.8390  145.1450 C   0  0  0  0  0  2  0  0  0  0  0  0
  183.4300  178.5250  139.7350 C   0  0  1  0  0  3  0  0  0  0  0  0
  184.1890  177.3340  137.3220 O   0  0  0  0  0  0  0  0  0  0  0  0
  186.8180  178.3170  141.3290 N   0  0  0  0  0  0  0  0  0  0  0  0
  187.3230  178.0840  145.0870 C   0  0  0  0  0  2  0  0  0  0  0  0
  184.8790  178.6230  139.9120 N   0  0  0  0  0  0  0  0  0  0  0  0
  181.5770  177.0030  139.9390 C   0  0  0  0  0  2  0  0  0  0  0  0
  186.6940  178.2450  143.7240 C   0  0  0  0  0  0  0  0  0  0  0  0
  189.6500  177.1470  144.7570 C   0  0  0  0  0  2  0  0  0  0  0  0
  183.2100  176.6220  138.0600 C   0  0  2  0  0  3  0  0  0  0  0  0
  184.6870  178.5880  142.3640 C   0  0  0  0  0  0  0  0  0  0  0  0
  188.9220  177.9800  142.5000 C   0  0  0  0  0  0  0  0  0  0  0  0
  185.4770  178.5050  141.2120 C   0  0  0  0  0  0  0  0  0  0  0  0
  183.1420  178.7940  144.6940 C   0  0  0  0  0  3  0  0  0  0  0  0
  185.4380  177.2410  137.9670 C   0  0  0  0  0  2  0  0  0  0  0  0
  184.5130  178.5600  144.7880 C   0  0  0  0  0  3  0  0  0  0  0  0
  185.7180  178.5380  138.7200 C   0  0  0  0  0  2  0  0  0  0  0  0
  183.0290  177.0810  139.5170 C   0  0  1  0  0  3  0  0  0  0  0  0
  182.5410  178.9240  143.4440 C   0  0  0  0  0  3  0  0  0  0  0  0
  182.6140  179.0060  140.9320 C   0  0  2  0  0  3  0  0  0  0  0  0
  183.3990  175.1120  137.9710 C   0  0  0  0  0  2  0  0  0  0  0  0
  183.4830  174.7240  136.6320 O   0  0  0  0  0  0  0  0  0  0  0  0
  186.1700  173.3460  135.8120 O   0  0  0  0  0  0  0  0  0  0  0  0
  184.9240  173.2750  137.8190 C   0  0  0  0  0  2  0  0  0  0  0  0
  183.9670  173.4150  136.6710 C   0  0  2  0  0  3  0  0  0  0  0  0
  186.2460  172.9630  137.1590 C   0  0  0  0  0  2  0  0  0  0  0  0
  184.8280  173.1590  135.4550 C   0  0  0  0  0  2  0  0  0  0  0  0
  1 18  2  0  0  0  0
  1 26  1  0  0  0  0
  3  7  1  6  0  0  0
  3 16  1  0  0  0  0
  4 15  1  0  0  0  0
  4 23  2  0  0  0  0
  5 15  2  0  0  0  0
  6 19  2  0  0  0  0
  9 13  1  1  0  0  0
  9 27  1  0  0  0  0
 10 22  1  0  0  0  0
 10 17  1  0  0  0  0
 11  5  1  0  0  0  0
 12  8  1  0  0  0  0
 13 20  1  0  0  0  0
 14  2  1  0  0  0  0
 15 12  1  0  0  0  0
 16  8  1  0  0  0  0
 17 28  1  1  0  0  0
 17 25  1  0  0  0  0
 18  4  1  0  0  0  0
 19  5  1  0  0  0  0
 19  3  1  0  0  0  0
 20 11  2  0  0  0  0
 20 18  1  0  0  0  0
 21 23  1  0  0  0  0
 22 24  1  0  0  0  0
 24 13  1  0  0  0  0
 25  9  1  0  0  0  0
 25 14  1  6  0  0  0
 26 21  2  0  0  0  0
 27  2  1  1  0  0  0
 27  1  1  0  0  0  0
 29 28  1  0  0  0  0
 30 33  1  0  0  0  0
 32 29  1  6  0  0  0
 32 31  1  0  0  0  0
 33 31  1  0  0  0  0
 34 30  1  0  0  0  0
 34 32  1  0  0  0  0
M  END
>  <MODEL>
1

>  <REMARK>
 VINA RESULT:      -9.3      0.000      0.000
  Name = 
  3 active torsions:
  status: ('A' for Active; 'I' for Inactive)
    1  A    between atoms: C_17  and  C_28
    2  A    between atoms: C_28  and  O_29
    3  A    between atoms: O_29  and  C_32
                            x       y       z     vdW  Elec       q    Type
                         _______ _______ _______ _____ _____    ______ ____

>  <TORSDO>
F 3

$$$$
=
 OpenBabel11122412203D

 34 40  0  0  1  0  0  0  0  0999 V2000
  184.9970  178.5330  139.9500 C   0  0  0  0  0  0  0  0  0  0  0  0
  183.8440  177.8240  137.8480 C   0  0  0  0  0  2  0  0  0  0  0  0
  190.2490  178.2890  144.0350 C   0  0  2  0  0  3  0  0  0  0  0  0
  186.2380  178.2950  142.0490 C   0  0  0  0  0  0  0  0  0  0  0  0
  188.6640  178.1180  141.9750 C   0  0  0  0  0  0  0  0  0  0  0  0
  190.9620  177.5560  141.8680 O   0  0  0  0  0  0  0  0  0  0  0  0
  191.7100  178.5780  144.3360 C   0  0  0  0  0  1  0  0  0  0  0  0
  188.2680  176.8170  144.6980 C   0  0  0  0  0  2  0  0  0  0  0  0
  186.2130  178.2450  137.7250 C   0  0  1  0  0  3  0  0  0  0  0  0
  187.9760  177.0710  135.9000 O   0  0  0  0  0  0  0  0  0  0  0  0
  188.5980  178.2030  140.6190 N   0  0  0  0  0  0  0  0  0  0  0  0
  187.4530  178.0200  144.2370 C   0  0  0  0  0  2  0  0  0  0  0  0
  187.4420  178.4090  138.5020 N   0  0  0  0  0  0  0  0  0  0  0  0
  184.5100  176.6420  137.1570 C   0  0  0  0  0  2  0  0  0  0  0  0
  187.4630  178.1420  142.7320 C   0  0  0  0  0  0  0  0  0  0  0  0
  189.7300  177.1860  144.9580 C   0  0  0  0  0  2  0  0  0  0  0  0
  186.8030  176.3210  136.1670 C   0  0  2  0  0  3  0  0  0  0  0  0
  186.2200  178.3840  140.6360 C   0  0  0  0  0  0  0  0  0  0  0  0
  190.0090  177.9690  142.5850 C   0  0  0  0  0  0  0  0  0  0  0  0
  187.4300  178.3280  139.9360 C   0  0  0  0  0  0  0  0  0  0  0  0
  183.8190  178.5370  142.0760 C   0  0  0  0  0  3  0  0  0  0  0  0
  188.8310  177.0400  137.0190 C   0  0  0  0  0  2  0  0  0  0  0  0
  185.0260  178.3660  142.7530 C   0  0  0  0  0  3  0  0  0  0  0  0
  188.7130  178.3540  137.7850 C   0  0  0  0  0  2  0  0  0  0  0  0
  185.9990  176.7820  137.3940 C   0  0  1  0  0  3  0  0  0  0  0  0
  183.8070  178.6310  140.6860 C   0  0  0  0  0  3  0  0  0  0  0  0
  184.9450  178.6970  138.4450 C   0  0  2  0  0  3  0  0  0  0  0  0
  187.0690  174.8210  136.2060 C   0  0  0  0  0  2  0  0  0  0  0  0
  186.1320  174.1530  135.4150 O   0  0  0  0  0  0  0  0  0  0  0  0
  184.8760  172.9280  138.0060 O   0  0  0  0  0  0  0  0  0  0  0  0
  184.6840  172.3120  135.7310 C   0  0  0  0  0  2  0  0  0  0  0  0
  186.0600  172.8690  135.9580 C   0  0  2  0  0  3  0  0  0  0  0  0
  184.1250  172.1370  137.1240 C   0  0  0  0  0  2  0  0  0  0  0  0
  186.1680  172.9520  137.4640 C   0  0  0  0  0  2  0  0  0  0  0  0
  1 18  2  0  0  0  0
  1 26  1  0  0  0  0
  3  7  1  6  0  0  0
  3 16  1  0  0  0  0
  4 15  1  0  0  0  0
  4 23  2  0  0  0  0
  5 19  1  0  0  0  0
  5 15  2  0  0  0  0
  6 19  2  0  0  0  0
  8 16  1  0  0  0  0
  9 27  1  0  0  0  0
  9 13  1  1  0  0  0
 10 17  1  0  0  0  0
 10 22  1  0  0  0  0
 11  5  1  0  0  0  0
 12  8  1  0  0  0  0
 13 20  1  0  0  0  0
 14  2  1  0  0  0  0
 15 12  1  0  0  0  0
 17 28  1  1  0  0  0
 17 25  1  0  0  0  0
 18  4  1  0  0  0  0
 19  3  1  0  0  0  0
 20 11  2  0  0  0  0
 20 18  1  0  0  0  0
 21 23  1  0  0  0  0
 22 24  1  0  0  0  0
 24 13  1  0  0  0  0
 25 14  1  6  0  0  0
 25  9  1  0  0  0  0
 26 21  2  0  0  0  0
 27  2  1  6  0  0  0
 27  1  1  0  0  0  0
 29 28  1  0  0  0  0
 31 32  1  0  0  0  0
 31 33  1  0  0  0  0
 32 29  1  6  0  0  0
 32 34  1  0  0  0  0
 33 30  1  0  0  0  0
 34 30  1  0  0  0  0
M  END
>  <MODEL>
2

>  <REMARK>
 VINA RESULT:      -9.1      1.689      2.677
  Name = 
  3 active torsions:
  status: ('A' for Active; 'I' for Inactive)
    1  A    between atoms: C_17  and  C_28
    2  A    between atoms: C_28  and  O_29
    3  A    between atoms: O_29  and  C_32
                            x       y       z     vdW  Elec       q    Type
                         _______ _______ _______ _____ _____    ______ ____

>  <TORSDO>
F 3

$$$$
=
 OpenBabel11122412203D

 34 40  0  0  1  0  0  0  0  0999 V2000
  183.1100  178.8850  142.3360 C   0  0  0  0  0  0  0  0  0  0  0  0
  181.0940  178.3180  140.9700 C   0  0  0  0  0  2  0  0  0  0  0  0
  189.6130  178.2310  143.6040 C   0  0  2  0  0  3  0  0  0  0  0  0
  185.1460  178.5020  143.6440 C   0  0  0  0  0  0  0  0  0  0  0  0
  187.2640  178.2190  142.4790 C   0  0  0  0  0  0  0  0  0  0  0  0
  189.2300  177.5600  141.3360 O   0  0  0  0  0  0  0  0  0  0  0  0
  191.0680  178.4410  143.2170 C   0  0  0  0  0  1  0  0  0  0  0  0
  188.0590  176.8220  145.0630 C   0  0  0  0  0  2  0  0  0  0  0  0
  183.1740  178.6370  139.7970 C   0  0  1  0  0  3  0  0  0  0  0  0
  183.8550  177.4650  137.3520 O   0  0  0  0  0  0  0  0  0  0  0  0
  186.5990  178.3650  141.3010 N   0  0  0  0  0  0  0  0  0  0  0  0
  187.1970  178.0790  145.0420 C   0  0  0  0  0  2  0  0  0  0  0  0
  184.6290  178.7130  139.9390 N   0  0  0  0  0  0  0  0  0  0  0  0
  181.3070  177.1380  140.0310 C   0  0  0  0  0  2  0  0  0  0  0  0
  186.5360  178.2650  143.6970 C   0  0  0  0  0  0  0  0  0  0  0  0
  189.5010  177.1140  144.6410 C   0  0  0  0  0  2  0  0  0  0  0  0
  182.8850  176.7580  138.1070 C   0  0  2  0  0  3  0  0  0  0  0  0
  184.4990  178.6520  142.3940 C   0  0  0  0  0  0  0  0  0  0  0  0
  188.7280  177.9850  142.4130 C   0  0  0  0  0  0  0  0  0  0  0  0
  185.2590  178.5720  141.2210 C   0  0  0  0  0  0  0  0  0  0  0  0
  183.0180  178.8510  144.7650 C   0  0  0  0  0  3  0  0  0  0  0  0
  185.1190  177.3470  137.9640 C   0  0  0  0  0  2  0  0  0  0  0  0
  184.3870  178.5970  144.8210 C   0  0  0  0  0  3  0  0  0  0  0  0
  185.4360  178.6310  138.7240 C   0  0  0  0  0  2  0  0  0  0  0  0
  182.7480  177.2010  139.5730 C   0  0  1  0  0  3  0  0  0  0  0  0
  182.3870  179.0040  143.5320 C   0  0  0  0  0  3  0  0  0  0  0  0
  182.3960  179.1150  141.0210 C   0  0  2  0  0  3  0  0  0  0  0  0
  183.0510  175.2460  137.9950 C   0  0  0  0  0  2  0  0  0  0  0  0
  182.5160  174.7990  136.7850 O   0  0  0  0  0  0  0  0  0  0  0  0
  180.1500  172.9920  135.8250 O   0  0  0  0  0  0  0  0  0  0  0  0
  180.7730  173.7410  137.9790 C   0  0  0  0  0  2  0  0  0  0  0  0
  181.1350  174.8050  136.9830 C   0  0  2  0  0  3  0  0  0  0  0  0
  179.9170  172.7770  137.1920 C   0  0  0  0  0  2  0  0  0  0  0  0
  180.4420  174.3580  135.7150 C   0  0  0  0  0  2  0  0  0  0  0  0
  1 18  2  0  0  0  0
  1 26  1  0  0  0  0
  3  7  1  6  0  0  0
  3 16  1  0  0  0  0
  4 15  1  0  0  0  0
  4 23  2  0  0  0  0
  5 15  2  0  0  0  0
  6 19  2  0  0  0  0
  9 13  1  1  0  0  0
  9 27  1  0  0  0  0
 10 22  1  0  0  0  0
 10 17  1  0  0  0  0
 11  5  1  0  0  0  0
 12  8  1  0  0  0  0
 13 20  1  0  0  0  0
 14  2  1  0  0  0  0
 15 12  1  0  0  0  0
 16  8  1  0  0  0  0
 17 28  1  1  0  0  0
 17 25  1  0  0  0  0
 18  4  1  0  0  0  0
 19  5  1  0  0  0  0
 19  3  1  0  0  0  0
 20 11  2  0  0  0  0
 20 18  1  0  0  0  0
 21 23  1  0  0  0  0
 22 24  1  0  0  0  0
 24 13  1  0  0  0  0
 25  9  1  0  0  0  0
 25 14  1  6  0  0  0
 26 21  2  0  0  0  0
 27  2  1  1  0  0  0
 27  1  1  0  0  0  0
 29 28  1  0  0  0  0
 30 33  1  0  0  0  0
 32 29  1  6  0  0  0
 32 31  1  0  0  0  0
 33 31  1  0  0  0  0
 34 30  1  0  0  0  0
 34 32  1  0  0  0  0
M  END
>  <MODEL>
3

>  <REMARK>
 VINA RESULT:      -8.9      1.369      1.936
  Name = 
  3 active torsions:
  status: ('A' for Active; 'I' for Inactive)
    1  A    between atoms: C_17  and  C_28
    2  A    between atoms: C_28  and  O_29
    3  A    between atoms: O_29  and  C_32
                            x       y       z     vdW  Elec       q    Type
                         _______ _______ _______ _____ _____    ______ ____

>  <TORSDO>
F 3

$$$$
=
 OpenBabel11122412203D

 34 40  0  0  1  0  0  0  0  0999 V2000
  184.1480  178.9260  143.9570 C   0  0  0  0  0  0  0  0  0  0  0  0
  181.6700  178.9300  143.6250 C   0  0  0  0  0  2  0  0  0  0  0  0
  190.2650  177.3400  141.8630 C   0  0  2  0  0  3  0  0  0  0  0  0
  186.4230  178.0230  144.0540 C   0  0  0  0  0  0  0  0  0  0  0  0
  187.7140  177.8470  141.9990 C   0  0  0  0  0  0  0  0  0  0  0  0
  188.8050  177.3190  139.9640 O   0  0  0  0  0  0  0  0  0  0  0  0
  191.4160  177.5010  140.8830 C   0  0  0  0  0  1  0  0  0  0  0  0
  189.2490  175.7590  143.5940 C   0  0  0  0  0  2  0  0  0  0  0  0
  183.0480  179.3390  141.6920 C   0  0  1  0  0  3  0  0  0  0  0  0
  182.3400  178.7790  139.0460 O   0  0  0  0  0  0  0  0  0  0  0  0
  186.6490  178.3560  141.3230 N   0  0  0  0  0  0  0  0  0  0  0  0
  188.7420  177.0560  144.2150 C   0  0  0  0  0  2  0  0  0  0  0  0
  184.4010  179.2340  141.1420 N   0  0  0  0  0  0  0  0  0  0  0  0
  181.2050  178.0190  142.4970 C   0  0  0  0  0  2  0  0  0  0  0  0
  187.6160  177.6470  143.4010 C   0  0  0  0  0  0  0  0  0  0  0  0
  190.3890  176.0090  142.6040 C   0  0  0  0  0  2  0  0  0  0  0  0
  181.6730  177.9980  140.0230 C   0  0  2  0  0  3  0  0  0  0  0  0
  185.3430  178.5530  143.3080 C   0  0  0  0  0  0  0  0  0  0  0  0
  188.9210  177.4970  141.2080 C   0  0  0  0  0  0  0  0  0  0  0  0
  185.4820  178.7060  141.9250 C   0  0  0  0  0  0  0  0  0  0  0  0
  185.1170  178.2740  146.0890 C   0  0  0  0  0  3  0  0  0  0  0  0
  183.6890  178.3850  138.9550 C   0  0  0  0  0  2  0  0  0  0  0  0
  186.2890  177.8830  145.4440 C   0  0  0  0  0  3  0  0  0  0  0  0
  184.5620  179.3920  139.6980 C   0  0  0  0  0  2  0  0  0  0  0  0
  182.2820  178.0580  141.4340 C   0  0  1  0  0  3  0  0  0  0  0  0
  184.0590  178.8010  145.3520 C   0  0  0  0  0  3  0  0  0  0  0  0
  182.9970  179.5570  143.2020 C   0  0  2  0  0  3  0  0  0  0  0  0
  181.4590  176.5590  139.5700 C   0  0  0  0  0  2  0  0  0  0  0  0
  180.6850  176.5390  138.4070 O   0  0  0  0  0  0  0  0  0  0  0  0
  179.3060  173.7850  137.8590 O   0  0  0  0  0  0  0  0  0  0  0  0
  179.7420  174.9430  139.8720 C   0  0  0  0  0  2  0  0  0  0  0  0
  179.4790  175.9520  138.7930 C   0  0  2  0  0  3  0  0  0  0  0  0
  179.3380  173.6260  139.2520 C   0  0  0  0  0  2  0  0  0  0  0  0
  178.9360  175.1210  137.6520 C   0  0  0  0  0  2  0  0  0  0  0  0
  1 26  1  0  0  0  0
  3  7  1  6  0  0  0
  3 16  1  0  0  0  0
  4 23  2  0  0  0  0
  5 15  2  0  0  0  0
  6 19  2  0  0  0  0
  8 12  1  0  0  0  0
  9 13  1  1  0  0  0
  9 27  1  0  0  0  0
 10 17  1  0  0  0  0
 11 20  2  0  0  0  0
 11  5  1  0  0  0  0
 13 20  1  0  0  0  0
 14  2  1  0  0  0  0
 15  4  1  0  0  0  0
 15 12  1  0  0  0  0
 16  8  1  0  0  0  0
 17 28  1  6  0  0  0
 17 25  1  0  0  0  0
 18  1  2  0  0  0  0
 18  4  1  0  0  0  0
 19  3  1  0  0  0  0
 19  5  1  0  0  0  0
 20 18  1  0  0  0  0
 22 10  1  0  0  0  0
 22 24  1  0  0  0  0
 23 21  1  0  0  0  0
 24 13  1  0  0  0  0
 25  9  1  0  0  0  0
 25 14  1  1  0  0  0
 26 21  2  0  0  0  0
 27  2  1  1  0  0  0
 27  1  1  0  0  0  0
 29 28  1  0  0  0  0
 30 33  1  0  0  0  0
 32 29  1  6  0  0  0
 32 31  1  0  0  0  0
 33 31  1  0  0  0  0
 34 30  1  0  0  0  0
 34 32  1  0  0  0  0
M  END
>  <MODEL>
4

>  <REMARK>
 VINA RESULT:      -8.6      2.662      3.207
  Name = 
  3 active torsions:
  status: ('A' for Active; 'I' for Inactive)
    1  A    between atoms: C_17  and  C_28
    2  A    between atoms: C_28  and  O_29
    3  A    between atoms: O_29  and  C_32
                            x       y       z     vdW  Elec       q    Type
                         _______ _______ _______ _____ _____    ______ ____

>  <TORSDO>
F 3

$$$$
=
 OpenBabel11122412203D

 34 40  0  0  1  0  0  0  0  0999 V2000
  184.9990  178.4850  139.9580 C   0  0  0  0  0  0  0  0  0  0  0  0
  183.8560  177.7760  137.8510 C   0  0  0  0  0  2  0  0  0  0  0  0
  190.2240  178.2260  144.0750 C   0  0  2  0  0  3  0  0  0  0  0  0
  186.2260  178.2440  142.0650 C   0  0  0  0  0  0  0  0  0  0  0  0
  188.6520  178.0580  142.0060 C   0  0  0  0  0  0  0  0  0  0  0  0
  190.9490  177.4880  141.9140 O   0  0  0  0  0  0  0  0  0  0  0  0
  191.6850  178.5110  144.3850 C   0  0  0  0  0  1  0  0  0  0  0  0
  188.2350  176.7620  144.7280 C   0  0  0  0  0  2  0  0  0  0  0  0
  186.2270  178.1880  137.7410 C   0  0  1  0  0  3  0  0  0  0  0  0
  187.9970  177.0060  135.9290 O   0  0  0  0  0  0  0  0  0  0  0  0
  188.5940  178.1410  140.6490 N   0  0  0  0  0  0  0  0  0  0  0  0
  187.4270  177.9670  144.2610 C   0  0  0  0  0  2  0  0  0  0  0  0
  187.4520  178.3490  138.5260 N   0  0  0  0  0  0  0  0  0  0  0  0
  184.5220  176.5920  137.1650 C   0  0  0  0  0  2  0  0  0  0  0  0
  187.4460  178.0880  142.7560 C   0  0  0  0  0  0  0  0  0  0  0  0
  189.6970  177.1270  144.9970 C   0  0  0  0  0  2  0  0  0  0  0  0
  186.8190  176.2610  136.1890 C   0  0  2  0  0  3  0  0  0  0  0  0
  186.2170  178.3320  140.6520 C   0  0  0  0  0  0  0  0  0  0  0  0
  189.9920  177.9050  142.6250 C   0  0  0  0  0  0  0  0  0  0  0  0
  187.4310  178.2710  139.9590 C   0  0  0  0  0  0  0  0  0  0  0  0
  183.8080  178.4950  142.0770 C   0  0  0  0  0  3  0  0  0  0  0  0
  188.8450  176.9730  137.0530 C   0  0  0  0  0  2  0  0  0  0  0  0
  185.0100  178.3200  142.7620 C   0  0  0  0  0  3  0  0  0  0  0  0
  188.7270  178.2880  137.8160 C   0  0  0  0  0  2  0  0  0  0  0  0
  186.0090  176.7260  137.4110 C   0  0  1  0  0  3  0  0  0  0  0  0
  183.8050  178.5870  140.6870 C   0  0  0  0  0  3  0  0  0  0  0  0
  184.9570  178.6460  138.4530 C   0  0  2  0  0  3  0  0  0  0  0  0
  187.0800  174.7600  136.2320 C   0  0  0  0  0  2  0  0  0  0  0  0
  187.7700  174.3660  135.0830 O   0  0  0  0  0  0  0  0  0  0  0  0
  190.7990  173.6080  135.2790 O   0  0  0  0  0  0  0  0  0  0  0  0
  189.0360  173.4240  136.8420 C   0  0  0  0  0  2  0  0  0  0  0  0
  188.4720  173.2220  135.4660 C   0  0  2  0  0  3  0  0  0  0  0  0
  190.5320  173.3810  136.6370 C   0  0  0  0  0  2  0  0  0  0  0  0
  189.7000  173.0700  134.5960 C   0  0  0  0  0  2  0  0  0  0  0  0
  1 18  2  0  0  0  0
  1 26  1  0  0  0  0
  3  7  1  6  0  0  0
  3 16  1  0  0  0  0
  4 15  1  0  0  0  0
  4 23  2  0  0  0  0
  5 19  1  0  0  0  0
  5 15  2  0  0  0  0
  6 19  2  0  0  0  0
  8 16  1  0  0  0  0
  9 27  1  0  0  0  0
  9 13  1  1  0  0  0
 10 17  1  0  0  0  0
 10 22  1  0  0  0  0
 11  5  1  0  0  0  0
 12  8  1  0  0  0  0
 13 20  1  0  0  0  0
 14  2  1  0  0  0  0
 15 12  1  0  0  0  0
 17 28  1  1  0  0  0
 17 25  1  0  0  0  0
 18  4  1  0  0  0  0
 19  3  1  0  0  0  0
 20 11  2  0  0  0  0
 20 18  1  0  0  0  0
 21 23  1  0  0  0  0
 22 24  1  0  0  0  0
 24 13  1  0  0  0  0
 25 14  1  6  0  0  0
 25  9  1  0  0  0  0
 26 21  2  0  0  0  0
 27  2  1  6  0  0  0
 27  1  1  0  0  0  0
 29 28  1  0  0  0  0
 30 33  1  0  0  0  0
 32 29  1  6  0  0  0
 32 31  1  0  0  0  0
 33 31  1  0  0  0  0
 34 30  1  0  0  0  0
 34 32  1  0  0  0  0
M  END
>  <MODEL>
5

>  <REMARK>
 VINA RESULT:      -8.4      2.199      3.127
  Name = 
  3 active torsions:
  status: ('A' for Active; 'I' for Inactive)
    1  A    between atoms: C_17  and  C_28
    2  A    between atoms: C_28  and  O_29
    3  A    between atoms: O_29  and  C_32
                            x       y       z     vdW  Elec       q    Type
                         _______ _______ _______ _____ _____    ______ ____

>  <TORSDO>
F 3

$$$$
=
 OpenBabel11122412203D

 34 40  0  0  1  0  0  0  0  0999 V2000
  183.7390  178.9470  143.2070 C   0  0  0  0  0  0  0  0  0  0  0  0
  181.3800  178.6820  142.4240 C   0  0  0  0  0  2  0  0  0  0  0  0
  190.2440  177.7210  142.4990 C   0  0  2  0  0  3  0  0  0  0  0  0
  186.0100  178.2760  143.8370 C   0  0  0  0  0  0  0  0  0  0  0  0
  187.6870  177.9980  142.0950 C   0  0  0  0  0  0  0  0  0  0  0  0
  189.1880  177.3550  140.3800 O   0  0  0  0  0  0  0  0  0  0  0  0
  191.5500  177.8810  141.7360 C   0  0  0  0  0  1  0  0  0  0  0  0
  189.0250  176.2510  144.1960 C   0  0  0  0  0  2  0  0  0  0  0  0
  183.0760  179.0030  140.7440 C   0  0  1  0  0  3  0  0  0  0  0  0
  182.9400  178.0930  138.1040 O   0  0  0  0  0  0  0  0  0  0  0  0
  186.7400  178.3280  141.1750 N   0  0  0  0  0  0  0  0  0  0  0  0
  188.3160  177.5550  144.5450 C   0  0  0  0  0  2  0  0  0  0  0  0
  184.5140  178.9660  140.4710 N   0  0  0  0  0  0  0  0  0  0  0  0
  181.2100  177.6130  141.3530 C   0  0  0  0  0  2  0  0  0  0  0  0
  187.3310  177.9450  143.4680 C   0  0  0  0  0  0  0  0  0  0  0  0
  190.3160  176.4970  143.4120 C   0  0  0  0  0  2  0  0  0  0  0  0
  182.1510  177.3640  139.0310 C   0  0  2  0  0  3  0  0  0  0  0  0
  185.0610  178.6180  142.8430 C   0  0  0  0  0  0  0  0  0  0  0  0
  189.0460  177.6780  141.5920 C   0  0  0  0  0  0  0  0  0  0  0  0
  185.4560  178.6310  141.5010 C   0  0  0  0  0  0  0  0  0  0  0  0
  184.3180  178.6260  145.5460 C   0  0  0  0  0  3  0  0  0  0  0  0
  184.3050  177.8190  138.3160 C   0  0  0  0  0  2  0  0  0  0  0  0
  185.6180  178.2780  145.1850 C   0  0  0  0  0  3  0  0  0  0  0  0
  184.9420  178.9790  139.0750 C   0  0  0  0  0  2  0  0  0  0  0  0
  182.4680  177.6360  140.5120 C   0  0  1  0  0  3  0  0  0  0  0  0
  183.3890  178.9680  144.5660 C   0  0  0  0  0  3  0  0  0  0  0  0
  182.7160  179.3800  142.1780 C   0  0  2  0  0  3  0  0  0  0  0  0
  182.1330  175.8700  138.7300 C   0  0  0  0  0  2  0  0  0  0  0  0
  181.3790  175.6280  137.5800 O   0  0  0  0  0  0  0  0  0  0  0  0
  183.6770  175.3630  135.4730 O   0  0  0  0  0  0  0  0  0  0  0  0
  183.3640  174.3470  137.5850 C   0  0  0  0  0  2  0  0  0  0  0  0
  182.0180  174.5560  136.9550 C   0  0  2  0  0  3  0  0  0  0  0  0
  184.3410  174.6280  136.4670 C   0  0  0  0  0  2  0  0  0  0  0  0
  182.3460  174.9280  135.5260 C   0  0  0  0  0  2  0  0  0  0  0  0
  1 26  1  0  0  0  0
  3  7  1  6  0  0  0
  3 16  1  0  0  0  0
  4 23  2  0  0  0  0
  5 15  2  0  0  0  0
  6 19  2  0  0  0  0
  8 12  1  0  0  0  0
  9 13  1  1  0  0  0
  9 27  1  0  0  0  0
 10 22  1  0  0  0  0
 10 17  1  0  0  0  0
 11 20  2  0  0  0  0
 11  5  1  0  0  0  0
 13 20  1  0  0  0  0
 14  2  1  0  0  0  0
 15  4  1  0  0  0  0
 15 12  1  0  0  0  0
 16  8  1  0  0  0  0
 17 28  1  6  0  0  0
 17 25  1  0  0  0  0
 18  1  2  0  0  0  0
 18  4  1  0  0  0  0
 19  5  1  0  0  0  0
 19  3  1  0  0  0  0
 20 18  1  0  0  0  0
 22 24  1  0  0  0  0
 23 21  1  0  0  0  0
 24 13  1  0  0  0  0
 25  9  1  0  0  0  0
 25 14  1  1  0  0  0
 26 21  2  0  0  0  0
 27  2  1  1  0  0  0
 27  1  1  0  0  0  0
 29 28  1  0  0  0  0
 30 34  1  0  0  0  0
 30 33  1  0  0  0  0
 32 29  1  1  0  0  0
 32 31  1  0  0  0  0
 33 31  1  0  0  0  0
 34 32  1  0  0  0  0
M  END
>  <MODEL>
6

>  <REMARK>
 VINA RESULT:      -8.2      1.287      1.579
  Name = 
  3 active torsions:
  status: ('A' for Active; 'I' for Inactive)
    1  A    between atoms: C_17  and  C_28
    2  A    between atoms: C_28  and  O_29
    3  A    between atoms: O_29  and  C_32
                            x       y       z     vdW  Elec       q    Type
                         _______ _______ _______ _____ _____    ______ ____

>  <TORSDO>
F 3

$$$$
=
 OpenBabel11122412203D

 34 40  0  0  1  0  0  0  0  0999 V2000
  191.1690  176.0930  138.2720 C   0  0  0  0  0  0  0  0  0  0  0  0
  192.1880  177.2530  140.2380 C   0  0  0  0  0  2  0  0  0  0  0  0
  185.9050  173.3390  135.2670 C   0  0  2  0  0  3  0  0  0  0  0  0
  189.8650  174.4150  137.0520 C   0  0  0  0  0  0  0  0  0  0  0  0
  187.4580  174.7080  136.8470 C   0  0  0  0  0  0  0  0  0  0  0  0
  185.0950  174.7940  136.9900 O   0  0  0  0  0  0  0  0  0  0  0  0
  184.5310  173.4550  134.6270 C   0  0  0  0  0  1  0  0  0  0  0  0
  187.5190  171.7010  136.3810 C   0  0  0  0  0  2  0  0  0  0  0  0
  189.9630  177.9140  139.5920 C   0  0  1  0  0  3  0  0  0  0  0  0
  188.0280  178.9860  141.3020 O   0  0  0  0  0  0  0  0  0  0  0  0
  187.5670  175.8540  137.5730 N   0  0  0  0  0  0  0  0  0  0  0  0
  188.5770  172.6400  135.8150 C   0  0  0  0  0  2  0  0  0  0  0  0
  188.7810  177.5390  138.8150 N   0  0  0  0  0  0  0  0  0  0  0  0
  191.3020  177.2460  141.4760 C   0  0  0  0  0  2  0  0  0  0  0  0
  188.6220  173.9390  136.5830 C   0  0  0  0  0  0  0  0  0  0  0  0
  186.1620  171.8960  135.7010 C   0  0  0  0  0  2  0  0  0  0  0  0
  189.0130  178.1870  141.9370 C   0  0  2  0  0  3  0  0  0  0  0  0
  189.9290  175.6160  137.7990 C   0  0  0  0  0  0  0  0  0  0  0  0
  186.1000  174.3100  136.3990 C   0  0  0  0  0  0  0  0  0  0  0  0
  188.7480  176.3220  138.0540 C   0  0  0  0  0  0  0  0  0  0  0  0
  192.2800  174.1990  137.2310 C   0  0  0  0  0  3  0  0  0  0  0  0
  187.1640  178.1720  140.5440 C   0  0  0  0  0  2  0  0  0  0  0  0
  191.0510  173.7140  136.7840 C   0  0  0  0  0  3  0  0  0  0  0  0
  187.5410  178.2670  139.0690 C   0  0  0  0  0  2  0  0  0  0  0  0
  189.8720  177.3340  140.9880 C   0  0  1  0  0  3  0  0  0  0  0  0
  192.3380  175.3840  137.9600 C   0  0  0  0  0  3  0  0  0  0  0  0
  191.2830  177.4060  139.0180 C   0  0  2  0  0  3  0  0  0  0  0  0
  188.4370  177.3490  143.0730 C   0  0  0  0  0  2  0  0  0  0  0  0
  188.4350  178.0930  144.2550 O   0  0  0  0  0  0  0  0  0  0  0  0
  188.9320  177.9950  147.3430 O   0  0  0  0  0  0  0  0  0  0  0  0
  186.9870  177.6040  146.0570 C   0  0  0  0  0  2  0  0  0  0  0  0
  188.1790  177.1600  145.2610 C   0  0  2  0  0  3  0  0  0  0  0  0
  187.5400  177.8490  147.4410 C   0  0  0  0  0  2  0  0  0  0  0  0
  189.3080  177.1800  146.2660 C   0  0  0  0  0  2  0  0  0  0  0  0
  1 27  1  0  0  0  0
  2 14  1  0  0  0  0
  3  7  1  1  0  0  0
  3 16  1  0  0  0  0
  3 19  1  0  0  0  0
  4 18  1  0  0  0  0
  5 11  1  0  0  0  0
  9 13  1  6  0  0  0
  9 25  1  0  0  0  0
 10 17  1  0  0  0  0
 11 20  2  0  0  0  0
 12  8  1  0  0  0  0
 12 15  1  0  0  0  0
 13 24  1  0  0  0  0
 15  5  2  0  0  0  0
 15  4  1  0  0  0  0
 16  8  1  0  0  0  0
 17 28  1  1  0  0  0
 18 20  1  0  0  0  0
 18  1  2  0  0  0  0
 19  5  1  0  0  0  0
 19  6  2  0  0  0  0
 20 13  1  0  0  0  0
 21 26  2  0  0  0  0
 22 10  1  0  0  0  0
 23  4  2  0  0  0  0
 23 21  1  0  0  0  0
 24 22  1  0  0  0  0
 25 14  1  1  0  0  0
 25 17  1  0  0  0  0
 26  1  1  0  0  0  0
 27  9  1  0  0  0  0
 27  2  1  1  0  0  0
 28 29  1  0  0  0  0
 30 33  1  0  0  0  0
 31 33  1  0  0  0  0
 32 29  1  6  0  0  0
 32 31  1  0  0  0  0
 32 34  1  0  0  0  0
 34 30  1  0  0  0  0
M  END
>  <MODEL>
7

>  <REMARK>
 VINA RESULT:      -7.8      3.228      9.107
  Name = 
  3 active torsions:
  status: ('A' for Active; 'I' for Inactive)
    1  A    between atoms: C_17  and  C_28
    2  A    between atoms: C_28  and  O_29
    3  A    between atoms: O_29  and  C_32
                            x       y       z     vdW  Elec       q    Type
                         _______ _______ _______ _____ _____    ______ ____

>  <TORSDO>
F 3

$$$$
=
 OpenBabel11122412203D

 34 40  0  0  1  0  0  0  0  0999 V2000
  186.1240  174.6410  136.4730 C   0  0  0  0  0  0  0  0  0  0  0  0
  188.3940  173.6190  136.2480 C   0  0  0  0  0  2  0  0  0  0  0  0
  182.1170  179.3500  138.9420 C   0  0  2  0  0  3  0  0  0  0  0  0
  184.1720  175.6100  137.5940 C   0  0  0  0  0  0  0  0  0  0  0  0
  184.1860  177.9780  138.1550 C   0  0  0  0  0  0  0  0  0  0  0  0
  184.3660  180.1670  139.0400 O   0  0  0  0  0  0  0  0  0  0  0  0
  181.6660  180.7990  139.0250 C   0  0  0  0  0  1  0  0  0  0  0  0
  182.0870  177.1170  140.1840 C   0  0  0  0  0  2  0  0  0  0  0  0
  188.2540  176.0240  136.2260 C   0  0  1  0  0  3  0  0  0  0  0  0
  190.2820  177.7740  137.0270 O   0  0  0  0  0  0  0  0  0  0  0  0
  185.4350  178.0650  137.6230 N   0  0  0  0  0  0  0  0  0  0  0  0
  182.1510  176.5390  138.7740 C   0  0  0  0  0  2  0  0  0  0  0  0
  187.4090  177.1770  136.5400 N   0  0  0  0  0  0  0  0  0  0  0  0
  189.4120  174.1720  137.2360 C   0  0  0  0  0  2  0  0  0  0  0  0
  183.5240  176.7220  138.1710 C   0  0  0  0  0  0  0  0  0  0  0  0
  181.6480  178.5820  140.1780 C   0  0  0  0  0  2  0  0  0  0  0  0
  190.3410  176.4820  137.6080 C   0  0  2  0  0  3  0  0  0  0  0  0
  185.4710  175.7510  137.0480 C   0  0  0  0  0  0  0  0  0  0  0  0
  183.5990  179.2160  138.7250 C   0  0  0  0  0  0  0  0  0  0  0  0
  186.0900  177.0050  137.0810 C   0  0  0  0  0  0  0  0  0  0  0  0
  184.1810  173.2640  136.9590 C   0  0  0  0  0  3  0  0  0  0  0  0
  189.2000  178.4950  137.5700 C   0  0  0  0  0  2  0  0  0  0  0  0
  183.5450  174.3550  137.5490 C   0  0  0  0  0  3  0  0  0  0  0  0
  188.0410  178.4930  136.5780 C   0  0  0  0  0  2  0  0  0  0  0  0
  189.0700  175.6320  137.4410 C   0  0  1  0  0  3  0  0  0  0  0  0
  185.4560  173.4090  136.4170 C   0  0  0  0  0  3  0  0  0  0  0  0
  187.4850  174.7690  135.8220 C   0  0  2  0  0  3  0  0  0  0  0  0
  190.8000  176.5190  139.0610 C   0  0  0  0  0  2  0  0  0  0  0  0
  189.7210  176.2420  139.9050 O   0  0  0  0  0  0  0  0  0  0  0  0
  188.0070  177.0080  142.4070 O   0  0  0  0  0  0  0  0  0  0  0  0
  190.2220  176.2070  142.2140 C   0  0  0  0  0  2  0  0  0  0  0  0
  189.9210  177.0610  141.0170 C   0  0  2  0  0  3  0  0  0  0  0  0
  189.0650  176.4640  143.1500 C   0  0  0  0  0  2  0  0  0  0  0  0
  188.6200  177.7410  141.3820 C   0  0  0  0  0  2  0  0  0  0  0  0
  1 18  1  0  0  0  0
  2 14  1  0  0  0  0
  3  7  1  1  0  0  0
  3 16  1  0  0  0  0
  4 15  1  0  0  0  0
  5 15  2  0  0  0  0
  5 19  1  0  0  0  0
  9 13  1  1  0  0  0
  9 25  1  0  0  0  0
 10 22  1  0  0  0  0
 10 17  1  0  0  0  0
 11  5  1  0  0  0  0
 12  8  1  0  0  0  0
 13 24  1  0  0  0  0
 13 20  1  0  0  0  0
 15 12  1  0  0  0  0
 16  8  1  0  0  0  0
 17 28  1  1  0  0  0
 18 20  1  0  0  0  0
 18  4  2  0  0  0  0
 19  3  1  0  0  0  0
 19  6  2  0  0  0  0
 20 11  2  0  0  0  0
 21 23  2  0  0  0  0
 23  4  1  0  0  0  0
 24 22  1  0  0  0  0
 25 14  1  6  0  0  0
 25 17  1  0  0  0  0
 26  1  2  0  0  0  0
 26 21  1  0  0  0  0
 27  9  1  0  0  0  0
 27  2  1  1  0  0  0
 27  1  1  0  0  0  0
 28 29  1  0  0  0  0
 30 33  1  0  0  0  0
 31 33  1  0  0  0  0
 32 29  1  6  0  0  0
 32 34  1  0  0  0  0
 32 31  1  0  0  0  0
 34 30  1  0  0  0  0
M  END
>  <MODEL>
8

>  <REMARK>
 VINA RESULT:      -7.3      2.854      7.428
  Name = 
  3 active torsions:
  status: ('A' for Active; 'I' for Inactive)
    1  A    between atoms: C_17  and  C_28
    2  A    between atoms: C_28  and  O_29
    3  A    between atoms: O_29  and  C_32
                            x       y       z     vdW  Elec       q    Type
                         _______ _______ _______ _____ _____    ______ ____

>  <TORSDO>
F 3

$$$$
=
 OpenBabel11122412203D

 34 40  0  0  1  0  0  0  0  0999 V2000
  187.2330  176.6540  136.9510 C   0  0  0  0  0  0  0  0  0  0  0  0
  188.6840  178.1690  138.3110 C   0  0  0  0  0  2  0  0  0  0  0  0
  181.7090  172.9990  136.2760 C   0  0  2  0  0  3  0  0  0  0  0  0
  185.8440  174.7020  136.4340 C   0  0  0  0  0  0  0  0  0  0  0  0
  183.4950  174.7210  137.0690 C   0  0  0  0  0  0  0  0  0  0  0  0
  181.3350  174.5880  138.0300 O   0  0  0  0  0  0  0  0  0  0  0  0
  180.1980  172.8880  136.1560 C   0  0  0  0  0  1  0  0  0  0  0  0
  183.8200  171.7000  136.8950 C   0  0  0  0  0  2  0  0  0  0  0  0
  186.3020  178.5080  138.4360 C   0  0  1  0  0  3  0  0  0  0  0  0
  184.9310  179.6050  140.6120 O   0  0  0  0  0  0  0  0  0  0  0  0
  183.6800  175.9600  137.5980 N   0  0  0  0  0  0  0  0  0  0  0  0
  184.4790  172.6540  135.9050 C   0  0  0  0  0  2  0  0  0  0  0  0
  184.9920  177.9140  138.1660 N   0  0  0  0  0  0  0  0  0  0  0  0
  188.2810  178.2420  139.7780 C   0  0  0  0  0  2  0  0  0  0  0  0
  184.5970  174.0440  136.4830 C   0  0  0  0  0  0  0  0  0  0  0  0
  182.3000  171.6620  136.7230 C   0  0  0  0  0  2  0  0  0  0  0  0
  186.1750  179.0040  140.9290 C   0  0  2  0  0  3  0  0  0  0  0  0
  185.9870  175.9940  136.9940 C   0  0  0  0  0  0  0  0  0  0  0  0
  182.1370  174.1310  137.1690 C   0  0  0  0  0  0  0  0  0  0  0  0
  184.8760  176.6060  137.5830 C   0  0  0  0  0  0  0  0  0  0  0  0
  188.1810  174.7550  135.7660 C   0  0  0  0  0  3  0  0  0  0  0  0
  183.9860  178.6120  140.2890 C   0  0  0  0  0  2  0  0  0  0  0  0
  186.9560  174.0940  135.8300 C   0  0  0  0  0  3  0  0  0  0  0  0
  183.8210  178.5420  138.7740 C   0  0  0  0  0  2  0  0  0  0  0  0
  186.7730  178.1190  139.8220 C   0  0  1  0  0  3  0  0  0  0  0  0
  188.3150  176.0290  136.3130 C   0  0  0  0  0  3  0  0  0  0  0  0
  187.4060  178.0610  137.4820 C   0  0  2  0  0  3  0  0  0  0  0  0
  186.1450  178.2760  142.2680 C   0  0  0  0  0  2  0  0  0  0  0  0
  185.5170  179.0750  143.2260 O   0  0  0  0  0  0  0  0  0  0  0  0
  187.0010  178.1910  145.8350 O   0  0  0  0  0  0  0  0  0  0  0  0
  184.8080  179.0000  145.4790 C   0  0  0  0  0  2  0  0  0  0  0  0
  185.2210  178.2040  144.2760 C   0  0  2  0  0  3  0  0  0  0  0  0
  185.8770  178.6990  146.5030 C   0  0  0  0  0  2  0  0  0  0  0  0
  186.4860  177.5070  144.7240 C   0  0  0  0  0  2  0  0  0  0  0  0
  1 18  1  0  0  0  0
  1 27  1  0  0  0  0
  2 14  1  0  0  0  0
  3  7  1  1  0  0  0
  3 16  1  0  0  0  0
  3 19  1  0  0  0  0
  4 15  2  0  0  0  0
  4 18  1  0  0  0  0
  5 19  1  0  0  0  0
  5 11  2  0  0  0  0
  9 13  1  6  0  0  0
  9 25  1  0  0  0  0
 10 17  1  0  0  0  0
 12 15  1  0  0  0  0
 12  8  1  0  0  0  0
 13 24  1  0  0  0  0
 15  5  1  0  0  0  0
 16  8  1  0  0  0  0
 17 28  1  1  0  0  0
 18 20  2  0  0  0  0
 19  6  2  0  0  0  0
 20 11  1  0  0  0  0
 20 13  1  0  0  0  0
 21 23  2  0  0  0  0
 21 26  1  0  0  0  0
 22 10  1  0  0  0  0
 23  4  1  0  0  0  0
 24 22  1  0  0  0  0
 25 14  1  6  0  0  0
 25 17  1  0  0  0  0
 26  1  2  0  0  0  0
 27  2  1  1  0  0  0
 27  9  1  0  0  0  0
 28 29  1  0  0  0  0
 30 33  1  0  0  0  0
 31 33  1  0  0  0  0
 32 29  1  6  0  0  0
 32 34  1  0  0  0  0
 32 31  1  0  0  0  0
 34 30  1  0  0  0  0
M  END
>  <MODEL>
9

>  <REMARK>
 VINA RESULT:      -7.2      2.465      8.429
  Name = 
  3 active torsions:
  status: ('A' for Active; 'I' for Inactive)
    1  A    between atoms: C_17  and  C_28
    2  A    between atoms: C_28  and  O_29
    3  A    between atoms: O_29  and  C_32
                            x       y       z     vdW  Elec       q    Type
                         _______ _______ _______ _____ _____    ______ ____

>  <TORSDO>
F 3

$$$$
