=
 OpenBabel11122410353D

 32 38  0  0  1  0  0  0  0  0999 V2000
  190.9520  176.5910  137.1520 N   0  0  2  0  0  0  0  0  0  0  0  0
  189.1110  177.9430  142.0300 C   0  0  0  0  0  0  0  0  0  0  0  0
  184.3000  178.7290  141.8000 C   0  0  0  0  0  3  0  0  0  0  0  0
  184.1700  178.5610  143.1800 C   0  0  0  0  0  3  0  0  0  0  0  0
  190.3030  177.5430  144.2580 C   0  0  2  0  0  3  0  0  0  0  0  0
  190.0200  177.3850  145.7140 C   0  0  0  0  0  0  0  0  0  0  0  0
  190.3340  177.0560  140.0250 C   0  0  1  0  0  3  0  0  0  0  0  0
  188.0150  177.9280  139.9050 O   0  0  0  0  0  0  0  0  0  0  0  0
  188.9430  177.3600  147.6810 C   0  0  0  0  0  0  0  0  0  0  0  0
  188.7480  176.7660  137.9340 C   0  0  0  0  0  2  0  0  0  0  0  0
  185.5470  178.5670  141.1930 C   0  0  0  0  0  3  0  0  0  0  0  0
  187.9820  178.0470  141.3030 C   0  0  0  0  0  0  0  0  0  0  0  0
  186.6750  178.2480  141.9620 C   0  0  0  0  0  0  0  0  0  0  0  0
  187.7500  177.6610  144.1620 C   0  0  2  0  0  3  0  0  0  0  0  0
  189.8310  176.4230  147.6690 N   0  0  0  0  0  0  0  0  0  0  0  0
  191.9180  176.1920  138.1610 C   0  0  0  0  0  2  0  0  0  0  0  0
  189.1860  177.6400  139.1370 C   0  0  2  0  0  3  0  0  0  0  0  0
  190.4830  176.4210  146.4340 N   0  0  0  0  0  0  0  0  0  0  0  0
  191.7330  177.1240  139.3680 C   0  0  0  0  0  2  0  0  0  0  0  0
  189.8200  175.7630  137.5890 C   0  0  1  0  0  3  0  0  0  0  0  0
  185.2860  178.2360  143.9520 C   0  0  0  0  0  3  0  0  0  0  0  0
  186.5510  178.0980  143.3570 C   0  0  0  0  0  0  0  0  0  0  0  0
  187.6150  178.0250  145.6600 C   0  0  0  0  0  2  0  0  0  0  0  0
  190.4250  177.8620  141.3110 C   0  0  0  0  0  2  0  0  0  0  0  0
  191.5250  178.4320  144.1010 C   0  0  0  0  0  1  0  0  0  0  0  0
  188.0880  177.6460  148.8640 C   0  0  0  0  0  1  0  0  0  0  0  0
  189.0810  178.1620  143.5370 C   0  0  2  0  0  3  0  0  0  0  0  0
  188.9460  178.1440  146.4130 C   0  0  2  0  0  3  0  0  0  0  0  0
  190.3210  175.6100  136.2340 C   0  0  2  0  0  3  0  0  0  0  0  0
  191.1390  174.3630  136.0840 C   0  0  0  0  0  0  0  0  0  0  0  0
  192.2380  174.3440  135.2340 O   0  0  0  0  0  0  0  0  0  0  0  0
  190.8560  173.3400  136.7600 O   0  0  0  0  0  1  0  0  0  0  0  0
  1 20  1  0  0  0  0
  1 16  1  1  0  0  0
  3  4  1  0  0  0  0
  4 21  2  0  0  0  0
  5 25  1  1  0  0  0
  5  6  1  0  0  0  0
  6 28  1  0  0  0  0
  6 18  2  0  0  0  0
  7 19  1  6  0  0  0
  7 24  1  0  0  0  0
  8 12  1  0  0  0  0
  9 26  1  0  0  0  0
 11  3  2  0  0  0  0
 11 13  1  0  0  0  0
 12 13  1  0  0  0  0
 12  2  2  0  0  0  0
 13 22  2  0  0  0  0
 14 23  1  1  0  0  0
 15  9  2  0  0  0  0
 16 19  1  0  0  0  0
 17 10  1  6  0  0  0
 17  8  1  0  0  0  0
 17  7  1  0  0  0  0
 18 15  1  0  0  0  0
 20 10  1  6  0  0  0
 22 21  1  0  0  0  0
 22 14  1  0  0  0  0
 24  2  1  0  0  0  0
 27  2  1  6  0  0  0
 27 14  1  0  0  0  0
 27  5  1  0  0  0  0
 28 23  1  6  0  0  0
 28  9  1  0  0  0  0
 29 30  1  1  0  0  0
 29  1  1  0  0  0  0
 29 20  1  0  0  0  0
 30 32  1  0  0  0  0
 31 30  2  0  0  0  0
M  END
>  <MODEL>
1

>  <REMARK>
 VINA RESULT:     -11.1      0.000      0.000
  Name = 
  1 active torsions:
  status: ('A' for Active; 'I' for Inactive)
    1  A    between atoms: C_29  and  C_30
                            x       y       z     vdW  Elec       q    Type
                         _______ _______ _______ _____ _____    ______ ____

>  <TORSDO>
F 1

$$$$
=
 OpenBabel11122410353D

 32 38  0  0  1  0  0  0  0  0999 V2000
  186.0380  178.2180  137.2010 N   0  0  2  0  0  0  0  0  0  0  0  0
  188.1430  178.1100  142.1580 C   0  0  0  0  0  0  0  0  0  0  0  0
  184.6000  178.7520  145.4520 C   0  0  0  0  0  3  0  0  0  0  0  0
  185.3920  178.2070  146.4640 C   0  0  0  0  0  3  0  0  0  0  0  0
  190.4260  177.1580  142.8080 C   0  0  2  0  0  3  0  0  0  0  0  0
  191.1590  176.5970  143.9800 C   0  0  0  0  0  0  0  0  0  0  0  0
  187.5660  177.8530  139.7280 C   0  0  1  0  0  3  0  0  0  0  0  0
  185.9310  178.6390  141.4210 O   0  0  0  0  0  0  0  0  0  0  0  0
  191.6720  175.9930  146.0790 C   0  0  0  0  0  0  0  0  0  0  0  0
  184.9730  178.0910  139.2870 C   0  0  0  0  0  2  0  0  0  0  0  0
  185.0830  178.8080  144.1430 C   0  0  0  0  0  3  0  0  0  0  0  0
  186.8530  178.3680  142.4440 C   0  0  0  0  0  0  0  0  0  0  0  0
  186.3660  178.3330  143.8380 C   0  0  0  0  0  0  0  0  0  0  0  0
  188.5160  177.2040  144.5070 C   0  0  2  0  0  3  0  0  0  0  0  0
  192.1620  175.1280  145.2540 N   0  0  0  0  0  0  0  0  0  0  0  0
  187.3480  177.5940  137.1570 C   0  0  0  0  0  2  0  0  0  0  0  0
  186.2320  178.6160  140.0230 C   0  0  2  0  0  3  0  0  0  0  0  0
  191.8200  175.4890  143.9490 N   0  0  0  0  0  0  0  0  0  0  0  0
  188.1640  178.1510  138.3340 C   0  0  0  0  0  2  0  0  0  0  0  0
  185.3670  177.2610  138.0910 C   0  0  1  0  0  3  0  0  0  0  0  0
  186.6670  177.7230  146.1690 C   0  0  0  0  0  3  0  0  0  0  0  0
  187.1750  177.8010  144.8610 C   0  0  0  0  0  0  0  0  0  0  0  0
  189.4690  177.1380  145.7250 C   0  0  0  0  0  2  0  0  0  0  0  0
  188.6140  178.2780  140.7440 C   0  0  0  0  0  2  0  0  0  0  0  0
  191.3600  178.1000  142.0670 C   0  0  0  0  0  1  0  0  0  0  0  0
  191.8770  175.9120  147.5500 C   0  0  0  0  0  1  0  0  0  0  0  0
  189.1560  177.9070  143.2780 C   0  0  2  0  0  3  0  0  0  0  0  0
  190.9600  177.0940  145.3690 C   0  0  2  0  0  3  0  0  0  0  0  0
  184.8100  177.5040  136.7720 C   0  0  2  0  0  3  0  0  0  0  0  0
  185.1080  176.3770  135.8290 C   0  0  0  0  0  0  0  0  0  0  0  0
  185.2370  175.0790  136.3070 O   0  0  0  0  0  1  0  0  0  0  0  0
  185.2020  176.5990  134.5940 O   0  0  0  0  0  0  0  0  0  0  0  0
  1 16  1  6  0  0  0
  1 20  1  0  0  0  0
  2 12  2  0  0  0  0
  3  4  1  0  0  0  0
  5 25  1  1  0  0  0
  5 27  1  0  0  0  0
  5  6  1  0  0  0  0
  6 28  1  0  0  0  0
  7 19  1  6  0  0  0
  7 17  1  0  0  0  0
  7 24  1  0  0  0  0
  8 12  1  0  0  0  0
  9 26  1  0  0  0  0
 11  3  2  0  0  0  0
 12 13  1  0  0  0  0
 13 11  1  0  0  0  0
 13 22  2  0  0  0  0
 14 22  1  0  0  0  0
 14 23  1  1  0  0  0
 15  9  2  0  0  0  0
 16 19  1  0  0  0  0
 17 10  1  6  0  0  0
 17  8  1  0  0  0  0
 18  6  2  0  0  0  0
 18 15  1  0  0  0  0
 20 10  1  1  0  0  0
 21  4  2  0  0  0  0
 22 21  1  0  0  0  0
 24  2  1  0  0  0  0
 27  2  1  6  0  0  0
 27 14  1  0  0  0  0
 28 23  1  1  0  0  0
 28  9  1  0  0  0  0
 29 30  1  6  0  0  0
 29  1  1  0  0  0  0
 29 20  1  0  0  0  0
 30 31  1  0  0  0  0
 32 30  2  0  0  0  0
M  END
>  <MODEL>
2

>  <REMARK>
 VINA RESULT:     -10.7      2.846      3.691
  Name = 
  1 active torsions:
  status: ('A' for Active; 'I' for Inactive)
    1  A    between atoms: C_29  and  C_30
                            x       y       z     vdW  Elec       q    Type
                         _______ _______ _______ _____ _____    ______ ____

>  <TORSDO>
F 1

$$$$
=
 OpenBabel11122410353D

 32 38  0  0  1  0  0  0  0  0999 V2000
  182.0240  178.3920  138.1550 N   0  0  2  0  0  0  0  0  0  0  0  0
  185.9310  178.4090  141.8640 C   0  0  0  0  0  0  0  0  0  0  0  0
  183.9610  178.8090  146.3100 C   0  0  0  0  0  3  0  0  0  0  0  0
  185.1210  178.3150  146.9090 C   0  0  0  0  0  3  0  0  0  0  0  0
  188.3370  177.6070  141.5260 C   0  0  2  0  0  3  0  0  0  0  0  0
  189.5070  177.0920  142.2940 C   0  0  0  0  0  0  0  0  0  0  0  0
  184.4510  178.1210  139.8570 C   0  0  1  0  0  3  0  0  0  0  0  0
  183.5810  178.7940  142.0810 O   0  0  0  0  0  0  0  0  0  0  0  0
  190.8480  176.5180  143.9990 C   0  0  0  0  0  0  0  0  0  0  0  0
  181.8870  178.1900  140.4880 C   0  0  0  0  0  2  0  0  0  0  0  0
  183.8790  178.9010  144.9190 C   0  0  0  0  0  3  0  0  0  0  0  0
  184.8490  178.5820  142.6450 C   0  0  0  0  0  0  0  0  0  0  0  0
  184.9600  178.5110  144.1170 C   0  0  0  0  0  0  0  0  0  0  0  0
  187.2610  177.5240  143.8440 C   0  0  2  0  0  3  0  0  0  0  0  0
  191.0190  175.6890  143.0230 N   0  0  0  0  0  0  0  0  0  0  0  0
  183.2430  177.8540  137.5760 C   0  0  0  0  0  2  0  0  0  0  0  0
  183.3020  178.7950  140.6780 C   0  0  2  0  0  3  0  0  0  0  0  0
  190.1650  176.0300  141.9720 N   0  0  0  0  0  0  0  0  0  0  0  0
  184.4260  178.4610  138.3480 C   0  0  0  0  0  2  0  0  0  0  0  0
  181.8210  177.3900  139.2110 C   0  0  1  0  0  3  0  0  0  0  0  0
  186.2000  177.9170  146.1170 C   0  0  0  0  0  3  0  0  0  0  0  0
  186.1400  178.0310  144.7190 C   0  0  0  0  0  0  0  0  0  0  0  0
  188.6220  177.5170  144.5810 C   0  0  0  0  0  2  0  0  0  0  0  0
  185.7900  178.6110  140.3840 C   0  0  0  0  0  2  0  0  0  0  0  0
  188.8400  178.6100  140.5020 C   0  0  0  0  0  1  0  0  0  0  0  0
  191.6260  176.4470  145.2640 C   0  0  0  0  0  1  0  0  0  0  0  0
  187.3160  178.2700  142.4830 C   0  0  2  0  0  3  0  0  0  0  0  0
  189.8490  177.5720  143.6610 C   0  0  2  0  0  3  0  0  0  0  0  0
  180.7710  177.6000  138.2290 C   0  0  2  0  0  3  0  0  0  0  0  0
  180.7350  176.4970  137.2140 C   0  0  0  0  0  0  0  0  0  0  0  0
  181.1080  175.2060  137.5680 O   0  0  0  0  0  1  0  0  0  0  0  0
  180.3280  176.7300  136.0460 O   0  0  0  0  0  0  0  0  0  0  0  0
  1 16  1  6  0  0  0
  1 29  1  0  0  0  0
  1 20  1  0  0  0  0
  2 12  2  0  0  0  0
  3  4  1  0  0  0  0
  5 25  1  6  0  0  0
  5  6  1  0  0  0  0
  5 27  1  0  0  0  0
  6 28  1  0  0  0  0
  7 19  1  6  0  0  0
  7 24  1  0  0  0  0
  7 17  1  0  0  0  0
  8 12  1  0  0  0  0
  9 26  1  0  0  0  0
 11  3  2  0  0  0  0
 12 13  1  0  0  0  0
 13 22  2  0  0  0  0
 13 11  1  0  0  0  0
 14 23  1  1  0  0  0
 14 22  1  0  0  0  0
 15  9  2  0  0  0  0
 16 19  1  0  0  0  0
 17 10  1  1  0  0  0
 17  8  1  0  0  0  0
 18  6  2  0  0  0  0
 18 15  1  0  0  0  0
 20 10  1  1  0  0  0
 21  4  2  0  0  0  0
 22 21  1  0  0  0  0
 24  2  1  0  0  0  0
 27  2  1  6  0  0  0
 27 14  1  0  0  0  0
 28  9  1  0  0  0  0
 28 23  1  1  0  0  0
 29 30  1  6  0  0  0
 29 20  1  0  0  0  0
 30 31  1  0  0  0  0
 32 30  2  0  0  0  0
M  END
>  <MODEL>
3

>  <REMARK>
 VINA RESULT:     -10.5      3.948      6.045
  Name = 
  1 active torsions:
  status: ('A' for Active; 'I' for Inactive)
    1  A    between atoms: C_29  and  C_30
                            x       y       z     vdW  Elec       q    Type
                         _______ _______ _______ _____ _____    ______ ____

>  <TORSDO>
F 1

$$$$
=
 OpenBabel11122410353D

 32 38  0  0  1  0  0  0  0  0999 V2000
  182.7200  179.0590  140.2120 N   0  0  2  0  0  0  0  0  0  0  0  0
  188.0200  178.1540  139.8770 C   0  0  0  0  0  0  0  0  0  0  0  0
  189.9160  177.8740  144.3650 C   0  0  0  0  0  3  0  0  0  0  0  0
  191.0440  177.2050  143.8860 C   0  0  0  0  0  3  0  0  0  0  0  0
  189.2740  177.2710  137.8300 C   0  0  2  0  0  3  0  0  0  0  0  0
  190.5260  176.5500  137.4580 C   0  0  0  0  0  0  0  0  0  0  0  0
  185.5340  178.3290  139.5740 C   0  0  1  0  0  3  0  0  0  0  0  0
  186.6450  178.6460  141.7700 O   0  0  0  0  0  0  0  0  0  0  0  0
  192.5500  175.5920  137.5920 C   0  0  0  0  0  0  0  0  0  0  0  0
  184.2520  178.4490  141.8800 C   0  0  0  0  0  2  0  0  0  0  0  0
  188.8860  178.2200  143.4870 C   0  0  0  0  0  3  0  0  0  0  0  0
  187.8710  178.2530  141.2120 C   0  0  0  0  0  0  0  0  0  0  0  0
  188.9820  177.9110  142.1240 C   0  0  0  0  0  0  0  0  0  0  0  0
  190.1780  176.8410  140.1830 C   0  0  2  0  0  3  0  0  0  0  0  0
  191.8270  174.9430  136.7410 N   0  0  0  0  0  0  0  0  0  0  0  0
  183.0430  178.5560  138.8880 C   0  0  0  0  0  2  0  0  0  0  0  0
  185.4560  178.9170  141.0220 C   0  0  2  0  0  3  0  0  0  0  0  0
  190.5580  175.5230  136.6780 N   0  0  0  0  0  0  0  0  0  0  0  0
  184.5020  178.9350  138.5940 C   0  0  0  0  0  2  0  0  0  0  0  0
  183.1570  177.8990  141.0010 C   0  0  1  0  0  3  0  0  0  0  0  0
  191.1440  176.8870  142.5310 C   0  0  0  0  0  3  0  0  0  0  0  0
  190.1280  177.2550  141.6340 C   0  0  0  0  0  0  0  0  0  0  0  0
  191.6280  176.6130  139.6890 C   0  0  0  0  0  2  0  0  0  0  0  0
  186.9060  178.6280  138.9910 C   0  0  0  0  0  2  0  0  0  0  0  0
  189.0640  178.4060  136.8430 C   0  0  0  0  0  1  0  0  0  0  0  0
  193.9680  175.2440  137.8770 C   0  0  0  0  0  1  0  0  0  0  0  0
  189.3780  177.8150  139.2750 C   0  0  2  0  0  3  0  0  0  0  0  0
  191.8160  176.7530  138.1730 C   0  0  2  0  0  3  0  0  0  0  0  0
  181.7810  178.3500  141.1170 C   0  0  2  0  0  3  0  0  0  0  0  0
  180.8410  177.4530  140.3700 C   0  0  0  0  0  0  0  0  0  0  0  0
  181.1570  176.1140  140.1730 O   0  0  0  0  0  1  0  0  0  0  0  0
  179.7410  177.9010  139.9550 O   0  0  0  0  0  0  0  0  0  0  0  0
  1 16  1  6  0  0  0
  1 20  1  0  0  0  0
  1 29  1  0  0  0  0
  2 12  2  0  0  0  0
  4  3  1  0  0  0  0
  5 25  1  6  0  0  0
  5 27  1  0  0  0  0
  6  5  1  0  0  0  0
  6 28  1  0  0  0  0
  7 19  1  6  0  0  0
  7 17  1  0  0  0  0
  9 26  1  0  0  0  0
  9 28  1  0  0  0  0
 11  3  2  0  0  0  0
 12  8  1  0  0  0  0
 12 13  1  0  0  0  0
 13 11  1  0  0  0  0
 14 23  1  6  0  0  0
 14 22  1  0  0  0  0
 15  9  2  0  0  0  0
 17  8  1  0  0  0  0
 17 10  1  1  0  0  0
 18 15  1  0  0  0  0
 18  6  2  0  0  0  0
 19 16  1  0  0  0  0
 20 29  1  0  0  0  0
 20 10  1  1  0  0  0
 21  4  2  0  0  0  0
 22 13  2  0  0  0  0
 22 21  1  0  0  0  0
 24  7  1  0  0  0  0
 24  2  1  0  0  0  0
 27  2  1  1  0  0  0
 27 14  1  0  0  0  0
 28 23  1  1  0  0  0
 29 30  1  6  0  0  0
 31 30  1  0  0  0  0
 32 30  2  0  0  0  0
M  END
>  <MODEL>
4

>  <REMARK>
 VINA RESULT:      -8.5      3.791      7.805
  Name = 
  1 active torsions:
  status: ('A' for Active; 'I' for Inactive)
    1  A    between atoms: C_29  and  C_30
                            x       y       z     vdW  Elec       q    Type
                         _______ _______ _______ _____ _____    ______ ____

>  <TORSDO>
F 1

$$$$
=
 OpenBabel11122410353D

 32 38  0  0  1  0  0  0  0  0999 V2000
  191.1870  176.3620  136.7100 N   0  0  2  0  0  0  0  0  0  0  0  0
  188.0680  178.1130  140.7380 C   0  0  0  0  0  0  0  0  0  0  0  0
  183.5970  179.0810  139.0400 C   0  0  0  0  0  3  0  0  0  0  0  0
  183.0540  179.0110  140.3240 C   0  0  0  0  0  3  0  0  0  0  0  0
  188.5210  177.8140  143.2370 C   0  0  2  0  0  3  0  0  0  0  0  0
  187.8110  177.7660  144.5480 C   0  0  0  0  0  0  0  0  0  0  0  0
  189.7750  177.0430  139.2390 C   0  0  1  0  0  3  0  0  0  0  0  0
  187.6510  178.0020  138.3860 O   0  0  0  0  0  0  0  0  0  0  0  0
  186.2010  177.9170  146.1020 C   0  0  0  0  0  0  0  0  0  0  0  0
  188.8640  176.6810  136.7870 C   0  0  0  0  0  2  0  0  0  0  0  0
  184.9560  178.8270  138.8420 C   0  0  0  0  0  3  0  0  0  0  0  0
  187.2140  178.2150  139.7020 C   0  0  0  0  0  0  0  0  0  0  0  0
  185.7850  178.5140  139.9280 C   0  0  0  0  0  0  0  0  0  0  0  0
  186.1230  178.0310  142.3770 C   0  0  2  0  0  3  0  0  0  0  0  0
  186.9950  176.9450  146.4050 N   0  0  0  0  0  0  0  0  0  0  0  0
  191.7850  175.9920  137.9800 C   0  0  0  0  0  2  0  0  0  0  0  0
  188.9790  177.6140  138.0190 C   0  0  2  0  0  3  0  0  0  0  0  0
  187.9830  176.8330  145.4230 N   0  0  0  0  0  0  0  0  0  0  0  0
  191.3070  177.0090  139.0280 C   0  0  0  0  0  2  0  0  0  0  0  0
  189.9290  175.6130  136.8310 C   0  0  1  0  0  3  0  0  0  0  0  0
  183.8710  178.6920  141.4100 C   0  0  0  0  0  3  0  0  0  0  0  0
  185.2440  178.4630  141.2280 C   0  0  0  0  0  0  0  0  0  0  0  0
  185.5730  178.5000  143.7450 C   0  0  0  0  0  2  0  0  0  0  0  0
  189.5290  177.9290  140.4500 C   0  0  0  0  0  2  0  0  0  0  0  0
  189.7860  178.6380  143.4080 C   0  0  0  0  0  1  0  0  0  0  0  0
  185.0530  178.3170  146.9590 C   0  0  0  0  0  1  0  0  0  0  0  0
  187.6070  178.4340  142.1540 C   0  0  2  0  0  3  0  0  0  0  0  0
  186.6260  178.6130  144.8550 C   0  0  2  0  0  3  0  0  0  0  0  0
  190.7980  175.3490  135.6970 C   0  0  2  0  0  3  0  0  0  0  0  0
  191.5480  174.0620  135.8630 C   0  0  0  0  0  0  0  0  0  0  0  0
  192.8610  173.9530  135.4210 O   0  0  0  0  0  0  0  0  0  0  0  0
  191.0030  173.0860  136.4420 O   0  0  0  0  0  1  0  0  0  0  0  0
  1 20  1  0  0  0  0
  1 16  1  1  0  0  0
  3  4  1  0  0  0  0
  4 21  2  0  0  0  0
  5 25  1  1  0  0  0
  5  6  1  0  0  0  0
  6 28  1  0  0  0  0
  6 18  2  0  0  0  0
  7 19  1  6  0  0  0
  7 24  1  0  0  0  0
  8 12  1  0  0  0  0
  9 15  2  0  0  0  0
  9 26  1  0  0  0  0
 11  3  2  0  0  0  0
 11 13  1  0  0  0  0
 12 13  1  0  0  0  0
 12  2  2  0  0  0  0
 13 22  2  0  0  0  0
 14 23  1  1  0  0  0
 16 19  1  0  0  0  0
 17 10  1  6  0  0  0
 17  8  1  0  0  0  0
 17  7  1  0  0  0  0
 18 15  1  0  0  0  0
 20 10  1  6  0  0  0
 22 21  1  0  0  0  0
 22 14  1  0  0  0  0
 24  2  1  0  0  0  0
 27  2  1  6  0  0  0
 27 14  1  0  0  0  0
 27  5  1  0  0  0  0
 28 23  1  6  0  0  0
 28  9  1  0  0  0  0
 29 30  1  1  0  0  0
 29  1  1  0  0  0  0
 29 20  1  0  0  0  0
 30 32  1  0  0  0  0
 31 30  2  0  0  0  0
M  END
>  <MODEL>
5

>  <REMARK>
 VINA RESULT:      -8.4      1.508      2.105
  Name = 
  1 active torsions:
  status: ('A' for Active; 'I' for Inactive)
    1  A    between atoms: C_29  and  C_30
                            x       y       z     vdW  Elec       q    Type
                         _______ _______ _______ _____ _____    ______ ____

>  <TORSDO>
F 1

$$$$
