=
 OpenBabel11122410303D

 30 35  0  0  1  0  0  0  0  0999 V2000
  184.8620  178.4540  141.3370 C   0  0  0  0  0  0  0  0  0  0  0  0
  185.9420  178.2920  143.5970 C   0  0  0  0  0  0  0  0  0  0  0  0
  181.1140  179.0790  142.9980 O   0  0  0  0  0  0  0  0  0  0  0  0
  183.6810  178.6110  140.5700 C   0  0  0  0  0  0  0  0  0  0  0  0
  186.0760  178.2990  140.6550 O   0  0  0  0  0  0  0  0  0  0  0  0
  184.9340  176.7090  138.4930 O   0  0  0  0  0  1  0  0  0  0  0  0
  181.4850  178.4620  138.2140 C   0  0  1  0  0  3  0  0  0  0  0  0
  184.9780  178.1060  138.4930 C   0  0  2  0  0  3  0  0  0  0  0  0
  180.7220  178.1670  139.5170 C   0  0  2  0  0  3  0  0  0  0  0  0
  180.2820  179.1830  141.8390 C   0  0  1  0  0  3  0  0  0  0  0  0
  186.2030  178.6040  139.2640 C   0  0  2  0  0  3  0  0  0  0  0  0
  183.7730  178.6280  139.1330 N   0  0  0  0  0  0  0  0  0  0  0  0
  185.8040  178.3400  144.9880 C   0  0  0  0  0  3  0  0  0  0  0  0
  179.2320  178.3580  139.2510 C   0  0  0  0  0  2  0  0  0  0  0  0
  180.5280  178.9960  137.1690 C   0  0  0  0  0  2  0  0  0  0  0  0
  187.5710  177.9980  142.9960 Cl  0  0  0  0  0  0  0  0  0  0  0  0
  182.4140  178.8530  142.5940 C   0  0  0  0  0  0  0  0  0  0  0  0
  184.5610  178.5600  145.5790 C   0  0  0  0  0  3  0  0  0  0  0  0
  184.8030  178.4670  142.7650 C   0  0  0  0  0  0  0  0  0  0  0  0
  182.4700  178.7950  141.2400 C   0  0  0  0  0  0  0  0  0  0  0  0
  179.7000  180.5820  141.7620 C   0  0  0  0  0  1  0  0  0  0  0  0
  181.1660  178.9470  140.6810 N   0  0  0  0  0  0  0  0  0  0  0  0
  178.9330  178.2040  137.4710 S   0  0  0  0  0  0  0  0  0  0  0  0
  182.5660  180.7390  138.6750 C   0  0  0  0  0  1  0  0  0  0  0  0
  183.4310  178.7330  144.7840 C   0  0  0  0  0  3  0  0  0  0  0  0
  183.5410  178.6870  143.3930 C   0  0  0  0  0  0  0  0  0  0  0  0
  182.7770  179.2780  138.2870 C   0  0  2  0  0  3  0  0  0  0  0  0
  187.4690  178.0350  138.7150 C   0  0  0  0  0  3  0  0  0  0  0  0
  189.7850  177.6660  138.8370 O   0  0  0  0  0  1  0  0  0  0  0  0
  188.6150  178.2000  139.3570 C   0  0  0  0  0  3  0  0  0  0  0  0
  1 19  1  0  0  0  0
  2 13  1  0  0  0  0
  4 20  1  0  0  0  0
  4  1  2  0  0  0  0
  5  1  1  0  0  0  0
  7 15  1  6  0  0  0
  7 27  1  0  0  0  0
  7  9  1  0  0  0  0
  8  6  1  1  0  0  0
  8 12  1  0  0  0  0
  8 11  1  0  0  0  0
  9 14  1  6  0  0  0
  9 22  1  0  0  0  0
 10 21  1  6  0  0  0
 10  3  1  0  0  0  0
 11 28  1  6  0  0  0
 11  5  1  0  0  0  0
 12  4  1  0  0  0  0
 13 18  2  0  0  0  0
 15 23  1  0  0  0  0
 16  2  1  0  0  0  0
 17  3  1  0  0  0  0
 17 26  1  0  0  0  0
 19 26  1  0  0  0  0
 19  2  2  0  0  0  0
 20 17  2  0  0  0  0
 22 20  1  0  0  0  0
 22 10  1  0  0  0  0
 23 14  1  0  0  0  0
 25 18  1  0  0  0  0
 26 25  2  0  0  0  0
 27 24  1  1  0  0  0
 27 12  1  0  0  0  0
 28 30  2  0  0  0  0
 29 30  1  0  0  0  0
M  END
>  <MODEL>
1

>  <REMARK>
 VINA RESULT:      -7.4      0.000      0.000
  Name = 
  1 active torsions:
  status: ('A' for Active; 'I' for Inactive)
    1  A    between atoms: C_11  and  C_28
                            x       y       z     vdW  Elec       q    Type
                         _______ _______ _______ _____ _____    ______ ____

>  <TORSDO>
F 1

$$$$
=
 OpenBabel11122410303D

 30 35  0  0  1  0  0  0  0  0999 V2000
  188.4310  177.4650  142.8140 C   0  0  0  0  0  0  0  0  0  0  0  0
  186.3160  178.2760  143.8960 C   0  0  0  0  0  0  0  0  0  0  0  0
  187.0830  178.5030  139.0320 O   0  0  0  0  0  0  0  0  0  0  0  0
  189.1730  177.2400  141.6290 C   0  0  0  0  0  0  0  0  0  0  0  0
  189.0180  177.1150  144.0370 O   0  0  0  0  0  0  0  0  0  0  0  0
  190.3420  174.7350  142.9920 O   0  0  0  0  0  1  0  0  0  0  0  0
  191.2300  176.0470  139.4510 C   0  0  1  0  0  3  0  0  0  0  0  0
  190.9010  176.0160  142.9580 C   0  0  2  0  0  3  0  0  0  0  0  0
  189.9020  176.2570  138.7020 C   0  0  2  0  0  3  0  0  0  0  0  0
  188.1710  178.0910  138.1990 C   0  0  1  0  0  3  0  0  0  0  0  0
  190.4170  176.8440  144.1510 C   0  0  2  0  0  3  0  0  0  0  0  0
  190.4990  176.6860  141.7240 N   0  0  0  0  0  0  0  0  0  0  0  0
  185.0580  178.8700  143.7510 C   0  0  0  0  0  3  0  0  0  0  0  0
  190.1930  176.2470  137.2040 C   0  0  0  0  0  2  0  0  0  0  0  0
  192.3820  176.0670  138.4680 C   0  0  0  0  0  2  0  0  0  0  0  0
  186.7810  177.8530  145.5390 Cl  0  0  0  0  0  0  0  0  0  0  0  0
  187.3890  178.2040  140.3440 C   0  0  0  0  0  0  0  0  0  0  0  0
  184.5780  179.2410  142.4960 C   0  0  0  0  0  3  0  0  0  0  0  0
  187.1260  178.0450  142.7510 C   0  0  0  0  0  0  0  0  0  0  0  0
  188.6080  177.6130  140.4070 C   0  0  0  0  0  0  0  0  0  0  0  0
  188.7890  179.3110  137.5390 C   0  0  0  0  0  1  0  0  0  0  0  0
  189.1550  177.4600  139.0990 N   0  0  0  0  0  0  0  0  0  0  0  0
  191.7580  175.3790  136.9200 S   0  0  0  0  0  0  0  0  0  0  0  0
  191.7380  178.3710  140.4020 C   0  0  0  0  0  1  0  0  0  0  0  0
  185.3540  179.0230  141.3600 C   0  0  0  0  0  3  0  0  0  0  0  0
  186.6130  178.4310  141.4770 C   0  0  0  0  0  0  0  0  0  0  0  0
  191.5140  176.8910  140.6950 C   0  0  2  0  0  3  0  0  0  0  0  0
  190.7190  176.1710  145.4480 C   0  0  0  0  0  3  0  0  0  0  0  0
  192.0230  175.9220  147.3860 O   0  0  0  0  0  1  0  0  0  0  0  0
  191.7530  176.5550  146.1810 C   0  0  0  0  0  3  0  0  0  0  0  0
  1  5  1  0  0  0  0
  2 16  1  0  0  0  0
  3 17  1  0  0  0  0
  4 12  1  0  0  0  0
  4  1  2  0  0  0  0
  5 11  1  0  0  0  0
  7 15  1  6  0  0  0
  7 27  1  0  0  0  0
  8  6  1  1  0  0  0
  8 11  1  0  0  0  0
  9 14  1  6  0  0  0
  9 22  1  0  0  0  0
  9  7  1  0  0  0  0
 10 21  1  1  0  0  0
 10  3  1  0  0  0  0
 10 22  1  0  0  0  0
 11 28  1  1  0  0  0
 12  8  1  0  0  0  0
 13  2  1  0  0  0  0
 17 20  2  0  0  0  0
 17 26  1  0  0  0  0
 18 13  2  0  0  0  0
 19  1  1  0  0  0  0
 19  2  2  0  0  0  0
 20  4  1  0  0  0  0
 22 20  1  0  0  0  0
 23 14  1  0  0  0  0
 23 15  1  0  0  0  0
 25 26  2  0  0  0  0
 25 18  1  0  0  0  0
 26 19  1  0  0  0  0
 27 24  1  6  0  0  0
 27 12  1  0  0  0  0
 28 30  2  0  0  0  0
 30 29  1  0  0  0  0
M  END
>  <MODEL>
2

>  <REMARK>
 VINA RESULT:      -7.2      4.526      7.594
  Name = 
  1 active torsions:
  status: ('A' for Active; 'I' for Inactive)
    1  A    between atoms: C_11  and  C_28
                            x       y       z     vdW  Elec       q    Type
                         _______ _______ _______ _____ _____    ______ ____

>  <TORSDO>
F 1

$$$$
=
 OpenBabel11122410303D

 30 35  0  0  1  0  0  0  0  0999 V2000
  186.8530  178.1250  142.2750 C   0  0  0  0  0  0  0  0  0  0  0  0
  189.3250  177.6910  142.2760 C   0  0  0  0  0  0  0  0  0  0  0  0
  186.7310  178.3420  138.1350 O   0  0  0  0  0  0  0  0  0  0  0  0
  185.6740  178.3980  141.5390 C   0  0  0  0  0  0  0  0  0  0  0  0
  186.7530  178.0280  143.6690 O   0  0  0  0  0  0  0  0  0  0  0  0
  184.7520  180.1360  143.9120 O   0  0  0  0  0  1  0  0  0  0  0  0
  182.7540  179.4460  140.6590 C   0  0  1  0  0  3  0  0  0  0  0  0
  184.4440  178.7930  143.6800 C   0  0  2  0  0  3  0  0  0  0  0  0
  183.6880  179.7680  139.4790 C   0  0  2  0  0  3  0  0  0  0  0  0
  185.3500  178.6200  137.8870 C   0  0  1  0  0  3  0  0  0  0  0  0
  185.4920  177.8830  144.3260 C   0  0  2  0  0  3  0  0  0  0  0  0
  184.4240  178.5430  142.2400 N   0  0  0  0  0  0  0  0  0  0  0  0
  190.5000  177.5030  141.5400 C   0  0  0  0  0  3  0  0  0  0  0  0
  182.8270  180.0290  138.2460 C   0  0  0  0  0  2  0  0  0  0  0  0
  181.3260  179.3350  140.1670 C   0  0  0  0  0  2  0  0  0  0  0  0
  189.4910  177.6030  144.0250 Cl  0  0  0  0  0  0  0  0  0  0  0  0
  186.9290  178.2530  139.4980 C   0  0  0  0  0  0  0  0  0  0  0  0
  190.4930  177.5580  140.1480 C   0  0  0  0  0  3  0  0  0  0  0  0
  188.1000  177.9440  141.6010 C   0  0  0  0  0  0  0  0  0  0  0  0
  185.7570  178.4680  140.1460 C   0  0  0  0  0  0  0  0  0  0  0  0
  184.7290  177.4560  137.1370 C   0  0  0  0  0  1  0  0  0  0  0  0
  184.7170  178.7530  139.2130 N   0  0  0  0  0  0  0  0  0  0  0  0
  181.1590  180.4870  138.7860 S   0  0  0  0  0  0  0  0  0  0  0  0
  183.0560  176.9210  140.9680 C   0  0  0  0  0  1  0  0  0  0  0  0
  189.3050  177.8050  139.4650 C   0  0  0  0  0  3  0  0  0  0  0  0
  188.1180  177.9990  140.1750 C   0  0  0  0  0  0  0  0  0  0  0  0
  183.1320  178.3050  141.6050 C   0  0  2  0  0  3  0  0  0  0  0  0
  185.6260  178.1490  145.7880 C   0  0  0  0  0  3  0  0  0  0  0  0
  186.9060  178.2530  147.7550 O   0  0  0  0  0  1  0  0  0  0  0  0
  186.7940  178.0010  146.3950 C   0  0  0  0  0  3  0  0  0  0  0  0
  1  5  1  0  0  0  0
  2 16  1  0  0  0  0
  3 17  1  0  0  0  0
  4 12  1  0  0  0  0
  4  1  2  0  0  0  0
  5 11  1  0  0  0  0
  7 15  1  6  0  0  0
  7 27  1  0  0  0  0
  8  6  1  6  0  0  0
  8 11  1  0  0  0  0
  9 14  1  6  0  0  0
  9  7  1  0  0  0  0
 10 21  1  1  0  0  0
 10  3  1  0  0  0  0
 10 22  1  0  0  0  0
 11 28  1  1  0  0  0
 12  8  1  0  0  0  0
 13  2  2  0  0  0  0
 14 23  1  0  0  0  0
 17 20  2  0  0  0  0
 17 26  1  0  0  0  0
 18 13  1  0  0  0  0
 19  1  1  0  0  0  0
 19  2  1  0  0  0  0
 20  4  1  0  0  0  0
 22  9  1  0  0  0  0
 22 20  1  0  0  0  0
 23 15  1  0  0  0  0
 25 18  2  0  0  0  0
 25 26  1  0  0  0  0
 26 19  2  0  0  0  0
 27 24  1  6  0  0  0
 27 12  1  0  0  0  0
 28 30  2  0  0  0  0
 30 29  1  0  0  0  0
M  END
>  <MODEL>
3

>  <REMARK>
 VINA RESULT:      -7.1      2.332      5.316
  Name = 
  1 active torsions:
  status: ('A' for Active; 'I' for Inactive)
    1  A    between atoms: C_11  and  C_28
                            x       y       z     vdW  Elec       q    Type
                         _______ _______ _______ _____ _____    ______ ____

>  <TORSDO>
F 1

$$$$
=
 OpenBabel11122410303D

 30 35  0  0  1  0  0  0  0  0999 V2000
  188.9490  177.6890  141.4340 C   0  0  0  0  0  0  0  0  0  0  0  0
  188.5570  177.7140  143.9130 C   0  0  0  0  0  0  0  0  0  0  0  0
  184.9570  178.4800  140.6350 O   0  0  0  0  0  0  0  0  0  0  0  0
  188.4160  177.7880  140.1260 C   0  0  0  0  0  0  0  0  0  0  0  0
  190.3250  177.4680  141.5710 O   0  0  0  0  0  0  0  0  0  0  0  0
  190.5160  175.7060  139.2550 O   0  0  0  0  0  1  0  0  0  0  0  0
  187.9250  177.4520  136.9560 C   0  0  1  0  0  3  0  0  0  0  0  0
  190.6280  177.0980  139.1870 C   0  0  2  0  0  3  0  0  0  0  0  0
  186.5460  177.2750  137.6150 C   0  0  2  0  0  3  0  0  0  0  0  0
  184.9300  178.4890  139.2050 C   0  0  1  0  0  3  0  0  0  0  0  0
  191.2300  177.6510  140.4810 C   0  0  2  0  0  3  0  0  0  0  0  0
  189.3030  177.6810  138.9950 N   0  0  0  0  0  0  0  0  0  0  0  0
  187.6620  177.8830  144.9740 C   0  0  0  0  0  3  0  0  0  0  0  0
  185.4780  177.4530  136.5390 C   0  0  0  0  0  2  0  0  0  0  0  0
  187.7540  177.9010  135.5200 C   0  0  0  0  0  2  0  0  0  0  0  0
  190.2210  177.3590  144.3620 Cl  0  0  0  0  0  0  0  0  0  0  0  0
  186.2440  178.2110  141.0540 C   0  0  0  0  0  0  0  0  0  0  0  0
  186.3160  178.1610  144.7420 C   0  0  0  0  0  3  0  0  0  0  0  0
  188.0960  177.8250  142.5730 C   0  0  0  0  0  0  0  0  0  0  0  0
  187.0500  178.0370  139.9770 C   0  0  0  0  0  0  0  0  0  0  0  0
  184.5690  179.8810  138.7180 C   0  0  0  0  0  1  0  0  0  0  0  0
  186.2980  178.1490  138.7700 N   0  0  0  0  0  0  0  0  0  0  0  0
  186.2270  177.1490  134.9180 S   0  0  0  0  0  0  0  0  0  0  0  0
  188.6800  179.7530  137.7950 C   0  0  0  0  0  1  0  0  0  0  0  0
  185.8420  178.2730  143.4380 C   0  0  0  0  0  3  0  0  0  0  0  0
  186.7140  178.1070  142.3600 C   0  0  0  0  0  0  0  0  0  0  0  0
  188.9930  178.2630  137.6930 C   0  0  2  0  0  3  0  0  0  0  0  0
  192.5530  177.0290  140.7840 C   0  0  0  0  0  3  0  0  0  0  0  0
  194.7810  176.5460  140.2180 O   0  0  0  0  0  1  0  0  0  0  0  0
  193.5550  177.1280  139.9240 C   0  0  0  0  0  3  0  0  0  0  0  0
  1  5  1  0  0  0  0
  1 19  1  0  0  0  0
  2 16  1  0  0  0  0
  2 13  1  0  0  0  0
  3 17  1  0  0  0  0
  4  1  2  0  0  0  0
  7 15  1  6  0  0  0
  7  9  1  0  0  0  0
  7 27  1  0  0  0  0
  8  6  1  1  0  0  0
  8 11  1  0  0  0  0
  9 14  1  6  0  0  0
  9 22  1  0  0  0  0
 10 21  1  1  0  0  0
 10  3  1  0  0  0  0
 11 28  1  1  0  0  0
 11  5  1  0  0  0  0
 12  8  1  0  0  0  0
 12  4  1  0  0  0  0
 17 26  1  0  0  0  0
 18 13  2  0  0  0  0
 19  2  2  0  0  0  0
 20  4  1  0  0  0  0
 20 17  2  0  0  0  0
 22 10  1  0  0  0  0
 22 20  1  0  0  0  0
 23 15  1  0  0  0  0
 23 14  1  0  0  0  0
 25 18  1  0  0  0  0
 26 19  1  0  0  0  0
 26 25  2  0  0  0  0
 27 24  1  1  0  0  0
 27 12  1  0  0  0  0
 30 29  1  0  0  0  0
 30 28  2  0  0  0  0
M  END
>  <MODEL>
4

>  <REMARK>
 VINA RESULT:      -6.9      3.392      5.182
  Name = 
  1 active torsions:
  status: ('A' for Active; 'I' for Inactive)
    1  A    between atoms: C_11  and  C_28
                            x       y       z     vdW  Elec       q    Type
                         _______ _______ _______ _____ _____    ______ ____

>  <TORSDO>
F 1

$$$$
=
 OpenBabel11122410303D

 30 35  0  0  1  0  0  0  0  0999 V2000
  186.7920  178.2890  141.7450 C   0  0  0  0  0  0  0  0  0  0  0  0
  185.6420  178.6310  139.5400 C   0  0  0  0  0  0  0  0  0  0  0  0
  190.2880  177.0260  139.9040 O   0  0  0  0  0  0  0  0  0  0  0  0
  187.9460  177.8740  142.4540 C   0  0  0  0  0  0  0  0  0  0  0  0
  185.6910  178.7410  142.4830 O   0  0  0  0  0  0  0  0  0  0  0  0
  186.0560  176.8280  144.6530 O   0  0  0  0  0  1  0  0  0  0  0  0
  189.9330  176.7260  144.7200 C   0  0  1  0  0  3  0  0  0  0  0  0
  186.6820  178.0770  144.6020 C   0  0  2  0  0  3  0  0  0  0  0  0
  190.3900  176.0850  143.3970 C   0  0  2  0  0  3  0  0  0  0  0  0
  191.1320  176.7360  141.0230 C   0  0  1  0  0  3  0  0  0  0  0  0
  185.8010  179.0880  143.8640 C   0  0  2  0  0  3  0  0  0  0  0  0
  187.9530  177.9510  143.8920 N   0  0  0  0  0  0  0  0  0  0  0  0
  185.7100  178.5890  138.1440 C   0  0  0  0  0  3  0  0  0  0  0  0
  191.8040  175.5460  143.5940 C   0  0  0  0  0  2  0  0  0  0  0  0
  191.0850  176.7530  145.7020 C   0  0  0  0  0  2  0  0  0  0  0  0
  184.1060  179.1580  140.2190 Cl  0  0  0  0  0  0  0  0  0  0  0  0
  189.0620  177.4540  140.3710 C   0  0  0  0  0  0  0  0  0  0  0  0
  186.8720  178.1810  137.4920 C   0  0  0  0  0  3  0  0  0  0  0  0
  186.7710  178.2530  140.3160 C   0  0  0  0  0  0  0  0  0  0  0  0
  189.0600  177.4480  141.7270 C   0  0  0  0  0  0  0  0  0  0  0  0
  192.3130  177.6890  141.0210 C   0  0  0  0  0  1  0  0  0  0  0  0
  190.3070  176.9670  142.2250 N   0  0  0  0  0  0  0  0  0  0  0  0
  192.0920  175.2920  145.3640 S   0  0  0  0  0  0  0  0  0  0  0  0
  190.0420  179.2370  144.2180 C   0  0  0  0  0  1  0  0  0  0  0  0
  187.9900  177.8050  138.2320 C   0  0  0  0  0  3  0  0  0  0  0  0
  187.9490  177.8360  139.6270 C   0  0  0  0  0  0  0  0  0  0  0  0
  189.1830  178.0590  144.6700 C   0  0  2  0  0  3  0  0  0  0  0  0
  184.4490  179.2000  144.4880 C   0  0  0  0  0  3  0  0  0  0  0  0
  182.1110  179.0030  144.3890 O   0  0  0  0  0  1  0  0  0  0  0  0
  183.3620  178.8960  143.7970 C   0  0  0  0  0  3  0  0  0  0  0  0
  1  4  1  0  0  0  0
  1  5  1  0  0  0  0
  2 16  1  0  0  0  0
  2 19  1  0  0  0  0
  3 17  1  0  0  0  0
  3 10  1  0  0  0  0
  4 12  1  0  0  0  0
  5 11  1  0  0  0  0
  7 15  1  1  0  0  0
  8  6  1  6  0  0  0
  9 14  1  1  0  0  0
  9  7  1  0  0  0  0
 10 21  1  1  0  0  0
 10 22  1  0  0  0  0
 11 28  1  1  0  0  0
 11  8  1  0  0  0  0
 12  8  1  0  0  0  0
 12 27  1  0  0  0  0
 13  2  2  0  0  0  0
 14 23  1  0  0  0  0
 17 20  1  0  0  0  0
 18 13  1  0  0  0  0
 18 25  2  0  0  0  0
 19  1  2  0  0  0  0
 20 22  1  0  0  0  0
 20  4  2  0  0  0  0
 22  9  1  0  0  0  0
 23 15  1  0  0  0  0
 25 26  1  0  0  0  0
 26 19  1  0  0  0  0
 26 17  2  0  0  0  0
 27 24  1  6  0  0  0
 27  7  1  0  0  0  0
 30 29  1  0  0  0  0
 30 28  2  0  0  0  0
M  END
>  <MODEL>
5

>  <REMARK>
 VINA RESULT:      -6.8      4.419      8.594
  Name = 
  1 active torsions:
  status: ('A' for Active; 'I' for Inactive)
    1  A    between atoms: C_11  and  C_28
                            x       y       z     vdW  Elec       q    Type
                         _______ _______ _______ _____ _____    ______ ____

>  <TORSDO>
F 1

$$$$
=
 OpenBabel11122410303D

 30 35  0  0  1  0  0  0  0  0999 V2000
  187.6570  177.9130  143.1830 C   0  0  0  0  0  0  0  0  0  0  0  0
  186.2910  178.2460  145.2630 C   0  0  0  0  0  0  0  0  0  0  0  0
  184.3850  178.6080  140.7320 O   0  0  0  0  0  0  0  0  0  0  0  0
  187.7090  177.8500  141.7690 C   0  0  0  0  0  0  0  0  0  0  0  0
  188.8440  177.7070  143.8980 O   0  0  0  0  0  0  0  0  0  0  0  0
  189.8680  175.6710  142.0780 O   0  0  0  0  0  1  0  0  0  0  0  0
  188.5360  177.1260  138.7380 C   0  0  1  0  0  3  0  0  0  0  0  0
  190.0720  177.0440  141.9060 C   0  0  2  0  0  3  0  0  0  0  0  0
  187.0000  177.0350  138.7870 C   0  0  2  0  0  3  0  0  0  0  0  0
  184.9440  178.4410  139.4250 C   0  0  1  0  0  3  0  0  0  0  0  0
  190.1230  177.7520  143.2620 C   0  0  2  0  0  3  0  0  0  0  0  0
  188.9730  177.6020  141.1230 N   0  0  0  0  0  0  0  0  0  0  0  0
  185.0510  178.5470  145.8360 C   0  0  0  0  0  3  0  0  0  0  0  0
  186.4740  177.0810  137.3550 C   0  0  0  0  0  2  0  0  0  0  0  0
  188.9890  177.3940  137.3170 C   0  0  0  0  0  2  0  0  0  0  0  0
  187.6070  177.9450  146.3920 Cl  0  0  0  0  0  0  0  0  0  0  0  0
  185.3730  178.3910  141.6700 C   0  0  0  0  0  0  0  0  0  0  0  0
  183.9330  178.7970  145.0420 C   0  0  0  0  0  3  0  0  0  0  0  0
  186.4220  178.1910  143.8480 C   0  0  0  0  0  0  0  0  0  0  0  0
  186.5370  178.0820  141.0460 C   0  0  0  0  0  0  0  0  0  0  0  0
  184.8870  179.7620  138.6810 C   0  0  0  0  0  1  0  0  0  0  0  0
  186.3500  178.0460  139.6320 N   0  0  0  0  0  0  0  0  0  0  0  0
  187.8010  176.5760  136.2290 S   0  0  0  0  0  0  0  0  0  0  0  0
  189.0050  179.5110  139.5490 C   0  0  0  0  0  1  0  0  0  0  0  0
  184.0390  178.7480  143.6540 C   0  0  0  0  0  3  0  0  0  0  0  0
  185.2640  178.4480  143.0560 C   0  0  0  0  0  0  0  0  0  0  0  0
  189.2520  178.0190  139.7530 C   0  0  2  0  0  3  0  0  0  0  0  0
  191.1720  177.1690  144.1500 C   0  0  0  0  0  3  0  0  0  0  0  0
  192.0440  176.7060  146.2810 O   0  0  0  0  0  1  0  0  0  0  0  0
  191.0630  177.2530  145.4660 C   0  0  0  0  0  3  0  0  0  0  0  0
  1 19  1  0  0  0  0
  1  5  1  0  0  0  0
  2 13  1  0  0  0  0
  2 16  1  0  0  0  0
  3 17  1  0  0  0  0
  4  1  2  0  0  0  0
  7 15  1  6  0  0  0
  7  9  1  0  0  0  0
  7 27  1  0  0  0  0
  8  6  1  1  0  0  0
  8 11  1  0  0  0  0
  9 14  1  6  0  0  0
  9 22  1  0  0  0  0
 10 21  1  6  0  0  0
 10 22  1  0  0  0  0
 10  3  1  0  0  0  0
 11  5  1  0  0  0  0
 11 28  1  1  0  0  0
 12  4  1  0  0  0  0
 12  8  1  0  0  0  0
 17 26  1  0  0  0  0
 18 13  2  0  0  0  0
 19  2  2  0  0  0  0
 20 17  2  0  0  0  0
 20  4  1  0  0  0  0
 22 20  1  0  0  0  0
 23 15  1  0  0  0  0
 23 14  1  0  0  0  0
 25 18  1  0  0  0  0
 26 25  2  0  0  0  0
 26 19  1  0  0  0  0
 27 24  1  1  0  0  0
 27 12  1  0  0  0  0
 28 30  2  0  0  0  0
 30 29  1  0  0  0  0
M  END
>  <MODEL>
6

>  <REMARK>
 VINA RESULT:      -6.6      3.413      5.472
  Name = 
  1 active torsions:
  status: ('A' for Active; 'I' for Inactive)
    1  A    between atoms: C_11  and  C_28
                            x       y       z     vdW  Elec       q    Type
                         _______ _______ _______ _____ _____    ______ ____

>  <TORSDO>
F 1

$$$$
=
 OpenBabel11122410303D

 30 35  0  0  1  0  0  0  0  0999 V2000
  184.4830  178.3350  140.0840 C   0  0  0  0  0  0  0  0  0  0  0  0
  185.5120  178.9370  142.2930 C   0  0  0  0  0  0  0  0  0  0  0  0
  180.6650  178.2670  141.7020 O   0  0  0  0  0  0  0  0  0  0  0  0
  183.3220  178.0100  139.3400 C   0  0  0  0  0  0  0  0  0  0  0  0
  185.7100  178.3720  139.4090 O   0  0  0  0  0  0  0  0  0  0  0  0
  185.0880  176.1240  137.6580 O   0  0  0  0  0  1  0  0  0  0  0  0
  181.3040  176.7970  137.1370 C   0  0  1  0  0  3  0  0  0  0  0  0
  184.7570  177.4510  137.3700 C   0  0  2  0  0  3  0  0  0  0  0  0
  180.6160  176.5850  138.4970 C   0  0  2  0  0  3  0  0  0  0  0  0
  179.8640  177.9040  140.5730 C   0  0  1  0  0  3  0  0  0  0  0  0
  185.7850  178.4050  137.9830 C   0  0  2  0  0  3  0  0  0  0  0  0
  183.4410  177.7530  137.9270 N   0  0  0  0  0  0  0  0  0  0  0  0
  185.3320  179.2330  143.6470 C   0  0  0  0  0  3  0  0  0  0  0  0
  179.1350  176.3130  138.2450 C   0  0  0  0  0  2  0  0  0  0  0  0
  180.2640  176.8290  136.0360 C   0  0  0  0  0  2  0  0  0  0  0  0
  187.1740  178.9700  141.7130 Cl  0  0  0  0  0  0  0  0  0  0  0  0
  181.9870  178.3180  141.3100 C   0  0  0  0  0  0  0  0  0  0  0  0
  184.0620  179.2310  144.2210 C   0  0  0  0  0  3  0  0  0  0  0  0
  184.3880  178.6270  141.4800 C   0  0  0  0  0  0  0  0  0  0  0  0
  182.0890  177.9980  139.9960 C   0  0  0  0  0  0  0  0  0  0  0  0
  178.9310  179.0500  140.2290 C   0  0  0  0  0  1  0  0  0  0  0  0
  180.8070  177.6790  139.4610 N   0  0  0  0  0  0  0  0  0  0  0  0
  178.9320  175.7210  136.5450 S   0  0  0  0  0  0  0  0  0  0  0  0
  181.7250  179.3240  137.0850 C   0  0  0  0  0  1  0  0  0  0  0  0
  182.9460  178.9290  143.4450 C   0  0  0  0  0  3  0  0  0  0  0  0
  183.0990  178.6270  142.0900 C   0  0  0  0  0  0  0  0  0  0  0  0
  182.3280  177.9250  136.9990 C   0  0  2  0  0  3  0  0  0  0  0  0
  187.1700  178.0940  137.5210 C   0  0  0  0  0  3  0  0  0  0  0  0
  189.4860  177.9650  137.8920 O   0  0  0  0  0  1  0  0  0  0  0  0
  188.2030  178.2590  138.3320 C   0  0  0  0  0  3  0  0  0  0  0  0
  1 19  1  0  0  0  0
  2 13  1  0  0  0  0
  4 20  1  0  0  0  0
  4  1  2  0  0  0  0
  5  1  1  0  0  0  0
  7 15  1  6  0  0  0
  7  9  1  0  0  0  0
  8  6  1  1  0  0  0
  8 12  1  0  0  0  0
  8 11  1  0  0  0  0
  9 14  1  6  0  0  0
  9 22  1  0  0  0  0
 10 21  1  6  0  0  0
 10  3  1  0  0  0  0
 11 28  1  1  0  0  0
 11  5  1  0  0  0  0
 12  4  1  0  0  0  0
 13 18  2  0  0  0  0
 15 23  1  0  0  0  0
 16  2  1  0  0  0  0
 17  3  1  0  0  0  0
 17 26  1  0  0  0  0
 19 26  1  0  0  0  0
 19  2  2  0  0  0  0
 20 17  2  0  0  0  0
 22 20  1  0  0  0  0
 22 10  1  0  0  0  0
 23 14  1  0  0  0  0
 25 18  1  0  0  0  0
 26 25  2  0  0  0  0
 27 24  1  1  0  0  0
 27  7  1  0  0  0  0
 27 12  1  0  0  0  0
 28 30  2  0  0  0  0
 29 30  1  0  0  0  0
M  END
>  <MODEL>
7

>  <REMARK>
 VINA RESULT:      -6.5      1.451      1.694
  Name = 
  1 active torsions:
  status: ('A' for Active; 'I' for Inactive)
    1  A    between atoms: C_11  and  C_28
                            x       y       z     vdW  Elec       q    Type
                         _______ _______ _______ _____ _____    ______ ____

>  <TORSDO>
F 1

$$$$
=
 OpenBabel11122410303D

 30 35  0  0  1  0  0  0  0  0999 V2000
  188.3910  177.5980  140.1760 C   0  0  0  0  0  0  0  0  0  0  0  0
  186.5350  178.4250  138.7020 C   0  0  0  0  0  0  0  0  0  0  0  0
  186.2300  178.4110  143.6210 O   0  0  0  0  0  0  0  0  0  0  0  0
  188.8910  177.3830  141.4830 C   0  0  0  0  0  0  0  0  0  0  0  0
  189.2000  177.2360  139.0920 O   0  0  0  0  0  0  0  0  0  0  0  0
  191.6930  178.0350  140.3770 O   0  0  0  0  0  1  0  0  0  0  0  0
  190.8440  177.0120  144.0220 C   0  0  1  0  0  3  0  0  0  0  0  0
  191.1140  176.7700  140.5180 C   0  0  2  0  0  3  0  0  0  0  0  0
  189.7100  177.9370  144.4970 C   0  0  2  0  0  3  0  0  0  0  0  0
  187.1440  178.0210  144.6510 C   0  0  1  0  0  3  0  0  0  0  0  0
  190.3420  176.3900  139.2530 C   0  0  2  0  0  3  0  0  0  0  0  0
  190.1900  176.7850  141.6500 N   0  0  0  0  0  0  0  0  0  0  0  0
  185.2450  178.9550  138.5980 C   0  0  0  0  0  3  0  0  0  0  0  0
  189.7110  177.9470  146.0240 C   0  0  0  0  0  2  0  0  0  0  0  0
  191.4620  176.3050  145.2110 C   0  0  0  0  0  2  0  0  0  0  0  0
  187.3730  178.1400  137.1810 Cl  0  0  0  0  0  0  0  0  0  0  0  0
  186.8280  178.2050  142.3950 C   0  0  0  0  0  0  0  0  0  0  0  0
  184.4860  179.2290  139.7340 C   0  0  0  0  0  3  0  0  0  0  0  0
  187.0900  178.1590  139.9830 C   0  0  0  0  0  0  0  0  0  0  0  0
  188.0800  177.7130  142.5710 C   0  0  0  0  0  0  0  0  0  0  0  0
  186.5670  176.8450  145.4160 C   0  0  0  0  0  1  0  0  0  0  0  0
  188.3820  177.6080  143.9610 N   0  0  0  0  0  0  0  0  0  0  0  0
  191.3500  177.4430  146.6090 S   0  0  0  0  0  0  0  0  0  0  0  0
  189.5930  174.9380  143.1850 C   0  0  0  0  0  1  0  0  0  0  0  0
  185.0100  178.9780  141.0000 C   0  0  0  0  0  3  0  0  0  0  0  0
  186.2970  178.4510  141.1320 C   0  0  0  0  0  0  0  0  0  0  0  0
  190.5760  176.0590  142.8560 C   0  0  2  0  0  3  0  0  0  0  0  0
  191.2100  176.4420  138.0400 C   0  0  0  0  0  3  0  0  0  0  0  0
  192.9810  175.6150  136.7370 O   0  0  0  0  0  1  0  0  0  0  0  0
  192.1810  175.5580  137.8700 C   0  0  0  0  0  3  0  0  0  0  0  0
  1  4  1  0  0  0  0
  2 19  1  0  0  0  0
  3 10  1  0  0  0  0
  4 12  1  0  0  0  0
  4 20  2  0  0  0  0
  5 11  1  0  0  0  0
  5  1  1  0  0  0  0
  7  9  1  0  0  0  0
  7 15  1  1  0  0  0
  8  6  1  6  0  0  0
  8 12  1  0  0  0  0
  9 14  1  1  0  0  0
 10 21  1  6  0  0  0
 11 28  1  6  0  0  0
 11  8  1  0  0  0  0
 12 27  1  0  0  0  0
 13  2  2  0  0  0  0
 13 18  1  0  0  0  0
 14 23  1  0  0  0  0
 15 23  1  0  0  0  0
 16  2  1  0  0  0  0
 17 20  1  0  0  0  0
 17  3  1  0  0  0  0
 18 25  2  0  0  0  0
 19  1  2  0  0  0  0
 19 26  1  0  0  0  0
 20 22  1  0  0  0  0
 22  9  1  0  0  0  0
 22 10  1  0  0  0  0
 25 26  1  0  0  0  0
 26 17  2  0  0  0  0
 27 24  1  1  0  0  0
 27  7  1  0  0  0  0
 29 30  1  0  0  0  0
 30 28  2  0  0  0  0
M  END
>  <MODEL>
8

>  <REMARK>
 VINA RESULT:      -6.5      4.607      7.630
  Name = 
  1 active torsions:
  status: ('A' for Active; 'I' for Inactive)
    1  A    between atoms: C_11  and  C_28
                            x       y       z     vdW  Elec       q    Type
                         _______ _______ _______ _____ _____    ______ ____

>  <TORSDO>
F 1

$$$$
=
 OpenBabel11122410303D

 30 35  0  0  1  0  0  0  0  0999 V2000
  185.9100  178.2950  141.3350 C   0  0  0  0  0  0  0  0  0  0  0  0
  186.2770  178.3230  143.8180 C   0  0  0  0  0  0  0  0  0  0  0  0
  189.8940  177.4140  140.5950 O   0  0  0  0  0  0  0  0  0  0  0  0
  186.4530  178.1550  140.0350 C   0  0  0  0  0  0  0  0  0  0  0  0
  184.5360  178.5440  141.4530 O   0  0  0  0  0  0  0  0  0  0  0  0
  184.3990  180.2520  139.0930 O   0  0  0  0  0  1  0  0  0  0  0  0
  186.9800  178.4050  136.8630 C   0  0  1  0  0  3  0  0  0  0  0  0
  184.2620  178.8610  139.0570 C   0  0  2  0  0  3  0  0  0  0  0  0
  188.3560  178.5730  137.5310 C   0  0  2  0  0  3  0  0  0  0  0  0
  189.9340  177.3690  139.1660 C   0  0  1  0  0  3  0  0  0  0  0  0
  183.6380  178.3500  140.3580 C   0  0  2  0  0  3  0  0  0  0  0  0
  185.5790  178.2500  138.8930 N   0  0  0  0  0  0  0  0  0  0  0  0
  187.1590  178.1640  144.8920 C   0  0  0  0  0  3  0  0  0  0  0  0
  189.4300  178.3500  136.4710 C   0  0  0  0  0  2  0  0  0  0  0  0
  187.1560  177.9180  135.4390 C   0  0  0  0  0  2  0  0  0  0  0  0
  184.6150  178.7190  144.2410 Cl  0  0  0  0  0  0  0  0  0  0  0  0
  188.6080  177.7150  140.9950 C   0  0  0  0  0  0  0  0  0  0  0  0
  188.5020  177.8570  144.6800 C   0  0  0  0  0  3  0  0  0  0  0  0
  186.7490  178.1710  142.4860 C   0  0  0  0  0  0  0  0  0  0  0  0
  187.8160  177.8780  139.9060 C   0  0  0  0  0  0  0  0  0  0  0  0
  190.2740  175.9600  138.7170 C   0  0  0  0  0  1  0  0  0  0  0  0
  188.5760  177.7230  138.7090 N   0  0  0  0  0  0  0  0  0  0  0  0
  188.7030  178.6280  134.8350 S   0  0  0  0  0  0  0  0  0  0  0  0
  186.1750  176.1390  137.7490 C   0  0  0  0  0  1  0  0  0  0  0  0
  188.9860  177.7050  143.3830 C   0  0  0  0  0  3  0  0  0  0  0  0
  188.1270  177.8600  142.2930 C   0  0  0  0  0  0  0  0  0  0  0  0
  185.8900  177.6310  137.6090 C   0  0  2  0  0  3  0  0  0  0  0  0
  182.3240  179.0030  140.6330 C   0  0  0  0  0  3  0  0  0  0  0  0
  180.5640  179.5600  142.0850 O   0  0  0  0  0  1  0  0  0  0  0  0
  181.7850  178.9480  141.8410 C   0  0  0  0  0  3  0  0  0  0  0  0
  1  5  1  0  0  0  0
  1 19  1  0  0  0  0
  2 16  1  0  0  0  0
  2 13  1  0  0  0  0
  3 17  1  0  0  0  0
  4  1  2  0  0  0  0
  7 15  1  6  0  0  0
  7  9  1  0  0  0  0
  7 27  1  0  0  0  0
  8  6  1  1  0  0  0
  8 11  1  0  0  0  0
  9 14  1  6  0  0  0
  9 22  1  0  0  0  0
 10 21  1  1  0  0  0
 10  3  1  0  0  0  0
 11 28  1  1  0  0  0
 11  5  1  0  0  0  0
 12  8  1  0  0  0  0
 12  4  1  0  0  0  0
 17 26  1  0  0  0  0
 18 13  2  0  0  0  0
 19  2  2  0  0  0  0
 20  4  1  0  0  0  0
 20 17  2  0  0  0  0
 22 10  1  0  0  0  0
 22 20  1  0  0  0  0
 23 15  1  0  0  0  0
 23 14  1  0  0  0  0
 25 18  1  0  0  0  0
 26 19  1  0  0  0  0
 26 25  2  0  0  0  0
 27 24  1  1  0  0  0
 27 12  1  0  0  0  0
 28 30  2  0  0  0  0
 30 29  1  0  0  0  0
M  END
>  <MODEL>
9

>  <REMARK>
 VINA RESULT:      -6.5      2.891      6.278
  Name = 
  1 active torsions:
  status: ('A' for Active; 'I' for Inactive)
    1  A    between atoms: C_11  and  C_28
                            x       y       z     vdW  Elec       q    Type
                         _______ _______ _______ _____ _____    ______ ____

>  <TORSDO>
F 1

$$$$
