=
 OpenBabel11122410453D

 32 37  0  0  1  0  0  0  0  0999 V2000
  190.2710  176.1440  135.5840 C   0  0  0  0  0  2  0  0  0  0  0  0
  188.7360  178.4270  140.2110 N   0  0  0  0  0  0  0  0  0  0  0  0
  191.4680  176.5410  143.7850 C   0  0  0  0  0  2  0  0  0  0  0  0
  190.2930  176.6710  144.7730 C   0  0  0  0  0  2  0  0  0  0  0  0
  186.2040  178.7000  140.5530 C   0  0  0  0  0  0  0  0  0  0  0  0
  185.0800  178.6300  141.4800 C   0  0  0  0  0  0  0  0  0  0  0  0
  188.8550  177.2510  138.0740 C   0  0  2  0  0  3  0  0  0  0  0  0
  190.2940  176.5640  140.0450 C   0  0  0  0  0  2  0  0  0  0  0  0
  183.9800  178.3710  143.3990 N   0  0  0  0  0  0  0  0  0  0  0  0
  190.3540  175.2220  137.9740 C   0  0  0  0  0  2  0  0  0  0  0  0
  191.5250  177.6800  142.7640 C   0  0  0  0  0  2  0  0  0  0  0  0
  190.0430  177.9380  140.6590 C   0  0  2  0  0  3  0  0  0  0  0  0
  190.1700  177.8850  142.1520 C   0  0  0  0  0  0  0  0  0  0  0  0
  187.7390  178.1730  142.4080 C   0  0  0  0  0  0  0  0  0  0  0  0
  182.9840  178.7140  142.3890 C   0  0  0  0  0  2  0  0  0  0  0  0
  188.9080  176.2740  135.8700 O   0  0  0  0  0  0  0  0  0  0  0  0
  190.2040  176.6390  138.5200 C   0  0  1  0  0  3  0  0  0  0  0  0
  183.7410  178.8400  141.1840 O   0  0  0  0  0  0  0  0  0  0  0  0
  188.8100  177.4840  136.5650 C   0  0  0  0  0  2  0  0  0  0  0  0
  190.9530  175.1840  136.5620 C   0  0  1  0  0  3  0  0  0  0  0  0
  189.3070  177.8030  144.4410 C   0  0  0  0  0  2  0  0  0  0  0  0
  189.0950  177.9360  142.9540 C   0  0  0  0  0  0  0  0  0  0  0  0
  186.5760  178.1560  143.3920 C   0  0  0  0  0  2  0  0  0  0  0  0
  188.6200  178.5930  138.7670 C   0  0  0  0  0  2  0  0  0  0  0  0
  185.9940  178.9930  139.3470 O   0  0  0  0  0  0  0  0  0  0  0  0
  183.7700  178.4460  144.8330 C   0  0  0  0  0  1  0  0  0  0  0  0
  187.5760  178.4240  141.0800 C   0  0  0  0  0  0  0  0  0  0  0  0
  185.2390  178.3650  142.7470 C   0  0  0  0  0  0  0  0  0  0  0  0
  190.8840  173.8290  136.0360 N   0  0  0  0  0  2  0  0  0  0  0  0
  192.0320  173.1290  135.5540 C   0  0  0  0  0  0  0  0  0  0  0  0
  193.1640  173.6800  135.5430 O   0  0  0  0  0  0  0  0  0  0  0  0
  191.8870  171.7370  135.0540 C   0  0  0  0  0  1  0  0  0  0  0  0
  1 16  1  0  0  0  0
  1 20  1  0  0  0  0
  2 12  1  0  0  0  0
  2 27  1  0  0  0  0
  3  4  1  0  0  0  0
  5 27  1  0  0  0  0
  5  6  1  0  0  0  0
  6 28  2  0  0  0  0
  7 19  1  6  0  0  0
  7 17  1  0  0  0  0
  7 24  1  0  0  0  0
  9 26  1  0  0  0  0
 11  3  1  0  0  0  0
 12  8  1  6  0  0  0
 12 13  1  0  0  0  0
 13 11  1  0  0  0  0
 13 22  2  0  0  0  0
 14 22  1  0  0  0  0
 14 23  1  0  0  0  0
 15  9  1  0  0  0  0
 16 19  1  0  0  0  0
 17 10  1  6  0  0  0
 17  8  1  0  0  0  0
 18  6  1  0  0  0  0
 18 15  1  0  0  0  0
 20 29  1  6  0  0  0
 20 10  1  0  0  0  0
 21  4  1  0  0  0  0
 22 21  1  0  0  0  0
 24  2  1  0  0  0  0
 25  5  2  0  0  0  0
 27 14  2  0  0  0  0
 28 23  1  0  0  0  0
 28  9  1  0  0  0  0
 30 29  1  0  0  0  0
 31 30  2  0  0  0  0
 32 30  1  0  0  0  0
M  END
>  <MODEL>
1

>  <REMARK>
 VINA RESULT:      -9.0      0.000      0.000
  Name = 
  1 active torsions:
  status: ('A' for Active; 'I' for Inactive)
    1  A    between atoms: C_20  and  N_29
                            x       y       z     vdW  Elec       q    Type
                         _______ _______ _______ _____ _____    ______ ____

>  <TORSDO>
F 1

$$$$
=
 OpenBabel11122410453D

 32 37  0  0  1  0  0  0  0  0999 V2000
  190.9900  177.2350  141.3120 C   0  0  0  0  0  2  0  0  0  0  0  0
  185.8790  178.7500  140.5670 N   0  0  0  0  0  0  0  0  0  0  0  0
  183.7370  178.9820  144.9430 C   0  0  0  0  0  2  0  0  0  0  0  0
  182.3930  178.5480  144.3260 C   0  0  0  0  0  2  0  0  0  0  0  0
  184.6460  177.6440  138.6030 C   0  0  0  0  0  0  0  0  0  0  0  0
  183.4010  177.0660  138.1100 C   0  0  0  0  0  0  0  0  0  0  0  0
  188.0480  177.6300  140.5240 C   0  0  2  0  0  3  0  0  0  0  0  0
  186.8010  178.0160  142.6970 C   0  0  0  0  0  2  0  0  0  0  0  0
  181.2650  176.4350  138.0890 N   0  0  0  0  0  0  0  0  0  0  0  0
  188.9090  176.7330  142.7210 C   0  0  0  0  0  2  0  0  0  0  0  0
  184.5680  179.8690  144.0140 C   0  0  0  0  0  2  0  0  0  0  0  0
  185.9770  179.0880  141.9900 C   0  0  2  0  0  3  0  0  0  0  0  0
  184.6400  179.2530  142.6480 C   0  0  0  0  0  0  0  0  0  0  0  0
  183.5200  178.2050  140.7230 C   0  0  0  0  0  0  0  0  0  0  0  0
  181.8150  176.0890  136.7830 C   0  0  0  0  0  2  0  0  0  0  0  0
  190.2340  176.6350  140.3000 O   0  0  0  0  0  0  0  0  0  0  0  0
  188.1780  177.8880  142.0440 C   0  0  1  0  0  3  0  0  0  0  0  0
  183.1840  176.4910  136.8660 O   0  0  0  0  0  0  0  0  0  0  0  0
  189.4070  177.6590  139.8270 C   0  0  0  0  0  2  0  0  0  0  0  0
  190.4350  176.8910  142.6970 C   0  0  1  0  0  3  0  0  0  0  0  0
  182.2220  178.9320  142.8470 C   0  0  0  0  0  2  0  0  0  0  0  0
  183.5130  178.7900  142.0830 C   0  0  0  0  0  0  0  0  0  0  0  0
  182.2020  177.6550  140.1910 C   0  0  0  0  0  2  0  0  0  0  0  0
  187.1610  178.6910  139.8740 C   0  0  0  0  0  2  0  0  0  0  0  0
  185.6570  177.6630  137.8550 O   0  0  0  0  0  0  0  0  0  0  0  0
  179.8490  176.5190  138.4000 C   0  0  0  0  0  1  0  0  0  0  0  0
  184.6670  178.2020  139.9900 C   0  0  0  0  0  0  0  0  0  0  0  0
  182.3100  177.0490  138.8250 C   0  0  0  0  0  0  0  0  0  0  0  0
  191.0630  175.6710  143.1810 N   0  0  0  0  0  2  0  0  0  0  0  0
  191.7020  175.5850  144.4550 C   0  0  0  0  0  0  0  0  0  0  0  0
  191.7680  176.5910  145.2110 O   0  0  0  0  0  0  0  0  0  0  0  0
  192.3010  174.2970  144.8910 C   0  0  0  0  0  1  0  0  0  0  0  0
  1 20  1  0  0  0  0
  2 12  1  0  0  0  0
  4  3  1  0  0  0  0
  5 27  1  0  0  0  0
  6  5  1  0  0  0  0
  6 28  2  0  0  0  0
  7 19  1  6  0  0  0
  7 17  1  0  0  0  0
  9 26  1  0  0  0  0
  9 28  1  0  0  0  0
 11  3  1  0  0  0  0
 12 13  1  0  0  0  0
 12  8  1  1  0  0  0
 13 11  1  0  0  0  0
 14 22  1  0  0  0  0
 15 18  1  0  0  0  0
 15  9  1  0  0  0  0
 16  1  1  0  0  0  0
 17  8  1  1  0  0  0
 17 10  1  0  0  0  0
 18  6  1  0  0  0  0
 19 16  1  0  0  0  0
 20 10  1  0  0  0  0
 20 29  1  6  0  0  0
 21  4  1  0  0  0  0
 22 13  2  0  0  0  0
 22 21  1  0  0  0  0
 23 14  1  0  0  0  0
 24  7  1  0  0  0  0
 24  2  1  0  0  0  0
 25  5  2  0  0  0  0
 27  2  1  0  0  0  0
 27 14  2  0  0  0  0
 28 23  1  0  0  0  0
 29 30  1  0  0  0  0
 30 32  1  0  0  0  0
 30 31  2  0  0  0  0
M  END
>  <MODEL>
2

>  <REMARK>
 VINA RESULT:      -8.7      3.333      5.981
  Name = 
  1 active torsions:
  status: ('A' for Active; 'I' for Inactive)
    1  A    between atoms: C_20  and  N_29
                            x       y       z     vdW  Elec       q    Type
                         _______ _______ _______ _____ _____    ______ ____

>  <TORSDO>
F 1

$$$$
=
 OpenBabel11122410453D

 32 37  0  0  1  0  0  0  0  0999 V2000
  180.7710  178.8120  141.5880 C   0  0  0  0  0  2  0  0  0  0  0  0
  185.9100  179.1570  143.1530 N   0  0  0  0  0  0  0  0  0  0  0  0
  188.6820  177.2930  139.5990 C   0  0  0  0  0  2  0  0  0  0  0  0
  189.6980  176.7810  140.6390 C   0  0  0  0  0  2  0  0  0  0  0  0
  186.3910  178.5390  145.6010 C   0  0  0  0  0  0  0  0  0  0  0  0
  187.2880  177.8780  146.5420 C   0  0  0  0  0  0  0  0  0  0  0  0
  183.5180  178.7060  142.9580 C   0  0  2  0  0  3  0  0  0  0  0  0
  185.1520  177.9790  141.1620 C   0  0  0  0  0  2  0  0  0  0  0  0
  189.0750  176.7800  147.2900 N   0  0  0  0  0  0  0  0  0  0  0  0
  182.7760  177.3420  140.9670 C   0  0  0  0  0  2  0  0  0  0  0  0
  188.0430  178.6280  139.9880 C   0  0  0  0  0  2  0  0  0  0  0  0
  186.1530  178.9870  141.7180 C   0  0  2  0  0  3  0  0  0  0  0  0
  187.5600  178.5690  141.4080 C   0  0  0  0  0  0  0  0  0  0  0  0
  187.9600  178.0180  143.7730 C   0  0  0  0  0  0  0  0  0  0  0  0
  188.2420  177.0640  148.4550 C   0  0  0  0  0  2  0  0  0  0  0  0
  181.1220  178.4360  142.8880 O   0  0  0  0  0  0  0  0  0  0  0  0
  183.7220  178.4380  141.4480 C   0  0  1  0  0  3  0  0  0  0  0  0
  187.1070  177.7410  147.9100 O   0  0  0  0  0  0  0  0  0  0  0  0
  182.1470  179.3180  143.2430 C   0  0  0  0  0  2  0  0  0  0  0  0
  181.4000  177.8770  140.5520 C   0  0  1  0  0  3  0  0  0  0  0  0
  189.7450  177.6030  141.9370 C   0  0  0  0  0  2  0  0  0  0  0  0
  188.3720  178.0670  142.3510 C   0  0  0  0  0  0  0  0  0  0  0  0
  188.9290  177.3780  144.7600 C   0  0  0  0  0  2  0  0  0  0  0  0
  184.5830  179.6690  143.4810 C   0  0  0  0  0  2  0  0  0  0  0  0
  185.3330  179.0720  146.0250 O   0  0  0  0  0  0  0  0  0  0  0  0
  190.4720  176.3910  147.3430 C   0  0  0  0  0  1  0  0  0  0  0  0
  186.7720  178.5610  144.1550 C   0  0  0  0  0  0  0  0  0  0  0  0
  188.4140  177.3380  146.1670 C   0  0  0  0  0  0  0  0  0  0  0  0
  180.4980  176.7630  140.2940 N   0  0  0  0  0  2  0  0  0  0  0  0
  180.3590  176.1660  139.0050 C   0  0  0  0  0  0  0  0  0  0  0  0
  181.0060  176.6050  138.0180 O   0  0  0  0  0  0  0  0  0  0  0  0
  179.4350  175.0150  138.8250 C   0  0  0  0  0  1  0  0  0  0  0  0
  1 16  1  0  0  0  0
  2 24  1  0  0  0  0
  2 27  1  0  0  0  0
  3 11  1  0  0  0  0
  3  4  1  0  0  0  0
  4 21  1  0  0  0  0
  5 25  2  0  0  0  0
  5  6  1  0  0  0  0
  6 18  1  0  0  0  0
  7 19  1  6  0  0  0
  7 24  1  0  0  0  0
  8 17  1  0  0  0  0
  9 26  1  0  0  0  0
  9 15  1  0  0  0  0
 11 13  1  0  0  0  0
 12  8  1  1  0  0  0
 12  2  1  0  0  0  0
 13 12  1  0  0  0  0
 13 22  2  0  0  0  0
 14 27  2  0  0  0  0
 14 23  1  0  0  0  0
 16 19  1  0  0  0  0
 17 10  1  1  0  0  0
 17  7  1  0  0  0  0
 18 15  1  0  0  0  0
 20 29  1  1  0  0  0
 20 10  1  0  0  0  0
 20  1  1  0  0  0  0
 21 22  1  0  0  0  0
 22 14  1  0  0  0  0
 23 28  1  0  0  0  0
 27  5  1  0  0  0  0
 28  6  2  0  0  0  0
 28  9  1  0  0  0  0
 30 29  1  0  0  0  0
 31 30  2  0  0  0  0
 32 30  1  0  0  0  0
M  END
>  <MODEL>
3

>  <REMARK>
 VINA RESULT:      -8.4      4.318      7.542
  Name = 
  1 active torsions:
  status: ('A' for Active; 'I' for Inactive)
    1  A    between atoms: C_20  and  N_29
                            x       y       z     vdW  Elec       q    Type
                         _______ _______ _______ _____ _____    ______ ____

>  <TORSDO>
F 1

$$$$
=
 OpenBabel11122410453D

 32 37  0  0  1  0  0  0  0  0999 V2000
  191.3330  178.2680  143.6580 C   0  0  0  0  0  2  0  0  0  0  0  0
  189.1560  177.3420  138.8230 N   0  0  0  0  0  0  0  0  0  0  0  0
  184.3750  178.2510  139.1390 C   0  0  0  0  0  2  0  0  0  0  0  0
  184.0800  177.1490  138.1020 C   0  0  0  0  0  2  0  0  0  0  0  0
  189.9740  175.2360  137.5990 C   0  0  0  0  0  0  0  0  0  0  0  0
  189.6230  174.0920  136.7650 C   0  0  0  0  0  0  0  0  0  0  0  0
  190.3360  177.2010  140.9560 C   0  0  2  0  0  3  0  0  0  0  0  0
  187.8790  177.8140  140.8410 C   0  0  0  0  0  2  0  0  0  0  0  0
  188.3740  172.7270  135.5260 N   0  0  0  0  0  0  0  0  0  0  0  0
  188.9550  177.5340  143.0440 C   0  0  0  0  0  2  0  0  0  0  0  0
  185.6790  179.0030  138.8650 C   0  0  0  0  0  2  0  0  0  0  0  0
  188.0750  178.1670  139.3690 C   0  0  2  0  0  3  0  0  0  0  0  0
  186.7890  178.0250  138.6110 C   0  0  0  0  0  0  0  0  0  0  0  0
  187.6430  176.0260  137.4580 C   0  0  0  0  0  0  0  0  0  0  0  0
  189.7280  172.1840  135.5080 C   0  0  0  0  0  2  0  0  0  0  0  0
  191.6830  177.1110  142.9550 O   0  0  0  0  0  0  0  0  0  0  0  0
  189.1870  178.0040  141.6110 C   0  0  1  0  0  3  0  0  0  0  0  0
  190.4710  173.0810  136.3360 O   0  0  0  0  0  0  0  0  0  0  0  0
  191.6820  177.5030  141.6130 C   0  0  0  0  0  2  0  0  0  0  0  0
  189.8560  178.2460  144.0610 C   0  0  1  0  0  3  0  0  0  0  0  0
  185.2250  176.8940  137.1070 C   0  0  0  0  0  2  0  0  0  0  0  0
  186.5730  177.0000  137.7720 C   0  0  0  0  0  0  0  0  0  0  0  0
  187.2840  174.8640  136.5390 C   0  0  0  0  0  2  0  0  0  0  0  0
  190.4480  177.5400  139.4710 C   0  0  0  0  0  2  0  0  0  0  0  0
  191.1630  175.3780  137.9850 O   0  0  0  0  0  0  0  0  0  0  0  0
  187.3210  172.3640  134.5950 C   0  0  0  0  0  1  0  0  0  0  0  0
  188.8950  176.2070  137.9590 C   0  0  0  0  0  0  0  0  0  0  0  0
  188.4160  173.9090  136.3070 C   0  0  0  0  0  0  0  0  0  0  0  0
  189.7190  177.6140  145.3650 N   0  0  0  0  0  2  0  0  0  0  0  0
  188.5030  177.6440  146.1130 C   0  0  0  0  0  0  0  0  0  0  0  0
  187.4920  178.2520  145.6740 O   0  0  0  0  0  0  0  0  0  0  0  0
  188.4330  176.9540  147.4280 C   0  0  0  0  0  1  0  0  0  0  0  0
  1 20  1  0  0  0  0
  2 12  1  0  0  0  0
  2 24  1  0  0  0  0
  4  3  1  0  0  0  0
  5 27  1  0  0  0  0
  5 25  2  0  0  0  0
  6  5  1  0  0  0  0
  7 24  1  6  0  0  0
  7 17  1  0  0  0  0
  7 19  1  0  0  0  0
  9 28  1  0  0  0  0
 10 20  1  0  0  0  0
 11  3  1  0  0  0  0
 12  8  1  1  0  0  0
 13 11  1  0  0  0  0
 13 12  1  0  0  0  0
 14 22  1  0  0  0  0
 14 27  2  0  0  0  0
 15  9  1  0  0  0  0
 15 18  1  0  0  0  0
 16  1  1  0  0  0  0
 17  8  1  6  0  0  0
 17 10  1  0  0  0  0
 18  6  1  0  0  0  0
 19 16  1  0  0  0  0
 20 29  1  1  0  0  0
 21 22  1  0  0  0  0
 21  4  1  0  0  0  0
 22 13  2  0  0  0  0
 23 14  1  0  0  0  0
 26  9  1  0  0  0  0
 27  2  1  0  0  0  0
 28 23  1  0  0  0  0
 28  6  2  0  0  0  0
 29 30  1  0  0  0  0
 30 32  1  0  0  0  0
 31 30  2  0  0  0  0
M  END
>  <MODEL>
4

>  <REMARK>
 VINA RESULT:      -7.9      2.845      8.027
  Name = 
  1 active torsions:
  status: ('A' for Active; 'I' for Inactive)
    1  A    between atoms: C_20  and  N_29
                            x       y       z     vdW  Elec       q    Type
                         _______ _______ _______ _____ _____    ______ ____

>  <TORSDO>
F 1

$$$$
=
 OpenBabel11122410453D

 32 37  0  0  1  0  0  0  0  0999 V2000
  179.0920  176.9540  139.5450 C   0  0  0  0  0  2  0  0  0  0  0  0
  183.9080  178.8250  141.0570 N   0  0  0  0  0  0  0  0  0  0  0  0
  187.1660  177.4470  137.7000 C   0  0  0  0  0  2  0  0  0  0  0  0
  188.2570  177.3310  138.7830 C   0  0  0  0  0  2  0  0  0  0  0  0
  184.4770  178.5980  143.5530 C   0  0  0  0  0  0  0  0  0  0  0  0
  185.4950  178.2980  144.5530 C   0  0  0  0  0  0  0  0  0  0  0  0
  181.7310  177.7280  140.9130 C   0  0  2  0  0  3  0  0  0  0  0  0
  183.5450  177.3000  139.1950 C   0  0  0  0  0  2  0  0  0  0  0  0
  187.4920  177.8020  145.4030 N   0  0  0  0  0  0  0  0  0  0  0  0
  181.4340  176.0290  139.0690 C   0  0  0  0  0  2  0  0  0  0  0  0
  186.1820  178.5910  137.9550 C   0  0  0  0  0  2  0  0  0  0  0  0
  184.2230  178.5910  139.6460 C   0  0  2  0  0  3  0  0  0  0  0  0
  185.6980  178.5400  139.3750 C   0  0  0  0  0  0  0  0  0  0  0  0
  186.1730  178.3490  141.7820 C   0  0  0  0  0  0  0  0  0  0  0  0
  186.5850  177.9610  146.5350 C   0  0  0  0  0  2  0  0  0  0  0  0
  179.4990  176.8140  140.8760 O   0  0  0  0  0  0  0  0  0  0  0  0
  182.0370  177.3810  139.4370 C   0  0  1  0  0  3  0  0  0  0  0  0
  185.3240  178.2500  145.9290 O   0  0  0  0  0  0  0  0  0  0  0  0
  180.2400  177.9710  141.1390 C   0  0  0  0  0  2  0  0  0  0  0  0
  179.9750  176.1290  138.6060 C   0  0  1  0  0  3  0  0  0  0  0  0
  188.0490  178.2570  139.9930 C   0  0  0  0  0  2  0  0  0  0  0  0
  186.5920  178.3700  140.3620 C   0  0  0  0  0  0  0  0  0  0  0  0
  187.2530  178.0920  142.8260 C   0  0  0  0  0  2  0  0  0  0  0  0
  182.4850  178.9880  141.3350 C   0  0  0  0  0  2  0  0  0  0  0  0
  183.3040  178.8640  143.9250 O   0  0  0  0  0  0  0  0  0  0  0  0
  188.9420  177.8120  145.4920 C   0  0  0  0  0  1  0  0  0  0  0  0
  184.8740  178.5840  142.1120 C   0  0  0  0  0  0  0  0  0  0  0  0
  186.7340  178.0490  144.2310 C   0  0  0  0  0  0  0  0  0  0  0  0
  179.4130  174.7940  138.4620 N   0  0  0  0  0  2  0  0  0  0  0  0
  179.5090  174.0420  137.2520 C   0  0  0  0  0  0  0  0  0  0  0  0
  180.0750  174.5270  136.2360 O   0  0  0  0  0  0  0  0  0  0  0  0
  178.9310  172.6740  137.1890 C   0  0  0  0  0  1  0  0  0  0  0  0
  1 16  1  0  0  0  0
  2 24  1  0  0  0  0
  2 27  1  0  0  0  0
  3 11  1  0  0  0  0
  3  4  1  0  0  0  0
  4 21  1  0  0  0  0
  5 25  2  0  0  0  0
  5  6  1  0  0  0  0
  6 18  1  0  0  0  0
  7 19  1  6  0  0  0
  7 24  1  0  0  0  0
  8 17  1  0  0  0  0
  9 26  1  0  0  0  0
  9 15  1  0  0  0  0
 11 13  1  0  0  0  0
 12  8  1  1  0  0  0
 12  2  1  0  0  0  0
 13 12  1  0  0  0  0
 13 22  2  0  0  0  0
 14 27  2  0  0  0  0
 14 23  1  0  0  0  0
 16 19  1  0  0  0  0
 17 10  1  1  0  0  0
 17  7  1  0  0  0  0
 18 15  1  0  0  0  0
 20 29  1  1  0  0  0
 20 10  1  0  0  0  0
 20  1  1  0  0  0  0
 21 22  1  0  0  0  0
 22 14  1  0  0  0  0
 23 28  1  0  0  0  0
 27  5  1  0  0  0  0
 28  6  2  0  0  0  0
 28  9  1  0  0  0  0
 30 29  1  0  0  0  0
 31 30  2  0  0  0  0
 32 30  1  0  0  0  0
M  END
>  <MODEL>
5

>  <REMARK>
 VINA RESULT:      -7.8      4.447      7.621
  Name = 
  1 active torsions:
  status: ('A' for Active; 'I' for Inactive)
    1  A    between atoms: C_20  and  N_29
                            x       y       z     vdW  Elec       q    Type
                         _______ _______ _______ _____ _____    ______ ____

>  <TORSDO>
F 1

$$$$
=
 OpenBabel11122410453D

 32 37  0  0  1  0  0  0  0  0999 V2000
  184.2830  175.9670  134.8730 C   0  0  0  0  0  2  0  0  0  0  0  0
  186.1600  178.5120  139.2280 N   0  0  0  0  0  0  0  0  0  0  0  0
  190.6320  176.7960  140.1500 C   0  0  0  0  0  2  0  0  0  0  0  0
  190.4120  176.9900  141.6630 C   0  0  0  0  0  2  0  0  0  0  0  0
  184.4940  178.8290  141.1590 C   0  0  0  0  0  0  0  0  0  0  0  0
  184.2780  178.8210  142.6020 C   0  0  0  0  0  0  0  0  0  0  0  0
  184.8570  177.2210  137.6160 C   0  0  2  0  0  3  0  0  0  0  0  0
  187.2630  176.6270  138.1530 C   0  0  0  0  0  2  0  0  0  0  0  0
  184.7450  178.6780  144.7740 N   0  0  0  0  0  0  0  0  0  0  0  0
  185.9650  175.1750  136.6370 C   0  0  0  0  0  2  0  0  0  0  0  0
  189.9610  177.8770  139.3000 C   0  0  0  0  0  2  0  0  0  0  0  0
  187.4460  178.0350  138.7120 C   0  0  2  0  0  3  0  0  0  0  0  0
  188.5380  178.0630  139.7400 C   0  0  0  0  0  0  0  0  0  0  0  0
  186.8900  178.3880  141.5390 C   0  0  0  0  0  0  0  0  0  0  0  0
  183.3200  178.9750  144.6730 C   0  0  0  0  0  2  0  0  0  0  0  0
  183.4550  176.1260  135.9880 O   0  0  0  0  0  0  0  0  0  0  0  0
  186.1770  176.6210  137.0760 C   0  0  1  0  0  3  0  0  0  0  0  0
  183.0770  179.0270  143.2650 O   0  0  0  0  0  0  0  0  0  0  0  0
  183.8110  177.3720  136.5140 C   0  0  0  0  0  2  0  0  0  0  0  0
  185.4710  175.0540  135.1890 C   0  0  1  0  0  3  0  0  0  0  0  0
  189.4230  178.1130  142.0210 C   0  0  0  0  0  2  0  0  0  0  0  0
  188.2710  178.1680  141.0510 C   0  0  0  0  0  0  0  0  0  0  0  0
  186.6800  178.4360  143.0470 C   0  0  0  0  0  2  0  0  0  0  0  0
  185.1060  178.6010  138.2250 C   0  0  0  0  0  2  0  0  0  0  0  0
  183.5260  179.0580  140.3900 O   0  0  0  0  0  0  0  0  0  0  0  0
  185.5430  178.8320  145.9770 C   0  0  0  0  0  1  0  0  0  0  0  0
  185.8760  178.5680  140.6490 C   0  0  0  0  0  0  0  0  0  0  0  0
  185.2480  178.6230  143.4500 C   0  0  0  0  0  0  0  0  0  0  0  0
  185.1080  173.6730  134.9090 N   0  0  0  0  0  2  0  0  0  0  0  0
  186.0670  172.6150  134.8740 C   0  0  0  0  0  0  0  0  0  0  0  0
  187.2900  172.8490  135.0650 O   0  0  0  0  0  0  0  0  0  0  0  0
  185.6170  171.2250  134.6040 C   0  0  0  0  0  1  0  0  0  0  0  0
  1 20  1  0  0  0  0
  1 16  1  0  0  0  0
  2 27  1  0  0  0  0
  3  4  1  0  0  0  0
  4 21  1  0  0  0  0
  5  6  1  0  0  0  0
  6 18  1  0  0  0  0
  6 28  2  0  0  0  0
  7 19  1  6  0  0  0
  7 24  1  0  0  0  0
  9 26  1  0  0  0  0
 11 13  1  0  0  0  0
 11  3  1  0  0  0  0
 12  8  1  1  0  0  0
 12  2  1  0  0  0  0
 12 13  1  0  0  0  0
 13 22  2  0  0  0  0
 14 23  1  0  0  0  0
 15  9  1  0  0  0  0
 16 19  1  0  0  0  0
 17 10  1  1  0  0  0
 17  7  1  0  0  0  0
 17  8  1  0  0  0  0
 18 15  1  0  0  0  0
 20 29  1  1  0  0  0
 20 10  1  0  0  0  0
 22 14  1  0  0  0  0
 22 21  1  0  0  0  0
 23 28  1  0  0  0  0
 24  2  1  0  0  0  0
 25  5  2  0  0  0  0
 27  5  1  0  0  0  0
 27 14  2  0  0  0  0
 28  9  1  0  0  0  0
 30 29  1  0  0  0  0
 30 31  2  0  0  0  0
 32 30  1  0  0  0  0
M  END
>  <MODEL>
6

>  <REMARK>
 VINA RESULT:      -7.6      3.006      3.794
  Name = 
  1 active torsions:
  status: ('A' for Active; 'I' for Inactive)
    1  A    between atoms: C_20  and  N_29
                            x       y       z     vdW  Elec       q    Type
                         _______ _______ _______ _____ _____    ______ ____

>  <TORSDO>
F 1

$$$$
=
 OpenBabel11122410453D

 32 37  0  0  1  0  0  0  0  0999 V2000
  180.6220  177.3500  139.1620 C   0  0  0  0  0  2  0  0  0  0  0  0
  185.8120  178.6480  139.7590 N   0  0  0  0  0  0  0  0  0  0  0  0
  188.2060  177.0860  135.8080 C   0  0  0  0  0  2  0  0  0  0  0  0
  189.4630  176.8120  136.6580 C   0  0  0  0  0  2  0  0  0  0  0  0
  186.8140  178.2590  142.0930 C   0  0  0  0  0  0  0  0  0  0  0  0
  187.9640  177.8130  142.8720 C   0  0  0  0  0  0  0  0  0  0  0  0
  183.5400  177.7890  140.0130 C   0  0  2  0  0  3  0  0  0  0  0  0
  184.9390  177.2500  137.9680 C   0  0  0  0  0  2  0  0  0  0  0  0
  190.0200  177.0780  143.3100 N   0  0  0  0  0  0  0  0  0  0  0  0
  182.7160  176.2100  138.2240 C   0  0  0  0  0  2  0  0  0  0  0  0
  187.4200  178.3130  136.2730 C   0  0  0  0  0  2  0  0  0  0  0  0
  185.8280  178.4430  138.3090 C   0  0  2  0  0  3  0  0  0  0  0  0
  187.2100  178.2530  137.7580 C   0  0  0  0  0  0  0  0  0  0  0  0
  188.1080  177.9110  140.0240 C   0  0  0  0  0  0  0  0  0  0  0  0
  189.3660  177.2810  144.5990 C   0  0  0  0  0  2  0  0  0  0  0  0
  181.2560  177.1130  140.3860 O   0  0  0  0  0  0  0  0  0  0  0  0
  183.5220  177.4750  138.4980 C   0  0  1  0  0  3  0  0  0  0  0  0
  188.0520  177.7240  144.2540 O   0  0  0  0  0  0  0  0  0  0  0  0
  182.1550  178.1740  140.5270 C   0  0  0  0  0  2  0  0  0  0  0  0
  181.2160  176.4790  138.0520 C   0  0  1  0  0  3  0  0  0  0  0  0
  189.5900  177.7020  137.9060 C   0  0  0  0  0  2  0  0  0  0  0  0
  188.2500  177.9490  138.5500 C   0  0  0  0  0  0  0  0  0  0  0  0
  189.3310  177.5000  140.8340 C   0  0  0  0  0  2  0  0  0  0  0  0
  184.4940  178.9460  140.3100 C   0  0  0  0  0  2  0  0  0  0  0  0
  185.7700  178.6280  142.6900 O   0  0  0  0  0  0  0  0  0  0  0  0
  191.4520  176.9340  143.1180 C   0  0  0  0  0  1  0  0  0  0  0  0
  186.9280  178.2650  140.6020 C   0  0  0  0  0  0  0  0  0  0  0  0
  189.0850  177.4510  142.3120 C   0  0  0  0  0  0  0  0  0  0  0  0
  180.4940  175.2170  137.9900 N   0  0  0  0  0  2  0  0  0  0  0  0
  180.2660  174.5180  136.7660 C   0  0  0  0  0  0  0  0  0  0  0  0
  180.6680  174.9910  135.6700 O   0  0  0  0  0  0  0  0  0  0  0  0
  179.5410  173.2200  136.7850 C   0  0  0  0  0  1  0  0  0  0  0  0
  1 16  1  0  0  0  0
  2 24  1  0  0  0  0
  2 27  1  0  0  0  0
  3 11  1  0  0  0  0
  3  4  1  0  0  0  0
  4 21  1  0  0  0  0
  5 25  2  0  0  0  0
  5  6  1  0  0  0  0
  6 18  1  0  0  0  0
  7 24  1  6  0  0  0
  7 19  1  0  0  0  0
  9 15  1  0  0  0  0
 10 17  1  0  0  0  0
 11 13  1  0  0  0  0
 12  8  1  1  0  0  0
 12  2  1  0  0  0  0
 13 12  1  0  0  0  0
 13 22  2  0  0  0  0
 14 27  2  0  0  0  0
 14 23  1  0  0  0  0
 16 19  1  0  0  0  0
 17  8  1  1  0  0  0
 17  7  1  0  0  0  0
 18 15  1  0  0  0  0
 20 29  1  1  0  0  0
 20 10  1  0  0  0  0
 20  1  1  0  0  0  0
 21 22  1  0  0  0  0
 22 14  1  0  0  0  0
 23 28  1  0  0  0  0
 26  9  1  0  0  0  0
 27  5  1  0  0  0  0
 28  6  2  0  0  0  0
 28  9  1  0  0  0  0
 30 32  1  0  0  0  0
 30 29  1  0  0  0  0
 31 30  2  0  0  0  0
M  END
>  <MODEL>
7

>  <REMARK>
 VINA RESULT:      -7.6      3.645      7.230
  Name = 
  1 active torsions:
  status: ('A' for Active; 'I' for Inactive)
    1  A    between atoms: C_20  and  N_29
                            x       y       z     vdW  Elec       q    Type
                         _______ _______ _______ _____ _____    ______ ____

>  <TORSDO>
F 1

$$$$
=
 OpenBabel11122410453D

 32 37  0  0  1  0  0  0  0  0999 V2000
  182.0460  177.4300  136.7700 C   0  0  0  0  0  2  0  0  0  0  0  0
  186.3230  178.6300  139.8090 N   0  0  0  0  0  0  0  0  0  0  0  0
  190.2510  176.6410  137.7120 C   0  0  0  0  0  2  0  0  0  0  0  0
  190.8930  176.4120  139.0940 C   0  0  0  0  0  2  0  0  0  0  0  0
  185.9970  178.4310  142.3500 C   0  0  0  0  0  0  0  0  0  0  0  0
  186.5710  178.0270  143.6290 C   0  0  0  0  0  0  0  0  0  0  0  0
  184.1740  177.8630  138.9410 C   0  0  2  0  0  3  0  0  0  0  0  0
  186.3630  177.0970  137.9190 C   0  0  0  0  0  2  0  0  0  0  0  0
  188.0760  177.2770  145.0890 N   0  0  0  0  0  0  0  0  0  0  0  0
  184.2420  176.1480  137.0890 C   0  0  0  0  0  2  0  0  0  0  0  0
  189.4270  177.9270  137.6350 C   0  0  0  0  0  2  0  0  0  0  0  0
  187.0460  178.2910  138.5800 C   0  0  2  0  0  3  0  0  0  0  0  0
  188.5010  178.0110  138.8140 C   0  0  0  0  0  0  0  0  0  0  0  0
  188.1220  177.8560  141.2400 C   0  0  0  0  0  0  0  0  0  0  0  0
  186.8830  177.6180  145.8570 C   0  0  0  0  0  2  0  0  0  0  0  0
  181.9660  177.2890  138.1580 O   0  0  0  0  0  0  0  0  0  0  0  0
  184.8910  177.4100  137.6470 C   0  0  1  0  0  3  0  0  0  0  0  0
  185.9510  178.0640  144.8690 O   0  0  0  0  0  0  0  0  0  0  0  0
  182.7480  178.3330  138.6620 C   0  0  0  0  0  2  0  0  0  0  0  0
  183.0500  176.4430  136.1690 C   0  0  1  0  0  3  0  0  0  0  0  0
  190.4440  177.4100  140.1740 C   0  0  0  0  0  2  0  0  0  0  0  0
  188.9830  177.7530  140.0390 C   0  0  0  0  0  0  0  0  0  0  0  0
  188.7460  177.4870  142.5810 C   0  0  0  0  0  2  0  0  0  0  0  0
  184.9320  179.0140  139.6000 C   0  0  0  0  0  2  0  0  0  0  0  0
  184.8240  178.8830  142.3140 O   0  0  0  0  0  0  0  0  0  0  0  0
  189.3980  177.0760  145.6530 C   0  0  0  0  0  1  0  0  0  0  0  0
  186.8400  178.2950  141.1220 C   0  0  0  0  0  0  0  0  0  0  0  0
  187.7930  177.5830  143.7340 C   0  0  0  0  0  0  0  0  0  0  0  0
  182.3680  175.2010  135.8360 N   0  0  0  0  0  2  0  0  0  0  0  0
  182.9760  174.1720  135.0540 C   0  0  0  0  0  0  0  0  0  0  0  0
  184.1400  174.3170  134.5940 O   0  0  0  0  0  0  0  0  0  0  0  0
  182.2250  172.9210  134.7750 C   0  0  0  0  0  1  0  0  0  0  0  0
  1 16  1  0  0  0  0
  2 27  1  0  0  0  0
  3  4  1  0  0  0  0
  4 21  1  0  0  0  0
  5  6  1  0  0  0  0
  6 28  2  0  0  0  0
  6 18  1  0  0  0  0
  7 19  1  6  0  0  0
  7 24  1  0  0  0  0
  9 26  1  0  0  0  0
  9 15  1  0  0  0  0
 11  3  1  0  0  0  0
 11 13  1  0  0  0  0
 12  8  1  1  0  0  0
 12 13  1  0  0  0  0
 12  2  1  0  0  0  0
 13 22  2  0  0  0  0
 14 23  1  0  0  0  0
 16 19  1  0  0  0  0
 17 10  1  1  0  0  0
 17  8  1  0  0  0  0
 17  7  1  0  0  0  0
 18 15  1  0  0  0  0
 20 29  1  1  0  0  0
 20  1  1  0  0  0  0
 20 10  1  0  0  0  0
 22 21  1  0  0  0  0
 22 14  1  0  0  0  0
 23 28  1  0  0  0  0
 24  2  1  0  0  0  0
 25  5  2  0  0  0  0
 27 14  2  0  0  0  0
 27  5  1  0  0  0  0
 28  9  1  0  0  0  0
 30 29  1  0  0  0  0
 31 30  2  0  0  0  0
 32 30  1  0  0  0  0
M  END
>  <MODEL>
8

>  <REMARK>
 VINA RESULT:      -7.6      3.653      5.578
  Name = 
  1 active torsions:
  status: ('A' for Active; 'I' for Inactive)
    1  A    between atoms: C_20  and  N_29
                            x       y       z     vdW  Elec       q    Type
                         _______ _______ _______ _____ _____    ______ ____

>  <TORSDO>
F 1

$$$$
=
 OpenBabel11122410453D

 32 37  0  0  1  0  0  0  0  0999 V2000
  184.4100  178.2530  144.8240 C   0  0  0  0  0  2  0  0  0  0  0  0
  181.4650  178.5270  140.3270 N   0  0  0  0  0  0  0  0  0  0  0  0
  183.9250  176.2420  136.7890 C   0  0  0  0  0  2  0  0  0  0  0  0
  183.3520  177.2150  135.7400 C   0  0  0  0  0  2  0  0  0  0  0  0
  180.3460  180.7890  139.8430 C   0  0  0  0  0  0  0  0  0  0  0  0
  179.9810  181.7840  138.8410 C   0  0  0  0  0  0  0  0  0  0  0  0
  182.7440  178.9950  142.3540 C   0  0  2  0  0  3  0  0  0  0  0  0
  183.7460  177.6840  140.4300 C   0  0  0  0  0  2  0  0  0  0  0  0
  179.7400  182.7270  136.8380 N   0  0  0  0  0  0  0  0  0  0  0  0
  185.1570  178.2550  142.3730 C   0  0  0  0  0  2  0  0  0  0  0  0
  182.9360  175.9120  137.9090 C   0  0  0  0  0  2  0  0  0  0  0  0
  182.3320  177.4160  139.9250 C   0  0  2  0  0  3  0  0  0  0  0  0
  182.3300  177.1760  138.4450 C   0  0  0  0  0  0  0  0  0  0  0  0
  181.2370  179.3460  138.0550 C   0  0  0  0  0  0  0  0  0  0  0  0
  179.1500  183.6460  137.8060 C   0  0  0  0  0  2  0  0  0  0  0  0
  183.8180  179.4660  144.4610 O   0  0  0  0  0  0  0  0  0  0  0  0
  183.7400  177.8850  141.9460 C   0  0  1  0  0  3  0  0  0  0  0  0
  179.3570  183.0030  139.0650 O   0  0  0  0  0  0  0  0  0  0  0  0
  182.6040  179.1010  143.8710 C   0  0  0  0  0  2  0  0  0  0  0  0
  185.4800  177.8340  143.8120 C   0  0  1  0  0  3  0  0  0  0  0  0
  181.9790  177.8040  136.1060 C   0  0  0  0  0  2  0  0  0  0  0  0
  181.8760  178.0970  137.5810 C   0  0  0  0  0  0  0  0  0  0  0  0
  180.8060  180.3560  136.9980 C   0  0  0  0  0  2  0  0  0  0  0  0
  181.3600  178.7150  141.7690 C   0  0  0  0  0  2  0  0  0  0  0  0
  180.0750  181.0020  141.0540 O   0  0  0  0  0  0  0  0  0  0  0  0
  179.5110  182.7690  135.4050 C   0  0  0  0  0  1  0  0  0  0  0  0
  181.0290  179.5400  139.3850 C   0  0  0  0  0  0  0  0  0  0  0  0
  180.2040  181.6040  137.5690 C   0  0  0  0  0  0  0  0  0  0  0  0
  186.7650  178.3890  144.2090 N   0  0  0  0  0  2  0  0  0  0  0  0
  187.9610  177.6090  144.2540 C   0  0  0  0  0  0  0  0  0  0  0  0
  187.9420  176.3830  143.9680 O   0  0  0  0  0  0  0  0  0  0  0  0
  189.2430  178.2530  144.6460 C   0  0  0  0  0  1  0  0  0  0  0  0
  2 24  1  0  0  0  0
  3 11  1  0  0  0  0
  4 21  1  0  0  0  0
  4  3  1  0  0  0  0
  5 25  2  0  0  0  0
  6 18  1  0  0  0  0
  6  5  1  0  0  0  0
  7 24  1  6  0  0  0
  7 19  1  0  0  0  0
  9 28  1  0  0  0  0
  9 15  1  0  0  0  0
 10 20  1  0  0  0  0
 11 13  1  0  0  0  0
 12  2  1  0  0  0  0
 12  8  1  6  0  0  0
 13 12  1  0  0  0  0
 14 27  2  0  0  0  0
 15 18  1  0  0  0  0
 16  1  1  0  0  0  0
 17  8  1  6  0  0  0
 17  7  1  0  0  0  0
 17 10  1  0  0  0  0
 19 16  1  0  0  0  0
 20 29  1  1  0  0  0
 20  1  1  0  0  0  0
 21 22  1  0  0  0  0
 22 14  1  0  0  0  0
 22 13  2  0  0  0  0
 23 28  1  0  0  0  0
 23 14  1  0  0  0  0
 26  9  1  0  0  0  0
 27  5  1  0  0  0  0
 27  2  1  0  0  0  0
 28  6  2  0  0  0  0
 29 30  1  0  0  0  0
 30 32  1  0  0  0  0
 31 30  2  0  0  0  0
M  END
>  <MODEL>
9

>  <REMARK>
 VINA RESULT:      -7.3      5.169      8.960
  Name = 
  1 active torsions:
  status: ('A' for Active; 'I' for Inactive)
    1  A    between atoms: C_20  and  N_29
                            x       y       z     vdW  Elec       q    Type
                         _______ _______ _______ _____ _____    ______ ____

>  <TORSDO>
F 1

$$$$
