=
 OpenBabel11122411523D

 28 31  0  0  1  0  0  0  0  0999 V2000
  186.6150  178.7980  141.4100 C   0  0  0  0  0  0  0  0  0  0  0  0
  185.6950  179.0610  145.7210 O   0  0  0  0  0  0  0  0  0  0  0  0
  190.4180  174.2600  143.3080 O   0  0  0  0  0  1  0  0  0  0  0  0
  184.1220  178.0710  142.4520 C   0  0  0  0  0  3  0  0  0  0  0  0
  190.7000  176.1190  144.5890 C   0  0  2  0  0  3  0  0  0  0  0  0
  187.9140  179.0450  140.7260 C   0  0  0  0  0  2  0  0  0  0  0  0
  186.0650  176.6210  145.7650 O   0  0  0  0  0  0  0  0  0  0  0  0
  186.7050  177.9700  145.9370 S   0  0  0  0  0  0  0  0  0  0  0  0
  188.6580  178.2500  147.8060 C   0  0  0  0  0  0  0  0  0  0  0  0
  188.0720  178.1620  144.7930 C   0  0  1  0  0  3  0  0  0  0  0  0
  190.3620  176.6230  139.3770 C   0  0  0  0  0  1  0  0  0  0  0  0
  188.2590  176.2410  142.9750 C   0  0  0  0  0  2  0  0  0  0  0  0
  189.6670  178.4150  146.6990 C   0  0  0  0  0  2  0  0  0  0  0  0
  187.3480  178.0920  147.5710 C   0  0  0  0  0  3  0  0  0  0  0  0
  189.8090  177.7150  140.2730 C   0  0  2  0  0  3  0  0  0  0  0  0
  186.5500  178.0960  142.6350 C   0  0  0  0  0  0  0  0  0  0  0  0
  190.6940  175.5840  143.2210 N   0  0  0  0  0  0  0  0  0  0  0  0
  189.1320  178.3150  149.2160 C   0  0  0  0  0  1  0  0  0  0  0  0
  190.2150  177.4850  141.7320 C   0  0  0  0  0  2  0  0  0  0  0  0
  185.2930  177.7080  143.1200 C   0  0  0  0  0  3  0  0  0  0  0  0
  185.4390  179.1520  140.7410 C   0  0  0  0  0  3  0  0  0  0  0  0
  184.1950  178.8020  141.2670 C   0  0  0  0  0  3  0  0  0  0  0  0
  188.3640  177.7990  140.1200 N   0  0  0  0  0  2  0  0  0  0  0  0
  190.4110  177.4900  144.6200 O   0  0  0  0  0  0  0  0  0  0  0  0
  189.6760  176.1820  142.3440 C   0  0  2  0  0  3  0  0  0  0  0  0
  189.3130  177.5740  145.4770 C   0  0  2  0  0  3  0  0  0  0  0  0
  192.0590  175.8770  145.2230 C   0  0  0  0  0  1  0  0  0  0  0  0
  187.8140  177.6590  143.3430 C   0  0  1  0  0  3  0  0  0  0  0  0
  1 16  1  0  0  0  0
  2  8  2  0  0  0  0
  4 20  1  0  0  0  0
  5 24  1  0  0  0  0
  5 27  1  6  0  0  0
  6  1  1  0  0  0  0
  7  8  2  0  0  0  0
  8 14  1  0  0  0  0
  9 18  1  0  0  0  0
 10 26  1  0  0  0  0
 10  8  1  1  0  0  0
 13  9  1  0  0  0  0
 14  9  2  0  0  0  0
 15 11  1  6  0  0  0
 15 19  1  0  0  0  0
 16 20  2  0  0  0  0
 16 28  1  0  0  0  0
 17  3  1  0  0  0  0
 17  5  1  0  0  0  0
 21 22  1  0  0  0  0
 21  1  2  0  0  0  0
 22  4  2  0  0  0  0
 23 15  1  0  0  0  0
 23  6  1  0  0  0  0
 24 26  1  0  0  0  0
 25 19  1  1  0  0  0
 25 12  1  0  0  0  0
 25 17  1  0  0  0  0
 26 13  1  1  0  0  0
 28 12  1  1  0  0  0
 28 10  1  0  0  0  0
M  END
>  <MODEL>
1

>  <REMARK>
 VINA RESULT:      -7.7      0.000      0.000
  Name = 
  0 active torsions:
  status: ('A' for Active; 'I' for Inactive)
                            x       y       z     vdW  Elec       q    Type
                         _______ _______ _______ _____ _____    ______ ____

>  <TORSDO>
F 0

$$$$
=
 OpenBabel11122411523D

 28 31  0  0  1  0  0  0  0  0999 V2000
  186.7490  177.6380  143.0540 C   0  0  0  0  0  0  0  0  0  0  0  0
  183.0270  178.1770  140.7390 O   0  0  0  0  0  0  0  0  0  0  0  0
  189.3610  179.8460  137.8620 O   0  0  0  0  0  1  0  0  0  0  0  0
  184.8390  179.5700  143.7250 C   0  0  0  0  0  3  0  0  0  0  0  0
  187.8860  178.1870  137.3640 C   0  0  2  0  0  3  0  0  0  0  0  0
  187.8960  176.7360  142.7610 C   0  0  0  0  0  2  0  0  0  0  0  0
  184.1590  180.1150  139.7130 O   0  0  0  0  0  0  0  0  0  0  0  0
  183.8840  178.6430  139.5950 S   0  0  0  0  0  0  0  0  0  0  0  0
  183.5700  177.5760  137.1150 C   0  0  0  0  0  0  0  0  0  0  0  0
  185.4210  177.7210  139.5610 C   0  0  1  0  0  3  0  0  0  0  0  0
  191.2240  177.5360  141.3600 C   0  0  0  0  0  1  0  0  0  0  0  0
  187.5770  179.1630  140.1080 C   0  0  0  0  0  2  0  0  0  0  0  0
  184.8830  176.8560  137.2790 C   0  0  0  0  0  2  0  0  0  0  0  0
  183.0390  178.3400  138.0800 C   0  0  0  0  0  3  0  0  0  0  0  0
  189.8370  176.9250  141.4340 C   0  0  2  0  0  3  0  0  0  0  0  0
  186.1080  178.3690  142.0280 C   0  0  0  0  0  0  0  0  0  0  0  0
  189.0690  178.5550  138.1530 N   0  0  0  0  0  0  0  0  0  0  0  0
  182.8110  177.3890  135.8480 C   0  0  0  0  0  1  0  0  0  0  0  0
  189.1180  177.0320  140.0870 C   0  0  0  0  0  2  0  0  0  0  0  0
  185.1820  179.3590  142.3880 C   0  0  0  0  0  3  0  0  0  0  0  0
  186.4080  177.8610  144.3930 C   0  0  0  0  0  3  0  0  0  0  0  0
  185.4450  178.8140  144.7270 C   0  0  0  0  0  3  0  0  0  0  0  0
  189.0750  177.5510  142.5050 N   0  0  0  0  0  2  0  0  0  0  0  0
  187.1620  177.1420  137.9550 O   0  0  0  0  0  0  0  0  0  0  0  0
  188.8740  178.4720  139.6080 C   0  0  2  0  0  3  0  0  0  0  0  0
  185.8800  177.6710  138.0990 C   0  0  2  0  0  3  0  0  0  0  0  0
  188.3140  177.7750  135.9660 C   0  0  0  0  0  1  0  0  0  0  0  0
  186.5040  178.1780  140.5800 C   0  0  1  0  0  3  0  0  0  0  0  0
  1 21  1  0  0  0  0
  3 17  1  0  0  0  0
  4 22  1  0  0  0  0
  5 27  1  6  0  0  0
  5 24  1  0  0  0  0
  5 17  1  0  0  0  0
  6  1  1  0  0  0  0
  8  7  2  0  0  0  0
  8  2  2  0  0  0  0
  9 13  1  0  0  0  0
  9 14  2  0  0  0  0
 10  8  1  6  0  0  0
 10 28  1  0  0  0  0
 14  8  1  0  0  0  0
 15 11  1  6  0  0  0
 15 23  1  0  0  0  0
 16 20  1  0  0  0  0
 16  1  2  0  0  0  0
 17 25  1  0  0  0  0
 18  9  1  0  0  0  0
 19 15  1  0  0  0  0
 20  4  2  0  0  0  0
 21 22  2  0  0  0  0
 23  6  1  0  0  0  0
 24 26  1  0  0  0  0
 25 19  1  6  0  0  0
 25 12  1  0  0  0  0
 26 13  1  6  0  0  0
 26 10  1  0  0  0  0
 28 12  1  6  0  0  0
 28 16  1  0  0  0  0
M  END
>  <MODEL>
2

>  <REMARK>
 VINA RESULT:      -6.5      3.667      6.678
  Name = 
  0 active torsions:
  status: ('A' for Active; 'I' for Inactive)
                            x       y       z     vdW  Elec       q    Type
                         _______ _______ _______ _____ _____    ______ ____

>  <TORSDO>
F 0

$$$$
=
 OpenBabel11122411523D

 28 31  0  0  1  0  0  0  0  0999 V2000
  187.2680  177.3320  142.5570 C   0  0  0  0  0  0  0  0  0  0  0  0
  186.1050  177.4260  138.2980 O   0  0  0  0  0  0  0  0  0  0  0  0
  192.9240  178.4170  140.2180 O   0  0  0  0  0  1  0  0  0  0  0  0
  185.6880  179.3780  141.4850 C   0  0  0  0  0  3  0  0  0  0  0  0
  191.9210  176.7060  139.1040 C   0  0  2  0  0  3  0  0  0  0  0  0
  188.1810  176.3780  143.2450 C   0  0  0  0  0  2  0  0  0  0  0  0
  187.8940  179.1060  138.0330 O   0  0  0  0  0  0  0  0  0  0  0  0
  187.5560  177.6430  137.9750 S   0  0  0  0  0  0  0  0  0  0  0  0
  188.7980  176.0980  136.1140 C   0  0  0  0  0  0  0  0  0  0  0  0
  188.5860  176.7180  139.1150 C   0  0  1  0  0  3  0  0  0  0  0  0
  191.6800  176.8460  144.3440 C   0  0  0  0  0  1  0  0  0  0  0  0
  190.0310  178.2200  140.7520 C   0  0  0  0  0  2  0  0  0  0  0  0
  189.5610  175.4140  137.2190 C   0  0  0  0  0  2  0  0  0  0  0  0
  187.8810  177.0470  136.3500 C   0  0  0  0  0  3  0  0  0  0  0  0
  190.5170  176.2760  143.5560 C   0  0  2  0  0  3  0  0  0  0  0  0
  187.5690  177.8460  141.2760 C   0  0  0  0  0  0  0  0  0  0  0  0
  192.3320  177.2140  140.4200 N   0  0  0  0  0  0  0  0  0  0  0  0
  189.0400  175.6660  134.7100 C   0  0  0  0  0  1  0  0  0  0  0  0
  190.8830  176.1140  142.0770 C   0  0  0  0  0  2  0  0  0  0  0  0
  186.7890  178.8970  140.7740 C   0  0  0  0  0  3  0  0  0  0  0  0
  186.1680  177.8240  143.2700 C   0  0  0  0  0  3  0  0  0  0  0  0
  185.3720  178.8340  142.7290 C   0  0  0  0  0  3  0  0  0  0  0  0
  189.3400  177.1130  143.7320 N   0  0  0  0  0  2  0  0  0  0  0  0
  190.8480  175.8090  139.1990 O   0  0  0  0  0  0  0  0  0  0  0  0
  191.2220  177.4300  141.3590 C   0  0  2  0  0  3  0  0  0  0  0  0
  189.8780  176.3680  138.3660 C   0  0  2  0  0  3  0  0  0  0  0  0
  193.0960  176.0150  138.4350 C   0  0  0  0  0  1  0  0  0  0  0  0
  188.7860  177.3620  140.5170 C   0  0  1  0  0  3  0  0  0  0  0  0
  1  6  1  0  0  0  0
  1 21  1  0  0  0  0
  3 17  1  0  0  0  0
  4 22  1  0  0  0  0
  5 27  1  1  0  0  0
  5 24  1  0  0  0  0
  5 17  1  0  0  0  0
  6 23  1  0  0  0  0
  8  7  2  0  0  0  0
  8  2  2  0  0  0  0
  9 14  2  0  0  0  0
  9 13  1  0  0  0  0
 10  8  1  6  0  0  0
 10 28  1  0  0  0  0
 14  8  1  0  0  0  0
 15 23  1  0  0  0  0
 15 11  1  1  0  0  0
 16  1  2  0  0  0  0
 17 25  1  0  0  0  0
 18  9  1  0  0  0  0
 19 15  1  0  0  0  0
 20 16  1  0  0  0  0
 20  4  2  0  0  0  0
 22 21  2  0  0  0  0
 25 12  1  6  0  0  0
 25 19  1  0  0  0  0
 26 13  1  6  0  0  0
 26 10  1  0  0  0  0
 26 24  1  0  0  0  0
 28 12  1  6  0  0  0
 28 16  1  0  0  0  0
M  END
>  <MODEL>
3

>  <REMARK>
 VINA RESULT:      -6.2      3.589      6.411
  Name = 
  0 active torsions:
  status: ('A' for Active; 'I' for Inactive)
                            x       y       z     vdW  Elec       q    Type
                         _______ _______ _______ _____ _____    ______ ____

>  <TORSDO>
F 0

$$$$
=
 OpenBabel11122411523D

 28 31  0  0  1  0  0  0  0  0999 V2000
  184.3240  178.4710  138.7680 C   0  0  0  0  0  0  0  0  0  0  0  0
  181.5980  175.1750  137.6680 O   0  0  0  0  0  0  0  0  0  0  0  0
  188.0330  175.7380  134.5940 O   0  0  0  0  0  1  0  0  0  0  0  0
  181.9390  178.9080  137.3700 C   0  0  0  0  0  3  0  0  0  0  0  0
  187.2020  174.1960  136.0450 C   0  0  2  0  0  3  0  0  0  0  0  0
  185.6640  178.3860  139.4100 C   0  0  0  0  0  2  0  0  0  0  0  0
  182.5790  175.3580  135.4100 O   0  0  0  0  0  0  0  0  0  0  0  0
  182.6760  174.6780  136.7470 S   0  0  0  0  0  0  0  0  0  0  0  0
  183.4640  172.0780  136.8260 C   0  0  0  0  0  0  0  0  0  0  0  0
  184.2890  174.9640  137.4770 C   0  0  1  0  0  3  0  0  0  0  0  0
  189.0230  178.7510  137.9070 C   0  0  0  0  0  1  0  0  0  0  0  0
  185.7720  176.7480  136.1950 C   0  0  0  0  0  2  0  0  0  0  0  0
  184.7610  172.5100  137.4590 C   0  0  0  0  0  2  0  0  0  0  0  0
  182.4870  172.9430  136.5190 C   0  0  0  0  0  3  0  0  0  0  0  0
  187.8560  178.0710  138.5990 C   0  0  2  0  0  3  0  0  0  0  0  0
  183.9350  177.5670  137.7540 C   0  0  0  0  0  0  0  0  0  0  0  0
  187.9370  175.4610  135.9170 N   0  0  0  0  0  0  0  0  0  0  0  0
  183.2430  170.6270  136.5770 C   0  0  0  0  0  1  0  0  0  0  0  0
  187.6380  176.6600  138.0460 C   0  0  0  0  0  2  0  0  0  0  0  0
  182.7560  177.8250  137.0400 C   0  0  0  0  0  3  0  0  0  0  0  0
  183.5050  179.5600  139.0890 C   0  0  0  0  0  3  0  0  0  0  0  0
  182.3090  179.7700  138.4020 C   0  0  0  0  0  3  0  0  0  0  0  0
  186.6600  178.8910  138.4760 N   0  0  0  0  0  2  0  0  0  0  0  0
  186.5560  174.0850  137.2850 O   0  0  0  0  0  0  0  0  0  0  0  0
  187.2760  176.6100  136.5540 C   0  0  2  0  0  3  0  0  0  0  0  0
  185.2210  173.8700  136.9420 C   0  0  2  0  0  3  0  0  0  0  0  0
  188.1600  173.0300  135.8710 C   0  0  0  0  0  1  0  0  0  0  0  0
  184.8350  176.4160  137.3590 C   0  0  1  0  0  3  0  0  0  0  0  0
  1 21  1  0  0  0  0
  1  6  1  0  0  0  0
  3 17  1  0  0  0  0
  4 22  1  0  0  0  0
  5 27  1  1  0  0  0
  5 24  1  0  0  0  0
  7  8  2  0  0  0  0
  8  2  2  0  0  0  0
  9 13  1  0  0  0  0
 10  8  1  6  0  0  0
 14  8  1  0  0  0  0
 14  9  2  0  0  0  0
 15 11  1  6  0  0  0
 16  1  2  0  0  0  0
 17  5  1  0  0  0  0
 17 25  1  0  0  0  0
 18  9  1  0  0  0  0
 19 15  1  0  0  0  0
 20  4  2  0  0  0  0
 20 16  1  0  0  0  0
 22 21  2  0  0  0  0
 23 15  1  0  0  0  0
 23  6  1  0  0  0  0
 25 12  1  1  0  0  0
 25 19  1  0  0  0  0
 26 24  1  0  0  0  0
 26 13  1  1  0  0  0
 26 10  1  0  0  0  0
 28 12  1  6  0  0  0
 28 10  1  0  0  0  0
 28 16  1  0  0  0  0
M  END
>  <MODEL>
4

>  <REMARK>
 VINA RESULT:      -6.1      6.411      8.487
  Name = 
  0 active torsions:
  status: ('A' for Active; 'I' for Inactive)
                            x       y       z     vdW  Elec       q    Type
                         _______ _______ _______ _____ _____    ______ ____

>  <TORSDO>
F 0

$$$$
=
 OpenBabel11122411523D

 28 31  0  0  1  0  0  0  0  0999 V2000
  183.6860  176.8730  137.9850 C   0  0  0  0  0  0  0  0  0  0  0  0
  186.2580  177.8180  141.4490 O   0  0  0  0  0  0  0  0  0  0  0  0
  180.0560  181.2530  140.4920 O   0  0  0  0  0  1  0  0  0  0  0  0
  186.1690  178.1330  137.7030 C   0  0  0  0  0  3  0  0  0  0  0  0
  180.7040  179.7570  142.0790 C   0  0  2  0  0  3  0  0  0  0  0  0
  182.3090  176.3080  137.9840 C   0  0  0  0  0  2  0  0  0  0  0  0
  185.4200  180.1280  141.2120 O   0  0  0  0  0  0  0  0  0  0  0  0
  185.2040  178.7990  141.8800 S   0  0  0  0  0  0  0  0  0  0  0  0
  184.2510  178.7670  144.4250 C   0  0  0  0  0  0  0  0  0  0  0  0
  183.5740  178.1620  141.4910 C   0  0  1  0  0  3  0  0  0  0  0  0
  179.0700  177.9990  137.4120 C   0  0  0  0  0  1  0  0  0  0  0  0
  182.2810  179.5250  139.6210 C   0  0  0  0  0  2  0  0  0  0  0  0
  182.9500  178.2080  143.9100 C   0  0  0  0  0  2  0  0  0  0  0  0
  185.2970  179.0170  143.6250 C   0  0  0  0  0  3  0  0  0  0  0  0
  180.1510  177.2420  138.1620 C   0  0  2  0  0  3  0  0  0  0  0  0
  184.0740  177.8640  138.9150 C   0  0  0  0  0  0  0  0  0  0  0  0
  180.0590  179.9260  140.7700 N   0  0  0  0  0  0  0  0  0  0  0  0
  184.3940  179.0030  145.8880 C   0  0  0  0  0  1  0  0  0  0  0  0
  180.3110  177.7830  139.5860 C   0  0  0  0  0  2  0  0  0  0  0  0
  185.3060  178.5090  138.7330 C   0  0  0  0  0  3  0  0  0  0  0  0
  184.5520  176.5060  136.9490 C   0  0  0  0  0  3  0  0  0  0  0  0
  185.7960  177.1230  136.8160 C   0  0  0  0  0  3  0  0  0  0  0  0
  181.4010  177.2970  137.4190 N   0  0  0  0  0  2  0  0  0  0  0  0
  181.2700  178.4830  142.2260 O   0  0  0  0  0  0  0  0  0  0  0  0
  180.7530  179.2530  139.6630 C   0  0  2  0  0  3  0  0  0  0  0  0
  182.6060  178.7500  142.5260 C   0  0  2  0  0  3  0  0  0  0  0  0
  179.6860  179.9860  143.1820 C   0  0  0  0  0  1  0  0  0  0  0  0
  183.1280  178.3100  140.0080 C   0  0  1  0  0  3  0  0  0  0  0  0
  1 16  1  0  0  0  0
  2  8  2  0  0  0  0
  3 17  1  0  0  0  0
  4 20  1  0  0  0  0
  5 24  1  0  0  0  0
  5 27  1  1  0  0  0
  6  1  1  0  0  0  0
  7  8  2  0  0  0  0
  8 14  1  0  0  0  0
  9 18  1  0  0  0  0
 10  8  1  6  0  0  0
 10 26  1  0  0  0  0
 12 25  1  0  0  0  0
 13  9  1  0  0  0  0
 14  9  2  0  0  0  0
 15 11  1  6  0  0  0
 15 19  1  0  0  0  0
 16 28  1  0  0  0  0
 17  5  1  0  0  0  0
 20 16  2  0  0  0  0
 21  1  2  0  0  0  0
 22 21  1  0  0  0  0
 22  4  2  0  0  0  0
 23  6  1  0  0  0  0
 23 15  1  0  0  0  0
 24 26  1  0  0  0  0
 25 19  1  1  0  0  0
 25 17  1  0  0  0  0
 26 13  1  1  0  0  0
 28 12  1  6  0  0  0
 28 10  1  0  0  0  0
M  END
>  <MODEL>
5

>  <REMARK>
 VINA RESULT:      -5.6      4.934      7.896
  Name = 
  0 active torsions:
  status: ('A' for Active; 'I' for Inactive)
                            x       y       z     vdW  Elec       q    Type
                         _______ _______ _______ _____ _____    ______ ____

>  <TORSDO>
F 0

$$$$
=
 OpenBabel11122411523D

 28 31  0  0  1  0  0  0  0  0999 V2000
  183.8230  175.8110  137.2980 C   0  0  0  0  0  0  0  0  0  0  0  0
  186.3270  178.0670  140.1510 O   0  0  0  0  0  0  0  0  0  0  0  0
  179.4190  179.7180  139.2950 O   0  0  0  0  0  1  0  0  0  0  0  0
  185.8940  177.4980  136.4600 C   0  0  0  0  0  3  0  0  0  0  0  0
  180.5280  178.8050  141.0590 C   0  0  2  0  0  3  0  0  0  0  0  0
  182.6310  174.9670  137.5820 C   0  0  0  0  0  2  0  0  0  0  0  0
  184.9320  180.0150  139.5570 O   0  0  0  0  0  0  0  0  0  0  0  0
  185.0980  178.8590  140.5020 S   0  0  0  0  0  0  0  0  0  0  0  0
  184.3690  179.1910  143.0990 C   0  0  0  0  0  0  0  0  0  0  0  0
  183.6510  177.8020  140.4560 C   0  0  1  0  0  3  0  0  0  0  0  0
  179.0430  175.7160  137.0850 C   0  0  0  0  0  1  0  0  0  0  0  0
  181.9310  178.3810  138.5230 C   0  0  0  0  0  2  0  0  0  0  0  0
  183.2110  178.2540  142.8740 C   0  0  0  0  0  2  0  0  0  0  0  0
  185.2600  179.4810  142.1410 C   0  0  0  0  0  3  0  0  0  0  0  0
  180.3280  175.4100  137.8330 C   0  0  2  0  0  3  0  0  0  0  0  0
  184.0220  177.0480  137.9520 C   0  0  0  0  0  0  0  0  0  0  0  0
  179.7680  178.5240  139.8330 N   0  0  0  0  0  0  0  0  0  0  0  0
  184.5540  179.7780  144.4540 C   0  0  0  0  0  1  0  0  0  0  0  0
  180.4530  176.2810  139.0860 C   0  0  0  0  0  2  0  0  0  0  0  0
  185.0410  177.8950  137.4920 C   0  0  0  0  0  3  0  0  0  0  0  0
  184.6760  175.4220  136.2580 C   0  0  0  0  0  3  0  0  0  0  0  0
  185.7170  176.2560  135.8500 C   0  0  0  0  0  3  0  0  0  0  0  0
  181.4690  175.5740  136.9450 N   0  0  0  0  0  2  0  0  0  0  0  0
  181.3980  177.7570  141.3900 O   0  0  0  0  0  0  0  0  0  0  0  0
  180.5250  177.7900  138.8080 C   0  0  2  0  0  3  0  0  0  0  0  0
  182.6460  178.3770  141.4620 C   0  0  2  0  0  3  0  0  0  0  0  0
  179.5670  179.0430  142.2100 C   0  0  0  0  0  1  0  0  0  0  0  0
  183.0770  177.5070  139.0400 C   0  0  1  0  0  3  0  0  0  0  0  0
  1  6  1  0  0  0  0
  1 16  1  0  0  0  0
  2  8  2  0  0  0  0
  3 17  1  0  0  0  0
  4 20  1  0  0  0  0
  5 24  1  0  0  0  0
  5 27  1  1  0  0  0
  7  8  2  0  0  0  0
  8 14  1  0  0  0  0
  9 18  1  0  0  0  0
 10  8  1  6  0  0  0
 10 26  1  0  0  0  0
 13  9  1  0  0  0  0
 14  9  2  0  0  0  0
 15 11  1  6  0  0  0
 15 19  1  0  0  0  0
 16 28  1  0  0  0  0
 17  5  1  0  0  0  0
 20 16  2  0  0  0  0
 21  1  2  0  0  0  0
 22 21  1  0  0  0  0
 22  4  2  0  0  0  0
 23  6  1  0  0  0  0
 23 15  1  0  0  0  0
 24 26  1  0  0  0  0
 25 12  1  1  0  0  0
 25 19  1  0  0  0  0
 25 17  1  0  0  0  0
 26 13  1  1  0  0  0
 28 12  1  6  0  0  0
 28 10  1  0  0  0  0
M  END
>  <MODEL>
6

>  <REMARK>
 VINA RESULT:      -5.6      5.425      8.365
  Name = 
  0 active torsions:
  status: ('A' for Active; 'I' for Inactive)
                            x       y       z     vdW  Elec       q    Type
                         _______ _______ _______ _____ _____    ______ ____

>  <TORSDO>
F 0

$$$$
=
 OpenBabel11122411523D

 28 31  0  0  1  0  0  0  0  0999 V2000
  184.2770  173.2750  137.1410 C   0  0  0  0  0  0  0  0  0  0  0  0
  188.4350  171.8150  136.8540 O   0  0  0  0  0  0  0  0  0  0  0  0
  186.7340  178.3870  134.5980 O   0  0  0  0  0  1  0  0  0  0  0  0
  185.0220  171.2230  135.3900 C   0  0  0  0  0  3  0  0  0  0  0  0
  187.9960  177.6940  136.3600 C   0  0  2  0  0  3  0  0  0  0  0  0
  183.7520  174.4170  137.9390 C   0  0  0  0  0  2  0  0  0  0  0  0
  188.5820  173.1820  134.8040 O   0  0  0  0  0  0  0  0  0  0  0  0
  188.7990  173.1600  136.2910 S   0  0  0  0  0  0  0  0  0  0  0  0
  190.8860  174.5650  137.3190 C   0  0  0  0  0  0  0  0  0  0  0  0
  187.8260  174.4420  137.0820 C   0  0  1  0  0  3  0  0  0  0  0  0
  182.7710  177.8070  136.8320 C   0  0  0  0  0  1  0  0  0  0  0  0
  186.0920  175.6490  135.4810 C   0  0  0  0  0  2  0  0  0  0  0  0
  189.9080  175.5340  137.9310 C   0  0  0  0  0  2  0  0  0  0  0  0
  190.4960  173.4870  136.6250 C   0  0  0  0  0  3  0  0  0  0  0  0
  183.5660  176.7370  137.5570 C   0  0  2  0  0  3  0  0  0  0  0  0
  185.5000  173.3670  136.4410 C   0  0  0  0  0  0  0  0  0  0  0  0
  186.6500  178.0810  135.9160 N   0  0  0  0  0  0  0  0  0  0  0  0
  192.3410  174.7920  137.5350 C   0  0  0  0  0  1  0  0  0  0  0  0
  185.0690  177.0220  137.4770 C   0  0  0  0  0  2  0  0  0  0  0  0
  185.8370  172.3470  135.5400 C   0  0  0  0  0  3  0  0  0  0  0  0
  183.4600  172.1500  136.9810 C   0  0  0  0  0  3  0  0  0  0  0  0
  183.8380  171.1200  136.1190 C   0  0  0  0  0  3  0  0  0  0  0  0
  183.2350  175.4250  137.0220 N   0  0  0  0  0  2  0  0  0  0  0  0
  187.9580  176.8460  137.4760 O   0  0  0  0  0  0  0  0  0  0  0  0
  185.6410  177.0210  136.0500 C   0  0  2  0  0  3  0  0  0  0  0  0
  188.6720  175.7220  137.0580 C   0  0  2  0  0  3  0  0  0  0  0  0
  188.7970  178.9380  136.7000 C   0  0  0  0  0  1  0  0  0  0  0  0
  186.3690  174.6010  136.5620 C   0  0  1  0  0  3  0  0  0  0  0  0
  1  6  1  0  0  0  0
  3 17  1  0  0  0  0
  4 20  2  0  0  0  0
  4 22  1  0  0  0  0
  5 27  1  1  0  0  0
  5 24  1  0  0  0  0
  7  8  2  0  0  0  0
  8 14  1  0  0  0  0
  8  2  2  0  0  0  0
  9 18  1  0  0  0  0
  9 13  1  0  0  0  0
 10  8  1  6  0  0  0
 14  9  2  0  0  0  0
 15 11  1  6  0  0  0
 16 28  1  0  0  0  0
 16  1  2  0  0  0  0
 17 25  1  0  0  0  0
 17  5  1  0  0  0  0
 19 15  1  0  0  0  0
 20 16  1  0  0  0  0
 21  1  1  0  0  0  0
 22 21  2  0  0  0  0
 23 15  1  0  0  0  0
 23  6  1  0  0  0  0
 25 12  1  1  0  0  0
 25 19  1  0  0  0  0
 26 10  1  0  0  0  0
 26 24  1  0  0  0  0
 26 13  1  1  0  0  0
 28 12  1  6  0  0  0
 28 10  1  0  0  0  0
M  END
>  <MODEL>
7

>  <REMARK>
 VINA RESULT:      -5.5      7.086      9.167
  Name = 
  0 active torsions:
  status: ('A' for Active; 'I' for Inactive)
                            x       y       z     vdW  Elec       q    Type
                         _______ _______ _______ _____ _____    ______ ____

>  <TORSDO>
F 0

$$$$
=
 OpenBabel11122411523D

 28 31  0  0  1  0  0  0  0  0999 V2000
  186.0900  177.6670  145.5190 C   0  0  0  0  0  0  0  0  0  0  0  0
  185.3510  178.2270  141.2020 O   0  0  0  0  0  0  0  0  0  0  0  0
  191.8240  179.5020  143.9680 O   0  0  0  0  0  1  0  0  0  0  0  0
  184.4400  179.7030  144.5380 C   0  0  0  0  0  3  0  0  0  0  0  0
  191.1010  177.8770  142.5490 C   0  0  2  0  0  3  0  0  0  0  0  0
  187.0160  176.7070  146.1810 C   0  0  0  0  0  2  0  0  0  0  0  0
  186.9920  180.0650  141.3430 O   0  0  0  0  0  0  0  0  0  0  0  0
  186.8010  178.6000  141.0690 S   0  0  0  0  0  0  0  0  0  0  0  0
  188.3600  177.4200  139.1820 C   0  0  0  0  0  0  0  0  0  0  0  0
  187.7950  177.6200  142.1940 C   0  0  1  0  0  3  0  0  0  0  0  0
  190.3310  177.3060  147.7090 C   0  0  0  0  0  1  0  0  0  0  0  0
  188.9240  179.0050  144.1520 C   0  0  0  0  0  2  0  0  0  0  0  0
  189.0700  176.6600  140.2720 C   0  0  0  0  0  2  0  0  0  0  0  0
  187.3390  178.2530  139.4290 C   0  0  0  0  0  3  0  0  0  0  0  0
  189.3090  176.7530  146.7320 C   0  0  2  0  0  3  0  0  0  0  0  0
  186.4680  178.3670  144.3520 C   0  0  0  0  0  0  0  0  0  0  0  0
  191.3300  178.2390  143.9540 N   0  0  0  0  0  0  0  0  0  0  0  0
  188.7790  177.1970  137.7710 C   0  0  0  0  0  1  0  0  0  0  0  0
  189.8340  176.8180  145.2950 C   0  0  0  0  0  2  0  0  0  0  0  0
  185.6460  179.4090  143.8990 C   0  0  0  0  0  3  0  0  0  0  0  0
  184.8850  177.9710  146.1610 C   0  0  0  0  0  3  0  0  0  0  0  0
  184.0540  178.9760  145.6640 C   0  0  0  0  0  3  0  0  0  0  0  0
  188.0470  177.4630  146.8800 N   0  0  0  0  0  2  0  0  0  0  0  0
  190.1120  176.8920  142.4150 O   0  0  0  0  0  0  0  0  0  0  0  0
  190.1170  178.2390  144.7840 C   0  0  2  0  0  3  0  0  0  0  0  0
  189.1820  177.4770  141.5550 C   0  0  2  0  0  3  0  0  0  0  0  0
  192.3960  177.3780  141.9340 C   0  0  0  0  0  1  0  0  0  0  0  0
  187.7930  178.0870  143.6780 C   0  0  1  0  0  3  0  0  0  0  0  0
  1 21  1  0  0  0  0
  1  6  1  0  0  0  0
  4 22  1  0  0  0  0
  5 27  1  1  0  0  0
  5 17  1  0  0  0  0
  6 23  1  0  0  0  0
  8  2  2  0  0  0  0
  8  7  2  0  0  0  0
  9 14  2  0  0  0  0
  9 13  1  0  0  0  0
 10  8  1  6  0  0  0
 10 28  1  0  0  0  0
 14  8  1  0  0  0  0
 15 23  1  0  0  0  0
 15 11  1  1  0  0  0
 16  1  2  0  0  0  0
 17  3  1  0  0  0  0
 17 25  1  0  0  0  0
 18  9  1  0  0  0  0
 19 15  1  0  0  0  0
 20 16  1  0  0  0  0
 20  4  2  0  0  0  0
 22 21  2  0  0  0  0
 24  5  1  0  0  0  0
 25 12  1  6  0  0  0
 25 19  1  0  0  0  0
 26 13  1  6  0  0  0
 26 10  1  0  0  0  0
 26 24  1  0  0  0  0
 28 12  1  6  0  0  0
 28 16  1  0  0  0  0
M  END
>  <MODEL>
8

>  <REMARK>
 VINA RESULT:      -5.4      2.555      5.323
  Name = 
  0 active torsions:
  status: ('A' for Active; 'I' for Inactive)
                            x       y       z     vdW  Elec       q    Type
                         _______ _______ _______ _____ _____    ______ ____

>  <TORSDO>
F 0

$$$$
=
 OpenBabel11122411523D

 28 31  0  0  1  0  0  0  0  0999 V2000
  182.8680  178.1680  137.3050 C   0  0  0  0  0  0  0  0  0  0  0  0
  187.1740  179.1420  137.2040 O   0  0  0  0  0  0  0  0  0  0  0  0
  184.9990  172.3280  137.2930 O   0  0  0  0  0  1  0  0  0  0  0  0
  184.1800  179.3630  139.4680 C   0  0  0  0  0  3  0  0  0  0  0  0
  186.0200  173.5470  135.6670 C   0  0  2  0  0  3  0  0  0  0  0  0
  182.0600  177.4430  136.2850 C   0  0  0  0  0  2  0  0  0  0  0  0
  187.4830  177.1010  138.5570 O   0  0  0  0  0  0  0  0  0  0  0  0
  187.4400  177.6640  137.1640 S   0  0  0  0  0  0  0  0  0  0  0  0
  189.1050  176.6140  135.2890 C   0  0  0  0  0  0  0  0  0  0  0  0
  186.1790  176.8370  136.1950 C   0  0  1  0  0  3  0  0  0  0  0  0
  180.8270  173.9570  136.3010 C   0  0  0  0  0  1  0  0  0  0  0  0
  184.5980  175.2330  137.5930 C   0  0  0  0  0  2  0  0  0  0  0  0
  187.9110  176.0110  134.5950 C   0  0  0  0  0  2  0  0  0  0  0  0
  188.9930  177.3770  136.3850 C   0  0  0  0  0  3  0  0  0  0  0  0
  181.6250  175.1660  135.8510 C   0  0  2  0  0  3  0  0  0  0  0  0
  184.1690  177.7410  137.6510 C   0  0  0  0  0  0  0  0  0  0  0  0
  184.7310  173.1100  136.2190 N   0  0  0  0  0  0  0  0  0  0  0  0
  190.4550  176.3920  134.7040 C   0  0  0  0  0  1  0  0  0  0  0  0
  183.0650  174.7760  135.5060 C   0  0  0  0  0  2  0  0  0  0  0  0
  184.7940  178.3260  138.7620 C   0  0  0  0  0  3  0  0  0  0  0  0
  182.2540  179.2010  138.0220 C   0  0  0  0  0  3  0  0  0  0  0  0
  182.9130  179.8070  139.0910 C   0  0  0  0  0  3  0  0  0  0  0  0
  181.5760  176.2020  136.8720 N   0  0  0  0  0  2  0  0  0  0  0  0
  185.9080  174.7520  134.9580 O   0  0  0  0  0  0  0  0  0  0  0  0
  183.8700  174.2070  136.6850 C   0  0  2  0  0  3  0  0  0  0  0  0
  186.8310  175.5890  135.5850 C   0  0  2  0  0  3  0  0  0  0  0  0
  186.5720  172.4720  134.7470 C   0  0  0  0  0  1  0  0  0  0  0  0
  184.8250  176.5900  136.9210 C   0  0  1  0  0  3  0  0  0  0  0  0
  1 16  2  0  0  0  0
  1 21  1  0  0  0  0
  5 27  1  6  0  0  0
  5 17  1  0  0  0  0
  6 23  1  0  0  0  0
  6  1  1  0  0  0  0
  8  2  2  0  0  0  0
  8  7  2  0  0  0  0
  9 14  2  0  0  0  0
 10 28  1  0  0  0  0
 10  8  1  1  0  0  0
 13  9  1  0  0  0  0
 14  8  1  0  0  0  0
 15 11  1  1  0  0  0
 15 23  1  0  0  0  0
 16 20  1  0  0  0  0
 17 25  1  0  0  0  0
 17  3  1  0  0  0  0
 18  9  1  0  0  0  0
 19 15  1  0  0  0  0
 20  4  2  0  0  0  0
 21 22  2  0  0  0  0
 22  4  1  0  0  0  0
 24 26  1  0  0  0  0
 24  5  1  0  0  0  0
 25 19  1  6  0  0  0
 25 12  1  0  0  0  0
 26 13  1  6  0  0  0
 26 10  1  0  0  0  0
 28 12  1  1  0  0  0
 28 16  1  0  0  0  0
M  END
>  <MODEL>
9

>  <REMARK>
 VINA RESULT:      -5.2      6.802      9.041
  Name = 
  0 active torsions:
  status: ('A' for Active; 'I' for Inactive)
                            x       y       z     vdW  Elec       q    Type
                         _______ _______ _______ _____ _____    ______ ____

>  <TORSDO>
F 0

$$$$
