=
 OpenBabel11122411363D

 37 42  0  0  1  0  0  0  0  0999 V2000
  189.2730  177.9620  143.5840 C   0  0  0  0  0  0  0  0  0  0  0  0
  185.4230  178.1360  141.9500 C   0  0  0  0  0  0  0  0  0  0  0  0
  185.2080  179.3180  138.3550 O   0  0  0  0  0  0  0  0  0  0  0  0
  186.7550  178.1810  143.9570 C   0  0  0  0  0  0  0  0  0  0  0  0
  185.6400  178.1330  140.4730 C   0  0  1  0  0  3  0  0  0  0  0  0
  186.6250  178.1200  142.5780 C   0  0  0  0  0  0  0  0  0  0  0  0
  184.8190  179.1960  139.7150 C   0  0  2  0  0  3  0  0  0  0  0  0
  185.5790  178.2310  144.7260 C   0  0  0  0  0  3  0  0  0  0  0  0
  187.7070  178.1490  141.6850 N   0  0  0  0  0  0  0  0  0  0  0  0
  189.4160  176.4500  143.5380 C   0  0  0  0  0  1  0  0  0  0  0  0
  182.9230  178.2380  141.9730 C   0  0  0  0  0  2  0  0  0  0  0  0
  184.3180  178.2150  144.0870 C   0  0  0  0  0  3  0  0  0  0  0  0
  189.0440  178.5030  142.1540 C   0  0  0  0  0  2  0  0  0  0  0  0
  186.5030  177.7000  137.1050 C   0  0  1  0  0  3  0  0  0  0  0  0
  185.1600  178.0470  137.7510 C   0  0  0  0  0  2  0  0  0  0  0  0
  184.2350  178.1690  142.6810 C   0  0  0  0  0  0  0  0  0  0  0  0
  187.1660  178.3820  140.3470 C   0  0  1  0  0  3  0  0  0  0  0  0
  188.1270  178.3440  144.5550 C   0  0  0  0  0  2  0  0  0  0  0  0
  183.2920  178.9980  139.8910 C   0  0  1  0  0  3  0  0  0  0  0  0
  190.5650  178.5440  144.1160 C   0  0  0  0  0  1  0  0  0  0  0  0
  187.7430  178.0560  137.9420 C   0  0  0  0  0  2  0  0  0  0  0  0
  187.7740  177.4260  139.3320 C   0  0  0  0  0  2  0  0  0  0  0  0
  182.8890  179.3910  141.1780 O   0  0  0  0  0  0  0  0  0  0  0  0
  182.3840  181.1510  138.9950 C   0  0  0  0  0  3  0  0  0  0  0  0
  182.4980  179.7610  138.8740 C   0  0  0  0  0  0  0  0  0  0  0  0
  181.8630  179.1030  137.8110 C   0  0  0  0  0  3  0  0  0  0  0  0
  180.4500  179.1310  135.7520 C   0  0  0  0  0  1  0  0  0  0  0  0
  181.0090  181.2200  137.0030 C   0  0  0  0  0  3  0  0  0  0  0  0
  181.1210  179.8320  136.8770 C   0  0  0  0  0  0  0  0  0  0  0  0
  181.6410  181.8790  138.0620 C   0  0  0  0  0  3  0  0  0  0  0  0
  186.3180  173.4410  136.0620 O   0  0  0  0  0  0  0  0  0  0  0  0
  185.6610  173.9150  137.0270 C   0  0  0  0  0  0  0  0  0  0  0  0
  186.5300  176.2770  136.6500 C   0  0  0  0  0  0  0  0  0  0  0  0
  185.7400  175.3110  137.3500 N   0  0  0  0  0  2  0  0  0  0  0  0
  187.2310  175.9440  135.6550 O   0  0  0  0  0  0  0  0  0  0  0  0
  183.9070  172.1990  137.1720 C   0  0  0  0  0  1  0  0  0  0  0  0
  184.8550  173.0620  137.7800 O   0  0  0  0  0  0  0  0  0  0  0  0
  1 20  1  0  0  0  0
  1 18  1  0  0  0  0
  2  6  2  0  0  0  0
  2 16  1  0  0  0  0
  4 18  1  0  0  0  0
  4  8  2  0  0  0  0
  5  2  1  1  0  0  0
  6  4  1  0  0  0  0
  7  3  1  6  0  0  0
  7 19  1  0  0  0  0
  7  5  1  0  0  0  0
  9 13  1  0  0  0  0
  9  6  1  0  0  0  0
 10  1  1  0  0  0  0
 11 16  1  0  0  0  0
 12  8  1  0  0  0  0
 13  1  1  0  0  0  0
 14 33  1  1  0  0  0
 14 15  1  0  0  0  0
 14 21  1  0  0  0  0
 15  3  1  0  0  0  0
 16 12  2  0  0  0  0
 17 22  1  6  0  0  0
 17  5  1  0  0  0  0
 17  9  1  0  0  0  0
 19 25  1  6  0  0  0
 19 23  1  0  0  0  0
 21 22  1  0  0  0  0
 23 11  1  0  0  0  0
 25 24  1  0  0  0  0
 26 25  2  0  0  0  0
 27 29  1  0  0  0  0
 28 30  1  0  0  0  0
 29 28  2  0  0  0  0
 29 26  1  0  0  0  0
 30 24  2  0  0  0  0
 31 32  2  0  0  0  0
 32 34  1  0  0  0  0
 32 37  1  0  0  0  0
 33 34  1  0  0  0  0
 35 33  2  0  0  0  0
 36 37  1  0  0  0  0
M  END
>  <MODEL>
1

>  <REMARK>
 VINA RESULT:      -7.6      0.000      0.000
  Name = 
  3 active torsions:
  status: ('A' for Active; 'I' for Inactive)
    1  A    between atoms: C_4  and  O_37
    2  A    between atoms: C_8  and  C_18
    3  A    between atoms: C_23  and  C_30
                            x       y       z     vdW  Elec       q    Type
                         _______ _______ _______ _____ _____    ______ ____

>  <TORSDO>
F 3

$$$$
=
 OpenBabel11122411363D

 37 42  0  0  1  0  0  0  0  0999 V2000
  188.9050  177.9310  143.6640 C   0  0  0  0  0  0  0  0  0  0  0  0
  185.1030  178.2100  141.9390 C   0  0  0  0  0  0  0  0  0  0  0  0
  185.0080  179.3850  138.3360 O   0  0  0  0  0  0  0  0  0  0  0  0
  186.3870  178.2240  143.9770 C   0  0  0  0  0  0  0  0  0  0  0  0
  185.3550  178.1950  140.4670 C   0  0  1  0  0  3  0  0  0  0  0  0
  186.2880  178.1620  142.5950 C   0  0  0  0  0  0  0  0  0  0  0  0
  184.5820  179.2800  139.6870 C   0  0  2  0  0  3  0  0  0  0  0  0
  185.1950  178.3100  144.7170 C   0  0  0  0  0  3  0  0  0  0  0  0
  187.3920  178.1570  141.7280 N   0  0  0  0  0  0  0  0  0  0  0  0
  189.0070  176.4160  143.6260 C   0  0  0  0  0  1  0  0  0  0  0  0
  182.6060  178.3830  141.9010 C   0  0  0  0  0  2  0  0  0  0  0  0
  183.9490  178.3280  144.0480 C   0  0  0  0  0  3  0  0  0  0  0  0
  188.7260  178.4740  142.2290 C   0  0  0  0  0  2  0  0  0  0  0  0
  186.2850  177.7270  137.1220 C   0  0  1  0  0  3  0  0  0  0  0  0
  184.9380  178.1140  137.7340 C   0  0  0  0  0  2  0  0  0  0  0  0
  183.8980  178.2790  142.6410 C   0  0  0  0  0  0  0  0  0  0  0  0
  186.8890  178.4000  140.3770 C   0  0  1  0  0  3  0  0  0  0  0  0
  187.7480  178.3490  144.6070 C   0  0  0  0  0  2  0  0  0  0  0  0
  183.0470  179.1260  139.8260 C   0  0  1  0  0  3  0  0  0  0  0  0
  190.2000  178.4780  144.2260 C   0  0  0  0  0  1  0  0  0  0  0  0
  187.5140  178.0500  137.9870 C   0  0  0  0  0  2  0  0  0  0  0  0
  187.4940  177.4240  139.3790 C   0  0  0  0  0  2  0  0  0  0  0  0
  182.6250  179.5350  141.1020 O   0  0  0  0  0  0  0  0  0  0  0  0
  181.6030  179.2250  137.7850 C   0  0  0  0  0  3  0  0  0  0  0  0
  182.2990  179.9080  138.7880 C   0  0  0  0  0  0  0  0  0  0  0  0
  182.2950  181.3100  138.8050 C   0  0  0  0  0  3  0  0  0  0  0  0
  181.5960  183.5060  137.8460 C   0  0  0  0  0  1  0  0  0  0  0  0
  180.9050  181.3350  136.8230 C   0  0  0  0  0  3  0  0  0  0  0  0
  181.5980  182.0210  137.8240 C   0  0  0  0  0  0  0  0  0  0  0  0
  180.9070  179.9370  136.8040 C   0  0  0  0  0  3  0  0  0  0  0  0
  186.6800  173.5630  135.7930 O   0  0  0  0  0  0  0  0  0  0  0  0
  187.6870  174.2990  135.9700 C   0  0  0  0  0  0  0  0  0  0  0  0
  186.2830  176.3030  136.6710 C   0  0  0  0  0  0  0  0  0  0  0  0
  187.5320  175.6580  136.4030 N   0  0  0  0  0  2  0  0  0  0  0  0
  185.1920  175.6810  136.5460 O   0  0  0  0  0  0  0  0  0  0  0  0
  189.8930  173.5860  136.7890 C   0  0  0  0  0  1  0  0  0  0  0  0
  188.9570  173.7730  135.7390 O   0  0  0  0  0  0  0  0  0  0  0  0
  1 20  1  0  0  0  0
  1 18  1  0  0  0  0
  2  6  2  0  0  0  0
  2 16  1  0  0  0  0
  4 18  1  0  0  0  0
  4  8  2  0  0  0  0
  5  2  1  1  0  0  0
  6  4  1  0  0  0  0
  7  3  1  6  0  0  0
  7 19  1  0  0  0  0
  7  5  1  0  0  0  0
  9 13  1  0  0  0  0
  9  6  1  0  0  0  0
 10  1  1  0  0  0  0
 11 16  1  0  0  0  0
 12  8  1  0  0  0  0
 13  1  1  0  0  0  0
 14 33  1  1  0  0  0
 14 15  1  0  0  0  0
 14 21  1  0  0  0  0
 15  3  1  0  0  0  0
 16 12  2  0  0  0  0
 17 22  1  6  0  0  0
 17  5  1  0  0  0  0
 17  9  1  0  0  0  0
 19 25  1  6  0  0  0
 19 23  1  0  0  0  0
 21 22  1  0  0  0  0
 23 11  1  0  0  0  0
 24 25  1  0  0  0  0
 25 26  2  0  0  0  0
 28 29  2  0  0  0  0
 29 27  1  0  0  0  0
 29 26  1  0  0  0  0
 30 28  1  0  0  0  0
 30 24  2  0  0  0  0
 31 32  2  0  0  0  0
 32 34  1  0  0  0  0
 34 33  1  0  0  0  0
 35 33  2  0  0  0  0
 37 32  1  0  0  0  0
 37 36  1  0  0  0  0
M  END
>  <MODEL>
2

>  <REMARK>
 VINA RESULT:      -7.2      1.132      1.841
  Name = 
  3 active torsions:
  status: ('A' for Active; 'I' for Inactive)
    1  A    between atoms: C_4  and  O_37
    2  A    between atoms: C_8  and  C_18
    3  A    between atoms: C_23  and  C_30
                            x       y       z     vdW  Elec       q    Type
                         _______ _______ _______ _____ _____    ______ ____

>  <TORSDO>
F 3

$$$$
=
 OpenBabel11122411363D

 37 42  0  0  1  0  0  0  0  0999 V2000
  190.0920  178.1290  143.4550 C   0  0  0  0  0  0  0  0  0  0  0  0
  186.1630  177.9770  142.0240 C   0  0  0  0  0  0  0  0  0  0  0  0
  185.6630  179.1300  138.4480 O   0  0  0  0  0  0  0  0  0  0  0  0
  187.5880  178.1370  143.9590 C   0  0  0  0  0  0  0  0  0  0  0  0
  186.3020  177.9890  140.5370 C   0  0  1  0  0  3  0  0  0  0  0  0
  187.3920  178.0630  142.5890 C   0  0  0  0  0  0  0  0  0  0  0  0
  185.3560  178.9790  139.8260 C   0  0  2  0  0  3  0  0  0  0  0  0
  186.4530  178.0880  144.7880 C   0  0  0  0  0  3  0  0  0  0  0  0
  188.4200  178.1820  141.6410 N   0  0  0  0  0  0  0  0  0  0  0  0
  190.3600  176.6350  143.3980 C   0  0  0  0  0  1  0  0  0  0  0  0
  183.6670  177.8670  142.1750 C   0  0  0  0  0  2  0  0  0  0  0  0
  185.1660  177.9660  144.2150 C   0  0  0  0  0  3  0  0  0  0  0  0
  189.7450  178.6470  142.0410 C   0  0  0  0  0  2  0  0  0  0  0  0
  187.0230  177.6260  137.1280 C   0  0  1  0  0  3  0  0  0  0  0  0
  185.6910  177.8590  137.8430 C   0  0  0  0  0  2  0  0  0  0  0  0
  185.0150  177.9100  142.8150 C   0  0  0  0  0  0  0  0  0  0  0  0
  187.7930  178.3660  140.3330 C   0  0  1  0  0  3  0  0  0  0  0  0
  188.9700  178.4150  144.4860 C   0  0  0  0  0  2  0  0  0  0  0  0
  183.8620  178.6530  140.0790 C   0  0  1  0  0  3  0  0  0  0  0  0
  191.3560  178.8190  143.9220 C   0  0  0  0  0  1  0  0  0  0  0  0
  188.2700  178.0860  137.9000 C   0  0  0  0  0  2  0  0  0  0  0  0
  188.4260  177.4630  139.2850 C   0  0  0  0  0  2  0  0  0  0  0  0
  183.4950  179.0130  141.3870 O   0  0  0  0  0  0  0  0  0  0  0  0
  182.7690  180.7280  139.2090 C   0  0  0  0  0  3  0  0  0  0  0  0
  182.9550  179.3450  139.1070 C   0  0  0  0  0  0  0  0  0  0  0  0
  182.2880  178.6270  138.1050 C   0  0  0  0  0  3  0  0  0  0  0  0
  180.7360  178.5250  136.1520 C   0  0  0  0  0  1  0  0  0  0  0  0
  181.2560  180.6710  137.3190 C   0  0  0  0  0  3  0  0  0  0  0  0
  181.4410  179.2900  137.2120 C   0  0  0  0  0  0  0  0  0  0  0  0
  181.9210  181.3900  138.3170 C   0  0  0  0  0  3  0  0  0  0  0  0
  187.7430  173.5670  135.6230 O   0  0  0  0  0  0  0  0  0  0  0  0
  188.5710  174.4980  135.4350 C   0  0  0  0  0  0  0  0  0  0  0  0
  187.1460  176.2100  136.6680 C   0  0  0  0  0  0  0  0  0  0  0  0
  188.3120  175.8180  135.9350 N   0  0  0  0  0  2  0  0  0  0  0  0
  186.2390  175.3760  136.9380 O   0  0  0  0  0  0  0  0  0  0  0  0
  190.5880  173.1390  135.0730 C   0  0  0  0  0  1  0  0  0  0  0  0
  189.7440  174.2280  134.7320 O   0  0  0  0  0  0  0  0  0  0  0  0
  1 20  1  0  0  0  0
  1 18  1  0  0  0  0
  2  6  2  0  0  0  0
  2 16  1  0  0  0  0
  4 18  1  0  0  0  0
  4  8  2  0  0  0  0
  5  2  1  1  0  0  0
  6  4  1  0  0  0  0
  7  3  1  6  0  0  0
  7 19  1  0  0  0  0
  7  5  1  0  0  0  0
  9 13  1  0  0  0  0
  9  6  1  0  0  0  0
 10  1  1  0  0  0  0
 11 16  1  0  0  0  0
 12  8  1  0  0  0  0
 13  1  1  0  0  0  0
 14 33  1  1  0  0  0
 14 15  1  0  0  0  0
 14 21  1  0  0  0  0
 15  3  1  0  0  0  0
 16 12  2  0  0  0  0
 17 22  1  6  0  0  0
 17  5  1  0  0  0  0
 17  9  1  0  0  0  0
 19 25  1  6  0  0  0
 19 23  1  0  0  0  0
 21 22  1  0  0  0  0
 23 11  1  0  0  0  0
 25 24  1  0  0  0  0
 26 25  2  0  0  0  0
 27 29  1  0  0  0  0
 28 30  1  0  0  0  0
 29 28  2  0  0  0  0
 29 26  1  0  0  0  0
 30 24  2  0  0  0  0
 32 31  2  0  0  0  0
 32 34  1  0  0  0  0
 33 35  2  0  0  0  0
 34 33  1  0  0  0  0
 37 36  1  0  0  0  0
 37 32  1  0  0  0  0
M  END
>  <MODEL>
3

>  <REMARK>
 VINA RESULT:      -6.9      1.450      1.848
  Name = 
  3 active torsions:
  status: ('A' for Active; 'I' for Inactive)
    1  A    between atoms: C_4  and  O_37
    2  A    between atoms: C_8  and  C_18
    3  A    between atoms: C_23  and  C_30
                            x       y       z     vdW  Elec       q    Type
                         _______ _______ _______ _____ _____    ______ ____

>  <TORSDO>
F 3

$$$$
=
 OpenBabel11122411363D

 37 42  0  0  1  0  0  0  0  0999 V2000
  179.8790  178.8570  142.4850 C   0  0  0  0  0  0  0  0  0  0  0  0
  182.4260  176.9150  139.7900 C   0  0  0  0  0  0  0  0  0  0  0  0
  185.7110  178.6640  139.0710 O   0  0  0  0  0  0  0  0  0  0  0  0
  180.1570  177.2250  140.5390 C   0  0  0  0  0  0  0  0  0  0  0  0
  183.7730  177.5010  140.0560 C   0  0  1  0  0  3  0  0  0  0  0  0
  181.5120  177.5120  140.5960 C   0  0  0  0  0  0  0  0  0  0  0  0
  184.5400  177.9130  138.7820 C   0  0  2  0  0  3  0  0  0  0  0  0
  179.7300  176.2480  139.6230 C   0  0  0  0  0  3  0  0  0  0  0  0
  182.0690  178.5190  141.3990 N   0  0  0  0  0  0  0  0  0  0  0  0
  180.1270  177.9300  143.6630 C   0  0  0  0  0  1  0  0  0  0  0  0
  183.0520  175.3200  137.9670 C   0  0  0  0  0  2  0  0  0  0  0  0
  180.6750  175.5930  138.8000 C   0  0  0  0  0  3  0  0  0  0  0  0
  181.2120  179.5060  142.0480 C   0  0  0  0  0  2  0  0  0  0  0  0
  186.8150  178.7920  141.2200 C   0  0  1  0  0  3  0  0  0  0  0  0
  186.5020  177.9440  139.9860 C   0  0  0  0  0  2  0  0  0  0  0  0
  182.0410  175.9290  138.8810 C   0  0  0  0  0  0  0  0  0  0  0  0
  183.4480  178.7220  140.9560 C   0  0  1  0  0  3  0  0  0  0  0  0
  179.1980  178.0670  141.3390 C   0  0  0  0  0  2  0  0  0  0  0  0
  184.8110  176.7120  137.8420 C   0  0  1  0  0  3  0  0  0  0  0  0
  178.9370  179.9530  142.9350 C   0  0  0  0  0  1  0  0  0  0  0  0
  185.6330  179.6060  141.7720 C   0  0  0  0  0  2  0  0  0  0  0  0
  184.4050  178.7760  142.1370 C   0  0  0  0  0  2  0  0  0  0  0  0
  183.6310  176.3270  137.1840 O   0  0  0  0  0  0  0  0  0  0  0  0
  185.5040  177.6580  135.6320 C   0  0  0  0  0  3  0  0  0  0  0  0
  185.8660  177.0140  136.8200 C   0  0  0  0  0  0  0  0  0  0  0  0
  187.2040  176.6560  137.0360 C   0  0  0  0  0  3  0  0  0  0  0  0
  189.5880  176.5580  136.3000 C   0  0  0  0  0  1  0  0  0  0  0  0
  187.8050  177.5820  134.8820 C   0  0  0  0  0  3  0  0  0  0  0  0
  188.1710  176.9400  136.0680 C   0  0  0  0  0  0  0  0  0  0  0  0
  186.4720  177.9410  134.6640 C   0  0  0  0  0  3  0  0  0  0  0  0
  188.5040  176.5770  144.6120 O   0  0  0  0  0  0  0  0  0  0  0  0
  187.6280  177.4680  144.7750 C   0  0  0  0  0  0  0  0  0  0  0  0
  187.4690  177.9720  142.2840 C   0  0  0  0  0  0  0  0  0  0  0  0
  187.0930  178.1800  143.6490 N   0  0  0  0  0  2  0  0  0  0  0  0
  188.3290  177.1020  141.9740 O   0  0  0  0  0  0  0  0  0  0  0  0
  185.9460  178.3990  146.3060 C   0  0  0  0  0  1  0  0  0  0  0  0
  187.1860  177.7540  146.0650 O   0  0  0  0  0  0  0  0  0  0  0  0
  1 20  1  0  0  0  0
  1 10  1  0  0  0  0
  2  6  1  0  0  0  0
  3 15  1  0  0  0  0
  4  6  2  0  0  0  0
  4 18  1  0  0  0  0
  5  2  1  6  0  0  0
  5 17  1  0  0  0  0
  6  9  1  0  0  0  0
  7  3  1  1  0  0  0
  7  5  1  0  0  0  0
  8  4  1  0  0  0  0
  9 13  1  0  0  0  0
 11 16  1  0  0  0  0
 12 16  1  0  0  0  0
 12  8  2  0  0  0  0
 13  1  1  0  0  0  0
 14 21  1  0  0  0  0
 14 33  1  1  0  0  0
 15 14  1  0  0  0  0
 16  2  2  0  0  0  0
 17  9  1  0  0  0  0
 17 22  1  1  0  0  0
 18  1  1  0  0  0  0
 19 25  1  6  0  0  0
 19  7  1  0  0  0  0
 21 22  1  0  0  0  0
 23 19  1  0  0  0  0
 23 11  1  0  0  0  0
 24 25  1  0  0  0  0
 25 26  2  0  0  0  0
 28 29  2  0  0  0  0
 29 27  1  0  0  0  0
 29 26  1  0  0  0  0
 30 28  1  0  0  0  0
 30 24  2  0  0  0  0
 31 32  2  0  0  0  0
 32 37  1  0  0  0  0
 33 34  1  0  0  0  0
 34 32  1  0  0  0  0
 35 33  2  0  0  0  0
 37 36  1  0  0  0  0
M  END
>  <MODEL>
4

>  <REMARK>
 VINA RESULT:      -6.8      3.079      6.899
  Name = 
  3 active torsions:
  status: ('A' for Active; 'I' for Inactive)
    1  A    between atoms: C_4  and  O_37
    2  A    between atoms: C_8  and  C_18
    3  A    between atoms: C_23  and  C_30
                            x       y       z     vdW  Elec       q    Type
                         _______ _______ _______ _____ _____    ______ ____

>  <TORSDO>
F 3

$$$$
=
 OpenBabel11122411363D

 37 42  0  0  1  0  0  0  0  0999 V2000
  185.2130  178.7440  145.0290 C   0  0  0  0  0  0  0  0  0  0  0  0
  182.5460  178.5430  141.8090 C   0  0  0  0  0  0  0  0  0  0  0  0
  183.8980  179.7220  138.4700 O   0  0  0  0  0  0  0  0  0  0  0  0
  182.7960  178.7070  144.2000 C   0  0  0  0  0  0  0  0  0  0  0  0
  183.4160  178.5710  140.5970 C   0  0  1  0  0  3  0  0  0  0  0  0
  183.3210  178.6430  142.9180 C   0  0  0  0  0  0  0  0  0  0  0  0
  182.9400  179.5530  139.5050 C   0  0  2  0  0  3  0  0  0  0  0  0
  181.4000  178.6320  144.3430 C   0  0  0  0  0  3  0  0  0  0  0  0
  184.6840  178.7870  142.6180 N   0  0  0  0  0  0  0  0  0  0  0  0
  185.5010  177.2550  145.1140 C   0  0  0  0  0  1  0  0  0  0  0  0
  180.3170  178.3920  140.6810 C   0  0  0  0  0  2  0  0  0  0  0  0
  180.5810  178.4940  143.1980 C   0  0  0  0  0  3  0  0  0  0  0  0
  185.6170  179.2700  143.6330 C   0  0  0  0  0  2  0  0  0  0  0  0
  185.7660  178.2530  138.0170 C   0  0  1  0  0  3  0  0  0  0  0  0
  184.2510  178.4580  137.9620 C   0  0  0  0  0  2  0  0  0  0  0  0
  181.1570  178.4500  141.9130 C   0  0  0  0  0  0  0  0  0  0  0  0
  184.7990  178.9740  141.1730 C   0  0  1  0  0  3  0  0  0  0  0  0
  183.7190  179.0020  145.3520 C   0  0  0  0  0  2  0  0  0  0  0  0
  181.5290  179.2000  138.9700 C   0  0  1  0  0  3  0  0  0  0  0  0
  186.0560  179.4500  146.0690 C   0  0  0  0  0  1  0  0  0  0  0  0
  186.4440  178.7250  139.3130 C   0  0  0  0  0  2  0  0  0  0  0  0
  185.8910  178.0910  140.5880 C   0  0  0  0  0  2  0  0  0  0  0  0
  180.5460  179.5420  139.9140 O   0  0  0  0  0  0  0  0  0  0  0  0
  181.0860  179.1230  136.5090 C   0  0  0  0  0  3  0  0  0  0  0  0
  181.2240  179.8870  137.6730 C   0  0  0  0  0  0  0  0  0  0  0  0
  181.0830  181.2810  137.6100 C   0  0  0  0  0  3  0  0  0  0  0  0
  180.6570  183.3800  136.3260 C   0  0  0  0  0  1  0  0  0  0  0  0
  180.6700  181.1360  135.2290 C   0  0  0  0  0  3  0  0  0  0  0  0
  180.8050  181.9030  136.3890 C   0  0  0  0  0  0  0  0  0  0  0  0
  180.8090  179.7460  135.2890 C   0  0  0  0  0  3  0  0  0  0  0  0
  186.4470  174.0480  136.9580 O   0  0  0  0  0  0  0  0  0  0  0  0
  185.2920  174.5530  136.9530 C   0  0  0  0  0  0  0  0  0  0  0  0
  186.1310  176.8430  137.6820 C   0  0  0  0  0  0  0  0  0  0  0  0
  185.0950  175.9300  137.3050 N   0  0  0  0  0  2  0  0  0  0  0  0
  187.3370  176.4760  137.7190 O   0  0  0  0  0  0  0  0  0  0  0  0
  183.9680  172.4990  137.2200 C   0  0  0  0  0  1  0  0  0  0  0  0
  184.2060  173.7530  136.6010 O   0  0  0  0  0  0  0  0  0  0  0  0
  1 10  1  0  0  0  0
  1 18  1  0  0  0  0
  1 20  1  0  0  0  0
  2 16  2  0  0  0  0
  2  6  1  0  0  0  0
  4  8  1  0  0  0  0
  4 18  1  0  0  0  0
  5 17  1  0  0  0  0
  5  2  1  1  0  0  0
  6  4  2  0  0  0  0
  7  3  1  6  0  0  0
  7  5  1  0  0  0  0
  9  6  1  0  0  0  0
  9 13  1  0  0  0  0
 11 16  1  0  0  0  0
 12  8  2  0  0  0  0
 13  1  1  0  0  0  0
 14 33  1  1  0  0  0
 14 21  1  0  0  0  0
 15 14  1  0  0  0  0
 15  3  1  0  0  0  0
 16 12  1  0  0  0  0
 17 22  1  6  0  0  0
 17  9  1  0  0  0  0
 19 25  1  6  0  0  0
 19  7  1  0  0  0  0
 19 23  1  0  0  0  0
 21 22  1  0  0  0  0
 23 11  1  0  0  0  0
 24 25  1  0  0  0  0
 26 25  2  0  0  0  0
 27 29  1  0  0  0  0
 28 30  1  0  0  0  0
 28 29  2  0  0  0  0
 29 26  1  0  0  0  0
 30 24  2  0  0  0  0
 32 31  2  0  0  0  0
 32 34  1  0  0  0  0
 33 35  2  0  0  0  0
 34 33  1  0  0  0  0
 37 32  1  0  0  0  0
 37 36  1  0  0  0  0
M  END
>  <MODEL>
5

>  <REMARK>
 VINA RESULT:      -6.6      1.959      2.878
  Name = 
  3 active torsions:
  status: ('A' for Active; 'I' for Inactive)
    1  A    between atoms: C_4  and  O_37
    2  A    between atoms: C_8  and  C_18
    3  A    between atoms: C_23  and  C_30
                            x       y       z     vdW  Elec       q    Type
                         _______ _______ _______ _____ _____    ______ ____

>  <TORSDO>
F 3

$$$$
=
 OpenBabel11122411363D

 37 42  0  0  1  0  0  0  0  0999 V2000
  184.9690  178.7820  144.7100 C   0  0  0  0  0  0  0  0  0  0  0  0
  184.9630  178.4700  140.5370 C   0  0  0  0  0  0  0  0  0  0  0  0
  181.6820  177.4070  138.9650 O   0  0  0  0  0  0  0  0  0  0  0  0
  186.2850  178.4220  142.5500 C   0  0  0  0  0  0  0  0  0  0  0  0
  183.5210  178.5370  140.1560 C   0  0  1  0  0  3  0  0  0  0  0  0
  185.0720  178.5250  141.8880 C   0  0  0  0  0  0  0  0  0  0  0  0
  183.0900  177.4600  139.1380 C   0  0  2  0  0  3  0  0  0  0  0  0
  187.4480  178.2850  141.7740 C   0  0  0  0  0  3  0  0  0  0  0  0
  183.8260  178.5820  142.5320 N   0  0  0  0  0  0  0  0  0  0  0  0
  184.9500  180.2990  144.7750 C   0  0  0  0  0  1  0  0  0  0  0  0
  185.9560  178.2410  138.2510 C   0  0  0  0  0  2  0  0  0  0  0  0
  187.3550  178.2590  140.3630 C   0  0  0  0  0  3  0  0  0  0  0  0
  183.7160  178.2810  143.9560 C   0  0  0  0  0  2  0  0  0  0  0  0
  180.1110  179.1310  139.6110 C   0  0  1  0  0  3  0  0  0  0  0  0
  181.2120  178.6940  138.6430 C   0  0  0  0  0  2  0  0  0  0  0  0
  186.0980  178.3520  139.7320 C   0  0  0  0  0  0  0  0  0  0  0  0
  182.7960  178.3700  141.5160 C   0  0  1  0  0  3  0  0  0  0  0  0
  186.2890  178.3080  144.0510 C   0  0  0  0  0  2  0  0  0  0  0  0
  183.8580  177.5750  137.7970 C   0  0  1  0  0  3  0  0  0  0  0  0
  184.9220  178.2480  146.1260 C   0  0  0  0  0  1  0  0  0  0  0  0
  180.3770  178.8100  141.0910 C   0  0  0  0  0  2  0  0  0  0  0  0
  181.6760  179.3910  141.6450 C   0  0  0  0  0  2  0  0  0  0  0  0
  185.1780  177.1160  137.9460 O   0  0  0  0  0  0  0  0  0  0  0  0
  182.6120  177.5060  135.6290 C   0  0  0  0  0  3  0  0  0  0  0  0
  183.1950  176.8090  136.6930 C   0  0  0  0  0  0  0  0  0  0  0  0
  183.1420  175.4070  136.7160 C   0  0  0  0  0  3  0  0  0  0  0  0
  182.4590  173.2270  135.7090 C   0  0  0  0  0  1  0  0  0  0  0  0
  181.9310  175.4120  134.6200 C   0  0  0  0  0  3  0  0  0  0  0  0
  182.5120  174.7120  135.6810 C   0  0  0  0  0  0  0  0  0  0  0  0
  181.9820  176.8090  134.5940 C   0  0  0  0  0  3  0  0  0  0  0  0
  179.3160  183.3500  138.7020 O   0  0  0  0  0  0  0  0  0  0  0  0
  180.1130  182.6640  138.0090 C   0  0  0  0  0  0  0  0  0  0  0  0
  179.7570  180.5690  139.4110 C   0  0  0  0  0  0  0  0  0  0  0  0
  180.3580  181.2860  138.3280 N   0  0  0  0  0  2  0  0  0  0  0  0
  178.9310  181.1300  140.1800 O   0  0  0  0  0  0  0  0  0  0  0  0
  181.1760  184.6170  136.9610 C   0  0  0  0  0  1  0  0  0  0  0  0
  180.7560  183.2620  136.9260 O   0  0  0  0  0  0  0  0  0  0  0  0
  1 10  1  0  0  0  0
  1 20  1  0  0  0  0
  2  6  1  0  0  0  0
  4 18  1  0  0  0  0
  5  2  1  1  0  0  0
  5 17  1  0  0  0  0
  6  9  1  0  0  0  0
  6  4  2  0  0  0  0
  7  3  1  6  0  0  0
  7  5  1  0  0  0  0
  8  4  1  0  0  0  0
  9 13  1  0  0  0  0
 11 16  1  0  0  0  0
 12  8  2  0  0  0  0
 13  1  1  0  0  0  0
 14 33  1  1  0  0  0
 14 21  1  0  0  0  0
 15  3  1  0  0  0  0
 15 14  1  0  0  0  0
 16 12  1  0  0  0  0
 16  2  2  0  0  0  0
 17 22  1  1  0  0  0
 17  9  1  0  0  0  0
 18  1  1  0  0  0  0
 19 25  1  6  0  0  0
 19 23  1  0  0  0  0
 19  7  1  0  0  0  0
 21 22  1  0  0  0  0
 23 11  1  0  0  0  0
 24 25  1  0  0  0  0
 25 26  2  0  0  0  0
 28 29  2  0  0  0  0
 29 27  1  0  0  0  0
 29 26  1  0  0  0  0
 30 28  1  0  0  0  0
 30 24  2  0  0  0  0
 32 34  1  0  0  0  0
 32 31  2  0  0  0  0
 33 35  2  0  0  0  0
 34 33  1  0  0  0  0
 37 36  1  0  0  0  0
 37 32  1  0  0  0  0
M  END
>  <MODEL>
6

>  <REMARK>
 VINA RESULT:      -6.6      2.887      6.316
  Name = 
  3 active torsions:
  status: ('A' for Active; 'I' for Inactive)
    1  A    between atoms: C_4  and  O_37
    2  A    between atoms: C_8  and  C_18
    3  A    between atoms: C_23  and  C_30
                            x       y       z     vdW  Elec       q    Type
                         _______ _______ _______ _____ _____    ______ ____

>  <TORSDO>
F 3

$$$$
=
 OpenBabel11122411363D

 37 42  0  0  1  0  0  0  0  0999 V2000
  189.3870  176.3020  136.1200 C   0  0  0  0  0  0  0  0  0  0  0  0
  186.4270  177.7040  138.7250 C   0  0  0  0  0  0  0  0  0  0  0  0
  182.9810  178.1640  137.2130 O   0  0  0  0  0  0  0  0  0  0  0  0
  188.7850  177.5870  138.2440 C   0  0  0  0  0  0  0  0  0  0  0  0
  185.1390  177.3320  138.0670 C   0  0  1  0  0  3  0  0  0  0  0  0
  187.4600  177.3220  137.9330 C   0  0  0  0  0  0  0  0  0  0  0  0
  184.1000  178.4720  138.0330 C   0  0  2  0  0  3  0  0  0  0  0  0
  189.0550  178.2530  139.4520 C   0  0  0  0  0  3  0  0  0  0  0  0
  187.0360  176.7420  136.7280 N   0  0  0  0  0  0  0  0  0  0  0  0
  189.4410  174.8830  136.6590 C   0  0  0  0  0  1  0  0  0  0  0  0
  185.5080  178.8100  140.7730 C   0  0  0  0  0  2  0  0  0  0  0  0
  187.9910  178.6280  140.3040 C   0  0  0  0  0  3  0  0  0  0  0  0
  187.9620  176.6070  135.6070 C   0  0  0  0  0  2  0  0  0  0  0  0
  182.3530  175.9560  136.4490 C   0  0  1  0  0  3  0  0  0  0  0  0
  182.4390  176.9320  137.6240 C   0  0  0  0  0  2  0  0  0  0  0  0
  186.6580  178.3520  139.9390 C   0  0  0  0  0  0  0  0  0  0  0  0
  185.5870  176.9140  136.6420 C   0  0  1  0  0  3  0  0  0  0  0  0
  189.8480  177.2910  137.2200 C   0  0  0  0  0  2  0  0  0  0  0  0
  183.6960  178.9450  139.4520 C   0  0  1  0  0  3  0  0  0  0  0  0
  190.3480  176.4010  134.9550 C   0  0  0  0  0  1  0  0  0  0  0  0
  183.5830  175.9320  135.5270 C   0  0  0  0  0  2  0  0  0  0  0  0
  184.9000  175.6200  136.2320 C   0  0  0  0  0  2  0  0  0  0  0  0
  184.7270  179.7040  140.0300 O   0  0  0  0  0  0  0  0  0  0  0  0
  181.3660  179.3670  140.2600 C   0  0  0  0  0  3  0  0  0  0  0  0
  182.4350  179.7550  139.4450 C   0  0  0  0  0  0  0  0  0  0  0  0
  182.3100  180.8890  138.6300 C   0  0  0  0  0  3  0  0  0  0  0  0
  180.9950  182.8290  137.7670 C   0  0  0  0  0  1  0  0  0  0  0  0
  180.0580  181.2360  139.4470 C   0  0  0  0  0  3  0  0  0  0  0  0
  181.1230  181.6280  138.6320 C   0  0  0  0  0  0  0  0  0  0  0  0
  180.1790  180.1060  140.2610 C   0  0  0  0  0  3  0  0  0  0  0  0
  181.4510  171.7890  137.4890 O   0  0  0  0  0  0  0  0  0  0  0  0
  182.0870  172.0860  136.4430 C   0  0  0  0  0  0  0  0  0  0  0  0
  181.9810  174.5860  136.9140 C   0  0  0  0  0  0  0  0  0  0  0  0
  182.3670  173.4570  136.1230 N   0  0  0  0  0  2  0  0  0  0  0  0
  181.3470  174.4340  137.9940 O   0  0  0  0  0  0  0  0  0  0  0  0
  183.4300  170.0700  136.0280 C   0  0  0  0  0  1  0  0  0  0  0  0
  182.5140  171.0640  135.5970 O   0  0  0  0  0  0  0  0  0  0  0  0
  1 10  1  0  0  0  0
  1 18  1  0  0  0  0
  2 16  1  0  0  0  0
  3 15  1  0  0  0  0
  4  8  2  0  0  0  0
  5  2  1  1  0  0  0
  6  4  1  0  0  0  0
  6  2  2  0  0  0  0
  7  3  1  1  0  0  0
  7  5  1  0  0  0  0
  7 19  1  0  0  0  0
  8 12  1  0  0  0  0
  9  6  1  0  0  0  0
 13  1  1  0  0  0  0
 13  9  1  0  0  0  0
 14 33  1  1  0  0  0
 14 15  1  0  0  0  0
 16 12  2  0  0  0  0
 16 11  1  0  0  0  0
 17 22  1  1  0  0  0
 17  9  1  0  0  0  0
 17  5  1  0  0  0  0
 18  4  1  0  0  0  0
 19 25  1  6  0  0  0
 19 23  1  0  0  0  0
 20  1  1  0  0  0  0
 21 22  1  0  0  0  0
 21 14  1  0  0  0  0
 23 11  1  0  0  0  0
 24 30  1  0  0  0  0
 25 24  2  0  0  0  0
 26 29  2  0  0  0  0
 26 25  1  0  0  0  0
 27 29  1  0  0  0  0
 28 30  2  0  0  0  0
 29 28  1  0  0  0  0
 32 31  2  0  0  0  0
 33 35  2  0  0  0  0
 34 32  1  0  0  0  0
 34 33  1  0  0  0  0
 37 36  1  0  0  0  0
 37 32  1  0  0  0  0
M  END
>  <MODEL>
7

>  <REMARK>
 VINA RESULT:      -6.3      2.723      4.678
  Name = 
  3 active torsions:
  status: ('A' for Active; 'I' for Inactive)
    1  A    between atoms: C_4  and  O_37
    2  A    between atoms: C_8  and  C_18
    3  A    between atoms: C_23  and  C_30
                            x       y       z     vdW  Elec       q    Type
                         _______ _______ _______ _____ _____    ______ ____

>  <TORSDO>
F 3

$$$$
=
 OpenBabel11122411363D

 37 42  0  0  1  0  0  0  0  0999 V2000
  185.5470  178.4540  145.1190 C   0  0  0  0  0  0  0  0  0  0  0  0
  185.0480  178.5670  140.9660 C   0  0  0  0  0  0  0  0  0  0  0  0
  181.6220  177.5690  139.6870 O   0  0  0  0  0  0  0  0  0  0  0  0
  186.6020  178.3550  142.7950 C   0  0  0  0  0  0  0  0  0  0  0  0
  183.5700  178.6280  140.7650 C   0  0  1  0  0  3  0  0  0  0  0  0
  185.3160  178.4880  142.2930 C   0  0  0  0  0  0  0  0  0  0  0  0
  183.0400  177.6470  139.6980 C   0  0  2  0  0  3  0  0  0  0  0  0
  187.6660  178.3340  141.8770 C   0  0  0  0  0  3  0  0  0  0  0  0
  184.1560  178.4410  143.0810 N   0  0  0  0  0  0  0  0  0  0  0  0
  185.5080  179.9560  145.3430 C   0  0  0  0  0  1  0  0  0  0  0  0
  185.7640  178.6010  138.5680 C   0  0  0  0  0  2  0  0  0  0  0  0
  187.4050  178.4490  140.4910 C   0  0  0  0  0  3  0  0  0  0  0  0
  184.2230  177.9940  144.4690 C   0  0  0  0  0  2  0  0  0  0  0  0
  180.1090  179.1690  140.6890 C   0  0  1  0  0  3  0  0  0  0  0  0
  181.0940  178.8670  139.5580 C   0  0  0  0  0  2  0  0  0  0  0  0
  186.0800  178.5660  140.0260 C   0  0  0  0  0  0  0  0  0  0  0  0
  183.0160  178.3020  142.1760 C   0  0  1  0  0  3  0  0  0  0  0  0
  186.7880  178.0900  144.2650 C   0  0  0  0  0  2  0  0  0  0  0  0
  183.6400  177.9200  138.2960 C   0  0  1  0  0  3  0  0  0  0  0  0
  185.6800  177.7780  146.4670 C   0  0  0  0  0  1  0  0  0  0  0  0
  180.5560  178.7080  142.0860 C   0  0  0  0  0  2  0  0  0  0  0  0
  181.9000  179.2700  142.5420 C   0  0  0  0  0  2  0  0  0  0  0  0
  184.9760  177.4900  138.2400 O   0  0  0  0  0  0  0  0  0  0  0  0
  183.0950  175.8980  136.9280 C   0  0  0  0  0  3  0  0  0  0  0  0
  182.8630  177.2500  137.2030 C   0  0  0  0  0  0  0  0  0  0  0  0
  181.9160  177.9590  136.4510 C   0  0  0  0  0  3  0  0  0  0  0  0
  180.2050  178.0730  134.6360 C   0  0  0  0  0  1  0  0  0  0  0  0
  181.4420  175.9670  135.1590 C   0  0  0  0  0  3  0  0  0  0  0  0
  181.2070  177.3180  135.4310 C   0  0  0  0  0  0  0  0  0  0  0  0
  182.3860  175.2570  135.9080 C   0  0  0  0  0  3  0  0  0  0  0  0
  178.9350  183.3770  140.2670 O   0  0  0  0  0  0  0  0  0  0  0  0
  179.1640  182.6510  139.2630 C   0  0  0  0  0  0  0  0  0  0  0  0
  179.7070  180.6080  140.6820 C   0  0  0  0  0  0  0  0  0  0  0  0
  179.5490  181.2780  139.4270 N   0  0  0  0  0  2  0  0  0  0  0  0
  179.4990  181.2130  141.7700 O   0  0  0  0  0  0  0  0  0  0  0  0
  180.0290  184.0580  137.4430 C   0  0  0  0  0  1  0  0  0  0  0  0
  179.0390  183.2000  137.9880 O   0  0  0  0  0  0  0  0  0  0  0  0
  1 10  1  0  0  0  0
  1 20  1  0  0  0  0
  2  6  1  0  0  0  0
  4 18  1  0  0  0  0
  5  2  1  1  0  0  0
  5 17  1  0  0  0  0
  6  4  2  0  0  0  0
  6  9  1  0  0  0  0
  7  3  1  6  0  0  0
  7  5  1  0  0  0  0
  8  4  1  0  0  0  0
  9 13  1  0  0  0  0
 11 16  1  0  0  0  0
 12  8  2  0  0  0  0
 13  1  1  0  0  0  0
 14 33  1  1  0  0  0
 14 21  1  0  0  0  0
 15  3  1  0  0  0  0
 15 14  1  0  0  0  0
 16 12  1  0  0  0  0
 16  2  2  0  0  0  0
 17 22  1  1  0  0  0
 17  9  1  0  0  0  0
 18  1  1  0  0  0  0
 19 25  1  6  0  0  0
 19  7  1  0  0  0  0
 21 22  1  0  0  0  0
 23 19  1  0  0  0  0
 23 11  1  0  0  0  0
 24 25  1  0  0  0  0
 26 25  2  0  0  0  0
 27 29  1  0  0  0  0
 28 29  2  0  0  0  0
 28 30  1  0  0  0  0
 29 26  1  0  0  0  0
 30 24  2  0  0  0  0
 32 34  1  0  0  0  0
 32 31  2  0  0  0  0
 33 35  2  0  0  0  0
 34 33  1  0  0  0  0
 36 37  1  0  0  0  0
 37 32  1  0  0  0  0
M  END
>  <MODEL>
8

>  <REMARK>
 VINA RESULT:      -5.8      2.864      6.288
  Name = 
  3 active torsions:
  status: ('A' for Active; 'I' for Inactive)
    1  A    between atoms: C_4  and  O_37
    2  A    between atoms: C_8  and  C_18
    3  A    between atoms: C_23  and  C_30
                            x       y       z     vdW  Elec       q    Type
                         _______ _______ _______ _____ _____    ______ ____

>  <TORSDO>
F 3

$$$$
=
 OpenBabel11122411363D

 37 42  0  0  1  0  0  0  0  0999 V2000
  189.8940  176.3030  135.8160 C   0  0  0  0  0  0  0  0  0  0  0  0
  186.9300  177.5520  138.4950 C   0  0  0  0  0  0  0  0  0  0  0  0
  183.4450  177.9140  137.0490 O   0  0  0  0  0  0  0  0  0  0  0  0
  189.2820  177.5290  137.9720 C   0  0  0  0  0  0  0  0  0  0  0  0
  185.6460  177.1460  137.8520 C   0  0  1  0  0  3  0  0  0  0  0  0
  187.9620  177.2220  137.6790 C   0  0  0  0  0  0  0  0  0  0  0  0
  184.5660  178.2480  137.8560 C   0  0  2  0  0  3  0  0  0  0  0  0
  189.5500  178.1830  139.1880 C   0  0  0  0  0  3  0  0  0  0  0  0
  187.5390  176.6480  136.4700 N   0  0  0  0  0  0  0  0  0  0  0  0
  190.0070  174.8780  136.3280 C   0  0  0  0  0  1  0  0  0  0  0  0
  186.0090  178.5880  140.5780 C   0  0  0  0  0  2  0  0  0  0  0  0
  188.4880  178.5040  140.0650 C   0  0  0  0  0  3  0  0  0  0  0  0
  188.4490  176.5660  135.3320 C   0  0  0  0  0  2  0  0  0  0  0  0
  182.8830  175.6990  136.2550 C   0  0  1  0  0  3  0  0  0  0  0  0
  182.9540  176.6560  137.4460 C   0  0  0  0  0  2  0  0  0  0  0  0
  187.1590  178.1870  139.7170 C   0  0  0  0  0  0  0  0  0  0  0  0
  186.0830  176.7690  136.4120 C   0  0  1  0  0  3  0  0  0  0  0  0
  190.3380  177.2900  136.9260 C   0  0  0  0  0  2  0  0  0  0  0  0
  184.1690  178.6810  139.2900 C   0  0  1  0  0  3  0  0  0  0  0  0
  190.8300  176.4580  134.6370 C   0  0  0  0  0  1  0  0  0  0  0  0
  184.0970  175.7360  135.3130 C   0  0  0  0  0  2  0  0  0  0  0  0
  185.4370  175.4590  135.9900 C   0  0  0  0  0  2  0  0  0  0  0  0
  185.1830  179.4670  139.8640 O   0  0  0  0  0  0  0  0  0  0  0  0
  182.7770  180.6400  138.5980 C   0  0  0  0  0  3  0  0  0  0  0  0
  182.8810  179.4450  139.3180 C   0  0  0  0  0  0  0  0  0  0  0  0
  181.7840  178.9850  140.0610 C   0  0  0  0  0  3  0  0  0  0  0  0
  179.4340  179.2250  140.8700 C   0  0  0  0  0  1  0  0  0  0  0  0
  180.4940  180.9100  139.3610 C   0  0  0  0  0  3  0  0  0  0  0  0
  180.5940  179.7170  140.0810 C   0  0  0  0  0  0  0  0  0  0  0  0
  181.5860  181.3720  138.6180 C   0  0  0  0  0  3  0  0  0  0  0  0
  181.6340  171.6300  137.3260 O   0  0  0  0  0  0  0  0  0  0  0  0
  180.9590  172.3420  136.5360 C   0  0  0  0  0  0  0  0  0  0  0  0
  182.5680  174.3080  136.7010 C   0  0  0  0  0  0  0  0  0  0  0  0
  181.3870  173.6710  136.2030 N   0  0  0  0  0  2  0  0  0  0  0  0
  183.3440  173.7060  137.4930 O   0  0  0  0  0  0  0  0  0  0  0  0
  179.4070  172.0830  134.6470 C   0  0  0  0  0  1  0  0  0  0  0  0
  179.7870  171.8220  135.9890 O   0  0  0  0  0  0  0  0  0  0  0  0
  1 10  1  0  0  0  0
  1 18  1  0  0  0  0
  2 16  1  0  0  0  0
  3 15  1  0  0  0  0
  4  8  2  0  0  0  0
  5  7  1  0  0  0  0
  5  2  1  1  0  0  0
  6  4  1  0  0  0  0
  6  2  2  0  0  0  0
  7  3  1  1  0  0  0
  7 19  1  0  0  0  0
  8 12  1  0  0  0  0
  9  6  1  0  0  0  0
 13  1  1  0  0  0  0
 13  9  1  0  0  0  0
 14 33  1  1  0  0  0
 14 15  1  0  0  0  0
 16 12  2  0  0  0  0
 16 11  1  0  0  0  0
 17 22  1  1  0  0  0
 17  9  1  0  0  0  0
 17  5  1  0  0  0  0
 18  4  1  0  0  0  0
 19 25  1  6  0  0  0
 19 23  1  0  0  0  0
 20  1  1  0  0  0  0
 21 22  1  0  0  0  0
 21 14  1  0  0  0  0
 23 11  1  0  0  0  0
 24 30  2  0  0  0  0
 24 25  1  0  0  0  0
 25 26  2  0  0  0  0
 26 29  1  0  0  0  0
 28 29  2  0  0  0  0
 29 27  1  0  0  0  0
 30 28  1  0  0  0  0
 32 31  2  0  0  0  0
 33 35  2  0  0  0  0
 34 32  1  0  0  0  0
 34 33  1  0  0  0  0
 36 37  1  0  0  0  0
 37 32  1  0  0  0  0
M  END
>  <MODEL>
9

>  <REMARK>
 VINA RESULT:      -5.7      2.675      4.910
  Name = 
  3 active torsions:
  status: ('A' for Active; 'I' for Inactive)
    1  A    between atoms: C_4  and  O_37
    2  A    between atoms: C_8  and  C_18
    3  A    between atoms: C_23  and  C_30
                            x       y       z     vdW  Elec       q    Type
                         _______ _______ _______ _____ _____    ______ ____

>  <TORSDO>
F 3

$$$$
