=
 OpenBabel11122410513D

 32 37  0  0  1  0  0  0  0  0999 V2000
  189.3090  176.1990  137.2590 C   0  0  0  0  0  2  0  0  0  0  0  0
  188.5380  177.3530  141.9940 C   0  0  2  0  0  3  0  0  0  0  0  0
  192.1140  175.7190  144.9840 C   0  0  0  0  0  3  0  0  0  0  0  0
  191.3900  176.1320  146.0980 C   0  0  0  0  0  3  0  0  0  0  0  0
  186.4170  178.0910  143.0910 C   0  0  0  0  0  0  0  0  0  0  0  0
  185.6390  178.2950  144.3090 C   0  0  0  0  0  0  0  0  0  0  0  0
  189.3790  178.0870  139.7390 C   0  0  1  0  0  3  0  0  0  0  0  0
  190.6990  176.4220  141.0690 C   0  0  0  0  0  3  0  0  0  0  0  0
  185.2730  178.4840  146.6020 C   0  0  2  0  0  3  0  0  0  0  0  0
  191.2070  176.4870  138.6900 C   0  0  0  0  0  2  0  0  0  0  0  0
  191.5970  175.9210  143.7060 C   0  0  0  0  0  3  0  0  0  0  0  0
  189.8890  176.7480  142.2620 C   0  0  0  0  0  0  0  0  0  0  0  0
  190.3420  176.5310  143.5140 C   0  0  0  0  0  0  0  0  0  0  0  0
  188.3980  177.5550  144.5230 C   0  0  0  0  0  0  0  0  0  0  0  0
  183.9610  178.6760  145.8270 C   0  0  0  0  0  2  0  0  0  0  0  0
  188.2810  176.5900  138.3300 C   0  0  0  0  0  2  0  0  0  0  0  0
  190.4610  177.0030  139.8880 C   0  0  0  0  0  0  0  0  0  0  0  0
  184.3520  178.5650  144.3830 C   0  0  0  0  0  3  0  0  0  0  0  0
  188.4350  177.9430  138.6850 O   0  0  0  0  0  0  0  0  0  0  0  0
  190.5780  176.9120  137.4410 N   0  0  0  0  0  0  0  0  0  0  0  0
  190.1490  176.7450  145.9320 C   0  0  0  0  0  3  0  0  0  0  0  0
  189.6010  176.9530  144.6510 C   0  0  0  0  0  0  0  0  0  0  0  0
  187.6950  178.1050  145.7560 C   0  0  0  0  0  2  0  0  0  0  0  0
  188.7100  178.5350  141.0460 C   0  0  0  0  0  2  0  0  0  0  0  0
  185.8660  178.2000  141.9610 O   0  0  0  0  0  0  0  0  0  0  0  0
  185.6250  179.7830  147.3070 C   0  0  0  0  0  1  0  0  0  0  0  0
  187.8090  177.7360  143.2080 N   0  0  0  0  0  0  0  0  0  0  0  0
  186.2510  178.1890  145.5700 N   0  0  0  0  0  0  0  0  0  0  0  0
  191.4610  176.4910  136.3660 C   0  0  0  0  0  2  0  0  0  0  0  0
  192.7600  176.0090  136.9240 C   0  0  0  0  0  0  0  0  0  0  0  0
  192.9780  174.5530  137.1430 C   0  0  0  0  0  1  0  0  0  0  0  0
  193.6360  176.8060  137.2160 O   0  0  0  0  0  0  0  0  0  0  0  0
  1 20  1  0  0  0  0
  1 16  1  0  0  0  0
  2 24  1  6  0  0  0
  2 12  1  0  0  0  0
  2 27  1  0  0  0  0
  3  4  1  0  0  0  0
  5 27  1  0  0  0  0
  5  6  1  0  0  0  0
  6 18  2  0  0  0  0
  6 28  1  0  0  0  0
  7 17  1  0  0  0  0
  7 24  1  1  0  0  0
  8 12  1  0  0  0  0
  9 26  1  6  0  0  0
 10 17  1  0  0  0  0
 11  3  2  0  0  0  0
 12 13  2  0  0  0  0
 13 11  1  0  0  0  0
 13 22  1  0  0  0  0
 14 22  2  0  0  0  0
 14 23  1  0  0  0  0
 15  9  1  0  0  0  0
 16 19  1  0  0  0  0
 17  8  2  0  0  0  0
 18 15  1  0  0  0  0
 19  7  1  0  0  0  0
 20 10  1  0  0  0  0
 21  4  2  0  0  0  0
 22 21  1  0  0  0  0
 25  5  2  0  0  0  0
 27 14  1  0  0  0  0
 28 23  1  0  0  0  0
 28  9  1  0  0  0  0
 29 30  1  0  0  0  0
 29 20  1  0  0  0  0
 30 31  1  0  0  0  0
 30 32  2  0  0  0  0
M  END
>  <MODEL>
1

>  <REMARK>
 VINA RESULT:      -9.5      0.000      0.000
  Name = 
  2 active torsions:
  status: ('A' for Active; 'I' for Inactive)
    1  A    between atoms: N_20  and  C_29
    2  A    between atoms: C_29  and  C_30
                            x       y       z     vdW  Elec       q    Type
                         _______ _______ _______ _____ _____    ______ ____

>  <TORSDO>
F 2

$$$$
=
 OpenBabel11122410513D

 32 37  0  0  1  0  0  0  0  0999 V2000
  190.1300  176.3930  139.2740 C   0  0  0  0  0  2  0  0  0  0  0  0
  186.2030  177.9950  141.7960 C   0  0  2  0  0  3  0  0  0  0  0  0
  186.9010  177.9450  146.6860 C   0  0  0  0  0  3  0  0  0  0  0  0
  185.5710  178.2990  146.8930 C   0  0  0  0  0  3  0  0  0  0  0  0
  183.8450  178.2510  141.0080 C   0  0  0  0  0  0  0  0  0  0  0  0
  182.4280  178.4080  141.3200 C   0  0  0  0  0  0  0  0  0  0  0  0
  188.2770  178.5820  140.4980 C   0  0  1  0  0  3  0  0  0  0  0  0
  188.4920  177.5950  142.7920 C   0  0  0  0  0  3  0  0  0  0  0  0
  180.5710  178.8360  142.6600 C   0  0  2  0  0  3  0  0  0  0  0  0
  190.4830  177.4350  141.4010 C   0  0  0  0  0  2  0  0  0  0  0  0
  187.3830  177.7890  145.3890 C   0  0  0  0  0  3  0  0  0  0  0  0
  187.0560  177.8540  143.0280 C   0  0  0  0  0  0  0  0  0  0  0  0
  186.5470  177.9740  144.2710 C   0  0  0  0  0  0  0  0  0  0  0  0
  184.3460  178.5370  143.4430 C   0  0  0  0  0  0  0  0  0  0  0  0
  180.1380  178.5190  141.2210 C   0  0  0  0  0  2  0  0  0  0  0  0
  188.6140  176.6320  139.2660 C   0  0  0  0  0  2  0  0  0  0  0  0
  189.0690  177.8930  141.6220 C   0  0  0  0  0  0  0  0  0  0  0  0
  181.4220  178.3030  140.4760 C   0  0  0  0  0  3  0  0  0  0  0  0
  188.3360  178.0110  139.1960 O   0  0  0  0  0  0  0  0  0  0  0  0
  190.8430  177.4610  139.9850 N   0  0  0  0  0  0  0  0  0  0  0  0
  184.7260  178.4950  145.8020 C   0  0  0  0  0  3  0  0  0  0  0  0
  185.1880  178.3350  144.4810 C   0  0  0  0  0  0  0  0  0  0  0  0
  182.9350  179.0440  143.7050 C   0  0  0  0  0  2  0  0  0  0  0  0
  186.8510  179.0150  140.8660 C   0  0  0  0  0  2  0  0  0  0  0  0
  184.2130  178.0190  139.8230 O   0  0  0  0  0  0  0  0  0  0  0  0
  180.2010  180.2740  142.9820 C   0  0  0  0  0  1  0  0  0  0  0  0
  184.8040  178.3340  142.0810 N   0  0  0  0  0  0  0  0  0  0  0  0
  182.0140  178.6780  142.6360 N   0  0  0  0  0  0  0  0  0  0  0  0
  192.2610  177.1510  139.9080 C   0  0  0  0  0  2  0  0  0  0  0  0
  192.5950  176.5950  138.5630 C   0  0  0  0  0  0  0  0  0  0  0  0
  193.7200  175.6310  138.4180 C   0  0  0  0  0  1  0  0  0  0  0  0
  191.9580  176.9390  137.5810 O   0  0  0  0  0  0  0  0  0  0  0  0
  1 20  1  0  0  0  0
  2 24  1  6  0  0  0
  2 27  1  0  0  0  0
  2 12  1  0  0  0  0
  3  4  1  0  0  0  0
  5  6  1  0  0  0  0
  5 27  1  0  0  0  0
  6 28  1  0  0  0  0
  7 24  1  1  0  0  0
  7 17  1  0  0  0  0
  8 12  1  0  0  0  0
  9 26  1  6  0  0  0
 10 17  1  0  0  0  0
 11  3  2  0  0  0  0
 12 13  2  0  0  0  0
 13 22  1  0  0  0  0
 13 11  1  0  0  0  0
 14 23  1  0  0  0  0
 14 22  2  0  0  0  0
 15  9  1  0  0  0  0
 16  1  1  0  0  0  0
 17  8  2  0  0  0  0
 18 15  1  0  0  0  0
 18  6  2  0  0  0  0
 19 16  1  0  0  0  0
 19  7  1  0  0  0  0
 20 10  1  0  0  0  0
 21  4  2  0  0  0  0
 22 21  1  0  0  0  0
 25  5  2  0  0  0  0
 27 14  1  0  0  0  0
 28  9  1  0  0  0  0
 28 23  1  0  0  0  0
 29 20  1  0  0  0  0
 30 29  1  0  0  0  0
 31 30  1  0  0  0  0
 32 30  2  0  0  0  0
M  END
>  <MODEL>
2

>  <REMARK>
 VINA RESULT:      -9.2      2.479      4.022
  Name = 
  2 active torsions:
  status: ('A' for Active; 'I' for Inactive)
    1  A    between atoms: N_20  and  C_29
    2  A    between atoms: C_29  and  C_30
                            x       y       z     vdW  Elec       q    Type
                         _______ _______ _______ _____ _____    ______ ____

>  <TORSDO>
F 2

$$$$
=
 OpenBabel11122410513D

 32 37  0  0  1  0  0  0  0  0999 V2000
  191.8320  175.7430  146.5480 C   0  0  0  0  0  2  0  0  0  0  0  0
  189.1280  177.3900  142.7630 C   0  0  2  0  0  3  0  0  0  0  0  0
  184.4920  178.5100  144.0490 C   0  0  0  0  0  3  0  0  0  0  0  0
  184.1640  178.7420  142.7170 C   0  0  0  0  0  3  0  0  0  0  0  0
  189.5880  177.1840  140.3150 C   0  0  0  0  0  0  0  0  0  0  0  0
  189.1050  177.2380  138.9390 C   0  0  0  0  0  0  0  0  0  0  0  0
  190.8160  177.9140  144.5540 C   0  0  1  0  0  3  0  0  0  0  0  0
  188.4280  177.4940  145.1900 C   0  0  0  0  0  3  0  0  0  0  0  0
  187.6170  177.7310  137.2160 C   0  0  2  0  0  3  0  0  0  0  0  0
  190.0400  177.2660  146.9980 C   0  0  0  0  0  2  0  0  0  0  0  0
  185.7880  178.1280  144.3880 C   0  0  0  0  0  3  0  0  0  0  0  0
  188.0360  177.6280  143.7710 C   0  0  0  0  0  0  0  0  0  0  0  0
  186.7820  177.9600  143.4040 C   0  0  0  0  0  0  0  0  0  0  0  0
  187.3660  178.0610  141.0600 C   0  0  0  0  0  0  0  0  0  0  0  0
  188.8790  177.0530  136.6620 C   0  0  0  0  0  2  0  0  0  0  0  0
  191.6610  175.7930  145.0230 C   0  0  0  0  0  2  0  0  0  0  0  0
  189.7070  177.5910  145.5700 C   0  0  0  0  0  0  0  0  0  0  0  0
  189.7490  176.8300  137.8640 C   0  0  0  0  0  3  0  0  0  0  0  0
  191.9670  177.0790  144.5390 O   0  0  0  0  0  0  0  0  0  0  0  0
  191.4700  177.0190  147.1750 N   0  0  0  0  0  0  0  0  0  0  0  0
  185.1330  178.5890  141.7260 C   0  0  0  0  0  3  0  0  0  0  0  0
  186.4480  178.1950  142.0430 C   0  0  0  0  0  0  0  0  0  0  0  0
  187.0030  178.4440  139.6320 C   0  0  0  0  0  2  0  0  0  0  0  0
  190.3330  178.2470  143.1350 C   0  0  0  0  0  2  0  0  0  0  0  0
  190.7430  176.7400  140.5660 O   0  0  0  0  0  0  0  0  0  0  0  0
  187.5430  179.1500  136.6790 C   0  0  0  0  0  1  0  0  0  0  0  0
  188.7120  177.6170  141.3740 N   0  0  0  0  0  0  0  0  0  0  0  0
  187.8260  177.7430  138.6520 N   0  0  0  0  0  0  0  0  0  0  0  0
  191.6940  176.8700  148.6040 C   0  0  0  0  0  2  0  0  0  0  0  0
  193.1170  176.4980  148.8660 C   0  0  0  0  0  0  0  0  0  0  0  0
  193.8330  177.0860  150.0310 C   0  0  0  0  0  1  0  0  0  0  0  0
  193.6970  175.7270  148.1200 O   0  0  0  0  0  0  0  0  0  0  0  0
  1 20  1  0  0  0  0
  2 24  1  1  0  0  0
  2 12  1  0  0  0  0
  3 11  2  0  0  0  0
  4  3  1  0  0  0  0
  5 25  2  0  0  0  0
  5 27  1  0  0  0  0
  6  5  1  0  0  0  0
  7 24  1  6  0  0  0
  7 17  1  0  0  0  0
  8 17  2  0  0  0  0
  9 26  1  6  0  0  0
  9 28  1  0  0  0  0
 10 20  1  0  0  0  0
 12  8  1  0  0  0  0
 13 12  2  0  0  0  0
 13 11  1  0  0  0  0
 14 27  1  0  0  0  0
 14 22  2  0  0  0  0
 15  9  1  0  0  0  0
 15 18  1  0  0  0  0
 16  1  1  0  0  0  0
 17 10  1  0  0  0  0
 18  6  2  0  0  0  0
 19  7  1  0  0  0  0
 19 16  1  0  0  0  0
 20 29  1  0  0  0  0
 21 22  1  0  0  0  0
 21  4  2  0  0  0  0
 22 13  1  0  0  0  0
 23 14  1  0  0  0  0
 27  2  1  0  0  0  0
 28  6  1  0  0  0  0
 28 23  1  0  0  0  0
 29 30  1  0  0  0  0
 30 31  1  0  0  0  0
 32 30  2  0  0  0  0
M  END
>  <MODEL>
3

>  <REMARK>
 VINA RESULT:      -9.1      2.999      7.691
  Name = 
  2 active torsions:
  status: ('A' for Active; 'I' for Inactive)
    1  A    between atoms: N_20  and  C_29
    2  A    between atoms: C_29  and  C_30
                            x       y       z     vdW  Elec       q    Type
                         _______ _______ _______ _____ _____    ______ ____

>  <TORSDO>
F 2

$$$$
=
 OpenBabel11122410513D

 32 37  0  0  1  0  0  0  0  0999 V2000
  189.4300  178.4550  148.1240 C   0  0  0  0  0  2  0  0  0  0  0  0
  186.2430  178.2230  144.3640 C   0  0  2  0  0  3  0  0  0  0  0  0
  188.4570  178.3470  139.9500 C   0  0  0  0  0  3  0  0  0  0  0  0
  187.2210  178.4110  139.3160 C   0  0  0  0  0  3  0  0  0  0  0  0
  183.7760  178.6250  144.3860 C   0  0  0  0  0  0  0  0  0  0  0  0
  182.5450  178.9090  143.6560 C   0  0  0  0  0  0  0  0  0  0  0  0
  187.5630  176.9800  146.1090 C   0  0  1  0  0  3  0  0  0  0  0  0
  188.7510  177.9900  144.1460 C   0  0  0  0  0  3  0  0  0  0  0  0
  181.1710  179.1220  141.7870 C   0  0  2  0  0  3  0  0  0  0  0  0
  190.1610  177.4790  146.0630 C   0  0  0  0  0  2  0  0  0  0  0  0
  188.5220  178.2800  141.3400 C   0  0  0  0  0  3  0  0  0  0  0  0
  187.4510  178.1780  143.4680 C   0  0  0  0  0  0  0  0  0  0  0  0
  187.3540  178.2840  142.1270 C   0  0  0  0  0  0  0  0  0  0  0  0
  184.9380  178.3450  142.1870 C   0  0  0  0  0  0  0  0  0  0  0  0
  180.3990  179.4690  143.0680 C   0  0  0  0  0  2  0  0  0  0  0  0
  187.9840  178.6710  147.6570 C   0  0  0  0  0  2  0  0  0  0  0  0
  188.8240  177.4700  145.3760 C   0  0  0  0  0  0  0  0  0  0  0  0
  181.3860  179.2560  144.1770 C   0  0  0  0  0  3  0  0  0  0  0  0
  187.3490  177.4330  147.4400 O   0  0  0  0  0  0  0  0  0  0  0  0
  190.0280  177.2670  147.5030 N   0  0  0  0  0  0  0  0  0  0  0  0
  186.0510  178.4090  140.0740 C   0  0  0  0  0  3  0  0  0  0  0  0
  186.0900  178.3510  141.4810 C   0  0  0  0  0  0  0  0  0  0  0  0
  183.6050  178.2900  141.4550 C   0  0  0  0  0  2  0  0  0  0  0  0
  186.2690  177.0070  145.2820 C   0  0  0  0  0  2  0  0  0  0  0  0
  183.7920  178.6700  145.6470 O   0  0  0  0  0  0  0  0  0  0  0  0
  180.5630  177.8770  141.1650 C   0  0  0  0  0  1  0  0  0  0  0  0
  184.9720  178.3260  143.6390 N   0  0  0  0  0  0  0  0  0  0  0  0
  182.5190  178.8480  142.2530 N   0  0  0  0  0  0  0  0  0  0  0  0
  191.3760  177.1420  148.0330 C   0  0  0  0  0  2  0  0  0  0  0  0
  192.0000  175.8720  147.5570 C   0  0  0  0  0  0  0  0  0  0  0  0
  192.0390  175.5640  146.1010 C   0  0  0  0  0  1  0  0  0  0  0  0
  192.4660  175.0790  148.3590 O   0  0  0  0  0  0  0  0  0  0  0  0
  2 24  1  6  0  0  0
  3 11  2  0  0  0  0
  4  3  1  0  0  0  0
  4 21  2  0  0  0  0
  5 25  2  0  0  0  0
  6 18  2  0  0  0  0
  6  5  1  0  0  0  0
  7 24  1  6  0  0  0
  7 19  1  0  0  0  0
  8 17  2  0  0  0  0
  9 26  1  1  0  0  0
  9 28  1  0  0  0  0
  9 15  1  0  0  0  0
 10 20  1  0  0  0  0
 11 13  1  0  0  0  0
 12  8  1  0  0  0  0
 12  2  1  0  0  0  0
 13 12  2  0  0  0  0
 14 27  1  0  0  0  0
 15 18  1  0  0  0  0
 16  1  1  0  0  0  0
 17 10  1  0  0  0  0
 17  7  1  0  0  0  0
 19 16  1  0  0  0  0
 20 29  1  0  0  0  0
 20  1  1  0  0  0  0
 21 22  1  0  0  0  0
 22 13  1  0  0  0  0
 22 14  2  0  0  0  0
 23 14  1  0  0  0  0
 23 28  1  0  0  0  0
 27  2  1  0  0  0  0
 27  5  1  0  0  0  0
 28  6  1  0  0  0  0
 30 29  1  0  0  0  0
 30 32  2  0  0  0  0
 31 30  1  0  0  0  0
M  END
>  <MODEL>
4

>  <REMARK>
 VINA RESULT:      -8.7      3.910      6.942
  Name = 
  2 active torsions:
  status: ('A' for Active; 'I' for Inactive)
    1  A    between atoms: N_20  and  C_29
    2  A    between atoms: C_29  and  C_30
                            x       y       z     vdW  Elec       q    Type
                         _______ _______ _______ _____ _____    ______ ____

>  <TORSDO>
F 2

$$$$
=
 OpenBabel11122410513D

 32 37  0  0  1  0  0  0  0  0999 V2000
  189.8650  178.0570  146.5300 C   0  0  0  0  0  2  0  0  0  0  0  0
  186.4570  178.0930  142.9620 C   0  0  2  0  0  3  0  0  0  0  0  0
  188.4060  178.4700  138.4390 C   0  0  0  0  0  3  0  0  0  0  0  0
  187.1350  178.5860  137.8860 C   0  0  0  0  0  3  0  0  0  0  0  0
  184.0020  178.5190  143.1580 C   0  0  0  0  0  0  0  0  0  0  0  0
  182.7340  178.8610  142.5230 C   0  0  0  0  0  0  0  0  0  0  0  0
  187.8610  176.7300  144.5440 C   0  0  1  0  0  3  0  0  0  0  0  0
  188.9440  177.8490  142.5800 C   0  0  0  0  0  3  0  0  0  0  0  0
  181.2540  179.2050  140.7570 C   0  0  2  0  0  3  0  0  0  0  0  0
  190.4580  177.2040  144.3730 C   0  0  0  0  0  2  0  0  0  0  0  0
  188.5520  178.3150  139.8160 C   0  0  0  0  0  3  0  0  0  0  0  0
  187.6090  178.0920  141.9940 C   0  0  0  0  0  0  0  0  0  0  0  0
  187.4340  178.2830  140.6710 C   0  0  0  0  0  0  0  0  0  0  0  0
  185.0260  178.3650  140.8800 C   0  0  0  0  0  0  0  0  0  0  0  0
  180.5640  179.4790  142.1010 C   0  0  0  0  0  2  0  0  0  0  0  0
  188.3970  178.3170  146.1660 C   0  0  0  0  0  2  0  0  0  0  0  0
  189.0830  177.2520  143.7680 C   0  0  0  0  0  0  0  0  0  0  0  0
  181.6120  179.1860  143.1340 C   0  0  0  0  0  3  0  0  0  0  0  0
  187.7340  177.1010  145.9110 O   0  0  0  0  0  0  0  0  0  0  0  0
  190.4080  176.9040  145.8020 N   0  0  0  0  0  0  0  0  0  0  0  0
  186.0120  178.5500  138.7120 C   0  0  0  0  0  3  0  0  0  0  0  0
  186.1340  178.4030  140.1070 C   0  0  0  0  0  0  0  0  0  0  0  0
  183.6510  178.3690  140.2280 C   0  0  0  0  0  2  0  0  0  0  0  0
  186.5210  176.8220  143.8010 C   0  0  0  0  0  2  0  0  0  0  0  0
  184.0940  178.4850  144.4170 O   0  0  0  0  0  0  0  0  0  0  0  0
  180.5920  178.0070  140.0970 C   0  0  0  0  0  1  0  0  0  0  0  0
  185.1470  178.2540  142.3230 N   0  0  0  0  0  0  0  0  0  0  0  0
  182.6230  178.8880  141.1230 N   0  0  0  0  0  0  0  0  0  0  0  0
  191.7830  176.7330  146.2410 C   0  0  0  0  0  2  0  0  0  0  0  0
  191.8370  175.8200  147.4220 C   0  0  0  0  0  0  0  0  0  0  0  0
  192.8710  176.0280  148.4730 C   0  0  0  0  0  1  0  0  0  0  0  0
  191.0460  174.8960  147.5210 O   0  0  0  0  0  0  0  0  0  0  0  0
  2 24  1  6  0  0  0
  3 11  2  0  0  0  0
  4  3  1  0  0  0  0
  4 21  2  0  0  0  0
  5 25  2  0  0  0  0
  6 18  2  0  0  0  0
  6  5  1  0  0  0  0
  7 24  1  6  0  0  0
  7 19  1  0  0  0  0
  8 17  2  0  0  0  0
  9 26  1  1  0  0  0
  9 28  1  0  0  0  0
  9 15  1  0  0  0  0
 10 20  1  0  0  0  0
 11 13  1  0  0  0  0
 12  8  1  0  0  0  0
 12  2  1  0  0  0  0
 13 12  2  0  0  0  0
 14 27  1  0  0  0  0
 15 18  1  0  0  0  0
 16  1  1  0  0  0  0
 17 10  1  0  0  0  0
 17  7  1  0  0  0  0
 19 16  1  0  0  0  0
 20 29  1  0  0  0  0
 20  1  1  0  0  0  0
 21 22  1  0  0  0  0
 22 13  1  0  0  0  0
 22 14  2  0  0  0  0
 23 14  1  0  0  0  0
 23 28  1  0  0  0  0
 27  2  1  0  0  0  0
 27  5  1  0  0  0  0
 28  6  1  0  0  0  0
 29 30  1  0  0  0  0
 30 32  2  0  0  0  0
 30 31  1  0  0  0  0
M  END
>  <MODEL>
5

>  <REMARK>
 VINA RESULT:      -8.7      3.602      6.771
  Name = 
  2 active torsions:
  status: ('A' for Active; 'I' for Inactive)
    1  A    between atoms: N_20  and  C_29
    2  A    between atoms: C_29  and  C_30
                            x       y       z     vdW  Elec       q    Type
                         _______ _______ _______ _____ _____    ______ ____

>  <TORSDO>
F 2

$$$$
=
 OpenBabel11122410513D

 32 37  0  0  1  0  0  0  0  0999 V2000
  192.1830  175.2310  145.9260 C   0  0  0  0  0  2  0  0  0  0  0  0
  188.4440  177.4550  143.5980 C   0  0  2  0  0  3  0  0  0  0  0  0
  184.5540  178.2660  146.5340 C   0  0  0  0  0  3  0  0  0  0  0  0
  183.8110  178.7160  145.4470 C   0  0  0  0  0  3  0  0  0  0  0  0
  188.0510  177.6770  141.1390 C   0  0  0  0  0  0  0  0  0  0  0  0
  187.1400  177.9560  140.0350 C   0  0  0  0  0  0  0  0  0  0  0  0
  190.6530  177.6930  144.7790 C   0  0  1  0  0  3  0  0  0  0  0  0
  188.5980  177.1330  146.1010 C   0  0  0  0  0  3  0  0  0  0  0  0
  185.1840  178.7120  139.0190 C   0  0  2  0  0  3  0  0  0  0  0  0
  190.7100  176.6250  147.1980 C   0  0  0  0  0  2  0  0  0  0  0  0
  185.8720  177.8520  146.3490 C   0  0  0  0  0  3  0  0  0  0  0  0
  187.7620  177.5000  144.9390 C   0  0  0  0  0  0  0  0  0  0  0  0
  186.4720  177.8700  145.0750 C   0  0  0  0  0  0  0  0  0  0  0  0
  186.2450  178.3790  142.7220 C   0  0  0  0  0  0  0  0  0  0  0  0
  186.1590  178.1590  137.9700 C   0  0  0  0  0  2  0  0  0  0  0  0
  191.5150  175.5370  144.5780 C   0  0  0  0  0  2  0  0  0  0  0  0
  189.9330  177.1840  146.0400 C   0  0  0  0  0  0  0  0  0  0  0  0
  187.3700  177.7480  138.7550 C   0  0  0  0  0  3  0  0  0  0  0  0
  191.6970  176.8920  144.2390 O   0  0  0  0  0  0  0  0  0  0  0  0
  192.1050  176.3750  146.8410 N   0  0  0  0  0  0  0  0  0  0  0  0
  184.3860  178.7500  144.1780 C   0  0  0  0  0  3  0  0  0  0  0  0
  185.7130  178.3290  143.9640 C   0  0  0  0  0  0  0  0  0  0  0  0
  185.4430  178.9930  141.5840 C   0  0  0  0  0  2  0  0  0  0  0  0
  189.7390  178.2550  143.6800 C   0  0  0  0  0  2  0  0  0  0  0  0
  189.2030  177.2150  140.9110 O   0  0  0  0  0  0  0  0  0  0  0  0
  184.9960  180.2010  138.7820 C   0  0  0  0  0  1  0  0  0  0  0  0
  187.5980  177.9080  142.4880 N   0  0  0  0  0  0  0  0  0  0  0  0
  185.8600  178.4830  140.2830 N   0  0  0  0  0  0  0  0  0  0  0  0
  192.7860  175.9880  148.0660 C   0  0  0  0  0  2  0  0  0  0  0  0
  192.8000  177.1280  149.0300 C   0  0  0  0  0  0  0  0  0  0  0  0
  193.7750  177.1360  150.1550 C   0  0  0  0  0  1  0  0  0  0  0  0
  192.0050  178.0460  148.9070 O   0  0  0  0  0  0  0  0  0  0  0  0
  1 20  1  0  0  0  0
  2 24  1  1  0  0  0
  2 12  1  0  0  0  0
  4  3  1  0  0  0  0
  5 27  1  0  0  0  0
  6 28  1  0  0  0  0
  6  5  1  0  0  0  0
  7 24  1  6  0  0  0
  7 17  1  0  0  0  0
  9 26  1  6  0  0  0
  9 28  1  0  0  0  0
 11  3  2  0  0  0  0
 12 13  2  0  0  0  0
 12  8  1  0  0  0  0
 13 11  1  0  0  0  0
 14 22  2  0  0  0  0
 15 18  1  0  0  0  0
 15  9  1  0  0  0  0
 16  1  1  0  0  0  0
 17  8  2  0  0  0  0
 17 10  1  0  0  0  0
 18  6  2  0  0  0  0
 19 16  1  0  0  0  0
 19  7  1  0  0  0  0
 20 10  1  0  0  0  0
 20 29  1  0  0  0  0
 21  4  2  0  0  0  0
 22 21  1  0  0  0  0
 22 13  1  0  0  0  0
 23 14  1  0  0  0  0
 25  5  2  0  0  0  0
 27 14  1  0  0  0  0
 27  2  1  0  0  0  0
 28 23  1  0  0  0  0
 29 30  1  0  0  0  0
 30 31  1  0  0  0  0
 32 30  2  0  0  0  0
M  END
>  <MODEL>
6

>  <REMARK>
 VINA RESULT:      -8.6      3.011      7.192
  Name = 
  2 active torsions:
  status: ('A' for Active; 'I' for Inactive)
    1  A    between atoms: N_20  and  C_29
    2  A    between atoms: C_29  and  C_30
                            x       y       z     vdW  Elec       q    Type
                         _______ _______ _______ _____ _____    ______ ____

>  <TORSDO>
F 2

$$$$
=
 OpenBabel11122410513D

 32 37  0  0  1  0  0  0  0  0999 V2000
  188.8260  179.0230  137.1770 C   0  0  0  0  0  2  0  0  0  0  0  0
  187.9520  178.0520  141.9350 C   0  0  2  0  0  3  0  0  0  0  0  0
  183.3310  179.1340  143.3070 C   0  0  0  0  0  3  0  0  0  0  0  0
  183.6440  178.8510  144.6330 C   0  0  0  0  0  3  0  0  0  0  0  0
  189.6000  177.6670  143.7740 C   0  0  0  0  0  0  0  0  0  0  0  0
  189.8940  177.6000  145.2020 C   0  0  0  0  0  0  0  0  0  0  0  0
  188.1150  177.1720  139.5830 C   0  0  1  0  0  3  0  0  0  0  0  0
  186.1760  178.6220  140.2290 C   0  0  0  0  0  3  0  0  0  0  0  0
  189.4120  177.4940  147.4780 C   0  0  2  0  0  3  0  0  0  0  0  0
  186.5960  178.4540  137.8380 C   0  0  0  0  0  2  0  0  0  0  0  0
  184.3070  179.0030  142.3200 C   0  0  0  0  0  3  0  0  0  0  0  0
  186.5260  178.4400  141.6540 C   0  0  0  0  0  0  0  0  0  0  0  0
  185.6170  178.5950  142.6380 C   0  0  0  0  0  0  0  0  0  0  0  0
  187.1760  177.8990  144.3500 C   0  0  0  0  0  0  0  0  0  0  0  0
  190.9300  177.5030  147.2470 C   0  0  0  0  0  2  0  0  0  0  0  0
  189.4310  178.8090  138.5720 C   0  0  0  0  0  2  0  0  0  0  0  0
  186.9120  178.0740  139.2570 C   0  0  0  0  0  0  0  0  0  0  0  0
  191.0880  177.5370  145.7560 C   0  0  0  0  0  3  0  0  0  0  0  0
  189.3510  177.4520  138.9360 O   0  0  0  0  0  0  0  0  0  0  0  0
  187.6940  178.1210  136.9330 N   0  0  0  0  0  0  0  0  0  0  0  0
  184.9330  178.4390  144.9700 C   0  0  0  0  0  3  0  0  0  0  0  0
  185.9380  178.3070  143.9920 C   0  0  0  0  0  0  0  0  0  0  0  0
  187.4460  177.4800  145.7880 C   0  0  0  0  0  2  0  0  0  0  0  0
  188.3110  176.8480  141.0710 C   0  0  0  0  0  2  0  0  0  0  0  0
  190.5390  177.6350  142.9300 O   0  0  0  0  0  0  0  0  0  0  0  0
  189.0130  176.1630  148.0930 C   0  0  0  0  0  1  0  0  0  0  0  0
  188.2280  177.8000  143.3540 N   0  0  0  0  0  0  0  0  0  0  0  0
  188.8520  177.6220  146.1450 N   0  0  0  0  0  0  0  0  0  0  0  0
  187.2200  178.3880  135.5850 C   0  0  0  0  0  2  0  0  0  0  0  0
  186.4410  177.2210  135.0730 C   0  0  0  0  0  0  0  0  0  0  0  0
  187.1130  175.9060  134.8860 C   0  0  0  0  0  1  0  0  0  0  0  0
  185.2600  177.3460  134.7940 O   0  0  0  0  0  0  0  0  0  0  0  0
  1 16  1  0  0  0  0
  2 24  1  6  0  0  0
  2 27  1  0  0  0  0
  3  4  1  0  0  0  0
  4 21  2  0  0  0  0
  5  6  1  0  0  0  0
  6 18  2  0  0  0  0
  6 28  1  0  0  0  0
  7 24  1  1  0  0  0
  8 12  1  0  0  0  0
  9 26  1  6  0  0  0
 10 17  1  0  0  0  0
 11 13  1  0  0  0  0
 11  3  2  0  0  0  0
 12  2  1  0  0  0  0
 12 13  2  0  0  0  0
 13 22  1  0  0  0  0
 14 23  1  0  0  0  0
 15  9  1  0  0  0  0
 16 19  1  0  0  0  0
 17  7  1  0  0  0  0
 17  8  2  0  0  0  0
 18 15  1  0  0  0  0
 19  7  1  0  0  0  0
 20  1  1  0  0  0  0
 20 10  1  0  0  0  0
 22 14  2  0  0  0  0
 22 21  1  0  0  0  0
 23 28  1  0  0  0  0
 25  5  2  0  0  0  0
 27  5  1  0  0  0  0
 27 14  1  0  0  0  0
 28  9  1  0  0  0  0
 29 20  1  0  0  0  0
 30 29  1  0  0  0  0
 31 30  1  0  0  0  0
 32 30  2  0  0  0  0
M  END
>  <MODEL>
7

>  <REMARK>
 VINA RESULT:      -8.4      2.515      5.014
  Name = 
  2 active torsions:
  status: ('A' for Active; 'I' for Inactive)
    1  A    between atoms: N_20  and  C_29
    2  A    between atoms: C_29  and  C_30
                            x       y       z     vdW  Elec       q    Type
                         _______ _______ _______ _____ _____    ______ ____

>  <TORSDO>
F 2

$$$$
=
 OpenBabel11122410513D

 32 37  0  0  1  0  0  0  0  0999 V2000
  192.0540  177.5030  139.0550 C   0  0  0  0  0  2  0  0  0  0  0  0
  189.1000  177.5830  143.0070 C   0  0  2  0  0  3  0  0  0  0  0  0
  184.4670  178.9110  141.9240 C   0  0  0  0  0  3  0  0  0  0  0  0
  184.1400  178.9250  143.2770 C   0  0  0  0  0  3  0  0  0  0  0  0
  189.7340  177.6160  145.4240 C   0  0  0  0  0  0  0  0  0  0  0  0
  189.3660  177.8630  146.8150 C   0  0  0  0  0  0  0  0  0  0  0  0
  190.1950  176.2150  141.2010 C   0  0  1  0  0  3  0  0  0  0  0  0
  188.3110  177.7600  140.6120 C   0  0  0  0  0  3  0  0  0  0  0  0
  187.9280  178.2510  148.6060 C   0  0  2  0  0  3  0  0  0  0  0  0
  189.7170  177.0780  138.7460 C   0  0  0  0  0  2  0  0  0  0  0  0
  185.7590  178.5750  141.5260 C   0  0  0  0  0  3  0  0  0  0  0  0
  187.9830  177.8930  142.0470 C   0  0  0  0  0  0  0  0  0  0  0  0
  186.7540  178.2530  142.4690 C   0  0  0  0  0  0  0  0  0  0  0  0
  187.3360  177.9550  144.7970 C   0  0  0  0  0  0  0  0  0  0  0  0
  189.3880  178.2180  149.0820 C   0  0  0  0  0  2  0  0  0  0  0  0
  191.9650  177.6000  140.5850 C   0  0  0  0  0  2  0  0  0  0  0  0
  189.3440  177.0170  140.2010 C   0  0  0  0  0  0  0  0  0  0  0  0
  190.1850  177.9280  147.8440 C   0  0  0  0  0  3  0  0  0  0  0  0
  191.6090  176.3540  141.1340 O   0  0  0  0  0  0  0  0  0  0  0  0
  191.0650  176.5630  138.5140 N   0  0  0  0  0  0  0  0  0  0  0  0
  185.1070  178.6030  144.2280 C   0  0  0  0  0  3  0  0  0  0  0  0
  186.4220  178.2680  143.8510 C   0  0  0  0  0  0  0  0  0  0  0  0
  186.9090  177.8590  146.2550 C   0  0  0  0  0  2  0  0  0  0  0  0
  189.6890  176.2230  142.6500 C   0  0  0  0  0  2  0  0  0  0  0  0
  190.9400  177.4070  145.1140 O   0  0  0  0  0  0  0  0  0  0  0  0
  187.1800  177.0830  149.2270 C   0  0  0  0  0  1  0  0  0  0  0  0
  188.7030  177.6480  144.4180 N   0  0  0  0  0  0  0  0  0  0  0  0
  188.0230  178.0830  147.1670 N   0  0  0  0  0  0  0  0  0  0  0  0
  191.2560  176.5280  137.0730 C   0  0  0  0  0  2  0  0  0  0  0  0
  192.4000  175.6330  136.7260 C   0  0  0  0  0  0  0  0  0  0  0  0
  192.4620  174.2560  137.2900 C   0  0  0  0  0  1  0  0  0  0  0  0
  193.2910  176.0310  135.9950 O   0  0  0  0  0  0  0  0  0  0  0  0
  1 16  1  0  0  0  0
  2 24  1  6  0  0  0
  2 27  1  0  0  0  0
  3  4  1  0  0  0  0
  4 21  2  0  0  0  0
  5  6  1  0  0  0  0
  6 28  1  0  0  0  0
  6 18  2  0  0  0  0
  7 24  1  1  0  0  0
  8 12  1  0  0  0  0
  9 15  1  0  0  0  0
  9 26  1  1  0  0  0
 10 17  1  0  0  0  0
 11  3  2  0  0  0  0
 11 13  1  0  0  0  0
 12 13  2  0  0  0  0
 12  2  1  0  0  0  0
 13 22  1  0  0  0  0
 14 23  1  0  0  0  0
 16 19  1  0  0  0  0
 17  8  2  0  0  0  0
 17  7  1  0  0  0  0
 18 15  1  0  0  0  0
 19  7  1  0  0  0  0
 20 10  1  0  0  0  0
 20  1  1  0  0  0  0
 22 21  1  0  0  0  0
 22 14  2  0  0  0  0
 23 28  1  0  0  0  0
 25  5  2  0  0  0  0
 27 14  1  0  0  0  0
 27  5  1  0  0  0  0
 28  9  1  0  0  0  0
 29 20  1  0  0  0  0
 30 29  1  0  0  0  0
 30 31  1  0  0  0  0
 32 30  2  0  0  0  0
M  END
>  <MODEL>
8

>  <REMARK>
 VINA RESULT:      -8.3      2.060      4.097
  Name = 
  2 active torsions:
  status: ('A' for Active; 'I' for Inactive)
    1  A    between atoms: N_20  and  C_29
    2  A    between atoms: C_29  and  C_30
                            x       y       z     vdW  Elec       q    Type
                         _______ _______ _______ _____ _____    ______ ____

>  <TORSDO>
F 2

$$$$
=
 OpenBabel11122410513D

 32 37  0  0  1  0  0  0  0  0999 V2000
  182.6190  177.9390  139.7610 C   0  0  0  0  0  2  0  0  0  0  0  0
  186.5760  178.0740  142.7070 C   0  0  2  0  0  3  0  0  0  0  0  0
  190.8200  177.4200  140.2660 C   0  0  0  0  0  3  0  0  0  0  0  0
  191.5220  177.3900  141.4670 C   0  0  0  0  0  3  0  0  0  0  0  0
  186.6730  177.8500  145.1940 C   0  0  0  0  0  0  0  0  0  0  0  0
  187.4520  177.5930  146.4010 C   0  0  0  0  0  0  0  0  0  0  0  0
  184.8590  179.3650  141.3960 C   0  0  1  0  0  3  0  0  0  0  0  0
  186.6560  178.1110  140.1800 C   0  0  0  0  0  3  0  0  0  0  0  0
  189.3790  177.3190  147.6800 C   0  0  2  0  0  3  0  0  0  0  0  0
  184.7030  178.6820  138.8450 C   0  0  0  0  0  2  0  0  0  0  0  0
  189.4390  177.6000  140.2740 C   0  0  0  0  0  3  0  0  0  0  0  0
  187.3960  177.9580  141.4510 C   0  0  0  0  0  0  0  0  0  0  0  0
  188.7270  177.7450  141.4800 C   0  0  0  0  0  0  0  0  0  0  0  0
  188.8110  177.8600  143.8940 C   0  0  0  0  0  0  0  0  0  0  0  0
  188.1250  177.1370  148.5470 C   0  0  0  0  0  2  0  0  0  0  0  0
  183.1560  177.7860  141.1910 C   0  0  0  0  0  2  0  0  0  0  0  0
  185.4700  178.7270  140.1360 C   0  0  0  0  0  0  0  0  0  0  0  0
  186.9770  177.3740  147.6100 C   0  0  0  0  0  3  0  0  0  0  0  0
  183.5110  179.0430  141.7170 O   0  0  0  0  0  0  0  0  0  0  0  0
  183.2960  179.0250  139.0420 N   0  0  0  0  0  0  0  0  0  0  0  0
  190.8400  177.5380  142.6730 C   0  0  0  0  0  3  0  0  0  0  0  0
  189.4430  177.7130  142.7080 C   0  0  0  0  0  0  0  0  0  0  0  0
  189.6270  177.9460  145.1770 C   0  0  0  0  0  2  0  0  0  0  0  0
  185.7580  179.3600  142.6400 C   0  0  0  0  0  2  0  0  0  0  0  0
  185.4140  177.9120  145.2520 O   0  0  0  0  0  0  0  0  0  0  0  0
  190.1360  178.5460  148.1580 C   0  0  0  0  0  1  0  0  0  0  0  0
  187.3670  178.0000  143.9400 N   0  0  0  0  0  0  0  0  0  0  0  0
  188.8550  177.5360  146.3440 N   0  0  0  0  0  0  0  0  0  0  0  0
  182.6960  179.0990  137.7200 C   0  0  0  0  0  2  0  0  0  0  0  0
  181.4480  179.9180  137.7660 C   0  0  0  0  0  0  0  0  0  0  0  0
  181.5140  181.3460  138.1790 C   0  0  0  0  0  1  0  0  0  0  0  0
  180.3730  179.4160  137.4800 O   0  0  0  0  0  0  0  0  0  0  0  0
  1 16  1  0  0  0  0
  2 24  1  6  0  0  0
  2 27  1  0  0  0  0
  3 11  2  0  0  0  0
  3  4  1  0  0  0  0
  4 21  2  0  0  0  0
  5 25  2  0  0  0  0
  5  6  1  0  0  0  0
  6 18  2  0  0  0  0
  7 19  1  0  0  0  0
  7 24  1  1  0  0  0
  8 12  1  0  0  0  0
  9 26  1  1  0  0  0
  9 15  1  0  0  0  0
 10 20  1  0  0  0  0
 10 17  1  0  0  0  0
 11 13  1  0  0  0  0
 12 13  2  0  0  0  0
 12  2  1  0  0  0  0
 13 22  1  0  0  0  0
 14 27  1  0  0  0  0
 14 23  1  0  0  0  0
 16 19  1  0  0  0  0
 17  8  2  0  0  0  0
 17  7  1  0  0  0  0
 18 15  1  0  0  0  0
 20  1  1  0  0  0  0
 21 22  1  0  0  0  0
 22 14  2  0  0  0  0
 23 28  1  0  0  0  0
 27  5  1  0  0  0  0
 28  6  1  0  0  0  0
 28  9  1  0  0  0  0
 29 30  1  0  0  0  0
 29 20  1  0  0  0  0
 30 31  1  0  0  0  0
 32 30  2  0  0  0  0
M  END
>  <MODEL>
9

>  <REMARK>
 VINA RESULT:      -8.3      3.447      5.966
  Name = 
  2 active torsions:
  status: ('A' for Active; 'I' for Inactive)
    1  A    between atoms: N_20  and  C_29
    2  A    between atoms: C_29  and  C_30
                            x       y       z     vdW  Elec       q    Type
                         _______ _______ _______ _____ _____    ______ ____

>  <TORSDO>
F 2

$$$$
