=
 OpenBabel11122411453D

 37 41  0  0  1  0  0  0  0  0999 V2000
  189.6660  175.0190  137.4140 C   0  0  0  0  0  0  0  0  0  0  0  0
  187.0780  178.5170  136.7820 C   0  0  0  0  0  2  0  0  0  0  0  0
  185.3940  179.3430  139.3290 O   0  0  0  0  0  0  0  0  0  0  0  0
  189.8900  177.0360  135.9790 C   0  0  2  0  0  3  0  0  0  0  0  0
  186.9380  177.9350  138.1700 C   0  0  2  0  0  3  0  0  0  0  0  0
  189.8100  177.7660  137.1990 O   0  0  0  0  0  0  0  0  0  0  0  0
  185.5390  178.0620  138.7830 C   0  0  2  0  0  3  0  0  0  0  0  0
  189.1750  177.7510  134.8230 C   0  0  0  0  0  2  0  0  0  0  0  0
  189.2790  177.0910  138.3390 C   0  0  2  0  0  3  0  0  0  0  0  0
  190.9200  175.0540  138.0120 F   0  0  0  0  0  0  0  0  0  0  0  0
  185.4370  177.1820  135.5750 N   0  0  0  0  0  2  0  0  0  0  0  0
  187.6940  177.3910  134.5990 C   0  0  0  0  0  2  0  0  0  0  0  0
  188.7330  175.8060  138.1000 O   0  0  0  0  0  0  0  0  0  0  0  0
  186.0540  178.6040  141.5880 C   0  0  0  0  0  2  0  0  0  0  0  0
  184.9760  179.1810  140.6620 C   0  0  0  0  0  2  0  0  0  0  0  0
  186.8590  177.3270  135.8730 C   0  0  1  0  0  3  0  0  0  0  0  0
  188.2230  177.9980  139.0190 C   0  0  2  0  0  3  0  0  0  0  0  0
  189.7360  175.5170  135.9970 C   0  0  0  0  0  2  0  0  0  0  0  0
  184.4110  177.7650  137.7510 C   0  0  1  0  0  3  0  0  0  0  0  0
  189.2230  173.7110  137.3990 F   0  0  0  0  0  0  0  0  0  0  0  0
  187.4680  178.8480  141.0840 C   0  0  0  0  0  2  0  0  0  0  0  0
  187.9680  177.6430  140.4290 N   0  0  0  0  0  0  0  0  0  0  0  0
  184.7610  176.6440  136.7580 C   0  0  0  0  0  2  0  0  0  0  0  0
  183.0150  176.0450  138.9790 C   0  0  0  0  0  2  0  0  0  0  0  0
  183.0610  177.4600  138.4070 C   0  0  2  0  0  3  0  0  0  0  0  0
  181.8860  177.7710  137.5100 C   0  0  0  0  0  3  0  0  0  0  0  0
  179.7030  177.4390  136.7120 O   0  0  0  0  0  1  0  0  0  0  0  0
  180.5950  175.8430  138.4060 C   0  0  0  0  0  2  0  0  0  0  0  0
  180.7500  177.0680  137.5440 C   0  0  0  0  0  0  0  0  0  0  0  0
  181.6230  175.7760  139.5340 C   0  0  0  0  0  2  0  0  0  0  0  0
  189.2250  177.3330  141.1170 C   0  0  0  0  0  2  0  0  0  0  0  0
  189.1390  177.6230  142.6220 C   0  0  1  0  0  3  0  0  0  0  0  0
  187.6220  176.9610  144.4890 C   0  0  0  0  0  1  0  0  0  0  0  0
  188.5470  176.4560  143.3990 C   0  0  0  0  0  2  0  0  0  0  0  0
  190.4950  177.9950  143.2040 C   0  0  0  0  0  2  0  0  0  0  0  0
  191.2770  176.7520  143.5880 C   0  0  0  0  0  2  0  0  0  0  0  0
  191.7070  176.8490  144.9110 O   0  0  0  0  0  1  0  0  0  0  0  0
  1 10  1  0  0  0  0
  1 13  1  0  0  0  0
  3 15  1  0  0  0  0
  4  8  1  6  0  0  0
  4 18  1  0  0  0  0
  4  6  1  0  0  0  0
  5  2  1  6  0  0  0
  5  7  1  0  0  0  0
  5 17  1  0  0  0  0
  7  3  1  6  0  0  0
  9  6  1  6  0  0  0
  9 17  1  0  0  0  0
 11 16  1  0  0  0  0
 11 23  1  0  0  0  0
 12  8  1  0  0  0  0
 13  9  1  0  0  0  0
 15 14  1  0  0  0  0
 16 12  1  6  0  0  0
 16  2  1  0  0  0  0
 17 22  1  1  0  0  0
 18  1  1  0  0  0  0
 19 23  1  1  0  0  0
 19 25  1  0  0  0  0
 19  7  1  0  0  0  0
 20  1  1  0  0  0  0
 21 14  1  0  0  0  0
 22 21  1  0  0  0  0
 22 31  1  0  0  0  0
 24 30  1  0  0  0  0
 25 26  1  6  0  0  0
 25 24  1  0  0  0  0
 26 29  2  0  0  0  0
 27 29  1  0  0  0  0
 28 30  1  0  0  0  0
 29 28  1  0  0  0  0
 32 31  1  6  0  0  0
 32 35  1  0  0  0  0
 32 34  1  0  0  0  0
 34 33  1  0  0  0  0
 35 36  1  0  0  0  0
 36 37  1  0  0  0  0
M  END
>  <MODEL>
1

>  <REMARK>
 VINA RESULT:      -7.5      0.000      0.000
  Name = 
  6 active torsions:
  status: ('A' for Active; 'I' for Inactive)
    1  A    between atoms: C_1  and  C_4
    2  A    between atoms: C_1  and  N_27
    3  A    between atoms: C_4  and  C_12
    4  A    between atoms: C_4  and  C_37
    5  A    between atoms: C_8  and  C_12
    6  A    between atoms: C_23  and  C_30
                            x       y       z     vdW  Elec       q    Type
                         _______ _______ _______ _____ _____    ______ ____

>  <TORSDO>
F 6

$$$$
=
 OpenBabel11122411453D

 37 41  0  0  1  0  0  0  0  0999 V2000
  180.3180  175.2250  139.7080 C   0  0  0  0  0  0  0  0  0  0  0  0
  181.8240  179.2950  140.4140 C   0  0  0  0  0  2  0  0  0  0  0  0
  184.9700  179.5530  140.2070 O   0  0  0  0  0  0  0  0  0  0  0  0
  179.3530  177.4730  139.2650 C   0  0  2  0  0  3  0  0  0  0  0  0
  182.9350  178.3010  140.1650 C   0  0  2  0  0  3  0  0  0  0  0  0
  180.5060  177.6760  138.4540 O   0  0  0  0  0  0  0  0  0  0  0  0
  184.2390  178.5910  140.9170 C   0  0  2  0  0  3  0  0  0  0  0  0
  178.9340  178.7480  140.0120 C   0  0  0  0  0  2  0  0  0  0  0  0
  181.6200  176.8090  138.6600 C   0  0  2  0  0  3  0  0  0  0  0  0
  180.1050  174.6620  138.4560 F   0  0  0  0  0  0  0  0  0  0  0  0
  181.5530  179.0620  142.8230 N   0  0  0  0  0  2  0  0  0  0  0  0
  179.5250  178.9520  141.4190 C   0  0  0  0  0  2  0  0  0  0  0  0
  181.5260  175.9310  139.7680 O   0  0  0  0  0  0  0  0  0  0  0  0
  186.3130  177.8550  139.0220 C   0  0  0  0  0  2  0  0  0  0  0  0
  186.2610  179.0290  140.0090 C   0  0  0  0  0  2  0  0  0  0  0  0
  181.0180  178.6590  141.5260 C   0  0  1  0  0  3  0  0  0  0  0  0
  182.9120  177.6580  138.7650 C   0  0  2  0  0  3  0  0  0  0  0  0
  179.2090  176.1780  140.0610 C   0  0  0  0  0  2  0  0  0  0  0  0
  183.9880  179.0520  142.3830 C   0  0  1  0  0  3  0  0  0  0  0  0
  180.3440  174.2130  140.6470 F   0  0  0  0  0  0  0  0  0  0  0  0
  185.1480  177.8450  138.0440 C   0  0  0  0  0  2  0  0  0  0  0  0
  184.1420  176.8880  138.4930 N   0  0  0  0  0  0  0  0  0  0  0  0
  182.8050  178.3410  143.0610 C   0  0  0  0  0  2  0  0  0  0  0  0
  185.8960  177.5670  143.1340 C   0  0  0  0  0  2  0  0  0  0  0  0
  185.2300  178.9340  143.2720 C   0  0  2  0  0  3  0  0  0  0  0  0
  184.9650  179.3180  144.7080 C   0  0  0  0  0  3  0  0  0  0  0  0
  185.3290  179.1800  147.0240 O   0  0  0  0  0  1  0  0  0  0  0  0
  186.5550  177.5950  145.5410 C   0  0  0  0  0  2  0  0  0  0  0  0
  185.6030  178.7460  145.7340 C   0  0  0  0  0  0  0  0  0  0  0  0
  187.0660  177.4820  144.1050 C   0  0  0  0  0  2  0  0  0  0  0  0
  183.9430  175.9870  137.3540 C   0  0  0  0  0  2  0  0  0  0  0  0
  184.1230  174.5150  137.7520 C   0  0  1  0  0  3  0  0  0  0  0  0
  183.4660  172.2390  136.9670 C   0  0  0  0  0  1  0  0  0  0  0  0
  182.9760  173.6430  137.2630 C   0  0  0  0  0  2  0  0  0  0  0  0
  185.4460  173.9530  137.2540 C   0  0  0  0  0  2  0  0  0  0  0  0
  186.1540  174.9530  136.3580 C   0  0  0  0  0  2  0  0  0  0  0  0
  187.3770  175.3170  136.9210 O   0  0  0  0  0  1  0  0  0  0  0  0
  1 13  1  0  0  0  0
  1 18  1  0  0  0  0
  1 20  1  0  0  0  0
  4  8  1  1  0  0  0
  4 18  1  0  0  0  0
  5  2  1  6  0  0  0
  5  7  1  0  0  0  0
  6  4  1  0  0  0  0
  7  3  1  6  0  0  0
  7 19  1  0  0  0  0
  8 12  1  0  0  0  0
  9  6  1  1  0  0  0
  9 17  1  0  0  0  0
  9 13  1  0  0  0  0
 10  1  1  0  0  0  0
 11 23  1  0  0  0  0
 12 16  1  0  0  0  0
 14 15  1  0  0  0  0
 15  3  1  0  0  0  0
 16  2  1  6  0  0  0
 16 11  1  0  0  0  0
 17 22  1  1  0  0  0
 17  5  1  0  0  0  0
 19 23  1  1  0  0  0
 19 25  1  0  0  0  0
 21 22  1  0  0  0  0
 21 14  1  0  0  0  0
 24 30  1  0  0  0  0
 25 24  1  1  0  0  0
 25 26  1  0  0  0  0
 26 29  2  0  0  0  0
 28 29  1  0  0  0  0
 29 27  1  0  0  0  0
 30 28  1  0  0  0  0
 31 32  1  0  0  0  0
 31 22  1  0  0  0  0
 32 35  1  6  0  0  0
 33 34  1  0  0  0  0
 34 32  1  0  0  0  0
 36 37  1  0  0  0  0
 36 35  1  0  0  0  0
M  END
>  <MODEL>
2

>  <REMARK>
 VINA RESULT:      -7.0      3.604      8.001
  Name = 
  6 active torsions:
  status: ('A' for Active; 'I' for Inactive)
    1  A    between atoms: C_1  and  C_4
    2  A    between atoms: C_1  and  N_27
    3  A    between atoms: C_4  and  C_12
    4  A    between atoms: C_4  and  C_37
    5  A    between atoms: C_8  and  C_12
    6  A    between atoms: C_23  and  C_30
                            x       y       z     vdW  Elec       q    Type
                         _______ _______ _______ _____ _____    ______ ____

>  <TORSDO>
F 6

$$$$
=
 OpenBabel11122411453D

 37 41  0  0  1  0  0  0  0  0999 V2000
  189.3600  177.2250  139.1250 C   0  0  0  0  0  0  0  0  0  0  0  0
  186.2860  177.2030  135.9810 C   0  0  0  0  0  2  0  0  0  0  0  0
  183.3340  176.8940  137.0750 O   0  0  0  0  0  0  0  0  0  0  0  0
  189.2220  178.3320  136.9040 C   0  0  2  0  0  3  0  0  0  0  0  0
  185.7030  177.0160  137.3630 C   0  0  2  0  0  3  0  0  0  0  0  0
  188.0450  178.9480  137.4180 O   0  0  0  0  0  0  0  0  0  0  0  0
  184.4550  176.1280  137.4200 C   0  0  2  0  0  3  0  0  0  0  0  0
  189.0940  177.9830  135.4140 C   0  0  0  0  0  2  0  0  0  0  0  0
  187.4340  178.3530  138.5620 C   0  0  2  0  0  3  0  0  0  0  0  0
  189.7140  178.3330  139.8840 F   0  0  0  0  0  0  0  0  0  0  0  0
  186.7890  174.8930  135.3970 N   0  0  0  0  0  2  0  0  0  0  0  0
  188.5660  176.5760  135.0760 C   0  0  0  0  0  2  0  0  0  0  0  0
  187.9720  177.1110  138.9770 O   0  0  0  0  0  0  0  0  0  0  0  0
  182.7870  177.4020  139.4280 C   0  0  0  0  0  2  0  0  0  0  0  0
  182.3890  176.7340  138.1050 C   0  0  0  0  0  2  0  0  0  0  0  0
  187.3600  176.1400  135.8990 C   0  0  1  0  0  3  0  0  0  0  0  0
  185.9120  178.2150  138.3100 C   0  0  2  0  0  3  0  0  0  0  0  0
  189.9660  177.3020  137.7510 C   0  0  0  0  0  2  0  0  0  0  0  0
  184.5760  174.8750  136.5050 C   0  0  1  0  0  3  0  0  0  0  0  0
  189.8370  176.0910  139.7530 F   0  0  0  0  0  0  0  0  0  0  0  0
  183.7740  178.5450  139.2460 C   0  0  0  0  0  2  0  0  0  0  0  0
  185.1230  178.0790  139.5500 N   0  0  0  0  0  0  0  0  0  0  0  0
  185.9930  174.2770  136.4600 C   0  0  0  0  0  2  0  0  0  0  0  0
  184.2340  172.4010  136.9180 C   0  0  0  0  0  2  0  0  0  0  0  0
  183.5700  173.7740  136.8550 C   0  0  2  0  0  3  0  0  0  0  0  0
  182.3430  173.7950  135.9750 C   0  0  0  0  0  3  0  0  0  0  0  0
  180.5400  172.7910  134.8550 O   0  0  0  0  0  1  0  0  0  0  0  0
  182.1740  171.3140  136.0230 C   0  0  0  0  0  2  0  0  0  0  0  0
  181.6810  172.6840  135.6390 C   0  0  0  0  0  0  0  0  0  0  0  0
  183.1690  171.3440  137.1810 C   0  0  0  0  0  2  0  0  0  0  0  0
  185.6180  179.0000  140.5780 C   0  0  0  0  0  2  0  0  0  0  0  0
  185.7770  178.3060  141.9380 C   0  0  1  0  0  3  0  0  0  0  0  0
  187.3710  177.0180  143.3610 C   0  0  0  0  0  1  0  0  0  0  0  0
  187.2370  178.1080  142.3160 C   0  0  0  0  0  2  0  0  0  0  0  0
  185.0560  179.0620  143.0450 C   0  0  0  0  0  2  0  0  0  0  0  0
  183.5750  178.7280  143.0510 C   0  0  0  0  0  2  0  0  0  0  0  0
  183.0020  179.1200  144.2600 O   0  0  0  0  0  1  0  0  0  0  0  0
  1 20  1  0  0  0  0
  1 10  1  0  0  0  0
  3 15  1  0  0  0  0
  4  8  1  6  0  0  0
  4  6  1  0  0  0  0
  4 18  1  0  0  0  0
  5  2  1  6  0  0  0
  5  7  1  0  0  0  0
  5 17  1  0  0  0  0
  7  3  1  6  0  0  0
  9  6  1  6  0  0  0
  9 13  1  0  0  0  0
 11 16  1  0  0  0  0
 11 23  1  0  0  0  0
 12  8  1  0  0  0  0
 13  1  1  0  0  0  0
 15 14  1  0  0  0  0
 16 12  1  6  0  0  0
 16  2  1  0  0  0  0
 17  9  1  0  0  0  0
 17 22  1  1  0  0  0
 18  1  1  0  0  0  0
 19 23  1  1  0  0  0
 19 25  1  0  0  0  0
 19  7  1  0  0  0  0
 21 14  1  0  0  0  0
 21 22  1  0  0  0  0
 22 31  1  0  0  0  0
 24 30  1  0  0  0  0
 25 26  1  6  0  0  0
 25 24  1  0  0  0  0
 27 29  1  0  0  0  0
 28 30  1  0  0  0  0
 29 26  2  0  0  0  0
 29 28  1  0  0  0  0
 32 31  1  6  0  0  0
 32 34  1  0  0  0  0
 32 35  1  0  0  0  0
 34 33  1  0  0  0  0
 35 36  1  0  0  0  0
 36 37  1  0  0  0  0
M  END
>  <MODEL>
3

>  <REMARK>
 VINA RESULT:      -6.9      2.703      3.861
  Name = 
  6 active torsions:
  status: ('A' for Active; 'I' for Inactive)
    1  A    between atoms: C_1  and  C_4
    2  A    between atoms: C_1  and  N_27
    3  A    between atoms: C_4  and  C_12
    4  A    between atoms: C_4  and  C_37
    5  A    between atoms: C_8  and  C_12
    6  A    between atoms: C_23  and  C_30
                            x       y       z     vdW  Elec       q    Type
                         _______ _______ _______ _____ _____    ______ ____

>  <TORSDO>
F 6

$$$$
=
 OpenBabel11122411453D

 37 41  0  0  1  0  0  0  0  0999 V2000
  189.4790  175.8740  143.1860 C   0  0  0  0  0  0  0  0  0  0  0  0
  189.5490  178.2710  139.5010 C   0  0  0  0  0  2  0  0  0  0  0  0
  186.6840  178.8440  138.2880 O   0  0  0  0  0  0  0  0  0  0  0  0
  191.0050  177.6600  142.3730 C   0  0  2  0  0  3  0  0  0  0  0  0
  188.1500  177.8570  139.8960 C   0  0  2  0  0  3  0  0  0  0  0  0
  189.8390  178.4770  142.3420 O   0  0  0  0  0  0  0  0  0  0  0  0
  187.1950  177.6140  138.7220 C   0  0  2  0  0  3  0  0  0  0  0  0
  191.9590  177.9610  141.2080 C   0  0  0  0  0  2  0  0  0  0  0  0
  188.5720  177.8200  142.3540 C   0  0  2  0  0  3  0  0  0  0  0  0
  189.2360  176.3780  144.4580 F   0  0  0  0  0  0  0  0  0  0  0  0
  190.2210  176.3460  138.1690 N   0  0  0  0  0  2  0  0  0  0  0  0
  191.7680  177.1280  139.9260 C   0  0  0  0  0  2  0  0  0  0  0  0
  188.6040  176.4090  142.2330 O   0  0  0  0  0  0  0  0  0  0  0  0
  184.6510  178.6430  139.6720 C   0  0  0  0  0  2  0  0  0  0  0  0
  185.2820  178.7290  138.2760 C   0  0  0  0  0  2  0  0  0  0  0  0
  190.3170  176.9680  139.4860 C   0  0  1  0  0  3  0  0  0  0  0  0
  187.6750  178.4280  141.2470 C   0  0  2  0  0  3  0  0  0  0  0  0
  190.8840  176.1850  142.7480 C   0  0  0  0  0  2  0  0  0  0  0  0
  187.8780  176.8490  137.5510 C   0  0  1  0  0  3  0  0  0  0  0  0
  189.3220  174.5030  143.2180 F   0  0  0  0  0  0  0  0  0  0  0  0
  185.5210  179.2520  140.7600 C   0  0  0  0  0  2  0  0  0  0  0  0
  186.2340  178.1930  141.4670 N   0  0  0  0  0  0  0  0  0  0  0  0
  188.8800  175.7780  138.0130 C   0  0  0  0  0  2  0  0  0  0  0  0
  186.4360  177.2110  135.5010 C   0  0  0  0  0  2  0  0  0  0  0  0
  186.8760  176.2210  136.5770 C   0  0  2  0  0  3  0  0  0  0  0  0
  185.7150  175.5540  137.2740 C   0  0  0  0  0  3  0  0  0  0  0  0
  183.4810  174.8460  137.4330 O   0  0  0  0  0  1  0  0  0  0  0  0
  184.1460  176.2190  135.4610 C   0  0  0  0  0  2  0  0  0  0  0  0
  184.4880  175.5090  136.7450 C   0  0  0  0  0  0  0  0  0  0  0  0
  185.3780  176.5560  134.6230 C   0  0  0  0  0  2  0  0  0  0  0  0
  185.8910  178.3840  142.8790 C   0  0  0  0  0  2  0  0  0  0  0  0
  184.5780  179.1610  143.0480 C   0  0  1  0  0  3  0  0  0  0  0  0
  182.0910  179.0480  143.2180 C   0  0  0  0  0  1  0  0  0  0  0  0
  183.3600  178.2520  142.9790 C   0  0  0  0  0  2  0  0  0  0  0  0
  184.5560  179.9560  144.3450 C   0  0  0  0  0  2  0  0  0  0  0  0
  185.2730  179.2040  145.4510 C   0  0  0  0  0  2  0  0  0  0  0  0
  184.3450  178.6630  146.3410 O   0  0  0  0  0  1  0  0  0  0  0  0
  1 20  1  0  0  0  0
  1 10  1  0  0  0  0
  4  8  1  6  0  0  0
  4 18  1  0  0  0  0
  5  2  1  6  0  0  0
  5 17  1  0  0  0  0
  6  9  1  0  0  0  0
  6  4  1  0  0  0  0
  7  3  1  6  0  0  0
  7  5  1  0  0  0  0
  9 13  1  6  0  0  0
 11 16  1  0  0  0  0
 12  8  1  0  0  0  0
 13  1  1  0  0  0  0
 14 21  1  0  0  0  0
 15  3  1  0  0  0  0
 15 14  1  0  0  0  0
 16  2  1  6  0  0  0
 16 12  1  0  0  0  0
 17 22  1  1  0  0  0
 17  9  1  0  0  0  0
 18  1  1  0  0  0  0
 19 23  1  1  0  0  0
 19  7  1  0  0  0  0
 21 22  1  0  0  0  0
 22 31  1  0  0  0  0
 23 11  1  0  0  0  0
 25 24  1  6  0  0  0
 25 26  1  0  0  0  0
 25 19  1  0  0  0  0
 28 29  1  0  0  0  0
 29 26  2  0  0  0  0
 29 27  1  0  0  0  0
 30 28  1  0  0  0  0
 30 24  1  0  0  0  0
 32 31  1  1  0  0  0
 32 35  1  0  0  0  0
 34 32  1  0  0  0  0
 34 33  1  0  0  0  0
 35 36  1  0  0  0  0
 36 37  1  0  0  0  0
M  END
>  <MODEL>
4

>  <REMARK>
 VINA RESULT:      -6.8      2.816      4.962
  Name = 
  6 active torsions:
  status: ('A' for Active; 'I' for Inactive)
    1  A    between atoms: C_1  and  C_4
    2  A    between atoms: C_1  and  N_27
    3  A    between atoms: C_4  and  C_12
    4  A    between atoms: C_4  and  C_37
    5  A    between atoms: C_8  and  C_12
    6  A    between atoms: C_23  and  C_30
                            x       y       z     vdW  Elec       q    Type
                         _______ _______ _______ _____ _____    ______ ____

>  <TORSDO>
F 6

$$$$
=
 OpenBabel11122411453D

 37 41  0  0  1  0  0  0  0  0999 V2000
  182.3050  175.5200  137.7710 C   0  0  0  0  0  0  0  0  0  0  0  0
  184.0030  179.3810  139.0100 C   0  0  0  0  0  2  0  0  0  0  0  0
  187.0340  179.2230  139.9000 O   0  0  0  0  0  0  0  0  0  0  0  0
  181.8560  177.8580  137.0560 C   0  0  2  0  0  3  0  0  0  0  0  0
  184.9900  178.2440  139.1430 C   0  0  2  0  0  3  0  0  0  0  0  0
  183.2330  177.8850  136.6930 O   0  0  0  0  0  0  0  0  0  0  0  0
  185.9850  178.3870  140.3010 C   0  0  2  0  0  3  0  0  0  0  0  0
  181.3790  179.1990  137.6320 C   0  0  0  0  0  2  0  0  0  0  0  0
  184.0840  176.8870  137.2570 C   0  0  2  0  0  3  0  0  0  0  0  0
  182.4600  174.9490  136.5130 F   0  0  0  0  0  0  0  0  0  0  0  0
  182.8950  179.2610  141.1760 N   0  0  0  0  0  2  0  0  0  0  0  0
  181.4750  179.3700  139.1600 C   0  0  0  0  0  2  0  0  0  0  0  0
  183.5010  176.0650  138.2520 O   0  0  0  0  0  0  0  0  0  0  0  0
  188.4640  177.3290  139.2230 C   0  0  0  0  0  2  0  0  0  0  0  0
  188.2330  178.5310  140.1490 C   0  0  0  0  0  2  0  0  0  0  0  0
  182.7880  178.8900  139.7680 C   0  0  1  0  0  3  0  0  0  0  0  0
  185.3620  177.5650  137.8110 C   0  0  2  0  0  3  0  0  0  0  0  0
  181.2790  176.6180  137.7350 C   0  0  0  0  0  2  0  0  0  0  0  0
  185.3110  178.9230  141.5980 C   0  0  1  0  0  3  0  0  0  0  0  0
  181.8740  174.5430  138.6470 F   0  0  0  0  0  0  0  0  0  0  0  0
  187.7140  177.4380  137.9050 C   0  0  0  0  0  2  0  0  0  0  0  0
  186.4980  176.6340  137.9660 N   0  0  0  0  0  0  0  0  0  0  0  0
  183.8840  178.3920  141.8190 C   0  0  0  0  0  2  0  0  0  0  0  0
  186.6910  177.2480  142.9020 C   0  0  0  0  0  2  0  0  0  0  0  0
  186.1460  178.6730  142.8580 C   0  0  2  0  0  3  0  0  0  0  0  0
  185.4310  179.0710  144.1270 C   0  0  0  0  0  3  0  0  0  0  0  0
  184.9460  178.8780  146.4170 O   0  0  0  0  0  1  0  0  0  0  0  0
  186.4640  177.1910  145.3870 C   0  0  0  0  0  2  0  0  0  0  0  0
  185.6140  178.4290  145.2860 C   0  0  0  0  0  0  0  0  0  0  0  0
  187.4330  177.0390  144.2150 C   0  0  0  0  0  2  0  0  0  0  0  0
  186.5830  175.7310  136.8150 C   0  0  0  0  0  2  0  0  0  0  0  0
  187.3390  174.4390  137.1590 C   0  0  1  0  0  3  0  0  0  0  0  0
  185.2450  173.3520  136.3460 C   0  0  0  0  0  1  0  0  0  0  0  0
  186.4020  173.2510  137.3210 C   0  0  0  0  0  2  0  0  0  0  0  0
  188.4060  174.1170  136.1220 C   0  0  0  0  0  2  0  0  0  0  0  0
  189.7740  174.5690  136.5990 C   0  0  0  0  0  2  0  0  0  0  0  0
  190.2550  173.6930  137.5720 O   0  0  0  0  0  1  0  0  0  0  0  0
  1 13  1  0  0  0  0
  1 20  1  0  0  0  0
  3 15  1  0  0  0  0
  4  8  1  1  0  0  0
  4 18  1  0  0  0  0
  5  2  1  6  0  0  0
  5  7  1  0  0  0  0
  6  4  1  0  0  0  0
  7  3  1  6  0  0  0
  7 19  1  0  0  0  0
  8 12  1  0  0  0  0
  9  6  1  1  0  0  0
  9 17  1  0  0  0  0
  9 13  1  0  0  0  0
 10  1  1  0  0  0  0
 11 23  1  0  0  0  0
 12 16  1  0  0  0  0
 14 15  1  0  0  0  0
 16  2  1  6  0  0  0
 16 11  1  0  0  0  0
 17 22  1  1  0  0  0
 17  5  1  0  0  0  0
 18  1  1  0  0  0  0
 19 23  1  1  0  0  0
 19 25  1  0  0  0  0
 21 22  1  0  0  0  0
 21 14  1  0  0  0  0
 24 30  1  0  0  0  0
 25 24  1  1  0  0  0
 25 26  1  0  0  0  0
 26 29  2  0  0  0  0
 29 28  1  0  0  0  0
 29 27  1  0  0  0  0
 30 28  1  0  0  0  0
 31 32  1  0  0  0  0
 31 22  1  0  0  0  0
 32 35  1  6  0  0  0
 32 34  1  0  0  0  0
 33 34  1  0  0  0  0
 35 36  1  0  0  0  0
 36 37  1  0  0  0  0
M  END
>  <MODEL>
5

>  <REMARK>
 VINA RESULT:      -6.5      2.954      6.646
  Name = 
  6 active torsions:
  status: ('A' for Active; 'I' for Inactive)
    1  A    between atoms: C_1  and  C_4
    2  A    between atoms: C_1  and  N_27
    3  A    between atoms: C_4  and  C_12
    4  A    between atoms: C_4  and  C_37
    5  A    between atoms: C_8  and  C_12
    6  A    between atoms: C_23  and  C_30
                            x       y       z     vdW  Elec       q    Type
                         _______ _______ _______ _____ _____    ______ ____

>  <TORSDO>
F 6

$$$$
=
 OpenBabel11122411453D

 37 41  0  0  1  0  0  0  0  0999 V2000
  189.9560  176.1090  143.0050 C   0  0  0  0  0  0  0  0  0  0  0  0
  189.7110  178.0560  139.0700 C   0  0  0  0  0  2  0  0  0  0  0  0
  186.7540  178.6280  138.1040 O   0  0  0  0  0  0  0  0  0  0  0  0
  191.4500  177.7090  141.8270 C   0  0  2  0  0  3  0  0  0  0  0  0
  188.3500  177.7610  139.6570 C   0  0  2  0  0  3  0  0  0  0  0  0
  190.3190  178.5740  141.8210 O   0  0  0  0  0  0  0  0  0  0  0  0
  187.2630  177.4330  138.6280 C   0  0  2  0  0  3  0  0  0  0  0  0
  192.2800  177.8250  140.5410 C   0  0  0  0  0  2  0  0  0  0  0  0
  189.0370  177.9880  142.0440 C   0  0  2  0  0  3  0  0  0  0  0  0
  189.8740  176.7670  144.2250 F   0  0  0  0  0  0  0  0  0  0  0  0
  190.1600  175.9590  137.9180 N   0  0  0  0  0  2  0  0  0  0  0  0
  191.9190  176.8600  139.3960 C   0  0  0  0  0  2  0  0  0  0  0  0
  189.0030  176.5730  142.0910 O   0  0  0  0  0  0  0  0  0  0  0  0
  184.8790  178.6910  139.7070 C   0  0  0  0  0  2  0  0  0  0  0  0
  185.3560  178.5840  138.2530 C   0  0  0  0  0  2  0  0  0  0  0  0
  190.4240  176.7220  139.1330 C   0  0  1  0  0  3  0  0  0  0  0  0
  188.0480  178.5080  140.9710 C   0  0  2  0  0  3  0  0  0  0  0  0
  191.3150  176.2950  142.3880 C   0  0  0  0  0  2  0  0  0  0  0  0
  187.7830  176.5040  137.4920 C   0  0  1  0  0  3  0  0  0  0  0  0
  189.7520  174.7590  143.2180 F   0  0  0  0  0  0  0  0  0  0  0  0
  185.8860  179.3780  140.6170 C   0  0  0  0  0  2  0  0  0  0  0  0
  186.6320  178.3730  141.3680 N   0  0  0  0  0  0  0  0  0  0  0  0
  188.7900  175.4440  137.9720 C   0  0  0  0  0  2  0  0  0  0  0  0
  186.1940  176.6640  135.5270 C   0  0  0  0  0  2  0  0  0  0  0  0
  186.6580  175.8190  136.7110 C   0  0  2  0  0  3  0  0  0  0  0  0
  185.5200  175.3650  137.5930 C   0  0  0  0  0  3  0  0  0  0  0  0
  183.2650  174.8770  138.0340 O   0  0  0  0  0  1  0  0  0  0  0  0
  183.8460  175.8710  135.8230 C   0  0  0  0  0  2  0  0  0  0  0  0
  184.2500  175.3410  137.1740 C   0  0  0  0  0  0  0  0  0  0  0  0
  185.0200  175.9710  134.8490 C   0  0  0  0  0  2  0  0  0  0  0  0
  186.4540  178.7430  142.7740 C   0  0  0  0  0  2  0  0  0  0  0  0
  185.6830  177.6690  143.5550 C   0  0  1  0  0  3  0  0  0  0  0  0
  187.0470  177.8700  145.6340 C   0  0  0  0  0  1  0  0  0  0  0  0
  186.5700  176.9290  144.5440 C   0  0  0  0  0  2  0  0  0  0  0  0
  184.4780  178.2530  144.2780 C   0  0  0  0  0  2  0  0  0  0  0  0
  183.4940  178.8530  143.2910 C   0  0  0  0  0  2  0  0  0  0  0  0
  182.2350  178.9650  143.8790 O   0  0  0  0  0  1  0  0  0  0  0  0
  1 20  1  0  0  0  0
  1 10  1  0  0  0  0
  3 15  1  0  0  0  0
  4  8  1  6  0  0  0
  4 18  1  0  0  0  0
  5  2  1  6  0  0  0
  5 17  1  0  0  0  0
  6  4  1  0  0  0  0
  7  3  1  6  0  0  0
  7  5  1  0  0  0  0
  9  6  1  6  0  0  0
  9 13  1  0  0  0  0
 11 23  1  0  0  0  0
 11 16  1  0  0  0  0
 12  8  1  0  0  0  0
 13  1  1  0  0  0  0
 14 21  1  0  0  0  0
 15 14  1  0  0  0  0
 16  2  1  6  0  0  0
 16 12  1  0  0  0  0
 17 22  1  1  0  0  0
 17  9  1  0  0  0  0
 18  1  1  0  0  0  0
 19 23  1  1  0  0  0
 19  7  1  0  0  0  0
 21 22  1  0  0  0  0
 22 31  1  0  0  0  0
 25 24  1  6  0  0  0
 25 19  1  0  0  0  0
 25 26  1  0  0  0  0
 28 29  1  0  0  0  0
 29 26  2  0  0  0  0
 29 27  1  0  0  0  0
 30 24  1  0  0  0  0
 30 28  1  0  0  0  0
 32 31  1  1  0  0  0
 32 35  1  0  0  0  0
 32 34  1  0  0  0  0
 34 33  1  0  0  0  0
 36 37  1  0  0  0  0
 36 35  1  0  0  0  0
M  END
>  <MODEL>
6

>  <REMARK>
 VINA RESULT:      -6.3      2.726      4.756
  Name = 
  6 active torsions:
  status: ('A' for Active; 'I' for Inactive)
    1  A    between atoms: C_1  and  C_4
    2  A    between atoms: C_1  and  N_27
    3  A    between atoms: C_4  and  C_12
    4  A    between atoms: C_4  and  C_37
    5  A    between atoms: C_8  and  C_12
    6  A    between atoms: C_23  and  C_30
                            x       y       z     vdW  Elec       q    Type
                         _______ _______ _______ _____ _____    ______ ____

>  <TORSDO>
F 6

$$$$
=
 OpenBabel11122411453D

 37 41  0  0  1  0  0  0  0  0999 V2000
  189.5790  176.5430  142.2260 C   0  0  0  0  0  0  0  0  0  0  0  0
  189.3280  177.2620  137.8950 C   0  0  0  0  0  2  0  0  0  0  0  0
  186.3700  177.5370  136.8100 O   0  0  0  0  0  0  0  0  0  0  0  0
  191.0730  177.7270  140.6310 C   0  0  2  0  0  3  0  0  0  0  0  0
  187.9680  177.1550  138.5450 C   0  0  2  0  0  3  0  0  0  0  0  0
  189.9450  178.5560  140.3750 O   0  0  0  0  0  0  0  0  0  0  0  0
  186.8770  176.5440  137.6580 C   0  0  2  0  0  3  0  0  0  0  0  0
  191.9010  177.4610  139.3650 C   0  0  0  0  0  2  0  0  0  0  0  0
  188.6620  178.0650  140.7610 C   0  0  2  0  0  3  0  0  0  0  0  0
  189.5010  177.5290  143.2020 F   0  0  0  0  0  0  0  0  0  0  0  0
  189.7690  174.9180  137.4020 N   0  0  0  0  0  2  0  0  0  0  0  0
  191.5340  176.2050  138.5510 C   0  0  0  0  0  2  0  0  0  0  0  0
  188.6240  176.7240  141.2180 O   0  0  0  0  0  0  0  0  0  0  0  0
  184.5000  178.0700  138.3280 C   0  0  0  0  0  2  0  0  0  0  0  0
  184.9720  177.5430  136.9670 C   0  0  0  0  0  2  0  0  0  0  0  0
  190.0380  176.0020  138.3430 C   0  0  1  0  0  3  0  0  0  0  0  0
  187.6710  178.2530  139.5850 C   0  0  2  0  0  3  0  0  0  0  0  0
  190.9360  176.5380  141.5790 C   0  0  0  0  0  2  0  0  0  0  0  0
  187.3930  175.3240  136.8400 C   0  0  1  0  0  3  0  0  0  0  0  0
  189.3710  175.3150  142.8230 F   0  0  0  0  0  0  0  0  0  0  0  0
  185.5110  178.9890  138.9960 C   0  0  0  0  0  2  0  0  0  0  0  0
  186.2560  178.2440  140.0060 N   0  0  0  0  0  0  0  0  0  0  0  0
  188.3980  174.4460  137.6070 C   0  0  0  0  0  2  0  0  0  0  0  0
  185.2970  174.0150  137.3960 C   0  0  0  0  0  2  0  0  0  0  0  0
  186.2640  174.4440  136.2940 C   0  0  2  0  0  3  0  0  0  0  0  0
  186.7660  173.2860  135.4670 C   0  0  0  0  0  3  0  0  0  0  0  0
  186.6430  171.1030  134.6100 O   0  0  0  0  0  1  0  0  0  0  0  0
  184.9350  171.8120  136.2820 C   0  0  0  0  0  2  0  0  0  0  0  0
  186.1360  172.1070  135.4220 C   0  0  0  0  0  0  0  0  0  0  0  0
  184.2550  173.0760  136.8060 C   0  0  0  0  0  2  0  0  0  0  0  0
  186.0820  179.0080  141.2450 C   0  0  0  0  0  2  0  0  0  0  0  0
  185.2170  178.2540  142.2650 C   0  0  1  0  0  3  0  0  0  0  0  0
  186.5040  177.4100  144.2290 C   0  0  0  0  0  1  0  0  0  0  0  0
  185.6400  178.5380  143.6980 C   0  0  0  0  0  2  0  0  0  0  0  0
  183.7380  178.5670  142.0920 C   0  0  0  0  0  2  0  0  0  0  0  0
  183.1210  179.0020  143.4080 C   0  0  0  0  0  2  0  0  0  0  0  0
  181.7710  179.3000  143.2270 O   0  0  0  0  0  1  0  0  0  0  0  0
  1 20  1  0  0  0  0
  1 10  1  0  0  0  0
  3 15  1  0  0  0  0
  4  8  1  6  0  0  0
  4 18  1  0  0  0  0
  5  2  1  6  0  0  0
  5 17  1  0  0  0  0
  6  4  1  0  0  0  0
  7  3  1  6  0  0  0
  7  5  1  0  0  0  0
  9  6  1  6  0  0  0
  9 13  1  0  0  0  0
 11 23  1  0  0  0  0
 11 16  1  0  0  0  0
 12  8  1  0  0  0  0
 13  1  1  0  0  0  0
 14 21  1  0  0  0  0
 15 14  1  0  0  0  0
 16  2  1  6  0  0  0
 16 12  1  0  0  0  0
 17 22  1  1  0  0  0
 17  9  1  0  0  0  0
 18  1  1  0  0  0  0
 19 23  1  1  0  0  0
 19  7  1  0  0  0  0
 21 22  1  0  0  0  0
 22 31  1  0  0  0  0
 25 26  1  1  0  0  0
 25 19  1  0  0  0  0
 25 24  1  0  0  0  0
 27 29  1  0  0  0  0
 28 30  1  0  0  0  0
 29 26  2  0  0  0  0
 29 28  1  0  0  0  0
 30 24  1  0  0  0  0
 32 31  1  6  0  0  0
 32 34  1  0  0  0  0
 34 33  1  0  0  0  0
 35 32  1  0  0  0  0
 35 36  1  0  0  0  0
 37 36  1  0  0  0  0
M  END
>  <MODEL>
7

>  <REMARK>
 VINA RESULT:      -6.3      3.006      5.069
  Name = 
  6 active torsions:
  status: ('A' for Active; 'I' for Inactive)
    1  A    between atoms: C_1  and  C_4
    2  A    between atoms: C_1  and  N_27
    3  A    between atoms: C_4  and  C_12
    4  A    between atoms: C_4  and  C_37
    5  A    between atoms: C_8  and  C_12
    6  A    between atoms: C_23  and  C_30
                            x       y       z     vdW  Elec       q    Type
                         _______ _______ _______ _____ _____    ______ ____

>  <TORSDO>
F 6

$$$$
=
 OpenBabel11122411453D

 37 41  0  0  1  0  0  0  0  0999 V2000
  182.7910  175.7820  138.1020 C   0  0  0  0  0  0  0  0  0  0  0  0
  185.2220  179.3940  138.7150 C   0  0  0  0  0  2  0  0  0  0  0  0
  188.3200  178.9460  138.2660 O   0  0  0  0  0  0  0  0  0  0  0  0
  182.3260  178.1990  137.7510 C   0  0  2  0  0  3  0  0  0  0  0  0
  186.0590  178.1830  138.3740 C   0  0  2  0  0  3  0  0  0  0  0  0
  183.4310  178.1580  136.8540 O   0  0  0  0  0  0  0  0  0  0  0  0
  187.4470  178.1560  139.0240 C   0  0  2  0  0  3  0  0  0  0  0  0
  182.2600  179.5170  138.5360 C   0  0  0  0  0  2  0  0  0  0  0  0
  184.3340  177.0590  136.9670 C   0  0  2  0  0  3  0  0  0  0  0  0
  182.3630  175.3110  136.8670 F   0  0  0  0  0  0  0  0  0  0  0  0
  185.0850  179.1700  141.1370 N   0  0  0  0  0  2  0  0  0  0  0  0
  182.9860  179.5500  139.8940 C   0  0  0  0  0  2  0  0  0  0  0  0
  184.1270  176.1980  138.0730 O   0  0  0  0  0  0  0  0  0  0  0  0
  189.1550  177.0200  136.9690 C   0  0  0  0  0  2  0  0  0  0  0  0
  189.4420  178.1520  137.9640 C   0  0  0  0  0  2  0  0  0  0  0  0
  184.3780  178.9280  139.8820 C   0  0  1  0  0  3  0  0  0  0  0  0
  185.7870  177.5950  136.9760 C   0  0  2  0  0  3  0  0  0  0  0  0
  181.9540  176.9500  138.5470 C   0  0  0  0  0  2  0  0  0  0  0  0
  187.4160  178.6260  140.5080 C   0  0  1  0  0  3  0  0  0  0  0  0
  182.6580  174.7680  139.0300 F   0  0  0  0  0  0  0  0  0  0  0  0
  187.9490  177.2940  136.0850 C   0  0  0  0  0  2  0  0  0  0  0  0
  186.7890  176.5760  136.6040 N   0  0  0  0  0  0  0  0  0  0  0  0
  186.1570  178.1810  141.2710 C   0  0  0  0  0  2  0  0  0  0  0  0
  189.1820  176.8450  140.8570 C   0  0  0  0  0  2  0  0  0  0  0  0
  188.6620  178.2120  141.2970 C   0  0  2  0  0  3  0  0  0  0  0  0
  188.4750  178.3180  142.7920 C   0  0  0  0  0  3  0  0  0  0  0  0
  188.8830  177.6760  145.0130 O   0  0  0  0  0  1  0  0  0  0  0  0
  189.9030  176.3190  143.1880 C   0  0  0  0  0  2  0  0  0  0  0  0
  189.0780  177.4910  143.6520 C   0  0  0  0  0  0  0  0  0  0  0  0
  190.3620  176.4540  141.7370 C   0  0  0  0  0  2  0  0  0  0  0  0
  186.3090  175.7690  135.4780 C   0  0  0  0  0  2  0  0  0  0  0  0
  186.4880  174.2660  135.7350 C   0  0  1  0  0  3  0  0  0  0  0  0
  188.8150  173.4420  136.0960 C   0  0  0  0  0  1  0  0  0  0  0  0
  187.7370  173.7130  135.0650 C   0  0  0  0  0  2  0  0  0  0  0  0
  186.5150  173.9470  137.2230 C   0  0  0  0  0  2  0  0  0  0  0  0
  185.3870  173.0020  137.5930 C   0  0  0  0  0  2  0  0  0  0  0  0
  184.4340  172.9740  136.5750 O   0  0  0  0  0  1  0  0  0  0  0  0
  1 18  1  0  0  0  0
  1 20  1  0  0  0  0
  4  8  1  1  0  0  0
  4 18  1  0  0  0  0
  5  2  1  6  0  0  0
  5  7  1  0  0  0  0
  6  4  1  0  0  0  0
  7  3  1  6  0  0  0
  7 19  1  0  0  0  0
  8 12  1  0  0  0  0
  9  6  1  1  0  0  0
  9 17  1  0  0  0  0
  9 13  1  0  0  0  0
 10  1  1  0  0  0  0
 11 23  1  0  0  0  0
 13  1  1  0  0  0  0
 14 15  1  0  0  0  0
 15  3  1  0  0  0  0
 16  2  1  6  0  0  0
 16 12  1  0  0  0  0
 16 11  1  0  0  0  0
 17 22  1  1  0  0  0
 17  5  1  0  0  0  0
 19 23  1  1  0  0  0
 19 25  1  0  0  0  0
 21 22  1  0  0  0  0
 21 14  1  0  0  0  0
 24 30  1  0  0  0  0
 25 24  1  1  0  0  0
 25 26  1  0  0  0  0
 26 29  2  0  0  0  0
 28 29  1  0  0  0  0
 29 27  1  0  0  0  0
 30 28  1  0  0  0  0
 31 32  1  0  0  0  0
 31 22  1  0  0  0  0
 32 34  1  1  0  0  0
 32 35  1  0  0  0  0
 34 33  1  0  0  0  0
 35 36  1  0  0  0  0
 37 36  1  0  0  0  0
M  END
>  <MODEL>
8

>  <REMARK>
 VINA RESULT:      -6.3      2.646      7.196
  Name = 
  6 active torsions:
  status: ('A' for Active; 'I' for Inactive)
    1  A    between atoms: C_1  and  C_4
    2  A    between atoms: C_1  and  N_27
    3  A    between atoms: C_4  and  C_12
    4  A    between atoms: C_4  and  C_37
    5  A    between atoms: C_8  and  C_12
    6  A    between atoms: C_23  and  C_30
                            x       y       z     vdW  Elec       q    Type
                         _______ _______ _______ _____ _____    ______ ____

>  <TORSDO>
F 6

$$$$
=
 OpenBabel11122411453D

 37 41  0  0  1  0  0  0  0  0999 V2000
  189.0260  177.1700  140.2860 C   0  0  0  0  0  0  0  0  0  0  0  0
  189.0900  175.6240  136.1710 C   0  0  0  0  0  2  0  0  0  0  0  0
  186.2200  175.0620  134.9670 O   0  0  0  0  0  0  0  0  0  0  0  0
  190.5780  177.5350  138.3790 C   0  0  2  0  0  3  0  0  0  0  0  0
  187.6890  175.7330  136.7280 C   0  0  2  0  0  3  0  0  0  0  0  0
  189.4300  178.0250  137.6940 O   0  0  0  0  0  0  0  0  0  0  0  0
  186.7090  174.6690  136.2190 C   0  0  2  0  0  3  0  0  0  0  0  0
  191.5190  176.7510  137.4530 C   0  0  0  0  0  2  0  0  0  0  0  0
  188.1490  177.6780  138.2190 C   0  0  2  0  0  3  0  0  0  0  0  0
  188.8150  178.4990  140.6330 F   0  0  0  0  0  0  0  0  0  0  0  0
  189.6980  173.3930  136.9360 N   0  0  0  0  0  2  0  0  0  0  0  0
  191.2900  175.2300  137.3620 C   0  0  0  0  0  2  0  0  0  0  0  0
  188.1480  176.7430  139.2830 O   0  0  0  0  0  0  0  0  0  0  0  0
  184.2050  176.1100  135.9330 C   0  0  0  0  0  2  0  0  0  0  0  0
  184.8150  175.0210  135.0400 C   0  0  0  0  0  2  0  0  0  0  0  0
  189.8290  174.8190  137.2180 C   0  0  1  0  0  3  0  0  0  0  0  0
  187.2480  177.1710  137.0650 C   0  0  2  0  0  3  0  0  0  0  0  0
  190.4300  176.9660  139.7880 C   0  0  0  0  0  2  0  0  0  0  0  0
  187.3560  173.2550  136.1450 C   0  0  1  0  0  3  0  0  0  0  0  0
  188.8390  176.3870  141.4080 F   0  0  0  0  0  0  0  0  0  0  0  0
  185.1060  177.3240  136.0950 C   0  0  0  0  0  2  0  0  0  0  0  0
  185.8060  177.2460  137.3730 N   0  0  0  0  0  0  0  0  0  0  0  0
  188.3420  172.9650  137.2900 C   0  0  0  0  0  2  0  0  0  0  0  0
  186.0310  171.7290  134.6190 C   0  0  0  0  0  2  0  0  0  0  0  0
  186.3250  172.1250  136.0640 C   0  0  2  0  0  3  0  0  0  0  0  0
  185.0770  172.4080  136.8640 C   0  0  0  0  0  3  0  0  0  0  0  0
  182.7750  172.2400  137.3020 O   0  0  0  0  0  1  0  0  0  0  0  0
  183.6500  171.2450  135.1900 C   0  0  0  0  0  2  0  0  0  0  0  0
  183.8700  171.9670  136.4930 C   0  0  0  0  0  0  0  0  0  0  0  0
  184.9390  170.6680  134.6060 C   0  0  0  0  0  2  0  0  0  0  0  0
  185.4900  178.5050  138.0540 C   0  0  0  0  0  2  0  0  0  0  0  0
  184.6010  178.2810  139.2850 C   0  0  1  0  0  3  0  0  0  0  0  0
  184.5910  178.3570  141.7790 C   0  0  0  0  0  1  0  0  0  0  0  0
  185.1320  178.9990  140.5160 C   0  0  0  0  0  2  0  0  0  0  0  0
  183.1610  178.6990  139.0240 C   0  0  0  0  0  2  0  0  0  0  0  0
  182.2970  177.4910  138.7110 C   0  0  0  0  0  2  0  0  0  0  0  0
  182.8090  176.3600  139.3450 O   0  0  0  0  0  1  0  0  0  0  0  0
  1 10  1  0  0  0  0
  1 20  1  0  0  0  0
  3 15  1  0  0  0  0
  4  8  1  6  0  0  0
  4 18  1  0  0  0  0
  5  2  1  6  0  0  0
  5 17  1  0  0  0  0
  6  4  1  0  0  0  0
  7  3  1  6  0  0  0
  7  5  1  0  0  0  0
  9  6  1  6  0  0  0
  9 13  1  0  0  0  0
 11 16  1  0  0  0  0
 11 23  1  0  0  0  0
 12  8  1  0  0  0  0
 13  1  1  0  0  0  0
 14 21  1  0  0  0  0
 15 14  1  0  0  0  0
 16  2  1  6  0  0  0
 16 12  1  0  0  0  0
 17 22  1  1  0  0  0
 17  9  1  0  0  0  0
 18  1  1  0  0  0  0
 19  7  1  0  0  0  0
 19 23  1  1  0  0  0
 21 22  1  0  0  0  0
 22 31  1  0  0  0  0
 25 24  1  6  0  0  0
 25 19  1  0  0  0  0
 25 26  1  0  0  0  0
 28 29  1  0  0  0  0
 29 26  2  0  0  0  0
 29 27  1  0  0  0  0
 30 24  1  0  0  0  0
 30 28  1  0  0  0  0
 32 31  1  6  0  0  0
 32 34  1  0  0  0  0
 34 33  1  0  0  0  0
 35 32  1  0  0  0  0
 36 35  1  0  0  0  0
 36 37  1  0  0  0  0
M  END
>  <MODEL>
9

>  <REMARK>
 VINA RESULT:      -5.8      3.176      5.581
  Name = 
  6 active torsions:
  status: ('A' for Active; 'I' for Inactive)
    1  A    between atoms: C_1  and  C_4
    2  A    between atoms: C_1  and  N_27
    3  A    between atoms: C_4  and  C_12
    4  A    between atoms: C_4  and  C_37
    5  A    between atoms: C_8  and  C_12
    6  A    between atoms: C_23  and  C_30
                            x       y       z     vdW  Elec       q    Type
                         _______ _______ _______ _____ _____    ______ ____

>  <TORSDO>
F 6

$$$$
