=
 OpenBabel11122411073D

 31 35  0  0  1  0  0  0  0  0999 V2000
  186.5600  177.8210  146.4130 C   0  0  0  0  0  0  0  0  0  0  0  0
  186.9290  178.1710  142.6780 C   0  0  0  0  0  0  0  0  0  0  0  0
  188.2560  177.7600  142.3540 C   0  0  0  0  0  0  0  0  0  0  0  0
  190.4740  176.9290  142.9530 C   0  0  0  0  0  0  0  0  0  0  0  0
  186.3850  178.1870  144.0020 C   0  0  0  0  0  0  0  0  0  0  0  0
  185.2440  178.2460  146.5880 C   0  0  0  0  0  3  0  0  0  0  0  0
  189.1840  177.3220  143.3160 C   0  0  0  0  0  3  0  0  0  0  0  0
  184.7750  179.0120  141.8280 C   0  0  0  0  0  0  0  0  0  0  0  0
  187.2940  177.4350  147.4830 F   0  0  0  0  0  0  0  0  0  0  0  0
  187.8150  178.2040  140.0400 N   0  0  0  0  0  0  0  0  0  0  0  0
  191.6000  176.3890  144.1790 Cl  0  0  0  0  0  0  0  0  0  0  0  0
  184.2670  179.0200  143.1260 C   0  0  0  0  0  3  0  0  0  0  0  0
  186.0960  178.5910  141.6040 C   0  0  0  0  0  0  0  0  0  0  0  0
  187.1200  177.7930  145.1350 C   0  0  0  0  0  3  0  0  0  0  0  0
  190.8640  176.9660  141.6150 C   0  0  0  0  0  3  0  0  0  0  0  0
  185.0470  178.6170  144.2020 C   0  0  0  0  0  0  0  0  0  0  0  0
  184.4900  178.6440  145.4840 C   0  0  0  0  0  3  0  0  0  0  0  0
  186.5750  178.5900  140.3320 N   0  0  0  0  0  0  0  0  0  0  0  0
  188.6710  177.7910  141.0010 C   0  0  0  0  0  0  0  0  0  0  0  0
  189.9630  177.3970  140.6410 C   0  0  0  0  0  3  0  0  0  0  0  0
  183.0250  177.3660  140.1300 O   0  0  0  0  0  0  0  0  0  0  0  0
  183.1310  178.5990  139.8900 C   0  0  0  0  0  0  0  0  0  0  0  0
  183.9700  179.4270  140.7120 N   0  0  0  0  0  2  0  0  0  0  0  0
  180.9200  180.4700  136.6910 C   0  0  1  0  0  3  0  0  0  0  0  0
  182.4700  180.6440  138.6210 C   0  0  0  0  0  2  0  0  0  0  0  0
  181.9430  177.1590  137.7040 O   0  0  0  0  0  0  0  0  0  0  0  0
  179.8210  181.0480  136.0570 O   0  0  0  0  0  1  0  0  0  0  0  0
  181.1940  181.1970  137.9980 C   0  0  0  0  0  2  0  0  0  0  0  0
  181.7010  178.3900  137.8220 C   0  0  0  0  0  0  0  0  0  0  0  0
  182.3910  179.1910  138.8050 N   0  0  0  0  0  0  0  0  0  0  0  0
  180.6350  178.9990  136.9630 C   0  0  0  0  0  2  0  0  0  0  0  0
  1  6  1  0  0  0  0
  1  9  1  0  0  0  0
  2  5  1  0  0  0  0
  3  2  1  0  0  0  0
  3  7  2  0  0  0  0
  4  7  1  0  0  0  0
  4 11  1  0  0  0  0
  5 16  2  0  0  0  0
  5 14  1  0  0  0  0
  8 12  2  0  0  0  0
 10 18  2  0  0  0  0
 10 19  1  0  0  0  0
 12 16  1  0  0  0  0
 13  8  1  0  0  0  0
 13  2  2  0  0  0  0
 14  1  2  0  0  0  0
 15  4  2  0  0  0  0
 16 17  1  0  0  0  0
 17  6  2  0  0  0  0
 18 13  1  0  0  0  0
 19  3  1  0  0  0  0
 20 19  2  0  0  0  0
 20 15  1  0  0  0  0
 22 21  2  0  0  0  0
 22 23  1  0  0  0  0
 23  8  1  0  0  0  0
 24 27  1  1  0  0  0
 24 31  1  0  0  0  0
 24 28  1  0  0  0  0
 25 30  1  0  0  0  0
 26 29  2  0  0  0  0
 28 25  1  0  0  0  0
 29 30  1  0  0  0  0
 30 22  1  0  0  0  0
 31 29  1  0  0  0  0
M  END
>  <MODEL>
1

>  <REMARK>
 VINA RESULT:     -10.8      0.000      0.000
  Name = 
  1 active torsions:
  status: ('A' for Active; 'I' for Inactive)
    1  A    between atoms: C_10  and  N_16
                            x       y       z     vdW  Elec       q    Type
                         _______ _______ _______ _____ _____    ______ ____

>  <TORSDO>
F 1

$$$$
=
 OpenBabel11122411073D

 31 35  0  0  1  0  0  0  0  0999 V2000
  185.2860  178.6640  144.2660 C   0  0  0  0  0  0  0  0  0  0  0  0
  188.8340  177.4670  143.8330 C   0  0  0  0  0  0  0  0  0  0  0  0
  189.3890  177.3370  145.1400 C   0  0  0  0  0  0  0  0  0  0  0  0
  189.2540  177.4850  147.5760 C   0  0  0  0  0  0  0  0  0  0  0  0
  187.4980  177.8990  143.5570 C   0  0  0  0  0  0  0  0  0  0  0  0
  184.8720  178.7450  142.9370 C   0  0  0  0  0  3  0  0  0  0  0  0
  188.6710  177.6260  146.3140 C   0  0  0  0  0  3  0  0  0  0  0  0
  189.2140  177.2370  141.4100 C   0  0  0  0  0  0  0  0  0  0  0  0
  184.4300  178.9910  145.2630 F   0  0  0  0  0  0  0  0  0  0  0  0
  191.4590  176.6080  144.1760 N   0  0  0  0  0  0  0  0  0  0  0  0
  188.3280  177.8540  149.0130 Cl  0  0  0  0  0  0  0  0  0  0  0  0
  187.9090  177.6610  141.1660 C   0  0  0  0  0  3  0  0  0  0  0  0
  189.6750  177.1400  142.7330 C   0  0  0  0  0  0  0  0  0  0  0  0
  186.5830  178.2450  144.5690 C   0  0  0  0  0  3  0  0  0  0  0  0
  190.5750  177.0510  147.6880 C   0  0  0  0  0  3  0  0  0  0  0  0
  187.0560  177.9880  142.2110 C   0  0  0  0  0  0  0  0  0  0  0  0
  185.7560  178.4070  141.9130 C   0  0  0  0  0  3  0  0  0  0  0  0
  190.9510  176.7250  142.9520 N   0  0  0  0  0  0  0  0  0  0  0  0
  190.7280  176.8980  145.2760 C   0  0  0  0  0  0  0  0  0  0  0  0
  191.3100  176.7580  146.5390 C   0  0  0  0  0  3  0  0  0  0  0  0
  188.5470  176.7790  138.5810 O   0  0  0  0  0  0  0  0  0  0  0  0
  189.7450  176.6660  138.9550 C   0  0  0  0  0  0  0  0  0  0  0  0
  190.0990  176.8960  140.3290 N   0  0  0  0  0  2  0  0  0  0  0  0
  192.8970  175.7040  136.1690 C   0  0  1  0  0  3  0  0  0  0  0  0
  192.1650  176.3000  138.4630 C   0  0  0  0  0  2  0  0  0  0  0  0
  189.2970  175.5060  136.3640 O   0  0  0  0  0  0  0  0  0  0  0  0
  193.8520  175.9390  135.1810 O   0  0  0  0  0  1  0  0  0  0  0  0
  193.1310  176.6480  137.3370 C   0  0  0  0  0  2  0  0  0  0  0  0
  190.4600  175.8840  136.6660 C   0  0  0  0  0  0  0  0  0  0  0  0
  190.7720  176.3290  138.0040 N   0  0  0  0  0  0  0  0  0  0  0  0
  191.5050  175.9260  135.5920 C   0  0  0  0  0  2  0  0  0  0  0  0
  1 14  1  0  0  0  0
  1  9  1  0  0  0  0
  2  3  1  0  0  0  0
  3 19  2  0  0  0  0
  3  7  1  0  0  0  0
  4 15  1  0  0  0  0
  4 11  1  0  0  0  0
  5  2  1  0  0  0  0
  5 14  2  0  0  0  0
  6  1  2  0  0  0  0
  7  4  2  0  0  0  0
  8 13  1  0  0  0  0
 10 19  1  0  0  0  0
 12  8  2  0  0  0  0
 12 16  1  0  0  0  0
 13 18  1  0  0  0  0
 13  2  2  0  0  0  0
 16  5  1  0  0  0  0
 17 16  2  0  0  0  0
 17  6  1  0  0  0  0
 18 10  2  0  0  0  0
 19 20  1  0  0  0  0
 20 15  2  0  0  0  0
 21 22  2  0  0  0  0
 22 23  1  0  0  0  0
 23  8  1  0  0  0  0
 24 27  1  6  0  0  0
 24 28  1  0  0  0  0
 26 29  2  0  0  0  0
 28 25  1  0  0  0  0
 29 30  1  0  0  0  0
 30 25  1  0  0  0  0
 30 22  1  0  0  0  0
 31 24  1  0  0  0  0
 31 29  1  0  0  0  0
M  END
>  <MODEL>
2

>  <REMARK>
 VINA RESULT:     -10.4      4.423      6.971
  Name = 
  1 active torsions:
  status: ('A' for Active; 'I' for Inactive)
    1  A    between atoms: C_10  and  N_16
                            x       y       z     vdW  Elec       q    Type
                         _______ _______ _______ _____ _____    ______ ____

>  <TORSDO>
F 1

$$$$
=
 OpenBabel11122411073D

 31 35  0  0  1  0  0  0  0  0999 V2000
  184.5700  178.8910  145.0300 C   0  0  0  0  0  0  0  0  0  0  0  0
  187.9860  177.6610  144.0170 C   0  0  0  0  0  0  0  0  0  0  0  0
  188.7370  177.4920  145.2170 C   0  0  0  0  0  0  0  0  0  0  0  0
  188.9880  177.5800  147.6460 C   0  0  0  0  0  0  0  0  0  0  0  0
  186.6310  178.1170  143.9640 C   0  0  0  0  0  0  0  0  0  0  0  0
  183.9540  179.0110  143.7840 C   0  0  0  0  0  3  0  0  0  0  0  0
  188.2160  177.7590  146.4960 C   0  0  0  0  0  3  0  0  0  0  0  0
  187.9780  177.4890  141.5590 C   0  0  0  0  0  0  0  0  0  0  0  0
  183.8870  179.2040  146.1560 F   0  0  0  0  0  0  0  0  0  0  0  0
  190.6180  176.7610  143.9240 N   0  0  0  0  0  0  0  0  0  0  0  0
  188.3050  177.9230  149.2200 Cl  0  0  0  0  0  0  0  0  0  0  0  0
  186.6580  177.9350  141.5330 C   0  0  0  0  0  3  0  0  0  0  0  0
  188.6390  177.3520  142.7910 C   0  0  0  0  0  0  0  0  0  0  0  0
  185.8920  178.4490  145.1150 C   0  0  0  0  0  3  0  0  0  0  0  0
  190.3030  177.1260  147.5400 C   0  0  0  0  0  3  0  0  0  0  0  0
  185.9850  178.2460  142.7070 C   0  0  0  0  0  0  0  0  0  0  0  0
  184.6610  178.6890  142.6270 C   0  0  0  0  0  3  0  0  0  0  0  0
  189.9270  176.9160  142.7970 N   0  0  0  0  0  0  0  0  0  0  0  0
  190.0740  177.0320  145.1300 C   0  0  0  0  0  0  0  0  0  0  0  0
  190.8440  176.8530  146.2830 C   0  0  0  0  0  3  0  0  0  0  0  0
  187.4240  178.4310  138.8270 O   0  0  0  0  0  0  0  0  0  0  0  0
  188.3780  177.6300  139.0190 C   0  0  0  0  0  0  0  0  0  0  0  0
  188.6770  177.1640  140.3450 N   0  0  0  0  0  2  0  0  0  0  0  0
  190.8970  176.3060  135.7750 C   0  0  1  0  0  3  0  0  0  0  0  0
  190.3480  176.3380  138.1940 C   0  0  0  0  0  2  0  0  0  0  0  0
  187.6530  177.8190  136.2440 O   0  0  0  0  0  0  0  0  0  0  0  0
  191.9290  176.3770  134.8400 O   0  0  0  0  0  1  0  0  0  0  0  0
  191.4570  176.5430  137.1690 C   0  0  0  0  0  2  0  0  0  0  0  0
  188.8220  177.4560  136.5420 C   0  0  0  0  0  0  0  0  0  0  0  0
  189.1920  177.1950  137.9130 N   0  0  0  0  0  0  0  0  0  0  0  0
  189.8450  177.3580  135.4510 C   0  0  0  0  0  2  0  0  0  0  0  0
  1 14  1  0  0  0  0
  1  9  1  0  0  0  0
  2  3  1  0  0  0  0
  3  7  1  0  0  0  0
  4 11  1  0  0  0  0
  5  2  1  0  0  0  0
  5 14  2  0  0  0  0
  6  1  2  0  0  0  0
  7  4  2  0  0  0  0
  8 13  1  0  0  0  0
 10 19  1  0  0  0  0
 12  8  2  0  0  0  0
 12 16  1  0  0  0  0
 13 18  1  0  0  0  0
 13  2  2  0  0  0  0
 15  4  1  0  0  0  0
 16  5  1  0  0  0  0
 17 16  2  0  0  0  0
 17  6  1  0  0  0  0
 18 10  2  0  0  0  0
 19  3  2  0  0  0  0
 19 20  1  0  0  0  0
 20 15  2  0  0  0  0
 21 22  2  0  0  0  0
 22 23  1  0  0  0  0
 23  8  1  0  0  0  0
 24 27  1  6  0  0  0
 24 28  1  0  0  0  0
 26 29  2  0  0  0  0
 28 25  1  0  0  0  0
 29 30  1  0  0  0  0
 30 25  1  0  0  0  0
 30 22  1  0  0  0  0
 31 24  1  0  0  0  0
 31 29  1  0  0  0  0
M  END
>  <MODEL>
3

>  <REMARK>
 VINA RESULT:     -10.4      4.011      5.962
  Name = 
  1 active torsions:
  status: ('A' for Active; 'I' for Inactive)
    1  A    between atoms: C_10  and  N_16
                            x       y       z     vdW  Elec       q    Type
                         _______ _______ _______ _____ _____    ______ ____

>  <TORSDO>
F 1

$$$$
=
 OpenBabel11122411073D

 31 35  0  0  1  0  0  0  0  0999 V2000
  191.3820  177.3220  141.9930 C   0  0  0  0  0  0  0  0  0  0  0  0
  188.1060  177.7030  143.8190 C   0  0  0  0  0  0  0  0  0  0  0  0
  188.3860  177.5430  145.2080 C   0  0  0  0  0  0  0  0  0  0  0  0
  189.9040  177.1400  147.0800 C   0  0  0  0  0  0  0  0  0  0  0  0
  189.0870  177.6300  142.7790 C   0  0  0  0  0  0  0  0  0  0  0  0
  190.9690  177.4990  140.6730 C   0  0  0  0  0  3  0  0  0  0  0  0
  189.6750  177.2910  145.7100 C   0  0  0  0  0  3  0  0  0  0  0  0
  186.3850  178.1250  142.1070 C   0  0  0  0  0  0  0  0  0  0  0  0
  192.6860  177.0870  142.2690 F   0  0  0  0  0  0  0  0  0  0  0  0
  186.0650  177.8800  145.7020 N   0  0  0  0  0  0  0  0  0  0  0  0
  191.5230  176.8290  147.6660 Cl  0  0  0  0  0  0  0  0  0  0  0  0
  187.3570  178.0500  141.1120 C   0  0  0  0  0  3  0  0  0  0  0  0
  186.7550  177.9540  143.4510 C   0  0  0  0  0  0  0  0  0  0  0  0
  190.4490  177.3880  143.0310 C   0  0  0  0  0  3  0  0  0  0  0  0
  188.8430  177.2390  147.9790 C   0  0  0  0  0  3  0  0  0  0  0  0
  188.6880  177.8080  141.4280 C   0  0  0  0  0  0  0  0  0  0  0  0
  189.6240  177.7410  140.3930 C   0  0  0  0  0  3  0  0  0  0  0  0
  185.7920  178.0310  144.4090 N   0  0  0  0  0  0  0  0  0  0  0  0
  187.3220  177.6390  146.1370 C   0  0  0  0  0  0  0  0  0  0  0  0
  187.5540  177.4870  147.5070 C   0  0  0  0  0  3  0  0  0  0  0  0
  185.2820  179.3780  139.6840 O   0  0  0  0  0  0  0  0  0  0  0  0
  184.4950  179.0030  140.5940 C   0  0  0  0  0  0  0  0  0  0  0  0
  185.0070  178.3780  141.7820 N   0  0  0  0  0  2  0  0  0  0  0  0
  180.2200  179.4400  140.1990 C   0  0  1  0  0  3  0  0  0  0  0  0
  182.1890  178.6410  141.4790 C   0  0  0  0  0  2  0  0  0  0  0  0
  183.2300  180.7760  138.7190 O   0  0  0  0  0  0  0  0  0  0  0  0
  178.9310  179.1200  139.7750 O   0  0  0  0  0  1  0  0  0  0  0  0
  180.8330  178.2430  140.9080 C   0  0  0  0  0  2  0  0  0  0  0  0
  182.5110  179.9770  139.3760 C   0  0  0  0  0  0  0  0  0  0  0  0
  183.0730  179.1760  140.4390 N   0  0  0  0  0  0  0  0  0  0  0  0
  181.0700  179.8230  138.9950 C   0  0  0  0  0  2  0  0  0  0  0  0
  1  9  1  0  0  0  0
  1 14  1  0  0  0  0
  2  3  1  0  0  0  0
  3  7  2  0  0  0  0
  3 19  1  0  0  0  0
  4 11  1  0  0  0  0
  4 15  2  0  0  0  0
  5 14  2  0  0  0  0
  5  2  1  0  0  0  0
  6  1  2  0  0  0  0
  7  4  1  0  0  0  0
  8 13  1  0  0  0  0
 10 19  1  0  0  0  0
 12 16  1  0  0  0  0
 12  8  2  0  0  0  0
 13  2  2  0  0  0  0
 13 18  1  0  0  0  0
 16  5  1  0  0  0  0
 17  6  1  0  0  0  0
 17 16  2  0  0  0  0
 18 10  2  0  0  0  0
 19 20  2  0  0  0  0
 20 15  1  0  0  0  0
 21 22  2  0  0  0  0
 22 23  1  0  0  0  0
 23  8  1  0  0  0  0
 24 27  1  6  0  0  0
 24 28  1  0  0  0  0
 26 29  2  0  0  0  0
 28 25  1  0  0  0  0
 29 30  1  0  0  0  0
 30 22  1  0  0  0  0
 30 25  1  0  0  0  0
 31 29  1  0  0  0  0
 31 24  1  0  0  0  0
M  END
>  <MODEL>
4

>  <REMARK>
 VINA RESULT:     -10.4      2.677      4.477
  Name = 
  1 active torsions:
  status: ('A' for Active; 'I' for Inactive)
    1  A    between atoms: C_10  and  N_16
                            x       y       z     vdW  Elec       q    Type
                         _______ _______ _______ _____ _____    ______ ____

>  <TORSDO>
F 1

$$$$
=
 OpenBabel11122411073D

 31 35  0  0  1  0  0  0  0  0999 V2000
  190.2020  176.8830  142.6400 C   0  0  0  0  0  0  0  0  0  0  0  0
  186.7310  178.2530  143.1690 C   0  0  0  0  0  0  0  0  0  0  0  0
  186.4780  178.2080  144.5720 C   0  0  0  0  0  0  0  0  0  0  0  0
  187.1200  177.6970  146.8740 C   0  0  0  0  0  0  0  0  0  0  0  0
  187.9450  177.8200  142.5490 C   0  0  0  0  0  0  0  0  0  0  0  0
  190.3160  176.9850  141.2540 C   0  0  0  0  0  3  0  0  0  0  0  0
  187.4100  177.7240  145.5080 C   0  0  0  0  0  3  0  0  0  0  0  0
  185.8570  178.8500  140.9440 C   0  0  0  0  0  0  0  0  0  0  0  0
  191.2280  176.3830  143.3690 F   0  0  0  0  0  0  0  0  0  0  0  0
  184.3030  179.1420  144.1980 N   0  0  0  0  0  0  0  0  0  0  0  0
  188.3060  177.0880  148.0070 Cl  0  0  0  0  0  0  0  0  0  0  0  0
  187.0490  178.4230  140.3630 C   0  0  0  0  0  3  0  0  0  0  0  0
  185.6970  178.7670  142.3370 C   0  0  0  0  0  0  0  0  0  0  0  0
  189.0300  177.2970  143.2760 C   0  0  0  0  0  3  0  0  0  0  0  0
  185.8850  178.1550  147.3330 C   0  0  0  0  0  3  0  0  0  0  0  0
  188.0820  177.9150  141.1390 C   0  0  0  0  0  0  0  0  0  0  0  0
  189.2580  177.5000  140.5070 C   0  0  0  0  0  3  0  0  0  0  0  0
  184.5280  179.1890  142.8870 N   0  0  0  0  0  0  0  0  0  0  0  0
  185.2300  178.6680  145.0590 C   0  0  0  0  0  0  0  0  0  0  0  0
  184.9430  178.6400  146.4260 C   0  0  0  0  0  3  0  0  0  0  0  0
  183.8060  177.3720  139.4400 O   0  0  0  0  0  0  0  0  0  0  0  0
  183.8020  178.6320  139.4080 C   0  0  0  0  0  0  0  0  0  0  0  0
  184.7860  179.3780  140.1430 N   0  0  0  0  0  2  0  0  0  0  0  0
  180.8030  180.8230  137.2100 C   0  0  1  0  0  3  0  0  0  0  0  0
  182.7730  180.7990  138.7180 C   0  0  0  0  0  2  0  0  0  0  0  0
  182.1680  177.4820  137.3420 O   0  0  0  0  0  0  0  0  0  0  0  0
  179.5610  181.4070  136.9670 O   0  0  0  0  0  1  0  0  0  0  0  0
  181.3630  181.3430  138.5240 C   0  0  0  0  0  2  0  0  0  0  0  0
  181.9160  178.6530  137.7320 C   0  0  0  0  0  0  0  0  0  0  0  0
  182.7970  179.3340  138.6520 N   0  0  0  0  0  0  0  0  0  0  0  0
  180.6490  179.3090  137.2730 C   0  0  0  0  0  2  0  0  0  0  0  0
  1 14  1  0  0  0  0
  1  9  1  0  0  0  0
  2  3  1  0  0  0  0
  3 19  2  0  0  0  0
  3  7  1  0  0  0  0
  4 15  1  0  0  0  0
  4 11  1  0  0  0  0
  5  2  1  0  0  0  0
  5 14  2  0  0  0  0
  6  1  2  0  0  0  0
  7  4  2  0  0  0  0
  8 13  1  0  0  0  0
 10 19  1  0  0  0  0
 12  8  2  0  0  0  0
 12 16  1  0  0  0  0
 13 18  1  0  0  0  0
 13  2  2  0  0  0  0
 16  5  1  0  0  0  0
 17 16  2  0  0  0  0
 17  6  1  0  0  0  0
 18 10  2  0  0  0  0
 19 20  1  0  0  0  0
 20 15  2  0  0  0  0
 22 21  2  0  0  0  0
 22 23  1  0  0  0  0
 23  8  1  0  0  0  0
 24 27  1  1  0  0  0
 24 31  1  0  0  0  0
 24 28  1  0  0  0  0
 26 29  2  0  0  0  0
 28 25  1  0  0  0  0
 29 30  1  0  0  0  0
 30 25  1  0  0  0  0
 30 22  1  0  0  0  0
 31 29  1  0  0  0  0
M  END
>  <MODEL>
5

>  <REMARK>
 VINA RESULT:     -10.3      1.715      3.940
  Name = 
  1 active torsions:
  status: ('A' for Active; 'I' for Inactive)
    1  A    between atoms: C_10  and  N_16
                            x       y       z     vdW  Elec       q    Type
                         _______ _______ _______ _____ _____    ______ ____

>  <TORSDO>
F 1

$$$$
=
 OpenBabel11122411073D

 31 35  0  0  1  0  0  0  0  0999 V2000
  187.4090  178.1150  148.0800 C   0  0  0  0  0  0  0  0  0  0  0  0
  187.8020  177.6050  144.3670 C   0  0  0  0  0  0  0  0  0  0  0  0
  189.1090  177.0740  144.1590 C   0  0  0  0  0  0  0  0  0  0  0  0
  191.2860  176.3020  144.9560 C   0  0  0  0  0  0  0  0  0  0  0  0
  187.2560  177.9410  145.6460 C   0  0  0  0  0  0  0  0  0  0  0  0
  186.1130  178.6270  148.1400 C   0  0  0  0  0  3  0  0  0  0  0  0
  190.0140  176.8220  145.2050 C   0  0  0  0  0  3  0  0  0  0  0  0
  185.6900  178.3280  143.3240 C   0  0  0  0  0  0  0  0  0  0  0  0
  188.1220  177.9470  149.2180 F   0  0  0  0  0  0  0  0  0  0  0  0
  188.6940  177.0080  141.7990 N   0  0  0  0  0  0  0  0  0  0  0  0
  192.3840  176.0020  146.2850 Cl  0  0  0  0  0  0  0  0  0  0  0  0
  185.1800  178.6470  144.5800 C   0  0  0  0  0  3  0  0  0  0  0  0
  186.9910  177.8090  143.2160 C   0  0  0  0  0  0  0  0  0  0  0  0
  187.9700  177.7780  146.8470 C   0  0  0  0  0  3  0  0  0  0  0  0
  191.6800  176.0220  143.6470 C   0  0  0  0  0  3  0  0  0  0  0  0
  185.9380  178.4620  145.7290 C   0  0  0  0  0  0  0  0  0  0  0  0
  185.3810  178.7990  146.9650 C   0  0  0  0  0  3  0  0  0  0  0  0
  187.4720  177.5030  141.9810 N   0  0  0  0  0  0  0  0  0  0  0  0
  189.5280  176.7830  142.8380 C   0  0  0  0  0  0  0  0  0  0  0  0
  190.8020  176.2630  142.5910 C   0  0  0  0  0  3  0  0  0  0  0  0
  182.7720  178.6270  143.0890 O   0  0  0  0  0  0  0  0  0  0  0  0
  183.4780  178.6490  142.0450 C   0  0  0  0  0  0  0  0  0  0  0  0
  184.9070  178.5170  142.1330 N   0  0  0  0  0  2  0  0  0  0  0  0
  181.7200  179.2370  138.1480 C   0  0  1  0  0  3  0  0  0  0  0  0
  183.7260  178.9470  139.5790 C   0  0  0  0  0  2  0  0  0  0  0  0
  180.6880  178.2670  141.4690 O   0  0  0  0  0  0  0  0  0  0  0  0
  181.1770  179.9490  137.0790 O   0  0  0  0  0  1  0  0  0  0  0  0
  183.0860  179.8080  138.4970 C   0  0  0  0  0  2  0  0  0  0  0  0
  181.4290  178.7620  140.5780 C   0  0  0  0  0  0  0  0  0  0  0  0
  182.8600  178.8320  140.7570 N   0  0  0  0  0  0  0  0  0  0  0  0
  180.7910  179.3390  139.3490 C   0  0  0  0  0  2  0  0  0  0  0  0
  1  6  1  0  0  0  0
  1  9  1  0  0  0  0
  2  5  1  0  0  0  0
  3  2  1  0  0  0  0
  3  7  2  0  0  0  0
  4  7  1  0  0  0  0
  4 11  1  0  0  0  0
  5 16  2  0  0  0  0
  5 14  1  0  0  0  0
  8 12  2  0  0  0  0
 10 18  2  0  0  0  0
 10 19  1  0  0  0  0
 12 16  1  0  0  0  0
 13  8  1  0  0  0  0
 13  2  2  0  0  0  0
 14  1  2  0  0  0  0
 15  4  2  0  0  0  0
 16 17  1  0  0  0  0
 17  6  2  0  0  0  0
 18 13  1  0  0  0  0
 19  3  1  0  0  0  0
 20 19  2  0  0  0  0
 20 15  1  0  0  0  0
 22 23  1  0  0  0  0
 22 21  2  0  0  0  0
 23  8  1  0  0  0  0
 24 27  1  6  0  0  0
 24 28  1  0  0  0  0
 24 31  1  0  0  0  0
 25 30  1  0  0  0  0
 28 25  1  0  0  0  0
 29 30  1  0  0  0  0
 29 26  2  0  0  0  0
 30 22  1  0  0  0  0
 31 29  1  0  0  0  0
M  END
>  <MODEL>
6

>  <REMARK>
 VINA RESULT:     -10.0      1.672      2.256
  Name = 
  1 active torsions:
  status: ('A' for Active; 'I' for Inactive)
    1  A    between atoms: C_10  and  N_16
                            x       y       z     vdW  Elec       q    Type
                         _______ _______ _______ _____ _____    ______ ____

>  <TORSDO>
F 1

$$$$
=
 OpenBabel11122411073D

 31 35  0  0  1  0  0  0  0  0999 V2000
  190.2050  177.1280  147.1490 C   0  0  0  0  0  0  0  0  0  0  0  0
  188.3960  177.4570  143.8590 C   0  0  0  0  0  0  0  0  0  0  0  0
  187.0860  177.9370  144.1540 C   0  0  0  0  0  0  0  0  0  0  0  0
  185.3480  178.6770  145.7040 C   0  0  0  0  0  0  0  0  0  0  0  0
  189.4050  177.1960  144.8390 C   0  0  0  0  0  0  0  0  0  0  0  0
  191.4470  176.6600  146.7200 C   0  0  0  0  0  3  0  0  0  0  0  0
  186.6410  178.2080  145.4600 C   0  0  0  0  0  3  0  0  0  0  0  0
  189.9770  176.7530  142.1060 C   0  0  0  0  0  0  0  0  0  0  0  0
  189.9760  177.3260  148.4690 F   0  0  0  0  0  0  0  0  0  0  0  0
  186.5620  177.9080  141.8160 N   0  0  0  0  0  0  0  0  0  0  0  0
  184.8310  179.0030  147.3440 Cl  0  0  0  0  0  0  0  0  0  0  0  0
  190.9440  176.5060  143.0790 C   0  0  0  0  0  3  0  0  0  0  0  0
  188.7120  177.2250  142.4910 C   0  0  0  0  0  0  0  0  0  0  0  0
  189.2000  177.3910  146.2170 C   0  0  0  0  0  3  0  0  0  0  0  0
  184.4700  178.8850  144.6400 C   0  0  0  0  0  3  0  0  0  0  0  0
  190.6760  176.7200  144.4240 C   0  0  0  0  0  0  0  0  0  0  0  0
  191.6810  176.4570  145.3610 C   0  0  0  0  0  3  0  0  0  0  0  0
  187.7810  177.4600  141.5290 N   0  0  0  0  0  0  0  0  0  0  0  0
  186.1790  178.1540  143.0880 C   0  0  0  0  0  0  0  0  0  0  0  0
  184.8860  178.6230  143.3350 C   0  0  0  0  0  3  0  0  0  0  0  0
  192.5460  177.0020  140.6930 O   0  0  0  0  0  0  0  0  0  0  0  0
  191.5170  176.6740  140.0430 C   0  0  0  0  0  0  0  0  0  0  0  0
  190.2530  176.5340  140.7120 N   0  0  0  0  0  2  0  0  0  0  0  0
  191.6940  175.8280  135.8150 C   0  0  1  0  0  3  0  0  0  0  0  0
  190.4050  175.9420  137.9320 C   0  0  0  0  0  2  0  0  0  0  0  0
  193.6710  177.5030  138.3300 O   0  0  0  0  0  0  0  0  0  0  0  0
  191.9330  175.0760  134.6660 O   0  0  0  0  0  1  0  0  0  0  0  0
  190.7610  175.0630  136.7390 C   0  0  0  0  0  2  0  0  0  0  0  0
  192.7880  176.7350  137.8640 C   0  0  0  0  0  0  0  0  0  0  0  0
  191.6060  176.4130  138.6290 N   0  0  0  0  0  0  0  0  0  0  0  0
  193.0140  176.1070  136.5220 C   0  0  0  0  0  2  0  0  0  0  0  0
  1  9  1  0  0  0  0
  2  3  1  0  0  0  0
  2  5  1  0  0  0  0
  3  7  2  0  0  0  0
  4 11  1  0  0  0  0
  5 14  1  0  0  0  0
  6  1  1  0  0  0  0
  7  4  1  0  0  0  0
  8 13  1  0  0  0  0
  8 12  2  0  0  0  0
 10 19  1  0  0  0  0
 12 16  1  0  0  0  0
 13  2  2  0  0  0  0
 14  1  2  0  0  0  0
 15  4  2  0  0  0  0
 16  5  2  0  0  0  0
 16 17  1  0  0  0  0
 17  6  2  0  0  0  0
 18 10  2  0  0  0  0
 18 13  1  0  0  0  0
 19 20  2  0  0  0  0
 19  3  1  0  0  0  0
 20 15  1  0  0  0  0
 22 21  2  0  0  0  0
 22 23  1  0  0  0  0
 23  8  1  0  0  0  0
 24 27  1  6  0  0  0
 24 31  1  0  0  0  0
 24 28  1  0  0  0  0
 25 30  1  0  0  0  0
 28 25  1  0  0  0  0
 29 26  2  0  0  0  0
 29 30  1  0  0  0  0
 30 22  1  0  0  0  0
 31 29  1  0  0  0  0
M  END
>  <MODEL>
7

>  <REMARK>
 VINA RESULT:      -9.5      5.018      7.541
  Name = 
  1 active torsions:
  status: ('A' for Active; 'I' for Inactive)
    1  A    between atoms: C_10  and  N_16
                            x       y       z     vdW  Elec       q    Type
                         _______ _______ _______ _____ _____    ______ ____

>  <TORSDO>
F 1

$$$$
=
 OpenBabel11122411073D

 31 35  0  0  1  0  0  0  0  0999 V2000
  185.7670  178.1950  146.5820 C   0  0  0  0  0  0  0  0  0  0  0  0
  185.5670  178.2100  142.8180 C   0  0  0  0  0  0  0  0  0  0  0  0
  184.2130  178.5000  142.4770 C   0  0  0  0  0  0  0  0  0  0  0  0
  181.8930  179.0040  143.0570 C   0  0  0  0  0  0  0  0  0  0  0  0
  186.0650  178.1120  144.1560 C   0  0  0  0  0  0  0  0  0  0  0  0
  187.1170  177.9050  146.7720 C   0  0  0  0  0  3  0  0  0  0  0  0
  183.2080  178.7230  143.4360 C   0  0  0  0  0  3  0  0  0  0  0  0
  187.8320  177.7150  141.9860 C   0  0  0  0  0  0  0  0  0  0  0  0
  184.9560  178.3780  147.6510 F   0  0  0  0  0  0  0  0  0  0  0  0
  184.7800  178.3600  140.1530 N   0  0  0  0  0  0  0  0  0  0  0  0
  180.6710  179.2770  144.2790 Cl  0  0  0  0  0  0  0  0  0  0  0  0
  188.2940  177.6250  143.2970 C   0  0  0  0  0  3  0  0  0  0  0  0
  186.4790  178.0050  141.7460 C   0  0  0  0  0  0  0  0  0  0  0  0
  185.2500  178.2970  145.2890 C   0  0  0  0  0  3  0  0  0  0  0  0
  181.5550  179.0670  141.7050 C   0  0  0  0  0  3  0  0  0  0  0  0
  187.4360  177.8190  144.3720 C   0  0  0  0  0  0  0  0  0  0  0  0
  187.9490  177.7180  145.6690 C   0  0  0  0  0  3  0  0  0  0  0  0
  186.0470  178.0890  140.4590 N   0  0  0  0  0  0  0  0  0  0  0  0
  183.8500  178.5680  141.1100 C   0  0  0  0  0  0  0  0  0  0  0  0
  182.5330  178.8490  140.7340 C   0  0  0  0  0  3  0  0  0  0  0  0
  190.7330  177.2260  142.0250 O   0  0  0  0  0  0  0  0  0  0  0  0
  190.1370  177.2910  140.9170 C   0  0  0  0  0  0  0  0  0  0  0  0
  188.7180  177.5170  140.8710 N   0  0  0  0  0  2  0  0  0  0  0  0
  192.2370  176.7300  137.1900 C   0  0  1  0  0  3  0  0  0  0  0  0
  190.1200  177.1030  138.4280 C   0  0  0  0  0  2  0  0  0  0  0  0
  192.9890  177.5030  140.6360 O   0  0  0  0  0  0  0  0  0  0  0  0
  192.8390  176.0230  136.1490 O   0  0  0  0  0  1  0  0  0  0  0  0
  190.8100  176.2410  137.3780 C   0  0  0  0  0  2  0  0  0  0  0  0
  192.3120  177.0930  139.6550 C   0  0  0  0  0  0  0  0  0  0  0  0
  190.8690  177.1140  139.6890 N   0  0  0  0  0  0  0  0  0  0  0  0
  193.0320  176.5200  138.4710 C   0  0  0  0  0  2  0  0  0  0  0  0
  1  6  1  0  0  0  0
  1  9  1  0  0  0  0
  2  5  1  0  0  0  0
  3  2  1  0  0  0  0
  3  7  2  0  0  0  0
  4  7  1  0  0  0  0
  4 11  1  0  0  0  0
  5 16  2  0  0  0  0
  5 14  1  0  0  0  0
  8 12  2  0  0  0  0
 10 18  2  0  0  0  0
 10 19  1  0  0  0  0
 12 16  1  0  0  0  0
 13  8  1  0  0  0  0
 13  2  2  0  0  0  0
 14  1  2  0  0  0  0
 15  4  2  0  0  0  0
 16 17  1  0  0  0  0
 17  6  2  0  0  0  0
 18 13  1  0  0  0  0
 19  3  1  0  0  0  0
 20 19  2  0  0  0  0
 20 15  1  0  0  0  0
 22 21  2  0  0  0  0
 23 22  1  0  0  0  0
 23  8  1  0  0  0  0
 24 27  1  6  0  0  0
 24 28  1  0  0  0  0
 24 31  1  0  0  0  0
 25 30  1  0  0  0  0
 28 25  1  0  0  0  0
 29 30  1  0  0  0  0
 29 26  2  0  0  0  0
 30 22  1  0  0  0  0
 31 29  1  0  0  0  0
M  END
>  <MODEL>
8

>  <REMARK>
 VINA RESULT:      -9.2      4.262      7.322
  Name = 
  1 active torsions:
  status: ('A' for Active; 'I' for Inactive)
    1  A    between atoms: C_10  and  N_16
                            x       y       z     vdW  Elec       q    Type
                         _______ _______ _______ _____ _____    ______ ____

>  <TORSDO>
F 1

$$$$
=
 OpenBabel11122411073D

 31 35  0  0  1  0  0  0  0  0999 V2000
  186.6610  178.0400  146.2710 C   0  0  0  0  0  0  0  0  0  0  0  0
  186.5880  178.2560  142.5080 C   0  0  0  0  0  0  0  0  0  0  0  0
  187.9180  178.0140  142.0550 C   0  0  0  0  0  0  0  0  0  0  0  0
  190.2810  177.5240  142.4350 C   0  0  0  0  0  0  0  0  0  0  0  0
  186.1870  178.2620  143.8820 C   0  0  0  0  0  0  0  0  0  0  0  0
  185.3230  178.2900  146.5740 C   0  0  0  0  0  3  0  0  0  0  0  0
  188.9930  177.7540  142.9230 C   0  0  0  0  0  3  0  0  0  0  0  0
  184.2600  178.7530  141.8720 C   0  0  0  0  0  0  0  0  0  0  0  0
  187.5500  177.8100  147.2660 F   0  0  0  0  0  0  0  0  0  0  0  0
  187.1810  178.2820  139.7900 N   0  0  0  0  0  0  0  0  0  0  0  0
  191.5930  177.2030  143.5470 Cl  0  0  0  0  0  0  0  0  0  0  0  0
  183.8940  178.7540  143.2160 C   0  0  0  0  0  3  0  0  0  0  0  0
  185.5970  178.5060  141.5180 C   0  0  0  0  0  0  0  0  0  0  0  0
  187.0840  178.0270  144.9400 C   0  0  0  0  0  3  0  0  0  0  0  0
  190.5210  177.5490  141.0610 C   0  0  0  0  0  3  0  0  0  0  0  0
  184.8300  178.5140  144.2130 C   0  0  0  0  0  0  0  0  0  0  0  0
  184.4110  178.5270  145.5470 C   0  0  0  0  0  3  0  0  0  0  0  0
  185.9360  178.5090  140.2020 N   0  0  0  0  0  0  0  0  0  0  0  0
  188.1820  178.0360  140.6640 C   0  0  0  0  0  0  0  0  0  0  0  0
  189.4730  177.8050  140.1780 C   0  0  0  0  0  3  0  0  0  0  0  0
  181.4880  179.6980  142.1550 O   0  0  0  0  0  0  0  0  0  0  0  0
  181.9390  179.4510  141.0030 C   0  0  0  0  0  0  0  0  0  0  0  0
  183.2930  179.0000  140.8370 N   0  0  0  0  0  2  0  0  0  0  0  0
  179.5350  180.0400  137.4680 C   0  0  1  0  0  3  0  0  0  0  0  0
  181.6990  179.4350  138.5190 C   0  0  0  0  0  2  0  0  0  0  0  0
  179.0730  179.6730  141.0310 O   0  0  0  0  0  0  0  0  0  0  0  0
  178.9310  180.7480  136.4300 O   0  0  0  0  0  1  0  0  0  0  0  0
  181.0310  180.3090  137.4650 C   0  0  0  0  0  2  0  0  0  0  0  0
  179.6870  179.8910  139.9530 C   0  0  0  0  0  0  0  0  0  0  0  0
  181.1060  179.6440  139.8440 N   0  0  0  0  0  0  0  0  0  0  0  0
  178.9310  180.4740  138.7970 C   0  0  0  0  0  2  0  0  0  0  0  0
  1  6  1  0  0  0  0
  1  9  1  0  0  0  0
  2  5  1  0  0  0  0
  3  2  1  0  0  0  0
  3  7  2  0  0  0  0
  4  7  1  0  0  0  0
  4 11  1  0  0  0  0
  5 16  2  0  0  0  0
  5 14  1  0  0  0  0
  8 12  2  0  0  0  0
 10 18  2  0  0  0  0
 10 19  1  0  0  0  0
 12 16  1  0  0  0  0
 13  8  1  0  0  0  0
 13  2  2  0  0  0  0
 14  1  2  0  0  0  0
 15  4  2  0  0  0  0
 16 17  1  0  0  0  0
 17  6  2  0  0  0  0
 18 13  1  0  0  0  0
 19  3  1  0  0  0  0
 20 19  2  0  0  0  0
 20 15  1  0  0  0  0
 22 21  2  0  0  0  0
 23 22  1  0  0  0  0
 23  8  1  0  0  0  0
 24 27  1  6  0  0  0
 24 31  1  0  0  0  0
 25 30  1  0  0  0  0
 28 24  1  0  0  0  0
 28 25  1  0  0  0  0
 29 26  2  0  0  0  0
 30 29  1  0  0  0  0
 30 22  1  0  0  0  0
 31 29  1  0  0  0  0
M  END
>  <MODEL>
9

>  <REMARK>
 VINA RESULT:      -9.2      1.469      1.579
  Name = 
  1 active torsions:
  status: ('A' for Active; 'I' for Inactive)
    1  A    between atoms: C_10  and  N_16
                            x       y       z     vdW  Elec       q    Type
                         _______ _______ _______ _____ _____    ______ ____

>  <TORSDO>
F 1

$$$$
