=
 OpenBabel11122410493D

 32 37  0  0  1  0  0  0  0  0999 V2000
  189.3500  177.7930  139.7720 C   0  0  1  0  0  3  0  0  0  0  0  0
  186.9410  178.5320  136.3110 O   0  0  0  0  0  0  0  0  0  0  0  0
  187.8480  177.7660  135.5570 C   0  0  0  0  0  2  0  0  0  0  0  0
  191.7110  176.9100  139.2110 C   0  0  0  0  0  0  0  0  0  0  0  0
  192.5520  176.3650  138.1830 N   0  0  0  0  0  0  0  0  0  0  0  0
  188.6790  177.6560  142.2470 C   0  0  2  0  0  3  0  0  0  0  0  0
  187.1980  178.3040  140.3870 O   0  0  0  0  0  0  0  0  0  0  0  0
  193.0680  174.8790  136.4060 C   0  0  1  0  0  3  0  0  0  0  0  0
  187.4920  178.6710  137.5980 C   0  0  0  0  0  2  0  0  0  0  0  0
  187.9370  177.3850  139.7090 N   0  0  1  0  0  0  0  0  0  0  0  0
  187.4630  177.3120  138.3210 C   0  0  2  0  0  3  0  0  0  0  0  0
  189.7810  176.5080  137.6720 C   0  0  2  0  0  3  0  0  0  0  0  0
  194.3570  175.2560  137.1310 C   0  0  0  0  0  2  0  0  0  0  0  0
  187.2380  177.9080  141.7420 C   0  0  2  0  0  3  0  0  0  0  0  0
  193.9380  176.0020  138.3930 C   0  0  0  0  0  2  0  0  0  0  0  0
  187.8520  176.3150  136.0530 C   0  0  0  0  0  2  0  0  0  0  0  0
  188.2690  176.2630  137.5280 C   0  0  2  0  0  3  0  0  0  0  0  0
  190.6010  175.4070  137.0110 C   0  0  0  0  0  2  0  0  0  0  0  0
  189.7310  178.1170  141.2290 C   0  0  0  0  0  2  0  0  0  0  0  0
  192.2380  177.4490  140.2220 O   0  0  0  0  0  0  0  0  0  0  0  0
  192.7100  173.4460  136.7810 C   0  0  0  0  0  1  0  0  0  0  0  0
  190.2120  176.6860  139.1400 C   0  0  2  0  0  3  0  0  0  0  0  0
  192.0450  175.8990  136.9050 C   0  0  1  0  0  3  0  0  0  0  0  0
  185.1340  179.1520  142.1680 C   0  0  0  0  0  2  0  0  0  0  0  0
  186.5760  178.9730  142.5970 C   0  0  1  0  0  3  0  0  0  0  0  0
  185.4590  178.3410  143.4040 C   0  0  1  0  0  3  0  0  0  0  0  0
  185.2140  179.1460  144.5890 N   0  0  0  0  0  2  0  0  0  0  0  0
  185.6010  178.7000  145.8880 C   0  0  0  0  0  0  0  0  0  0  0  0
  186.2350  177.4740  146.0550 O   0  0  0  0  0  0  0  0  0  0  0  0
  185.3670  179.4230  146.8910 O   0  0  0  0  0  1  0  0  0  0  0  0
  190.1710  175.7120  142.9560 S   0  0  0  0  0  0  0  0  0  0  0  0
  188.8850  176.2050  142.5560 C   0  0  0  0  0  3  0  0  0  0  0  0
  1 19  1  1  0  0  0
  2  9  1  0  0  0  0
  3 16  1  0  0  0  0
  3  2  1  0  0  0  0
  4 20  2  0  0  0  0
  5 15  1  0  0  0  0
  5  4  1  0  0  0  0
  6 32  1  6  0  0  0
  8 21  1  1  0  0  0
  8 23  1  0  0  0  0
  8 13  1  0  0  0  0
 10  1  1  0  0  0  0
 10  7  1  1  0  0  0
 11  9  1  6  0  0  0
 11 10  1  0  0  0  0
 12 18  1  1  0  0  0
 12 22  1  0  0  0  0
 13 15  1  0  0  0  0
 14  7  1  6  0  0  0
 14  6  1  0  0  0  0
 14 25  1  0  0  0  0
 17 16  1  6  0  0  0
 17 12  1  0  0  0  0
 17 11  1  0  0  0  0
 19  6  1  0  0  0  0
 22  4  1  6  0  0  0
 22  1  1  0  0  0  0
 23 18  1  1  0  0  0
 23  5  1  0  0  0  0
 24 26  1  0  0  0  0
 25 24  1  6  0  0  0
 25 26  1  0  0  0  0
 26 27  1  1  0  0  0
 27 28  1  0  0  0  0
 28 29  2  0  0  0  0
 28 30  1  0  0  0  0
 32 31  2  0  0  0  0
M  END
>  <MODEL>
1

>  <REMARK>
 VINA RESULT:      -7.0      0.000      0.000
  Name = 
  3 active torsions:
  status: ('A' for Active; 'I' for Inactive)
    1  A    between atoms: C_7  and  C_19
    2  A    between atoms: C_10  and  C_17
    3  A    between atoms: C_20  and  N_29
                            x       y       z     vdW  Elec       q    Type
                         _______ _______ _______ _____ _____    ______ ____

>  <TORSDO>
F 3

$$$$
=
 OpenBabel11122410493D

 32 37  0  0  1  0  0  0  0  0999 V2000
  190.7150  177.4730  140.4260 C   0  0  1  0  0  3  0  0  0  0  0  0
  187.2460  178.6080  138.1900 O   0  0  0  0  0  0  0  0  0  0  0  0
  187.8010  177.9670  137.0670 C   0  0  0  0  0  2  0  0  0  0  0  0
  192.6930  176.7220  138.9440 C   0  0  0  0  0  0  0  0  0  0  0  0
  193.0940  176.3350  137.6210 N   0  0  0  0  0  0  0  0  0  0  0  0
  190.9740  176.9990  142.9370 C   0  0  2  0  0  3  0  0  0  0  0  0
  188.9420  177.8540  141.8340 O   0  0  0  0  0  0  0  0  0  0  0  0
  192.8960  175.1060  135.6010 C   0  0  1  0  0  3  0  0  0  0  0  0
  188.2260  178.5890  139.1980 C   0  0  0  0  0  2  0  0  0  0  0  0
  189.3630  177.0470  140.8220 N   0  0  1  0  0  0  0  0  0  0  0  0
  188.4210  177.1460  139.7010 C   0  0  2  0  0  3  0  0  0  0  0  0
  190.3280  176.4850  138.1630 C   0  0  2  0  0  3  0  0  0  0  0  0
  194.3700  175.4120  135.8570 C   0  0  0  0  0  2  0  0  0  0  0  0
  189.4550  177.2840  143.0200 C   0  0  2  0  0  3  0  0  0  0  0  0
  194.4520  175.9780  137.2700 C   0  0  0  0  0  2  0  0  0  0  0  0
  187.9420  176.4640  137.3360 C   0  0  0  0  0  2  0  0  0  0  0  0
  188.8600  176.2280  138.5420 C   0  0  2  0  0  3  0  0  0  0  0  0
  190.8270  175.4970  137.1150 C   0  0  0  0  0  2  0  0  0  0  0  0
  191.6030  177.6120  141.6770 C   0  0  0  0  0  2  0  0  0  0  0  0
  193.5620  177.1360  139.7590 O   0  0  0  0  0  0  0  0  0  0  0  0
  192.6580  173.6280  135.8900 C   0  0  0  0  0  1  0  0  0  0  0  0
  191.2620  176.4780  139.3890 C   0  0  2  0  0  3  0  0  0  0  0  0
  192.1490  176.0300  136.5620 C   0  0  1  0  0  3  0  0  0  0  0  0
  187.7580  178.0000  144.6830 C   0  0  0  0  0  2  0  0  0  0  0  0
  189.1740  178.2140  144.1870 C   0  0  1  0  0  3  0  0  0  0  0  0
  188.9220  177.3880  145.4330 C   0  0  1  0  0  3  0  0  0  0  0  0
  189.2190  178.1930  146.6060 N   0  0  0  0  0  2  0  0  0  0  0  0
  188.8450  177.7700  147.9160 C   0  0  0  0  0  0  0  0  0  0  0  0
  188.1860  176.5610  148.1080 O   0  0  0  0  0  0  0  0  0  0  0  0
  189.1160  178.4970  148.9070 O   0  0  0  0  0  1  0  0  0  0  0  0
  191.8050  174.8960  144.1170 S   0  0  0  0  0  0  0  0  0  0  0  0
  191.2370  175.5250  142.9600 C   0  0  0  0  0  3  0  0  0  0  0  0
  1 10  1  0  0  0  0
  1 19  1  1  0  0  0
  2  9  1  0  0  0  0
  3 16  1  0  0  0  0
  3  2  1  0  0  0  0
  4 20  2  0  0  0  0
  5  4  1  0  0  0  0
  6 32  1  6  0  0  0
  6 14  1  0  0  0  0
  8 13  1  0  0  0  0
  8 21  1  1  0  0  0
  8 23  1  0  0  0  0
 10  7  1  1  0  0  0
 11  9  1  6  0  0  0
 11 10  1  0  0  0  0
 12 18  1  6  0  0  0
 12 17  1  0  0  0  0
 12 22  1  0  0  0  0
 13 15  1  0  0  0  0
 14  7  1  6  0  0  0
 14 25  1  0  0  0  0
 15  5  1  0  0  0  0
 17 16  1  6  0  0  0
 17 11  1  0  0  0  0
 19  6  1  0  0  0  0
 22  4  1  6  0  0  0
 22  1  1  0  0  0  0
 23 18  1  1  0  0  0
 23  5  1  0  0  0  0
 24 26  1  0  0  0  0
 25 24  1  6  0  0  0
 25 26  1  0  0  0  0
 26 27  1  1  0  0  0
 27 28  1  0  0  0  0
 28 29  2  0  0  0  0
 28 30  1  0  0  0  0
 32 31  2  0  0  0  0
M  END
>  <MODEL>
2

>  <REMARK>
 VINA RESULT:      -6.7      2.044      2.306
  Name = 
  3 active torsions:
  status: ('A' for Active; 'I' for Inactive)
    1  A    between atoms: C_7  and  C_19
    2  A    between atoms: C_10  and  C_17
    3  A    between atoms: C_20  and  N_29
                            x       y       z     vdW  Elec       q    Type
                         _______ _______ _______ _____ _____    ______ ____

>  <TORSDO>
F 3

$$$$
=
 OpenBabel11122410493D

 32 37  0  0  1  0  0  0  0  0999 V2000
  190.3110  177.2190  139.1370 C   0  0  1  0  0  3  0  0  0  0  0  0
  187.5410  177.3700  135.8770 O   0  0  0  0  0  0  0  0  0  0  0  0
  188.4280  176.5730  135.1310 C   0  0  0  0  0  2  0  0  0  0  0  0
  192.6680  176.4210  138.4480 C   0  0  0  0  0  0  0  0  0  0  0  0
  193.4470  175.8050  137.4110 N   0  0  0  0  0  0  0  0  0  0  0  0
  189.8860  177.3510  141.6670 C   0  0  2  0  0  3  0  0  0  0  0  0
  188.1940  177.6690  139.9040 O   0  0  0  0  0  0  0  0  0  0  0  0
  193.9030  174.1430  135.7790 C   0  0  1  0  0  3  0  0  0  0  0  0
  188.1990  177.7020  137.0750 C   0  0  0  0  0  2  0  0  0  0  0  0
  188.9330  176.7200  139.2670 N   0  0  1  0  0  0  0  0  0  0  0  0
  188.3380  176.4450  137.9530 C   0  0  2  0  0  3  0  0  0  0  0  0
  190.6370  175.7110  137.1710 C   0  0  2  0  0  3  0  0  0  0  0  0
  195.2230  174.6870  136.3200 C   0  0  0  0  0  2  0  0  0  0  0  0
  188.3900  177.4480  141.2850 C   0  0  2  0  0  3  0  0  0  0  0  0
  194.8700  175.5580  137.5200 C   0  0  0  0  0  2  0  0  0  0  0  0
  188.5850  175.1990  135.7910 C   0  0  0  0  0  2  0  0  0  0  0  0
  189.1410  175.3570  137.2120 C   0  0  2  0  0  3  0  0  0  0  0  0
  191.4720  174.5890  136.5650 C   0  0  0  0  0  2  0  0  0  0  0  0
  190.8020  177.7460  140.4990 C   0  0  0  0  0  2  0  0  0  0  0  0
  193.2460  177.1140  139.3290 O   0  0  0  0  0  0  0  0  0  0  0  0
  193.6880  172.7490  136.3560 C   0  0  0  0  0  1  0  0  0  0  0  0
  191.1890  176.0970  138.5570 C   0  0  2  0  0  3  0  0  0  0  0  0
  192.8590  175.1530  136.2550 C   0  0  1  0  0  3  0  0  0  0  0  0
  186.4330  178.9690  141.4050 C   0  0  0  0  0  2  0  0  0  0  0  0
  187.7340  178.5690  142.0710 C   0  0  1  0  0  3  0  0  0  0  0  0
  186.4120  178.0790  142.6290 C   0  0  1  0  0  3  0  0  0  0  0  0
  186.0660  178.8710  143.7970 N   0  0  0  0  0  2  0  0  0  0  0  0
  184.7190  178.9810  144.2530 C   0  0  0  0  0  0  0  0  0  0  0  0
  183.6910  178.3220  143.5880 O   0  0  0  0  0  0  0  0  0  0  0  0
  184.4580  179.6800  145.2660 O   0  0  0  0  0  1  0  0  0  0  0  0
  190.9680  175.7480  143.3320 S   0  0  0  0  0  0  0  0  0  0  0  0
  190.2270  175.9660  142.1230 C   0  0  0  0  0  3  0  0  0  0  0  0
  1 10  1  0  0  0  0
  1 19  1  1  0  0  0
  2  9  1  0  0  0  0
  3 16  1  0  0  0  0
  3  2  1  0  0  0  0
  4 20  2  0  0  0  0
  5 15  1  0  0  0  0
  5  4  1  0  0  0  0
  6 32  1  6  0  0  0
  8 23  1  0  0  0  0
  8 13  1  0  0  0  0
  8 21  1  1  0  0  0
 10  7  1  6  0  0  0
 11  9  1  6  0  0  0
 11 10  1  0  0  0  0
 12 18  1  1  0  0  0
 12 17  1  0  0  0  0
 12 22  1  0  0  0  0
 13 15  1  0  0  0  0
 14  7  1  6  0  0  0
 14  6  1  0  0  0  0
 14 25  1  0  0  0  0
 17 16  1  6  0  0  0
 17 11  1  0  0  0  0
 19  6  1  0  0  0  0
 22  4  1  6  0  0  0
 22  1  1  0  0  0  0
 23 18  1  1  0  0  0
 23  5  1  0  0  0  0
 24 26  1  0  0  0  0
 25 24  1  6  0  0  0
 25 26  1  0  0  0  0
 26 27  1  1  0  0  0
 27 28  1  0  0  0  0
 28 30  1  0  0  0  0
 29 28  2  0  0  0  0
 32 31  2  0  0  0  0
M  END
>  <MODEL>
3

>  <REMARK>
 VINA RESULT:      -6.4      1.320      1.480
  Name = 
  3 active torsions:
  status: ('A' for Active; 'I' for Inactive)
    1  A    between atoms: C_7  and  C_19
    2  A    between atoms: C_10  and  C_17
    3  A    between atoms: C_20  and  N_29
                            x       y       z     vdW  Elec       q    Type
                         _______ _______ _______ _____ _____    ______ ____

>  <TORSDO>
F 3

$$$$
=
 OpenBabel11122410493D

 32 37  0  0  1  0  0  0  0  0999 V2000
  185.6760  178.6870  140.9040 C   0  0  1  0  0  3  0  0  0  0  0  0
  181.4460  179.1830  140.4690 O   0  0  0  0  0  0  0  0  0  0  0  0
  181.5650  178.7400  139.1390 C   0  0  0  0  0  2  0  0  0  0  0  0
  186.9210  178.4590  138.6530 C   0  0  0  0  0  0  0  0  0  0  0  0
  186.7740  178.2430  137.2410 N   0  0  0  0  0  0  0  0  0  0  0  0
  187.0630  178.1360  142.9940 C   0  0  2  0  0  3  0  0  0  0  0  0
  184.6440  178.6000  142.9530 O   0  0  0  0  0  0  0  0  0  0  0  0
  185.9390  177.1170  135.3260 C   0  0  1  0  0  3  0  0  0  0  0  0
  182.7520  179.3150  140.9740 C   0  0  0  0  0  2  0  0  0  0  0  0
  184.7190  177.9610  141.7540 N   0  0  1  0  0  0  0  0  0  0  0  0
  183.3840  177.9210  141.1420 C   0  0  2  0  0  3  0  0  0  0  0  0
  184.5280  177.7690  138.8820 C   0  0  2  0  0  3  0  0  0  0  0  0
  187.3040  177.7150  134.9980 C   0  0  0  0  0  2  0  0  0  0  0  0
  185.7040  178.0860  143.7310 C   0  0  2  0  0  3  0  0  0  0  0  0
  187.8890  178.2030  136.3180 C   0  0  0  0  0  2  0  0  0  0  0  0
  182.0590  177.2890  139.1100 C   0  0  0  0  0  2  0  0  0  0  0  0
  183.4310  177.1850  139.7880 C   0  0  2  0  0  3  0  0  0  0  0  0
  184.6860  176.9720  137.5930 C   0  0  0  0  0  2  0  0  0  0  0  0
  186.9780  178.9400  141.6880 C   0  0  0  0  0  2  0  0  0  0  0  0
  187.9730  179.0020  139.0900 O   0  0  0  0  0  0  0  0  0  0  0  0
  186.1000  175.6090  135.4750 C   0  0  0  0  0  1  0  0  0  0  0  0
  185.8840  177.8910  139.6040 C   0  0  2  0  0  3  0  0  0  0  0  0
  185.5320  177.8040  136.6290 C   0  0  1  0  0  3  0  0  0  0  0  0
  184.5560  178.6280  145.8630 C   0  0  0  0  0  2  0  0  0  0  0  0
  185.7990  178.8660  145.0300 C   0  0  1  0  0  3  0  0  0  0  0  0
  185.8380  177.8950  146.1930 C   0  0  1  0  0  3  0  0  0  0  0  0
  186.4840  178.5360  147.3260 N   0  0  0  0  0  2  0  0  0  0  0  0
  187.7140  178.0490  147.8580 C   0  0  0  0  0  0  0  0  0  0  0  0
  188.3390  176.9410  147.2960 O   0  0  0  0  0  0  0  0  0  0  0  0
  188.2410  178.6280  148.8440 O   0  0  0  0  0  1  0  0  0  0  0  0
  188.8090  176.2890  143.2190 S   0  0  0  0  0  0  0  0  0  0  0  0
  187.5550  176.7530  142.6970 C   0  0  0  0  0  3  0  0  0  0  0  0
  1 19  1  1  0  0  0
  1 10  1  0  0  0  0
  2  9  1  0  0  0  0
  3  2  1  0  0  0  0
  4 20  2  0  0  0  0
  5  4  1  0  0  0  0
  6 32  1  6  0  0  0
  6 14  1  0  0  0  0
  8 21  1  1  0  0  0
  8 23  1  0  0  0  0
 10  7  1  1  0  0  0
 11  9  1  6  0  0  0
 11 10  1  0  0  0  0
 12 18  1  6  0  0  0
 12 22  1  0  0  0  0
 12 17  1  0  0  0  0
 13  8  1  0  0  0  0
 13 15  1  0  0  0  0
 14  7  1  6  0  0  0
 14 25  1  0  0  0  0
 15  5  1  0  0  0  0
 16  3  1  0  0  0  0
 17 16  1  6  0  0  0
 17 11  1  0  0  0  0
 19  6  1  0  0  0  0
 22  4  1  6  0  0  0
 22  1  1  0  0  0  0
 23  5  1  0  0  0  0
 23 18  1  1  0  0  0
 24 26  1  0  0  0  0
 25 24  1  1  0  0  0
 25 26  1  0  0  0  0
 26 27  1  1  0  0  0
 27 28  1  0  0  0  0
 28 30  1  0  0  0  0
 29 28  2  0  0  0  0
 32 31  2  0  0  0  0
M  END
>  <MODEL>
4

>  <REMARK>
 VINA RESULT:      -6.4      3.602      4.998
  Name = 
  3 active torsions:
  status: ('A' for Active; 'I' for Inactive)
    1  A    between atoms: C_7  and  C_19
    2  A    between atoms: C_10  and  C_17
    3  A    between atoms: C_20  and  N_29
                            x       y       z     vdW  Elec       q    Type
                         _______ _______ _______ _____ _____    ______ ____

>  <TORSDO>
F 3

$$$$
=
 OpenBabel11122410493D

 32 37  0  0  1  0  0  0  0  0999 V2000
  188.2980  176.4080  138.4210 C   0  0  1  0  0  3  0  0  0  0  0  0
  189.7320  177.2960  142.3560 O   0  0  0  0  0  0  0  0  0  0  0  0
  191.0220  176.9270  141.9320 C   0  0  0  0  0  2  0  0  0  0  0  0
  189.9480  175.0030  137.0180 C   0  0  0  0  0  0  0  0  0  0  0  0
  191.2930  174.5090  136.9260 N   0  0  0  0  0  0  0  0  0  0  0  0
  186.3200  177.4100  137.1240 C   0  0  2  0  0  3  0  0  0  0  0  0
  186.8870  177.8810  139.4750 O   0  0  0  0  0  0  0  0  0  0  0  0
  193.6560  174.7180  136.9850 C   0  0  1  0  0  3  0  0  0  0  0  0
  188.8520  176.9860  141.3030 C   0  0  0  0  0  2  0  0  0  0  0  0
  188.1600  177.7490  139.0130 N   0  0  1  0  0  0  0  0  0  0  0  0
  189.1010  177.9420  140.1230 C   0  0  2  0  0  3  0  0  0  0  0  0
  190.7590  176.5100  138.8430 C   0  0  2  0  0  3  0  0  0  0  0  0
  193.2780  173.5980  136.0190 C   0  0  0  0  0  2  0  0  0  0  0  0
  186.1170  178.3050  138.3700 C   0  0  2  0  0  3  0  0  0  0  0  0
  191.7670  173.6770  135.8390 C   0  0  0  0  0  2  0  0  0  0  0  0
  191.5060  177.8770  140.8300 C   0  0  0  0  0  2  0  0  0  0  0  0
  190.5560  177.8170  139.6280 C   0  0  2  0  0  3  0  0  0  0  0  0
  192.1500  176.4250  138.2260 C   0  0  0  0  0  2  0  0  0  0  0  0
  187.1280  176.1470  137.4520 C   0  0  0  0  0  2  0  0  0  0  0  0
  189.0310  174.4270  136.3720 O   0  0  0  0  0  0  0  0  0  0  0  0
  194.1120  175.9210  136.1670 C   0  0  0  0  0  1  0  0  0  0  0  0
  189.6820  176.3000  137.7610 C   0  0  2  0  0  3  0  0  0  0  0  0
  192.3740  174.9830  137.7720 C   0  0  1  0  0  3  0  0  0  0  0  0
  184.4880  178.9090  140.1420 C   0  0  0  0  0  2  0  0  0  0  0  0
  184.6490  178.3180  138.7560 C   0  0  1  0  0  3  0  0  0  0  0  0
  184.1900  179.7530  138.9220 C   0  0  1  0  0  3  0  0  0  0  0  0
  182.7520  179.8190  138.7180 N   0  0  0  0  0  2  0  0  0  0  0  0
  182.0680  181.0660  138.6250 C   0  0  0  0  0  0  0  0  0  0  0  0
  182.7650  182.2650  138.7190 O   0  0  0  0  0  1  0  0  0  0  0  0
  180.8210  181.0830  138.4530 O   0  0  0  0  0  0  0  0  0  0  0  0
  187.4390  177.5130  134.8340 S   0  0  0  0  0  0  0  0  0  0  0  0
  187.0050  178.1720  136.0320 C   0  0  0  0  0  3  0  0  0  0  0  0
  1 19  1  6  0  0  0
  1 10  1  0  0  0  0
  3  2  1  0  0  0  0
  5  4  1  0  0  0  0
  5 23  1  0  0  0  0
  6 32  1  6  0  0  0
  6 19  1  0  0  0  0
  6 14  1  0  0  0  0
  8 21  1  6  0  0  0
  8 23  1  0  0  0  0
  9  2  1  0  0  0  0
 10  7  1  1  0  0  0
 10 11  1  0  0  0  0
 11  9  1  1  0  0  0
 12 18  1  6  0  0  0
 12 17  1  0  0  0  0
 13  8  1  0  0  0  0
 14 25  1  0  0  0  0
 14  7  1  1  0  0  0
 15 13  1  0  0  0  0
 15  5  1  0  0  0  0
 16  3  1  0  0  0  0
 17 11  1  0  0  0  0
 17 16  1  1  0  0  0
 20  4  2  0  0  0  0
 22  4  1  1  0  0  0
 22  1  1  0  0  0  0
 22 12  1  0  0  0  0
 23 18  1  6  0  0  0
 25 26  1  0  0  0  0
 25 24  1  1  0  0  0
 26 27  1  1  0  0  0
 26 24  1  0  0  0  0
 28 27  1  0  0  0  0
 28 29  1  0  0  0  0
 30 28  2  0  0  0  0
 31 32  2  0  0  0  0
M  END
>  <MODEL>
5

>  <REMARK>
 VINA RESULT:      -6.2      3.140      5.039
  Name = 
  3 active torsions:
  status: ('A' for Active; 'I' for Inactive)
    1  A    between atoms: C_7  and  C_19
    2  A    between atoms: C_10  and  C_17
    3  A    between atoms: C_20  and  N_29
                            x       y       z     vdW  Elec       q    Type
                         _______ _______ _______ _____ _____    ______ ____

>  <TORSDO>
F 3

$$$$
=
 OpenBabel11122410493D

 32 37  0  0  1  0  0  0  0  0999 V2000
  188.2270  176.4590  138.2340 C   0  0  1  0  0  3  0  0  0  0  0  0
  189.7660  177.3860  142.1200 O   0  0  0  0  0  0  0  0  0  0  0  0
  190.9990  176.8340  141.7260 C   0  0  0  0  0  2  0  0  0  0  0  0
  189.6850  174.7780  136.9240 C   0  0  0  0  0  0  0  0  0  0  0  0
  190.9570  174.1130  136.8700 N   0  0  0  0  0  0  0  0  0  0  0  0
  186.3900  177.6250  136.8690 C   0  0  2  0  0  3  0  0  0  0  0  0
  187.0150  178.1580  139.1930 O   0  0  0  0  0  0  0  0  0  0  0  0
  193.3270  174.0250  136.9310 C   0  0  1  0  0  3  0  0  0  0  0  0
  188.8530  177.1290  141.0810 C   0  0  0  0  0  2  0  0  0  0  0  0
  188.2610  177.8390  138.7460 N   0  0  1  0  0  0  0  0  0  0  0  0
  189.2200  177.9760  139.8490 C   0  0  2  0  0  3  0  0  0  0  0  0
  190.6820  176.2740  138.6640 C   0  0  2  0  0  3  0  0  0  0  0  0
  192.8090  172.9080  136.0290 C   0  0  0  0  0  2  0  0  0  0  0  0
  186.3030  178.6100  138.0600 C   0  0  2  0  0  3  0  0  0  0  0  0
  191.3200  173.1670  135.8360 C   0  0  0  0  0  2  0  0  0  0  0  0
  191.5980  177.6490  140.5740 C   0  0  0  0  0  2  0  0  0  0  0  0
  190.6470  177.6390  139.3710 C   0  0  2  0  0  3  0  0  0  0  0  0
  192.0500  175.9790  138.0620 C   0  0  0  0  0  2  0  0  0  0  0  0
  187.0330  176.2910  137.2750 C   0  0  0  0  0  2  0  0  0  0  0  0
  188.7020  174.2860  136.3070 O   0  0  0  0  0  0  0  0  0  0  0  0
  193.9300  175.1110  136.0480 C   0  0  0  0  0  1  0  0  0  0  0  0
  189.5860  176.1390  137.5900 C   0  0  2  0  0  3  0  0  0  0  0  0
  192.0890  174.4960  137.6930 C   0  0  1  0  0  3  0  0  0  0  0  0
  184.0330  177.6090  138.0630 C   0  0  0  0  0  2  0  0  0  0  0  0
  184.8490  178.8300  138.4350 C   0  0  1  0  0  3  0  0  0  0  0  0
  184.4520  177.8280  139.5010 C   0  0  1  0  0  3  0  0  0  0  0  0
  183.3290  178.3570  140.2560 N   0  0  0  0  0  2  0  0  0  0  0  0
  183.3570  178.4340  141.6800 C   0  0  0  0  0  0  0  0  0  0  0  0
  184.4730  178.0070  142.3900 O   0  0  0  0  0  1  0  0  0  0  0  0
  182.3630  178.8940  142.3000 O   0  0  0  0  0  0  0  0  0  0  0  0
  187.5340  177.4460  134.5960 S   0  0  0  0  0  0  0  0  0  0  0  0
  187.1650  178.2300  135.7390 C   0  0  0  0  0  3  0  0  0  0  0  0
  1 19  1  6  0  0  0
  1 10  1  0  0  0  0
  3  2  1  0  0  0  0
  5  4  1  0  0  0  0
  5 23  1  0  0  0  0
  6 32  1  6  0  0  0
  6 19  1  0  0  0  0
  6 14  1  0  0  0  0
  8 21  1  6  0  0  0
  8 23  1  0  0  0  0
  9  2  1  0  0  0  0
 10  7  1  1  0  0  0
 10 11  1  0  0  0  0
 11  9  1  1  0  0  0
 12 18  1  6  0  0  0
 12 17  1  0  0  0  0
 13  8  1  0  0  0  0
 14 25  1  0  0  0  0
 14  7  1  1  0  0  0
 15 13  1  0  0  0  0
 15  5  1  0  0  0  0
 16  3  1  0  0  0  0
 17 11  1  0  0  0  0
 17 16  1  1  0  0  0
 20  4  2  0  0  0  0
 22  4  1  1  0  0  0
 22  1  1  0  0  0  0
 22 12  1  0  0  0  0
 23 18  1  6  0  0  0
 24 26  1  0  0  0  0
 25 24  1  6  0  0  0
 25 26  1  0  0  0  0
 26 27  1  1  0  0  0
 27 28  1  0  0  0  0
 28 30  2  0  0  0  0
 28 29  1  0  0  0  0
 31 32  2  0  0  0  0
M  END
>  <MODEL>
6

>  <REMARK>
 VINA RESULT:      -5.7      2.774      4.461
  Name = 
  3 active torsions:
  status: ('A' for Active; 'I' for Inactive)
    1  A    between atoms: C_7  and  C_19
    2  A    between atoms: C_10  and  C_17
    3  A    between atoms: C_20  and  N_29
                            x       y       z     vdW  Elec       q    Type
                         _______ _______ _______ _____ _____    ______ ____

>  <TORSDO>
F 3

$$$$
=
 OpenBabel11122410493D

 32 37  0  0  1  0  0  0  0  0999 V2000
  184.4180  177.6800  137.9680 C   0  0  1  0  0  3  0  0  0  0  0  0
  181.9910  174.7570  135.9960 O   0  0  0  0  0  0  0  0  0  0  0  0
  183.1630  174.2000  135.4520 C   0  0  0  0  0  2  0  0  0  0  0  0
  186.8180  177.8290  137.0260 C   0  0  0  0  0  0  0  0  0  0  0  0
  187.7970  177.1940  136.1900 N   0  0  0  0  0  0  0  0  0  0  0  0
  184.0160  178.9400  140.1700 C   0  0  2  0  0  3  0  0  0  0  0  0
  182.4110  177.4380  139.0570 O   0  0  0  0  0  0  0  0  0  0  0  0
  189.0770  175.3510  135.4170 C   0  0  1  0  0  3  0  0  0  0  0  0
  182.3690  175.9390  136.6580 C   0  0  0  0  0  2  0  0  0  0  0  0
  183.5440  176.7640  138.7180 N   0  0  1  0  0  0  0  0  0  0  0  0
  183.1860  175.5880  137.9150 C   0  0  2  0  0  3  0  0  0  0  0  0
  185.5020  175.7070  136.8830 C   0  0  2  0  0  3  0  0  0  0  0  0
  189.8840  176.6330  135.2290 C   0  0  0  0  0  2  0  0  0  0  0  0
  182.7100  178.1150  140.2590 C   0  0  2  0  0  3  0  0  0  0  0  0
  189.1220  177.7320  135.9600 C   0  0  0  0  0  2  0  0  0  0  0  0
  184.0580  173.6580  136.5720 C   0  0  0  0  0  2  0  0  0  0  0  0
  184.4480  174.7910  137.5300 C   0  0  2  0  0  3  0  0  0  0  0  0
  186.8100  174.9710  136.6190 C   0  0  0  0  0  2  0  0  0  0  0  0
  184.5510  179.0110  138.7320 C   0  0  0  0  0  2  0  0  0  0  0  0
  186.9270  179.0580  137.2850 O   0  0  0  0  0  0  0  0  0  0  0  0
  189.6720  174.5780  136.5880 C   0  0  0  0  0  1  0  0  0  0  0  0
  185.7630  176.9790  137.7110 C   0  0  2  0  0  3  0  0  0  0  0  0
  187.6540  175.8400  135.6860 C   0  0  1  0  0  3  0  0  0  0  0  0
  180.2540  178.4380  140.1120 C   0  0  0  0  0  2  0  0  0  0  0  0
  181.5530  179.0290  140.6220 C   0  0  1  0  0  3  0  0  0  0  0  0
  180.6230  178.3010  141.5730 C   0  0  1  0  0  3  0  0  0  0  0  0
  179.8820  179.2780  142.3530 N   0  0  0  0  0  2  0  0  0  0  0  0
  179.5810  179.0610  143.7310 C   0  0  0  0  0  0  0  0  0  0  0  0
  180.0010  177.9010  144.3720 O   0  0  0  0  0  0  0  0  0  0  0  0
  178.9330  179.9280  144.3720 O   0  0  0  0  0  1  0  0  0  0  0  0
  184.8730  178.3030  142.4870 S   0  0  0  0  0  0  0  0  0  0  0  0
  185.0680  178.3640  141.0670 C   0  0  0  0  0  3  0  0  0  0  0  0
  1 10  1  0  0  0  0
  1 19  1  1  0  0  0
  2  9  1  0  0  0  0
  3  2  1  0  0  0  0
  3 16  1  0  0  0  0
  4 20  2  0  0  0  0
  5  4  1  0  0  0  0
  6 14  1  0  0  0  0
  6 32  1  1  0  0  0
  8 23  1  0  0  0  0
  8 21  1  1  0  0  0
 10  7  1  6  0  0  0
 11  9  1  6  0  0  0
 11 10  1  0  0  0  0
 12 18  1  1  0  0  0
 12 17  1  0  0  0  0
 12 22  1  0  0  0  0
 13  8  1  0  0  0  0
 13 15  1  0  0  0  0
 14  7  1  6  0  0  0
 14 25  1  0  0  0  0
 15  5  1  0  0  0  0
 17 16  1  6  0  0  0
 17 11  1  0  0  0  0
 19  6  1  0  0  0  0
 22  4  1  6  0  0  0
 22  1  1  0  0  0  0
 23  5  1  0  0  0  0
 23 18  1  1  0  0  0
 24 26  1  0  0  0  0
 25 24  1  6  0  0  0
 25 26  1  0  0  0  0
 26 27  1  1  0  0  0
 27 28  1  0  0  0  0
 28 29  2  0  0  0  0
 28 30  1  0  0  0  0
 32 31  2  0  0  0  0
M  END
>  <MODEL>
7

>  <REMARK>
 VINA RESULT:      -5.7      4.074      5.273
  Name = 
  3 active torsions:
  status: ('A' for Active; 'I' for Inactive)
    1  A    between atoms: C_7  and  C_19
    2  A    between atoms: C_10  and  C_17
    3  A    between atoms: C_20  and  N_29
                            x       y       z     vdW  Elec       q    Type
                         _______ _______ _______ _____ _____    ______ ____

>  <TORSDO>
F 3

$$$$
=
 OpenBabel11122410493D

 32 37  0  0  1  0  0  0  0  0999 V2000
  187.3490  178.5470  142.8840 C   0  0  1  0  0  3  0  0  0  0  0  0
  183.7850  179.9410  144.8010 O   0  0  0  0  0  0  0  0  0  0  0  0
  183.0990  179.7540  143.5870 C   0  0  0  0  0  2  0  0  0  0  0  0
  187.1900  178.5280  140.3060 C   0  0  0  0  0  0  0  0  0  0  0  0
  186.3060  178.6270  139.1790 N   0  0  0  0  0  0  0  0  0  0  0  0
  189.3850  177.3340  143.8740 C   0  0  2  0  0  3  0  0  0  0  0  0
  187.4980  178.2630  145.1570 O   0  0  0  0  0  0  0  0  0  0  0  0
  184.3590  178.0870  137.9360 C   0  0  1  0  0  3  0  0  0  0  0  0
  185.1480  179.7120  144.5400 C   0  0  0  0  0  2  0  0  0  0  0  0
  186.7890  177.8710  144.0640 N   0  0  1  0  0  0  0  0  0  0  0  0
  185.3740  178.2150  144.2560 C   0  0  2  0  0  3  0  0  0  0  0  0
  185.1480  178.2900  141.7300 C   0  0  2  0  0  3  0  0  0  0  0  0
  185.4810  178.4580  136.9700 C   0  0  0  0  0  2  0  0  0  0  0  0
  188.6200  177.4080  145.2170 C   0  0  2  0  0  3  0  0  0  0  0  0
  186.7530  178.5520  137.8040 C   0  0  0  0  0  2  0  0  0  0  0  0
  183.0980  178.2690  143.2060 C   0  0  0  0  0  2  0  0  0  0  0  0
  184.5380  177.7660  143.0410 C   0  0  2  0  0  3  0  0  0  0  0  0
  184.4190  177.7480  140.5070 C   0  0  0  0  0  2  0  0  0  0  0  0
  188.8810  178.3800  142.8690 C   0  0  0  0  0  2  0  0  0  0  0  0
  188.4210  178.7560  140.1500 O   0  0  0  0  0  0  0  0  0  0  0  0
  184.1570  176.5780  137.8780 C   0  0  0  0  0  1  0  0  0  0  0  0
  186.6570  177.9990  141.6250 C   0  0  2  0  0  3  0  0  0  0  0  0
  184.8600  178.5710  139.2960 C   0  0  1  0  0  3  0  0  0  0  0  0
  188.8340  177.8770  147.6440 C   0  0  0  0  0  2  0  0  0  0  0  0
  189.5570  177.8820  146.3120 C   0  0  1  0  0  3  0  0  0  0  0  0
  189.7850  176.7530  147.2970 C   0  0  1  0  0  3  0  0  0  0  0  0
  191.0520  176.9640  147.9780 N   0  0  0  0  0  2  0  0  0  0  0  0
  192.1670  176.1000  147.7650 C   0  0  0  0  0  0  0  0  0  0  0  0
  192.0730  175.0270  146.8860 O   0  0  0  0  0  0  0  0  0  0  0  0
  193.2460  176.3120  148.3770 O   0  0  0  0  0  1  0  0  0  0  0  0
  190.3990  175.0860  143.2180 S   0  0  0  0  0  0  0  0  0  0  0  0
  189.2680  175.9670  143.2730 C   0  0  0  0  0  3  0  0  0  0  0  0
  1 19  1  6  0  0  0
  1 10  1  0  0  0  0
  3  2  1  0  0  0  0
  5 23  1  0  0  0  0
  5  4  1  0  0  0  0
  6 32  1  6  0  0  0
  6 14  1  0  0  0  0
  8 21  1  1  0  0  0
  8 23  1  0  0  0  0
  9  2  1  0  0  0  0
 10 11  1  0  0  0  0
 10  7  1  1  0  0  0
 11  9  1  6  0  0  0
 12 18  1  6  0  0  0
 12 17  1  0  0  0  0
 13 15  1  0  0  0  0
 13  8  1  0  0  0  0
 14  7  1  6  0  0  0
 14 25  1  0  0  0  0
 15  5  1  0  0  0  0
 16  3  1  0  0  0  0
 17 16  1  1  0  0  0
 17 11  1  0  0  0  0
 19  6  1  0  0  0  0
 20  4  2  0  0  0  0
 22  4  1  6  0  0  0
 22 12  1  0  0  0  0
 22  1  1  0  0  0  0
 23 18  1  1  0  0  0
 25 26  1  0  0  0  0
 25 24  1  1  0  0  0
 26 24  1  0  0  0  0
 26 27  1  1  0  0  0
 28 27  1  0  0  0  0
 28 30  1  0  0  0  0
 29 28  2  0  0  0  0
 31 32  2  0  0  0  0
M  END
>  <MODEL>
8

>  <REMARK>
 VINA RESULT:      -5.7      3.873      6.581
  Name = 
  3 active torsions:
  status: ('A' for Active; 'I' for Inactive)
    1  A    between atoms: C_7  and  C_19
    2  A    between atoms: C_10  and  C_17
    3  A    between atoms: C_20  and  N_29
                            x       y       z     vdW  Elec       q    Type
                         _______ _______ _______ _____ _____    ______ ____

>  <TORSDO>
F 3

$$$$
=
 OpenBabel11122410493D

 32 37  0  0  1  0  0  0  0  0999 V2000
  189.6930  177.4510  139.1660 C   0  0  1  0  0  3  0  0  0  0  0  0
  191.5550  178.2560  142.9360 O   0  0  0  0  0  0  0  0  0  0  0  0
  190.2830  178.5460  143.4630 C   0  0  0  0  0  2  0  0  0  0  0  0
  187.2800  178.3550  138.9970 C   0  0  0  0  0  0  0  0  0  0  0  0
  186.1690  178.8920  139.7310 N   0  0  0  0  0  0  0  0  0  0  0  0
  190.4120  175.8640  137.2800 C   0  0  2  0  0  3  0  0  0  0  0  0
  191.7150  176.3730  139.3080 O   0  0  0  0  0  0  0  0  0  0  0  0
  184.5970  178.9280  141.5090 C   0  0  1  0  0  3  0  0  0  0  0  0
  191.3890  178.0640  141.5520 C   0  0  0  0  0  2  0  0  0  0  0  0
  190.4800  176.4300  139.8760 N   0  0  1  0  0  0  0  0  0  0  0  0
  190.6170  176.7560  141.3010 C   0  0  2  0  0  3  0  0  0  0  0  0
  188.2770  177.7330  141.2060 C   0  0  2  0  0  3  0  0  0  0  0  0
  183.9650  179.5590  140.2710 C   0  0  0  0  0  2  0  0  0  0  0  0
  191.5940  175.4960  138.2080 C   0  0  2  0  0  3  0  0  0  0  0  0
  184.9190  179.2860  139.1140 C   0  0  0  0  0  2  0  0  0  0  0  0
  189.3980  177.2950  143.4260 C   0  0  0  0  0  2  0  0  0  0  0  0
  189.2330  176.8100  141.9800 C   0  0  2  0  0  3  0  0  0  0  0  0
  186.8640  177.6970  141.7770 C   0  0  0  0  0  2  0  0  0  0  0  0
  189.7970  177.2220  137.6460 C   0  0  0  0  0  2  0  0  0  0  0  0
  187.3600  178.5600  137.7550 O   0  0  0  0  0  0  0  0  0  0  0  0
  183.9800  177.5490  141.7110 C   0  0  0  0  0  1  0  0  0  0  0  0
  188.2500  177.4210  139.6970 C   0  0  2  0  0  3  0  0  0  0  0  0
  186.0890  178.8720  141.1800 C   0  0  1  0  0  3  0  0  0  0  0  0
  194.0700  175.4360  138.3600 C   0  0  0  0  0  2  0  0  0  0  0  0
  192.8880  175.5030  137.4150 C   0  0  1  0  0  3  0  0  0  0  0  0
  193.6140  174.1900  137.6330 C   0  0  1  0  0  3  0  0  0  0  0  0
  194.4930  173.9390  136.5040 N   0  0  0  0  0  2  0  0  0  0  0  0
  195.6410  173.1000  136.6230 C   0  0  0  0  0  0  0  0  0  0  0  0
  195.9470  172.4870  137.8320 O   0  0  0  0  0  1  0  0  0  0  0  0
  196.3820  172.9110  135.6230 O   0  0  0  0  0  0  0  0  0  0  0  0
  188.0820  175.0050  136.6920 S   0  0  0  0  0  0  0  0  0  0  0  0
  189.3520  174.8060  137.3290 C   0  0  0  0  0  3  0  0  0  0  0  0
  1 19  1  6  0  0  0
  1 22  1  0  0  0  0
  1 10  1  0  0  0  0
  2  3  1  0  0  0  0
  4  5  1  0  0  0  0
  5 23  1  0  0  0  0
  6 32  1  1  0  0  0
  6 19  1  0  0  0  0
  6 14  1  0  0  0  0
  8 21  1  6  0  0  0
  9  2  1  0  0  0  0
 10  7  1  6  0  0  0
 10 11  1  0  0  0  0
 11  9  1  6  0  0  0
 11 17  1  0  0  0  0
 12 18  1  1  0  0  0
 12 17  1  0  0  0  0
 13  8  1  0  0  0  0
 14  7  1  1  0  0  0
 15  5  1  0  0  0  0
 15 13  1  0  0  0  0
 16  3  1  0  0  0  0
 17 16  1  1  0  0  0
 20  4  2  0  0  0  0
 22  4  1  6  0  0  0
 22 12  1  0  0  0  0
 23  8  1  0  0  0  0
 23 18  1  6  0  0  0
 25 26  1  0  0  0  0
 25 14  1  0  0  0  0
 25 24  1  1  0  0  0
 26 27  1  6  0  0  0
 26 24  1  0  0  0  0
 27 28  1  0  0  0  0
 28 29  1  0  0  0  0
 30 28  2  0  0  0  0
 31 32  2  0  0  0  0
M  END
>  <MODEL>
9

>  <REMARK>
 VINA RESULT:      -5.6      2.805      8.512
  Name = 
  3 active torsions:
  status: ('A' for Active; 'I' for Inactive)
    1  A    between atoms: C_7  and  C_19
    2  A    between atoms: C_10  and  C_17
    3  A    between atoms: C_20  and  N_29
                            x       y       z     vdW  Elec       q    Type
                         _______ _______ _______ _____ _____    ______ ____

>  <TORSDO>
F 3

$$$$
