=
 OpenBabel11122411013D

 31 35  0  0  1  0  0  0  0  0999 V2000
  193.4240  175.3410  135.7790 C   0  0  0  0  0  0  0  0  0  0  0  0
  190.1060  176.8110  136.9190 C   0  0  2  0  0  3  0  0  0  0  0  0
  189.0700  175.7030  136.7830 C   0  0  0  0  0  0  0  0  0  0  0  0
  188.3550  173.5670  135.8660 C   0  0  0  0  0  0  0  0  0  0  0  0
  191.5250  176.2910  136.9600 C   0  0  0  0  0  0  0  0  0  0  0  0
  194.1170  175.2170  136.9840 C   0  0  0  0  0  3  0  0  0  0  0  0
  189.3260  174.5600  136.0090 C   0  0  0  0  0  3  0  0  0  0  0  0
  190.1930  177.0040  139.4300 C   0  0  2  0  0  3  0  0  0  0  0  0
  194.0140  174.9280  134.5940 O   0  0  0  0  0  1  0  0  0  0  0  0
  187.4960  177.0010  138.1180 O   0  0  0  0  0  0  0  0  0  0  0  0
  188.6990  172.1410  134.9120 Cl  0  0  0  0  0  0  0  0  0  0  0  0
  191.6960  176.7300  139.4650 C   0  0  0  0  0  2  0  0  0  0  0  0
  189.8180  177.7240  138.1280 C   0  0  2  0  0  3  0  0  0  0  0  0
  192.1340  175.8760  135.7680 C   0  0  0  0  0  3  0  0  0  0  0  0
  187.1110  173.7110  136.4840 C   0  0  0  0  0  3  0  0  0  0  0  0
  192.2310  176.1680  138.1790 C   0  0  0  0  0  0  0  0  0  0  0  0
  193.5260  175.6400  138.1780 C   0  0  0  0  0  3  0  0  0  0  0  0
  188.3470  178.1440  138.1130 C   0  0  0  0  0  2  0  0  0  0  0  0
  187.7990  175.8570  137.3740 C   0  0  0  0  0  0  0  0  0  0  0  0
  186.8330  174.8550  137.2350 C   0  0  0  0  0  3  0  0  0  0  0  0
  190.2100  176.1330  142.1530 O   0  0  0  0  0  0  0  0  0  0  0  0
  189.8600  177.3210  141.9230 C   0  0  0  0  0  0  0  0  0  0  0  0
  189.8250  177.8160  140.5820 N   0  0  0  0  0  2  0  0  0  0  0  0
  190.8770  177.5100  145.5670 C   0  0  1  0  0  3  0  0  0  0  0  0
  190.6380  179.0340  143.5870 C   0  0  0  0  0  2  0  0  0  0  0  0
  187.7400  176.6360  143.7370 O   0  0  0  0  0  1  0  0  0  0  0  0
  191.8140  176.7060  146.3270 N   0  0  0  0  0  1  0  0  0  0  0  0
  191.6080  178.1850  144.4100 C   0  0  0  0  0  2  0  0  0  0  0  0
  188.7670  177.4490  144.2200 C   0  0  2  0  0  3  0  0  0  0  0  0
  189.4590  178.2020  143.0710 C   0  0  2  0  0  3  0  0  0  0  0  0
  189.7560  176.6200  145.0370 C   0  0  0  0  0  2  0  0  0  0  0  0
  1  6  1  0  0  0  0
  2  3  1  1  0  0  0
  2  5  1  0  0  0  0
  2 13  1  0  0  0  0
  3 19  1  0  0  0  0
  4  7  1  0  0  0  0
  4 15  2  0  0  0  0
  5 16  2  0  0  0  0
  6 17  2  0  0  0  0
  7  3  2  0  0  0  0
  8 12  1  0  0  0  0
  8 23  1  1  0  0  0
  9  1  1  0  0  0  0
 11  4  1  0  0  0  0
 13 18  1  1  0  0  0
 13  8  1  0  0  0  0
 14  1  2  0  0  0  0
 14  5  1  0  0  0  0
 15 20  1  0  0  0  0
 16 12  1  0  0  0  0
 17 16  1  0  0  0  0
 18 10  1  0  0  0  0
 19 10  1  0  0  0  0
 20 19  2  0  0  0  0
 22 21  2  0  0  0  0
 23 22  1  0  0  0  0
 24 27  1  6  0  0  0
 25 28  1  0  0  0  0
 28 24  1  0  0  0  0
 29 26  1  6  0  0  0
 29 31  1  0  0  0  0
 30 22  1  6  0  0  0
 30 25  1  0  0  0  0
 30 29  1  0  0  0  0
 31 24  1  0  0  0  0
M  END
>  <MODEL>
1

>  <REMARK>
 VINA RESULT:      -8.0      0.000      0.000
  Name = 
  2 active torsions:
  status: ('A' for Active; 'I' for Inactive)
    1  A    between atoms: C_5  and  C_30
    2  A    between atoms: C_10  and  N_16
                            x       y       z     vdW  Elec       q    Type
                         _______ _______ _______ _____ _____    ______ ____

>  <TORSDO>
F 2

$$$$
=
 OpenBabel11122411013D

 31 35  0  0  1  0  0  0  0  0999 V2000
  189.9510  175.8820  142.7890 C   0  0  0  0  0  0  0  0  0  0  0  0
  186.5570  177.0390  144.0590 C   0  0  2  0  0  3  0  0  0  0  0  0
  186.8090  177.7620  145.3740 C   0  0  0  0  0  0  0  0  0  0  0  0
  188.2270  178.2550  147.2890 C   0  0  0  0  0  0  0  0  0  0  0  0
  187.7960  176.9270  143.2000 C   0  0  0  0  0  0  0  0  0  0  0  0
  190.1660  176.7400  141.7100 C   0  0  0  0  0  3  0  0  0  0  0  0
  188.0220  177.6110  146.0660 C   0  0  0  0  0  3  0  0  0  0  0  0
  185.8470  178.9910  142.6310 C   0  0  2  0  0  3  0  0  0  0  0  0
  190.9100  174.9390  143.1290 O   0  0  0  0  0  1  0  0  0  0  0  0
  184.5480  178.6730  145.3160 O   0  0  0  0  0  0  0  0  0  0  0  0
  189.7520  178.0690  148.1260 Cl  0  0  0  0  0  0  0  0  0  0  0  0
  186.9510  178.7290  141.6080 C   0  0  0  0  0  2  0  0  0  0  0  0
  185.3930  177.6700  143.2670 C   0  0  2  0  0  3  0  0  0  0  0  0
  188.7700  175.9740  143.5300 C   0  0  0  0  0  3  0  0  0  0  0  0
  187.2170  179.0460  147.8410 C   0  0  0  0  0  3  0  0  0  0  0  0
  188.0160  177.7920  142.1040 C   0  0  0  0  0  0  0  0  0  0  0  0
  189.1970  177.6840  141.3630 C   0  0  0  0  0  3  0  0  0  0  0  0
  184.1920  177.8680  144.1940 C   0  0  0  0  0  2  0  0  0  0  0  0
  185.7820  178.5340  145.9580 C   0  0  0  0  0  0  0  0  0  0  0  0
  185.9970  179.1830  147.1770 C   0  0  0  0  0  3  0  0  0  0  0  0
  184.0330  177.7470  140.8050 O   0  0  0  0  0  0  0  0  0  0  0  0
  183.8500  178.9650  141.0710 C   0  0  0  0  0  0  0  0  0  0  0  0
  184.7250  179.6470  141.9730 N   0  0  0  0  0  2  0  0  0  0  0  0
  181.4510  178.1100  138.2660 C   0  0  1  0  0  3  0  0  0  0  0  0
  181.3790  178.9750  140.6210 C   0  0  0  0  0  2  0  0  0  0  0  0
  184.2030  180.5920  138.7290 O   0  0  0  0  0  1  0  0  0  0  0  0
  181.3460  176.9180  137.4460 N   0  0  0  0  0  1  0  0  0  0  0  0
  181.2630  177.7350  139.7330 C   0  0  0  0  0  2  0  0  0  0  0  0
  182.9530  180.0020  138.9230 C   0  0  2  0  0  3  0  0  0  0  0  0
  182.7150  179.6960  140.4120 C   0  0  2  0  0  3  0  0  0  0  0  0
  182.8190  178.7530  138.0550 C   0  0  0  0  0  2  0  0  0  0  0  0
  1  9  1  0  0  0  0
  1 14  1  0  0  0  0
  2  5  1  6  0  0  0
  2  3  1  0  0  0  0
  3 19  2  0  0  0  0
  3  7  1  0  0  0  0
  4 15  1  0  0  0  0
  4 11  1  0  0  0  0
  5 14  2  0  0  0  0
  6  1  2  0  0  0  0
  7  4  2  0  0  0  0
  8 23  1  6  0  0  0
  8 13  1  0  0  0  0
 10 19  1  0  0  0  0
 12 16  1  0  0  0  0
 12  8  1  0  0  0  0
 13  2  1  0  0  0  0
 13 18  1  1  0  0  0
 16  5  1  0  0  0  0
 17  6  1  0  0  0  0
 17 16  2  0  0  0  0
 18 10  1  0  0  0  0
 19 20  1  0  0  0  0
 20 15  2  0  0  0  0
 21 22  2  0  0  0  0
 22 23  1  0  0  0  0
 24 27  1  6  0  0  0
 24 28  1  0  0  0  0
 28 25  1  0  0  0  0
 29 26  1  1  0  0  0
 29 30  1  0  0  0  0
 30 25  1  0  0  0  0
 30 22  1  6  0  0  0
 31 24  1  0  0  0  0
 31 29  1  0  0  0  0
M  END
>  <MODEL>
2

>  <REMARK>
 VINA RESULT:      -7.7      5.486      9.042
  Name = 
  2 active torsions:
  status: ('A' for Active; 'I' for Inactive)
    1  A    between atoms: C_5  and  C_30
    2  A    between atoms: C_10  and  N_16
                            x       y       z     vdW  Elec       q    Type
                         _______ _______ _______ _____ _____    ______ ____

>  <TORSDO>
F 2

$$$$
=
 OpenBabel11122411013D

 31 35  0  0  1  0  0  0  0  0999 V2000
  191.0210  176.2860  143.4910 C   0  0  0  0  0  0  0  0  0  0  0  0
  187.2900  177.0050  143.6580 C   0  0  2  0  0  3  0  0  0  0  0  0
  187.0490  177.7490  144.9640 C   0  0  0  0  0  0  0  0  0  0  0  0
  187.7620  178.4090  147.1950 C   0  0  0  0  0  0  0  0  0  0  0  0
  188.7320  177.0510  143.2100 C   0  0  0  0  0  0  0  0  0  0  0  0
  191.4430  177.1680  142.4950 C   0  0  0  0  0  3  0  0  0  0  0  0
  188.0090  177.7490  145.9880 C   0  0  0  0  0  3  0  0  0  0  0  0
  186.8070  178.8570  142.0190 C   0  0  2  0  0  3  0  0  0  0  0  0
  191.9420  175.4700  144.1310 O   0  0  0  0  0  1  0  0  0  0  0  0
  184.8160  178.3690  144.2080 O   0  0  0  0  0  0  0  0  0  0  0  0
  188.9790  178.4130  148.4520 Cl  0  0  0  0  0  0  0  0  0  0  0  0
  188.1890  178.7390  141.3780 C   0  0  0  0  0  2  0  0  0  0  0  0
  186.3470  177.4880  142.5370 C   0  0  2  0  0  3  0  0  0  0  0  0
  189.6710  176.2270  143.8450 C   0  0  0  0  0  3  0  0  0  0  0  0
  186.5460  179.0650  147.3960 C   0  0  0  0  0  3  0  0  0  0  0  0
  189.1630  177.9410  142.1990 C   0  0  0  0  0  0  0  0  0  0  0  0
  190.5150  177.9840  141.8440 C   0  0  0  0  0  3  0  0  0  0  0  0
  184.9100  177.5300  143.0600 C   0  0  0  0  0  2  0  0  0  0  0  0
  185.8100  178.3840  145.1910 C   0  0  0  0  0  0  0  0  0  0  0  0
  185.5710  179.0510  146.3960 C   0  0  0  0  0  3  0  0  0  0  0  0
  186.2930  177.7090  139.4520 O   0  0  0  0  0  0  0  0  0  0  0  0
  185.6470  178.7440  139.7680 C   0  0  0  0  0  0  0  0  0  0  0  0
  185.8620  179.3690  141.0360 N   0  0  0  0  0  2  0  0  0  0  0  0
  182.1290  177.8160  138.7140 C   0  0  1  0  0  3  0  0  0  0  0  0
  183.4020  179.8360  139.4880 C   0  0  0  0  0  2  0  0  0  0  0  0
  185.4670  177.8550  137.0420 O   0  0  0  0  0  1  0  0  0  0  0  0
  181.2710  176.7290  139.1450 N   0  0  0  0  0  1  0  0  0  0  0  0
  182.4900  178.6850  139.9160 C   0  0  0  0  0  2  0  0  0  0  0  0
  184.3140  178.3770  137.6280 C   0  0  2  0  0  3  0  0  0  0  0  0
  184.6670  179.3230  138.7890 C   0  0  2  0  0  3  0  0  0  0  0  0
  183.3910  177.2450  138.0750 C   0  0  0  0  0  2  0  0  0  0  0  0
  1 14  1  0  0  0  0
  1  9  1  0  0  0  0
  2  5  1  6  0  0  0
  2  3  1  0  0  0  0
  3 19  2  0  0  0  0
  3  7  1  0  0  0  0
  4 15  1  0  0  0  0
  4 11  1  0  0  0  0
  5 14  2  0  0  0  0
  6  1  2  0  0  0  0
  7  4  2  0  0  0  0
  8 23  1  6  0  0  0
  8 13  1  0  0  0  0
 10 19  1  0  0  0  0
 12  8  1  0  0  0  0
 12 16  1  0  0  0  0
 13 18  1  1  0  0  0
 13  2  1  0  0  0  0
 16  5  1  0  0  0  0
 17 16  2  0  0  0  0
 17  6  1  0  0  0  0
 18 10  1  0  0  0  0
 19 20  1  0  0  0  0
 20 15  2  0  0  0  0
 21 22  2  0  0  0  0
 22 23  1  0  0  0  0
 24 27  1  1  0  0  0
 24 28  1  0  0  0  0
 25 28  1  0  0  0  0
 29 26  1  1  0  0  0
 29 31  1  0  0  0  0
 29 30  1  0  0  0  0
 30 25  1  0  0  0  0
 30 22  1  1  0  0  0
 31 24  1  0  0  0  0
M  END
>  <MODEL>
3

>  <REMARK>
 VINA RESULT:      -7.5      5.382      8.514
  Name = 
  2 active torsions:
  status: ('A' for Active; 'I' for Inactive)
    1  A    between atoms: C_5  and  C_30
    2  A    between atoms: C_10  and  N_16
                            x       y       z     vdW  Elec       q    Type
                         _______ _______ _______ _____ _____    ______ ____

>  <TORSDO>
F 2

$$$$
=
 OpenBabel11122411013D

 31 35  0  0  1  0  0  0  0  0999 V2000
  191.3730  176.6350  145.1920 C   0  0  0  0  0  0  0  0  0  0  0  0
  187.8010  176.9290  143.9180 C   0  0  2  0  0  3  0  0  0  0  0  0
  187.0270  177.7120  144.9710 C   0  0  0  0  0  0  0  0  0  0  0  0
  186.7980  178.5700  147.2350 C   0  0  0  0  0  0  0  0  0  0  0  0
  189.2970  177.1160  144.0250 C   0  0  0  0  0  0  0  0  0  0  0  0
  192.0580  177.5040  144.3420 C   0  0  0  0  0  3  0  0  0  0  0  0
  187.5330  177.8780  146.2700 C   0  0  0  0  0  3  0  0  0  0  0  0
  187.8060  178.6200  142.0510 C   0  0  2  0  0  3  0  0  0  0  0  0
  192.0550  175.9660  146.1980 O   0  0  0  0  0  1  0  0  0  0  0  0
  185.1920  178.0290  143.3970 O   0  0  0  0  0  0  0  0  0  0  0  0
  187.4530  178.7830  148.8440 Cl  0  0  0  0  0  0  0  0  0  0  0  0
  189.3330  178.6270  141.9720 C   0  0  0  0  0  2  0  0  0  0  0  0
  187.3070  177.2380  142.4910 C   0  0  2  0  0  3  0  0  0  0  0  0
  189.9980  176.4410  145.0330 C   0  0  0  0  0  3  0  0  0  0  0  0
  185.5430  179.0930  146.9160 C   0  0  0  0  0  3  0  0  0  0  0  0
  189.9950  177.9930  143.1620 C   0  0  0  0  0  0  0  0  0  0  0  0
  191.3720  178.1710  143.3240 C   0  0  0  0  0  3  0  0  0  0  0  0
  185.7800  177.1440  142.4460 C   0  0  0  0  0  2  0  0  0  0  0  0
  185.7430  178.2110  144.6690 C   0  0  0  0  0  0  0  0  0  0  0  0
  185.0160  178.9120  145.6360 C   0  0  0  0  0  3  0  0  0  0  0  0
  188.3910  177.2850  139.5910 O   0  0  0  0  0  0  0  0  0  0  0  0
  187.5850  178.2530  139.5520 C   0  0  0  0  0  0  0  0  0  0  0  0
  187.2560  178.9660  140.7470 N   0  0  0  0  0  2  0  0  0  0  0  0
  187.5280  176.6870  136.1040 C   0  0  1  0  0  3  0  0  0  0  0  0
  185.9220  177.6730  137.7620 C   0  0  0  0  0  2  0  0  0  0  0  0
  189.0550  179.7530  137.5920 O   0  0  0  0  0  1  0  0  0  0  0  0
  188.1080  175.4490  135.6200 N   0  0  0  0  0  1  0  0  0  0  0  0
  186.5430  176.3810  137.2280 C   0  0  0  0  0  2  0  0  0  0  0  0
  188.0420  178.9110  137.1340 C   0  0  2  0  0  3  0  0  0  0  0  0
  186.9950  178.6610  138.2330 C   0  0  2  0  0  3  0  0  0  0  0  0
  188.6370  177.6070  136.6060 C   0  0  0  0  0  2  0  0  0  0  0  0
  1  9  1  0  0  0  0
  2  5  1  6  0  0  0
  2  3  1  0  0  0  0
  3  7  1  0  0  0  0
  4 11  1  0  0  0  0
  5 14  2  0  0  0  0
  6  1  2  0  0  0  0
  7  4  2  0  0  0  0
  8 23  1  6  0  0  0
  8 13  1  0  0  0  0
 10 19  1  0  0  0  0
 12  8  1  0  0  0  0
 12 16  1  0  0  0  0
 13 18  1  1  0  0  0
 13  2  1  0  0  0  0
 14  1  1  0  0  0  0
 15  4  1  0  0  0  0
 16 17  2  0  0  0  0
 16  5  1  0  0  0  0
 17  6  1  0  0  0  0
 18 10  1  0  0  0  0
 19  3  2  0  0  0  0
 19 20  1  0  0  0  0
 20 15  2  0  0  0  0
 22 21  2  0  0  0  0
 22 23  1  0  0  0  0
 24 27  1  1  0  0  0
 24 31  1  0  0  0  0
 24 28  1  0  0  0  0
 25 30  1  0  0  0  0
 28 25  1  0  0  0  0
 29 26  1  1  0  0  0
 29 30  1  0  0  0  0
 30 22  1  1  0  0  0
 31 29  1  0  0  0  0
M  END
>  <MODEL>
4

>  <REMARK>
 VINA RESULT:      -7.3      4.382      8.379
  Name = 
  2 active torsions:
  status: ('A' for Active; 'I' for Inactive)
    1  A    between atoms: C_5  and  C_30
    2  A    between atoms: C_10  and  N_16
                            x       y       z     vdW  Elec       q    Type
                         _______ _______ _______ _____ _____    ______ ____

>  <TORSDO>
F 2

$$$$
=
 OpenBabel11122411013D

 31 35  0  0  1  0  0  0  0  0999 V2000
  186.0200  178.2350  138.3750 C   0  0  0  0  0  0  0  0  0  0  0  0
  189.6390  177.8160  139.4680 C   0  0  2  0  0  3  0  0  0  0  0  0
  189.6040  177.2980  140.8990 C   0  0  0  0  0  0  0  0  0  0  0  0
  188.4270  176.9360  142.9970 C   0  0  0  0  0  0  0  0  0  0  0  0
  188.3380  177.6000  138.7290 C   0  0  0  0  0  0  0  0  0  0  0  0
  185.8660  177.1840  137.4690 C   0  0  0  0  0  3  0  0  0  0  0  0
  188.4370  177.3850  141.6740 C   0  0  0  0  0  3  0  0  0  0  0  0
  190.5460  175.7770  138.3000 C   0  0  2  0  0  3  0  0  0  0  0  0
  184.9500  179.0710  138.6560 O   0  0  0  0  0  1  0  0  0  0  0  0
  191.9710  176.7310  140.7600 O   0  0  0  0  0  0  0  0  0  0  0  0
  186.9580  177.0360  143.9420 Cl  0  0  0  0  0  0  0  0  0  0  0  0
  189.3420  175.6970  137.3620 C   0  0  0  0  0  2  0  0  0  0  0  0
  190.8280  177.2380  138.6740 C   0  0  2  0  0  3  0  0  0  0  0  0
  187.2520  178.4420  139.0010 C   0  0  0  0  0  3  0  0  0  0  0  0
  189.5880  176.4050  143.5630 C   0  0  0  0  0  3  0  0  0  0  0  0
  188.1800  176.5390  137.8080 C   0  0  0  0  0  0  0  0  0  0  0  0
  186.9460  176.3460  137.1790 C   0  0  0  0  0  3  0  0  0  0  0  0
  192.1100  177.3780  139.4970 C   0  0  0  0  0  2  0  0  0  0  0  0
  190.7810  176.7950  141.4910 C   0  0  0  0  0  0  0  0  0  0  0  0
  190.7630  176.3370  142.8120 C   0  0  0  0  0  3  0  0  0  0  0  0
  191.4240  176.3560  135.6410 O   0  0  0  0  0  0  0  0  0  0  0  0
  192.0970  175.5270  136.3100 C   0  0  0  0  0  0  0  0  0  0  0  0
  191.7070  175.1890  137.6440 N   0  0  0  0  0  2  0  0  0  0  0  0
  194.9240  173.3850  137.6390 C   0  0  1  0  0  3  0  0  0  0  0  0
  193.2380  173.3530  135.7810 C   0  0  0  0  0  2  0  0  0  0  0  0
  194.6620  176.8140  136.1830 O   0  0  0  0  0  1  0  0  0  0  0  0
  195.2030  172.9190  138.9840 N   0  0  0  0  0  1  0  0  0  0  0  0
  193.5590  172.8680  137.1950 C   0  0  0  0  0  2  0  0  0  0  0  0
  194.6400  175.4190  136.2070 C   0  0  2  0  0  3  0  0  0  0  0  0
  193.2980  174.8810  135.6810 C   0  0  2  0  0  3  0  0  0  0  0  0
  194.9470  174.9100  137.6150 C   0  0  0  0  0  2  0  0  0  0  0  0
  1  9  1  0  0  0  0
  1 14  1  0  0  0  0
  2  5  1  6  0  0  0
  2  3  1  0  0  0  0
  3 19  2  0  0  0  0
  3  7  1  0  0  0  0
  4 15  1  0  0  0  0
  4 11  1  0  0  0  0
  5 14  2  0  0  0  0
  6  1  2  0  0  0  0
  7  4  2  0  0  0  0
  8 23  1  6  0  0  0
  8 13  1  0  0  0  0
 10 19  1  0  0  0  0
 12 16  1  0  0  0  0
 12  8  1  0  0  0  0
 13  2  1  0  0  0  0
 13 18  1  1  0  0  0
 16  5  1  0  0  0  0
 17  6  1  0  0  0  0
 17 16  2  0  0  0  0
 18 10  1  0  0  0  0
 19 20  1  0  0  0  0
 20 15  2  0  0  0  0
 21 22  2  0  0  0  0
 22 23  1  0  0  0  0
 24 27  1  1  0  0  0
 25 28  1  0  0  0  0
 28 24  1  0  0  0  0
 29 26  1  1  0  0  0
 29 31  1  0  0  0  0
 30 25  1  0  0  0  0
 30 29  1  0  0  0  0
 30 22  1  1  0  0  0
 31 24  1  0  0  0  0
M  END
>  <MODEL>
5

>  <REMARK>
 VINA RESULT:      -7.1      3.217      7.292
  Name = 
  2 active torsions:
  status: ('A' for Active; 'I' for Inactive)
    1  A    between atoms: C_5  and  C_30
    2  A    between atoms: C_10  and  N_16
                            x       y       z     vdW  Elec       q    Type
                         _______ _______ _______ _____ _____    ______ ____

>  <TORSDO>
F 2

$$$$
=
 OpenBabel11122411013D

 31 35  0  0  1  0  0  0  0  0999 V2000
  183.6850  178.9960  144.2570 C   0  0  0  0  0  0  0  0  0  0  0  0
  182.7640  177.8400  140.7530 C   0  0  2  0  0  3  0  0  0  0  0  0
  181.6240  178.7340  140.2860 C   0  0  0  0  0  0  0  0  0  0  0  0
  179.8230  180.3000  140.7590 C   0  0  0  0  0  0  0  0  0  0  0  0
  183.5510  178.4370  141.8970 C   0  0  0  0  0  0  0  0  0  0  0  0
  184.9150  179.6210  144.0440 C   0  0  0  0  0  3  0  0  0  0  0  0
  180.8890  179.5090  141.1970 C   0  0  0  0  0  3  0  0  0  0  0  0
  184.5840  178.6280  139.1990 C   0  0  2  0  0  3  0  0  0  0  0  0
  183.1330  178.9660  145.5300 O   0  0  0  0  0  1  0  0  0  0  0  0
  181.9230  177.9360  138.0020 O   0  0  0  0  0  0  0  0  0  0  0  0
  178.9310  181.2730  141.9070 Cl  0  0  0  0  0  0  0  0  0  0  0  0
  185.5050  179.0030  140.3600 C   0  0  0  0  0  2  0  0  0  0  0  0
  183.6970  177.4400  139.5910 C   0  0  2  0  0  3  0  0  0  0  0  0
  183.0070  178.4060  143.1880 C   0  0  0  0  0  3  0  0  0  0  0  0
  179.4720  180.3140  139.4080 C   0  0  0  0  0  3  0  0  0  0  0  0
  184.7990  179.0660  141.6850 C   0  0  0  0  0  0  0  0  0  0  0  0
  185.4740  179.6460  142.7650 C   0  0  0  0  0  3  0  0  0  0  0  0
  182.8590  176.9420  138.4120 C   0  0  0  0  0  2  0  0  0  0  0  0
  181.2390  178.7270  138.9290 C   0  0  0  0  0  0  0  0  0  0  0  0
  180.1780  179.5270  138.4950 C   0  0  0  0  0  3  0  0  0  0  0  0
  187.4150  178.2290  139.1960 O   0  0  0  0  0  0  0  0  0  0  0  0
  186.8070  178.1020  138.1000 C   0  0  0  0  0  0  0  0  0  0  0  0
  185.3910  178.2940  138.0330 N   0  0  0  0  0  2  0  0  0  0  0  0
  189.9060  176.0290  137.4320 C   0  0  1  0  0  3  0  0  0  0  0  0
  187.5640  176.2660  136.5620 C   0  0  0  0  0  2  0  0  0  0  0  0
  189.0550  179.6590  137.2190 O   0  0  0  0  0  1  0  0  0  0  0  0
  190.7540  175.2810  138.3410 N   0  0  0  0  0  1  0  0  0  0  0  0
  188.4810  175.4870  137.5060 C   0  0  0  0  0  2  0  0  0  0  0  0
  189.0310  178.3070  136.8740 C   0  0  2  0  0  3  0  0  0  0  0  0
  187.5890  177.7680  136.8620 C   0  0  2  0  0  3  0  0  0  0  0  0
  189.9320  177.5060  137.8120 C   0  0  0  0  0  2  0  0  0  0  0  0
  1  9  1  0  0  0  0
  2  3  1  6  0  0  0
  2  5  1  0  0  0  0
  3  7  1  0  0  0  0
  4  7  2  0  0  0  0
  4 11  1  0  0  0  0
  5 14  1  0  0  0  0
  6  1  1  0  0  0  0
  8 23  1  6  0  0  0
  8 13  1  0  0  0  0
  8 12  1  0  0  0  0
 10 18  1  0  0  0  0
 10 19  1  0  0  0  0
 12 16  1  0  0  0  0
 13 18  1  6  0  0  0
 13  2  1  0  0  0  0
 14  1  2  0  0  0  0
 15  4  1  0  0  0  0
 16  5  2  0  0  0  0
 16 17  1  0  0  0  0
 17  6  2  0  0  0  0
 19  3  2  0  0  0  0
 20 19  1  0  0  0  0
 20 15  2  0  0  0  0
 22 21  2  0  0  0  0
 23 22  1  0  0  0  0
 24 28  1  0  0  0  0
 24 31  1  0  0  0  0
 24 27  1  1  0  0  0
 25 30  1  0  0  0  0
 25 28  1  0  0  0  0
 29 26  1  1  0  0  0
 29 31  1  0  0  0  0
 30 29  1  0  0  0  0
 30 22  1  1  0  0  0
M  END
>  <MODEL>
6

>  <REMARK>
 VINA RESULT:      -7.1      5.747      9.156
  Name = 
  2 active torsions:
  status: ('A' for Active; 'I' for Inactive)
    1  A    between atoms: C_5  and  C_30
    2  A    between atoms: C_10  and  N_16
                            x       y       z     vdW  Elec       q    Type
                         _______ _______ _______ _____ _____    ______ ____

>  <TORSDO>
F 2

$$$$
=
 OpenBabel11122411013D

 31 35  0  0  1  0  0  0  0  0999 V2000
  179.6760  178.9100  142.2310 C   0  0  0  0  0  0  0  0  0  0  0  0
  183.0660  179.1820  140.5280 C   0  0  2  0  0  3  0  0  0  0  0  0
  184.1100  178.8410  141.5820 C   0  0  0  0  0  0  0  0  0  0  0  0
  184.7670  178.5600  143.9070 C   0  0  0  0  0  0  0  0  0  0  0  0
  181.6840  178.6820  140.8830 C   0  0  0  0  0  0  0  0  0  0  0  0
  179.1560  177.7460  141.6620 C   0  0  0  0  0  3  0  0  0  0  0  0
  183.7900  178.8430  142.9490 C   0  0  0  0  0  3  0  0  0  0  0  0
  183.3130  177.1770  139.0210 C   0  0  2  0  0  3  0  0  0  0  0  0
  178.9450  179.6010  143.1860 O   0  0  0  0  0  1  0  0  0  0  0  0
  185.8060  178.6270  139.8430 O   0  0  0  0  0  0  0  0  0  0  0  0
  184.3440  178.5490  145.6050 Cl  0  0  0  0  0  0  0  0  0  0  0  0
  181.8380  176.8030  139.1680 C   0  0  0  0  0  2  0  0  0  0  0  0
  183.4830  178.6990  139.1240 C   0  0  2  0  0  3  0  0  0  0  0  0
  180.9330  179.3760  141.8420 C   0  0  0  0  0  3  0  0  0  0  0  0
  186.0770  178.2850  143.5100 C   0  0  0  0  0  3  0  0  0  0  0  0
  181.1530  177.5060  140.3050 C   0  0  0  0  0  0  0  0  0  0  0  0
  179.8890  177.0530  140.6950 C   0  0  0  0  0  3  0  0  0  0  0  0
  184.9240  179.1300  138.8420 C   0  0  0  0  0  2  0  0  0  0  0  0
  185.4440  178.5980  141.1930 C   0  0  0  0  0  0  0  0  0  0  0  0
  186.4150  178.3060  142.1560 C   0  0  0  0  0  3  0  0  0  0  0  0
  183.8050  174.4440  138.3430 O   0  0  0  0  0  0  0  0  0  0  0  0
  184.0260  175.3130  137.4590 C   0  0  0  0  0  0  0  0  0  0  0  0
  183.8060  176.6990  137.7370 N   0  0  0  0  0  2  0  0  0  0  0  0
  184.2160  171.9790  135.6720 C   0  0  1  0  0  3  0  0  0  0  0  0
  183.4290  174.3210  135.2300 C   0  0  0  0  0  2  0  0  0  0  0  0
  186.7150  174.3790  137.0660 O   0  0  0  0  0  1  0  0  0  0  0  0
  183.7980  170.6570  136.0960 N   0  0  0  0  0  1  0  0  0  0  0  0
  183.0120  172.9160  135.6670 C   0  0  0  0  0  2  0  0  0  0  0  0
  185.7320  173.9010  136.1990 C   0  0  2  0  0  3  0  0  0  0  0  0
  184.5460  174.8790  136.1190 C   0  0  2  0  0  3  0  0  0  0  0  0
  185.2900  172.5010  136.6220 C   0  0  0  0  0  2  0  0  0  0  0  0
  1  9  1  0  0  0  0
  2  5  1  1  0  0  0
  2  3  1  0  0  0  0
  3  7  1  0  0  0  0
  4 11  1  0  0  0  0
  5 14  2  0  0  0  0
  6  1  2  0  0  0  0
  7  4  2  0  0  0  0
  8 23  1  6  0  0  0
  8 13  1  0  0  0  0
  8 12  1  0  0  0  0
 10 19  1  0  0  0  0
 12 16  1  0  0  0  0
 13 18  1  1  0  0  0
 13  2  1  0  0  0  0
 14  1  1  0  0  0  0
 15  4  1  0  0  0  0
 16 17  2  0  0  0  0
 16  5  1  0  0  0  0
 17  6  1  0  0  0  0
 18 10  1  0  0  0  0
 19  3  2  0  0  0  0
 19 20  1  0  0  0  0
 20 15  2  0  0  0  0
 22 23  1  0  0  0  0
 22 21  2  0  0  0  0
 24 27  1  1  0  0  0
 24 31  1  0  0  0  0
 25 28  1  0  0  0  0
 25 30  1  0  0  0  0
 28 24  1  0  0  0  0
 29 31  1  0  0  0  0
 29 26  1  1  0  0  0
 30 29  1  0  0  0  0
 30 22  1  1  0  0  0
M  END
>  <MODEL>
7

>  <REMARK>
 VINA RESULT:      -7.0      6.143     10.577
  Name = 
  2 active torsions:
  status: ('A' for Active; 'I' for Inactive)
    1  A    between atoms: C_5  and  C_30
    2  A    between atoms: C_10  and  N_16
                            x       y       z     vdW  Elec       q    Type
                         _______ _______ _______ _____ _____    ______ ____

>  <TORSDO>
F 2

$$$$
=
 OpenBabel11122411013D

 31 35  0  0  1  0  0  0  0  0999 V2000
  179.8040  178.8610  142.5400 C   0  0  0  0  0  0  0  0  0  0  0  0
  183.1630  179.2140  140.7920 C   0  0  2  0  0  3  0  0  0  0  0  0
  184.2260  178.8190  141.8090 C   0  0  0  0  0  0  0  0  0  0  0  0
  184.9230  178.4210  144.1050 C   0  0  0  0  0  0  0  0  0  0  0  0
  181.7870  178.6990  141.1460 C   0  0  0  0  0  0  0  0  0  0  0  0
  179.2720  177.7270  141.9230 C   0  0  0  0  0  3  0  0  0  0  0  0
  183.9300  178.7520  143.1800 C   0  0  0  0  0  3  0  0  0  0  0  0
  183.3790  177.2870  139.1830 C   0  0  2  0  0  3  0  0  0  0  0  0
  179.0920  179.5040  143.5420 O   0  0  0  0  0  1  0  0  0  0  0  0
  185.8900  178.6910  140.0310 O   0  0  0  0  0  0  0  0  0  0  0  0
  184.5310  178.3250  145.8080 Cl  0  0  0  0  0  0  0  0  0  0  0  0
  181.9060  176.9080  139.3370 C   0  0  0  0  0  2  0  0  0  0  0  0
  183.5550  178.8010  139.3590 C   0  0  2  0  0  3  0  0  0  0  0  0
  181.0560  179.3450  142.1530 C   0  0  0  0  0  3  0  0  0  0  0  0
  186.2260  178.1640  143.6710 C   0  0  0  0  0  3  0  0  0  0  0  0
  181.2440  177.5540  140.5200 C   0  0  0  0  0  0  0  0  0  0  0  0
  179.9850  177.0840  140.9090 C   0  0  0  0  0  3  0  0  0  0  0  0
  184.9910  179.2450  139.0730 C   0  0  0  0  0  2  0  0  0  0  0  0
  185.5520  178.5940  141.3840 C   0  0  0  0  0  0  0  0  0  0  0  0
  186.5390  178.2530  142.3130 C   0  0  0  0  0  3  0  0  0  0  0  0
  183.8060  174.5880  138.3440 O   0  0  0  0  0  0  0  0  0  0  0  0
  184.0360  175.5020  137.5080 C   0  0  0  0  0  0  0  0  0  0  0  0
  183.8480  176.8730  137.8670 N   0  0  0  0  0  2  0  0  0  0  0  0
  187.2300  176.2040  135.5960 C   0  0  1  0  0  3  0  0  0  0  0  0
  185.7800  174.2480  136.2060 C   0  0  0  0  0  2  0  0  0  0  0  0
  183.6470  177.1860  135.2120 O   0  0  0  0  0  1  0  0  0  0  0  0
  188.4090  176.9590  135.9740 N   0  0  0  0  0  1  0  0  0  0  0  0
  187.0240  175.0560  136.5790 C   0  0  0  0  0  2  0  0  0  0  0  0
  184.7590  176.3430  135.2140 C   0  0  2  0  0  3  0  0  0  0  0  0
  184.5320  175.1340  136.1390 C   0  0  2  0  0  3  0  0  0  0  0  0
  186.0140  177.1260  135.5960 C   0  0  0  0  0  2  0  0  0  0  0  0
  1  9  1  0  0  0  0
  2  5  1  1  0  0  0
  2  3  1  0  0  0  0
  3  7  1  0  0  0  0
  4 11  1  0  0  0  0
  5 14  2  0  0  0  0
  6  1  2  0  0  0  0
  7  4  2  0  0  0  0
  8 23  1  6  0  0  0
  8 12  1  0  0  0  0
  8 13  1  0  0  0  0
 10 19  1  0  0  0  0
 12 16  1  0  0  0  0
 13 18  1  1  0  0  0
 13  2  1  0  0  0  0
 14  1  1  0  0  0  0
 15  4  1  0  0  0  0
 16 17  2  0  0  0  0
 16  5  1  0  0  0  0
 17  6  1  0  0  0  0
 18 10  1  0  0  0  0
 19  3  2  0  0  0  0
 19 20  1  0  0  0  0
 20 15  2  0  0  0  0
 22 23  1  0  0  0  0
 22 21  2  0  0  0  0
 24 27  1  1  0  0  0
 24 28  1  0  0  0  0
 25 28  1  0  0  0  0
 29 26  1  1  0  0  0
 29 31  1  0  0  0  0
 29 30  1  0  0  0  0
 30 25  1  0  0  0  0
 30 22  1  1  0  0  0
 31 24  1  0  0  0  0
M  END
>  <MODEL>
8

>  <REMARK>
 VINA RESULT:      -6.7      5.839     10.223
  Name = 
  2 active torsions:
  status: ('A' for Active; 'I' for Inactive)
    1  A    between atoms: C_5  and  C_30
    2  A    between atoms: C_10  and  N_16
                            x       y       z     vdW  Elec       q    Type
                         _______ _______ _______ _____ _____    ______ ____

>  <TORSDO>
F 2

$$$$
=
 OpenBabel11122411013D

 31 35  0  0  1  0  0  0  0  0999 V2000
  188.9430  178.1330  142.4610 C   0  0  0  0  0  0  0  0  0  0  0  0
  186.1030  179.0170  140.0910 C   0  0  2  0  0  3  0  0  0  0  0  0
  186.1840  178.0370  138.9290 C   0  0  0  0  0  0  0  0  0  0  0  0
  187.4180  176.4090  137.6080 C   0  0  0  0  0  0  0  0  0  0  0  0
  186.8350  178.5360  141.3230 C   0  0  0  0  0  0  0  0  0  0  0  0
  188.2590  177.5630  143.5360 C   0  0  0  0  0  3  0  0  0  0  0  0
  187.3450  177.2820  138.6970 C   0  0  0  0  0  3  0  0  0  0  0  0
  183.9600  178.2330  141.1590 C   0  0  2  0  0  3  0  0  0  0  0  0
  190.3280  178.2130  142.4840 O   0  0  0  0  0  1  0  0  0  0  0  0
  183.9570  178.7050  138.1980 O   0  0  0  0  0  0  0  0  0  0  0  0
  188.8660  175.4630  137.3450 Cl  0  0  0  0  0  0  0  0  0  0  0  0
  184.6450  177.9810  142.5030 C   0  0  0  0  0  2  0  0  0  0  0  0
  184.6460  179.3930  140.4270 C   0  0  2  0  0  3  0  0  0  0  0  0
  188.2340  178.6180  141.3600 C   0  0  0  0  0  3  0  0  0  0  0  0
  186.3370  176.2920  136.7320 C   0  0  0  0  0  3  0  0  0  0  0  0
  186.1440  177.9620  142.4150 C   0  0  0  0  0  0  0  0  0  0  0  0
  186.8640  177.4880  143.5170 C   0  0  0  0  0  3  0  0  0  0  0  0
  183.9060  179.7720  139.1430 C   0  0  0  0  0  2  0  0  0  0  0  0
  185.1120  177.9380  138.0190 C   0  0  0  0  0  0  0  0  0  0  0  0
  185.1870  177.0570  136.9360 C   0  0  0  0  0  3  0  0  0  0  0  0
  181.7520  176.8750  139.9540 O   0  0  0  0  0  0  0  0  0  0  0  0
  181.4930  177.8140  140.7540 C   0  0  0  0  0  0  0  0  0  0  0  0
  182.5540  178.5360  141.3850 N   0  0  0  0  0  2  0  0  0  0  0  0
  179.0780  180.2710  139.1800 C   0  0  1  0  0  3  0  0  0  0  0  0
  179.1610  177.8460  139.8210 C   0  0  0  0  0  2  0  0  0  0  0  0
  180.7350  179.9570  142.5120 O   0  0  0  0  0  1  0  0  0  0  0  0
  179.2630  181.2060  138.0870 N   0  0  0  0  0  1  0  0  0  0  0  0
  179.3420  178.8520  138.6840 C   0  0  0  0  0  2  0  0  0  0  0  0
  179.8630  179.6360  141.4710 C   0  0  2  0  0  3  0  0  0  0  0  0
  180.0600  178.1790  141.0170 C   0  0  2  0  0  3  0  0  0  0  0  0
  180.0330  180.6210  140.3170 C   0  0  0  0  0  2  0  0  0  0  0  0
  1  9  1  0  0  0  0
  1  6  1  0  0  0  0
  2  3  1  6  0  0  0
  2 13  1  0  0  0  0
  2  5  1  0  0  0  0
  4  7  2  0  0  0  0
  5 14  1  0  0  0  0
  5 16  2  0  0  0  0
  7  3  1  0  0  0  0
  8 23  1  1  0  0  0
  8 12  1  0  0  0  0
 10 18  1  0  0  0  0
 11  4  1  0  0  0  0
 13 18  1  6  0  0  0
 13  8  1  0  0  0  0
 14  1  2  0  0  0  0
 15 20  2  0  0  0  0
 15  4  1  0  0  0  0
 16 12  1  0  0  0  0
 16 17  1  0  0  0  0
 17  6  2  0  0  0  0
 19 10  1  0  0  0  0
 19  3  2  0  0  0  0
 20 19  1  0  0  0  0
 21 22  2  0  0  0  0
 22 23  1  0  0  0  0
 24 27  1  6  0  0  0
 24 31  1  0  0  0  0
 25 30  1  0  0  0  0
 28 24  1  0  0  0  0
 28 25  1  0  0  0  0
 29 26  1  1  0  0  0
 30 22  1  6  0  0  0
 30 29  1  0  0  0  0
 31 29  1  0  0  0  0
M  END
>  <MODEL>
9

>  <REMARK>
 VINA RESULT:      -6.7      5.698      8.276
  Name = 
  2 active torsions:
  status: ('A' for Active; 'I' for Inactive)
    1  A    between atoms: C_5  and  C_30
    2  A    between atoms: C_10  and  N_16
                            x       y       z     vdW  Elec       q    Type
                         _______ _______ _______ _____ _____    ______ ____

>  <TORSDO>
F 2

$$$$
