=
 OpenBabel11122412163D

 34 42  0  0  1  0  0  0  0  0999 V2000
  189.1770  177.5260  143.0350 C   0  0  0  0  0  0  0  0  0  0  0  0
  191.6360  177.0930  142.4100 C   0  0  0  0  0  3  0  0  0  0  0  0
  183.1290  177.9940  141.3770 C   0  0  2  0  0  3  0  0  0  0  0  0
  186.8150  178.0140  143.4270 C   0  0  0  0  0  0  0  0  0  0  0  0
  185.4200  178.5770  141.5190 C   0  0  0  0  0  0  0  0  0  0  0  0
  184.1020  179.5290  139.5580 C   0  0  0  0  0  2  0  0  0  0  0  0
  183.3410  178.2760  139.9080 C   0  0  1  0  0  3  0  0  0  0  0  0
  183.1260  179.2720  143.5400 C   0  0  0  0  0  2  0  0  0  0  0  0
  190.0770  177.6230  140.7200 C   0  0  0  0  0  0  0  0  0  0  0  0
  190.1480  176.3210  138.1270 C   0  0  0  0  0  2  0  0  0  0  0  0
  186.5000  178.4490  140.6990 N   0  0  0  0  0  0  0  0  0  0  0  0
  184.3410  178.3690  143.8870 C   0  0  0  0  0  2  0  0  0  0  0  0
  188.8710  177.9650  140.2170 C   0  0  0  0  0  0  0  0  0  0  0  0
  192.3850  177.2010  141.0760 C   0  0  0  0  0  3  0  0  0  0  0  0
  185.5480  178.3740  142.9260 C   0  0  0  0  0  0  0  0  0  0  0  0
  182.2570  178.7630  142.3520 C   0  0  0  0  0  2  0  0  0  0  0  0
  191.2990  176.2970  139.0490 N   0  0  0  0  0  0  0  0  0  0  0  0
  187.9090  177.8830  142.5430 C   0  0  0  0  0  0  0  0  0  0  0  0
  184.1130  179.0650  140.9900 C   0  0  2  0  0  0  0  0  0  0  0  0
  187.7290  178.1030  141.1630 C   0  0  0  0  0  0  0  0  0  0  0  0
  188.2810  177.4230  145.2810 C   0  0  0  0  0  3  0  0  0  0  0  0
  189.6890  177.7350  137.7690 C   0  0  0  0  0  2  0  0  0  0  0  0
  187.0180  177.7780  144.7970 C   0  0  0  0  0  3  0  0  0  0  0  0
  188.6250  178.2380  138.7470 C   0  0  0  0  0  2  0  0  0  0  0  0
  191.3500  177.4540  139.9620 C   0  0  1  0  0  3  0  0  0  0  0  0
  189.3600  177.2980  144.4030 C   0  0  0  0  0  3  0  0  0  0  0  0
  190.2580  177.4040  142.1040 N   0  0  0  0  0  0  0  0  0  0  0  0
  192.4970  176.3310  138.2200 C   0  0  0  0  0  2  0  0  0  0  0  0
  192.6460  175.0130  137.4790 C   0  0  0  0  0  2  0  0  0  0  0  0
  195.7400  174.0100  138.9260 C   0  0  0  0  0  2  0  0  0  0  0  0
  194.1460  173.2200  137.3080 C   0  0  0  0  0  2  0  0  0  0  0  0
  194.0540  174.6720  137.3600 N   0  0  0  0  0  0  0  0  0  0  0  0
  195.3770  172.8100  138.0870 C   0  0  0  0  0  2  0  0  0  0  0  0
  194.6890  175.0520  138.6110 C   0  0  0  0  0  2  0  0  0  0  0  0
  1 26  1  0  0  0  0
  3 16  1  1  0  0  0
  4 23  2  0  0  0  0
  5 15  2  0  0  0  0
  7  6  1  1  0  0  0
  7 19  1  0  0  0  0
  7  3  1  0  0  0  0
  8 12  1  0  0  0  0
  9 27  1  0  0  0  0
 10 17  1  0  0  0  0
 11 20  2  0  0  0  0
 11  5  1  0  0  0  0
 13  9  2  0  0  0  0
 13 20  1  0  0  0  0
 14  2  2  0  0  0  0
 15  4  1  0  0  0  0
 15 12  1  0  0  0  0
 16  8  1  0  0  0  0
 17 25  1  0  0  0  0
 18  1  2  0  0  0  0
 18  4  1  0  0  0  0
 19  6  1  1  0  0  0
 19  3  1  0  0  0  0
 19  5  1  0  0  0  0
 20 18  1  0  0  0  0
 22 10  1  0  0  0  0
 22 24  1  0  0  0  0
 23 21  1  0  0  0  0
 24 13  1  0  0  0  0
 25  9  1  0  0  0  0
 25 14  1  1  0  0  0
 26 21  2  0  0  0  0
 27  2  1  0  0  0  0
 27  1  1  0  0  0  0
 28 17  1  0  0  0  0
 29 28  1  0  0  0  0
 31 32  1  0  0  0  0
 31 33  1  0  0  0  0
 32 29  1  0  0  0  0
 32 34  1  0  0  0  0
 33 30  1  0  0  0  0
 34 30  1  0  0  0  0
M  END
>  <MODEL>
1

>  <REMARK>
 VINA RESULT:     -10.0      0.000      0.000
  Name = 
  3 active torsions:
  status: ('A' for Active; 'I' for Inactive)
    1  A    between atoms: N_17  and  C_28
    2  A    between atoms: C_28  and  C_29
    3  A    between atoms: C_29  and  N_32
                            x       y       z     vdW  Elec       q    Type
                         _______ _______ _______ _____ _____    ______ ____

>  <TORSDO>
F 3

$$$$
=
 OpenBabel11122412163D

 34 42  0  0  1  0  0  0  0  0999 V2000
  184.1310  178.6050  144.0400 C   0  0  0  0  0  0  0  0  0  0  0  0
  181.8220  179.0200  142.9780 C   0  0  0  0  0  3  0  0  0  0  0  0
  190.3920  178.3160  143.5390 C   0  0  2  0  0  3  0  0  0  0  0  0
  186.3880  178.1430  144.8530 C   0  0  0  0  0  0  0  0  0  0  0  0
  188.1310  177.6860  143.2230 C   0  0  0  0  0  0  0  0  0  0  0  0
  189.8180  176.8410  141.5120 C   0  0  0  0  0  2  0  0  0  0  0  0
  190.4680  178.0910  142.0470 C   0  0  1  0  0  3  0  0  0  0  0  0
  190.0210  176.9470  145.6130 C   0  0  0  0  0  2  0  0  0  0  0  0
  183.6850  178.5890  141.5940 C   0  0  0  0  0  0  0  0  0  0  0  0
  184.0700  179.9980  139.0870 C   0  0  0  0  0  2  0  0  0  0  0  0
  187.2220  177.8290  142.2190 N   0  0  0  0  0  0  0  0  0  0  0  0
  188.7400  177.8130  145.7580 C   0  0  0  0  0  2  0  0  0  0  0  0
  184.9720  178.2900  141.3170 C   0  0  0  0  0  0  0  0  0  0  0  0
  181.3410  178.9550  141.5230 C   0  0  0  0  0  3  0  0  0  0  0  0
  187.7360  177.8270  144.5880 C   0  0  0  0  0  0  0  0  0  0  0  0
  191.0840  177.5220  144.6320 C   0  0  0  0  0  2  0  0  0  0  0  0
  182.7660  179.9620  139.7750 N   0  0  0  0  0  0  0  0  0  0  0  0
  185.4770  178.2920  143.7840 C   0  0  0  0  0  0  0  0  0  0  0  0
  189.5260  177.2440  142.9330 C   0  0  2  0  0  0  0  0  0  0  0  0
  185.9190  178.1340  142.4550 C   0  0  0  0  0  0  0  0  0  0  0  0
  184.5850  178.6290  146.4180 C   0  0  0  0  0  3  0  0  0  0  0  0
  184.6240  178.6090  138.7680 C   0  0  0  0  0  2  0  0  0  0  0  0
  185.9250  178.3170  146.1680 C   0  0  0  0  0  3  0  0  0  0  0  0
  185.4970  178.0840  139.9100 C   0  0  0  0  0  2  0  0  0  0  0  0
  182.5730  178.7680  140.6170 C   0  0  1  0  0  3  0  0  0  0  0  0
  183.6880  178.7720  145.3570 C   0  0  0  0  0  3  0  0  0  0  0  0
  183.2410  178.7460  142.9270 N   0  0  0  0  0  0  0  0  0  0  0  0
  181.7470  179.9420  138.7340 C   0  0  0  0  0  2  0  0  0  0  0  0
  180.9070  181.2060  138.8120 C   0  0  0  0  0  2  0  0  0  0  0  0
  180.1090  184.0120  136.7730 C   0  0  0  0  0  2  0  0  0  0  0  0
  181.9840  183.1140  137.9820 C   0  0  0  0  0  2  0  0  0  0  0  0
  181.1110  182.0070  137.6180 N   0  0  0  0  0  0  0  0  0  0  0  0
  181.5070  184.3410  137.2340 C   0  0  0  0  0  2  0  0  0  0  0  0
  179.8320  182.6190  137.2950 C   0  0  0  0  0  2  0  0  0  0  0  0
  1 26  1  0  0  0  0
  3 16  1  1  0  0  0
  4 23  2  0  0  0  0
  5 15  2  0  0  0  0
  7  6  1  1  0  0  0
  7 19  1  0  0  0  0
  7  3  1  0  0  0  0
  8 12  1  0  0  0  0
  9 27  1  0  0  0  0
 10 17  1  0  0  0  0
 11 20  2  0  0  0  0
 11  5  1  0  0  0  0
 13  9  2  0  0  0  0
 13 20  1  0  0  0  0
 14  2  2  0  0  0  0
 15  4  1  0  0  0  0
 15 12  1  0  0  0  0
 16  8  1  0  0  0  0
 17 25  1  0  0  0  0
 18  1  2  0  0  0  0
 18  4  1  0  0  0  0
 19  6  1  1  0  0  0
 19  5  1  0  0  0  0
 19  3  1  0  0  0  0
 20 18  1  0  0  0  0
 22 10  1  0  0  0  0
 22 24  1  0  0  0  0
 23 21  1  0  0  0  0
 24 13  1  0  0  0  0
 25 14  1  1  0  0  0
 25  9  1  0  0  0  0
 26 21  2  0  0  0  0
 27  2  1  0  0  0  0
 27  1  1  0  0  0  0
 28 29  1  0  0  0  0
 28 17  1  0  0  0  0
 30 33  1  0  0  0  0
 30 34  1  0  0  0  0
 32 31  1  0  0  0  0
 32 29  1  0  0  0  0
 33 31  1  0  0  0  0
 34 32  1  0  0  0  0
M  END
>  <MODEL>
2

>  <REMARK>
 VINA RESULT:      -9.9      3.572      9.074
  Name = 
  3 active torsions:
  status: ('A' for Active; 'I' for Inactive)
    1  A    between atoms: N_17  and  C_28
    2  A    between atoms: C_28  and  C_29
    3  A    between atoms: C_29  and  N_32
                            x       y       z     vdW  Elec       q    Type
                         _______ _______ _______ _____ _____    ______ ____

>  <TORSDO>
F 3

$$$$
=
 OpenBabel11122412163D

 34 42  0  0  1  0  0  0  0  0999 V2000
  190.5890  177.0970  142.7740 C   0  0  0  0  0  0  0  0  0  0  0  0
  192.0950  176.7530  140.7150 C   0  0  0  0  0  3  0  0  0  0  0  0
  184.8690  177.7880  145.2930 C   0  0  2  0  0  3  0  0  0  0  0  0
  189.0200  177.5280  144.5980 C   0  0  0  0  0  0  0  0  0  0  0  0
  186.8010  178.3460  144.0420 C   0  0  0  0  0  0  0  0  0  0  0  0
  184.6420  179.5560  143.4400 C   0  0  0  0  0  2  0  0  0  0  0  0
  184.1550  178.2680  144.0510 C   0  0  1  0  0  3  0  0  0  0  0  0
  186.3050  178.7600  147.1100 C   0  0  0  0  0  2  0  0  0  0  0  0
  189.8780  177.5090  140.4270 C   0  0  0  0  0  0  0  0  0  0  0  0
  188.2280  176.5710  138.2320 C   0  0  0  0  0  2  0  0  0  0  0  0
  187.1320  178.3310  142.7210 N   0  0  0  0  0  0  0  0  0  0  0  0
  187.3940  177.8180  146.5290 C   0  0  0  0  0  2  0  0  0  0  0  0
  188.6530  177.9160  140.8230 C   0  0  0  0  0  0  0  0  0  0  0  0
  191.8710  177.0410  139.2250 C   0  0  0  0  0  3  0  0  0  0  0  0
  187.7500  177.9530  145.0340 C   0  0  0  0  0  0  0  0  0  0  0  0
  184.8510  178.4170  146.6730 C   0  0  0  0  0  2  0  0  0  0  0  0
  189.6960  176.4220  138.2300 N   0  0  0  0  0  0  0  0  0  0  0  0
  189.3230  177.5180  143.2180 C   0  0  0  0  0  0  0  0  0  0  0  0
  185.4920  178.9020  144.4950 C   0  0  2  0  0  0  0  0  0  0  0  0
  188.3510  177.9240  142.2810 C   0  0  0  0  0  0  0  0  0  0  0  0
  191.2600  176.6900  145.0640 C   0  0  0  0  0  3  0  0  0  0  0  0
  187.7690  178.0210  138.3890 C   0  0  0  0  0  2  0  0  0  0  0  0
  190.0030  177.1080  145.5100 C   0  0  0  0  0  3  0  0  0  0  0  0
  187.5790  178.3870  139.8630 C   0  0  0  0  0  2  0  0  0  0  0  0
  190.3950  177.4430  139.0310 C   0  0  1  0  0  3  0  0  0  0  0  0
  191.5550  176.6850  143.6980 C   0  0  0  0  0  3  0  0  0  0  0  0
  190.8530  177.1030  141.3670 N   0  0  0  0  0  0  0  0  0  0  0  0
  190.1270  176.5680  136.8460 C   0  0  0  0  0  2  0  0  0  0  0  0
  189.9860  175.2400  136.1210 C   0  0  0  0  0  2  0  0  0  0  0  0
  193.5370  175.4380  136.2510 C   0  0  0  0  0  2  0  0  0  0  0  0
  191.7700  173.9620  136.9440 C   0  0  0  0  0  2  0  0  0  0  0  0
  191.3000  174.7170  135.7910 N   0  0  0  0  0  0  0  0  0  0  0  0
  193.2560  174.2110  137.0810 C   0  0  0  0  0  2  0  0  0  0  0  0
  192.1970  175.8570  135.6900 C   0  0  0  0  0  2  0  0  0  0  0  0
  1 18  2  0  0  0  0
  1 26  1  0  0  0  0
  2 27  1  0  0  0  0
  3 16  1  1  0  0  0
  4 15  1  0  0  0  0
  4 23  2  0  0  0  0
  5 19  1  0  0  0  0
  5 15  2  0  0  0  0
  7  6  1  1  0  0  0
  7 19  1  0  0  0  0
  7  3  1  0  0  0  0
  9 13  2  0  0  0  0
  9 27  1  0  0  0  0
 10 22  1  0  0  0  0
 11  5  1  0  0  0  0
 12  8  1  0  0  0  0
 13 20  1  0  0  0  0
 14  2  2  0  0  0  0
 15 12  1  0  0  0  0
 16  8  1  0  0  0  0
 17 10  1  0  0  0  0
 17 25  1  0  0  0  0
 18  4  1  0  0  0  0
 19  6  1  1  0  0  0
 19  3  1  0  0  0  0
 20 11  2  0  0  0  0
 20 18  1  0  0  0  0
 21 23  1  0  0  0  0
 22 24  1  0  0  0  0
 24 13  1  0  0  0  0
 25 14  1  1  0  0  0
 25  9  1  0  0  0  0
 26 21  2  0  0  0  0
 27  1  1  0  0  0  0
 28 17  1  0  0  0  0
 29 28  1  0  0  0  0
 30 33  1  0  0  0  0
 31 33  1  0  0  0  0
 32 29  1  0  0  0  0
 32 31  1  0  0  0  0
 34 32  1  0  0  0  0
 34 30  1  0  0  0  0
M  END
>  <MODEL>
3

>  <REMARK>
 VINA RESULT:      -9.8      1.863      2.895
  Name = 
  3 active torsions:
  status: ('A' for Active; 'I' for Inactive)
    1  A    between atoms: N_17  and  C_28
    2  A    between atoms: C_28  and  C_29
    3  A    between atoms: C_29  and  N_32
                            x       y       z     vdW  Elec       q    Type
                         _______ _______ _______ _____ _____    ______ ____

>  <TORSDO>
F 3

$$$$
=
 OpenBabel11122412163D

 34 42  0  0  1  0  0  0  0  0999 V2000
  185.8530  178.3050  142.0410 C   0  0  0  0  0  0  0  0  0  0  0  0
  184.9890  178.6100  139.6350 C   0  0  0  0  0  3  0  0  0  0  0  0
  190.6300  177.7600  146.0930 C   0  0  2  0  0  3  0  0  0  0  0  0
  186.8450  177.9130  144.2400 C   0  0  0  0  0  0  0  0  0  0  0  0
  189.1490  177.1530  144.3460 C   0  0  0  0  0  0  0  0  0  0  0  0
  191.4200  175.9980  144.3940 C   0  0  0  0  0  2  0  0  0  0  0  0
  191.6800  177.2980  145.1100 C   0  0  1  0  0  3  0  0  0  0  0  0
  188.7590  176.7510  147.4310 C   0  0  0  0  0  2  0  0  0  0  0  0
  187.2140  177.9110  139.9980 C   0  0  0  0  0  0  0  0  0  0  0  0
  189.3980  178.8900  138.3580 C   0  0  0  0  0  2  0  0  0  0  0  0
  189.2090  177.1590  142.9860 N   0  0  0  0  0  0  0  0  0  0  0  0
  187.8590  177.6650  146.5560 C   0  0  0  0  0  2  0  0  0  0  0  0
  188.2840  177.5350  140.7290 C   0  0  0  0  0  0  0  0  0  0  0  0
  185.6360  178.3280  138.2740 C   0  0  0  0  0  3  0  0  0  0  0  0
  187.9480  177.5210  145.0230 C   0  0  0  0  0  0  0  0  0  0  0  0
  190.2690  177.1310  147.4260 C   0  0  0  0  0  2  0  0  0  0  0  0
  187.9890  179.0020  137.9370 N   0  0  0  0  0  0  0  0  0  0  0  0
  186.9490  177.9160  142.8310 C   0  0  0  0  0  0  0  0  0  0  0  0
  190.2880  176.6310  145.1580 C   0  0  2  0  0  0  0  0  0  0  0  0
  188.1570  177.5350  142.2130 C   0  0  0  0  0  0  0  0  0  0  0  0
  184.5450  178.6940  144.0410 C   0  0  0  0  0  3  0  0  0  0  0  0
  189.8290  177.4530  138.6500 C   0  0  0  0  0  2  0  0  0  0  0  0
  185.6330  178.3080  144.8310 C   0  0  0  0  0  3  0  0  0  0  0  0
  189.5990  177.0920  140.1200 C   0  0  0  0  0  2  0  0  0  0  0  0
  187.1150  177.9630  138.5110 C   0  0  1  0  0  3  0  0  0  0  0  0
  184.6530  178.6920  142.6480 C   0  0  0  0  0  3  0  0  0  0  0  0
  186.0010  178.2910  140.6170 N   0  0  0  0  0  0  0  0  0  0  0  0
  187.9740  178.8450  136.4880 C   0  0  0  0  0  2  0  0  0  0  0  0
  188.4640  177.4560  136.1160 C   0  0  0  0  0  2  0  0  0  0  0  0
  185.4760  175.7580  135.1910 C   0  0  0  0  0  2  0  0  0  0  0  0
  186.5650  177.8670  134.8060 C   0  0  0  0  0  2  0  0  0  0  0  0
  187.5910  176.8790  135.1090 N   0  0  0  0  0  0  0  0  0  0  0  0
  185.2620  177.1270  134.5940 C   0  0  0  0  0  2  0  0  0  0  0  0
  186.8850  175.7770  135.7420 C   0  0  0  0  0  2  0  0  0  0  0  0
  1 26  2  0  0  0  0
  1 18  1  0  0  0  0
  2 27  1  0  0  0  0
  3 16  1  1  0  0  0
  4 23  1  0  0  0  0
  4 15  1  0  0  0  0
  5 15  2  0  0  0  0
  5 19  1  0  0  0  0
  7  6  1  1  0  0  0
  7 19  1  0  0  0  0
  7  3  1  0  0  0  0
  9 27  1  0  0  0  0
  9 13  2  0  0  0  0
 10 22  1  0  0  0  0
 11  5  1  0  0  0  0
 12  8  1  0  0  0  0
 13 20  1  0  0  0  0
 14  2  2  0  0  0  0
 15 12  1  0  0  0  0
 16  8  1  0  0  0  0
 17 10  1  0  0  0  0
 17 25  1  0  0  0  0
 18  4  2  0  0  0  0
 19  6  1  1  0  0  0
 19  3  1  0  0  0  0
 20 18  1  0  0  0  0
 20 11  2  0  0  0  0
 21 23  2  0  0  0  0
 22 24  1  0  0  0  0
 24 13  1  0  0  0  0
 25 14  1  1  0  0  0
 25  9  1  0  0  0  0
 26 21  1  0  0  0  0
 27  1  1  0  0  0  0
 28 17  1  0  0  0  0
 29 28  1  0  0  0  0
 30 34  1  0  0  0  0
 31 32  1  0  0  0  0
 32 34  1  0  0  0  0
 32 29  1  0  0  0  0
 33 31  1  0  0  0  0
 33 30  1  0  0  0  0
M  END
>  <MODEL>
4

>  <REMARK>
 VINA RESULT:      -9.6      3.032      6.215
  Name = 
  3 active torsions:
  status: ('A' for Active; 'I' for Inactive)
    1  A    between atoms: N_17  and  C_28
    2  A    between atoms: C_28  and  C_29
    3  A    between atoms: C_29  and  N_32
                            x       y       z     vdW  Elec       q    Type
                         _______ _______ _______ _____ _____    ______ ____

>  <TORSDO>
F 3

$$$$
=
 OpenBabel11122412163D

 34 42  0  0  1  0  0  0  0  0999 V2000
  189.2660  177.5490  143.1010 C   0  0  0  0  0  0  0  0  0  0  0  0
  191.7010  177.1430  142.3700 C   0  0  0  0  0  3  0  0  0  0  0  0
  183.1450  177.9220  141.7120 C   0  0  2  0  0  3  0  0  0  0  0  0
  186.9180  178.0090  143.5950 C   0  0  0  0  0  0  0  0  0  0  0  0
  185.4320  178.5370  141.7460 C   0  0  0  0  0  0  0  0  0  0  0  0
  184.0150  179.4550  139.8390 C   0  0  0  0  0  2  0  0  0  0  0  0
  183.2870  178.1950  140.2320 C   0  0  1  0  0  3  0  0  0  0  0  0
  183.2210  179.2190  143.8620 C   0  0  0  0  0  2  0  0  0  0  0  0
  190.0610  177.6390  140.7470 C   0  0  0  0  0  0  0  0  0  0  0  0
  190.0340  176.3150  138.1640 C   0  0  0  0  0  2  0  0  0  0  0  0
  186.4760  178.4170  140.8800 N   0  0  0  0  0  0  0  0  0  0  0  0
  184.4620  178.3350  144.1610 C   0  0  0  0  0  2  0  0  0  0  0  0
  188.8290  177.9600  140.2960 C   0  0  0  0  0  0  0  0  0  0  0  0
  192.3890  177.2500  141.0030 C   0  0  0  0  0  3  0  0  0  0  0  0
  185.6250  178.3480  143.1480 C   0  0  0  0  0  0  0  0  0  0  0  0
  182.3070  178.6880  142.7190 C   0  0  0  0  0  2  0  0  0  0  0  0
  191.2250  176.3150  139.0340 N   0  0  0  0  0  0  0  0  0  0  0  0
  187.9730  177.8850  142.6640 C   0  0  0  0  0  0  0  0  0  0  0  0
  184.0960  179.0030  141.2720 C   0  0  2  0  0  0  0  0  0  0  0  0
  187.7290  178.0900  141.2910 C   0  0  0  0  0  0  0  0  0  0  0  0
  188.4730  177.4530  145.3860 C   0  0  0  0  0  3  0  0  0  0  0  0
  189.5410  177.7200  137.8160 C   0  0  0  0  0  2  0  0  0  0  0  0
  187.1850  177.7870  144.9560 C   0  0  0  0  0  3  0  0  0  0  0  0
  188.5150  178.2170  138.8360 C   0  0  0  0  0  2  0  0  0  0  0  0
  191.3010  177.4800  139.9340 C   0  0  1  0  0  3  0  0  0  0  0  0
  189.5130  177.3350  144.4610 C   0  0  0  0  0  3  0  0  0  0  0  0
  190.3060  177.4340  142.1230 N   0  0  0  0  0  0  0  0  0  0  0  0
  192.3840  176.3570  138.1520 C   0  0  0  0  0  2  0  0  0  0  0  0
  192.9460  174.9570  137.9740 C   0  0  0  0  0  2  0  0  0  0  0  0
  191.3660  174.2140  134.8730 C   0  0  0  0  0  2  0  0  0  0  0  0
  192.8320  175.8690  135.8180 C   0  0  0  0  0  2  0  0  0  0  0  0
  193.0140  174.6300  136.5600 N   0  0  0  0  0  0  0  0  0  0  0  0
  192.0000  175.5540  134.5940 C   0  0  0  0  0  2  0  0  0  0  0  0
  191.8410  173.8260  136.2560 C   0  0  0  0  0  2  0  0  0  0  0  0
  1 26  1  0  0  0  0
  3 16  1  1  0  0  0
  4 23  2  0  0  0  0
  5 15  2  0  0  0  0
  7  6  1  1  0  0  0
  7 19  1  0  0  0  0
  7  3  1  0  0  0  0
  8 12  1  0  0  0  0
  9 27  1  0  0  0  0
 10 17  1  0  0  0  0
 11 20  2  0  0  0  0
 11  5  1  0  0  0  0
 13  9  2  0  0  0  0
 13 20  1  0  0  0  0
 14  2  2  0  0  0  0
 15  4  1  0  0  0  0
 15 12  1  0  0  0  0
 16  8  1  0  0  0  0
 17 25  1  0  0  0  0
 18  1  2  0  0  0  0
 18  4  1  0  0  0  0
 19  6  1  1  0  0  0
 19  3  1  0  0  0  0
 19  5  1  0  0  0  0
 20 18  1  0  0  0  0
 22 10  1  0  0  0  0
 22 24  1  0  0  0  0
 23 21  1  0  0  0  0
 24 13  1  0  0  0  0
 25  9  1  0  0  0  0
 25 14  1  1  0  0  0
 26 21  2  0  0  0  0
 27  2  1  0  0  0  0
 27  1  1  0  0  0  0
 28 17  1  0  0  0  0
 29 28  1  0  0  0  0
 30 34  1  0  0  0  0
 31 32  1  0  0  0  0
 32 29  1  0  0  0  0
 33 30  1  0  0  0  0
 33 31  1  0  0  0  0
 34 32  1  0  0  0  0
M  END
>  <MODEL>
5

>  <REMARK>
 VINA RESULT:      -9.6      0.967      1.682
  Name = 
  3 active torsions:
  status: ('A' for Active; 'I' for Inactive)
    1  A    between atoms: N_17  and  C_28
    2  A    between atoms: C_28  and  C_29
    3  A    between atoms: C_29  and  N_32
                            x       y       z     vdW  Elec       q    Type
                         _______ _______ _______ _____ _____    ______ ____

>  <TORSDO>
F 3

$$$$
=
 OpenBabel11122412163D

 34 42  0  0  1  0  0  0  0  0999 V2000
  185.8300  178.3200  142.0410 C   0  0  0  0  0  0  0  0  0  0  0  0
  184.9460  178.6280  139.6430 C   0  0  0  0  0  3  0  0  0  0  0  0
  190.6410  177.7540  146.0500 C   0  0  2  0  0  3  0  0  0  0  0  0
  186.8400  177.9250  144.2310 C   0  0  0  0  0  0  0  0  0  0  0  0
  189.1420  177.1530  144.3170 C   0  0  0  0  0  0  0  0  0  0  0  0
  191.4070  175.9860  144.3450 C   0  0  0  0  0  2  0  0  0  0  0  0
  191.6810  177.2860  145.0570 C   0  0  1  0  0  3  0  0  0  0  0  0
  188.7770  176.7550  147.4060 C   0  0  0  0  0  2  0  0  0  0  0  0
  187.1700  177.9170  139.9860 C   0  0  0  0  0  0  0  0  0  0  0  0
  189.3450  178.8840  138.3250 C   0  0  0  0  0  2  0  0  0  0  0  0
  189.1890  177.1580  142.9560 N   0  0  0  0  0  0  0  0  0  0  0  0
  187.8740  177.6740  146.5390 C   0  0  0  0  0  2  0  0  0  0  0  0
  188.2460  177.5370  140.7080 C   0  0  0  0  0  0  0  0  0  0  0  0
  185.5800  178.3410  138.2760 C   0  0  0  0  0  3  0  0  0  0  0  0
  187.9490  177.5280  145.0050 C   0  0  0  0  0  0  0  0  0  0  0  0
  190.2890  177.1280  147.3860 C   0  0  0  0  0  2  0  0  0  0  0  0
  187.9330  179.0030  137.9170 N   0  0  0  0  0  0  0  0  0  0  0  0
  186.9310  177.9260  142.8210 C   0  0  0  0  0  0  0  0  0  0  0  0
  190.2850  176.6250  145.1190 C   0  0  2  0  0  0  0  0  0  0  0  0
  188.1320  177.5380  142.1930 C   0  0  0  0  0  0  0  0  0  0  0  0
  184.5430  178.7180  144.0520 C   0  0  0  0  0  3  0  0  0  0  0  0
  189.7710  177.4450  138.6150 C   0  0  0  0  0  2  0  0  0  0  0  0
  185.6360  178.3270  144.8320 C   0  0  0  0  0  3  0  0  0  0  0  0
  189.5530  177.0860  140.0860 C   0  0  0  0  0  2  0  0  0  0  0  0
  187.0590  177.9690  138.5000 C   0  0  1  0  0  3  0  0  0  0  0  0
  184.6380  178.7130  142.6590 C   0  0  0  0  0  3  0  0  0  0  0  0
  185.9660  178.3040  140.6160 N   0  0  0  0  0  0  0  0  0  0  0  0
  187.9040  178.8450  136.4680 C   0  0  0  0  0  2  0  0  0  0  0  0
  187.1360  177.5860  136.1040 C   0  0  0  0  0  2  0  0  0  0  0  0
  190.2460  176.4650  134.7860 C   0  0  0  0  0  2  0  0  0  0  0  0
  188.2740  175.5570  135.8200 C   0  0  0  0  0  2  0  0  0  0  0  0
  187.9030  176.7980  135.1550 N   0  0  0  0  0  0  0  0  0  0  0  0
  189.6770  175.2000  135.3770 C   0  0  0  0  0  2  0  0  0  0  0  0
  189.1560  177.5030  134.9350 C   0  0  0  0  0  2  0  0  0  0  0  0
  1 26  2  0  0  0  0
  1 18  1  0  0  0  0
  2 27  1  0  0  0  0
  3 16  1  1  0  0  0
  4 23  1  0  0  0  0
  4 15  1  0  0  0  0
  5 15  2  0  0  0  0
  5 19  1  0  0  0  0
  7  6  1  1  0  0  0
  7 19  1  0  0  0  0
  7  3  1  0  0  0  0
  9 27  1  0  0  0  0
  9 13  2  0  0  0  0
 10 22  1  0  0  0  0
 11  5  1  0  0  0  0
 12  8  1  0  0  0  0
 13 20  1  0  0  0  0
 14  2  2  0  0  0  0
 15 12  1  0  0  0  0
 16  8  1  0  0  0  0
 17 10  1  0  0  0  0
 17 25  1  0  0  0  0
 18  4  2  0  0  0  0
 19  6  1  1  0  0  0
 19  3  1  0  0  0  0
 20 18  1  0  0  0  0
 20 11  2  0  0  0  0
 21 23  2  0  0  0  0
 22 24  1  0  0  0  0
 24 13  1  0  0  0  0
 25 14  1  1  0  0  0
 25  9  1  0  0  0  0
 26 21  1  0  0  0  0
 27  1  1  0  0  0  0
 28 17  1  0  0  0  0
 29 28  1  0  0  0  0
 30 34  1  0  0  0  0
 30 33  1  0  0  0  0
 32 31  1  0  0  0  0
 32 29  1  0  0  0  0
 33 31  1  0  0  0  0
 34 32  1  0  0  0  0
M  END
>  <MODEL>
6

>  <REMARK>
 VINA RESULT:      -9.6      2.921      5.699
  Name = 
  3 active torsions:
  status: ('A' for Active; 'I' for Inactive)
    1  A    between atoms: N_17  and  C_28
    2  A    between atoms: C_28  and  C_29
    3  A    between atoms: C_29  and  N_32
                            x       y       z     vdW  Elec       q    Type
                         _______ _______ _______ _____ _____    ______ ____

>  <TORSDO>
F 3

$$$$
=
 OpenBabel11122412163D

 34 42  0  0  1  0  0  0  0  0999 V2000
  187.7650  177.9590  141.2640 C   0  0  0  0  0  0  0  0  0  0  0  0
  185.9360  178.6260  139.5800 C   0  0  0  0  0  3  0  0  0  0  0  0
  189.4840  176.3410  147.0920 C   0  0  2  0  0  3  0  0  0  0  0  0
  189.3800  177.4210  143.0170 C   0  0  0  0  0  0  0  0  0  0  0  0
  188.7150  177.7280  145.3330 C   0  0  0  0  0  0  0  0  0  0  0  0
  188.1110  178.4270  147.7080 C   0  0  0  0  0  2  0  0  0  0  0  0
  188.3050  176.9370  147.8260 C   0  0  1  0  0  3  0  0  0  0  0  0
  191.6800  177.1170  146.1510 C   0  0  0  0  0  2  0  0  0  0  0  0
  185.5130  178.8020  141.8950 C   0  0  0  0  0  0  0  0  0  0  0  0
  182.9310  178.1060  143.0220 C   0  0  0  0  0  2  0  0  0  0  0  0
  187.4970  178.1740  144.9190 N   0  0  0  0  0  0  0  0  0  0  0  0
  191.0550  176.7070  144.7900 C   0  0  0  0  0  2  0  0  0  0  0  0
  185.8070  178.7350  143.2110 C   0  0  0  0  0  0  0  0  0  0  0  0
  184.5470  179.2480  139.7730 C   0  0  0  0  0  3  0  0  0  0  0  0
  189.7110  177.3460  144.3850 C   0  0  0  0  0  0  0  0  0  0  0  0
  190.9580  176.5290  147.3990 C   0  0  0  0  0  2  0  0  0  0  0  0
  183.1140  178.3670  141.5820 N   0  0  0  0  0  0  0  0  0  0  0  0
  188.1030  177.8800  142.6270 C   0  0  0  0  0  0  0  0  0  0  0  0
  189.0880  177.7590  146.7780 C   0  0  2  0  0  0  0  0  0  0  0  0
  187.1590  178.2520  143.6050 C   0  0  0  0  0  0  0  0  0  0  0  0
  189.9580  177.1250  140.6690 C   0  0  0  0  0  3  0  0  0  0  0  0
  183.3690  179.2730  143.9080 C   0  0  0  0  0  2  0  0  0  0  0  0
  190.2990  177.0450  142.0220 C   0  0  0  0  0  3  0  0  0  0  0  0
  184.8420  179.1460  144.3050 C   0  0  0  0  0  2  0  0  0  0  0  0
  184.2370  179.2730  141.2830 C   0  0  1  0  0  3  0  0  0  0  0  0
  188.6940  177.5830  140.2880 C   0  0  0  0  0  3  0  0  0  0  0  0
  186.4590  178.4300  140.9130 N   0  0  0  0  0  0  0  0  0  0  0  0
  181.8900  179.0050  141.1150 C   0  0  0  0  0  2  0  0  0  0  0  0
  180.8700  177.9460  140.7350 C   0  0  0  0  0  2  0  0  0  0  0  0
  181.4710  179.3360  137.5140 C   0  0  0  0  0  2  0  0  0  0  0  0
  181.6090  177.2130  138.6350 C   0  0  0  0  0  2  0  0  0  0  0  0
  180.5970  178.0140  139.3100 N   0  0  0  0  0  0  0  0  0  0  0  0
  181.9770  177.9250  137.3510 C   0  0  0  0  0  2  0  0  0  0  0  0
  180.8550  179.3840  138.8950 C   0  0  0  0  0  2  0  0  0  0  0  0
  1 18  1  0  0  0  0
  2 14  2  0  0  0  0
  2 27  1  0  0  0  0
  3 16  1  1  0  0  0
  3  7  1  0  0  0  0
  4 15  1  0  0  0  0
  5 19  1  0  0  0  0
  7  6  1  1  0  0  0
  8 16  1  0  0  0  0
  9 13  2  0  0  0  0
 10 22  1  0  0  0  0
 11  5  1  0  0  0  0
 12  8  1  0  0  0  0
 13 20  1  0  0  0  0
 13 24  1  0  0  0  0
 15 12  1  0  0  0  0
 15  5  2  0  0  0  0
 17 10  1  0  0  0  0
 18  4  2  0  0  0  0
 18 20  1  0  0  0  0
 19  3  1  0  0  0  0
 19  6  1  1  0  0  0
 19  7  1  0  0  0  0
 20 11  2  0  0  0  0
 21 23  2  0  0  0  0
 22 24  1  0  0  0  0
 23  4  1  0  0  0  0
 25 14  1  6  0  0  0
 25 17  1  0  0  0  0
 25  9  1  0  0  0  0
 26 21  1  0  0  0  0
 26  1  2  0  0  0  0
 27  1  1  0  0  0  0
 27  9  1  0  0  0  0
 28 17  1  0  0  0  0
 29 28  1  0  0  0  0
 30 34  1  0  0  0  0
 31 32  1  0  0  0  0
 32 29  1  0  0  0  0
 33 30  1  0  0  0  0
 33 31  1  0  0  0  0
 34 32  1  0  0  0  0
M  END
>  <MODEL>
7

>  <REMARK>
 VINA RESULT:      -9.5      3.349      8.589
  Name = 
  3 active torsions:
  status: ('A' for Active; 'I' for Inactive)
    1  A    between atoms: N_17  and  C_28
    2  A    between atoms: C_28  and  C_29
    3  A    between atoms: C_29  and  N_32
                            x       y       z     vdW  Elec       q    Type
                         _______ _______ _______ _____ _____    ______ ____

>  <TORSDO>
F 3

$$$$
=
 OpenBabel11122412163D

 34 42  0  0  1  0  0  0  0  0999 V2000
  189.8580  176.9950  141.9880 C   0  0  0  0  0  0  0  0  0  0  0  0
  190.9710  176.6810  139.6880 C   0  0  0  0  0  3  0  0  0  0  0  0
  184.7010  177.8690  145.4780 C   0  0  2  0  0  3  0  0  0  0  0  0
  188.6500  177.4120  144.0710 C   0  0  0  0  0  0  0  0  0  0  0  0
  186.4280  178.3840  143.9410 C   0  0  0  0  0  0  0  0  0  0  0  0
  184.2830  179.7480  143.7740 C   0  0  0  0  0  2  0  0  0  0  0  0
  183.8220  178.4580  144.4000 C   0  0  1  0  0  3  0  0  0  0  0  0
  186.4830  178.6550  147.0650 C   0  0  0  0  0  2  0  0  0  0  0  0
  188.7920  177.5770  139.8190 C   0  0  0  0  0  0  0  0  0  0  0  0
  186.7380  176.8590  137.8980 C   0  0  0  0  0  2  0  0  0  0  0  0
  186.5300  178.4250  142.5840 N   0  0  0  0  0  0  0  0  0  0  0  0
  187.3950  177.6850  146.2630 C   0  0  0  0  0  2  0  0  0  0  0  0
  187.6800  178.0310  140.4370 C   0  0  0  0  0  0  0  0  0  0  0  0
  190.5180  177.0640  138.2730 C   0  0  0  0  0  3  0  0  0  0  0  0
  187.5020  177.8830  144.7380 C   0  0  0  0  0  0  0  0  0  0  0  0
  184.9570  178.4200  146.8690 C   0  0  0  0  0  2  0  0  0  0  0  0
  188.1710  176.6270  137.6390 N   0  0  0  0  0  0  0  0  0  0  0  0
  188.7150  177.4620  142.6610 C   0  0  0  0  0  0  0  0  0  0  0  0
  185.2530  178.9880  144.6370 C   0  0  2  0  0  0  0  0  0  0  0  0
  187.6290  177.9740  141.9240 C   0  0  0  0  0  0  0  0  0  0  0  0
  190.8770  176.4220  144.1080 C   0  0  0  0  0  3  0  0  0  0  0  0
  186.4080  178.3220  138.1980 C   0  0  0  0  0  2  0  0  0  0  0  0
  189.7420  176.8860  144.7820 C   0  0  0  0  0  3  0  0  0  0  0  0
  186.4930  178.6150  139.6970 C   0  0  0  0  0  2  0  0  0  0  0  0
  189.0610  177.5600  138.3530 C   0  0  1  0  0  3  0  0  0  0  0  0
  190.9370  176.4770  142.7140 C   0  0  0  0  0  3  0  0  0  0  0  0
  189.8820  177.0650  140.5580 N   0  0  0  0  0  0  0  0  0  0  0  0
  188.3730  176.8250  136.2090 C   0  0  0  0  0  2  0  0  0  0  0  0
  187.9860  175.5640  135.4560 C   0  0  0  0  0  2  0  0  0  0  0  0
  188.4920  172.0490  135.6930 C   0  0  0  0  0  2  0  0  0  0  0  0
  189.7490  174.0400  135.2060 C   0  0  0  0  0  2  0  0  0  0  0  0
  188.6310  174.4110  136.0610 N   0  0  0  0  0  0  0  0  0  0  0  0
  189.8280  172.5290  135.1830 C   0  0  0  0  0  2  0  0  0  0  0  0
  187.6930  173.3040  135.9670 C   0  0  0  0  0  2  0  0  0  0  0  0
  1 18  2  0  0  0  0
  1 26  1  0  0  0  0
  2 27  1  0  0  0  0
  3 16  1  1  0  0  0
  4 15  1  0  0  0  0
  4 23  2  0  0  0  0
  5 19  1  0  0  0  0
  5 15  2  0  0  0  0
  7  6  1  1  0  0  0
  7 19  1  0  0  0  0
  7  3  1  0  0  0  0
  9 13  2  0  0  0  0
  9 27  1  0  0  0  0
 10 22  1  0  0  0  0
 11  5  1  0  0  0  0
 12  8  1  0  0  0  0
 13 20  1  0  0  0  0
 14  2  2  0  0  0  0
 15 12  1  0  0  0  0
 16  8  1  0  0  0  0
 17 10  1  0  0  0  0
 17 25  1  0  0  0  0
 18  4  1  0  0  0  0
 19  6  1  1  0  0  0
 19  3  1  0  0  0  0
 20 11  2  0  0  0  0
 20 18  1  0  0  0  0
 21 23  1  0  0  0  0
 22 24  1  0  0  0  0
 24 13  1  0  0  0  0
 25 14  1  1  0  0  0
 25  9  1  0  0  0  0
 26 21  2  0  0  0  0
 27  1  1  0  0  0  0
 28 17  1  0  0  0  0
 29 32  1  0  0  0  0
 29 28  1  0  0  0  0
 30 34  1  0  0  0  0
 31 32  1  0  0  0  0
 33 31  1  0  0  0  0
 33 30  1  0  0  0  0
 34 32  1  0  0  0  0
M  END
>  <MODEL>
8

>  <REMARK>
 VINA RESULT:      -9.3      2.591      3.951
  Name = 
  3 active torsions:
  status: ('A' for Active; 'I' for Inactive)
    1  A    between atoms: N_17  and  C_28
    2  A    between atoms: C_28  and  C_29
    3  A    between atoms: C_29  and  N_32
                            x       y       z     vdW  Elec       q    Type
                         _______ _______ _______ _____ _____    ______ ____

>  <TORSDO>
F 3

$$$$
=
 OpenBabel11122412163D

 34 42  0  0  1  0  0  0  0  0999 V2000
  184.2620  178.5440  144.1960 C   0  0  0  0  0  0  0  0  0  0  0  0
  181.9820  178.8990  143.0560 C   0  0  0  0  0  3  0  0  0  0  0  0
  190.5400  178.3430  143.8920 C   0  0  2  0  0  3  0  0  0  0  0  0
  186.5010  178.1360  145.0870 C   0  0  0  0  0  0  0  0  0  0  0  0
  188.2990  177.6710  143.5210 C   0  0  0  0  0  0  0  0  0  0  0  0
  190.0510  176.8150  141.8820 C   0  0  0  0  0  2  0  0  0  0  0  0
  190.6650  178.0860  142.4080 C   0  0  1  0  0  3  0  0  0  0  0  0
  190.1260  177.0150  145.9840 C   0  0  0  0  0  2  0  0  0  0  0  0
  183.8920  178.4660  141.7390 C   0  0  0  0  0  0  0  0  0  0  0  0
  184.3320  179.8260  139.2130 C   0  0  0  0  0  2  0  0  0  0  0  0
  187.4190  177.7760  142.4880 N   0  0  0  0  0  0  0  0  0  0  0  0
  188.8280  177.8640  146.0700 C   0  0  0  0  0  2  0  0  0  0  0  0
  185.1910  178.1820  141.5070 C   0  0  0  0  0  0  0  0  0  0  0  0
  181.5460  178.7930  141.5890 C   0  0  0  0  0  3  0  0  0  0  0  0
  187.8600  177.8360  144.8700 C   0  0  0  0  0  0  0  0  0  0  0  0
  191.2100  177.5840  145.0220 C   0  0  0  0  0  2  0  0  0  0  0  0
  183.0090  179.7840  139.8620 N   0  0  0  0  0  0  0  0  0  0  0  0
  185.6210  178.2470  143.9880 C   0  0  0  0  0  0  0  0  0  0  0  0
  189.7090  177.2450  143.2830 C   0  0  2  0  0  0  0  0  0  0  0  0
  186.1060  178.0660  142.6770 C   0  0  0  0  0  0  0  0  0  0  0  0
  184.6430  178.6280  146.5850 C   0  0  0  0  0  3  0  0  0  0  0  0
  184.9160  178.4380  138.9430 C   0  0  0  0  0  2  0  0  0  0  0  0
  185.9950  178.3320  146.3830 C   0  0  0  0  0  3  0  0  0  0  0  0
  185.7620  177.9530  140.1220 C   0  0  0  0  0  2  0  0  0  0  0  0
  182.8090  178.6060  140.7240 C   0  0  1  0  0  3  0  0  0  0  0  0
  183.7770  178.7330  145.4950 C   0  0  0  0  0  3  0  0  0  0  0  0
  183.4060  178.6460  143.0530 N   0  0  0  0  0  0  0  0  0  0  0  0
  182.0220  179.7250  138.7910 C   0  0  0  0  0  2  0  0  0  0  0  0
  182.3000  178.5250  137.9010 C   0  0  0  0  0  2  0  0  0  0  0  0
  179.7190  176.2720  138.8660 C   0  0  0  0  0  2  0  0  0  0  0  0
  179.9820  178.5790  138.2400 C   0  0  0  0  0  2  0  0  0  0  0  0
  181.0610  177.8190  137.6250 N   0  0  0  0  0  0  0  0  0  0  0  0
  178.9850  177.5880  138.8020 C   0  0  0  0  0  2  0  0  0  0  0  0
  181.1140  176.5660  138.3600 C   0  0  0  0  0  2  0  0  0  0  0  0
  1 26  1  0  0  0  0
  3 16  1  1  0  0  0
  4 23  2  0  0  0  0
  5 15  2  0  0  0  0
  7  6  1  1  0  0  0
  7 19  1  0  0  0  0
  7  3  1  0  0  0  0
  8 12  1  0  0  0  0
  9 27  1  0  0  0  0
 10 17  1  0  0  0  0
 11 20  2  0  0  0  0
 11  5  1  0  0  0  0
 13  9  2  0  0  0  0
 13 20  1  0  0  0  0
 14  2  2  0  0  0  0
 15  4  1  0  0  0  0
 15 12  1  0  0  0  0
 16  8  1  0  0  0  0
 17 25  1  0  0  0  0
 18  1  2  0  0  0  0
 18  4  1  0  0  0  0
 19  6  1  1  0  0  0
 19  5  1  0  0  0  0
 19  3  1  0  0  0  0
 20 18  1  0  0  0  0
 22 10  1  0  0  0  0
 22 24  1  0  0  0  0
 23 21  1  0  0  0  0
 24 13  1  0  0  0  0
 25 14  1  1  0  0  0
 25  9  1  0  0  0  0
 26 21  2  0  0  0  0
 27  2  1  0  0  0  0
 27  1  1  0  0  0  0
 28 17  1  0  0  0  0
 29 28  1  0  0  0  0
 31 33  1  0  0  0  0
 32 29  1  0  0  0  0
 32 31  1  0  0  0  0
 32 34  1  0  0  0  0
 33 30  1  0  0  0  0
 34 30  1  0  0  0  0
M  END
>  <MODEL>
9

>  <REMARK>
 VINA RESULT:      -9.0      3.613      8.502
  Name = 
  3 active torsions:
  status: ('A' for Active; 'I' for Inactive)
    1  A    between atoms: N_17  and  C_28
    2  A    between atoms: C_28  and  C_29
    3  A    between atoms: C_29  and  N_32
                            x       y       z     vdW  Elec       q    Type
                         _______ _______ _______ _____ _____    ______ ____

>  <TORSDO>
F 3

$$$$
