=
 OpenBabel11122411543D

 28 32  0  0  1  0  0  0  0  0999 V2000
  189.1560  178.2720  138.4050 C   0  0  0  0  0  0  0  0  0  0  0  0
  193.0280  176.7480  135.9560 O   0  0  0  0  0  0  0  0  0  0  0  0
  186.5570  174.3300  135.5570 O   0  0  0  0  0  0  0  0  0  0  0  0
  189.1700  176.9240  140.8640 C   0  0  0  0  0  3  0  0  0  0  0  0
  188.6410  173.4320  136.4550 C   0  0  1  0  0  3  0  0  0  0  0  0
  189.0590  179.0020  137.1050 C   0  0  0  0  0  2  0  0  0  0  0  0
  193.9360  176.5750  138.2350 O   0  0  0  0  0  0  0  0  0  0  0  0
  193.1410  175.8700  137.1740 S   0  0  0  0  0  0  0  0  0  0  0  0
  192.9580  173.6020  135.8940 C   0  0  0  0  0  0  0  0  0  0  0  0
  191.5710  175.4550  137.7930 N   0  0  2  0  0  0  0  0  0  0  0  0
  185.8210  177.8990  135.8210 O   0  0  0  0  0  0  0  0  0  0  0  0
  189.6410  175.5530  136.4720 C   0  0  1  0  0  3  0  0  0  0  0  0
  191.7030  173.5570  136.1890 N   0  0  0  0  0  0  0  0  0  0  0  0
  193.9280  174.3490  136.7430 C   0  0  0  0  0  2  0  0  0  0  0  0
  187.0720  177.9520  135.9310 C   0  0  0  0  0  0  0  0  0  0  0  0
  189.8180  177.0300  138.5150 C   0  0  0  0  0  0  0  0  0  0  0  0
  187.6990  174.5350  136.0520 C   0  0  0  0  0  0  0  0  0  0  0  0
  193.4200  173.0440  134.5940 C   0  0  0  0  0  1  0  0  0  0  0  0
  187.9090  176.9160  135.2640 C   0  0  0  0  0  2  0  0  0  0  0  0
  189.8030  176.3630  139.7530 C   0  0  0  0  0  3  0  0  0  0  0  0
  188.5290  178.8310  139.5280 C   0  0  0  0  0  3  0  0  0  0  0  0
  188.5370  178.1610  140.7520 C   0  0  0  0  0  3  0  0  0  0  0  0
  187.6700  179.0220  136.6640 N   0  0  0  0  0  2  0  0  0  0  0  0
  189.6350  174.2780  137.2140 C   0  0  2  0  0  3  0  0  0  0  0  0
  188.2560  175.8490  136.1920 N   0  0  0  0  0  0  0  0  0  0  0  0
  191.1120  174.0760  137.4220 C   0  0  2  0  0  3  0  0  0  0  0  0
  187.9620  172.4730  137.4140 C   0  0  0  0  0  1  0  0  0  0  0  0
  190.5380  176.4130  137.3300 C   0  0  1  0  0  3  0  0  0  0  0  0
  1 16  2  0  0  0  0
  1 21  1  0  0  0  0
  2  8  2  0  0  0  0
  3 17  2  0  0  0  0
  5 24  1  0  0  0  0
  5 27  1  1  0  0  0
  6  1  1  0  0  0  0
  8  7  2  0  0  0  0
  9 13  2  0  0  0  0
  9 14  1  0  0  0  0
 10  8  1  6  0  0  0
 11 15  2  0  0  0  0
 12 25  1  1  0  0  0
 12 24  1  0  0  0  0
 12 28  1  0  0  0  0
 13 26  1  0  0  0  0
 14  8  1  0  0  0  0
 15 23  1  0  0  0  0
 16 20  1  0  0  0  0
 17 25  1  0  0  0  0
 17  5  1  0  0  0  0
 18  9  1  0  0  0  0
 19 15  1  0  0  0  0
 19 25  1  0  0  0  0
 20  4  2  0  0  0  0
 21 22  2  0  0  0  0
 22  4  1  0  0  0  0
 23  6  1  0  0  0  0
 24 26  1  0  0  0  0
 26 10  1  0  0  0  0
 28 10  1  0  0  0  0
 28 16  1  0  0  0  0
M  END
>  <MODEL>
1

>  <REMARK>
 VINA RESULT:      -5.6      0.000      0.000
  Name = 
  0 active torsions:
  status: ('A' for Active; 'I' for Inactive)
                            x       y       z     vdW  Elec       q    Type
                         _______ _______ _______ _____ _____    ______ ____

>  <TORSDO>
F 0

$$$$
=
 OpenBabel11122411543D

 28 32  0  0  1  0  0  0  0  0999 V2000
  185.9770  175.1810  136.4330 C   0  0  0  0  0  0  0  0  0  0  0  0
  182.7140  178.2270  134.5940 O   0  0  0  0  0  0  0  0  0  0  0  0
  186.4080  178.9940  140.3930 O   0  0  0  0  0  0  0  0  0  0  0  0
  184.5610  173.3030  137.9610 C   0  0  0  0  0  3  0  0  0  0  0  0
  184.0490  178.5690  139.9410 C   0  0  1  0  0  3  0  0  0  0  0  0
  186.8050  176.1630  135.6700 C   0  0  0  0  0  2  0  0  0  0  0  0
  181.3370  176.1890  134.6420 O   0  0  0  0  0  0  0  0  0  0  0  0
  181.8090  177.3720  135.4390 S   0  0  0  0  0  0  0  0  0  0  0  0
  180.9520  179.3080  136.9660 C   0  0  0  0  0  0  0  0  0  0  0  0
  182.6250  176.8270  136.8740 N   0  0  2  0  0  0  0  0  0  0  0  0
  188.9890  177.5340  138.2580 O   0  0  0  0  0  0  0  0  0  0  0  0
  184.5070  177.9220  137.7340 C   0  0  1  0  0  3  0  0  0  0  0  0
  181.8220  178.9680  137.8560 N   0  0  0  0  0  0  0  0  0  0  0  0
  180.4240  178.3240  135.9820 C   0  0  0  0  0  2  0  0  0  0  0  0
  188.0250  177.4900  137.4520 C   0  0  0  0  0  0  0  0  0  0  0  0
  184.7150  175.5240  136.9640 C   0  0  0  0  0  0  0  0  0  0  0  0
  185.5200  178.5310  139.6260 C   0  0  0  0  0  0  0  0  0  0  0  0
  180.5980  180.7460  136.8090 C   0  0  0  0  0  1  0  0  0  0  0  0
  186.9430  178.5100  137.5510 C   0  0  0  0  0  2  0  0  0  0  0  0
  184.0260  174.5730  137.7380 C   0  0  0  0  0  3  0  0  0  0  0  0
  186.5040  173.9010  136.6570 C   0  0  0  0  0  3  0  0  0  0  0  0
  185.8000  172.9650  137.4150 C   0  0  0  0  0  3  0  0  0  0  0  0
  188.0010  176.4870  136.4360 N   0  0  0  0  0  2  0  0  0  0  0  0
  183.5820  177.6390  138.8470 C   0  0  2  0  0  3  0  0  0  0  0  0
  185.8200  178.0040  138.3270 N   0  0  0  0  0  0  0  0  0  0  0  0
  182.2700  177.5990  138.1090 C   0  0  2  0  0  3  0  0  0  0  0  0
  183.7730  177.9360  141.2910 C   0  0  0  0  0  1  0  0  0  0  0  0
  184.0970  176.8870  136.7130 C   0  0  1  0  0  3  0  0  0  0  0  0
  1 21  2  0  0  0  0
  1 16  1  0  0  0  0
  2  8  2  0  0  0  0
  5 27  1  1  0  0  0
  6  1  1  0  0  0  0
  6 23  1  0  0  0  0
  7  8  2  0  0  0  0
  8 14  1  0  0  0  0
  9 13  2  0  0  0  0
 10  8  1  6  0  0  0
 10 26  1  0  0  0  0
 12 25  1  1  0  0  0
 12 24  1  0  0  0  0
 13 26  1  0  0  0  0
 14  9  1  0  0  0  0
 15 19  1  0  0  0  0
 15 11  2  0  0  0  0
 16 20  2  0  0  0  0
 17  5  1  0  0  0  0
 17  3  2  0  0  0  0
 18  9  1  0  0  0  0
 19 25  1  0  0  0  0
 20  4  1  0  0  0  0
 21 22  1  0  0  0  0
 22  4  2  0  0  0  0
 23 15  1  0  0  0  0
 24  5  1  0  0  0  0
 25 17  1  0  0  0  0
 26 24  1  0  0  0  0
 28 10  1  0  0  0  0
 28 16  1  0  0  0  0
 28 12  1  0  0  0  0
M  END
>  <MODEL>
2

>  <REMARK>
 VINA RESULT:      -5.4      4.615      8.317
  Name = 
  0 active torsions:
  status: ('A' for Active; 'I' for Inactive)
                            x       y       z     vdW  Elec       q    Type
                         _______ _______ _______ _____ _____    ______ ____

>  <TORSDO>
F 0

$$$$
=
 OpenBabel11122411543D

 28 32  0  0  1  0  0  0  0  0999 V2000
  182.2970  177.2170  137.3570 C   0  0  0  0  0  0  0  0  0  0  0  0
  184.6060  173.0450  138.1120 O   0  0  0  0  0  0  0  0  0  0  0  0
  187.3920  179.3220  137.2760 O   0  0  0  0  0  0  0  0  0  0  0  0
  181.8380  177.4010  134.5960 C   0  0  0  0  0  3  0  0  0  0  0  0
  187.3340  177.3070  135.9020 C   0  0  1  0  0  3  0  0  0  0  0  0
  182.5350  177.2090  138.8320 C   0  0  0  0  0  2  0  0  0  0  0  0
  183.2490  172.3750  136.1740 O   0  0  0  0  0  0  0  0  0  0  0  0
  184.5330  173.0210  136.6090 S   0  0  0  0  0  0  0  0  0  0  0  0
  187.1120  172.9670  136.2100 C   0  0  0  0  0  0  0  0  0  0  0  0
  184.6350  174.6270  135.9530 N   0  0  2  0  0  0  0  0  0  0  0  0
  184.5120  180.2420  139.3270 O   0  0  0  0  0  0  0  0  0  0  0  0
  185.5640  176.4100  137.1520 C   0  0  1  0  0  3  0  0  0  0  0  0
  187.0920  174.2420  136.0210 N   0  0  0  0  0  0  0  0  0  0  0  0
  185.9090  172.1260  135.9580 C   0  0  0  0  0  2  0  0  0  0  0  0
  184.2770  179.0130  139.2060 C   0  0  0  0  0  0  0  0  0  0  0  0
  183.1350  176.5150  136.4640 C   0  0  0  0  0  0  0  0  0  0  0  0
  186.8130  178.2490  136.9540 C   0  0  0  0  0  0  0  0  0  0  0  0
  188.3020  172.3460  136.8550 C   0  0  0  0  0  1  0  0  0  0  0  0
  185.4140  178.0650  139.0370 C   0  0  0  0  0  2  0  0  0  0  0  0
  182.8960  176.6300  135.0820 C   0  0  0  0  0  3  0  0  0  0  0  0
  181.2330  177.9830  136.8600 C   0  0  0  0  0  3  0  0  0  0  0  0
  181.0030  178.0740  135.4870 C   0  0  0  0  0  3  0  0  0  0  0  0
  182.9290  178.5440  139.2650 N   0  0  0  0  0  2  0  0  0  0  0  0
  186.1060  176.4370  135.7810 C   0  0  2  0  0  3  0  0  0  0  0  0
  185.6430  177.7700  137.6310 N   0  0  0  0  0  0  0  0  0  0  0  0
  185.9880  174.9820  135.4120 C   0  0  2  0  0  3  0  0  0  0  0  0
  187.5630  178.0380  134.5940 C   0  0  0  0  0  1  0  0  0  0  0  0
  184.2740  175.6480  136.9660 C   0  0  1  0  0  3  0  0  0  0  0  0
  1  6  1  0  0  0  0
  4 20  2  0  0  0  0
  4 22  1  0  0  0  0
  5 27  1  6  0  0  0
  5 17  1  0  0  0  0
  6 23  1  0  0  0  0
  7  8  2  0  0  0  0
  8  2  2  0  0  0  0
  9 18  1  0  0  0  0
 10  8  1  1  0  0  0
 10 28  1  0  0  0  0
 12 25  1  6  0  0  0
 13  9  2  0  0  0  0
 14  9  1  0  0  0  0
 14  8  1  0  0  0  0
 15 23  1  0  0  0  0
 15 11  2  0  0  0  0
 16 28  1  0  0  0  0
 16  1  2  0  0  0  0
 17  3  2  0  0  0  0
 17 25  1  0  0  0  0
 19 15  1  0  0  0  0
 20 16  1  0  0  0  0
 21  1  1  0  0  0  0
 22 21  2  0  0  0  0
 24  5  1  0  0  0  0
 24 12  1  0  0  0  0
 25 19  1  0  0  0  0
 26 24  1  0  0  0  0
 26 10  1  0  0  0  0
 26 13  1  0  0  0  0
 28 12  1  0  0  0  0
M  END
>  <MODEL>
3

>  <REMARK>
 VINA RESULT:      -5.3      4.114      6.774
  Name = 
  0 active torsions:
  status: ('A' for Active; 'I' for Inactive)
                            x       y       z     vdW  Elec       q    Type
                         _______ _______ _______ _____ _____    ______ ____

>  <TORSDO>
F 0

$$$$
=
 OpenBabel11122411543D

 28 32  0  0  1  0  0  0  0  0999 V2000
  181.1170  178.8720  137.3600 C   0  0  0  0  0  0  0  0  0  0  0  0
  180.7190  174.1140  138.0720 O   0  0  0  0  0  0  0  0  0  0  0  0
  186.5290  177.8230  137.4810 O   0  0  0  0  0  0  0  0  0  0  0  0
  180.9420  179.2950  134.5940 C   0  0  0  0  0  3  0  0  0  0  0  0
  185.4240  176.1810  136.0540 C   0  0  1  0  0  3  0  0  0  0  0  0
  181.2560  178.7260  138.8410 C   0  0  0  0  0  2  0  0  0  0  0  0
  179.2920  174.3140  136.0790 O   0  0  0  0  0  0  0  0  0  0  0  0
  180.7020  174.1430  136.5680 S   0  0  0  0  0  0  0  0  0  0  0  0
  182.8390  172.6790  136.2420 C   0  0  0  0  0  0  0  0  0  0  0  0
  181.6970  175.4320  135.9570 N   0  0  2  0  0  0  0  0  0  0  0  0
  184.5540  180.1650  139.4720 O   0  0  0  0  0  0  0  0  0  0  0  0
  183.4070  176.4000  137.2290 C   0  0  1  0  0  3  0  0  0  0  0  0
  183.5320  173.7560  136.0850 N   0  0  0  0  0  0  0  0  0  0  0  0
  181.3820  172.6420  135.9330 C   0  0  0  0  0  2  0  0  0  0  0  0
  183.6870  179.2690  139.3120 C   0  0  0  0  0  0  0  0  0  0  0  0
  181.4640  177.8310  136.4740 C   0  0  0  0  0  0  0  0  0  0  0  0
  185.4680  177.2480  137.1150 C   0  0  0  0  0  0  0  0  0  0  0  0
  183.4650  171.5020  136.9040 C   0  0  0  0  0  1  0  0  0  0  0  0
  184.1200  177.8520  139.1520 C   0  0  0  0  0  2  0  0  0  0  0  0
  181.3820  178.0660  135.0890 C   0  0  0  0  0  3  0  0  0  0  0  0
  180.6710  180.1010  136.8540 C   0  0  0  0  0  3  0  0  0  0  0  0
  180.5820  180.3120  135.4770 C   0  0  0  0  0  3  0  0  0  0  0  0
  182.3020  179.6190  139.3200 N   0  0  0  0  0  2  0  0  0  0  0  0
  183.9260  176.1320  135.8740 C   0  0  2  0  0  3  0  0  0  0  0  0
  184.2030  177.4890  137.7450 N   0  0  0  0  0  0  0  0  0  0  0  0
  183.0410  174.9860  135.4640 C   0  0  2  0  0  3  0  0  0  0  0  0
  186.0680  176.6730  134.7720 C   0  0  0  0  0  1  0  0  0  0  0  0
  181.9180  176.4760  136.9860 C   0  0  1  0  0  3  0  0  0  0  0  0
  1  6  1  0  0  0  0
  4 20  2  0  0  0  0
  4 22  1  0  0  0  0
  5 27  1  6  0  0  0
  5 17  1  0  0  0  0
  6 23  1  0  0  0  0
  7  8  2  0  0  0  0
  8  2  2  0  0  0  0
  9 18  1  0  0  0  0
 10  8  1  1  0  0  0
 10 28  1  0  0  0  0
 12 25  1  6  0  0  0
 13  9  2  0  0  0  0
 14  9  1  0  0  0  0
 14  8  1  0  0  0  0
 15 23  1  0  0  0  0
 15 11  2  0  0  0  0
 16 28  1  0  0  0  0
 16  1  2  0  0  0  0
 17  3  2  0  0  0  0
 17 25  1  0  0  0  0
 19 15  1  0  0  0  0
 20 16  1  0  0  0  0
 21  1  1  0  0  0  0
 22 21  2  0  0  0  0
 24  5  1  0  0  0  0
 24 12  1  0  0  0  0
 25 19  1  0  0  0  0
 26 24  1  0  0  0  0
 26 10  1  0  0  0  0
 26 13  1  0  0  0  0
 28 12  1  0  0  0  0
M  END
>  <MODEL>
4

>  <REMARK>
 VINA RESULT:      -5.3      5.813      8.647
  Name = 
  0 active torsions:
  status: ('A' for Active; 'I' for Inactive)
                            x       y       z     vdW  Elec       q    Type
                         _______ _______ _______ _____ _____    ______ ____

>  <TORSDO>
F 0

$$$$
=
 OpenBabel11122411543D

 28 32  0  0  1  0  0  0  0  0999 V2000
  180.3250  179.2770  141.9560 C   0  0  0  0  0  0  0  0  0  0  0  0
  180.7530  174.8420  140.0970 O   0  0  0  0  0  0  0  0  0  0  0  0
  185.7870  179.4510  141.2250 O   0  0  0  0  0  0  0  0  0  0  0  0
  179.6700  180.9860  139.8310 C   0  0  0  0  0  3  0  0  0  0  0  0
  184.7360  178.5620  139.2110 C   0  0  1  0  0  3  0  0  0  0  0  0
  180.7070  178.4380  143.1320 C   0  0  0  0  0  2  0  0  0  0  0  0
  179.0270  175.7170  138.5800 O   0  0  0  0  0  0  0  0  0  0  0  0
  180.5040  175.6190  138.8330 S   0  0  0  0  0  0  0  0  0  0  0  0
  182.7610  174.9950  137.6780 C   0  0  0  0  0  0  0  0  0  0  0  0
  181.1910  177.2130  138.9340 N   0  0  2  0  0  0  0  0  0  0  0  0
  183.8110  180.0100  144.2470 O   0  0  0  0  0  0  0  0  0  0  0  0
  182.9100  177.7400  140.4320 C   0  0  1  0  0  3  0  0  0  0  0  0
  183.2530  176.1200  138.0710 N   0  0  0  0  0  0  0  0  0  0  0  0
  181.2960  174.8180  137.4730 C   0  0  0  0  0  2  0  0  0  0  0  0
  183.0730  179.1590  143.6890 C   0  0  0  0  0  0  0  0  0  0  0  0
  180.6850  178.9200  140.6390 C   0  0  0  0  0  0  0  0  0  0  0  0
  184.7810  178.9340  140.6690 C   0  0  0  0  0  0  0  0  0  0  0  0
  183.6490  173.8020  137.5930 C   0  0  0  0  0  1  0  0  0  0  0  0
  183.6830  178.1390  142.7890 C   0  0  0  0  0  2  0  0  0  0  0  0
  180.3590  179.7960  139.5870 C   0  0  0  0  0  3  0  0  0  0  0  0
  179.6290  180.4710  142.1900 C   0  0  0  0  0  3  0  0  0  0  0  0
  179.3010  181.3210  141.1330 C   0  0  0  0  0  3  0  0  0  0  0  0
  181.6690  179.1640  143.9520 N   0  0  0  0  0  2  0  0  0  0  0  0
  183.2520  178.3030  139.1120 C   0  0  2  0  0  3  0  0  0  0  0  0
  183.6040  178.5580  141.3980 N   0  0  0  0  0  0  0  0  0  0  0  0
  182.4960  177.3630  138.2110 C   0  0  2  0  0  3  0  0  0  0  0  0
  185.0970  179.7530  138.3430 C   0  0  0  0  0  1  0  0  0  0  0  0
  181.4070  177.6190  140.3430 C   0  0  1  0  0  3  0  0  0  0  0  0
  1 21  1  0  0  0  0
  1  6  1  0  0  0  0
  4 22  1  0  0  0  0
  5 27  1  6  0  0  0
  5 17  1  0  0  0  0
  6 23  1  0  0  0  0
  7  8  2  0  0  0  0
  8  2  2  0  0  0  0
  9 13  2  0  0  0  0
 10  8  1  1  0  0  0
 10 28  1  0  0  0  0
 12 25  1  1  0  0  0
 13 26  1  0  0  0  0
 14  9  1  0  0  0  0
 14  8  1  0  0  0  0
 15 23  1  0  0  0  0
 15 11  2  0  0  0  0
 16  1  2  0  0  0  0
 17  3  2  0  0  0  0
 17 25  1  0  0  0  0
 18  9  1  0  0  0  0
 19 15  1  0  0  0  0
 20  4  2  0  0  0  0
 20 16  1  0  0  0  0
 22 21  2  0  0  0  0
 24  5  1  0  0  0  0
 24 12  1  0  0  0  0
 25 19  1  0  0  0  0
 26 10  1  0  0  0  0
 26 24  1  0  0  0  0
 28 12  1  0  0  0  0
 28 16  1  0  0  0  0
M  END
>  <MODEL>
5

>  <REMARK>
 VINA RESULT:      -5.2      7.190      9.841
  Name = 
  0 active torsions:
  status: ('A' for Active; 'I' for Inactive)
                            x       y       z     vdW  Elec       q    Type
                         _______ _______ _______ _____ _____    ______ ____

>  <TORSDO>
F 0

$$$$
=
 OpenBabel11122411543D

 28 32  0  0  1  0  0  0  0  0999 V2000
  184.9530  175.7340  136.3690 C   0  0  0  0  0  0  0  0  0  0  0  0
  181.5640  179.1300  135.8290 O   0  0  0  0  0  0  0  0  0  0  0  0
  186.6470  178.9460  140.5180 O   0  0  0  0  0  0  0  0  0  0  0  0
  183.8350  173.7200  137.9680 C   0  0  0  0  0  3  0  0  0  0  0  0
  184.2250  178.6800  140.6460 C   0  0  1  0  0  3  0  0  0  0  0  0
  185.6310  176.7790  135.5430 C   0  0  0  0  0  2  0  0  0  0  0  0
  180.0980  177.1600  135.9820 O   0  0  0  0  0  0  0  0  0  0  0  0
  180.8410  178.2030  136.7690 S   0  0  0  0  0  0  0  0  0  0  0  0
  180.5420  179.9420  138.6920 C   0  0  0  0  0  0  0  0  0  0  0  0
  181.9500  177.4340  137.8640 N   0  0  2  0  0  0  0  0  0  0  0  0
  188.4920  177.6940  137.6230 O   0  0  0  0  0  0  0  0  0  0  0  0
  184.0630  178.3260  138.3330 C   0  0  1  0  0  3  0  0  0  0  0  0
  181.5800  179.4480  139.2770 N   0  0  0  0  0  0  0  0  0  0  0  0
  179.7110  179.1240  137.7660 C   0  0  0  0  0  2  0  0  0  0  0  0
  187.3550  177.8000  137.0970 C   0  0  0  0  0  0  0  0  0  0  0  0
  183.8950  176.0500  137.2470 C   0  0  0  0  0  0  0  0  0  0  0  0
  185.5630  178.6280  139.9580 C   0  0  0  0  0  0  0  0  0  0  0  0
  180.2650  181.4000  138.8100 C   0  0  0  0  0  1  0  0  0  0  0  0
  186.4110  178.8370  137.5980 C   0  0  0  0  0  2  0  0  0  0  0  0
  183.3550  175.0290  138.0500 C   0  0  0  0  0  3  0  0  0  0  0  0
  185.4240  174.4160  136.2890 C   0  0  0  0  0  3  0  0  0  0  0  0
  184.8670  173.4130  137.0830 C   0  0  0  0  0  3  0  0  0  0  0  0
  187.0020  176.9470  136.0060 N   0  0  0  0  0  2  0  0  0  0  0  0
  183.4310  177.9280  139.6050 C   0  0  2  0  0  3  0  0  0  0  0  0
  185.4860  178.2740  138.5700 N   0  0  0  0  0  0  0  0  0  0  0  0
  181.9760  178.0420  139.2350 C   0  0  2  0  0  3  0  0  0  0  0  0
  184.2540  177.8780  141.9330 C   0  0  0  0  0  1  0  0  0  0  0  0
  183.3350  177.4580  137.3350 C   0  0  1  0  0  3  0  0  0  0  0  0
  1 16  1  0  0  0  0
  2  8  2  0  0  0  0
  4 20  1  0  0  0  0
  5 27  1  1  0  0  0
  6 23  1  0  0  0  0
  6  1  1  0  0  0  0
  7  8  2  0  0  0  0
  8 14  1  0  0  0  0
  9 18  1  0  0  0  0
  9 13  2  0  0  0  0
 10  8  1  6  0  0  0
 10 26  1  0  0  0  0
 12 25  1  1  0  0  0
 12 24  1  0  0  0  0
 14  9  1  0  0  0  0
 15 19  1  0  0  0  0
 15 11  2  0  0  0  0
 16 28  1  0  0  0  0
 16 20  2  0  0  0  0
 17  3  2  0  0  0  0
 17  5  1  0  0  0  0
 19 25  1  0  0  0  0
 21  1  2  0  0  0  0
 21 22  1  0  0  0  0
 22  4  2  0  0  0  0
 23 15  1  0  0  0  0
 24  5  1  0  0  0  0
 25 17  1  0  0  0  0
 26 13  1  0  0  0  0
 26 24  1  0  0  0  0
 28 10  1  0  0  0  0
 28 12  1  0  0  0  0
M  END
>  <MODEL>
6

>  <REMARK>
 VINA RESULT:      -4.7      5.176      8.872
  Name = 
  0 active torsions:
  status: ('A' for Active; 'I' for Inactive)
                            x       y       z     vdW  Elec       q    Type
                         _______ _______ _______ _____ _____    ______ ____

>  <TORSDO>
F 0

$$$$
=
 OpenBabel11122411543D

 28 32  0  0  1  0  0  0  0  0999 V2000
  180.9820  177.4820  137.0860 C   0  0  0  0  0  0  0  0  0  0  0  0
  183.0500  173.1200  137.1200 O   0  0  0  0  0  0  0  0  0  0  0  0
  185.6380  179.0390  139.5950 O   0  0  0  0  0  0  0  0  0  0  0  0
  181.5660  178.6360  134.5970 C   0  0  0  0  0  3  0  0  0  0  0  0
  186.1900  177.6270  137.6830 C   0  0  1  0  0  3  0  0  0  0  0  0
  180.6590  176.9510  138.4450 C   0  0  0  0  0  2  0  0  0  0  0  0
  182.5380  173.2710  134.7190 O   0  0  0  0  0  0  0  0  0  0  0  0
  183.5380  173.6170  135.7860 S   0  0  0  0  0  0  0  0  0  0  0  0
  186.0820  173.4790  136.3560 C   0  0  0  0  0  0  0  0  0  0  0  0
  183.7960  175.3350  135.8160 N   0  0  2  0  0  0  0  0  0  0  0  0
  182.1630  179.4490  140.6460 O   0  0  0  0  0  0  0  0  0  0  0  0
  184.1290  176.5140  137.8110 C   0  0  1  0  0  3  0  0  0  0  0  0
  186.0710  174.7390  136.6300 N   0  0  0  0  0  0  0  0  0  0  0  0
  185.0990  172.8820  135.4090 C   0  0  0  0  0  2  0  0  0  0  0  0
  182.0500  178.3610  140.0270 C   0  0  0  0  0  0  0  0  0  0  0  0
  182.1230  177.0580  136.3720 C   0  0  0  0  0  0  0  0  0  0  0  0
  185.2720  178.1950  138.7330 C   0  0  0  0  0  0  0  0  0  0  0  0
  186.9790  172.5750  137.1280 C   0  0  0  0  0  1  0  0  0  0  0  0
  183.2140  177.4320  139.9630 C   0  0  0  0  0  2  0  0  0  0  0  0
  182.4070  177.6580  135.1310 C   0  0  0  0  0  3  0  0  0  0  0  0
  180.1400  178.4610  136.5390 C   0  0  0  0  0  3  0  0  0  0  0  0
  180.4290  179.0340  135.3000 C   0  0  0  0  0  3  0  0  0  0  0  0
  180.8000  178.0180  139.4270 N   0  0  0  0  0  2  0  0  0  0  0  0
  185.1370  176.9610  136.8300 C   0  0  2  0  0  3  0  0  0  0  0  0
  183.9600  177.6170  138.7270 N   0  0  0  0  0  0  0  0  0  0  0  0
  185.2340  175.7350  135.9620 C   0  0  2  0  0  3  0  0  0  0  0  0
  186.8490  178.7390  136.8900 C   0  0  0  0  0  1  0  0  0  0  0  0
  183.0370  175.9760  136.9170 C   0  0  1  0  0  3  0  0  0  0  0  0
  1  6  1  0  0  0  0
  4 20  2  0  0  0  0
  4 22  1  0  0  0  0
  5 27  1  6  0  0  0
  5 17  1  0  0  0  0
  6 23  1  0  0  0  0
  7  8  2  0  0  0  0
  8  2  2  0  0  0  0
  9 13  2  0  0  0  0
  9 18  1  0  0  0  0
 10  8  1  1  0  0  0
 10 26  1  0  0  0  0
 10 28  1  0  0  0  0
 12 25  1  6  0  0  0
 14  8  1  0  0  0  0
 14  9  1  0  0  0  0
 15 11  2  0  0  0  0
 16 28  1  0  0  0  0
 16  1  2  0  0  0  0
 17  3  2  0  0  0  0
 19 15  1  0  0  0  0
 20 16  1  0  0  0  0
 21  1  1  0  0  0  0
 22 21  2  0  0  0  0
 23 15  1  0  0  0  0
 24  5  1  0  0  0  0
 24 12  1  0  0  0  0
 25 17  1  0  0  0  0
 25 19  1  0  0  0  0
 26 13  1  0  0  0  0
 26 24  1  0  0  0  0
 28 12  1  0  0  0  0
M  END
>  <MODEL>
7

>  <REMARK>
 VINA RESULT:      -4.6      5.014      7.798
  Name = 
  0 active torsions:
  status: ('A' for Active; 'I' for Inactive)
                            x       y       z     vdW  Elec       q    Type
                         _______ _______ _______ _____ _____    ______ ____

>  <TORSDO>
F 0

$$$$
=
 OpenBabel11122411543D

 28 32  0  0  1  0  0  0  0  0999 V2000
  179.5790  180.4010  139.3380 C   0  0  0  0  0  0  0  0  0  0  0  0
  179.2960  176.0010  137.3720 O   0  0  0  0  0  0  0  0  0  0  0  0
  184.1870  178.4180  141.6260 O   0  0  0  0  0  0  0  0  0  0  0  0
  180.8480  182.0490  137.4560 C   0  0  0  0  0  3  0  0  0  0  0  0
  184.1510  177.8340  139.2570 C   0  0  1  0  0  3  0  0  0  0  0  0
  178.9310  179.5810  140.4060 C   0  0  0  0  0  2  0  0  0  0  0  0
  179.1190  177.3400  135.3170 O   0  0  0  0  0  0  0  0  0  0  0  0
  180.0700  176.7070  136.2920 S   0  0  0  0  0  0  0  0  0  0  0  0
  182.1810  175.1760  136.4230 C   0  0  0  0  0  0  0  0  0  0  0  0
  181.1170  177.9200  136.9660 N   0  0  2  0  0  0  0  0  0  0  0  0
  181.2600  179.9360  143.1980 O   0  0  0  0  0  0  0  0  0  0  0  0
  181.8070  177.8740  139.2020 C   0  0  1  0  0  3  0  0  0  0  0  0
  182.7520  176.0570  137.1720 N   0  0  0  0  0  0  0  0  0  0  0  0
  181.1140  175.5550  135.4550 C   0  0  0  0  0  2  0  0  0  0  0  0
  180.6910  179.3880  142.2200 C   0  0  0  0  0  0  0  0  0  0  0  0
  180.4330  179.8260  138.3720 C   0  0  0  0  0  0  0  0  0  0  0  0
  183.5340  178.2800  140.5560 C   0  0  0  0  0  0  0  0  0  0  0  0
  182.4680  173.7320  136.6500 C   0  0  0  0  0  1  0  0  0  0  0  0
  181.2690  178.1420  141.6420 C   0  0  0  0  0  2  0  0  0  0  0  0
  181.0700  180.6700  137.4450 C   0  0  0  0  0  3  0  0  0  0  0  0
  179.3580  181.7850  139.3380 C   0  0  0  0  0  3  0  0  0  0  0  0
  179.9870  182.6060  138.4010 C   0  0  0  0  0  3  0  0  0  0  0  0
  179.4840  179.9490  141.7020 N   0  0  0  0  0  2  0  0  0  0  0  0
  182.9830  178.1530  138.3560 C   0  0  2  0  0  3  0  0  0  0  0  0
  182.1110  178.4430  140.4940 N   0  0  0  0  0  0  0  0  0  0  0  0
  182.5530  177.5020  137.0680 C   0  0  2  0  0  3  0  0  0  0  0  0
  185.3250  178.7200  138.8900 C   0  0  0  0  0  1  0  0  0  0  0  0
  180.6690  178.3280  138.3190 C   0  0  1  0  0  3  0  0  0  0  0  0
  1  6  1  0  0  0  0
  4 22  1  0  0  0  0
  5 27  1  6  0  0  0
  5 17  1  0  0  0  0
  6 23  1  0  0  0  0
  7  8  2  0  0  0  0
  8  2  2  0  0  0  0
  9 18  1  0  0  0  0
  9 13  2  0  0  0  0
 10  8  1  1  0  0  0
 10 26  1  0  0  0  0
 10 28  1  0  0  0  0
 12 25  1  1  0  0  0
 14  8  1  0  0  0  0
 14  9  1  0  0  0  0
 15 11  2  0  0  0  0
 16  1  2  0  0  0  0
 17  3  2  0  0  0  0
 19 15  1  0  0  0  0
 20  4  2  0  0  0  0
 20 16  1  0  0  0  0
 21  1  1  0  0  0  0
 22 21  2  0  0  0  0
 23 15  1  0  0  0  0
 24 12  1  0  0  0  0
 24  5  1  0  0  0  0
 25 17  1  0  0  0  0
 25 19  1  0  0  0  0
 26 13  1  0  0  0  0
 26 24  1  0  0  0  0
 28 16  1  0  0  0  0
 28 12  1  0  0  0  0
M  END
>  <MODEL>
8

>  <REMARK>
 VINA RESULT:      -4.6      7.284     10.079
  Name = 
  0 active torsions:
  status: ('A' for Active; 'I' for Inactive)
                            x       y       z     vdW  Elec       q    Type
                         _______ _______ _______ _____ _____    ______ ____

>  <TORSDO>
F 0

$$$$
=
 OpenBabel11122411543D

 28 32  0  0  1  0  0  0  0  0999 V2000
  181.8060  175.2880  136.5330 C   0  0  0  0  0  0  0  0  0  0  0  0
  186.5020  174.9270  137.5930 O   0  0  0  0  0  0  0  0  0  0  0  0
  181.6980  178.6390  140.9110 O   0  0  0  0  0  0  0  0  0  0  0  0
  181.5650  177.2990  134.5940 C   0  0  0  0  0  3  0  0  0  0  0  0
  183.6020  179.2210  139.5000 C   0  0  1  0  0  3  0  0  0  0  0  0
  181.8470  174.2320  137.5900 C   0  0  0  0  0  2  0  0  0  0  0  0
  186.7020  175.5810  135.2310 O   0  0  0  0  0  0  0  0  0  0  0  0
  186.5510  176.0880  136.6360 S   0  0  0  0  0  0  0  0  0  0  0  0
  187.5520  177.8000  138.3340 C   0  0  0  0  0  0  0  0  0  0  0  0
  185.1150  177.0600  136.7610 N   0  0  2  0  0  0  0  0  0  0  0  0
  179.7240  175.6470  140.2050 O   0  0  0  0  0  0  0  0  0  0  0  0
  183.7500  177.0360  138.6620 C   0  0  1  0  0  3  0  0  0  0  0  0
  186.3630  178.2510  138.5540 N   0  0  0  0  0  0  0  0  0  0  0  0
  187.9070  177.1430  137.0450 C   0  0  0  0  0  2  0  0  0  0  0  0
  180.7880  175.3180  139.6200 C   0  0  0  0  0  0  0  0  0  0  0  0
  182.7940  176.2910  136.4440 C   0  0  0  0  0  0  0  0  0  0  0  0
  182.4980  178.3220  139.9890 C   0  0  0  0  0  0  0  0  0  0  0  0
  188.5390  177.7800  139.4480 C   0  0  0  0  0  1  0  0  0  0  0  0
  182.0890  175.8430  140.1220 C   0  0  0  0  0  2  0  0  0  0  0  0
  182.6500  177.2990  135.4730 C   0  0  0  0  0  3  0  0  0  0  0  0
  180.7230  175.2930  135.6420 C   0  0  0  0  0  3  0  0  0  0  0  0
  180.6040  176.2920  134.6760 C   0  0  0  0  0  3  0  0  0  0  0  0
  180.7330  174.4230  138.5090 N   0  0  0  0  0  2  0  0  0  0  0  0
  183.9700  178.4390  138.2630 C   0  0  2  0  0  3  0  0  0  0  0  0
  182.4960  177.0250  139.3770 N   0  0  0  0  0  0  0  0  0  0  0  0
  185.2950  178.3170  137.5580 C   0  0  2  0  0  3  0  0  0  0  0  0
  183.0500  180.5740  139.0940 C   0  0  0  0  0  1  0  0  0  0  0  0
  183.9980  176.2980  137.3680 C   0  0  1  0  0  3  0  0  0  0  0  0
  1  6  1  0  0  0  0
  4 22  2  0  0  0  0
  4 20  1  0  0  0  0
  5 27  1  6  0  0  0
  5 17  1  0  0  0  0
  6 23  1  0  0  0  0
  7  8  2  0  0  0  0
  8 14  1  0  0  0  0
  8  2  2  0  0  0  0
  9 13  2  0  0  0  0
  9 18  1  0  0  0  0
 10  8  1  1  0  0  0
 10 28  1  0  0  0  0
 10 26  1  0  0  0  0
 12 25  1  6  0  0  0
 14  9  1  0  0  0  0
 15 19  1  0  0  0  0
 15 11  2  0  0  0  0
 16  1  1  0  0  0  0
 16 28  1  0  0  0  0
 17  3  2  0  0  0  0
 20 16  2  0  0  0  0
 21  1  2  0  0  0  0
 22 21  1  0  0  0  0
 23 15  1  0  0  0  0
 24 12  1  0  0  0  0
 24  5  1  0  0  0  0
 25 17  1  0  0  0  0
 25 19  1  0  0  0  0
 26 24  1  0  0  0  0
 26 13  1  0  0  0  0
 28 12  1  0  0  0  0
M  END
>  <MODEL>
9

>  <REMARK>
 VINA RESULT:      -4.5      5.262      7.908
  Name = 
  0 active torsions:
  status: ('A' for Active; 'I' for Inactive)
                            x       y       z     vdW  Elec       q    Type
                         _______ _______ _______ _____ _____    ______ ____

>  <TORSDO>
F 0

$$$$
