=
 OpenBabel11122412023D

 34 42  0  0  1  0  0  0  0  0999 V2000
  187.9290  177.9100  140.5910 C   0  0  0  0  0  0  0  0  0  0  0  0
  186.1910  178.2790  138.7530 C   0  0  0  0  0  2  0  0  0  0  0  0
  189.5840  177.1110  147.0330 C   0  0  2  0  0  0  0  0  0  0  0  0
  189.3820  177.3740  142.4510 C   0  0  0  0  0  0  0  0  0  0  0  0
  188.4120  176.8480  144.7050 C   0  0  1  0  0  3  0  0  0  0  0  0
  187.7520  177.6550  147.2340 C   0  0  2  0  0  3  0  0  0  0  0  0
  188.7900  177.5820  148.1270 O   0  0  0  0  0  0  0  0  0  0  0  0
  191.5770  177.2440  145.5520 C   0  0  0  0  0  2  0  0  0  0  0  0
  185.7400  179.0730  140.9930 C   0  0  2  0  0  3  0  0  0  0  0  0
  182.8100  178.2330  141.8720 C   0  0  0  0  0  3  0  0  0  0  0  0
  187.0370  177.2890  144.1650 C   0  0  0  0  0  2  0  0  0  0  0  0
  190.9110  176.6310  144.3190 C   0  0  0  0  0  2  0  0  0  0  0  0
  185.6820  178.3380  142.3340 C   0  0  1  0  0  3  0  0  0  0  0  0
  184.8280  178.9550  138.7410 C   0  0  0  0  0  2  0  0  0  0  0  0
  189.6330  177.3910  143.9350 C   0  0  1  0  0  3  0  0  0  0  0  0
  191.0070  176.6970  146.8610 C   0  0  0  0  0  2  0  0  0  0  0  0
  183.3060  178.2320  140.6210 C   0  0  0  0  0  0  0  0  0  0  0  0
  188.1410  177.8210  141.9780 C   0  0  0  0  0  0  0  0  0  0  0  0
  188.5400  177.1600  146.1560 C   0  0  2  0  0  3  0  0  0  0  0  0
  187.0800  178.2550  142.9720 C   0  0  2  0  0  3  0  0  0  0  0  0
  190.1520  177.0520  140.2220 C   0  0  0  0  0  3  0  0  0  0  0  0
  183.3940  178.9450  143.0250 C   0  0  0  0  0  3  0  0  0  0  0  0
  190.3530  177.0080  141.5670 N   0  0  0  0  0  0  0  0  0  0  0  0
  184.7070  179.0200  143.2420 C   0  0  0  0  0  3  0  0  0  0  0  0
  184.4270  179.1720  140.2040 C   0  0  1  0  0  3  0  0  0  0  0  0
  188.9360  177.5060  139.7090 C   0  0  0  0  0  3  0  0  0  0  0  0
  186.6830  178.4270  140.1070 N   0  0  0  0  0  0  0  0  0  0  0  0
  182.7200  177.4180  139.6410 O   0  0  0  0  0  0  0  0  0  0  0  0
  182.1510  176.1430  139.9200 C   0  0  0  0  0  2  0  0  0  0  0  0
  179.4920  174.4940  140.7060 O   0  0  0  0  0  0  0  0  0  0  0  0
  179.8680  176.7290  140.6440 C   0  0  0  0  0  2  0  0  0  0  0  0
  180.6830  176.1390  139.5370 C   0  0  2  0  0  3  0  0  0  0  0  0
  178.9350  175.6910  141.0460 N   0  0  0  0  0  2  0  0  0  0  0  0
  180.1770  174.7250  139.5050 C   0  0  0  0  0  2  0  0  0  0  0  0
  1 18  1  0  0  0  0
  2 27  1  0  0  0  0
  3 16  1  6  0  0  0
  3  6  1  0  0  0  0
  3  7  1  0  0  0  0
  4 15  1  0  0  0  0
  5 11  1  6  0  0  0
  5 19  1  0  0  0  0
  6  7  1  1  0  0  0
  8 16  1  0  0  0  0
  9 27  1  6  0  0  0
  9 13  1  0  0  0  0
 10 22  1  0  0  0  0
 12  8  1  0  0  0  0
 13 20  1  0  0  0  0
 13 24  1  1  0  0  0
 14  2  1  0  0  0  0
 14 25  1  0  0  0  0
 15 12  1  6  0  0  0
 15  5  1  0  0  0  0
 17 10  2  0  0  0  0
 18  4  2  0  0  0  0
 18 20  1  0  0  0  0
 19  3  1  0  0  0  0
 19  6  1  0  0  0  0
 20 11  1  0  0  0  0
 21 23  2  0  0  0  0
 22 24  2  0  0  0  0
 23  4  1  0  0  0  0
 25 17  1  0  0  0  0
 25  9  1  0  0  0  0
 26 21  1  0  0  0  0
 26  1  2  0  0  0  0
 27  1  1  0  0  0  0
 28 29  1  0  0  0  0
 28 17  1  0  0  0  0
 30 33  1  0  0  0  0
 31 33  1  0  0  0  0
 32 29  1  0  0  0  0
 32 31  1  0  0  0  0
 34 32  1  0  0  0  0
 34 30  1  0  0  0  0
M  END
>  <MODEL>
1

>  <REMARK>
 VINA RESULT:     -10.8      0.000      0.000
  Name = 
  3 active torsions:
  status: ('A' for Active; 'I' for Inactive)
    1  A    between atoms: C_17  and  O_28
    2  A    between atoms: O_28  and  C_29
    3  A    between atoms: C_29  and  C_32
                            x       y       z     vdW  Elec       q    Type
                         _______ _______ _______ _____ _____    ______ ____

>  <TORSDO>
F 3

$$$$
=
 OpenBabel11122412023D

 34 42  0  0  1  0  0  0  0  0999 V2000
  188.0260  177.8700  140.7570 C   0  0  0  0  0  0  0  0  0  0  0  0
  186.2870  178.2530  138.9230 C   0  0  0  0  0  2  0  0  0  0  0  0
  189.6910  177.0690  147.1960 C   0  0  2  0  0  0  0  0  0  0  0  0
  189.4790  177.3220  142.6140 C   0  0  0  0  0  0  0  0  0  0  0  0
  188.5090  176.8130  144.8720 C   0  0  1  0  0  3  0  0  0  0  0  0
  187.8650  177.6340  147.4010 C   0  0  2  0  0  3  0  0  0  0  0  0
  188.9040  177.5520  148.2910 O   0  0  0  0  0  0  0  0  0  0  0  0
  191.6810  177.1760  145.7100 C   0  0  0  0  0  2  0  0  0  0  0  0
  185.8520  179.0580  141.1620 C   0  0  2  0  0  3  0  0  0  0  0  0
  182.9150  178.2530  142.0510 C   0  0  0  0  0  3  0  0  0  0  0  0
  187.1380  177.2680  144.3350 C   0  0  0  0  0  2  0  0  0  0  0  0
  191.0050  176.5670  144.4800 C   0  0  0  0  0  2  0  0  0  0  0  0
  185.7890  178.3270  142.5050 C   0  0  1  0  0  3  0  0  0  0  0  0
  184.9320  178.9450  138.9130 C   0  0  0  0  0  2  0  0  0  0  0  0
  189.7340  177.3400  144.0980 C   0  0  1  0  0  3  0  0  0  0  0  0
  191.1080  176.6390  147.0220 C   0  0  0  0  0  2  0  0  0  0  0  0
  183.4080  178.2440  140.7980 C   0  0  0  0  0  0  0  0  0  0  0  0
  188.2420  177.7810  142.1430 C   0  0  0  0  0  0  0  0  0  0  0  0
  188.6440  177.1280  146.3220 C   0  0  2  0  0  3  0  0  0  0  0  0
  187.1880  178.2300  143.1390 C   0  0  2  0  0  3  0  0  0  0  0  0
  190.2390  176.9860  140.3840 C   0  0  0  0  0  3  0  0  0  0  0  0
  183.5100  178.9620  143.2000 C   0  0  0  0  0  3  0  0  0  0  0  0
  190.4430  176.9430  141.7290 N   0  0  0  0  0  0  0  0  0  0  0  0
  184.8250  179.0220  143.4130 C   0  0  0  0  0  3  0  0  0  0  0  0
  184.5380  179.1690  140.3760 C   0  0  1  0  0  3  0  0  0  0  0  0
  189.0260  177.4520  139.8730 C   0  0  0  0  0  3  0  0  0  0  0  0
  186.7850  178.3990  140.2750 N   0  0  0  0  0  0  0  0  0  0  0  0
  182.8090  177.4340  139.8220 O   0  0  0  0  0  0  0  0  0  0  0  0
  181.4330  177.0690  139.8440 C   0  0  0  0  0  2  0  0  0  0  0  0
  181.1490  180.1490  138.9280 O   0  0  0  0  0  0  0  0  0  0  0  0
  181.6130  178.2930  137.7110 C   0  0  0  0  0  2  0  0  0  0  0  0
  180.6750  177.8580  138.7920 C   0  0  2  0  0  3  0  0  0  0  0  0
  181.5460  179.7440  137.6880 N   0  0  0  0  0  2  0  0  0  0  0  0
  180.2420  179.1750  139.3690 C   0  0  0  0  0  2  0  0  0  0  0  0
  1 18  1  0  0  0  0
  2 27  1  0  0  0  0
  3 16  1  6  0  0  0
  3  6  1  0  0  0  0
  3  7  1  0  0  0  0
  4 15  1  0  0  0  0
  5 11  1  6  0  0  0
  5 19  1  0  0  0  0
  6  7  1  1  0  0  0
  8 16  1  0  0  0  0
  9 27  1  6  0  0  0
  9 13  1  0  0  0  0
 10 22  1  0  0  0  0
 12  8  1  0  0  0  0
 13 20  1  0  0  0  0
 13 24  1  1  0  0  0
 14  2  1  0  0  0  0
 14 25  1  0  0  0  0
 15 12  1  6  0  0  0
 15  5  1  0  0  0  0
 17 10  2  0  0  0  0
 18  4  2  0  0  0  0
 18 20  1  0  0  0  0
 19  3  1  0  0  0  0
 19  6  1  0  0  0  0
 20 11  1  0  0  0  0
 21 23  2  0  0  0  0
 22 24  2  0  0  0  0
 23  4  1  0  0  0  0
 25 17  1  0  0  0  0
 25  9  1  0  0  0  0
 26 21  1  0  0  0  0
 26  1  2  0  0  0  0
 27  1  1  0  0  0  0
 28 29  1  0  0  0  0
 28 17  1  0  0  0  0
 30 34  1  0  0  0  0
 31 32  1  0  0  0  0
 32 34  1  0  0  0  0
 32 29  1  0  0  0  0
 33 31  1  0  0  0  0
 33 30  1  0  0  0  0
M  END
>  <MODEL>
2

>  <REMARK>
 VINA RESULT:     -10.7      1.428      1.818
  Name = 
  3 active torsions:
  status: ('A' for Active; 'I' for Inactive)
    1  A    between atoms: C_17  and  O_28
    2  A    between atoms: O_28  and  C_29
    3  A    between atoms: C_29  and  C_32
                            x       y       z     vdW  Elec       q    Type
                         _______ _______ _______ _____ _____    ______ ____

>  <TORSDO>
F 3

$$$$
=
 OpenBabel11122412023D

 34 42  0  0  1  0  0  0  0  0999 V2000
  190.7730  177.3340  143.4670 C   0  0  0  0  0  0  0  0  0  0  0  0
  192.4890  176.8140  141.6450 C   0  0  0  0  0  2  0  0  0  0  0  0
  184.4880  178.5550  145.4390 C   0  0  2  0  0  0  0  0  0  0  0  0
  188.9730  177.6340  145.0570 C   0  0  0  0  0  0  0  0  0  0  0  0
  186.5830  177.4570  144.3120 C   0  0  1  0  0  3  0  0  0  0  0  0
  184.2600  178.6750  143.5340 C   0  0  2  0  0  3  0  0  0  0  0  0
  183.4670  179.0740  144.5790 O   0  0  0  0  0  0  0  0  0  0  0  0
  186.1270  178.7970  147.2930 C   0  0  0  0  0  2  0  0  0  0  0  0
  190.4610  177.9990  141.0660 C   0  0  2  0  0  3  0  0  0  0  0  0
  189.1620  176.7200  138.4700 C   0  0  0  0  0  3  0  0  0  0  0  0
  187.0880  177.4100  142.8560 C   0  0  0  0  0  2  0  0  0  0  0  0
  187.1240  177.7600  146.7730 C   0  0  0  0  0  2  0  0  0  0  0  0
  188.9870  177.6220  141.2310 C   0  0  1  0  0  3  0  0  0  0  0  0
  192.5380  177.1190  140.1550 C   0  0  0  0  0  2  0  0  0  0  0  0
  187.5600  178.0730  145.3340 C   0  0  1  0  0  3  0  0  0  0  0  0
  184.6820  178.4660  146.9150 C   0  0  0  0  0  2  0  0  0  0  0  0
  190.4180  176.5340  138.9170 C   0  0  0  0  0  0  0  0  0  0  0  0
  189.4260  177.6400  143.7310 C   0  0  0  0  0  0  0  0  0  0  0  0
  185.2590  178.1360  144.3940 C   0  0  2  0  0  3  0  0  0  0  0  0
  188.4710  178.0360  142.6210 C   0  0  2  0  0  3  0  0  0  0  0  0
  191.1260  176.9720  145.8250 C   0  0  0  0  0  3  0  0  0  0  0  0
  188.2590  177.8110  138.8830 C   0  0  0  0  0  3  0  0  0  0  0  0
  189.8290  177.3080  146.0660 N   0  0  0  0  0  0  0  0  0  0  0  0
  188.1800  178.2500  140.1400 C   0  0  0  0  0  3  0  0  0  0  0  0
  191.1350  177.5840  139.7510 C   0  0  1  0  0  3  0  0  0  0  0  0
  191.6230  176.9810  144.5200 C   0  0  0  0  0  3  0  0  0  0  0  0
  191.2530  177.4020  142.1190 N   0  0  0  0  0  0  0  0  0  0  0  0
  191.1300  175.3890  138.5310 O   0  0  0  0  0  0  0  0  0  0  0  0
  191.0150  174.7930  137.2420 C   0  0  0  0  0  2  0  0  0  0  0  0
  193.7230  176.5280  136.9910 O   0  0  0  0  0  0  0  0  0  0  0  0
  193.4060  174.3970  137.6980 C   0  0  0  0  0  2  0  0  0  0  0  0
  192.3920  174.6340  136.6240 C   0  0  2  0  0  3  0  0  0  0  0  0
  194.3650  175.4820  137.5840 N   0  0  0  0  0  2  0  0  0  0  0  0
  192.8430  175.9520  136.0630 C   0  0  0  0  0  2  0  0  0  0  0  0
  1 18  2  0  0  0  0
  1 26  1  0  0  0  0
  2 27  1  0  0  0  0
  3 16  1  1  0  0  0
  4 15  1  0  0  0  0
  4 23  2  0  0  0  0
  5 11  1  6  0  0  0
  5 19  1  0  0  0  0
  5 15  1  0  0  0  0
  6 19  1  0  0  0  0
  6  7  1  1  0  0  0
  6  3  1  0  0  0  0
  7  3  1  0  0  0  0
  9 13  1  0  0  0  0
  9 27  1  1  0  0  0
 10 22  1  0  0  0  0
 10 17  2  0  0  0  0
 12  8  1  0  0  0  0
 13 24  1  6  0  0  0
 13 20  1  0  0  0  0
 14  2  1  0  0  0  0
 15 12  1  1  0  0  0
 16  8  1  0  0  0  0
 17 25  1  0  0  0  0
 18  4  1  0  0  0  0
 19  3  1  0  0  0  0
 20 11  1  0  0  0  0
 20 18  1  0  0  0  0
 21 23  1  0  0  0  0
 22 24  2  0  0  0  0
 25 14  1  0  0  0  0
 25  9  1  0  0  0  0
 26 21  2  0  0  0  0
 27  1  1  0  0  0  0
 28 17  1  0  0  0  0
 29 28  1  0  0  0  0
 30 33  1  0  0  0  0
 32 29  1  0  0  0  0
 32 31  1  0  0  0  0
 33 31  1  0  0  0  0
 34 32  1  0  0  0  0
 34 30  1  0  0  0  0
M  END
>  <MODEL>
3

>  <REMARK>
 VINA RESULT:     -10.7      3.859      7.465
  Name = 
  3 active torsions:
  status: ('A' for Active; 'I' for Inactive)
    1  A    between atoms: C_17  and  O_28
    2  A    between atoms: O_28  and  C_29
    3  A    between atoms: C_29  and  C_32
                            x       y       z     vdW  Elec       q    Type
                         _______ _______ _______ _____ _____    ______ ____

>  <TORSDO>
F 3

$$$$
=
 OpenBabel11122412023D

 34 42  0  0  1  0  0  0  0  0999 V2000
  189.9920  177.4980  141.3490 C   0  0  0  0  0  0  0  0  0  0  0  0
  190.1530  177.4030  138.7990 C   0  0  0  0  0  2  0  0  0  0  0  0
  186.4340  178.1300  146.9890 C   0  0  2  0  0  0  0  0  0  0  0  0
  189.6000  177.4220  143.7360 C   0  0  0  0  0  0  0  0  0  0  0  0
  187.2560  177.3380  144.6310 C   0  0  1  0  0  3  0  0  0  0  0  0
  185.0950  178.6280  145.7030 C   0  0  2  0  0  3  0  0  0  0  0  0
  185.1630  178.7860  147.0630 O   0  0  0  0  0  0  0  0  0  0  0  0
  188.8810  178.0330  147.4190 C   0  0  0  0  0  2  0  0  0  0  0  0
  188.3410  178.6280  139.8320 C   0  0  2  0  0  3  0  0  0  0  0  0
  185.5910  177.8700  138.4450 C   0  0  0  0  0  3  0  0  0  0  0  0
  186.7490  177.6000  143.1990 C   0  0  0  0  0  2  0  0  0  0  0  0
  189.2270  177.1490  146.2190 C   0  0  0  0  0  2  0  0  0  0  0  0
  187.2530  178.1870  140.8130 C   0  0  1  0  0  3  0  0  0  0  0  0
  189.3060  178.0050  137.6880 C   0  0  0  0  0  2  0  0  0  0  0  0
  188.7150  177.7580  144.9060 C   0  0  1  0  0  3  0  0  0  0  0  0
  187.4850  177.7480  147.9750 C   0  0  0  0  0  2  0  0  0  0  0  0
  186.8260  177.6290  137.9680 C   0  0  0  0  0  0  0  0  0  0  0  0
  189.1370  177.7090  142.4450 C   0  0  0  0  0  0  0  0  0  0  0  0
  186.3460  177.9520  145.6390 C   0  0  2  0  0  3  0  0  0  0  0  0
  187.7500  178.2970  142.2650 C   0  0  2  0  0  3  0  0  0  0  0  0
  191.6820  176.6740  142.8590 C   0  0  0  0  0  3  0  0  0  0  0  0
  185.2580  178.8310  139.5140 C   0  0  0  0  0  3  0  0  0  0  0  0
  190.8540  176.9200  143.9120 N   0  0  0  0  0  0  0  0  0  0  0  0
  186.0170  179.0030  140.5960 C   0  0  0  0  0  3  0  0  0  0  0  0
  188.0120  178.5060  138.3380 C   0  0  1  0  0  3  0  0  0  0  0  0
  191.2670  176.9600  141.5580 C   0  0  0  0  0  3  0  0  0  0  0  0
  189.5440  177.8500  140.0350 N   0  0  0  0  0  0  0  0  0  0  0  0
  187.0220  176.6050  137.0300 O   0  0  0  0  0  0  0  0  0  0  0  0
  187.2640  175.2480  137.3900 C   0  0  0  0  0  2  0  0  0  0  0  0
  185.3060  172.7620  138.0120 O   0  0  0  0  0  0  0  0  0  0  0  0
  184.9110  174.6970  136.8990 C   0  0  0  0  0  2  0  0  0  0  0  0
  186.3340  174.3350  136.6130 C   0  0  2  0  0  3  0  0  0  0  0  0
  184.3040  173.5030  137.4610 N   0  0  0  0  0  2  0  0  0  0  0  0
  186.4150  172.9440  137.1730 C   0  0  0  0  0  2  0  0  0  0  0  0
  1 26  2  0  0  0  0
  1 18  1  0  0  0  0
  2 27  1  0  0  0  0
  3  7  1  0  0  0  0
  3 16  1  6  0  0  0
  4 23  1  0  0  0  0
  4 15  1  0  0  0  0
  5 11  1  6  0  0  0
  5 15  1  0  0  0  0
  5 19  1  0  0  0  0
  6  3  1  0  0  0  0
  6  7  1  1  0  0  0
  8 16  1  0  0  0  0
  9 27  1  6  0  0  0
  9 13  1  0  0  0  0
 10 22  1  0  0  0  0
 12  8  1  0  0  0  0
 13 24  1  1  0  0  0
 13 20  1  0  0  0  0
 14 25  1  0  0  0  0
 14  2  1  0  0  0  0
 15 12  1  1  0  0  0
 17 25  1  0  0  0  0
 17 10  2  0  0  0  0
 18  4  2  0  0  0  0
 19  6  1  0  0  0  0
 19  3  1  0  0  0  0
 20 18  1  0  0  0  0
 20 11  1  0  0  0  0
 21 23  2  0  0  0  0
 22 24  2  0  0  0  0
 25  9  1  0  0  0  0
 26 21  1  0  0  0  0
 27  1  1  0  0  0  0
 28 29  1  0  0  0  0
 28 17  1  0  0  0  0
 31 33  1  0  0  0  0
 32 31  1  0  0  0  0
 32 34  1  0  0  0  0
 32 29  1  0  0  0  0
 33 30  1  0  0  0  0
 34 30  1  0  0  0  0
M  END
>  <MODEL>
4

>  <REMARK>
 VINA RESULT:     -10.5      3.029      3.982
  Name = 
  3 active torsions:
  status: ('A' for Active; 'I' for Inactive)
    1  A    between atoms: C_17  and  O_28
    2  A    between atoms: O_28  and  C_29
    3  A    between atoms: C_29  and  C_32
                            x       y       z     vdW  Elec       q    Type
                         _______ _______ _______ _____ _____    ______ ____

>  <TORSDO>
F 3

$$$$
=
 OpenBabel11122412023D

 34 42  0  0  1  0  0  0  0  0999 V2000
  189.9910  177.5260  141.3570 C   0  0  0  0  0  0  0  0  0  0  0  0
  190.1600  177.3890  138.8100 C   0  0  0  0  0  2  0  0  0  0  0  0
  186.4130  178.2390  146.9750 C   0  0  2  0  0  0  0  0  0  0  0  0
  189.5920  177.4890  143.7440 C   0  0  0  0  0  0  0  0  0  0  0  0
  187.2460  177.4110  144.6340 C   0  0  1  0  0  3  0  0  0  0  0  0
  185.0770  178.7100  145.6770 C   0  0  2  0  0  3  0  0  0  0  0  0
  185.1400  178.8910  147.0350 O   0  0  0  0  0  0  0  0  0  0  0  0
  188.8590  178.1590  147.4130 C   0  0  0  0  0  2  0  0  0  0  0  0
  188.3400  178.6240  139.8170 C   0  0  2  0  0  3  0  0  0  0  0  0
  185.5970  177.8320  138.4340 C   0  0  0  0  0  3  0  0  0  0  0  0
  186.7420  177.6470  143.1960 C   0  0  0  0  0  2  0  0  0  0  0  0
  189.2130  177.2560  146.2300 C   0  0  0  0  0  2  0  0  0  0  0  0
  187.2500  178.1960  140.8020 C   0  0  1  0  0  3  0  0  0  0  0  0
  189.3140  177.9690  137.6860 C   0  0  0  0  0  2  0  0  0  0  0  0
  188.7020  177.8410  144.9060 C   0  0  1  0  0  3  0  0  0  0  0  0
  187.4630  177.8780  147.9710 C   0  0  0  0  0  2  0  0  0  0  0  0
  186.8350  177.5880  137.9650 C   0  0  0  0  0  0  0  0  0  0  0  0
  189.1320  177.7520  142.4460 C   0  0  0  0  0  0  0  0  0  0  0  0
  186.3310  178.0380  145.6280 C   0  0  2  0  0  3  0  0  0  0  0  0
  187.7430  178.3320  142.2530 C   0  0  2  0  0  3  0  0  0  0  0  0
  191.6790  176.7340  142.8860 C   0  0  0  0  0  3  0  0  0  0  0  0
  185.2570  178.8090  139.4860 C   0  0  0  0  0  3  0  0  0  0  0  0
  190.8480  176.9940  143.9310 N   0  0  0  0  0  0  0  0  0  0  0  0
  186.0120  179.0030  140.5680 C   0  0  0  0  0  3  0  0  0  0  0  0
  188.0160  178.4750  138.3240 C   0  0  1  0  0  3  0  0  0  0  0  0
  191.2670  176.9970  141.5790 C   0  0  0  0  0  3  0  0  0  0  0  0
  189.5450  177.8550  140.0360 N   0  0  0  0  0  0  0  0  0  0  0  0
  187.0360  176.5490  137.0450 O   0  0  0  0  0  0  0  0  0  0  0  0
  186.1620  175.4310  136.9210 C   0  0  0  0  0  2  0  0  0  0  0  0
  188.9300  173.7830  137.0860 O   0  0  0  0  0  0  0  0  0  0  0  0
  186.7910  173.0470  136.9290 C   0  0  0  0  0  2  0  0  0  0  0  0
  186.8510  174.3220  136.1490 C   0  0  2  0  0  3  0  0  0  0  0  0
  188.1720  172.6520  137.1490 N   0  0  0  0  0  2  0  0  0  0  0  0
  188.3290  174.5850  136.1050 C   0  0  0  0  0  2  0  0  0  0  0  0
  1 26  2  0  0  0  0
  1 18  1  0  0  0  0
  2 27  1  0  0  0  0
  3  7  1  0  0  0  0
  3 16  1  6  0  0  0
  4 23  1  0  0  0  0
  4 15  1  0  0  0  0
  5 11  1  6  0  0  0
  5 15  1  0  0  0  0
  5 19  1  0  0  0  0
  6  3  1  0  0  0  0
  6  7  1  1  0  0  0
  8 16  1  0  0  0  0
  9 27  1  1  0  0  0
  9 13  1  0  0  0  0
 10 22  1  0  0  0  0
 12  8  1  0  0  0  0
 13 24  1  1  0  0  0
 13 20  1  0  0  0  0
 14 25  1  0  0  0  0
 14  2  1  0  0  0  0
 15 12  1  1  0  0  0
 17 25  1  0  0  0  0
 17 10  2  0  0  0  0
 18  4  2  0  0  0  0
 19  6  1  0  0  0  0
 19  3  1  0  0  0  0
 20 18  1  0  0  0  0
 20 11  1  0  0  0  0
 21 23  2  0  0  0  0
 22 24  2  0  0  0  0
 25  9  1  0  0  0  0
 26 21  1  0  0  0  0
 27  1  1  0  0  0  0
 28 17  1  0  0  0  0
 29 28  1  0  0  0  0
 30 33  1  0  0  0  0
 31 33  1  0  0  0  0
 32 29  1  0  0  0  0
 32 31  1  0  0  0  0
 34 32  1  0  0  0  0
 34 30  1  0  0  0  0
M  END
>  <MODEL>
5

>  <REMARK>
 VINA RESULT:     -10.5      3.508      4.629
  Name = 
  3 active torsions:
  status: ('A' for Active; 'I' for Inactive)
    1  A    between atoms: C_17  and  O_28
    2  A    between atoms: O_28  and  C_29
    3  A    between atoms: C_29  and  C_32
                            x       y       z     vdW  Elec       q    Type
                         _______ _______ _______ _____ _____    ______ ____

>  <TORSDO>
F 3

$$$$
=
 OpenBabel11122412023D

 34 42  0  0  1  0  0  0  0  0999 V2000
  183.1890  178.8020  143.3580 C   0  0  0  0  0  0  0  0  0  0  0  0
  180.8150  179.5560  142.7840 C   0  0  0  0  0  2  0  0  0  0  0  0
  189.4850  177.3600  141.5800 C   0  0  2  0  0  0  0  0  0  0  0  0
  185.5280  178.2980  143.7200 C   0  0  0  0  0  0  0  0  0  0  0  0
  187.1880  178.5890  141.8590 C   0  0  1  0  0  3  0  0  0  0  0  0
  188.6800  177.5030  139.8410 C   0  0  2  0  0  3  0  0  0  0  0  0
  189.8730  176.9690  140.2580 O   0  0  0  0  0  0  0  0  0  0  0  0
  189.0370  176.8570  143.9740 C   0  0  0  0  0  2  0  0  0  0  0  0
  182.1620  178.4730  141.0910 C   0  0  2  0  0  3  0  0  0  0  0  0
  182.0030  180.1030  138.3740 C   0  0  0  0  0  3  0  0  0  0  0  0
  186.0040  178.8320  140.9030 C   0  0  0  0  0  2  0  0  0  0  0  0
  187.9870  177.9490  144.1820 C   0  0  0  0  0  2  0  0  0  0  0  0
  183.5280  178.8330  140.5030 C   0  0  1  0  0  3  0  0  0  0  0  0
  179.9780  179.4580  141.5170 C   0  0  0  0  0  2  0  0  0  0  0  0
  186.8470  177.8340  143.1600 C   0  0  1  0  0  3  0  0  0  0  0  0
  190.0930  177.2450  142.9370 C   0  0  0  0  0  2  0  0  0  0  0  0
  181.1780  180.2200  139.4310 C   0  0  0  0  0  0  0  0  0  0  0  0
  184.4530  178.4710  142.8390 C   0  0  0  0  0  0  0  0  0  0  0  0
  188.3130  177.9130  141.1530 C   0  0  2  0  0  3  0  0  0  0  0  0
  184.6620  178.2360  141.3540 C   0  0  2  0  0  3  0  0  0  0  0  0
  184.1380  178.8360  145.5750 C   0  0  0  0  0  3  0  0  0  0  0  0
  182.9140  178.9710  138.1180 C   0  0  0  0  0  3  0  0  0  0  0  0
  185.3460  178.4780  145.0580 N   0  0  0  0  0  0  0  0  0  0  0  0
  183.6060  178.3650  139.0840 C   0  0  0  0  0  3  0  0  0  0  0  0
  180.9320  179.0610  140.3850 C   0  0  1  0  0  3  0  0  0  0  0  0
  183.0370  179.0030  144.7340 C   0  0  0  0  0  3  0  0  0  0  0  0
  182.0740  178.9160  142.4660 N   0  0  0  0  0  0  0  0  0  0  0  0
  180.4480  181.4020  139.6160 O   0  0  0  0  0  0  0  0  0  0  0  0
  179.5820  181.9510  138.6270 C   0  0  0  0  0  2  0  0  0  0  0  0
  179.3680  183.5490  135.8340 O   0  0  0  0  0  0  0  0  0  0  0  0
  179.3060  184.3110  137.9680 C   0  0  0  0  0  2  0  0  0  0  0  0
  180.2450  183.1470  137.9690 C   0  0  2  0  0  3  0  0  0  0  0  0
  179.1170  184.6670  136.5730 N   0  0  0  0  0  2  0  0  0  0  0  0
  180.4070  182.8840  136.4990 C   0  0  0  0  0  2  0  0  0  0  0  0
  1 26  1  0  0  0  0
  3 16  1  1  0  0  0
  4 23  2  0  0  0  0
  5 11  1  6  0  0  0
  5 15  1  0  0  0  0
  6  7  1  6  0  0  0
  6 19  1  0  0  0  0
  6  3  1  0  0  0  0
  7  3  1  0  0  0  0
  8 12  1  0  0  0  0
  9 27  1  1  0  0  0
 10 17  2  0  0  0  0
 11 20  1  0  0  0  0
 13 24  1  6  0  0  0
 13  9  1  0  0  0  0
 13 20  1  0  0  0  0
 14  2  1  0  0  0  0
 15  4  1  0  0  0  0
 15 12  1  1  0  0  0
 16  8  1  0  0  0  0
 17 28  1  0  0  0  0
 17 25  1  0  0  0  0
 18  1  2  0  0  0  0
 18  4  1  0  0  0  0
 19  3  1  0  0  0  0
 19  5  1  0  0  0  0
 20 18  1  0  0  0  0
 22 10  1  0  0  0  0
 22 24  2  0  0  0  0
 23 21  1  0  0  0  0
 25  9  1  0  0  0  0
 25 14  1  0  0  0  0
 26 21  2  0  0  0  0
 27  2  1  0  0  0  0
 27  1  1  0  0  0  0
 29 28  1  0  0  0  0
 30 34  1  0  0  0  0
 30 33  1  0  0  0  0
 31 32  1  0  0  0  0
 32 29  1  0  0  0  0
 33 31  1  0  0  0  0
 34 32  1  0  0  0  0
M  END
>  <MODEL>
6

>  <REMARK>
 VINA RESULT:      -9.5      3.909      5.834
  Name = 
  3 active torsions:
  status: ('A' for Active; 'I' for Inactive)
    1  A    between atoms: C_17  and  O_28
    2  A    between atoms: O_28  and  C_29
    3  A    between atoms: C_29  and  C_32
                            x       y       z     vdW  Elec       q    Type
                         _______ _______ _______ _____ _____    ______ ____

>  <TORSDO>
F 3

$$$$
=
 OpenBabel11122412023D

 34 42  0  0  1  0  0  0  0  0999 V2000
  188.2060  177.6990  138.4500 C   0  0  0  0  0  0  0  0  0  0  0  0
  186.5580  178.4080  140.2720 C   0  0  0  0  0  2  0  0  0  0  0  0
  194.0790  175.1160  136.5260 C   0  0  2  0  0  0  0  0  0  0  0  0
  189.8160  176.7900  136.8890 C   0  0  0  0  0  0  0  0  0  0  0  0
  191.7740  175.4580  137.7220 C   0  0  1  0  0  3  0  0  0  0  0  0
  194.4200  175.3330  138.4050 C   0  0  2  0  0  3  0  0  0  0  0  0
  195.2570  175.1120  137.3410 O   0  0  0  0  0  0  0  0  0  0  0  0
  192.7430  175.9620  134.6080 C   0  0  0  0  0  2  0  0  0  0  0  0
  188.9290  178.3880  140.7530 C   0  0  2  0  0  3  0  0  0  0  0  0
  189.4590  176.9500  143.5310 C   0  0  0  0  0  3  0  0  0  0  0  0
  191.3860  175.8700  139.1560 C   0  0  0  0  0  2  0  0  0  0  0  0
  191.3700  175.6930  135.2270 C   0  0  0  0  0  2  0  0  0  0  0  0
  189.9660  177.2650  140.6820 C   0  0  1  0  0  3  0  0  0  0  0  0
  186.7450  178.8760  141.7080 C   0  0  0  0  0  2  0  0  0  0  0  0
  191.2320  176.3670  136.6000 C   0  0  1  0  0  3  0  0  0  0  0  0
  193.8030  174.9610  135.0690 C   0  0  0  0  0  2  0  0  0  0  0  0
  188.2780  177.4080  143.0740 C   0  0  0  0  0  0  0  0  0  0  0  0
  189.4950  177.2020  138.1890 C   0  0  0  0  0  0  0  0  0  0  0  0
  193.2510  175.3080  137.5930 C   0  0  2  0  0  3  0  0  0  0  0  0
  190.5620  177.1620  139.2670 C   0  0  2  0  0  3  0  0  0  0  0  0
  187.6100  177.2900  136.1490 C   0  0  0  0  0  3  0  0  0  0  0  0
  190.7850  177.3280  143.0080 C   0  0  0  0  0  3  0  0  0  0  0  0
  188.8740  176.8480  135.9060 N   0  0  0  0  0  0  0  0  0  0  0  0
  191.0310  177.4950  141.7070 C   0  0  0  0  0  3  0  0  0  0  0  0
  188.1960  178.5650  142.0900 C   0  0  1  0  0  3  0  0  0  0  0  0
  187.2530  177.7260  137.4260 C   0  0  0  0  0  3  0  0  0  0  0  0
  187.8950  178.1810  139.7630 N   0  0  0  0  0  0  0  0  0  0  0  0
  187.0840  176.8800  143.5830 O   0  0  0  0  0  0  0  0  0  0  0  0
  186.7670  176.8540  144.9720 C   0  0  0  0  0  2  0  0  0  0  0  0
  184.4570  178.7020  146.2560 O   0  0  0  0  0  0  0  0  0  0  0  0
  186.5550  178.2560  146.9890 C   0  0  0  0  0  2  0  0  0  0  0  0
  186.6310  178.2720  145.4950 C   0  0  2  0  0  3  0  0  0  0  0  0
  185.2820  178.8680  147.3280 N   0  0  0  0  0  2  0  0  0  0  0  0
  185.2800  178.8130  145.1260 C   0  0  0  0  0  2  0  0  0  0  0  0
  1 27  1  0  0  0  0
  2 14  1  0  0  0  0
  3 16  1  6  0  0  0
  3  7  1  0  0  0  0
  3 19  1  0  0  0  0
  3  6  1  0  0  0  0
  4 18  2  0  0  0  0
  5 11  1  1  0  0  0
  6  7  1  1  0  0  0
  8 16  1  0  0  0  0
  8 12  1  0  0  0  0
  9 27  1  6  0  0  0
  9 25  1  0  0  0  0
 11 20  1  0  0  0  0
 13  9  1  0  0  0  0
 13 24  1  1  0  0  0
 14 25  1  0  0  0  0
 15 12  1  6  0  0  0
 15  4  1  0  0  0  0
 15  5  1  0  0  0  0
 17 10  2  0  0  0  0
 17 28  1  0  0  0  0
 18  1  1  0  0  0  0
 18 20  1  0  0  0  0
 19  5  1  0  0  0  0
 19  6  1  0  0  0  0
 20 13  1  0  0  0  0
 21 26  1  0  0  0  0
 22 10  1  0  0  0  0
 23 21  2  0  0  0  0
 23  4  1  0  0  0  0
 24 22  2  0  0  0  0
 25 17  1  0  0  0  0
 26  1  2  0  0  0  0
 27  2  1  0  0  0  0
 28 29  1  0  0  0  0
 29 32  1  0  0  0  0
 30 33  1  0  0  0  0
 31 33  1  0  0  0  0
 32 31  1  0  0  0  0
 34 32  1  0  0  0  0
 34 30  1  0  0  0  0
M  END
>  <MODEL>
7

>  <REMARK>
 VINA RESULT:      -8.7      4.065      7.524
  Name = 
  3 active torsions:
  status: ('A' for Active; 'I' for Inactive)
    1  A    between atoms: C_17  and  O_28
    2  A    between atoms: O_28  and  C_29
    3  A    between atoms: C_29  and  C_32
                            x       y       z     vdW  Elec       q    Type
                         _______ _______ _______ _____ _____    ______ ____

>  <TORSDO>
F 3

$$$$
=
 OpenBabel11122412023D

 34 42  0  0  1  0  0  0  0  0999 V2000
  187.9660  177.8670  142.7130 C   0  0  0  0  0  0  0  0  0  0  0  0
  190.2640  177.2420  141.7830 C   0  0  0  0  0  2  0  0  0  0  0  0
  181.4480  179.1690  141.8780 C   0  0  2  0  0  0  0  0  0  0  0  0
  185.6820  178.2560  143.4120 C   0  0  0  0  0  0  0  0  0  0  0  0
  183.7970  178.0150  141.7710 C   0  0  1  0  0  3  0  0  0  0  0  0
  182.0160  179.1640  140.0420 C   0  0  2  0  0  3  0  0  0  0  0  0
  180.8750  179.6240  140.6470 O   0  0  0  0  0  0  0  0  0  0  0  0
  182.1960  179.5410  144.2200 C   0  0  0  0  0  2  0  0  0  0  0  0
  188.6700  178.3730  140.3580 C   0  0  2  0  0  3  0  0  0  0  0  0
  188.5140  176.9210  137.5410 C   0  0  0  0  0  3  0  0  0  0  0  0
  184.8500  177.8770  140.6530 C   0  0  0  0  0  2  0  0  0  0  0  0
  183.2970  178.4790  144.2150 C   0  0  0  0  0  2  0  0  0  0  0  0
  187.2490  177.9980  139.9310 C   0  0  1  0  0  3  0  0  0  0  0  0
  190.9200  177.4510  140.4260 C   0  0  0  0  0  2  0  0  0  0  0  0
  184.2870  178.7020  143.0620 C   0  0  1  0  0  3  0  0  0  0  0  0
  181.0240  179.1760  143.3080 C   0  0  0  0  0  2  0  0  0  0  0  0
  189.4760  176.7720  138.4710 C   0  0  0  0  0  0  0  0  0  0  0  0
  186.6350  178.1790  142.3880 C   0  0  0  0  0  0  0  0  0  0  0  0
  182.5690  178.6880  141.2650 C   0  0  2  0  0  3  0  0  0  0  0  0
  186.2210  178.4960  140.9620 C   0  0  2  0  0  3  0  0  0  0  0  0
  187.3230  177.6590  145.0280 C   0  0  0  0  0  3  0  0  0  0  0  0
  187.5430  178.0300  137.4830 C   0  0  0  0  0  3  0  0  0  0  0  0
  186.0470  178.0010  144.7000 N   0  0  0  0  0  0  0  0  0  0  0  0
  186.9680  178.5490  138.5690 C   0  0  0  0  0  3  0  0  0  0  0  0
  189.8120  177.8790  139.4590 C   0  0  1  0  0  3  0  0  0  0  0  0
  188.3070  177.5880  144.0410 C   0  0  0  0  0  3  0  0  0  0  0  0
  188.9540  177.8510  141.6760 N   0  0  0  0  0  0  0  0  0  0  0  0
  190.2600  175.6100  138.4800 O   0  0  0  0  0  0  0  0  0  0  0  0
  191.0510  175.1910  137.3720 C   0  0  0  0  0  2  0  0  0  0  0  0
  193.9540  175.1910  135.9650 O   0  0  0  0  0  0  0  0  0  0  0  0
  193.1790  176.3830  137.7310 C   0  0  0  0  0  2  0  0  0  0  0  0
  192.5010  175.0520  137.7980 C   0  0  2  0  0  3  0  0  0  0  0  0
  194.2800  176.2210  136.7970 N   0  0  0  0  0  2  0  0  0  0  0  0
  193.2550  174.2720  136.7610 C   0  0  0  0  0  2  0  0  0  0  0  0
  1 26  1  0  0  0  0
  3 16  1  1  0  0  0
  4 23  2  0  0  0  0
  5 11  1  6  0  0  0
  5 15  1  0  0  0  0
  6  7  1  6  0  0  0
  6 19  1  0  0  0  0
  6  3  1  0  0  0  0
  7  3  1  0  0  0  0
  9 27  1  1  0  0  0
 10 17  2  0  0  0  0
 11 20  1  0  0  0  0
 12  8  1  0  0  0  0
 13 24  1  6  0  0  0
 13  9  1  0  0  0  0
 13 20  1  0  0  0  0
 14  2  1  0  0  0  0
 15  4  1  0  0  0  0
 15 12  1  1  0  0  0
 16  8  1  0  0  0  0
 17 28  1  0  0  0  0
 17 25  1  0  0  0  0
 18  1  2  0  0  0  0
 18  4  1  0  0  0  0
 19  5  1  0  0  0  0
 19  3  1  0  0  0  0
 20 18  1  0  0  0  0
 22 10  1  0  0  0  0
 22 24  2  0  0  0  0
 23 21  1  0  0  0  0
 25  9  1  0  0  0  0
 25 14  1  0  0  0  0
 26 21  2  0  0  0  0
 27  2  1  0  0  0  0
 27  1  1  0  0  0  0
 29 32  1  0  0  0  0
 29 28  1  0  0  0  0
 30 34  1  0  0  0  0
 30 33  1  0  0  0  0
 31 32  1  0  0  0  0
 33 31  1  0  0  0  0
 34 32  1  0  0  0  0
M  END
>  <MODEL>
8

>  <REMARK>
 VINA RESULT:      -8.5      3.400      8.176
  Name = 
  3 active torsions:
  status: ('A' for Active; 'I' for Inactive)
    1  A    between atoms: C_17  and  O_28
    2  A    between atoms: O_28  and  C_29
    3  A    between atoms: C_29  and  C_32
                            x       y       z     vdW  Elec       q    Type
                         _______ _______ _______ _____ _____    ______ ____

>  <TORSDO>
F 3

$$$$
=
 OpenBabel11122412023D

 34 42  0  0  1  0  0  0  0  0999 V2000
  187.2290  177.8430  140.9980 C   0  0  0  0  0  0  0  0  0  0  0  0
  189.5920  177.2950  141.8040 C   0  0  0  0  0  2  0  0  0  0  0  0
  180.8180  179.3630  142.2040 C   0  0  2  0  0  0  0  0  0  0  0  0
  184.9860  178.5660  140.4450 C   0  0  0  0  0  0  0  0  0  0  0  0
  183.4370  179.3730  142.2470 C   0  0  1  0  0  3  0  0  0  0  0  0
  181.3770  178.8830  143.9790 C   0  0  2  0  0  3  0  0  0  0  0  0
  180.1350  179.0400  143.4210 O   0  0  0  0  0  0  0  0  0  0  0  0
  181.2700  179.0160  139.7840 C   0  0  0  0  0  2  0  0  0  0  0  0
  187.7020  176.7790  143.2220 C   0  0  2  0  0  3  0  0  0  0  0  0
  188.2640  177.7760  146.1810 C   0  0  0  0  0  3  0  0  0  0  0  0
  184.4720  178.8990  143.2870 C   0  0  0  0  0  2  0  0  0  0  0  0
  182.7230  179.4930  139.8150 C   0  0  0  0  0  2  0  0  0  0  0  0
  186.5970  177.6680  143.7980 C   0  0  1  0  0  3  0  0  0  0  0  0
  190.1270  176.6490  143.0740 C   0  0  0  0  0  2  0  0  0  0  0  0
  183.5460  178.7190  140.8550 C   0  0  1  0  0  3  0  0  0  0  0  0
  180.3970  179.7260  140.8200 C   0  0  0  0  0  2  0  0  0  0  0  0
  189.1710  177.6190  145.1990 C   0  0  0  0  0  0  0  0  0  0  0  0
  185.9030  178.0910  141.3930 C   0  0  0  0  0  0  0  0  0  0  0  0
  182.0500  179.2320  142.7740 C   0  0  2  0  0  3  0  0  0  0  0  0
  185.4290  177.7980  142.8040 C   0  0  2  0  0  3  0  0  0  0  0  0
  186.6830  178.6070  138.7770 C   0  0  0  0  0  3  0  0  0  0  0  0
  186.9090  177.1930  146.1970 C   0  0  0  0  0  3  0  0  0  0  0  0
  185.3940  178.8060  139.1680 N   0  0  0  0  0  0  0  0  0  0  0  0
  186.1390  177.1180  145.1110 C   0  0  0  0  0  3  0  0  0  0  0  0
  188.9680  176.6150  144.0750 C   0  0  1  0  0  3  0  0  0  0  0  0
  187.6240  178.1200  139.6850 C   0  0  0  0  0  3  0  0  0  0  0  0
  188.1520  177.2980  141.9490 N   0  0  0  0  0  0  0  0  0  0  0  0
  190.3820  178.3230  145.2530 O   0  0  0  0  0  0  0  0  0  0  0  0
  191.5980  177.7550  145.7320 C   0  0  0  0  0  2  0  0  0  0  0  0
  193.2240  175.4510  147.2970 O   0  0  0  0  0  0  0  0  0  0  0  0
  191.7960  177.0280  148.0800 C   0  0  0  0  0  2  0  0  0  0  0  0
  191.2930  176.6470  146.7230 C   0  0  2  0  0  3  0  0  0  0  0  0
  192.7500  175.9980  148.4520 N   0  0  0  0  0  2  0  0  0  0  0  0
  192.1390  175.4470  146.4090 C   0  0  0  0  0  2  0  0  0  0  0  0
  1 18  1  0  0  0  0
  1 27  1  0  0  0  0
  2 27  1  0  0  0  0
  2 14  1  0  0  0  0
  3 16  1  6  0  0  0
  3 19  1  0  0  0  0
  3  7  1  0  0  0  0
  3  6  1  0  0  0  0
  4 15  1  0  0  0  0
  4 18  2  0  0  0  0
  5 19  1  0  0  0  0
  5 11  1  1  0  0  0
  6  7  1  1  0  0  0
  8 12  1  0  0  0  0
  8 16  1  0  0  0  0
  9 27  1  6  0  0  0
  9 13  1  0  0  0  0
  9 25  1  0  0  0  0
 10 22  1  0  0  0  0
 13 24  1  1  0  0  0
 14 25  1  0  0  0  0
 15 12  1  6  0  0  0
 15  5  1  0  0  0  0
 17 28  1  0  0  0  0
 17 10  2  0  0  0  0
 18 20  1  0  0  0  0
 19  6  1  0  0  0  0
 20 11  1  0  0  0  0
 20 13  1  0  0  0  0
 21 23  2  0  0  0  0
 21 26  1  0  0  0  0
 23  4  1  0  0  0  0
 24 22  2  0  0  0  0
 25 17  1  0  0  0  0
 26  1  2  0  0  0  0
 28 29  1  0  0  0  0
 29 32  1  0  0  0  0
 30 33  1  0  0  0  0
 31 33  1  0  0  0  0
 32 31  1  0  0  0  0
 34 32  1  0  0  0  0
 34 30  1  0  0  0  0
M  END
>  <MODEL>
9

>  <REMARK>
 VINA RESULT:      -8.1      2.420      8.438
  Name = 
  3 active torsions:
  status: ('A' for Active; 'I' for Inactive)
    1  A    between atoms: C_17  and  O_28
    2  A    between atoms: O_28  and  C_29
    3  A    between atoms: C_29  and  C_32
                            x       y       z     vdW  Elec       q    Type
                         _______ _______ _______ _____ _____    ______ ____

>  <TORSDO>
F 3

$$$$
