=
 OpenBabel11122410353D

 32 37  0  0  1  0  0  0  0  0999 V2000
  190.6700  174.9200  137.7410 C   0  0  0  0  0  2  0  0  0  0  0  0
  189.0480  178.0810  141.4500 C   0  0  1  0  0  3  0  0  0  0  0  0
  191.8990  176.1110  145.0200 C   0  0  0  0  0  3  0  0  0  0  0  0
  190.9440  176.4820  145.9640 C   0  0  0  0  0  3  0  0  0  0  0  0
  186.6690  178.7590  142.0440 C   0  0  2  0  0  3  0  0  0  0  0  0
  185.6880  178.8040  143.1670 C   0  0  0  0  0  0  0  0  0  0  0  0
  189.8910  177.6160  139.1390 C   0  0  1  0  0  3  0  0  0  0  0  0
  191.3980  177.3630  140.9520 C   0  0  0  0  0  2  0  0  0  0  0  0
  184.7880  178.6020  145.2290 C   0  0  0  0  0  0  0  0  0  0  0  0
  192.1180  176.7530  138.8040 C   0  0  0  0  0  2  0  0  0  0  0  0
  191.6800  176.4180  143.6780 C   0  0  0  0  0  3  0  0  0  0  0  0
  190.2830  177.4140  141.8990 N   0  0  0  0  0  0  0  0  0  0  0  0
  190.5130  177.0870  143.2830 C   0  0  0  0  0  0  0  0  0  0  0  0
  188.3320  178.1930  143.8820 C   0  0  2  0  0  3  0  0  0  0  0  0
  184.2050  179.6010  144.6510 N   0  0  0  0  0  0  0  0  0  0  0  0
  189.3760  175.7070  137.4800 C   0  0  0  0  0  2  0  0  0  0  0  0
  190.9580  176.7670  139.6960 N   0  0  2  0  0  0  0  0  0  0  0  0
  184.7870  179.7530  143.3620 C   0  0  0  0  0  3  0  0  0  0  0  0
  189.4840  177.2200  137.7120 C   0  0  0  0  0  2  0  0  0  0  0  0
  191.9450  175.7700  137.6320 C   0  0  1  0  0  3  0  0  0  0  0  0
  189.8140  177.1280  145.5720 N   0  0  0  0  0  0  0  0  0  0  0  0
  189.5640  177.4200  144.2640 C   0  0  0  0  0  0  0  0  0  0  0  0
  187.2140  178.0420  144.9450 C   0  0  0  0  0  2  0  0  0  0  0  0
  188.6740  177.5700  140.0550 C   0  0  0  0  0  2  0  0  0  0  0  0
  186.0330  178.2500  140.9110 O   0  0  0  0  0  1  0  0  0  0  0  0
  184.4120  178.1420  146.5930 C   0  0  0  0  0  1  0  0  0  0  0  0
  187.8780  177.8770  142.4330 C   0  0  2  0  0  3  0  0  0  0  0  0
  185.8020  177.9350  144.3640 C   0  0  2  0  0  3  0  0  0  0  0  0
  193.1130  174.9050  137.5580 N   0  0  0  0  0  2  0  0  0  0  0  0
  194.2220  175.1570  136.6910 C   0  0  0  0  0  0  0  0  0  0  0  0
  194.2700  176.3730  135.8290 C   0  0  0  0  0  1  0  0  0  0  0  0
  195.1800  174.3420  136.6580 O   0  0  0  0  0  0  0  0  0  0  0  0
  2 24  1  6  0  0  0
  2 12  1  0  0  0  0
  2 27  1  0  0  0  0
  3  4  1  0  0  0  0
  5 25  1  6  0  0  0
  5 27  1  0  0  0  0
  5  6  1  0  0  0  0
  6 18  2  0  0  0  0
  6 28  1  0  0  0  0
  7 19  1  6  0  0  0
  7 17  1  0  0  0  0
  7 24  1  0  0  0  0
  8 12  1  0  0  0  0
  9 26  1  0  0  0  0
 11  3  2  0  0  0  0
 12 13  1  0  0  0  0
 13 11  1  0  0  0  0
 13 22  2  0  0  0  0
 14 22  1  0  0  0  0
 14 23  1  1  0  0  0
 15  9  2  0  0  0  0
 16 19  1  0  0  0  0
 16  1  1  0  0  0  0
 17 10  1  6  0  0  0
 17  8  1  0  0  0  0
 18 15  1  0  0  0  0
 20 29  1  1  0  0  0
 20  1  1  0  0  0  0
 20 10  1  0  0  0  0
 21  4  2  0  0  0  0
 22 21  1  0  0  0  0
 27 14  1  0  0  0  0
 28 23  1  0  0  0  0
 28  9  1  0  0  0  0
 30 29  1  0  0  0  0
 31 30  1  0  0  0  0
 32 30  2  0  0  0  0
M  END
>  <MODEL>
1

>  <REMARK>
 VINA RESULT:      -9.6      0.000      0.000
  Name = 
  1 active torsions:
  status: ('A' for Active; 'I' for Inactive)
    1  A    between atoms: C_20  and  N_29
                            x       y       z     vdW  Elec       q    Type
                         _______ _______ _______ _____ _____    ______ ____

>  <TORSDO>
F 1

$$$$
=
 OpenBabel11122410353D

 32 37  0  0  1  0  0  0  0  0999 V2000
  182.7210  176.9950  139.8340 C   0  0  0  0  0  2  0  0  0  0  0  0
  186.6210  178.6280  142.7500 C   0  0  1  0  0  3  0  0  0  0  0  0
  190.1840  177.3390  139.5270 C   0  0  0  0  0  3  0  0  0  0  0  0
  191.0590  177.1530  140.5940 C   0  0  0  0  0  3  0  0  0  0  0  0
  187.0370  178.2340  145.2290 C   0  0  2  0  0  3  0  0  0  0  0  0
  188.0430  177.7120  146.2000 C   0  0  0  0  0  0  0  0  0  0  0  0
  184.3750  178.9130  141.6830 C   0  0  1  0  0  3  0  0  0  0  0  0
  186.2900  178.9600  140.2870 C   0  0  0  0  0  2  0  0  0  0  0  0
  189.9480  176.8410  147.0440 C   0  0  0  0  0  0  0  0  0  0  0  0
  184.1710  179.0380  139.2830 C   0  0  0  0  0  2  0  0  0  0  0  0
  188.8790  177.7570  139.7840 C   0  0  0  0  0  3  0  0  0  0  0  0
  187.1080  178.4210  141.3750 N   0  0  0  0  0  0  0  0  0  0  0  0
  188.4530  177.9820  141.1010 C   0  0  0  0  0  0  0  0  0  0  0  0
  188.9530  178.0510  143.5670 C   0  0  2  0  0  3  0  0  0  0  0  0
  189.4500  177.6210  147.9460 N   0  0  0  0  0  0  0  0  0  0  0  0
  182.4280  177.2570  141.3210 C   0  0  0  0  0  2  0  0  0  0  0  0
  184.9250  178.4580  140.3950 N   0  0  2  0  0  0  0  0  0  0  0  0
  188.2640  178.1960  147.4100 C   0  0  0  0  0  3  0  0  0  0  0  0
  182.8710  178.6350  141.8310 C   0  0  0  0  0  2  0  0  0  0  0  0
  182.8670  178.2740  138.9960 C   0  0  1  0  0  3  0  0  0  0  0  0
  190.6360  177.3710  141.8670 N   0  0  0  0  0  0  0  0  0  0  0  0
  189.3600  177.7580  142.1500 C   0  0  0  0  0  0  0  0  0  0  0  0
  189.8580  177.3100  144.5830 C   0  0  0  0  0  2  0  0  0  0  0  0
  185.1380  178.2520  142.8240 C   0  0  0  0  0  2  0  0  0  0  0  0
  185.7840  177.7150  145.5560 O   0  0  0  0  0  1  0  0  0  0  0  0
  191.1900  176.0520  147.2710 C   0  0  0  0  0  1  0  0  0  0  0  0
  187.4340  177.8310  143.7890 C   0  0  2  0  0  3  0  0  0  0  0  0
  189.1180  176.7670  145.8090 C   0  0  2  0  0  3  0  0  0  0  0  0
  182.8050  177.9480  137.5790 N   0  0  0  0  0  2  0  0  0  0  0  0
  181.8330  178.5030  136.6890 C   0  0  0  0  0  0  0  0  0  0  0  0
  180.8360  179.5070  137.1590 C   0  0  0  0  0  1  0  0  0  0  0  0
  181.8230  178.1440  135.4830 O   0  0  0  0  0  0  0  0  0  0  0  0
  1 16  1  0  0  0  0
  2 24  1  6  0  0  0
  2 27  1  0  0  0  0
  3 11  2  0  0  0  0
  3  4  1  0  0  0  0
  4 21  2  0  0  0  0
  5 25  1  1  0  0  0
  5  6  1  0  0  0  0
  6 18  2  0  0  0  0
  7 19  1  6  0  0  0
  7 24  1  0  0  0  0
  8 17  1  0  0  0  0
  8 12  1  0  0  0  0
  9 26  1  0  0  0  0
  9 15  2  0  0  0  0
 11 13  1  0  0  0  0
 12  2  1  0  0  0  0
 13 12  1  0  0  0  0
 13 22  2  0  0  0  0
 14 27  1  0  0  0  0
 14 23  1  1  0  0  0
 16 19  1  0  0  0  0
 17 10  1  6  0  0  0
 17  7  1  0  0  0  0
 18 15  1  0  0  0  0
 20 29  1  6  0  0  0
 20 10  1  0  0  0  0
 20  1  1  0  0  0  0
 21 22  1  0  0  0  0
 22 14  1  0  0  0  0
 23 28  1  0  0  0  0
 27  5  1  0  0  0  0
 28  6  1  0  0  0  0
 28  9  1  0  0  0  0
 30 31  1  0  0  0  0
 30 29  1  0  0  0  0
 32 30  2  0  0  0  0
M  END
>  <MODEL>
2

>  <REMARK>
 VINA RESULT:      -9.3      3.520      6.893
  Name = 
  1 active torsions:
  status: ('A' for Active; 'I' for Inactive)
    1  A    between atoms: C_20  and  N_29
                            x       y       z     vdW  Elec       q    Type
                         _______ _______ _______ _____ _____    ______ ____

>  <TORSDO>
F 1

$$$$
=
 OpenBabel11122410353D

 32 37  0  0  1  0  0  0  0  0999 V2000
  181.4580  177.1560  139.2310 C   0  0  0  0  0  2  0  0  0  0  0  0
  185.0720  179.0070  142.3750 C   0  0  1  0  0  3  0  0  0  0  0  0
  188.9150  177.6210  139.5360 C   0  0  0  0  0  3  0  0  0  0  0  0
  189.6980  177.5060  140.6820 C   0  0  0  0  0  3  0  0  0  0  0  0
  185.2810  178.7480  144.8980 C   0  0  2  0  0  3  0  0  0  0  0  0
  186.2070  178.2960  145.9760 C   0  0  0  0  0  0  0  0  0  0  0  0
  182.9210  179.1960  141.1080 C   0  0  1  0  0  3  0  0  0  0  0  0
  184.9480  179.2060  139.8780 C   0  0  0  0  0  2  0  0  0  0  0  0
  188.0460  177.5040  147.0220 C   0  0  0  0  0  0  0  0  0  0  0  0
  182.9210  179.1940  138.6970 C   0  0  0  0  0  2  0  0  0  0  0  0
  187.5870  178.0280  139.6600 C   0  0  0  0  0  3  0  0  0  0  0  0
  185.6770  178.7400  141.0590 N   0  0  0  0  0  0  0  0  0  0  0  0
  187.0470  178.3120  140.9230 C   0  0  0  0  0  0  0  0  0  0  0  0
  187.3340  178.5160  143.4150 C   0  0  2  0  0  3  0  0  0  0  0  0
  187.4610  178.3200  147.8370 N   0  0  0  0  0  0  0  0  0  0  0  0
  181.0360  177.4880  140.6710 C   0  0  0  0  0  2  0  0  0  0  0  0
  183.5860  178.6860  139.8970 N   0  0  2  0  0  0  0  0  0  0  0  0
  186.3180  178.8450  147.1730 C   0  0  0  0  0  3  0  0  0  0  0  0
  181.4140  178.8980  141.1440 C   0  0  0  0  0  2  0  0  0  0  0  0
  181.6570  178.3920  138.3410 C   0  0  1  0  0  3  0  0  0  0  0  0
  189.1650  177.7810  141.9010 N   0  0  0  0  0  0  0  0  0  0  0  0
  187.8650  178.1590  142.0550 C   0  0  0  0  0  0  0  0  0  0  0  0
  188.1590  177.8440  144.5410 C   0  0  0  0  0  2  0  0  0  0  0  0
  183.5940  178.6080  142.3440 C   0  0  0  0  0  2  0  0  0  0  0  0
  184.0120  178.2240  145.1440 O   0  0  0  0  0  1  0  0  0  0  0  0
  189.2750  176.7510  147.3940 C   0  0  0  0  0  1  0  0  0  0  0  0
  185.8050  178.2800  143.5200 C   0  0  2  0  0  3  0  0  0  0  0  0
  187.3250  177.3520  145.7270 C   0  0  2  0  0  3  0  0  0  0  0  0
  181.7210  177.9940  136.9440 N   0  0  0  0  0  2  0  0  0  0  0  0
  181.1860  178.7830  135.8780 C   0  0  0  0  0  0  0  0  0  0  0  0
  180.5630  180.1130  136.1360 C   0  0  0  0  0  1  0  0  0  0  0  0
  181.2490  178.3530  134.6970 O   0  0  0  0  0  0  0  0  0  0  0  0
  1 16  1  0  0  0  0
  2 24  1  6  0  0  0
  2 27  1  0  0  0  0
  3 11  2  0  0  0  0
  3  4  1  0  0  0  0
  4 21  2  0  0  0  0
  5 25  1  1  0  0  0
  5  6  1  0  0  0  0
  6 18  2  0  0  0  0
  7 19  1  6  0  0  0
  7 24  1  0  0  0  0
  8 17  1  0  0  0  0
  8 12  1  0  0  0  0
  9 26  1  0  0  0  0
  9 15  2  0  0  0  0
 11 13  1  0  0  0  0
 12  2  1  0  0  0  0
 13 12  1  0  0  0  0
 13 22  2  0  0  0  0
 14 27  1  0  0  0  0
 14 23  1  1  0  0  0
 16 19  1  0  0  0  0
 17 10  1  6  0  0  0
 17  7  1  0  0  0  0
 18 15  1  0  0  0  0
 20 29  1  6  0  0  0
 20 10  1  0  0  0  0
 20  1  1  0  0  0  0
 21 22  1  0  0  0  0
 22 14  1  0  0  0  0
 23 28  1  0  0  0  0
 27  5  1  0  0  0  0
 28  6  1  0  0  0  0
 28  9  1  0  0  0  0
 30 31  1  0  0  0  0
 30 29  1  0  0  0  0
 32 30  2  0  0  0  0
M  END
>  <MODEL>
3

>  <REMARK>
 VINA RESULT:      -9.1      4.073      7.318
  Name = 
  1 active torsions:
  status: ('A' for Active; 'I' for Inactive)
    1  A    between atoms: C_20  and  N_29
                            x       y       z     vdW  Elec       q    Type
                         _______ _______ _______ _____ _____    ______ ____

>  <TORSDO>
F 1

$$$$
=
 OpenBabel11122410353D

 32 37  0  0  1  0  0  0  0  0999 V2000
  188.9880  175.6600  137.9120 C   0  0  0  0  0  2  0  0  0  0  0  0
  185.8320  178.7480  140.5350 C   0  0  1  0  0  3  0  0  0  0  0  0
  187.6330  177.5560  145.0160 C   0  0  0  0  0  3  0  0  0  0  0  0
  186.3830  177.8230  145.5710 C   0  0  0  0  0  3  0  0  0  0  0  0
  183.3170  179.0480  140.2860 C   0  0  2  0  0  3  0  0  0  0  0  0
  182.0320  179.0030  141.0420 C   0  0  0  0  0  0  0  0  0  0  0  0
  187.4290  178.2730  138.6670 C   0  0  1  0  0  3  0  0  0  0  0  0
  188.2940  178.4120  140.8700 C   0  0  0  0  0  2  0  0  0  0  0  0
  180.5550  178.7950  142.7390 C   0  0  0  0  0  0  0  0  0  0  0  0
  189.7440  177.7850  139.1350 C   0  0  0  0  0  2  0  0  0  0  0  0
  187.8160  177.7260  143.6450 C   0  0  0  0  0  3  0  0  0  0  0  0
  186.9380  178.3380  141.4160 N   0  0  0  0  0  0  0  0  0  0  0  0
  186.7550  178.1540  142.8340 C   0  0  0  0  0  0  0  0  0  0  0  0
  184.3650  178.9070  142.5980 C   0  0  2  0  0  3  0  0  0  0  0  0
  180.0540  179.6360  141.8930 N   0  0  0  0  0  0  0  0  0  0  0  0
  187.7480  176.1920  137.1730 C   0  0  0  0  0  2  0  0  0  0  0  0
  188.3690  177.6620  139.6210 N   0  0  2  0  0  0  0  0  0  0  0  0
  180.9930  179.7930  140.8350 C   0  0  0  0  0  3  0  0  0  0  0  0
  187.5620  177.7130  137.2420 C   0  0  0  0  0  2  0  0  0  0  0  0
  190.0970  176.7060  138.0950 C   0  0  1  0  0  3  0  0  0  0  0  0
  185.3600  178.2350  144.7770 N   0  0  0  0  0  0  0  0  0  0  0  0
  185.5040  178.3870  143.4300 C   0  0  0  0  0  0  0  0  0  0  0  0
  182.9980  178.6420  143.2790 C   0  0  0  0  0  2  0  0  0  0  0  0
  186.0020  178.0830  139.1650 C   0  0  0  0  0  2  0  0  0  0  0  0
  183.1580  178.3570  139.0840 O   0  0  0  0  0  1  0  0  0  0  0  0
  179.8300  178.3740  143.9680 C   0  0  0  0  0  1  0  0  0  0  0  0
  184.4490  178.4160  141.1300 C   0  0  2  0  0  3  0  0  0  0  0  0
  181.8770  178.2530  142.3130 C   0  0  2  0  0  3  0  0  0  0  0  0
  191.3360  176.0520  138.4870 N   0  0  0  0  0  2  0  0  0  0  0  0
  192.3580  175.6850  137.5560 C   0  0  0  0  0  0  0  0  0  0  0  0
  192.2330  176.0030  136.1050 C   0  0  0  0  0  1  0  0  0  0  0  0
  193.3870  175.0900  137.9690 O   0  0  0  0  0  0  0  0  0  0  0  0
  1 20  1  0  0  0  0
  2 24  1  6  0  0  0
  2 27  1  0  0  0  0
  2 12  1  0  0  0  0
  3  4  1  0  0  0  0
  5 25  1  6  0  0  0
  5  6  1  0  0  0  0
  5 27  1  0  0  0  0
  6 28  1  0  0  0  0
  7 19  1  6  0  0  0
  7 24  1  0  0  0  0
  7 17  1  0  0  0  0
  8 12  1  0  0  0  0
  9 26  1  0  0  0  0
 11  3  2  0  0  0  0
 12 13  1  0  0  0  0
 13 22  2  0  0  0  0
 13 11  1  0  0  0  0
 14 23  1  1  0  0  0
 14 22  1  0  0  0  0
 15  9  2  0  0  0  0
 16 19  1  0  0  0  0
 16  1  1  0  0  0  0
 17 10  1  6  0  0  0
 17  8  1  0  0  0  0
 18  6  2  0  0  0  0
 18 15  1  0  0  0  0
 20 29  1  1  0  0  0
 20 10  1  0  0  0  0
 21  4  2  0  0  0  0
 22 21  1  0  0  0  0
 27 14  1  0  0  0  0
 28  9  1  0  0  0  0
 28 23  1  0  0  0  0
 30 32  2  0  0  0  0
 30 29  1  0  0  0  0
 31 30  1  0  0  0  0
M  END
>  <MODEL>
4

>  <REMARK>
 VINA RESULT:      -8.7      2.580      3.655
  Name = 
  1 active torsions:
  status: ('A' for Active; 'I' for Inactive)
    1  A    between atoms: C_20  and  N_29
                            x       y       z     vdW  Elec       q    Type
                         _______ _______ _______ _____ _____    ______ ____

>  <TORSDO>
F 1

$$$$
=
 OpenBabel11122410353D

 32 37  0  0  1  0  0  0  0  0999 V2000
  181.8610  176.8890  138.8160 C   0  0  0  0  0  2  0  0  0  0  0  0
  185.2110  178.8830  142.1590 C   0  0  1  0  0  3  0  0  0  0  0  0
  189.2670  177.5560  139.6020 C   0  0  0  0  0  3  0  0  0  0  0  0
  189.9760  177.4790  140.7990 C   0  0  0  0  0  3  0  0  0  0  0  0
  185.2600  178.6680  144.6940 C   0  0  2  0  0  3  0  0  0  0  0  0
  186.1240  178.2560  145.8380 C   0  0  0  0  0  0  0  0  0  0  0  0
  183.1450  178.9960  140.7510 C   0  0  1  0  0  3  0  0  0  0  0  0
  185.2480  179.0410  139.6570 C   0  0  0  0  0  2  0  0  0  0  0  0
  187.9090  177.5280  147.0160 C   0  0  0  0  0  0  0  0  0  0  0  0
  183.3050  178.9580  138.3450 C   0  0  0  0  0  2  0  0  0  0  0  0
  187.9240  177.9290  139.6320 C   0  0  0  0  0  3  0  0  0  0  0  0
  185.9090  178.6110  140.8900 N   0  0  0  0  0  0  0  0  0  0  0  0
  187.2950  178.2180  140.8520 C   0  0  0  0  0  0  0  0  0  0  0  0
  187.4110  178.4670  143.3540 C   0  0  2  0  0  3  0  0  0  0  0  0
  187.2510  178.3410  147.7770 N   0  0  0  0  0  0  0  0  0  0  0  0
  181.3360  177.2320  140.2190 C   0  0  0  0  0  2  0  0  0  0  0  0
  183.9000  178.4850  139.5950 N   0  0  2  0  0  0  0  0  0  0  0  0
  186.1410  178.8260  147.0310 C   0  0  0  0  0  3  0  0  0  0  0  0
  181.6470  178.6580  140.6920 C   0  0  0  0  0  2  0  0  0  0  0  0
  182.0870  178.1170  137.9210 C   0  0  1  0  0  3  0  0  0  0  0  0
  189.3570  177.7580  141.9760 N   0  0  0  0  0  0  0  0  0  0  0  0
  188.0390  178.1030  142.0370 C   0  0  0  0  0  0  0  0  0  0  0  0
  188.1770  177.8340  144.5430 C   0  0  0  0  0  2  0  0  0  0  0  0
  183.7490  178.4450  142.0370 C   0  0  0  0  0  2  0  0  0  0  0  0
  183.9900  178.1140  144.8660 O   0  0  0  0  0  1  0  0  0  0  0  0
  189.1290  176.8140  147.4810 C   0  0  0  0  0  1  0  0  0  0  0  0
  185.8850  178.1920  143.3620 C   0  0  2  0  0  3  0  0  0  0  0  0
  187.2790  177.3380  145.6790 C   0  0  2  0  0  3  0  0  0  0  0  0
  182.2530  177.6990  136.5370 N   0  0  0  0  0  2  0  0  0  0  0  0
  183.2810  176.8020  136.1070 C   0  0  0  0  0  0  0  0  0  0  0  0
  184.2300  176.1900  137.0800 C   0  0  0  0  0  1  0  0  0  0  0  0
  183.3810  176.5160  134.8860 O   0  0  0  0  0  0  0  0  0  0  0  0
  1 16  1  0  0  0  0
  2 24  1  6  0  0  0
  2 27  1  0  0  0  0
  3 11  2  0  0  0  0
  3  4  1  0  0  0  0
  4 21  2  0  0  0  0
  5 25  1  1  0  0  0
  5  6  1  0  0  0  0
  6 18  2  0  0  0  0
  7 19  1  6  0  0  0
  7 24  1  0  0  0  0
  8 12  1  0  0  0  0
  9 26  1  0  0  0  0
  9 15  2  0  0  0  0
 11 13  1  0  0  0  0
 12  2  1  0  0  0  0
 13 12  1  0  0  0  0
 13 22  2  0  0  0  0
 14 27  1  0  0  0  0
 14 23  1  1  0  0  0
 16 19  1  0  0  0  0
 17 10  1  6  0  0  0
 17  8  1  0  0  0  0
 17  7  1  0  0  0  0
 18 15  1  0  0  0  0
 20 29  1  6  0  0  0
 20 10  1  0  0  0  0
 20  1  1  0  0  0  0
 21 22  1  0  0  0  0
 22 14  1  0  0  0  0
 23 28  1  0  0  0  0
 27  5  1  0  0  0  0
 28  6  1  0  0  0  0
 28  9  1  0  0  0  0
 30 29  1  0  0  0  0
 30 31  1  0  0  0  0
 32 30  2  0  0  0  0
M  END
>  <MODEL>
5

>  <REMARK>
 VINA RESULT:      -8.5      3.797      6.585
  Name = 
  1 active torsions:
  status: ('A' for Active; 'I' for Inactive)
    1  A    between atoms: C_20  and  N_29
                            x       y       z     vdW  Elec       q    Type
                         _______ _______ _______ _____ _____    ______ ____

>  <TORSDO>
F 1

$$$$
=
 OpenBabel11122410353D

 32 37  0  0  1  0  0  0  0  0999 V2000
  190.7660  174.6590  137.1710 C   0  0  0  0  0  2  0  0  0  0  0  0
  187.7220  178.1990  139.3120 C   0  0  1  0  0  3  0  0  0  0  0  0
  188.9340  177.0780  144.0050 C   0  0  0  0  0  3  0  0  0  0  0  0
  187.6720  177.5030  144.4150 C   0  0  0  0  0  3  0  0  0  0  0  0
  185.2910  178.7420  138.7920 C   0  0  2  0  0  3  0  0  0  0  0  0
  183.9410  178.8720  139.4120 C   0  0  0  0  0  0  0  0  0  0  0  0
  189.4340  177.4580  137.6430 C   0  0  1  0  0  3  0  0  0  0  0  0
  190.0880  177.6290  139.9150 C   0  0  0  0  0  2  0  0  0  0  0  0
  182.2910  178.9130  140.9540 C   0  0  0  0  0  0  0  0  0  0  0  0
  191.6240  176.7590  138.3700 C   0  0  0  0  0  2  0  0  0  0  0  0
  189.2680  177.1510  142.6540 C   0  0  0  0  0  3  0  0  0  0  0  0
  188.6850  177.7250  140.3220 N   0  0  0  0  0  0  0  0  0  0  0  0
  188.3450  177.6410  141.7200 C   0  0  0  0  0  0  0  0  0  0  0  0
  186.0850  178.6230  141.2040 C   0  0  2  0  0  3  0  0  0  0  0  0
  181.9690  179.7530  140.0250 N   0  0  0  0  0  0  0  0  0  0  0  0
  189.6700  175.2750  136.2860 C   0  0  0  0  0  2  0  0  0  0  0  0
  190.2030  176.8060  138.7160 N   0  0  2  0  0  0  0  0  0  0  0  0
  183.0180  179.7540  139.0640 C   0  0  0  0  0  3  0  0  0  0  0  0
  189.6440  176.8090  136.2660 C   0  0  0  0  0  2  0  0  0  0  0  0
  191.9590  175.5940  137.4210 C   0  0  1  0  0  3  0  0  0  0  0  0
  186.7830  177.9740  143.5020 N   0  0  0  0  0  0  0  0  0  0  0  0
  187.0740  178.0350  142.1720 C   0  0  0  0  0  0  0  0  0  0  0  0
  184.6370  178.5390  141.7510 C   0  0  0  0  0  2  0  0  0  0  0  0
  187.9520  177.4440  137.9990 C   0  0  0  0  0  2  0  0  0  0  0  0
  185.1760  178.0060  137.6120 O   0  0  0  0  0  1  0  0  0  0  0  0
  181.4070  178.6390  142.1200 C   0  0  0  0  0  1  0  0  0  0  0  0
  186.2590  178.0450  139.7760 C   0  0  2  0  0  3  0  0  0  0  0  0
  183.5810  178.2150  140.6920 C   0  0  2  0  0  3  0  0  0  0  0  0
  193.0750  174.8380  137.9690 N   0  0  0  0  0  2  0  0  0  0  0  0
  194.3730  174.8110  137.3680 C   0  0  0  0  0  0  0  0  0  0  0  0
  194.6780  175.6120  136.1480 C   0  0  0  0  0  1  0  0  0  0  0  0
  195.2780  174.1040  137.8820 O   0  0  0  0  0  0  0  0  0  0  0  0
  1 20  1  0  0  0  0
  2 24  1  6  0  0  0
  2 27  1  0  0  0  0
  2 12  1  0  0  0  0
  3  4  1  0  0  0  0
  5 25  1  6  0  0  0
  5  6  1  0  0  0  0
  5 27  1  0  0  0  0
  6 28  1  0  0  0  0
  7 19  1  6  0  0  0
  7 24  1  0  0  0  0
  7 17  1  0  0  0  0
  8 12  1  0  0  0  0
  9 26  1  0  0  0  0
 11  3  2  0  0  0  0
 12 13  1  0  0  0  0
 13 22  2  0  0  0  0
 13 11  1  0  0  0  0
 14 23  1  1  0  0  0
 14 22  1  0  0  0  0
 15  9  2  0  0  0  0
 16  1  1  0  0  0  0
 17 10  1  6  0  0  0
 17  8  1  0  0  0  0
 18  6  2  0  0  0  0
 18 15  1  0  0  0  0
 19 16  1  0  0  0  0
 20 29  1  1  0  0  0
 20 10  1  0  0  0  0
 21  4  2  0  0  0  0
 22 21  1  0  0  0  0
 27 14  1  0  0  0  0
 28  9  1  0  0  0  0
 28 23  1  0  0  0  0
 30 32  2  0  0  0  0
 30 29  1  0  0  0  0
 31 30  1  0  0  0  0
M  END
>  <MODEL>
6

>  <REMARK>
 VINA RESULT:      -8.0      2.302      3.047
  Name = 
  1 active torsions:
  status: ('A' for Active; 'I' for Inactive)
    1  A    between atoms: C_20  and  N_29
                            x       y       z     vdW  Elec       q    Type
                         _______ _______ _______ _____ _____    ______ ____

>  <TORSDO>
F 1

$$$$
=
 OpenBabel11122410353D

 32 37  0  0  1  0  0  0  0  0999 V2000
  186.9600  176.7540  144.6930 C   0  0  0  0  0  2  0  0  0  0  0  0
  183.7110  178.8700  141.3250 C   0  0  1  0  0  3  0  0  0  0  0  0
  179.7570  178.7310  144.3420 C   0  0  0  0  0  3  0  0  0  0  0  0
  178.9310  178.6260  143.2260 C   0  0  0  0  0  3  0  0  0  0  0  0
  183.3710  178.3130  138.8660 C   0  0  2  0  0  3  0  0  0  0  0  0
  182.3370  177.9210  137.8660 C   0  0  0  0  0  0  0  0  0  0  0  0
  185.8930  178.7760  142.5470 C   0  0  1  0  0  3  0  0  0  0  0  0
  183.9540  179.3830  143.7680 C   0  0  0  0  0  2  0  0  0  0  0  0
  180.3410  177.3960  136.9470 C   0  0  0  0  0  0  0  0  0  0  0  0
  185.9710  179.1090  144.9340 C   0  0  0  0  0  2  0  0  0  0  0  0
  181.1360  178.8280  144.1580 C   0  0  0  0  0  3  0  0  0  0  0  0
  183.1060  178.9210  142.6680 N   0  0  0  0  0  0  0  0  0  0  0  0
  181.6820  178.8150  142.8670 C   0  0  0  0  0  0  0  0  0  0  0  0
  181.3640  178.7270  140.3710 C   0  0  2  0  0  3  0  0  0  0  0  0
  181.0560  177.9500  136.0230 N   0  0  0  0  0  0  0  0  0  0  0  0
  187.3960  176.7860  143.2190 C   0  0  0  0  0  2  0  0  0  0  0  0
  185.1770  178.5900  143.8200 N   0  0  2  0  0  0  0  0  0  0  0  0
  182.3050  178.3090  136.6020 C   0  0  0  0  0  3  0  0  0  0  0  0
  187.3030  178.1650  142.5510 C   0  0  0  0  0  2  0  0  0  0  0  0
  187.0520  178.1160  145.3980 C   0  0  1  0  0  3  0  0  0  0  0  0
  179.4690  178.6110  141.9790 N   0  0  0  0  0  0  0  0  0  0  0  0
  180.8150  178.6810  141.7700 C   0  0  0  0  0  0  0  0  0  0  0  0
  180.3810  178.0940  139.3540 C   0  0  0  0  0  2  0  0  0  0  0  0
  185.0740  178.1770  141.4100 C   0  0  0  0  0  2  0  0  0  0  0  0
  184.4950  177.5050  138.6930 O   0  0  0  0  0  1  0  0  0  0  0  0
  178.9710  176.8740  136.6880 C   0  0  0  0  0  1  0  0  0  0  0  0
  182.8060  178.1610  140.2980 C   0  0  2  0  0  3  0  0  0  0  0  0
  181.0560  177.2770  138.2490 C   0  0  2  0  0  3  0  0  0  0  0  0
  186.9510  177.9370  146.8380 N   0  0  0  0  0  2  0  0  0  0  0  0
  188.0780  177.6650  147.6750 C   0  0  0  0  0  0  0  0  0  0  0  0
  189.4580  177.5950  147.1160 C   0  0  0  0  0  1  0  0  0  0  0  0
  187.9050  177.4880  148.9080 O   0  0  0  0  0  0  0  0  0  0  0  0
  1 20  1  0  0  0  0
  2 24  1  1  0  0  0
  2 12  1  0  0  0  0
  4  3  2  0  0  0  0
  5 25  1  1  0  0  0
  5 27  1  0  0  0  0
  6 28  1  0  0  0  0
  6  5  1  0  0  0  0
  7 24  1  6  0  0  0
  7 19  1  0  0  0  0
  7 17  1  0  0  0  0
  9 28  1  0  0  0  0
 10 20  1  0  0  0  0
 11  3  1  0  0  0  0
 12 13  1  0  0  0  0
 12  8  1  0  0  0  0
 13 11  2  0  0  0  0
 14 23  1  6  0  0  0
 14 22  1  0  0  0  0
 15 18  1  0  0  0  0
 15  9  2  0  0  0  0
 16  1  1  0  0  0  0
 17  8  1  6  0  0  0
 17 10  1  0  0  0  0
 18  6  2  0  0  0  0
 19 16  1  0  0  0  0
 20 29  1  1  0  0  0
 21  4  1  0  0  0  0
 22 21  2  0  0  0  0
 22 13  1  0  0  0  0
 26  9  1  0  0  0  0
 27 14  1  0  0  0  0
 27  2  1  0  0  0  0
 28 23  1  0  0  0  0
 29 30  1  0  0  0  0
 30 32  2  0  0  0  0
 31 30  1  0  0  0  0
M  END
>  <MODEL>
7

>  <REMARK>
 VINA RESULT:      -7.9      5.173      8.997
  Name = 
  1 active torsions:
  status: ('A' for Active; 'I' for Inactive)
    1  A    between atoms: C_20  and  N_29
                            x       y       z     vdW  Elec       q    Type
                         _______ _______ _______ _____ _____    ______ ____

>  <TORSDO>
F 1

$$$$
=
 OpenBabel11122410353D

 32 37  0  0  1  0  0  0  0  0999 V2000
  190.5770  176.0340  145.1220 C   0  0  0  0  0  2  0  0  0  0  0  0
  189.5050  177.8630  140.4450 C   0  0  1  0  0  3  0  0  0  0  0  0
  184.8410  179.2120  141.5300 C   0  0  0  0  0  3  0  0  0  0  0  0
  184.4880  179.0030  140.1990 C   0  0  0  0  0  3  0  0  0  0  0  0
  189.9570  176.8080  138.1740 C   0  0  2  0  0  3  0  0  0  0  0  0
  189.2990  176.3930  136.9010 C   0  0  0  0  0  0  0  0  0  0  0  0
  190.9690  177.6480  142.4630 C   0  0  1  0  0  3  0  0  0  0  0  0
  188.9600  178.8900  142.6660 C   0  0  0  0  0  2  0  0  0  0  0  0
  187.7200  176.0560  135.3210 C   0  0  0  0  0  0  0  0  0  0  0  0
  190.2490  178.5230  144.5920 C   0  0  0  0  0  2  0  0  0  0  0  0
  186.1600  178.9960  141.9240 C   0  0  0  0  0  3  0  0  0  0  0  0
  188.4860  178.3490  141.3910 N   0  0  0  0  0  0  0  0  0  0  0  0
  187.1180  178.5690  140.9930 C   0  0  0  0  0  0  0  0  0  0  0  0
  187.7310  177.9470  138.6320 C   0  0  2  0  0  3  0  0  0  0  0  0
  188.8470  176.2240  134.7090 N   0  0  0  0  0  0  0  0  0  0  0  0
  191.5160  175.6280  143.9750 C   0  0  0  0  0  2  0  0  0  0  0  0
  189.8130  177.9140  143.3350 N   0  0  2  0  0  0  0  0  0  0  0  0
  189.8420  176.4660  135.6970 C   0  0  0  0  0  3  0  0  0  0  0  0
  192.0550  176.7970  143.1400 C   0  0  0  0  0  2  0  0  0  0  0  0
  190.7690  177.4810  145.5990 C   0  0  1  0  0  3  0  0  0  0  0  0
  185.4230  178.5860  139.3050 N   0  0  0  0  0  0  0  0  0  0  0  0
  186.7150  178.3450  139.6670 C   0  0  0  0  0  0  0  0  0  0  0  0
  187.0590  177.2900  137.4000 C   0  0  0  0  0  2  0  0  0  0  0  0
  190.4970  176.9620  141.1860 C   0  0  0  0  0  2  0  0  0  0  0  0
  190.8000  175.7820  138.6010 O   0  0  0  0  0  1  0  0  0  0  0  0
  186.4560  175.7600  134.5940 C   0  0  0  0  0  1  0  0  0  0  0  0
  188.8860  177.1150  139.2460 C   0  0  2  0  0  3  0  0  0  0  0  0
  187.8440  176.1180  136.8050 C   0  0  2  0  0  3  0  0  0  0  0  0
  190.1010  177.6760  146.8760 N   0  0  0  0  0  2  0  0  0  0  0  0
  188.6780  177.7060  147.0200 C   0  0  0  0  0  0  0  0  0  0  0  0
  187.7780  177.4840  145.8540 C   0  0  0  0  0  1  0  0  0  0  0  0
  188.1760  177.9150  148.1550 O   0  0  0  0  0  0  0  0  0  0  0  0
  1 20  1  0  0  0  0
  2 24  1  1  0  0  0
  2 12  1  0  0  0  0
  3 11  1  0  0  0  0
  4  3  2  0  0  0  0
  5 25  1  1  0  0  0
  5 27  1  0  0  0  0
  6  5  1  0  0  0  0
  7 24  1  6  0  0  0
  7 19  1  0  0  0  0
  7 17  1  0  0  0  0
  9 28  1  0  0  0  0
 10 20  1  0  0  0  0
 12  8  1  0  0  0  0
 13 12  1  0  0  0  0
 13 11  2  0  0  0  0
 14 23  1  6  0  0  0
 14 27  1  0  0  0  0
 14 22  1  0  0  0  0
 15  9  2  0  0  0  0
 15 18  1  0  0  0  0
 16  1  1  0  0  0  0
 17  8  1  6  0  0  0
 17 10  1  0  0  0  0
 18  6  2  0  0  0  0
 19 16  1  0  0  0  0
 20 29  1  1  0  0  0
 21 22  2  0  0  0  0
 21  4  1  0  0  0  0
 22 13  1  0  0  0  0
 26  9  1  0  0  0  0
 27  2  1  0  0  0  0
 28  6  1  0  0  0  0
 28 23  1  0  0  0  0
 29 30  1  0  0  0  0
 30 32  2  0  0  0  0
 31 30  1  0  0  0  0
M  END
>  <MODEL>
8

>  <REMARK>
 VINA RESULT:      -7.7      2.756      7.831
  Name = 
  1 active torsions:
  status: ('A' for Active; 'I' for Inactive)
    1  A    between atoms: C_20  and  N_29
                            x       y       z     vdW  Elec       q    Type
                         _______ _______ _______ _____ _____    ______ ____

>  <TORSDO>
F 1

$$$$
=
 OpenBabel11122410353D

 32 37  0  0  1  0  0  0  0  0999 V2000
  186.8180  177.1560  143.3560 C   0  0  0  0  0  2  0  0  0  0  0  0
  189.4620  177.6030  138.9760 C   0  0  1  0  0  3  0  0  0  0  0  0
  185.6980  176.2490  136.0190 C   0  0  0  0  0  3  0  0  0  0  0  0
  186.6200  175.7460  135.1040 C   0  0  0  0  0  3  0  0  0  0  0  0
  191.7960  176.7530  138.4240 C   0  0  2  0  0  3  0  0  0  0  0  0
  192.5600  175.9170  137.4530 C   0  0  0  0  0  0  0  0  0  0  0  0
  188.7130  178.4390  141.2140 C   0  0  1  0  0  3  0  0  0  0  0  0
  187.1250  178.3760  139.4540 C   0  0  0  0  0  2  0  0  0  0  0  0
  193.0460  174.6060  135.6790 C   0  0  0  0  0  0  0  0  0  0  0  0
  186.3950  178.9790  141.6010 C   0  0  0  0  0  2  0  0  0  0  0  0
  186.1610  176.8400  137.1930 C   0  0  0  0  0  3  0  0  0  0  0  0
  188.0250  177.5380  138.6600 N   0  0  0  0  0  0  0  0  0  0  0  0
  187.5370  176.9220  137.4510 C   0  0  0  0  0  0  0  0  0  0  0  0
  189.9140  176.5090  136.7320 C   0  0  2  0  0  3  0  0  0  0  0  0
  194.1010  175.3070  135.9400 N   0  0  0  0  0  0  0  0  0  0  0  0
  188.3500  177.2240  143.4620 C   0  0  0  0  0  2  0  0  0  0  0  0
  187.3190  178.1070  140.8750 N   0  0  2  0  0  0  0  0  0  0  0  0
  193.7930  176.1560  137.0390 C   0  0  0  0  0  3  0  0  0  0  0  0
  188.9940  178.4050  142.7240 C   0  0  0  0  0  2  0  0  0  0  0  0
  186.1570  178.5070  143.0470 C   0  0  1  0  0  3  0  0  0  0  0  0
  187.9510  175.8280  135.3640 N   0  0  0  0  0  0  0  0  0  0  0  0
  188.4320  176.3800  136.5140 C   0  0  0  0  0  0  0  0  0  0  0  0
  190.7040  175.4700  135.8970 C   0  0  0  0  0  2  0  0  0  0  0  0
  189.6540  177.4820  140.4910 C   0  0  0  0  0  2  0  0  0  0  0  0
  192.1900  176.4130  139.7190 O   0  0  0  0  0  1  0  0  0  0  0  0
  193.0150  173.5880  134.5940 C   0  0  0  0  0  1  0  0  0  0  0  0
  190.2780  176.5220  138.2390 C   0  0  2  0  0  3  0  0  0  0  0  0
  191.9180  174.8750  136.6140 C   0  0  2  0  0  3  0  0  0  0  0  0
  184.7250  178.4270  143.2930 N   0  0  0  0  0  2  0  0  0  0  0  0
  184.1380  178.6350  144.5810 C   0  0  0  0  0  0  0  0  0  0  0  0
  184.9720  179.0030  145.7610 C   0  0  0  0  0  1  0  0  0  0  0  0
  182.8940  178.5140  144.7210 O   0  0  0  0  0  0  0  0  0  0  0  0
  1 16  1  0  0  0  0
  2 24  1  1  0  0  0
  3 11  1  0  0  0  0
  4 21  1  0  0  0  0
  4  3  2  0  0  0  0
  5 25  1  1  0  0  0
  6  5  1  0  0  0  0
  7 24  1  6  0  0  0
  7 19  1  0  0  0  0
  9 15  2  0  0  0  0
  9 28  1  0  0  0  0
 10 20  1  0  0  0  0
 11 13  2  0  0  0  0
 12  2  1  0  0  0  0
 12  8  1  0  0  0  0
 13 12  1  0  0  0  0
 14 23  1  6  0  0  0
 14 27  1  0  0  0  0
 15 18  1  0  0  0  0
 17  8  1  6  0  0  0
 17  7  1  0  0  0  0
 17 10  1  0  0  0  0
 18  6  2  0  0  0  0
 19 16  1  0  0  0  0
 20 29  1  6  0  0  0
 20  1  1  0  0  0  0
 21 22  2  0  0  0  0
 22 14  1  0  0  0  0
 22 13  1  0  0  0  0
 23 28  1  0  0  0  0
 26  9  1  0  0  0  0
 27  5  1  0  0  0  0
 27  2  1  0  0  0  0
 28  6  1  0  0  0  0
 29 30  1  0  0  0  0
 30 32  2  0  0  0  0
 30 31  1  0  0  0  0
M  END
>  <MODEL>
9

>  <REMARK>
 VINA RESULT:      -7.7      2.399      9.297
  Name = 
  1 active torsions:
  status: ('A' for Active; 'I' for Inactive)
    1  A    between atoms: C_20  and  N_29
                            x       y       z     vdW  Elec       q    Type
                         _______ _______ _______ _____ _____    ______ ____

>  <TORSDO>
F 1

$$$$
