=
 OpenBabel11122411013D

 31 35  0  0  1  0  0  0  0  0999 V2000
  192.6480  175.7340  136.4030 C   0  0  0  0  0  0  0  0  0  0  0  0
  189.0910  176.9730  136.9230 C   0  0  2  0  0  3  0  0  0  0  0  0
  188.1900  175.7500  136.8250 C   0  0  0  0  0  0  0  0  0  0  0  0
  187.8030  173.4480  136.1400 C   0  0  0  0  0  0  0  0  0  0  0  0
  190.5350  176.6270  137.2020 C   0  0  0  0  0  0  0  0  0  0  0  0
  193.1940  175.8680  137.6810 C   0  0  0  0  0  3  0  0  0  0  0  0
  188.6530  174.5500  136.2640 C   0  0  0  0  0  3  0  0  0  0  0  0
  188.8400  177.5320  139.3730 C   0  0  2  0  0  3  0  0  0  0  0  0
  193.4740  175.1840  135.2970 C   0  0  0  0  0  1  0  0  0  0  0  0
  186.3350  177.0320  137.7530 O   0  0  0  0  0  0  0  0  0  0  0  0
  188.2790  172.2630  135.5960 O   0  0  0  0  0  1  0  0  0  0  0  0
  190.3500  177.4500  139.6060 C   0  0  0  0  0  2  0  0  0  0  0  0
  188.5600  178.0040  137.9400 C   0  0  2  0  0  3  0  0  0  0  0  0
  191.3260  176.1140  136.1640 C   0  0  0  0  0  3  0  0  0  0  0  0
  186.4750  173.5410  136.5590 C   0  0  0  0  0  3  0  0  0  0  0  0
  191.0910  176.7660  138.4930 C   0  0  0  0  0  0  0  0  0  0  0  0
  192.4200  176.3920  138.7190 C   0  0  0  0  0  3  0  0  0  0  0  0
  187.0700  178.2530  137.6940 C   0  0  0  0  0  2  0  0  0  0  0  0
  186.8390  175.8430  137.2190 C   0  0  0  0  0  0  0  0  0  0  0  0
  185.9940  174.7360  137.0950 C   0  0  0  0  0  3  0  0  0  0  0  0
  188.2530  178.4600  140.3330 N   0  0  0  0  0  2  0  0  0  0  0  0
  189.3640  178.6480  142.4930 C   0  0  0  0  0  1  0  0  0  0  0  0
  188.3560  177.8730  141.6640 C   0  0  1  0  0  3  0  0  0  0  0  0
  184.9660  178.9030  143.7310 C   0  0  0  0  0  0  0  0  0  0  0  0
  185.9520  178.2790  141.6400 O   0  0  0  0  0  0  0  0  0  0  0  0
  187.7230  176.7530  144.3060 O   0  0  0  0  0  0  0  0  0  0  0  0
  183.7270  179.4520  144.3410 C   0  0  0  0  0  1  0  0  0  0  0  0
  185.4160  179.3690  142.3630 C   0  0  0  0  0  2  0  0  0  0  0  0
  186.8820  177.4730  143.7050 C   0  0  0  0  0  0  0  0  0  0  0  0
  187.0540  177.8570  142.3290 N   0  0  0  0  0  0  0  0  0  0  0  0
  185.7030  178.0040  144.3910 C   0  0  0  0  0  3  0  0  0  0  0  0
  1  6  1  0  0  0  0
  2  3  1  1  0  0  0
  2  5  1  0  0  0  0
  2 13  1  0  0  0  0
  3 19  1  0  0  0  0
  4  7  1  0  0  0  0
  4 15  2  0  0  0  0
  5 16  2  0  0  0  0
  6 17  2  0  0  0  0
  7  3  2  0  0  0  0
  8 12  1  0  0  0  0
  8 21  1  1  0  0  0
  9  1  1  0  0  0  0
 11  4  1  0  0  0  0
 13 18  1  1  0  0  0
 13  8  1  0  0  0  0
 14  1  2  0  0  0  0
 14  5  1  0  0  0  0
 15 20  1  0  0  0  0
 16 17  1  0  0  0  0
 16 12  1  0  0  0  0
 18 10  1  0  0  0  0
 19 10  1  0  0  0  0
 20 19  2  0  0  0  0
 21 23  1  0  0  0  0
 23 30  1  0  0  0  0
 23 22  1  1  0  0  0
 24 27  1  0  0  0  0
 24 31  2  0  0  0  0
 25 30  1  0  0  0  0
 25 28  1  0  0  0  0
 28 24  1  0  0  0  0
 29 26  2  0  0  0  0
 29 31  1  0  0  0  0
 30 29  1  0  0  0  0
M  END
>  <MODEL>
1

>  <REMARK>
 VINA RESULT:      -7.6      0.000      0.000
  Name = 
  3 active torsions:
  status: ('A' for Active; 'I' for Inactive)
    1  A    between atoms: C_5  and  N_16
    2  A    between atoms: C_5  and  N_30
    3  A    between atoms: C_10  and  N_16
                            x       y       z     vdW  Elec       q    Type
                         _______ _______ _______ _____ _____    ______ ____

>  <TORSDO>
F 3

$$$$
=
 OpenBabel11122411013D

 31 35  0  0  1  0  0  0  0  0999 V2000
  188.9790  178.1710  139.4470 C   0  0  0  0  0  0  0  0  0  0  0  0
  186.2180  179.0250  141.9180 C   0  0  2  0  0  3  0  0  0  0  0  0
  184.9140  178.5650  141.2830 C   0  0  0  0  0  0  0  0  0  0  0  0
  183.6240  177.8940  139.3330 C   0  0  0  0  0  0  0  0  0  0  0  0
  187.4380  178.3690  141.3140 C   0  0  0  0  0  0  0  0  0  0  0  0
  189.6330  177.1200  140.0920 C   0  0  0  0  0  3  0  0  0  0  0  0
  184.8370  178.2720  139.9130 C   0  0  0  0  0  3  0  0  0  0  0  0
  186.3940  177.3910  143.8360 C   0  0  2  0  0  3  0  0  0  0  0  0
  189.4410  178.6250  138.1100 C   0  0  0  0  0  1  0  0  0  0  0  0
  183.7690  178.8350  143.4190 O   0  0  0  0  0  0  0  0  0  0  0  0
  183.5660  177.5920  137.9800 O   0  0  0  0  0  1  0  0  0  0  0  0
  187.7710  176.9100  143.3760 C   0  0  0  0  0  2  0  0  0  0  0  0
  186.2040  178.8650  143.4530 C   0  0  2  0  0  3  0  0  0  0  0  0
  187.8880  178.7940  140.0570 C   0  0  0  0  0  3  0  0  0  0  0  0
  182.4690  177.8220  140.1150 C   0  0  0  0  0  3  0  0  0  0  0  0
  188.1050  177.3080  141.9660 C   0  0  0  0  0  0  0  0  0  0  0  0
  189.2030  176.6980  141.3510 C   0  0  0  0  0  3  0  0  0  0  0  0
  184.9070  179.4470  144.0210 C   0  0  0  0  0  2  0  0  0  0  0  0
  183.7360  178.5190  142.0580 C   0  0  0  0  0  0  0  0  0  0  0  0
  182.5250  178.1360  141.4730 C   0  0  0  0  0  3  0  0  0  0  0  0
  186.2840  177.2280  145.2820 N   0  0  0  0  0  2  0  0  0  0  0  0
  186.0310  178.8430  147.0890 C   0  0  0  0  0  1  0  0  0  0  0  0
  186.8920  178.3870  145.9250 C   0  0  1  0  0  3  0  0  0  0  0  0
  190.6080  176.7240  146.4160 C   0  0  0  0  0  0  0  0  0  0  0  0
  189.3100  178.6050  145.7040 O   0  0  0  0  0  0  0  0  0  0  0  0
  187.6600  176.9460  148.3680 O   0  0  0  0  0  0  0  0  0  0  0  0
  191.9740  176.1410  146.3720 C   0  0  0  0  0  1  0  0  0  0  0  0
  190.0740  177.5110  145.2390 C   0  0  0  0  0  2  0  0  0  0  0  0
  188.5190  177.1920  147.4800 C   0  0  0  0  0  0  0  0  0  0  0  0
  188.2460  178.0800  146.3810 N   0  0  0  0  0  0  0  0  0  0  0  0
  189.8320  176.5450  147.4900 C   0  0  0  0  0  3  0  0  0  0  0  0
  1 14  2  0  0  0  0
  1  6  1  0  0  0  0
  2  3  1  6  0  0  0
  2 13  1  0  0  0  0
  3 19  1  0  0  0  0
  4  7  1  0  0  0  0
  4 15  2  0  0  0  0
  5  2  1  0  0  0  0
  5 16  2  0  0  0  0
  6 17  2  0  0  0  0
  7  3  2  0  0  0  0
  8 21  1  1  0  0  0
  9  1  1  0  0  0  0
 10 18  1  0  0  0  0
 11  4  1  0  0  0  0
 12  8  1  0  0  0  0
 13  8  1  0  0  0  0
 13 18  1  6  0  0  0
 14  5  1  0  0  0  0
 15 20  1  0  0  0  0
 16 12  1  0  0  0  0
 17 16  1  0  0  0  0
 19 10  1  0  0  0  0
 20 19  2  0  0  0  0
 21 23  1  0  0  0  0
 23 30  1  0  0  0  0
 23 22  1  1  0  0  0
 24 31  2  0  0  0  0
 25 30  1  0  0  0  0
 27 24  1  0  0  0  0
 28 25  1  0  0  0  0
 28 24  1  0  0  0  0
 29 31  1  0  0  0  0
 29 26  2  0  0  0  0
 30 29  1  0  0  0  0
M  END
>  <MODEL>
2

>  <REMARK>
 VINA RESULT:      -7.5      3.539      5.852
  Name = 
  3 active torsions:
  status: ('A' for Active; 'I' for Inactive)
    1  A    between atoms: C_5  and  N_16
    2  A    between atoms: C_5  and  N_30
    3  A    between atoms: C_10  and  N_16
                            x       y       z     vdW  Elec       q    Type
                         _______ _______ _______ _____ _____    ______ ____

>  <TORSDO>
F 3

$$$$
=
 OpenBabel11122411013D

 31 35  0  0  1  0  0  0  0  0999 V2000
  191.9410  176.3410  138.1820 C   0  0  0  0  0  0  0  0  0  0  0  0
  188.8950  177.1110  136.0380 C   0  0  2  0  0  3  0  0  0  0  0  0
  188.2840  175.7700  135.6600 C   0  0  0  0  0  0  0  0  0  0  0  0
  188.4530  173.3560  135.4080 C   0  0  0  0  0  0  0  0  0  0  0  0
  189.8110  177.0300  137.2380 C   0  0  0  0  0  0  0  0  0  0  0  0
  191.5200  176.7570  139.4470 C   0  0  0  0  0  3  0  0  0  0  0  0
  189.0090  174.5770  135.8000 C   0  0  0  0  0  3  0  0  0  0  0  0
  187.1040  178.0140  137.5740 C   0  0  2  0  0  3  0  0  0  0  0  0
  193.2910  175.7470  138.0060 C   0  0  0  0  0  1  0  0  0  0  0  0
  186.2640  176.8980  134.8910 O   0  0  0  0  0  0  0  0  0  0  0  0
  189.1760  172.1820  135.5650 O   0  0  0  0  0  1  0  0  0  0  0  0
  188.0990  178.1930  138.7230 C   0  0  0  0  0  2  0  0  0  0  0  0
  187.8230  178.2040  136.2310 C   0  0  2  0  0  3  0  0  0  0  0  0
  191.0910  176.4790  137.0830 C   0  0  0  0  0  3  0  0  0  0  0  0
  187.1710  173.3190  134.8550 C   0  0  0  0  0  3  0  0  0  0  0  0
  189.3910  177.4550  138.5180 C   0  0  0  0  0  0  0  0  0  0  0  0
  190.2540  177.3220  139.6110 C   0  0  0  0  0  3  0  0  0  0  0  0
  186.8510  178.1870  135.0480 C   0  0  0  0  0  2  0  0  0  0  0  0
  187.0020  175.7250  135.0740 C   0  0  0  0  0  0  0  0  0  0  0  0
  186.4490  174.5010  134.6860 C   0  0  0  0  0  3  0  0  0  0  0  0
  186.0270  178.9880  137.7110 N   0  0  0  0  0  2  0  0  0  0  0  0
  185.0440  176.7850  138.0530 C   0  0  0  0  0  1  0  0  0  0  0  0
  184.8180  178.2850  138.1230 C   0  0  1  0  0  3  0  0  0  0  0  0
  184.4010  178.5510  142.1950 C   0  0  0  0  0  0  0  0  0  0  0  0
  185.2150  179.5430  140.1740 O   0  0  0  0  0  0  0  0  0  0  0  0
  182.2960  177.6500  139.4910 O   0  0  0  0  0  0  0  0  0  0  0  0
  184.4740  178.6470  143.6760 C   0  0  0  0  0  1  0  0  0  0  0  0
  185.6150  178.8650  141.3480 C   0  0  0  0  0  2  0  0  0  0  0  0
  183.2580  178.1490  140.1340 C   0  0  0  0  0  0  0  0  0  0  0  0
  184.4220  178.6790  139.4740 N   0  0  0  0  0  0  0  0  0  0  0  0
  183.2670  178.1710  141.5980 C   0  0  0  0  0  3  0  0  0  0  0  0
  1  6  1  0  0  0  0
  2  3  1  1  0  0  0
  2 13  1  0  0  0  0
  2  5  1  0  0  0  0
  3  7  1  0  0  0  0
  4 11  1  0  0  0  0
  4  7  2  0  0  0  0
  5 16  2  0  0  0  0
  6 17  2  0  0  0  0
  8 21  1  1  0  0  0
  8 12  1  0  0  0  0
  9  1  1  0  0  0  0
 10 18  1  0  0  0  0
 10 19  1  0  0  0  0
 13 18  1  6  0  0  0
 13  8  1  0  0  0  0
 14  5  1  0  0  0  0
 14  1  2  0  0  0  0
 15  4  1  0  0  0  0
 16 12  1  0  0  0  0
 16 17  1  0  0  0  0
 19  3  2  0  0  0  0
 20 15  2  0  0  0  0
 20 19  1  0  0  0  0
 21 23  1  0  0  0  0
 23 22  1  1  0  0  0
 23 30  1  0  0  0  0
 24 27  1  0  0  0  0
 25 28  1  0  0  0  0
 26 29  2  0  0  0  0
 28 24  1  0  0  0  0
 29 31  1  0  0  0  0
 30 29  1  0  0  0  0
 30 25  1  0  0  0  0
 31 24  2  0  0  0  0
M  END
>  <MODEL>
3

>  <REMARK>
 VINA RESULT:      -7.4      2.104      2.998
  Name = 
  3 active torsions:
  status: ('A' for Active; 'I' for Inactive)
    1  A    between atoms: C_5  and  N_16
    2  A    between atoms: C_5  and  N_30
    3  A    between atoms: C_10  and  N_16
                            x       y       z     vdW  Elec       q    Type
                         _______ _______ _______ _____ _____    ______ ____

>  <TORSDO>
F 3

$$$$
=
 OpenBabel11122411013D

 31 35  0  0  1  0  0  0  0  0999 V2000
  189.6050  176.7340  137.6740 C   0  0  0  0  0  0  0  0  0  0  0  0
  185.8880  177.4640  137.3370 C   0  0  2  0  0  3  0  0  0  0  0  0
  185.1800  176.1180  137.3740 C   0  0  0  0  0  0  0  0  0  0  0  0
  185.2150  173.6940  137.1670 C   0  0  0  0  0  0  0  0  0  0  0  0
  187.2860  177.4160  137.9110 C   0  0  0  0  0  0  0  0  0  0  0  0
  189.8790  177.2040  138.9610 C   0  0  0  0  0  3  0  0  0  0  0  0
  185.8840  174.9200  137.1750 C   0  0  0  0  0  3  0  0  0  0  0  0
  185.1140  178.4490  139.5300 C   0  0  2  0  0  3  0  0  0  0  0  0
  190.6850  176.1150  136.8640 C   0  0  0  0  0  1  0  0  0  0  0  0
  183.0400  177.2430  137.6880 O   0  0  0  0  0  0  0  0  0  0  0  0
  185.9270  172.5170  136.9840 O   0  0  0  0  0  1  0  0  0  0  0  0
  186.5510  178.6590  140.0100 C   0  0  0  0  0  2  0  0  0  0  0  0
  185.0530  178.5770  138.0020 C   0  0  2  0  0  3  0  0  0  0  0  0
  188.3150  176.8420  137.1520 C   0  0  0  0  0  3  0  0  0  0  0  0
  183.8300  173.6530  137.3410 C   0  0  0  0  0  3  0  0  0  0  0  0
  187.5680  177.8950  139.2090 C   0  0  0  0  0  0  0  0  0  0  0  0
  188.8660  177.7910  139.7200 C   0  0  0  0  0  3  0  0  0  0  0  0
  183.6160  178.5300  137.4750 C   0  0  0  0  0  2  0  0  0  0  0  0
  183.7770  176.0690  137.5190 C   0  0  0  0  0  0  0  0  0  0  0  0
  183.1140  174.8380  137.5140 C   0  0  0  0  0  3  0  0  0  0  0  0
  184.2470  179.4420  140.1550 N   0  0  0  0  0  2  0  0  0  0  0  0
  183.4670  177.2600  140.9060 C   0  0  0  0  0  1  0  0  0  0  0  0
  183.3740  178.7620  141.1040 C   0  0  1  0  0  3  0  0  0  0  0  0
  184.6530  178.6820  145.0000 C   0  0  0  0  0  0  0  0  0  0  0  0
  185.0070  179.4740  142.7680 O   0  0  0  0  0  0  0  0  0  0  0  0
  181.5340  179.0940  143.3710 O   0  0  0  0  0  0  0  0  0  0  0  0
  185.3020  178.5570  146.3300 C   0  0  0  0  0  1  0  0  0  0  0  0
  185.4730  178.5530  143.7340 C   0  0  0  0  0  2  0  0  0  0  0  0
  182.7780  179.0560  143.5640 C   0  0  0  0  0  0  0  0  0  0  0  0
  183.7200  179.1200  142.4780 N   0  0  0  0  0  0  0  0  0  0  0  0
  183.3370  178.8940  144.9080 C   0  0  0  0  0  3  0  0  0  0  0  0
  1  6  1  0  0  0  0
  2  3  1  1  0  0  0
  2  5  1  0  0  0  0
  2 13  1  0  0  0  0
  3 19  1  0  0  0  0
  4  7  1  0  0  0  0
  4 15  2  0  0  0  0
  5 16  2  0  0  0  0
  6 17  2  0  0  0  0
  7  3  2  0  0  0  0
  8 12  1  0  0  0  0
  8 21  1  1  0  0  0
  9  1  1  0  0  0  0
 11  4  1  0  0  0  0
 13 18  1  6  0  0  0
 13  8  1  0  0  0  0
 14  1  2  0  0  0  0
 14  5  1  0  0  0  0
 15 20  1  0  0  0  0
 16 17  1  0  0  0  0
 16 12  1  0  0  0  0
 18 10  1  0  0  0  0
 19 10  1  0  0  0  0
 20 19  2  0  0  0  0
 21 23  1  0  0  0  0
 23 22  1  1  0  0  0
 23 30  1  0  0  0  0
 24 27  1  0  0  0  0
 25 28  1  0  0  0  0
 26 29  2  0  0  0  0
 28 24  1  0  0  0  0
 29 31  1  0  0  0  0
 30 25  1  0  0  0  0
 30 29  1  0  0  0  0
 31 24  2  0  0  0  0
M  END
>  <MODEL>
4

>  <REMARK>
 VINA RESULT:      -7.3      2.278      3.620
  Name = 
  3 active torsions:
  status: ('A' for Active; 'I' for Inactive)
    1  A    between atoms: C_5  and  N_16
    2  A    between atoms: C_5  and  N_30
    3  A    between atoms: C_10  and  N_16
                            x       y       z     vdW  Elec       q    Type
                         _______ _______ _______ _____ _____    ______ ____

>  <TORSDO>
F 3

$$$$
=
 OpenBabel11122411013D

 31 35  0  0  1  0  0  0  0  0999 V2000
  180.0040  178.3960  142.0150 C   0  0  0  0  0  0  0  0  0  0  0  0
  183.3100  179.0340  140.2480 C   0  0  2  0  0  3  0  0  0  0  0  0
  184.4060  178.7210  141.2570 C   0  0  0  0  0  0  0  0  0  0  0  0
  185.1440  178.3730  143.5490 C   0  0  0  0  0  0  0  0  0  0  0  0
  181.9790  178.4100  140.6020 C   0  0  0  0  0  0  0  0  0  0  0  0
  179.5500  177.2400  141.3770 C   0  0  0  0  0  3  0  0  0  0  0  0
  184.1220  178.6170  142.6280 C   0  0  0  0  0  3  0  0  0  0  0  0
  183.6570  177.1520  138.5990 C   0  0  2  0  0  3  0  0  0  0  0  0
  179.2040  179.0040  143.1100 C   0  0  0  0  0  1  0  0  0  0  0  0
  186.0680  178.7530  139.4750 O   0  0  0  0  0  0  0  0  0  0  0  0
  184.8470  178.2570  144.9000 O   0  0  0  0  0  1  0  0  0  0  0  0
  182.2100  176.6770  138.7500 C   0  0  0  0  0  2  0  0  0  0  0  0
  183.7270  178.6710  138.8080 C   0  0  2  0  0  3  0  0  0  0  0  0
  181.2120  178.9790  141.6280 C   0  0  0  0  0  3  0  0  0  0  0  0
  186.4630  178.2480  143.1110 C   0  0  0  0  0  3  0  0  0  0  0  0
  181.5150  177.2440  139.9550 C   0  0  0  0  0  0  0  0  0  0  0  0
  180.2990  176.6730  140.3440 C   0  0  0  0  0  3  0  0  0  0  0  0
  185.1240  179.2290  138.5190 C   0  0  0  0  0  2  0  0  0  0  0  0
  185.7460  178.6230  140.8280 C   0  0  0  0  0  0  0  0  0  0  0  0
  186.7630  178.3760  141.7540 C   0  0  0  0  0  3  0  0  0  0  0  0
  184.1430  176.8030  137.2690 N   0  0  0  0  0  2  0  0  0  0  0  0
  183.5640  174.9510  135.7960 C   0  0  0  0  0  1  0  0  0  0  0  0
  184.1390  175.3500  137.1430 C   0  0  1  0  0  3  0  0  0  0  0  0
  187.8690  173.7850  136.4700 C   0  0  0  0  0  0  0  0  0  0  0  0
  186.5580  175.6510  137.1960 O   0  0  0  0  0  0  0  0  0  0  0  0
  184.8750  172.6280  137.9680 O   0  0  0  0  0  0  0  0  0  0  0  0
  189.2450  173.3840  136.0770 C   0  0  0  0  0  1  0  0  0  0  0  0
  187.3490  175.1650  136.1310 C   0  0  0  0  0  2  0  0  0  0  0  0
  185.7500  173.4100  137.5100 C   0  0  0  0  0  0  0  0  0  0  0  0
  185.4870  174.8100  137.3030 N   0  0  0  0  0  0  0  0  0  0  0  0
  187.0730  172.9250  137.1120 C   0  0  0  0  0  3  0  0  0  0  0  0
  1  9  1  0  0  0  0
  2  5  1  1  0  0  0
  2  3  1  0  0  0  0
  3  7  1  0  0  0  0
  4 11  1  0  0  0  0
  5 14  2  0  0  0  0
  6  1  2  0  0  0  0
  7  4  2  0  0  0  0
  8 21  1  6  0  0  0
  8 12  1  0  0  0  0
  8 13  1  0  0  0  0
 10 19  1  0  0  0  0
 12 16  1  0  0  0  0
 13 18  1  1  0  0  0
 13  2  1  0  0  0  0
 14  1  1  0  0  0  0
 15  4  1  0  0  0  0
 16 17  2  0  0  0  0
 16  5  1  0  0  0  0
 17  6  1  0  0  0  0
 18 10  1  0  0  0  0
 19  3  2  0  0  0  0
 19 20  1  0  0  0  0
 20 15  2  0  0  0  0
 23 22  1  6  0  0  0
 23 21  1  0  0  0  0
 23 30  1  0  0  0  0
 24 31  2  0  0  0  0
 25 30  1  0  0  0  0
 27 24  1  0  0  0  0
 28 24  1  0  0  0  0
 28 25  1  0  0  0  0
 29 26  2  0  0  0  0
 30 29  1  0  0  0  0
 31 29  1  0  0  0  0
M  END
>  <MODEL>
5

>  <REMARK>
 VINA RESULT:      -7.1      3.359      8.998
  Name = 
  3 active torsions:
  status: ('A' for Active; 'I' for Inactive)
    1  A    between atoms: C_5  and  N_16
    2  A    between atoms: C_5  and  N_30
    3  A    between atoms: C_10  and  N_16
                            x       y       z     vdW  Elec       q    Type
                         _______ _______ _______ _____ _____    ______ ____

>  <TORSDO>
F 3

$$$$
=
 OpenBabel11122411013D

 31 35  0  0  1  0  0  0  0  0999 V2000
  192.7320  176.3650  137.5980 C   0  0  0  0  0  0  0  0  0  0  0  0
  189.0340  177.1950  137.2920 C   0  0  2  0  0  3  0  0  0  0  0  0
  188.3080  175.8690  137.1110 C   0  0  0  0  0  0  0  0  0  0  0  0
  188.3200  173.5030  136.5450 C   0  0  0  0  0  0  0  0  0  0  0  0
  190.4160  177.0400  137.8830 C   0  0  0  0  0  0  0  0  0  0  0  0
  192.9810  176.6330  138.9460 C   0  0  0  0  0  3  0  0  0  0  0  0
  189.0030  174.7040  136.7510 C   0  0  0  0  0  3  0  0  0  0  0  0
  188.2180  177.8530  139.5900 C   0  0  2  0  0  3  0  0  0  0  0  0
  193.8240  175.8580  136.7280 C   0  0  0  0  0  1  0  0  0  0  0  0
  186.1750  176.9680  137.5430 O   0  0  0  0  0  0  0  0  0  0  0  0
  189.0220  172.3560  136.2030 O   0  0  0  0  0  1  0  0  0  0  0  0
  189.6460  177.9660  140.1280 C   0  0  0  0  0  2  0  0  0  0  0  0
  188.1960  178.2090  138.0970 C   0  0  2  0  0  3  0  0  0  0  0  0
  191.4560  176.5700  137.0690 C   0  0  0  0  0  3  0  0  0  0  0  0
  186.9310  173.4580  136.6790 C   0  0  0  0  0  3  0  0  0  0  0  0
  190.6720  177.3160  139.2440 C   0  0  0  0  0  0  0  0  0  0  0  0
  191.9560  177.1170  139.7620 C   0  0  0  0  0  3  0  0  0  0  0  0
  186.7720  178.2620  137.5380 C   0  0  0  0  0  2  0  0  0  0  0  0
  186.9020  175.8200  137.2160 C   0  0  0  0  0  0  0  0  0  0  0  0
  186.2250  174.6150  137.0120 C   0  0  0  0  0  3  0  0  0  0  0  0
  187.3480  178.7550  140.3370 N   0  0  0  0  0  2  0  0  0  0  0  0
  187.7030  177.9460  142.6070 C   0  0  0  0  0  1  0  0  0  0  0  0
  186.7420  178.0100  141.4340 C   0  0  1  0  0  3  0  0  0  0  0  0
  183.0990  178.7600  143.1610 C   0  0  0  0  0  0  0  0  0  0  0  0
  185.4230  179.3150  143.0150 O   0  0  0  0  0  0  0  0  0  0  0  0
  184.2620  178.1730  139.8670 O   0  0  0  0  0  0  0  0  0  0  0  0
  181.8780  178.9750  143.9800 C   0  0  0  0  0  1  0  0  0  0  0  0
  184.4570  178.6720  143.8230 C   0  0  0  0  0  2  0  0  0  0  0  0
  184.2590  178.4690  141.0910 C   0  0  0  0  0  0  0  0  0  0  0  0
  185.4770  178.6190  141.8410 N   0  0  0  0  0  0  0  0  0  0  0  0
  183.0070  178.6280  141.8340 C   0  0  0  0  0  3  0  0  0  0  0  0
  1  6  1  0  0  0  0
  2  3  1  1  0  0  0
  2  5  1  0  0  0  0
  2 13  1  0  0  0  0
  3 19  1  0  0  0  0
  4 15  2  0  0  0  0
  4  7  1  0  0  0  0
  5 16  2  0  0  0  0
  6 17  2  0  0  0  0
  7  3  2  0  0  0  0
  8 12  1  0  0  0  0
  8 21  1  1  0  0  0
  9  1  1  0  0  0  0
 11  4  1  0  0  0  0
 13 18  1  6  0  0  0
 13  8  1  0  0  0  0
 14  1  2  0  0  0  0
 14  5  1  0  0  0  0
 15 20  1  0  0  0  0
 16 17  1  0  0  0  0
 16 12  1  0  0  0  0
 18 10  1  0  0  0  0
 19 10  1  0  0  0  0
 20 19  2  0  0  0  0
 21 23  1  0  0  0  0
 23 30  1  0  0  0  0
 23 22  1  1  0  0  0
 24 28  1  0  0  0  0
 24 27  1  0  0  0  0
 25 28  1  0  0  0  0
 26 29  2  0  0  0  0
 29 31  1  0  0  0  0
 29 30  1  0  0  0  0
 30 25  1  0  0  0  0
 31 24  2  0  0  0  0
M  END
>  <MODEL>
6

>  <REMARK>
 VINA RESULT:      -7.1      1.223      1.820
  Name = 
  3 active torsions:
  status: ('A' for Active; 'I' for Inactive)
    1  A    between atoms: C_5  and  N_16
    2  A    between atoms: C_5  and  N_30
    3  A    between atoms: C_10  and  N_16
                            x       y       z     vdW  Elec       q    Type
                         _______ _______ _______ _____ _____    ______ ____

>  <TORSDO>
F 3

$$$$
=
 OpenBabel11122411013D

 31 35  0  0  1  0  0  0  0  0999 V2000
  183.6000  178.9340  143.2080 C   0  0  0  0  0  0  0  0  0  0  0  0
  183.1340  177.8760  139.5850 C   0  0  2  0  0  3  0  0  0  0  0  0
  182.2070  178.9040  138.9520 C   0  0  0  0  0  0  0  0  0  0  0  0
  180.5610  180.6840  139.1500 C   0  0  0  0  0  0  0  0  0  0  0  0
  183.7920  178.3700  140.8530 C   0  0  0  0  0  0  0  0  0  0  0  0
  184.9250  179.3750  143.2160 C   0  0  0  0  0  3  0  0  0  0  0  0
  181.4410  179.7750  139.7420 C   0  0  0  0  0  3  0  0  0  0  0  0
  185.2870  178.3910  138.3690 C   0  0  2  0  0  3  0  0  0  0  0  0
  182.7870  179.0030  144.4500 C   0  0  0  0  0  1  0  0  0  0  0  0
  182.7630  178.0530  136.7360 O   0  0  0  0  0  0  0  0  0  0  0  0
  179.8200  181.5500  139.9430 O   0  0  0  0  0  1  0  0  0  0  0  0
  186.0390  178.6280  139.6810 C   0  0  0  0  0  2  0  0  0  0  0  0
  184.1830  177.3480  138.5850 C   0  0  2  0  0  3  0  0  0  0  0  0
  183.0370  178.4320  142.0330 C   0  0  0  0  0  3  0  0  0  0  0  0
  180.4240  180.7200  137.7610 C   0  0  0  0  0  3  0  0  0  0  0  0
  185.1330  178.8120  140.8650 C   0  0  0  0  0  0  0  0  0  0  0  0
  185.6910  179.3040  142.0500 C   0  0  0  0  0  3  0  0  0  0  0  0
  183.4950  176.9550  137.2750 C   0  0  0  0  0  2  0  0  0  0  0  0
  182.0400  178.9270  137.5520 C   0  0  0  0  0  0  0  0  0  0  0  0
  181.1600  179.8410  136.9650 C   0  0  0  0  0  3  0  0  0  0  0  0
  186.2250  177.9300  137.3520 N   0  0  0  0  0  2  0  0  0  0  0  0
  186.7060  175.5510  137.1390 C   0  0  0  0  0  1  0  0  0  0  0  0
  187.0010  176.8270  137.9060 C   0  0  1  0  0  3  0  0  0  0  0  0
  191.0790  176.5710  137.5500 C   0  0  0  0  0  0  0  0  0  0  0  0
  189.0190  177.4170  136.6710 O   0  0  0  0  0  0  0  0  0  0  0  0
  188.8050  177.1650  140.2010 O   0  0  0  0  0  0  0  0  0  0  0  0
  192.5160  176.3780  137.2250 C   0  0  0  0  0  1  0  0  0  0  0  0
  190.0270  176.4480  136.4690 C   0  0  0  0  0  2  0  0  0  0  0  0
  189.2730  177.0690  139.0360 C   0  0  0  0  0  0  0  0  0  0  0  0
  188.4310  177.1260  137.8700 N   0  0  0  0  0  0  0  0  0  0  0  0
  190.7010  176.8420  138.8030 C   0  0  0  0  0  3  0  0  0  0  0  0
  1  6  1  0  0  0  0
  1  9  1  0  0  0  0
  2  3  1  6  0  0  0
  2  5  1  0  0  0  0
  3  7  1  0  0  0  0
  4  7  2  0  0  0  0
  4 11  1  0  0  0  0
  5 16  2  0  0  0  0
  5 14  1  0  0  0  0
  8 21  1  6  0  0  0
  8 13  1  0  0  0  0
  8 12  1  0  0  0  0
 10 18  1  0  0  0  0
 10 19  1  0  0  0  0
 12 16  1  0  0  0  0
 13 18  1  6  0  0  0
 13  2  1  0  0  0  0
 14  1  2  0  0  0  0
 15  4  1  0  0  0  0
 16 17  1  0  0  0  0
 17  6  2  0  0  0  0
 19  3  2  0  0  0  0
 20 19  1  0  0  0  0
 20 15  2  0  0  0  0
 21 23  1  0  0  0  0
 23 22  1  6  0  0  0
 24 31  2  0  0  0  0
 25 30  1  0  0  0  0
 27 24  1  0  0  0  0
 28 25  1  0  0  0  0
 28 24  1  0  0  0  0
 29 26  2  0  0  0  0
 30 23  1  0  0  0  0
 30 29  1  0  0  0  0
 31 29  1  0  0  0  0
M  END
>  <MODEL>
7

>  <REMARK>
 VINA RESULT:      -7.1      3.443      8.018
  Name = 
  3 active torsions:
  status: ('A' for Active; 'I' for Inactive)
    1  A    between atoms: C_5  and  N_16
    2  A    between atoms: C_5  and  N_30
    3  A    between atoms: C_10  and  N_16
                            x       y       z     vdW  Elec       q    Type
                         _______ _______ _______ _____ _____    ______ ____

>  <TORSDO>
F 3

$$$$
=
 OpenBabel11122411013D

 31 35  0  0  1  0  0  0  0  0999 V2000
  187.1770  178.5170  137.4820 C   0  0  0  0  0  0  0  0  0  0  0  0
  183.9200  178.4890  139.4460 C   0  0  2  0  0  3  0  0  0  0  0  0
  183.2060  177.1970  139.0770 C   0  0  0  0  0  0  0  0  0  0  0  0
  182.8890  175.2970  137.5920 C   0  0  0  0  0  0  0  0  0  0  0  0
  185.4000  178.4590  139.1370 C   0  0  0  0  0  0  0  0  0  0  0  0
  188.1250  178.3080  138.4860 C   0  0  0  0  0  3  0  0  0  0  0  0
  183.5820  176.4570  137.9450 C   0  0  0  0  0  3  0  0  0  0  0  0
  184.5010  178.0160  141.8590 C   0  0  2  0  0  3  0  0  0  0  0  0
  187.6100  178.6520  136.0680 C   0  0  0  0  0  1  0  0  0  0  0  0
  181.6650  177.5070  140.9410 O   0  0  0  0  0  0  0  0  0  0  0  0
  183.2810  174.5670  136.4780 O   0  0  0  0  0  1  0  0  0  0  0  0
  185.9920  178.2570  141.6070 C   0  0  0  0  0  2  0  0  0  0  0  0
  183.6680  178.8920  140.9140 C   0  0  2  0  0  3  0  0  0  0  0  0
  185.8210  178.5940  137.8070 C   0  0  0  0  0  3  0  0  0  0  0  0
  181.8000  174.8730  138.3570 C   0  0  0  0  0  3  0  0  0  0  0  0
  186.3620  178.2540  140.1510 C   0  0  0  0  0  0  0  0  0  0  0  0
  187.7180  178.1880  139.8160 C   0  0  0  0  0  3  0  0  0  0  0  0
  182.1700  178.8100  141.2210 C   0  0  0  0  0  2  0  0  0  0  0  0
  182.0860  176.7780  139.8260 C   0  0  0  0  0  0  0  0  0  0  0  0
  181.3990  175.6140  139.4700 C   0  0  0  0  0  3  0  0  0  0  0  0
  184.1890  178.3340  143.2480 N   0  0  0  0  0  2  0  0  0  0  0  0
  184.8760  180.4420  144.2580 C   0  0  0  0  0  1  0  0  0  0  0  0
  185.3180  179.0570  143.8210 C   0  0  1  0  0  3  0  0  0  0  0  0
  187.2960  178.0220  147.2620 C   0  0  0  0  0  0  0  0  0  0  0  0
  185.2020  178.2820  146.1300 O   0  0  0  0  0  0  0  0  0  0  0  0
  187.7160  177.3580  143.8070 O   0  0  0  0  0  0  0  0  0  0  0  0
  187.9010  177.8160  148.6030 C   0  0  0  0  0  1  0  0  0  0  0  0
  186.0450  178.8590  147.1070 C   0  0  0  0  0  2  0  0  0  0  0  0
  187.1770  177.6860  144.8980 C   0  0  0  0  0  0  0  0  0  0  0  0
  185.8880  178.3230  144.9490 N   0  0  0  0  0  0  0  0  0  0  0  0
  187.8590  177.4810  146.1770 C   0  0  0  0  0  3  0  0  0  0  0  0
  1 14  2  0  0  0  0
  1  6  1  0  0  0  0
  2  3  1  1  0  0  0
  2 13  1  0  0  0  0
  3 19  1  0  0  0  0
  4  7  1  0  0  0  0
  4 15  2  0  0  0  0
  5  2  1  0  0  0  0
  5 16  2  0  0  0  0
  6 17  2  0  0  0  0
  7  3  2  0  0  0  0
  8 21  1  1  0  0  0
  9  1  1  0  0  0  0
 10 18  1  0  0  0  0
 11  4  1  0  0  0  0
 12  8  1  0  0  0  0
 13 18  1  1  0  0  0
 13  8  1  0  0  0  0
 14  5  1  0  0  0  0
 15 20  1  0  0  0  0
 16 12  1  0  0  0  0
 17 16  1  0  0  0  0
 19 10  1  0  0  0  0
 20 19  2  0  0  0  0
 21 23  1  0  0  0  0
 23 22  1  1  0  0  0
 23 30  1  0  0  0  0
 24 27  1  0  0  0  0
 25 28  1  0  0  0  0
 26 29  2  0  0  0  0
 28 24  1  0  0  0  0
 29 30  1  0  0  0  0
 29 31  1  0  0  0  0
 30 25  1  0  0  0  0
 31 24  2  0  0  0  0
M  END
>  <MODEL>
8

>  <REMARK>
 VINA RESULT:      -7.1      3.547      5.166
  Name = 
  3 active torsions:
  status: ('A' for Active; 'I' for Inactive)
    1  A    between atoms: C_5  and  N_16
    2  A    between atoms: C_5  and  N_30
    3  A    between atoms: C_10  and  N_16
                            x       y       z     vdW  Elec       q    Type
                         _______ _______ _______ _____ _____    ______ ____

>  <TORSDO>
F 3

$$$$
=
 OpenBabel11122411013D

 31 35  0  0  1  0  0  0  0  0999 V2000
  191.2480  176.6000  144.7650 C   0  0  0  0  0  0  0  0  0  0  0  0
  187.5960  177.1090  143.8340 C   0  0  2  0  0  3  0  0  0  0  0  0
  186.9480  177.8270  145.0100 C   0  0  0  0  0  0  0  0  0  0  0  0
  186.9480  178.4980  147.3480 C   0  0  0  0  0  0  0  0  0  0  0  0
  189.1020  177.2340  143.8190 C   0  0  0  0  0  0  0  0  0  0  0  0
  191.8940  177.4970  143.9110 C   0  0  0  0  0  3  0  0  0  0  0  0
  187.5730  177.8740  146.2650 C   0  0  0  0  0  3  0  0  0  0  0  0
  187.5120  178.9290  142.0850 C   0  0  2  0  0  3  0  0  0  0  0  0
  192.0380  175.7900  145.7270 C   0  0  0  0  0  1  0  0  0  0  0  0
  184.9920  178.3190  143.6410 O   0  0  0  0  0  0  0  0  0  0  0  0
  187.5840  178.5500  148.5800 O   0  0  0  0  0  1  0  0  0  0  0  0
  189.0260  178.8670  141.8650 C   0  0  0  0  0  2  0  0  0  0  0  0
  186.9890  177.5430  142.4840 C   0  0  2  0  0  3  0  0  0  0  0  0
  189.8590  176.4690  144.7170 C   0  0  0  0  0  3  0  0  0  0  0  0
  185.6820  179.0650  147.1910 C   0  0  0  0  0  3  0  0  0  0  0  0
  189.7590  178.1360  142.9530 C   0  0  0  0  0  0  0  0  0  0  0  0
  191.1530  178.2530  143.0020 C   0  0  0  0  0  3  0  0  0  0  0  0
  185.4610  177.5050  142.5690 C   0  0  0  0  0  2  0  0  0  0  0  0
  185.6570  178.3760  144.8690 C   0  0  0  0  0  0  0  0  0  0  0  0
  185.0370  179.0020  145.9540 C   0  0  0  0  0  3  0  0  0  0  0  0
  186.8650  179.3790  140.8580 N   0  0  0  0  0  2  0  0  0  0  0  0
  185.3340  178.2500  139.3350 C   0  0  0  0  0  1  0  0  0  0  0  0
  186.7130  178.2330  139.9690 C   0  0  1  0  0  3  0  0  0  0  0  0
  188.8420  177.6430  136.5140 C   0  0  0  0  0  0  0  0  0  0  0  0
  187.7130  179.1820  137.9590 O   0  0  0  0  0  0  0  0  0  0  0  0
  189.1200  176.5500  139.8730 O   0  0  0  0  0  0  0  0  0  0  0  0
  189.4310  177.5050  135.1570 C   0  0  0  0  0  1  0  0  0  0  0  0
  187.6090  178.4930  136.7300 C   0  0  0  0  0  2  0  0  0  0  0  0
  188.7810  177.2310  138.8680 C   0  0  0  0  0  0  0  0  0  0  0  0
  187.7490  178.2310  138.9390 N   0  0  0  0  0  0  0  0  0  0  0  0
  189.3880  177.0060  137.5550 C   0  0  0  0  0  3  0  0  0  0  0  0
  1  9  1  0  0  0  0
  2  5  1  6  0  0  0
  2  3  1  0  0  0  0
  3  7  1  0  0  0  0
  4 11  1  0  0  0  0
  5 14  2  0  0  0  0
  6  1  2  0  0  0  0
  7  4  2  0  0  0  0
  8 21  1  6  0  0  0
  8 13  1  0  0  0  0
 10 19  1  0  0  0  0
 12  8  1  0  0  0  0
 12 16  1  0  0  0  0
 13 18  1  1  0  0  0
 13  2  1  0  0  0  0
 14  1  1  0  0  0  0
 15  4  1  0  0  0  0
 16 17  2  0  0  0  0
 16  5  1  0  0  0  0
 17  6  1  0  0  0  0
 18 10  1  0  0  0  0
 19  3  2  0  0  0  0
 19 20  1  0  0  0  0
 20 15  2  0  0  0  0
 23 22  1  6  0  0  0
 23 21  1  0  0  0  0
 24 28  1  0  0  0  0
 24 31  2  0  0  0  0
 25 30  1  0  0  0  0
 27 24  1  0  0  0  0
 28 25  1  0  0  0  0
 29 30  1  0  0  0  0
 29 26  2  0  0  0  0
 30 23  1  0  0  0  0
 31 29  1  0  0  0  0
M  END
>  <MODEL>
9

>  <REMARK>
 VINA RESULT:      -7.1      2.752      7.639
  Name = 
  3 active torsions:
  status: ('A' for Active; 'I' for Inactive)
    1  A    between atoms: C_5  and  N_16
    2  A    between atoms: C_5  and  N_30
    3  A    between atoms: C_10  and  N_16
                            x       y       z     vdW  Elec       q    Type
                         _______ _______ _______ _____ _____    ______ ____

>  <TORSDO>
F 3

$$$$
