=
 OpenBabel11122411043D

 31 35  0  0  1  0  0  0  0  0999 V2000
  185.2010  178.4170  141.9120 C   0  0  0  0  0  0  0  0  0  0  0  0
  183.0640  179.7730  139.0630 C   0  0  2  0  0  3  0  0  0  0  0  0
  183.1920  178.7850  137.9270 C   0  0  0  0  0  0  0  0  0  0  0  0
  184.4470  177.0760  136.8420 C   0  0  0  0  0  0  0  0  0  0  0  0
  183.4630  179.2140  140.4120 C   0  0  0  0  0  0  0  0  0  0  0  0
  184.2570  178.2550  142.9280 C   0  0  0  0  0  3  0  0  0  0  0  0
  184.2440  177.9210  137.8880 N   0  0  0  0  0  0  0  0  0  0  0  0
  180.6220  179.6590  139.9000 C   0  0  1  0  0  3  0  0  0  0  0  0
  186.5010  178.1140  142.1390 F   0  0  0  0  0  0  0  0  0  0  0  0
  181.0990  179.7330  136.8430 C   0  0  0  0  0  2  0  0  0  0  0  0
  185.6030  176.1420  136.8570 C   0  0  0  0  0  1  0  0  0  0  0  0
  181.1460  179.4110  141.2380 N   0  0  0  0  0  2  0  0  0  0  0  0
  181.6770  180.4460  139.0970 C   0  0  2  0  0  3  0  0  0  0  0  0
  184.8070  178.9050  140.6630 C   0  0  0  0  0  3  0  0  0  0  0  0
  183.5750  177.0890  135.7540 C   0  0  0  0  0  3  0  0  0  0  0  0
  182.5140  179.0480  141.4460 C   0  0  0  0  0  0  0  0  0  0  0  0
  182.9180  178.5770  142.6970 C   0  0  0  0  0  3  0  0  0  0  0  0
  181.2310  180.8690  137.7640 N   0  0  0  0  0  2  0  0  0  0  0  0
  182.3110  178.8490  136.8290 C   0  0  0  0  0  0  0  0  0  0  0  0
  182.5000  177.9780  135.7540 C   0  0  0  0  0  3  0  0  0  0  0  0
  178.9310  177.6090  140.9770 O   0  0  0  0  0  0  0  0  0  0  0  0
  179.4870  177.3830  139.8680 C   0  0  0  0  0  0  0  0  0  0  0  0
  180.3130  178.3830  139.2630 N   0  0  0  0  0  2  0  0  0  0  0  0
  181.2210  174.2810  138.1880 N   0  0  0  0  0  0  0  0  0  0  0  0
  179.7370  174.9370  140.0430 C   0  0  0  0  0  2  0  0  0  0  0  0
  178.9310  177.0680  136.9870 C   0  0  0  0  0  1  0  0  0  0  0  0
  182.6110  174.0040  137.8700 C   0  0  0  0  0  1  0  0  0  0  0  0
  181.1600  174.5410  139.6310 C   0  0  0  0  0  2  0  0  0  0  0  0
  179.4240  175.8850  137.8020 C   0  0  2  0  0  3  0  0  0  0  0  0
  179.3400  176.0940  139.2510 N   0  0  0  0  0  0  0  0  0  0  0  0
  180.8530  175.4910  137.4470 C   0  0  0  0  0  2  0  0  0  0  0  0
  1  9  1  0  0  0  0
  1  6  1  0  0  0  0
  2  3  1  6  0  0  0
  2 13  1  0  0  0  0
  2  5  1  0  0  0  0
  4 11  1  0  0  0  0
  4  7  2  0  0  0  0
  5 14  1  0  0  0  0
  5 16  2  0  0  0  0
  7  3  1  0  0  0  0
  8 23  1  6  0  0  0
  8 12  1  0  0  0  0
 10 18  1  0  0  0  0
 12 16  1  0  0  0  0
 13 18  1  6  0  0  0
 13  8  1  0  0  0  0
 14  1  2  0  0  0  0
 15  4  1  0  0  0  0
 16 17  1  0  0  0  0
 17  6  2  0  0  0  0
 19 10  1  0  0  0  0
 19  3  2  0  0  0  0
 20 15  2  0  0  0  0
 20 19  1  0  0  0  0
 22 21  2  0  0  0  0
 23 22  1  0  0  0  0
 24 28  1  0  0  0  0
 27 24  1  0  0  0  0
 28 25  1  0  0  0  0
 29 26  1  6  0  0  0
 29 30  1  0  0  0  0
 30 22  1  0  0  0  0
 30 25  1  0  0  0  0
 31 29  1  0  0  0  0
 31 24  1  0  0  0  0
M  END
>  <MODEL>
1

>  <REMARK>
 VINA RESULT:      -4.3      0.000      0.000
  Name = 
  1 active torsions:
  status: ('A' for Active; 'I' for Inactive)
    1  A    between atoms: C_10  and  N_16
                            x       y       z     vdW  Elec       q    Type
                         _______ _______ _______ _____ _____    ______ ____

>  <TORSDO>
F 1

$$$$
=
 OpenBabel11122411043D

 31 35  0  0  1  0  0  0  0  0999 V2000
  190.1790  176.3770  141.7760 C   0  0  0  0  0  0  0  0  0  0  0  0
  189.8600  177.9460  138.3170 C   0  0  2  0  0  3  0  0  0  0  0  0
  190.1990  176.8590  137.3240 C   0  0  0  0  0  0  0  0  0  0  0  0
  191.3150  174.8100  136.8440 C   0  0  0  0  0  0  0  0  0  0  0  0
  189.4990  177.4300  139.6940 C   0  0  0  0  0  0  0  0  0  0  0  0
  188.8880  176.5360  142.2850 C   0  0  0  0  0  3  0  0  0  0  0  0
  190.9130  175.7690  137.7210 N   0  0  0  0  0  0  0  0  0  0  0  0
  187.3520  178.4930  138.0220 C   0  0  1  0  0  3  0  0  0  0  0  0
  191.1380  175.7940  142.5330 F   0  0  0  0  0  0  0  0  0  0  0  0
  189.0720  178.1800  135.4690 C   0  0  0  0  0  2  0  0  0  0  0  0
  192.0790  173.6320  137.3330 C   0  0  0  0  0  1  0  0  0  0  0  0
  187.1820  178.2470  139.4500 N   0  0  0  0  0  2  0  0  0  0  0  0
  188.8090  178.9310  137.7690 C   0  0  2  0  0  3  0  0  0  0  0  0
  190.4850  176.8320  140.4910 C   0  0  0  0  0  3  0  0  0  0  0  0
  191.0160  174.9340  135.4880 C   0  0  0  0  0  3  0  0  0  0  0  0
  188.1950  177.5870  140.2160 C   0  0  0  0  0  0  0  0  0  0  0  0
  187.9010  177.1460  141.5090 C   0  0  0  0  0  3  0  0  0  0  0  0
  189.0880  179.3280  136.3830 N   0  0  0  0  0  2  0  0  0  0  0  0
  189.9100  177.0330  135.9560 C   0  0  0  0  0  0  0  0  0  0  0  0
  190.3060  176.0510  135.0470 C   0  0  0  0  0  3  0  0  0  0  0  0
  184.7460  177.3230  137.7760 O   0  0  0  0  0  0  0  0  0  0  0  0
  185.7090  176.7220  137.2270 C   0  0  0  0  0  0  0  0  0  0  0  0
  187.0270  177.2760  137.2850 N   0  0  0  0  0  2  0  0  0  0  0  0
  186.8110  172.9680  136.8430 N   0  0  0  0  0  0  0  0  0  0  0  0
  184.8970  174.4030  137.4340 C   0  0  0  0  0  2  0  0  0  0  0  0
  186.8490  176.0330  134.5940 C   0  0  0  0  0  1  0  0  0  0  0  0
  187.9080  172.2170  137.4270 C   0  0  0  0  0  1  0  0  0  0  0  0
  186.0290  173.5130  137.9600 C   0  0  0  0  0  2  0  0  0  0  0  0
  186.3060  174.9400  135.4990 C   0  0  2  0  0  3  0  0  0  0  0  0
  185.4860  175.4470  136.6050 N   0  0  0  0  0  0  0  0  0  0  0  0
  187.4120  174.0610  136.0740 C   0  0  0  0  0  2  0  0  0  0  0  0
  1  6  1  0  0  0  0
  1  9  1  0  0  0  0
  2  3  1  6  0  0  0
  2  5  1  0  0  0  0
  3  7  1  0  0  0  0
  4 11  1  0  0  0  0
  4  7  2  0  0  0  0
  5 16  2  0  0  0  0
  5 14  1  0  0  0  0
  8 23  1  6  0  0  0
  8 12  1  0  0  0  0
 10 19  1  0  0  0  0
 10 18  1  0  0  0  0
 12 16  1  0  0  0  0
 13 18  1  6  0  0  0
 13  8  1  0  0  0  0
 13  2  1  0  0  0  0
 14  1  2  0  0  0  0
 15  4  1  0  0  0  0
 16 17  1  0  0  0  0
 17  6  2  0  0  0  0
 19  3  2  0  0  0  0
 20 15  2  0  0  0  0
 20 19  1  0  0  0  0
 22 23  1  0  0  0  0
 22 21  2  0  0  0  0
 24 27  1  0  0  0  0
 24 28  1  0  0  0  0
 25 28  1  0  0  0  0
 29 26  1  1  0  0  0
 29 31  1  0  0  0  0
 29 30  1  0  0  0  0
 30 22  1  0  0  0  0
 30 25  1  0  0  0  0
 31 24  1  0  0  0  0
M  END
>  <MODEL>
2

>  <REMARK>
 VINA RESULT:      -4.1      4.976      6.780
  Name = 
  1 active torsions:
  status: ('A' for Active; 'I' for Inactive)
    1  A    between atoms: C_10  and  N_16
                            x       y       z     vdW  Elec       q    Type
                         _______ _______ _______ _____ _____    ______ ____

>  <TORSDO>
F 1

$$$$
=
 OpenBabel11122411043D

 31 35  0  0  1  0  0  0  0  0999 V2000
  185.8290  177.1560  136.1420 C   0  0  0  0  0  0  0  0  0  0  0  0
  182.9050  175.8970  138.2380 C   0  0  2  0  0  3  0  0  0  0  0  0
  182.7570  176.8650  139.3880 C   0  0  0  0  0  0  0  0  0  0  0  0
  183.7400  178.4910  140.8250 C   0  0  0  0  0  0  0  0  0  0  0  0
  183.6990  176.4450  137.0700 C   0  0  0  0  0  0  0  0  0  0  0  0
  185.2210  177.3810  134.9050 C   0  0  0  0  0  3  0  0  0  0  0  0
  183.7990  177.6680  139.7430 N   0  0  0  0  0  0  0  0  0  0  0  0
  180.8100  176.1560  136.7480 C   0  0  1  0  0  3  0  0  0  0  0  0
  187.1540  177.3880  136.2980 F   0  0  0  0  0  0  0  0  0  0  0  0
  180.3970  176.0270  139.8120 C   0  0  0  0  0  2  0  0  0  0  0  0
  184.9000  179.3580  141.1600 C   0  0  0  0  0  1  0  0  0  0  0  0
  181.7030  176.3860  135.6190 N   0  0  0  0  0  2  0  0  0  0  0  0
  181.5520  175.3030  137.7960 C   0  0  2  0  0  3  0  0  0  0  0  0
  185.0730  176.6800  137.2170 C   0  0  0  0  0  3  0  0  0  0  0  0
  182.5960  178.5170  141.6210 C   0  0  0  0  0  3  0  0  0  0  0  0
  183.0910  176.6740  135.8150 C   0  0  0  0  0  0  0  0  0  0  0  0
  183.8560  177.1330  134.7410 C   0  0  0  0  0  3  0  0  0  0  0  0
  180.7250  174.8940  138.9390 N   0  0  0  0  0  2  0  0  0  0  0  0
  181.5990  176.8420  140.1900 C   0  0  0  0  0  0  0  0  0  0  0  0
  181.5210  177.6900  141.2960 C   0  0  0  0  0  3  0  0  0  0  0  0
  178.9380  177.9770  135.5640 O   0  0  0  0  0  0  0  0  0  0  0  0
  179.4840  178.3240  136.6470 C   0  0  0  0  0  0  0  0  0  0  0  0
  180.3990  177.4420  137.3040 N   0  0  0  0  0  2  0  0  0  0  0  0
  180.9630  181.6690  138.0870 N   0  0  0  0  0  0  0  0  0  0  0  0
  179.5220  180.7660  136.3050 C   0  0  0  0  0  2  0  0  0  0  0  0
  178.9330  178.7850  139.5090 C   0  0  0  0  0  1  0  0  0  0  0  0
  182.3270  182.0840  138.3640 C   0  0  0  0  0  1  0  0  0  0  0  0
  180.9100  181.3070  136.6660 C   0  0  0  0  0  2  0  0  0  0  0  0
  179.3140  179.9490  138.6080 C   0  0  2  0  0  3  0  0  0  0  0  0
  179.2340  179.6350  137.1780 N   0  0  0  0  0  0  0  0  0  0  0  0
  180.7080  180.4850  138.9140 C   0  0  0  0  0  2  0  0  0  0  0  0
  1  9  1  0  0  0  0
  1 14  1  0  0  0  0
  2  5  1  6  0  0  0
  2  3  1  0  0  0  0
  3  7  2  0  0  0  0
  3 19  1  0  0  0  0
  4 11  1  0  0  0  0
  4 15  2  0  0  0  0
  5 14  2  0  0  0  0
  6  1  2  0  0  0  0
  7  4  1  0  0  0  0
  8 23  1  1  0  0  0
  8 13  1  0  0  0  0
 10 19  1  0  0  0  0
 12 16  1  0  0  0  0
 12  8  1  0  0  0  0
 13  2  1  0  0  0  0
 13 18  1  1  0  0  0
 16  5  1  0  0  0  0
 17  6  1  0  0  0  0
 17 16  2  0  0  0  0
 18 10  1  0  0  0  0
 19 20  2  0  0  0  0
 20 15  1  0  0  0  0
 21 22  2  0  0  0  0
 22 30  1  0  0  0  0
 22 23  1  0  0  0  0
 24 27  1  0  0  0  0
 24 31  1  0  0  0  0
 25 28  1  0  0  0  0
 25 30  1  0  0  0  0
 28 24  1  0  0  0  0
 29 31  1  0  0  0  0
 29 26  1  1  0  0  0
 30 29  1  0  0  0  0
M  END
>  <MODEL>
3

>  <REMARK>
 VINA RESULT:      -3.8      2.138      5.462
  Name = 
  1 active torsions:
  status: ('A' for Active; 'I' for Inactive)
    1  A    between atoms: C_10  and  N_16
                            x       y       z     vdW  Elec       q    Type
                         _______ _______ _______ _____ _____    ______ ____

>  <TORSDO>
F 1

$$$$
=
 OpenBabel11122411043D

 31 35  0  0  1  0  0  0  0  0999 V2000
  183.8190  172.6880  137.3080 C   0  0  0  0  0  0  0  0  0  0  0  0
  182.3800  175.8570  135.7540 C   0  0  2  0  0  3  0  0  0  0  0  0
  181.2190  176.2700  136.6270 C   0  0  0  0  0  0  0  0  0  0  0  0
  179.5270  175.6670  138.1920 C   0  0  0  0  0  0  0  0  0  0  0  0
  183.3450  174.9020  136.4250 C   0  0  0  0  0  0  0  0  0  0  0  0
  185.1310  173.0760  137.5920 C   0  0  0  0  0  3  0  0  0  0  0  0
  180.6280  175.3620  137.4540 N   0  0  0  0  0  0  0  0  0  0  0  0
  184.2110  177.6610  136.0140 C   0  0  1  0  0  3  0  0  0  0  0  0
  183.4070  171.4310  137.5950 F   0  0  0  0  0  0  0  0  0  0  0  0
  181.2890  178.6110  135.6420 C   0  0  0  0  0  2  0  0  0  0  0  0
  178.9310  174.6430  139.0900 C   0  0  0  0  0  1  0  0  0  0  0  0
  185.1400  176.5950  136.3710 N   0  0  0  0  0  2  0  0  0  0  0  0
  183.0990  177.0680  135.1260 C   0  0  2  0  0  3  0  0  0  0  0  0
  182.9330  173.5940  136.7180 C   0  0  0  0  0  3  0  0  0  0  0  0
  178.9550  176.9350  138.1030 C   0  0  0  0  0  3  0  0  0  0  0  0
  184.6730  175.2860  136.7130 C   0  0  0  0  0  0  0  0  0  0  0  0
  185.5580  174.3700  137.2880 C   0  0  0  0  0  3  0  0  0  0  0  0
  182.1560  178.0590  134.5940 N   0  0  0  0  0  2  0  0  0  0  0  0
  180.6460  177.5500  136.4870 C   0  0  0  0  0  0  0  0  0  0  0  0
  179.5230  177.8800  137.2480 C   0  0  0  0  0  3  0  0  0  0  0  0
  185.7240  178.5500  138.2820 O   0  0  0  0  0  0  0  0  0  0  0  0
  184.4680  178.6400  138.3480 C   0  0  0  0  0  0  0  0  0  0  0  0
  183.6610  178.2460  137.2340 N   0  0  0  0  0  2  0  0  0  0  0  0
  181.7600  177.9920  141.1230 N   0  0  0  0  0  0  0  0  0  0  0  0
  184.1780  178.3200  140.7760 C   0  0  0  0  0  2  0  0  0  0  0  0
  182.2550  180.5910  138.3920 C   0  0  0  0  0  1  0  0  0  0  0  0
  180.7490  176.9600  141.2660 C   0  0  0  0  0  1  0  0  0  0  0  0
  183.0540  177.3060  141.0240 C   0  0  0  0  0  2  0  0  0  0  0  0
  182.5480  179.7430  139.6180 C   0  0  2  0  0  3  0  0  0  0  0  0
  183.8520  179.0730  139.5710 N   0  0  0  0  0  0  0  0  0  0  0  0
  181.4700  178.6940  139.8700 C   0  0  0  0  0  2  0  0  0  0  0  0
  1  6  1  0  0  0  0
  1  9  1  0  0  0  0
  2  5  1  1  0  0  0
  2  3  1  0  0  0  0
  3  7  1  0  0  0  0
  4 11  1  0  0  0  0
  5 16  2  0  0  0  0
  5 14  1  0  0  0  0
  7  4  2  0  0  0  0
  8 12  1  0  0  0  0
  8 23  1  1  0  0  0
 10 19  1  0  0  0  0
 12 16  1  0  0  0  0
 13 18  1  1  0  0  0
 13  2  1  0  0  0  0
 13  8  1  0  0  0  0
 14  1  2  0  0  0  0
 15  4  1  0  0  0  0
 16 17  1  0  0  0  0
 17  6  2  0  0  0  0
 18 10  1  0  0  0  0
 19  3  2  0  0  0  0
 19 20  1  0  0  0  0
 20 15  2  0  0  0  0
 21 22  2  0  0  0  0
 22 30  1  0  0  0  0
 23 22  1  0  0  0  0
 24 27  1  0  0  0  0
 25 28  1  0  0  0  0
 28 24  1  0  0  0  0
 29 26  1  6  0  0  0
 29 31  1  0  0  0  0
 30 29  1  0  0  0  0
 30 25  1  0  0  0  0
 31 24  1  0  0  0  0
M  END
>  <MODEL>
4

>  <REMARK>
 VINA RESULT:      -3.4      2.589      5.576
  Name = 
  1 active torsions:
  status: ('A' for Active; 'I' for Inactive)
    1  A    between atoms: C_10  and  N_16
                            x       y       z     vdW  Elec       q    Type
                         _______ _______ _______ _____ _____    ______ ____

>  <TORSDO>
F 1

$$$$
=
 OpenBabel11122411043D

 31 35  0  0  1  0  0  0  0  0999 V2000
  179.7710  182.1960  136.1130 C   0  0  0  0  0  0  0  0  0  0  0  0
  179.0410  179.5660  138.7730 C   0  0  2  0  0  3  0  0  0  0  0  0
  179.1450  178.2240  138.0850 C   0  0  0  0  0  0  0  0  0  0  0  0
  179.0410  176.9480  136.0770 C   0  0  0  0  0  0  0  0  0  0  0  0
  179.7160  180.6950  138.0230 C   0  0  0  0  0  0  0  0  0  0  0  0
  180.8890  182.8410  136.6450 C   0  0  0  0  0  3  0  0  0  0  0  0
  179.0400  178.1410  136.7300 N   0  0  0  0  0  0  0  0  0  0  0  0
  180.9930  179.7120  140.4600 C   0  0  1  0  0  3  0  0  0  0  0  0
  179.2500  182.6050  134.9320 F   0  0  0  0  0  0  0  0  0  0  0  0
  179.3850  177.0710  140.3360 C   0  0  0  0  0  2  0  0  0  0  0  0
  178.9390  176.9140  134.5940 C   0  0  0  0  0  1  0  0  0  0  0  0
  181.3800  180.9670  139.8260 N   0  0  0  0  0  2  0  0  0  0  0  0
  179.4800  179.5010  140.2490 C   0  0  2  0  0  3  0  0  0  0  0  0
  179.1810  181.1340  136.8040 C   0  0  0  0  0  3  0  0  0  0  0  0
  179.1310  175.7570  136.7970 C   0  0  0  0  0  3  0  0  0  0  0  0
  180.8470  181.3540  138.5560 C   0  0  0  0  0  0  0  0  0  0  0  0
  181.4210  182.4250  137.8670 C   0  0  0  0  0  3  0  0  0  0  0  0
  178.9310  178.3280  140.9410 N   0  0  0  0  0  2  0  0  0  0  0  0
  179.2030  177.0400  138.8460 C   0  0  0  0  0  0  0  0  0  0  0  0
  179.2170  175.8090  138.1890 C   0  0  0  0  0  3  0  0  0  0  0  0
  183.8290  179.3560  140.6860 O   0  0  0  0  0  0  0  0  0  0  0  0
  183.1890  178.5170  139.9950 C   0  0  0  0  0  0  0  0  0  0  0  0
  181.7670  178.6220  139.8750 N   0  0  0  0  0  2  0  0  0  0  0  0
  183.7980  176.6560  136.5860 N   0  0  0  0  0  0  0  0  0  0  0  0
  184.9350  177.9500  138.3480 C   0  0  0  0  0  2  0  0  0  0  0  0
  182.3050  175.7020  139.9510 C   0  0  0  0  0  1  0  0  0  0  0  0
  183.1700  176.7910  135.2840 C   0  0  0  0  0  1  0  0  0  0  0  0
  184.3320  177.9770  136.9390 C   0  0  0  0  0  2  0  0  0  0  0  0
  183.3200  176.1990  138.9340 C   0  0  2  0  0  3  0  0  0  0  0  0
  183.9040  177.5000  139.2750 N   0  0  0  0  0  0  0  0  0  0  0  0
  182.7390  176.2780  137.5270 C   0  0  0  0  0  2  0  0  0  0  0  0
  1  6  2  0  0  0  0
  1 14  1  0  0  0  0
  2  5  1  6  0  0  0
  2 13  1  0  0  0  0
  3  2  1  0  0  0  0
  3 19  1  0  0  0  0
  4  7  1  0  0  0  0
  4 15  2  0  0  0  0
  5 16  1  0  0  0  0
  6 17  1  0  0  0  0
  7  3  2  0  0  0  0
  8 23  1  6  0  0  0
  9  1  1  0  0  0  0
 10 18  1  0  0  0  0
 11  4  1  0  0  0  0
 12  8  1  0  0  0  0
 13  8  1  0  0  0  0
 13 18  1  6  0  0  0
 14  5  2  0  0  0  0
 15 20  1  0  0  0  0
 16 12  1  0  0  0  0
 17 16  2  0  0  0  0
 19 10  1  0  0  0  0
 20 19  2  0  0  0  0
 22 21  2  0  0  0  0
 23 22  1  0  0  0  0
 24 28  1  0  0  0  0
 24 31  1  0  0  0  0
 25 30  1  0  0  0  0
 27 24  1  0  0  0  0
 28 25  1  0  0  0  0
 29 30  1  0  0  0  0
 29 26  1  1  0  0  0
 30 22  1  0  0  0  0
 31 29  1  0  0  0  0
M  END
>  <MODEL>
5

>  <REMARK>
 VINA RESULT:      -3.2      2.900      5.300
  Name = 
  1 active torsions:
  status: ('A' for Active; 'I' for Inactive)
    1  A    between atoms: C_10  and  N_16
                            x       y       z     vdW  Elec       q    Type
                         _______ _______ _______ _____ _____    ______ ____

>  <TORSDO>
F 1

$$$$
=
 OpenBabel11122411043D

 31 35  0  0  1  0  0  0  0  0999 V2000
  184.8580  172.2630  136.2260 C   0  0  0  0  0  0  0  0  0  0  0  0
  183.3170  175.5360  135.0250 C   0  0  2  0  0  3  0  0  0  0  0  0
  181.8190  175.3390  135.0600 C   0  0  0  0  0  0  0  0  0  0  0  0
  179.9550  173.8580  135.0080 C   0  0  0  0  0  0  0  0  0  0  0  0
  184.0880  174.5400  135.8660 C   0  0  0  0  0  0  0  0  0  0  0  0
  185.5750  172.6780  137.3500 C   0  0  0  0  0  3  0  0  0  0  0  0
  181.2950  174.0820  135.0650 N   0  0  0  0  0  0  0  0  0  0  0  0
  183.8990  177.2900  136.8300 C   0  0  1  0  0  3  0  0  0  0  0  0
  184.8810  170.9630  135.8490 F   0  0  0  0  0  0  0  0  0  0  0  0
  181.4710  177.8550  134.9960 C   0  0  0  0  0  2  0  0  0  0  0  0
  179.4340  172.4660  135.0310 C   0  0  0  0  0  1  0  0  0  0  0  0
  184.8450  176.3300  137.3870 N   0  0  0  0  0  2  0  0  0  0  0  0
  183.7220  176.9920  135.3280 C   0  0  2  0  0  3  0  0  0  0  0  0
  184.1260  173.1920  135.4810 C   0  0  0  0  0  3  0  0  0  0  0  0
  179.0700  174.9330  134.9240 C   0  0  0  0  0  3  0  0  0  0  0  0
  184.8160  174.9520  137.0040 C   0  0  0  0  0  0  0  0  0  0  0  0
  185.5600  174.0210  137.7330 C   0  0  0  0  0  3  0  0  0  0  0  0
  182.8840  177.9630  134.6130 N   0  0  0  0  0  2  0  0  0  0  0  0
  180.9560  176.4460  134.9410 C   0  0  0  0  0  0  0  0  0  0  0  0
  179.5770  176.2320  134.8940 C   0  0  0  0  0  3  0  0  0  0  0  0
  183.5560  177.4360  139.6730 O   0  0  0  0  0  0  0  0  0  0  0  0
  182.5280  177.2300  138.9720 C   0  0  0  0  0  0  0  0  0  0  0  0
  182.6310  177.1840  137.5450 N   0  0  0  0  0  2  0  0  0  0  0  0
  179.3480  174.9400  139.2740 N   0  0  0  0  0  0  0  0  0  0  0  0
  181.2290  175.8710  140.5660 C   0  0  0  0  0  2  0  0  0  0  0  0
  180.0140  178.4850  138.0710 C   0  0  0  0  0  1  0  0  0  0  0  0
  178.9310  173.7610  138.5370 C   0  0  0  0  0  1  0  0  0  0  0  0
  180.6670  174.6400  139.8440 C   0  0  0  0  0  2  0  0  0  0  0  0
  179.9770  177.2810  138.9980 C   0  0  2  0  0  3  0  0  0  0  0  0
  181.2700  176.9750  139.6170 N   0  0  0  0  0  0  0  0  0  0  0  0
  179.4610  176.0280  138.2980 C   0  0  0  0  0  2  0  0  0  0  0  0
  1  6  1  0  0  0  0
  2  3  1  1  0  0  0
  2 13  1  0  0  0  0
  2  5  1  0  0  0  0
  3  7  1  0  0  0  0
  4 11  1  0  0  0  0
  4  7  2  0  0  0  0
  5 16  2  0  0  0  0
  6 17  2  0  0  0  0
  8 12  1  0  0  0  0
  8 23  1  1  0  0  0
  9  1  1  0  0  0  0
 13 18  1  1  0  0  0
 13  8  1  0  0  0  0
 14  5  1  0  0  0  0
 14  1  2  0  0  0  0
 15  4  1  0  0  0  0
 16 12  1  0  0  0  0
 16 17  1  0  0  0  0
 18 10  1  0  0  0  0
 19 10  1  0  0  0  0
 19  3  2  0  0  0  0
 20 15  2  0  0  0  0
 20 19  1  0  0  0  0
 22 30  1  0  0  0  0
 22 21  2  0  0  0  0
 23 22  1  0  0  0  0
 24 28  1  0  0  0  0
 27 24  1  0  0  0  0
 28 25  1  0  0  0  0
 29 26  1  6  0  0  0
 29 30  1  0  0  0  0
 30 25  1  0  0  0  0
 31 29  1  0  0  0  0
 31 24  1  0  0  0  0
M  END
>  <MODEL>
6

>  <REMARK>
 VINA RESULT:      -2.6      3.027      5.249
  Name = 
  1 active torsions:
  status: ('A' for Active; 'I' for Inactive)
    1  A    between atoms: C_10  and  N_16
                            x       y       z     vdW  Elec       q    Type
                         _______ _______ _______ _____ _____    ______ ____

>  <TORSDO>
F 1

$$$$
=
 OpenBabel11122411043D

 31 35  0  0  1  0  0  0  0  0999 V2000
  179.4370  173.9500  140.1840 C   0  0  0  0  0  0  0  0  0  0  0  0
  178.9780  177.4360  138.7110 C   0  0  2  0  0  3  0  0  0  0  0  0
  179.3510  178.4120  139.8020 C   0  0  0  0  0  0  0  0  0  0  0  0
  179.5950  178.8780  142.1250 C   0  0  0  0  0  0  0  0  0  0  0  0
  179.5050  176.0330  138.9340 C   0  0  0  0  0  0  0  0  0  0  0  0
  180.3940  173.4000  139.3280 C   0  0  0  0  0  3  0  0  0  0  0  0
  179.3530  178.0120  141.1050 N   0  0  0  0  0  0  0  0  0  0  0  0
  180.7610  177.6530  136.8530 C   0  0  1  0  0  3  0  0  0  0  0  0
  178.9360  173.2140  141.2040 F   0  0  0  0  0  0  0  0  0  0  0  0
  179.6270  180.2580  138.0800 C   0  0  0  0  0  2  0  0  0  0  0  0
  179.6010  178.3870  143.5290 C   0  0  0  0  0  1  0  0  0  0  0  0
  180.9750  176.2150  136.9590 N   0  0  0  0  0  2  0  0  0  0  0  0
  179.3220  177.9710  137.3060 C   0  0  2  0  0  3  0  0  0  0  0  0
  178.9870  175.2580  139.9810 C   0  0  0  0  0  3  0  0  0  0  0  0
  179.8340  180.2250  141.8570 C   0  0  0  0  0  3  0  0  0  0  0  0
  180.4720  175.4690  138.0720 C   0  0  0  0  0  0  0  0  0  0  0  0
  180.9040  174.1550  138.2710 C   0  0  0  0  0  3  0  0  0  0  0  0
  178.9310  179.3760  137.1360 N   0  0  0  0  0  2  0  0  0  0  0  0
  179.5540  179.7720  139.4980 C   0  0  0  0  0  0  0  0  0  0  0  0
  179.8170  180.6690  140.5350 C   0  0  0  0  0  3  0  0  0  0  0  0
  183.6070  177.5530  136.5190 O   0  0  0  0  0  0  0  0  0  0  0  0
  183.1560  178.2290  137.4840 C   0  0  0  0  0  0  0  0  0  0  0  0
  181.7440  178.3460  137.6800 N   0  0  0  0  0  2  0  0  0  0  0  0
  184.1840  178.7750  141.2390 N   0  0  0  0  0  0  0  0  0  0  0  0
  185.0120  177.9270  139.0790 C   0  0  0  0  0  2  0  0  0  0  0  0
  182.8350  180.9950  138.4610 C   0  0  0  0  0  1  0  0  0  0  0  0
  183.5680  178.3480  142.4830 C   0  0  0  0  0  1  0  0  0  0  0  0
  184.4440  177.5620  140.4550 C   0  0  0  0  0  2  0  0  0  0  0  0
  183.7550  180.0300  139.1910 C   0  0  2  0  0  3  0  0  0  0  0  0
  184.0690  178.8220  138.4210 N   0  0  0  0  0  0  0  0  0  0  0  0
  183.1990  179.6130  140.5480 C   0  0  0  0  0  2  0  0  0  0  0  0
  1  9  1  0  0  0  0
  2  5  1  1  0  0  0
  2  3  1  0  0  0  0
  3  7  1  0  0  0  0
  4 11  1  0  0  0  0
  5 14  2  0  0  0  0
  6  1  2  0  0  0  0
  7  4  2  0  0  0  0
  8 12  1  0  0  0  0
  8 13  1  0  0  0  0
  8 23  1  1  0  0  0
 10 19  1  0  0  0  0
 12 16  1  0  0  0  0
 13 18  1  1  0  0  0
 13  2  1  0  0  0  0
 14  1  1  0  0  0  0
 15  4  1  0  0  0  0
 16 17  2  0  0  0  0
 16  5  1  0  0  0  0
 17  6  1  0  0  0  0
 18 10  1  0  0  0  0
 19  3  2  0  0  0  0
 19 20  1  0  0  0  0
 20 15  2  0  0  0  0
 21 22  2  0  0  0  0
 22 23  1  0  0  0  0
 22 30  1  0  0  0  0
 24 27  1  0  0  0  0
 25 28  1  0  0  0  0
 28 24  1  0  0  0  0
 29 26  1  6  0  0  0
 29 31  1  0  0  0  0
 30 25  1  0  0  0  0
 30 29  1  0  0  0  0
 31 24  1  0  0  0  0
M  END
>  <MODEL>
7

>  <REMARK>
 VINA RESULT:      -2.6      2.610      5.880
  Name = 
  1 active torsions:
  status: ('A' for Active; 'I' for Inactive)
    1  A    between atoms: C_10  and  N_16
                            x       y       z     vdW  Elec       q    Type
                         _______ _______ _______ _____ _____    ______ ____

>  <TORSDO>
F 1

$$$$
=
 OpenBabel11122411043D

 31 35  0  0  1  0  0  0  0  0999 V2000
  179.6330  178.8110  142.1040 C   0  0  0  0  0  0  0  0  0  0  0  0
  182.8280  178.4300  140.0610 C   0  0  2  0  0  3  0  0  0  0  0  0
  182.6840  177.1440  139.2810 C   0  0  0  0  0  0  0  0  0  0  0  0
  181.6920  174.9900  139.0650 C   0  0  0  0  0  0  0  0  0  0  0  0
  181.5180  178.9850  140.5800 C   0  0  0  0  0  0  0  0  0  0  0  0
  179.1300  180.0240  141.6280 C   0  0  0  0  0  3  0  0  0  0  0  0
  181.7930  176.1960  139.6840 N   0  0  0  0  0  0  0  0  0  0  0  0
  182.8030  180.3670  138.3500 C   0  0  1  0  0  3  0  0  0  0  0  0
  178.9710  178.1360  143.0730 F   0  0  0  0  0  0  0  0  0  0  0  0
  184.5260  177.8810  137.6940 C   0  0  0  0  0  2  0  0  0  0  0  0
  180.6910  173.9960  139.5360 C   0  0  0  0  0  1  0  0  0  0  0  0
  181.7150  180.9630  139.1170 N   0  0  0  0  0  2  0  0  0  0  0  0
  183.6470  179.4890  139.2950 C   0  0  2  0  0  3  0  0  0  0  0  0
  180.8280  178.3000  141.5890 C   0  0  0  0  0  3  0  0  0  0  0  0
  182.5280  174.6820  137.9930 C   0  0  0  0  0  3  0  0  0  0  0  0
  181.0020  180.2110  140.1040 C   0  0  0  0  0  0  0  0  0  0  0  0
  179.8170  180.7250  140.6350 C   0  0  0  0  0  3  0  0  0  0  0  0
  184.8520  178.9200  138.6780 N   0  0  0  0  0  2  0  0  0  0  0  0
  183.5680  176.8540  138.2230 C   0  0  0  0  0  0  0  0  0  0  0  0
  183.4670  175.6240  137.5700 C   0  0  0  0  0  3  0  0  0  0  0  0
  180.7410  181.2240  136.5510 O   0  0  0  0  0  0  0  0  0  0  0  0
  181.1880  180.0530  136.4100 C   0  0  0  0  0  0  0  0  0  0  0  0
  182.2420  179.5810  137.2550 N   0  0  0  0  0  2  0  0  0  0  0  0
  179.6170  176.5330  135.6360 N   0  0  0  0  0  0  0  0  0  0  0  0
  179.1500  178.9520  135.5640 C   0  0  0  0  0  2  0  0  0  0  0  0
  182.7920  178.3550  134.6070 C   0  0  0  0  0  1  0  0  0  0  0  0
  179.4370  175.3520  136.4600 C   0  0  0  0  0  1  0  0  0  0  0  0
  178.9320  177.6370  136.3210 C   0  0  0  0  0  2  0  0  0  0  0  0
  181.3100  178.0770  134.7990 C   0  0  2  0  0  3  0  0  0  0  0  0
  180.5860  179.1760  135.4450 N   0  0  0  0  0  0  0  0  0  0  0  0
  181.0580  176.7950  135.5850 C   0  0  0  0  0  2  0  0  0  0  0  0
  1  9  1  0  0  0  0
  2  3  1  6  0  0  0
  2  5  1  0  0  0  0
  3  7  1  0  0  0  0
  4 11  1  0  0  0  0
  4  7  2  0  0  0  0
  5 14  1  0  0  0  0
  6  1  1  0  0  0  0
  8 23  1  6  0  0  0
  8 12  1  0  0  0  0
  8 13  1  0  0  0  0
 10 19  1  0  0  0  0
 10 18  1  0  0  0  0
 12 16  1  0  0  0  0
 13 18  1  6  0  0  0
 13  2  1  0  0  0  0
 14  1  2  0  0  0  0
 15  4  1  0  0  0  0
 16  5  2  0  0  0  0
 16 17  1  0  0  0  0
 17  6  2  0  0  0  0
 19  3  2  0  0  0  0
 20 15  2  0  0  0  0
 20 19  1  0  0  0  0
 22 21  2  0  0  0  0
 22 23  1  0  0  0  0
 24 28  1  0  0  0  0
 24 27  1  0  0  0  0
 25 28  1  0  0  0  0
 29 26  1  1  0  0  0
 29 30  1  0  0  0  0
 29 31  1  0  0  0  0
 30 25  1  0  0  0  0
 30 22  1  0  0  0  0
 31 24  1  0  0  0  0
M  END
>  <MODEL>
8

>  <REMARK>
 VINA RESULT:      -2.3      2.476      4.202
  Name = 
  1 active torsions:
  status: ('A' for Active; 'I' for Inactive)
    1  A    between atoms: C_10  and  N_16
                            x       y       z     vdW  Elec       q    Type
                         _______ _______ _______ _____ _____    ______ ____

>  <TORSDO>
F 1

$$$$
=
 OpenBabel11122411043D

 31 35  0  0  1  0  0  0  0  0999 V2000
  181.2380  182.0910  135.4440 C   0  0  0  0  0  0  0  0  0  0  0  0
  180.1620  178.4400  135.6490 C   0  0  2  0  0  3  0  0  0  0  0  0
  181.4320  177.6210  135.6540 C   0  0  0  0  0  0  0  0  0  0  0  0
  183.7390  177.4330  135.0940 C   0  0  0  0  0  0  0  0  0  0  0  0
  180.3670  179.8950  136.0150 C   0  0  0  0  0  0  0  0  0  0  0  0
  180.6950  182.6180  136.6180 C   0  0  0  0  0  3  0  0  0  0  0  0
  182.5940  178.1600  135.1890 N   0  0  0  0  0  0  0  0  0  0  0  0
  179.0660  178.1610  137.9720 C   0  0  1  0  0  3  0  0  0  0  0  0
  181.9220  182.8920  134.5940 F   0  0  0  0  0  0  0  0  0  0  0  0
  180.1610  175.6250  136.5770 C   0  0  0  0  0  2  0  0  0  0  0  0
  184.9840  178.0730  134.5940 C   0  0  0  0  0  1  0  0  0  0  0  0
  179.0510  179.6150  138.0850 N   0  0  0  0  0  2  0  0  0  0  0  0
  179.0400  177.7830  136.4780 C   0  0  2  0  0  3  0  0  0  0  0  0
  181.0650  180.7380  135.1390 C   0  0  0  0  0  3  0  0  0  0  0  0
  183.7450  176.0870  135.4590 C   0  0  0  0  0  3  0  0  0  0  0  0
  179.8200  180.4360  137.2000 C   0  0  0  0  0  0  0  0  0  0  0  0
  179.9820  181.7930  137.4900 C   0  0  0  0  0  3  0  0  0  0  0  0
  178.9310  176.3420  136.2200 N   0  0  0  0  0  2  0  0  0  0  0  0
  181.3940  176.2560  135.9990 C   0  0  0  0  0  0  0  0  0  0  0  0
  182.5650  175.5010  135.9170 C   0  0  0  0  0  3  0  0  0  0  0  0
  179.7370  178.4930  140.7400 O   0  0  0  0  0  0  0  0  0  0  0  0
  180.5570  177.8700  140.0120 C   0  0  0  0  0  0  0  0  0  0  0  0
  180.2600  177.6410  138.6310 N   0  0  0  0  0  2  0  0  0  0  0  0
  184.4710  177.7710  139.6590 N   0  0  0  0  0  0  0  0  0  0  0  0
  182.6510  178.4900  141.1570 C   0  0  0  0  0  2  0  0  0  0  0  0
  181.6840  175.1890  139.5130 C   0  0  0  0  0  1  0  0  0  0  0  0
  185.3610  178.2530  138.6180 C   0  0  0  0  0  1  0  0  0  0  0  0
  183.6890  178.9260  140.1160 C   0  0  0  0  0  2  0  0  0  0  0  0
  182.5680  176.2990  140.0580 C   0  0  2  0  0  3  0  0  0  0  0  0
  181.8170  177.4540  140.5610 N   0  0  0  0  0  0  0  0  0  0  0  0
  183.5850  176.7850  139.0330 C   0  0  0  0  0  2  0  0  0  0  0  0
  1  6  1  0  0  0  0
  2  3  1  1  0  0  0
  2  5  1  0  0  0  0
  2 13  1  0  0  0  0
  3 19  1  0  0  0  0
  4  7  1  0  0  0  0
  4 15  2  0  0  0  0
  5 16  2  0  0  0  0
  6 17  2  0  0  0  0
  7  3  2  0  0  0  0
  8 12  1  0  0  0  0
  8 23  1  6  0  0  0
  9  1  1  0  0  0  0
 11  4  1  0  0  0  0
 13 18  1  1  0  0  0
 13  8  1  0  0  0  0
 14  1  2  0  0  0  0
 14  5  1  0  0  0  0
 15 20  1  0  0  0  0
 16 17  1  0  0  0  0
 16 12  1  0  0  0  0
 18 10  1  0  0  0  0
 19 10  1  0  0  0  0
 20 19  2  0  0  0  0
 22 30  1  0  0  0  0
 22 21  2  0  0  0  0
 23 22  1  0  0  0  0
 24 28  1  0  0  0  0
 27 24  1  0  0  0  0
 28 25  1  0  0  0  0
 29 26  1  6  0  0  0
 29 30  1  0  0  0  0
 30 25  1  0  0  0  0
 31 24  1  0  0  0  0
 31 29  1  0  0  0  0
M  END
>  <MODEL>
9

>  <REMARK>
 VINA RESULT:      -1.9      2.570      4.788
  Name = 
  1 active torsions:
  status: ('A' for Active; 'I' for Inactive)
    1  A    between atoms: C_10  and  N_16
                            x       y       z     vdW  Elec       q    Type
                         _______ _______ _______ _____ _____    ______ ____

>  <TORSDO>
F 1

$$$$
