=
 OpenBabel11122410473D

 32 38  0  0  1  0  0  0  0  0999 V2000
  187.6680  178.7220  136.9630 C   0  0  1  0  0  3  0  0  0  0  0  0
  187.4890  177.9470  142.1780 C   0  0  0  0  0  0  0  0  0  0  0  0
  182.9030  179.1900  143.2080 C   0  0  0  0  0  3  0  0  0  0  0  0
  183.1450  178.9690  144.6440 C   0  0  0  0  0  3  0  0  0  0  0  0
  189.1230  177.4280  144.0080 C   0  0  0  0  0  0  0  0  0  0  0  0
  189.3360  177.3970  145.4500 C   0  0  0  0  0  0  0  0  0  0  0  0
  188.1520  177.7090  139.7600 C   0  0  1  0  0  3  0  0  0  0  0  0
  185.7890  178.1550  140.3080 C   0  0  0  0  0  2  0  0  0  0  0  0
  188.8840  177.5890  147.5770 N   0  0  0  0  0  0  0  0  0  0  0  0
  186.5090  178.5820  137.9490 C   0  0  2  0  0  3  0  0  0  0  0  0
  183.7840  178.7830  142.2910 C   0  0  0  0  0  3  0  0  0  0  0  0
  186.1270  178.2030  141.7380 N   0  0  0  0  0  0  0  0  0  0  0  0
  185.0130  177.9840  142.6690 C   0  0  1  0  0  3  0  0  0  0  0  0
  186.6740  178.0220  144.5150 C   0  0  0  0  0  0  0  0  0  0  0  0
  190.1620  177.1890  147.4030 C   0  0  0  0  0  3  0  0  0  0  0  0
  189.0490  178.8470  137.6410 C   0  0  0  0  0  2  0  0  0  0  0  0
  186.9460  178.5900  139.4280 C   0  0  2  0  0  3  0  0  0  0  0  0
  190.4740  177.0580  146.0890 N   0  0  0  0  0  0  0  0  0  0  0  0
  189.3210  177.8600  138.7840 C   0  0  0  0  0  2  0  0  0  0  0  0
  186.9930  177.3710  137.1590 C   0  0  1  0  0  3  0  0  0  0  0  0
  184.3240  178.5180  145.0760 C   0  0  0  0  0  3  0  0  0  0  0  0
  185.4050  178.2030  144.1120 C   0  0  0  0  0  0  0  0  0  0  0  0
  187.0010  178.2000  145.9910 C   0  0  0  0  0  2  0  0  0  0  0  0
  188.6130  178.0200  141.1710 C   0  0  0  0  0  2  0  0  0  0  0  0
  190.0700  177.1060  143.2400 O   0  0  0  0  0  0  0  0  0  0  0  0
  188.2270  177.8470  148.8460 C   0  0  0  0  0  1  0  0  0  0  0  0
  187.7610  177.7930  143.5000 C   0  0  0  0  0  0  0  0  0  0  0  0
  188.3660  177.7100  146.3480 C   0  0  0  0  0  0  0  0  0  0  0  0
  186.1180  177.1330  136.0970 O   0  0  0  0  0  0  0  0  0  0  0  0
  185.8060  175.7750  136.1880 C   0  0  0  0  0  3  0  0  0  0  0  0
  184.5500  175.5990  137.0180 C   0  0  0  0  0  1  0  0  0  0  0  0
  186.9510  175.0350  136.8500 C   0  0  0  0  0  1  0  0  0  0  0  0
  1 20  1  0  0  0  0
  1 16  1  1  0  0  0
  1 10  1  0  0  0  0
  2 27  2  0  0  0  0
  3  4  1  0  0  0  0
  4 21  2  0  0  0  0
  5  6  1  0  0  0  0
  6 18  1  0  0  0  0
  6 28  2  0  0  0  0
  7 19  1  6  0  0  0
  7 24  1  0  0  0  0
  8 12  1  0  0  0  0
  9 26  1  0  0  0  0
 10 17  1  0  0  0  0
 11 13  1  0  0  0  0
 11  3  2  0  0  0  0
 12  2  1  0  0  0  0
 12 13  1  0  0  0  0
 13 22  1  0  0  0  0
 14 23  1  0  0  0  0
 15  9  1  0  0  0  0
 16 19  1  0  0  0  0
 17  7  1  0  0  0  0
 17  8  1  0  0  0  0
 18 15  2  0  0  0  0
 20 10  1  0  0  0  0
 22 14  2  0  0  0  0
 22 21  1  0  0  0  0
 23 28  1  0  0  0  0
 24  2  1  0  0  0  0
 25  5  2  0  0  0  0
 27  5  1  0  0  0  0
 27 14  1  0  0  0  0
 28  9  1  0  0  0  0
 29 30  1  0  0  0  0
 29 20  1  0  0  0  0
 30 32  1  0  0  0  0
 30 31  1  0  0  0  0
M  END
>  <MODEL>
1

>  <REMARK>
 VINA RESULT:      -9.9      0.000      0.000
  Name = 
  2 active torsions:
  status: ('A' for Active; 'I' for Inactive)
    1  A    between atoms: C_20  and  O_29
    2  A    between atoms: O_29  and  C_30
                            x       y       z     vdW  Elec       q    Type
                         _______ _______ _______ _____ _____    ______ ____

>  <TORSDO>
F 2

$$$$
=
 OpenBabel11122410473D

 32 38  0  0  1  0  0  0  0  0999 V2000
  181.8380  178.6160  139.6090 C   0  0  1  0  0  3  0  0  0  0  0  0
  186.0380  178.2350  142.7780 C   0  0  0  0  0  0  0  0  0  0  0  0
  189.6230  177.4690  139.5850 C   0  0  0  0  0  3  0  0  0  0  0  0
  190.5970  177.3300  140.6820 C   0  0  0  0  0  3  0  0  0  0  0  0
  186.4620  178.0950  145.2460 C   0  0  0  0  0  0  0  0  0  0  0  0
  187.4420  177.7750  146.2770 C   0  0  0  0  0  0  0  0  0  0  0  0
  183.7740  178.9040  141.9010 C   0  0  1  0  0  3  0  0  0  0  0  0
  185.6510  178.6930  140.3150 C   0  0  0  0  0  2  0  0  0  0  0  0
  189.3520  177.1840  147.1530 N   0  0  0  0  0  0  0  0  0  0  0  0
  183.3420  178.7010  139.3490 C   0  0  2  0  0  3  0  0  0  0  0  0
  188.3930  177.9380  139.8120 C   0  0  0  0  0  3  0  0  0  0  0  0
  186.5370  178.2820  141.4140 N   0  0  0  0  0  0  0  0  0  0  0  0
  187.9760  178.4470  141.1750 C   0  0  1  0  0  3  0  0  0  0  0  0
  188.3490  177.7630  143.5330 C   0  0  0  0  0  0  0  0  0  0  0  0
  188.4450  177.4240  148.1240 C   0  0  0  0  0  3  0  0  0  0  0  0
  181.4790  178.1460  141.0350 C   0  0  0  0  0  2  0  0  0  0  0  0
  184.2060  178.3020  140.5620 C   0  0  2  0  0  3  0  0  0  0  0  0
  187.2450  177.7960  147.6110 N   0  0  0  0  0  0  0  0  0  0  0  0
  182.2710  178.8060  142.1710 C   0  0  0  0  0  2  0  0  0  0  0  0
  182.5270  179.9730  139.5500 C   0  0  1  0  0  3  0  0  0  0  0  0
  190.2230  177.4990  141.9520 C   0  0  0  0  0  3  0  0  0  0  0  0
  188.8240  177.8610  142.2800 C   0  0  0  0  0  0  0  0  0  0  0  0
  189.2660  177.2180  144.6170 C   0  0  0  0  0  2  0  0  0  0  0  0
  184.5460  178.2250  143.0160 C   0  0  0  0  0  2  0  0  0  0  0  0
  185.2990  178.4390  145.5910 O   0  0  0  0  0  0  0  0  0  0  0  0
  190.7240  176.7490  147.3440 C   0  0  0  0  0  1  0  0  0  0  0  0
  186.8980  178.0520  143.8130 C   0  0  0  0  0  0  0  0  0  0  0  0
  188.7210  177.4140  145.9940 C   0  0  0  0  0  0  0  0  0  0  0  0
  182.2800  180.5640  138.3100 O   0  0  0  0  0  0  0  0  0  0  0  0
  180.8890  180.5690  138.1860 C   0  0  0  0  0  3  0  0  0  0  0  0
  180.5120  180.4580  136.7230 C   0  0  0  0  0  1  0  0  0  0  0  0
  180.3350  181.8610  138.7490 C   0  0  0  0  0  1  0  0  0  0  0  0
  1 16  1  1  0  0  0
  2 24  1  0  0  0  0
  2 27  2  0  0  0  0
  3 11  2  0  0  0  0
  3  4  1  0  0  0  0
  4 21  2  0  0  0  0
  5 25  2  0  0  0  0
  5  6  1  0  0  0  0
  6 18  1  0  0  0  0
  7 19  1  1  0  0  0
  7 24  1  0  0  0  0
  8 17  1  0  0  0  0
  8 12  1  0  0  0  0
  9 26  1  0  0  0  0
  9 15  1  0  0  0  0
 10 20  1  0  0  0  0
 10  1  1  0  0  0  0
 10 17  1  0  0  0  0
 11 13  1  0  0  0  0
 12  2  1  0  0  0  0
 13 12  1  0  0  0  0
 13 22  1  0  0  0  0
 14 27  1  0  0  0  0
 14 23  1  0  0  0  0
 16 19  1  0  0  0  0
 17  7  1  0  0  0  0
 18 15  2  0  0  0  0
 20  1  1  0  0  0  0
 21 22  1  0  0  0  0
 22 14  2  0  0  0  0
 23 28  1  0  0  0  0
 27  5  1  0  0  0  0
 28  6  2  0  0  0  0
 28  9  1  0  0  0  0
 29 20  1  0  0  0  0
 30 29  1  0  0  0  0
 30 32  1  0  0  0  0
 31 30  1  0  0  0  0
M  END
>  <MODEL>
2

>  <REMARK>
 VINA RESULT:      -9.9      2.647      5.029
  Name = 
  2 active torsions:
  status: ('A' for Active; 'I' for Inactive)
    1  A    between atoms: C_20  and  O_29
    2  A    between atoms: O_29  and  C_30
                            x       y       z     vdW  Elec       q    Type
                         _______ _______ _______ _____ _____    ______ ____

>  <TORSDO>
F 2

$$$$
=
 OpenBabel11122410473D

 32 38  0  0  1  0  0  0  0  0999 V2000
  180.0380  178.7220  141.2810 C   0  0  1  0  0  3  0  0  0  0  0  0
  184.8500  178.4710  143.4270 C   0  0  0  0  0  0  0  0  0  0  0  0
  187.6590  177.9000  139.5010 C   0  0  0  0  0  3  0  0  0  0  0  0
  188.8570  177.7870  140.3500 C   0  0  0  0  0  3  0  0  0  0  0  0
  185.8180  178.3130  145.7360 C   0  0  0  0  0  0  0  0  0  0  0  0
  187.0150  178.0190  146.5150 C   0  0  0  0  0  0  0  0  0  0  0  0
  182.4240  179.0570  143.0910 C   0  0  1  0  0  3  0  0  0  0  0  0
  183.9060  178.9480  141.1230 C   0  0  0  0  0  2  0  0  0  0  0  0
  189.0930  177.4960  146.9310 N   0  0  0  0  0  0  0  0  0  0  0  0
  181.4410  178.8730  140.6950 C   0  0  2  0  0  3  0  0  0  0  0  0
  186.4940  178.3150  140.0060 C   0  0  0  0  0  3  0  0  0  0  0  0
  185.0300  178.5580  141.9880 N   0  0  0  0  0  0  0  0  0  0  0  0
  186.3720  178.7860  141.4390 C   0  0  1  0  0  3  0  0  0  0  0  0
  187.2870  178.0850  143.6380 C   0  0  0  0  0  0  0  0  0  0  0  0
  188.4170  177.6840  148.0840 C   0  0  0  0  0  3  0  0  0  0  0  0
  180.0240  178.2170  142.7390 C   0  0  0  0  0  2  0  0  0  0  0  0
  182.5690  178.4930  141.6760 C   0  0  2  0  0  3  0  0  0  0  0  0
  187.1200  178.0130  147.8590 N   0  0  0  0  0  0  0  0  0  0  0  0
  181.0240  178.8930  143.6860 C   0  0  0  0  0  2  0  0  0  0  0  0
  180.6450  180.1080  141.1020 C   0  0  1  0  0  3  0  0  0  0  0  0
  188.7700  177.9220  141.6750 C   0  0  0  0  0  3  0  0  0  0  0  0
  187.4670  178.2200  142.3140 C   0  0  0  0  0  0  0  0  0  0  0  0
  188.4430  177.5620  144.4790 C   0  0  0  0  0  2  0  0  0  0  0  0
  183.4500  178.3950  143.9910 C   0  0  0  0  0  2  0  0  0  0  0  0
  184.7490  178.6030  146.3380 O   0  0  0  0  0  0  0  0  0  0  0  0
  190.4880  177.1150  146.8020 C   0  0  0  0  0  1  0  0  0  0  0  0
  185.9260  178.3090  144.2410 C   0  0  0  0  0  0  0  0  0  0  0  0
  188.2120  177.7160  145.9470 C   0  0  0  0  0  0  0  0  0  0  0  0
  180.1060  180.7050  139.9610 O   0  0  0  0  0  0  0  0  0  0  0  0
  180.9820  180.3620  138.9290 C   0  0  0  0  0  3  0  0  0  0  0  0
  181.8430  181.5580  138.5780 C   0  0  0  0  0  1  0  0  0  0  0  0
  180.1880  179.9420  137.7090 C   0  0  0  0  0  1  0  0  0  0  0  0
  1 16  1  1  0  0  0
  2 24  1  0  0  0  0
  2 27  2  0  0  0  0
  3 11  2  0  0  0  0
  3  4  1  0  0  0  0
  4 21  2  0  0  0  0
  5 25  2  0  0  0  0
  5  6  1  0  0  0  0
  6 18  1  0  0  0  0
  7 19  1  1  0  0  0
  7 24  1  0  0  0  0
  8 17  1  0  0  0  0
  8 12  1  0  0  0  0
  9 15  1  0  0  0  0
 10 20  1  0  0  0  0
 10  1  1  0  0  0  0
 10 17  1  0  0  0  0
 11 13  1  0  0  0  0
 12  2  1  0  0  0  0
 13 12  1  0  0  0  0
 13 22  1  0  0  0  0
 14 27  1  0  0  0  0
 14 23  1  0  0  0  0
 16 19  1  0  0  0  0
 17  7  1  0  0  0  0
 18 15  2  0  0  0  0
 20  1  1  0  0  0  0
 21 22  1  0  0  0  0
 22 14  2  0  0  0  0
 23 28  1  0  0  0  0
 26  9  1  0  0  0  0
 27  5  1  0  0  0  0
 28  6  2  0  0  0  0
 28  9  1  0  0  0  0
 29 20  1  0  0  0  0
 30 29  1  0  0  0  0
 31 30  1  0  0  0  0
 32 30  1  0  0  0  0
M  END
>  <MODEL>
3

>  <REMARK>
 VINA RESULT:      -9.7      2.790      5.518
  Name = 
  2 active torsions:
  status: ('A' for Active; 'I' for Inactive)
    1  A    between atoms: C_20  and  O_29
    2  A    between atoms: O_29  and  C_30
                            x       y       z     vdW  Elec       q    Type
                         _______ _______ _______ _____ _____    ______ ____

>  <TORSDO>
F 2

$$$$
=
 OpenBabel11122410473D

 32 38  0  0  1  0  0  0  0  0999 V2000
  189.4300  177.7790  147.8870 C   0  0  1  0  0  3  0  0  0  0  0  0
  186.5010  178.0920  143.5110 C   0  0  0  0  0  0  0  0  0  0  0  0
  189.9000  178.0500  140.0370 C   0  0  0  0  0  3  0  0  0  0  0  0
  188.8700  178.2180  138.9980 C   0  0  0  0  0  3  0  0  0  0  0  0
  184.0900  178.4960  142.9480 C   0  0  0  0  0  0  0  0  0  0  0  0
  183.1480  178.8340  141.8870 C   0  0  0  0  0  0  0  0  0  0  0  0
  187.1950  177.5710  145.8750 C   0  0  1  0  0  3  0  0  0  0  0  0
  188.8660  177.3720  144.0720 C   0  0  0  0  0  2  0  0  0  0  0  0
  182.4310  179.3160  139.8830 N   0  0  0  0  0  0  0  0  0  0  0  0
  189.7340  177.4970  146.4160 C   0  0  2  0  0  3  0  0  0  0  0  0
  189.5670  177.7510  141.2950 C   0  0  0  0  0  3  0  0  0  0  0  0
  187.8650  177.8190  143.0920 N   0  0  0  0  0  0  0  0  0  0  0  0
  188.1350  177.4680  141.6920 C   0  0  1  0  0  3  0  0  0  0  0  0
  185.9030  178.3990  141.1270 C   0  0  0  0  0  0  0  0  0  0  0  0
  181.4030  179.3020  140.7590 C   0  0  0  0  0  3  0  0  0  0  0  0
  188.0650  178.4620  148.1200 C   0  0  0  0  0  2  0  0  0  0  0  0
  188.6170  177.9480  145.4530 C   0  0  2  0  0  3  0  0  0  0  0  0
  181.8170  179.0030  142.0160 N   0  0  0  0  0  0  0  0  0  0  0  0
  186.8830  177.8680  147.3440 C   0  0  0  0  0  2  0  0  0  0  0  0
  189.3360  176.3570  147.3470 C   0  0  1  0  0  3  0  0  0  0  0  0
  187.5750  178.2530  139.3210 C   0  0  0  0  0  3  0  0  0  0  0  0
  187.1490  178.0920  140.7310 C   0  0  0  0  0  0  0  0  0  0  0  0
  184.9350  178.9730  140.1030 C   0  0  0  0  0  2  0  0  0  0  0  0
  186.2090  178.2960  144.9800 C   0  0  0  0  0  2  0  0  0  0  0  0
  183.6590  178.3280  144.1210 O   0  0  0  0  0  0  0  0  0  0  0  0
  182.3510  179.6190  138.4650 C   0  0  0  0  0  1  0  0  0  0  0  0
  185.5320  178.3090  142.5840 C   0  0  0  0  0  0  0  0  0  0  0  0
  183.5240  179.0130  140.5940 C   0  0  0  0  0  0  0  0  0  0  0  0
  190.4790  175.6450  147.7180 O   0  0  0  0  0  0  0  0  0  0  0  0
  191.5470  176.4300  147.2800 C   0  0  0  0  0  3  0  0  0  0  0  0
  192.0550  175.8970  145.9550 C   0  0  0  0  0  1  0  0  0  0  0  0
  192.6660  176.3790  148.3010 C   0  0  0  0  0  1  0  0  0  0  0  0
  1 16  1  6  0  0  0
  2 24  1  0  0  0  0
  3 11  2  0  0  0  0
  4 21  2  0  0  0  0
  4  3  1  0  0  0  0
  5 25  2  0  0  0  0
  6 18  1  0  0  0  0
  6  5  1  0  0  0  0
  7 24  1  6  0  0  0
  7 19  1  0  0  0  0
  8 17  1  0  0  0  0
  9 28  1  0  0  0  0
  9 15  1  0  0  0  0
 10 20  1  0  0  0  0
 10  1  1  0  0  0  0
 11 13  1  0  0  0  0
 12  2  1  0  0  0  0
 12  8  1  0  0  0  0
 13 12  1  0  0  0  0
 14 27  1  0  0  0  0
 15 18  2  0  0  0  0
 17  7  1  0  0  0  0
 17 10  1  0  0  0  0
 19 16  1  0  0  0  0
 20 29  1  0  0  0  0
 20  1  1  0  0  0  0
 21 22  1  0  0  0  0
 22 14  2  0  0  0  0
 22 13  1  0  0  0  0
 23 28  1  0  0  0  0
 23 14  1  0  0  0  0
 26  9  1  0  0  0  0
 27  5  1  0  0  0  0
 27  2  2  0  0  0  0
 28  6  2  0  0  0  0
 30 29  1  0  0  0  0
 30 32  1  0  0  0  0
 31 30  1  0  0  0  0
M  END
>  <MODEL>
4

>  <REMARK>
 VINA RESULT:      -9.1      2.700      8.277
  Name = 
  2 active torsions:
  status: ('A' for Active; 'I' for Inactive)
    1  A    between atoms: C_20  and  O_29
    2  A    between atoms: O_29  and  C_30
                            x       y       z     vdW  Elec       q    Type
                         _______ _______ _______ _____ _____    ______ ____

>  <TORSDO>
F 2

$$$$
=
 OpenBabel11122410473D

 32 38  0  0  1  0  0  0  0  0999 V2000
  181.2190  179.7150  139.5960 C   0  0  1  0  0  3  0  0  0  0  0  0
  185.7740  178.3440  141.8760 C   0  0  0  0  0  0  0  0  0  0  0  0
  184.6450  178.6270  146.5960 C   0  0  0  0  0  3  0  0  0  0  0  0
  186.0310  178.2930  146.9680 C   0  0  0  0  0  3  0  0  0  0  0  0
  188.1350  177.9250  141.1410 C   0  0  0  0  0  0  0  0  0  0  0  0
  189.5170  177.7730  141.5800 C   0  0  0  0  0  0  0  0  0  0  0  0
  183.9130  178.4990  140.1870 C   0  0  1  0  0  3  0  0  0  0  0  0
  183.3430  178.4520  142.5860 C   0  0  0  0  0  2  0  0  0  0  0  0
  191.2130  177.6420  142.9470 N   0  0  0  0  0  0  0  0  0  0  0  0
  181.5710  179.2610  141.0120 C   0  0  2  0  0  3  0  0  0  0  0  0
  184.2170  178.4870  145.3390 C   0  0  0  0  0  3  0  0  0  0  0  0
  184.7720  178.4000  142.9270 N   0  0  0  0  0  0  0  0  0  0  0  0
  185.0950  177.8840  144.2630 C   0  0  1  0  0  3  0  0  0  0  0  0
  187.4920  178.0120  143.6290 C   0  0  0  0  0  0  0  0  0  0  0  0
  191.6280  177.4990  141.6700 C   0  0  0  0  0  3  0  0  0  0  0  0
  182.4500  180.0080  138.7130 C   0  0  0  0  0  2  0  0  0  0  0  0
  183.0890  179.1820  141.2800 C   0  0  2  0  0  3  0  0  0  0  0  0
  190.5950  177.5730  140.7940 N   0  0  0  0  0  0  0  0  0  0  0  0
  183.5730  178.9650  138.7690 C   0  0  0  0  0  2  0  0  0  0  0  0
  181.0630  178.2510  139.9890 C   0  0  1  0  0  3  0  0  0  0  0  0
  186.9410  178.0150  146.0320 C   0  0  0  0  0  3  0  0  0  0  0  0
  186.5630  178.0070  144.5990 C   0  0  0  0  0  0  0  0  0  0  0  0
  188.9590  178.0800  144.0270 C   0  0  0  0  0  2  0  0  0  0  0  0
  185.3850  178.7290  140.4670 C   0  0  0  0  0  2  0  0  0  0  0  0
  187.8720  177.8650  139.9090 O   0  0  0  0  0  0  0  0  0  0  0  0
  192.0530  177.6360  144.1320 C   0  0  0  0  0  1  0  0  0  0  0  0
  187.0730  178.0950  142.1850 C   0  0  0  0  0  0  0  0  0  0  0  0
  189.8860  177.8050  142.8870 C   0  0  0  0  0  0  0  0  0  0  0  0
  179.7160  177.9810  140.2390 O   0  0  0  0  0  0  0  0  0  0  0  0
  179.4950  176.7190  139.6840 C   0  0  0  0  0  3  0  0  0  0  0  0
  180.7430  175.8730  139.8380 C   0  0  0  0  0  1  0  0  0  0  0  0
  179.1670  176.8640  138.2120 C   0  0  0  0  0  1  0  0  0  0  0  0
  1 16  1  6  0  0  0
  1 20  1  0  0  0  0
  1 10  1  0  0  0  0
  2 27  2  0  0  0  0
  2 12  1  0  0  0  0
  3  4  1  0  0  0  0
  5  6  1  0  0  0  0
  5 27  1  0  0  0  0
  6 28  2  0  0  0  0
  7 19  1  6  0  0  0
  7 24  1  0  0  0  0
  7 17  1  0  0  0  0
  8 12  1  0  0  0  0
  9 26  1  0  0  0  0
 10 17  1  0  0  0  0
 11  3  2  0  0  0  0
 12 13  1  0  0  0  0
 13 22  1  0  0  0  0
 13 11  1  0  0  0  0
 14 23  1  0  0  0  0
 14 22  2  0  0  0  0
 15  9  1  0  0  0  0
 16 19  1  0  0  0  0
 17  8  1  0  0  0  0
 18  6  1  0  0  0  0
 18 15  2  0  0  0  0
 20 29  1  0  0  0  0
 20 10  1  0  0  0  0
 21  4  2  0  0  0  0
 22 21  1  0  0  0  0
 24  2  1  0  0  0  0
 25  5  2  0  0  0  0
 27 14  1  0  0  0  0
 28  9  1  0  0  0  0
 28 23  1  0  0  0  0
 30 31  1  0  0  0  0
 30 29  1  0  0  0  0
 32 30  1  0  0  0  0
M  END
>  <MODEL>
5

>  <REMARK>
 VINA RESULT:      -8.6      2.997      4.742
  Name = 
  2 active torsions:
  status: ('A' for Active; 'I' for Inactive)
    1  A    between atoms: C_20  and  O_29
    2  A    between atoms: O_29  and  C_30
                            x       y       z     vdW  Elec       q    Type
                         _______ _______ _______ _____ _____    ______ ____

>  <TORSDO>
F 2

$$$$
=
 OpenBabel11122410473D

 32 38  0  0  1  0  0  0  0  0999 V2000
  191.9400  175.6130  137.0830 C   0  0  1  0  0  3  0  0  0  0  0  0
  188.9180  177.4370  141.0030 C   0  0  0  0  0  0  0  0  0  0  0  0
  191.5600  176.2760  144.9150 C   0  0  0  0  0  3  0  0  0  0  0  0
  190.5070  176.7960  145.8050 C   0  0  0  0  0  3  0  0  0  0  0  0
  186.6040  178.3760  141.2450 C   0  0  0  0  0  0  0  0  0  0  0  0
  185.5400  178.7100  142.1830 C   0  0  0  0  0  0  0  0  0  0  0  0
  189.9720  177.1950  138.7290 C   0  0  1  0  0  3  0  0  0  0  0  0
  191.3540  176.7910  140.7310 C   0  0  0  0  0  2  0  0  0  0  0  0
  184.5140  178.9440  144.0960 N   0  0  0  0  0  0  0  0  0  0  0  0
  192.2240  175.9140  138.5540 C   0  0  2  0  0  3  0  0  0  0  0  0
  191.5310  176.5170  143.6010 C   0  0  0  0  0  3  0  0  0  0  0  0
  190.1890  177.0500  141.5900 N   0  0  0  0  0  0  0  0  0  0  0  0
  190.4850  177.4170  142.9800 C   0  0  1  0  0  3  0  0  0  0  0  0
  188.0540  177.8160  143.2930 C   0  0  0  0  0  0  0  0  0  0  0  0
  183.7150  179.3430  143.0830 C   0  0  0  0  0  3  0  0  0  0  0  0
  190.4430  175.6770  136.7130 C   0  0  0  0  0  2  0  0  0  0  0  0
  190.9590  176.2240  139.3810 C   0  0  2  0  0  3  0  0  0  0  0  0
  184.3260  179.2120  141.8790 N   0  0  0  0  0  0  0  0  0  0  0  0
  189.6740  176.8860  137.2600 C   0  0  0  0  0  2  0  0  0  0  0  0
  192.5450  176.9520  137.4850 C   0  0  1  0  0  3  0  0  0  0  0  0
  189.4100  177.3660  145.3030 C   0  0  0  0  0  3  0  0  0  0  0  0
  189.2440  177.5130  143.8380 C   0  0  0  0  0  0  0  0  0  0  0  0
  186.8490  177.9560  144.2110 C   0  0  0  0  0  2  0  0  0  0  0  0
  188.6840  177.1960  139.5290 C   0  0  0  0  0  2  0  0  0  0  0  0
  186.4180  178.5650  140.0120 O   0  0  0  0  0  0  0  0  0  0  0  0
  184.1750  178.9290  145.5080 C   0  0  0  0  0  1  0  0  0  0  0  0
  187.9030  177.8680  141.7960 C   0  0  0  0  0  0  0  0  0  0  0  0
  185.6630  178.5550  143.5270 C   0  0  0  0  0  0  0  0  0  0  0  0
  193.9170  176.9370  137.2250 O   0  0  0  0  0  0  0  0  0  0  0  0
  194.0740  176.0170  136.1870 C   0  0  0  0  0  3  0  0  0  0  0  0
  195.2160  175.0770  136.5120 C   0  0  0  0  0  1  0  0  0  0  0  0
  194.3840  176.7540  134.9000 C   0  0  0  0  0  1  0  0  0  0  0  0
  1 16  1  1  0  0  0
  1 20  1  0  0  0  0
  1 10  1  0  0  0  0
  2 12  1  0  0  0  0
  2 27  2  0  0  0  0
  3  4  1  0  0  0  0
  5 27  1  0  0  0  0
  5  6  1  0  0  0  0
  6 28  2  0  0  0  0
  7 19  1  6  0  0  0
  7 17  1  0  0  0  0
  7 24  1  0  0  0  0
  8 12  1  0  0  0  0
  9 26  1  0  0  0  0
 10 17  1  0  0  0  0
 11  3  2  0  0  0  0
 12 13  1  0  0  0  0
 13 11  1  0  0  0  0
 13 22  1  0  0  0  0
 14 22  2  0  0  0  0
 14 23  1  0  0  0  0
 15  9  1  0  0  0  0
 16 19  1  0  0  0  0
 17  8  1  0  0  0  0
 18  6  1  0  0  0  0
 18 15  2  0  0  0  0
 20 10  1  0  0  0  0
 21  4  2  0  0  0  0
 22 21  1  0  0  0  0
 24  2  1  0  0  0  0
 25  5  2  0  0  0  0
 27 14  1  0  0  0  0
 28  9  1  0  0  0  0
 28 23  1  0  0  0  0
 29 20  1  0  0  0  0
 30 31  1  0  0  0  0
 30 29  1  0  0  0  0
 32 30  1  0  0  0  0
M  END
>  <MODEL>
6

>  <REMARK>
 VINA RESULT:      -8.6      3.130      5.790
  Name = 
  2 active torsions:
  status: ('A' for Active; 'I' for Inactive)
    1  A    between atoms: C_20  and  O_29
    2  A    between atoms: O_29  and  C_30
                            x       y       z     vdW  Elec       q    Type
                         _______ _______ _______ _____ _____    ______ ____

>  <TORSDO>
F 2

$$$$
=
 OpenBabel11122410473D

 32 38  0  0  1  0  0  0  0  0999 V2000
  190.8460  176.8340  136.5380 C   0  0  1  0  0  3  0  0  0  0  0  0
  189.5660  177.0610  141.6500 C   0  0  0  0  0  0  0  0  0  0  0  0
  185.2740  179.3390  141.4980 C   0  0  0  0  0  3  0  0  0  0  0  0
  185.1980  179.3370  142.9690 C   0  0  0  0  0  3  0  0  0  0  0  0
  190.6860  176.5730  143.8410 C   0  0  0  0  0  0  0  0  0  0  0  0
  190.6260  176.7610  145.2850 C   0  0  0  0  0  0  0  0  0  0  0  0
  190.5790  176.2670  139.4860 C   0  0  1  0  0  3  0  0  0  0  0  0
  188.3210  177.2560  139.4510 C   0  0  0  0  0  2  0  0  0  0  0  0
  189.8570  177.4170  147.2200 N   0  0  0  0  0  0  0  0  0  0  0  0
  189.5270  177.1020  137.2640 C   0  0  2  0  0  3  0  0  0  0  0  0
  186.1890  178.6090  140.8550 C   0  0  0  0  0  3  0  0  0  0  0  0
  188.3990  177.4940  140.9000 N   0  0  0  0  0  0  0  0  0  0  0  0
  187.1170  177.6680  141.5930 C   0  0  1  0  0  3  0  0  0  0  0  0
  188.3850  177.7130  143.7280 C   0  0  0  0  0  0  0  0  0  0  0  0
  191.0200  176.7520  147.3790 C   0  0  0  0  0  3  0  0  0  0  0  0
  192.0750  176.8080  137.4710 C   0  0  0  0  0  2  0  0  0  0  0  0
  189.6840  177.2920  138.7870 C   0  0  2  0  0  3  0  0  0  0  0  0
  191.5240  176.3280  146.1930 N   0  0  0  0  0  0  0  0  0  0  0  0
  191.9070  176.0090  138.7700 C   0  0  0  0  0  2  0  0  0  0  0  0
  189.8580  175.6980  136.7700 C   0  0  1  0  0  3  0  0  0  0  0  0
  186.1480  178.7500  143.7010 C   0  0  0  0  0  3  0  0  0  0  0  0
  187.2830  178.0620  143.0430 C   0  0  0  0  0  0  0  0  0  0  0  0
  188.4750  178.0870  145.2000 C   0  0  0  0  0  2  0  0  0  0  0  0
  190.8400  176.7320  140.9060 C   0  0  0  0  0  2  0  0  0  0  0  0
  191.6570  175.9390  143.3450 O   0  0  0  0  0  0  0  0  0  0  0  0
  189.0590  178.0240  148.2710 C   0  0  0  0  0  1  0  0  0  0  0  0
  189.5560  177.0980  143.0080 C   0  0  0  0  0  0  0  0  0  0  0  0
  189.6070  177.4140  145.9040 C   0  0  0  0  0  0  0  0  0  0  0  0
  189.1550  175.4470  135.5890 O   0  0  0  0  0  0  0  0  0  0  0  0
  189.0530  174.0570  135.5220 C   0  0  0  0  0  3  0  0  0  0  0  0
  188.6740  173.5110  136.8830 C   0  0  0  0  0  1  0  0  0  0  0  0
  190.3850  173.4700  135.1010 C   0  0  0  0  0  1  0  0  0  0  0  0
  1 20  1  0  0  0  0
  1 10  1  0  0  0  0
  1 16  1  1  0  0  0
  2 27  2  0  0  0  0
  3  4  1  0  0  0  0
  4 21  2  0  0  0  0
  5  6  1  0  0  0  0
  6 28  2  0  0  0  0
  6 18  1  0  0  0  0
  7 19  1  6  0  0  0
  7 24  1  0  0  0  0
  8 12  1  0  0  0  0
  9 15  1  0  0  0  0
  9 26  1  0  0  0  0
 10 17  1  0  0  0  0
 11  3  2  0  0  0  0
 11 13  1  0  0  0  0
 12 13  1  0  0  0  0
 12  2  1  0  0  0  0
 13 22  1  0  0  0  0
 14 23  1  0  0  0  0
 16 19  1  0  0  0  0
 17  8  1  0  0  0  0
 17  7  1  0  0  0  0
 18 15  2  0  0  0  0
 20 10  1  0  0  0  0
 22 21  1  0  0  0  0
 22 14  2  0  0  0  0
 23 28  1  0  0  0  0
 24  2  1  0  0  0  0
 25  5  2  0  0  0  0
 27 14  1  0  0  0  0
 27  5  1  0  0  0  0
 28  9  1  0  0  0  0
 29 20  1  0  0  0  0
 30 29  1  0  0  0  0
 30 31  1  0  0  0  0
 32 30  1  0  0  0  0
M  END
>  <MODEL>
7

>  <REMARK>
 VINA RESULT:      -8.0      2.005      2.708
  Name = 
  2 active torsions:
  status: ('A' for Active; 'I' for Inactive)
    1  A    between atoms: C_20  and  O_29
    2  A    between atoms: O_29  and  C_30
                            x       y       z     vdW  Elec       q    Type
                         _______ _______ _______ _____ _____    ______ ____

>  <TORSDO>
F 2

$$$$
=
 OpenBabel11122410473D

 32 38  0  0  1  0  0  0  0  0999 V2000
  189.5890  176.7550  146.0750 C   0  0  1  0  0  3  0  0  0  0  0  0
  188.0760  177.8780  141.1480 C   0  0  0  0  0  0  0  0  0  0  0  0
  183.2780  178.4460  141.6890 C   0  0  0  0  0  3  0  0  0  0  0  0
  183.1190  178.6570  140.2400 C   0  0  0  0  0  3  0  0  0  0  0  0
  189.1240  177.8870  138.8690 C   0  0  0  0  0  0  0  0  0  0  0  0
  188.8690  177.9320  137.4350 C   0  0  0  0  0  0  0  0  0  0  0  0
  189.5030  177.7030  143.2160 C   0  0  1  0  0  3  0  0  0  0  0  0
  187.0960  178.1780  143.4670 C   0  0  0  0  0  2  0  0  0  0  0  0
  187.7360  178.0550  135.5730 N   0  0  0  0  0  0  0  0  0  0  0  0
  188.3130  177.3690  145.4990 C   0  0  2  0  0  3  0  0  0  0  0  0
  184.4870  178.4470  142.2570 C   0  0  0  0  0  3  0  0  0  0  0  0
  186.9270  178.1040  142.0080 N   0  0  0  0  0  0  0  0  0  0  0  0
  185.7360  178.7700  141.4660 C   0  0  1  0  0  3  0  0  0  0  0  0
  186.6000  178.2540  139.1950 C   0  0  0  0  0  0  0  0  0  0  0  0
  189.0560  177.9530  135.3120 C   0  0  0  0  0  3  0  0  0  0  0  0
  190.5420  176.1830  145.0050 C   0  0  0  0  0  2  0  0  0  0  0  0
  188.2290  177.2980  143.9610 C   0  0  2  0  0  3  0  0  0  0  0  0
  189.7900  177.8780  136.4510 N   0  0  0  0  0  0  0  0  0  0  0  0
  190.7800  177.0770  143.7810 C   0  0  0  0  0  2  0  0  0  0  0  0
  189.4250  178.2690  146.0260 C   0  0  1  0  0  3  0  0  0  0  0  0
  184.1830  178.6780  139.4330 C   0  0  0  0  0  3  0  0  0  0  0  0
  185.5470  178.5180  139.9870 C   0  0  0  0  0  0  0  0  0  0  0  0
  186.3590  178.0650  137.7050 C   0  0  0  0  0  2  0  0  0  0  0  0
  189.3520  177.3380  141.7510 C   0  0  0  0  0  2  0  0  0  0  0  0
  190.3120  177.7950  139.2800 O   0  0  0  0  0  0  0  0  0  0  0  0
  186.6660  178.1340  134.5940 C   0  0  0  0  0  1  0  0  0  0  0  0
  187.9560  178.0080  139.8010 C   0  0  0  0  0  0  0  0  0  0  0  0
  187.6220  178.0500  136.9080 C   0  0  0  0  0  0  0  0  0  0  0  0
  189.0770  178.7380  147.2940 O   0  0  0  0  0  0  0  0  0  0  0  0
  187.9000  178.0590  147.6160 C   0  0  0  0  0  3  0  0  0  0  0  0
  186.7110  178.9660  147.3730 C   0  0  0  0  0  1  0  0  0  0  0  0
  187.9310  177.6560  149.0760 C   0  0  0  0  0  1  0  0  0  0  0  0
  1 16  1  6  0  0  0
  2 24  1  0  0  0  0
  2 12  1  0  0  0  0
  3 11  2  0  0  0  0
  4  3  1  0  0  0  0
  5 25  2  0  0  0  0
  5 27  1  0  0  0  0
  6  5  1  0  0  0  0
  7 24  1  6  0  0  0
  7 19  1  0  0  0  0
  7 17  1  0  0  0  0
  8 17  1  0  0  0  0
  9 28  1  0  0  0  0
 10 20  1  0  0  0  0
 10  1  1  0  0  0  0
 12  8  1  0  0  0  0
 13 12  1  0  0  0  0
 13 11  1  0  0  0  0
 14 27  1  0  0  0  0
 14 22  2  0  0  0  0
 15  9  1  0  0  0  0
 15 18  2  0  0  0  0
 17 10  1  0  0  0  0
 18  6  1  0  0  0  0
 19 16  1  0  0  0  0
 20  1  1  0  0  0  0
 20 29  1  0  0  0  0
 21 22  1  0  0  0  0
 21  4  2  0  0  0  0
 22 13  1  0  0  0  0
 23 14  1  0  0  0  0
 26  9  1  0  0  0  0
 27  2  2  0  0  0  0
 28  6  2  0  0  0  0
 28 23  1  0  0  0  0
 29 30  1  0  0  0  0
 30 32  1  0  0  0  0
 31 30  1  0  0  0  0
M  END
>  <MODEL>
8

>  <REMARK>
 VINA RESULT:      -7.7      2.343      7.737
  Name = 
  2 active torsions:
  status: ('A' for Active; 'I' for Inactive)
    1  A    between atoms: C_20  and  O_29
    2  A    between atoms: O_29  and  C_30
                            x       y       z     vdW  Elec       q    Type
                         _______ _______ _______ _____ _____    ______ ____

>  <TORSDO>
F 2

$$$$
=
 OpenBabel11122410473D

 32 38  0  0  1  0  0  0  0  0999 V2000
  184.3560  179.3670  138.0750 C   0  0  1  0  0  3  0  0  0  0  0  0
  187.0260  177.8240  142.3550 C   0  0  0  0  0  0  0  0  0  0  0  0
  183.9730  179.0650  145.9290 C   0  0  0  0  0  3  0  0  0  0  0  0
  184.9470  178.6220  146.9420 C   0  0  0  0  0  3  0  0  0  0  0  0
  189.3300  176.9770  142.8670 C   0  0  0  0  0  0  0  0  0  0  0  0
  190.3060  176.7220  143.9200 C   0  0  0  0  0  0  0  0  0  0  0  0
  186.1960  177.9280  139.9800 C   0  0  1  0  0  3  0  0  0  0  0  0
  184.6110  178.3720  141.8150 C   0  0  0  0  0  2  0  0  0  0  0  0
  191.1420  176.6080  145.9330 N   0  0  0  0  0  0  0  0  0  0  0  0
  183.9360  179.1220  139.5240 C   0  0  2  0  0  3  0  0  0  0  0  0
  184.1400  178.7680  144.6380 C   0  0  0  0  0  3  0  0  0  0  0  0
  185.6910  178.1920  142.7960 N   0  0  0  0  0  0  0  0  0  0  0  0
  185.2690  177.8780  144.1660 C   0  0  1  0  0  3  0  0  0  0  0  0
  187.6680  177.5760  144.7340 C   0  0  0  0  0  0  0  0  0  0  0  0
  192.0500  176.1930  145.0240 C   0  0  0  0  0  3  0  0  0  0  0  0
  185.8830  179.3380  137.8570 C   0  0  0  0  0  2  0  0  0  0  0  0
  185.1210  178.8930  140.4840 C   0  0  2  0  0  3  0  0  0  0  0  0
  191.5590  176.2490  143.7610 N   0  0  0  0  0  0  0  0  0  0  0  0
  186.6300  178.1820  138.5340 C   0  0  0  0  0  2  0  0  0  0  0  0
  183.7540  178.0270  138.4790 C   0  0  1  0  0  3  0  0  0  0  0  0
  186.1060  178.0680  146.5780 C   0  0  0  0  0  3  0  0  0  0  0  0
  186.4210  177.8620  145.1450 C   0  0  0  0  0  0  0  0  0  0  0  0
  188.7790  177.5190  145.7710 C   0  0  0  0  0  2  0  0  0  0  0  0
  187.3980  178.0070  140.9010 C   0  0  0  0  0  2  0  0  0  0  0  0
  189.6440  176.7390  141.6690 O   0  0  0  0  0  0  0  0  0  0  0  0
  191.3390  176.6970  147.3700 C   0  0  0  0  0  1  0  0  0  0  0  0
  187.9690  177.4630  143.2630 C   0  0  0  0  0  0  0  0  0  0  0  0
  190.0450  176.9310  145.2370 C   0  0  0  0  0  0  0  0  0  0  0  0
  182.4150  177.9830  138.0850 O   0  0  0  0  0  0  0  0  0  0  0  0
  182.1120  176.6230  137.9980 C   0  0  0  0  0  3  0  0  0  0  0  0
  181.1550  176.2460  139.1090 C   0  0  0  0  0  1  0  0  0  0  0  0
  183.3840  175.8110  138.1350 C   0  0  0  0  0  1  0  0  0  0  0  0
  1 16  1  1  0  0  0
  1 20  1  0  0  0  0
  1 10  1  0  0  0  0
  2 12  1  0  0  0  0
  2 27  2  0  0  0  0
  3  4  1  0  0  0  0
  5 27  1  0  0  0  0
  5  6  1  0  0  0  0
  6 28  2  0  0  0  0
  7 19  1  6  0  0  0
  7 17  1  0  0  0  0
  7 24  1  0  0  0  0
  8 12  1  0  0  0  0
  9 26  1  0  0  0  0
 10 17  1  0  0  0  0
 11  3  2  0  0  0  0
 12 13  1  0  0  0  0
 13 11  1  0  0  0  0
 13 22  1  0  0  0  0
 14 22  2  0  0  0  0
 14 23  1  0  0  0  0
 15  9  1  0  0  0  0
 16 19  1  0  0  0  0
 17  8  1  0  0  0  0
 18  6  1  0  0  0  0
 18 15  2  0  0  0  0
 20 10  1  0  0  0  0
 21  4  2  0  0  0  0
 22 21  1  0  0  0  0
 24  2  1  0  0  0  0
 25  5  2  0  0  0  0
 27 14  1  0  0  0  0
 28 23  1  0  0  0  0
 28  9  1  0  0  0  0
 29 20  1  0  0  0  0
 30 29  1  0  0  0  0
 30 32  1  0  0  0  0
 30 31  1  0  0  0  0
M  END
>  <MODEL>
9

>  <REMARK>
 VINA RESULT:      -7.6      1.827      2.653
  Name = 
  2 active torsions:
  status: ('A' for Active; 'I' for Inactive)
    1  A    between atoms: C_20  and  O_29
    2  A    between atoms: O_29  and  C_30
                            x       y       z     vdW  Elec       q    Type
                         _______ _______ _______ _____ _____    ______ ____

>  <TORSDO>
F 2

$$$$
