=
 OpenBabel11122411193D

 31 35  0  0  1  0  0  0  0  0999 V2000
  193.4180  175.3610  135.7580 C   0  0  0  0  0  0  0  0  0  0  0  0
  190.1280  176.8660  136.9310 C   0  0  2  0  0  3  0  0  0  0  0  0
  189.0780  175.7720  136.8020 C   0  0  0  0  0  0  0  0  0  0  0  0
  188.3280  173.6460  135.8860 C   0  0  0  0  0  0  0  0  0  0  0  0
  191.5410  176.3280  136.9580 C   0  0  0  0  0  0  0  0  0  0  0  0
  194.1200  175.2230  136.9570 C   0  0  0  0  0  3  0  0  0  0  0  0
  189.3130  174.6280  136.0220 C   0  0  0  0  0  3  0  0  0  0  0  0
  190.2380  177.0520  139.4420 C   0  0  2  0  0  3  0  0  0  0  0  0
  193.9790  174.9570  134.5940 F   0  0  0  0  0  0  0  0  0  0  0  0
  187.5310  177.0850  138.1540 O   0  0  0  0  0  0  0  0  0  0  0  0
  188.5980  172.4340  135.0700 C   0  0  0  0  0  1  0  0  0  0  0  0
  191.7370  176.7520  139.4640 C   0  0  0  0  0  2  0  0  0  0  0  0
  189.8630  177.7800  138.1450 C   0  0  2  0  0  3  0  0  0  0  0  0
  192.1350  175.9130  135.7590 C   0  0  0  0  0  3  0  0  0  0  0  0
  187.0920  173.8040  136.5160 C   0  0  0  0  0  3  0  0  0  0  0  0
  192.2550  176.1920  138.1700 C   0  0  0  0  0  0  0  0  0  0  0  0
  193.5430  175.6460  138.1560 C   0  0  0  0  0  3  0  0  0  0  0  0
  188.3970  178.2190  138.1440 C   0  0  0  0  0  2  0  0  0  0  0  0
  187.8130  175.9400  137.4050 C   0  0  0  0  0  0  0  0  0  0  0  0
  186.8350  174.9500  137.2730 C   0  0  0  0  0  3  0  0  0  0  0  0
  190.2150  176.1420  142.1440 O   0  0  0  0  0  0  0  0  0  0  0  0
  189.9060  177.3460  141.9320 C   0  0  0  0  0  0  0  0  0  0  0  0
  189.8920  177.8640  140.6010 N   0  0  0  0  0  2  0  0  0  0  0  0
  190.9590  177.5440  145.5590 C   0  0  1  0  0  3  0  0  0  0  0  0
  190.7370  179.0620  143.5700 C   0  0  0  0  0  2  0  0  0  0  0  0
  187.6450  176.7110  143.7860 C   0  0  0  0  0  1  0  0  0  0  0  0
  191.8480  176.7530  146.2840 O   0  0  0  0  0  1  0  0  0  0  0  0
  191.6960  178.1990  144.3930 C   0  0  0  0  0  2  0  0  0  0  0  0
  188.8370  177.5360  144.2420 C   0  0  2  0  0  3  0  0  0  0  0  0
  189.5350  178.2530  143.0720 C   0  0  2  0  0  3  0  0  0  0  0  0
  189.8120  176.6800  145.0470 C   0  0  0  0  0  2  0  0  0  0  0  0
  1 14  2  0  0  0  0
  1  6  1  0  0  0  0
  2  3  1  1  0  0  0
  2  5  1  0  0  0  0
  2 13  1  0  0  0  0
  3 19  1  0  0  0  0
  4  7  1  0  0  0  0
  4 15  2  0  0  0  0
  5 16  2  0  0  0  0
  6 17  2  0  0  0  0
  7  3  2  0  0  0  0
  8 12  1  0  0  0  0
  8 23  1  1  0  0  0
  9  1  1  0  0  0  0
 11  4  1  0  0  0  0
 13 18  1  1  0  0  0
 13  8  1  0  0  0  0
 14  5  1  0  0  0  0
 15 20  1  0  0  0  0
 16 12  1  0  0  0  0
 17 16  1  0  0  0  0
 18 10  1  0  0  0  0
 19 10  1  0  0  0  0
 20 19  2  0  0  0  0
 22 21  2  0  0  0  0
 23 22  1  0  0  0  0
 24 27  1  6  0  0  0
 25 28  1  0  0  0  0
 28 24  1  0  0  0  0
 29 26  1  6  0  0  0
 29 31  1  0  0  0  0
 30 22  1  6  0  0  0
 30 25  1  0  0  0  0
 30 29  1  0  0  0  0
 31 24  1  0  0  0  0
M  END
>  <MODEL>
1

>  <REMARK>
 VINA RESULT:      -8.3      0.000      0.000
  Name = 
  2 active torsions:
  status: ('A' for Active; 'I' for Inactive)
    1  A    between atoms: C_5  and  C_30
    2  A    between atoms: C_10  and  N_16
                            x       y       z     vdW  Elec       q    Type
                         _______ _______ _______ _____ _____    ______ ____

>  <TORSDO>
F 2

$$$$
=
 OpenBabel11122411193D

 31 35  0  0  1  0  0  0  0  0999 V2000
  191.2100  176.2040  143.7280 C   0  0  0  0  0  0  0  0  0  0  0  0
  187.4790  176.9360  143.8030 C   0  0  2  0  0  3  0  0  0  0  0  0
  187.2090  177.6920  145.0970 C   0  0  0  0  0  0  0  0  0  0  0  0
  187.8720  178.3670  147.3390 C   0  0  0  0  0  0  0  0  0  0  0  0
  188.9320  176.9760  143.3890 C   0  0  0  0  0  0  0  0  0  0  0  0
  191.6590  177.0800  142.7380 C   0  0  0  0  0  3  0  0  0  0  0  0
  188.1450  177.6970  146.1440 C   0  0  0  0  0  3  0  0  0  0  0  0
  187.0390  178.7780  142.1400 C   0  0  2  0  0  3  0  0  0  0  0  0
  192.0910  175.4080  144.3790 F   0  0  0  0  0  0  0  0  0  0  0  0
  184.9970  178.3120  144.2840 O   0  0  0  0  0  0  0  0  0  0  0  0
  188.8790  178.3760  148.4320 C   0  0  0  0  0  1  0  0  0  0  0  0
  188.4390  178.6570  141.5370 C   0  0  0  0  0  2  0  0  0  0  0  0
  186.5650  177.4140  142.6560 C   0  0  2  0  0  3  0  0  0  0  0  0
  189.8520  176.1520  144.0500 C   0  0  0  0  0  3  0  0  0  0  0  0
  186.6530  179.0280  147.5060 C   0  0  0  0  0  3  0  0  0  0  0  0
  189.3890  177.8590  142.3840 C   0  0  0  0  0  0  0  0  0  0  0  0
  190.7500  177.8960  142.0620 C   0  0  0  0  0  3  0  0  0  0  0  0
  185.1150  177.4630  143.1440 C   0  0  0  0  0  2  0  0  0  0  0  0
  185.9660  178.3320  145.2890 C   0  0  0  0  0  0  0  0  0  0  0  0
  185.7020  179.0090  146.4830 C   0  0  0  0  0  3  0  0  0  0  0  0
  186.6590  177.6590  139.5450 O   0  0  0  0  0  0  0  0  0  0  0  0
  185.9750  178.6740  139.8480 C   0  0  0  0  0  0  0  0  0  0  0  0
  186.1210  179.2880  141.1290 N   0  0  0  0  0  2  0  0  0  0  0  0
  182.5310  177.6690  138.6520 C   0  0  1  0  0  3  0  0  0  0  0  0
  183.7030  179.7050  139.5410 C   0  0  0  0  0  2  0  0  0  0  0  0
  185.9810  177.8930  136.9590 C   0  0  0  0  0  1  0  0  0  0  0  0
  181.7380  176.5780  139.0020 O   0  0  0  0  0  1  0  0  0  0  0  0
  182.8200  178.5070  139.8950 C   0  0  0  0  0  2  0  0  0  0  0  0
  184.7120  178.3620  137.6510 C   0  0  2  0  0  3  0  0  0  0  0  0
  185.0050  179.2660  138.8630 C   0  0  2  0  0  3  0  0  0  0  0  0
  183.8320  177.1730  138.0300 C   0  0  0  0  0  2  0  0  0  0  0  0
  1 14  1  0  0  0  0
  1  9  1  0  0  0  0
  2  5  1  6  0  0  0
  2  3  1  0  0  0  0
  3 19  2  0  0  0  0
  3  7  1  0  0  0  0
  4 15  1  0  0  0  0
  4 11  1  0  0  0  0
  5 14  2  0  0  0  0
  6  1  2  0  0  0  0
  7  4  2  0  0  0  0
  8 23  1  6  0  0  0
  8 13  1  0  0  0  0
 10 19  1  0  0  0  0
 12  8  1  0  0  0  0
 12 16  1  0  0  0  0
 13 18  1  1  0  0  0
 13  2  1  0  0  0  0
 16  5  1  0  0  0  0
 17 16  2  0  0  0  0
 17  6  1  0  0  0  0
 18 10  1  0  0  0  0
 19 20  1  0  0  0  0
 20 15  2  0  0  0  0
 21 22  2  0  0  0  0
 22 23  1  0  0  0  0
 24 27  1  1  0  0  0
 24 28  1  0  0  0  0
 25 28  1  0  0  0  0
 29 26  1  1  0  0  0
 29 31  1  0  0  0  0
 29 30  1  0  0  0  0
 30 25  1  0  0  0  0
 30 22  1  1  0  0  0
 31 24  1  0  0  0  0
M  END
>  <MODEL>
2

>  <REMARK>
 VINA RESULT:      -7.7      4.471      8.448
  Name = 
  2 active torsions:
  status: ('A' for Active; 'I' for Inactive)
    1  A    between atoms: C_5  and  C_30
    2  A    between atoms: C_10  and  N_16
                            x       y       z     vdW  Elec       q    Type
                         _______ _______ _______ _____ _____    ______ ____

>  <TORSDO>
F 2

$$$$
=
 OpenBabel11122411193D

 31 35  0  0  1  0  0  0  0  0999 V2000
  190.1080  175.9920  142.8980 C   0  0  0  0  0  0  0  0  0  0  0  0
  186.4950  177.0790  143.3730 C   0  0  2  0  0  3  0  0  0  0  0  0
  186.4370  177.8340  144.6930 C   0  0  0  0  0  0  0  0  0  0  0  0
  187.3930  178.4050  146.8570 C   0  0  0  0  0  0  0  0  0  0  0  0
  187.8930  176.9850  142.8070 C   0  0  0  0  0  0  0  0  0  0  0  0
  190.5340  176.8370  141.8710 C   0  0  0  0  0  3  0  0  0  0  0  0
  187.4730  177.7320  145.6350 C   0  0  0  0  0  3  0  0  0  0  0  0
  186.0650  178.9820  141.7780 C   0  0  2  0  0  3  0  0  0  0  0  0
  190.9700  175.1030  143.4470 F   0  0  0  0  0  0  0  0  0  0  0  0
  184.2220  178.6790  144.1230 O   0  0  0  0  0  0  0  0  0  0  0  0
  188.5050  178.2980  147.8360 C   0  0  0  0  0  1  0  0  0  0  0  0
  187.3750  178.7360  141.0290 C   0  0  0  0  0  2  0  0  0  0  0  0
  185.5160  177.6610  142.3320 C   0  0  2  0  0  3  0  0  0  0  0  0
  188.7930  176.0650  143.3620 C   0  0  0  0  0  3  0  0  0  0  0  0
  186.2690  179.1770  147.1560 C   0  0  0  0  0  3  0  0  0  0  0  0
  188.3260  177.8360  141.7650 C   0  0  0  0  0  0  0  0  0  0  0  0
  189.6430  177.7480  141.3020 C   0  0  0  0  0  3  0  0  0  0  0  0
  184.1380  177.8410  142.9710 C   0  0  0  0  0  2  0  0  0  0  0  0
  185.2890  178.5880  145.0200 C   0  0  0  0  0  0  0  0  0  0  0  0
  185.2190  179.2670  146.2390 C   0  0  0  0  0  3  0  0  0  0  0  0
  184.8610  177.6960  139.5350 O   0  0  0  0  0  0  0  0  0  0  0  0
  184.5300  178.8900  139.7690 C   0  0  0  0  0  0  0  0  0  0  0  0
  185.1000  179.5950  140.8730 N   0  0  0  0  0  2  0  0  0  0  0  0
  180.8040  178.5460  139.2190 C   0  0  1  0  0  3  0  0  0  0  0  0
  182.4850  180.3490  139.7000 C   0  0  0  0  0  2  0  0  0  0  0  0
  183.8950  177.9170  137.0120 C   0  0  0  0  0  1  0  0  0  0  0  0
  179.8850  177.6730  139.7980 O   0  0  0  0  0  1  0  0  0  0  0  0
  181.4570  179.3920  140.3080 C   0  0  0  0  0  2  0  0  0  0  0  0
  182.8780  178.6900  137.8330 C   0  0  2  0  0  3  0  0  0  0  0  0
  183.5420  179.5990  138.8850 C   0  0  2  0  0  3  0  0  0  0  0  0
  181.8590  177.7440  138.4640 C   0  0  0  0  0  2  0  0  0  0  0  0
  1 14  1  0  0  0  0
  1  9  1  0  0  0  0
  2  5  1  6  0  0  0
  2  3  1  0  0  0  0
  3 19  2  0  0  0  0
  3  7  1  0  0  0  0
  4 15  1  0  0  0  0
  4 11  1  0  0  0  0
  5 14  2  0  0  0  0
  6  1  2  0  0  0  0
  7  4  2  0  0  0  0
  8 23  1  6  0  0  0
  8 13  1  0  0  0  0
 10 19  1  0  0  0  0
 12 16  1  0  0  0  0
 12  8  1  0  0  0  0
 13 18  1  1  0  0  0
 13  2  1  0  0  0  0
 16  5  1  0  0  0  0
 17 16  2  0  0  0  0
 17  6  1  0  0  0  0
 18 10  1  0  0  0  0
 19 20  1  0  0  0  0
 20 15  2  0  0  0  0
 21 22  2  0  0  0  0
 22 23  1  0  0  0  0
 24 27  1  1  0  0  0
 24 28  1  0  0  0  0
 25 28  1  0  0  0  0
 29 26  1  1  0  0  0
 29 31  1  0  0  0  0
 29 30  1  0  0  0  0
 30 25  1  0  0  0  0
 30 22  1  1  0  0  0
 31 24  1  0  0  0  0
M  END
>  <MODEL>
3

>  <REMARK>
 VINA RESULT:      -7.6      4.865      8.757
  Name = 
  2 active torsions:
  status: ('A' for Active; 'I' for Inactive)
    1  A    between atoms: C_5  and  C_30
    2  A    between atoms: C_10  and  N_16
                            x       y       z     vdW  Elec       q    Type
                         _______ _______ _______ _____ _____    ______ ____

>  <TORSDO>
F 2

$$$$
=
 OpenBabel11122411193D

 31 35  0  0  1  0  0  0  0  0999 V2000
  191.3790  176.5320  145.0120 C   0  0  0  0  0  0  0  0  0  0  0  0
  187.7730  176.9170  143.8680 C   0  0  2  0  0  3  0  0  0  0  0  0
  187.0580  177.7210  144.9440 C   0  0  0  0  0  0  0  0  0  0  0  0
  186.9320  178.5910  147.2140 C   0  0  0  0  0  0  0  0  0  0  0  0
  189.2760  177.0660  143.9210 C   0  0  0  0  0  0  0  0  0  0  0  0
  192.0560  177.3840  144.1370 C   0  0  0  0  0  3  0  0  0  0  0  0
  187.6140  177.8780  146.2250 C   0  0  0  0  0  3  0  0  0  0  0  0
  187.7530  178.6050  141.9960 C   0  0  2  0  0  3  0  0  0  0  0  0
  192.0630  175.8620  145.9700 F   0  0  0  0  0  0  0  0  0  0  0  0
  185.1760  178.0830  143.4370 O   0  0  0  0  0  0  0  0  0  0  0  0
  187.5410  178.7600  148.5580 C   0  0  0  0  0  1  0  0  0  0  0  0
  189.2760  178.5780  141.8680 C   0  0  0  0  0  2  0  0  0  0  0  0
  187.2360  177.2370  142.4570 C   0  0  2  0  0  3  0  0  0  0  0  0
  189.9960  176.3730  144.9020 C   0  0  0  0  0  3  0  0  0  0  0  0
  185.6800  179.1440  146.9380 C   0  0  0  0  0  3  0  0  0  0  0  0
  189.9640  177.9250  143.0320 C   0  0  0  0  0  0  0  0  0  0  0  0
  191.3510  178.0700  143.1450 C   0  0  0  0  0  3  0  0  0  0  0  0
  185.7070  177.1800  142.4680 C   0  0  0  0  0  2  0  0  0  0  0  0
  185.7770  178.2540  144.6870 C   0  0  0  0  0  0  0  0  0  0  0  0
  185.1030  178.9750  145.6770 C   0  0  0  0  0  3  0  0  0  0  0  0
  188.2630  177.2790  139.5240 O   0  0  0  0  0  0  0  0  0  0  0  0
  187.4620  178.2530  139.5080 C   0  0  0  0  0  0  0  0  0  0  0  0
  187.1670  178.9650  140.7110 N   0  0  0  0  0  2  0  0  0  0  0  0
  186.6720  176.4990  136.2520 C   0  0  1  0  0  3  0  0  0  0  0  0
  185.5110  177.9320  137.9570 C   0  0  0  0  0  2  0  0  0  0  0  0
  189.0550  179.3590  137.2310 C   0  0  0  0  0  1  0  0  0  0  0  0
  186.9130  175.1850  135.8550 O   0  0  0  0  0  1  0  0  0  0  0  0
  185.7780  176.5000  137.4900 C   0  0  0  0  0  2  0  0  0  0  0  0
  187.7440  178.6280  136.9990 C   0  0  2  0  0  3  0  0  0  0  0  0
  186.8140  178.6910  138.2250 C   0  0  2  0  0  3  0  0  0  0  0  0
  187.9980  177.1900  136.5530 C   0  0  0  0  0  2  0  0  0  0  0  0
  1  9  1  0  0  0  0
  2  5  1  6  0  0  0
  2  3  1  0  0  0  0
  3  7  1  0  0  0  0
  4 11  1  0  0  0  0
  5 14  2  0  0  0  0
  6  1  2  0  0  0  0
  7  4  2  0  0  0  0
  8 23  1  6  0  0  0
  8 13  1  0  0  0  0
 10 19  1  0  0  0  0
 12  8  1  0  0  0  0
 12 16  1  0  0  0  0
 13 18  1  1  0  0  0
 13  2  1  0  0  0  0
 14  1  1  0  0  0  0
 15  4  1  0  0  0  0
 16 17  2  0  0  0  0
 16  5  1  0  0  0  0
 17  6  1  0  0  0  0
 18 10  1  0  0  0  0
 19  3  2  0  0  0  0
 19 20  1  0  0  0  0
 20 15  2  0  0  0  0
 22 21  2  0  0  0  0
 22 23  1  0  0  0  0
 24 27  1  1  0  0  0
 24 31  1  0  0  0  0
 24 28  1  0  0  0  0
 25 30  1  0  0  0  0
 28 25  1  0  0  0  0
 29 26  1  1  0  0  0
 29 30  1  0  0  0  0
 30 22  1  1  0  0  0
 31 29  1  0  0  0  0
M  END
>  <MODEL>
4

>  <REMARK>
 VINA RESULT:      -7.3      3.911      8.351
  Name = 
  2 active torsions:
  status: ('A' for Active; 'I' for Inactive)
    1  A    between atoms: C_5  and  C_30
    2  A    between atoms: C_10  and  N_16
                            x       y       z     vdW  Elec       q    Type
                         _______ _______ _______ _____ _____    ______ ____

>  <TORSDO>
F 2

$$$$
=
 OpenBabel11122411193D

 31 35  0  0  1  0  0  0  0  0999 V2000
  179.7150  178.9090  142.2890 C   0  0  0  0  0  0  0  0  0  0  0  0
  183.0900  179.1960  140.5590 C   0  0  2  0  0  3  0  0  0  0  0  0
  184.1440  178.8450  141.5990 C   0  0  0  0  0  0  0  0  0  0  0  0
  184.8220  178.5410  143.9170 C   0  0  0  0  0  0  0  0  0  0  0  0
  181.7110  178.6930  140.9220 C   0  0  0  0  0  0  0  0  0  0  0  0
  179.1910  177.7480  141.7150 C   0  0  0  0  0  3  0  0  0  0  0  0
  183.8370  178.8330  142.9700 C   0  0  0  0  0  3  0  0  0  0  0  0
  183.3250  177.2060  139.0310 C   0  0  2  0  0  3  0  0  0  0  0  0
  179.0100  179.5770  143.2320 F   0  0  0  0  0  0  0  0  0  0  0  0
  185.8240  178.6480  139.8440 O   0  0  0  0  0  0  0  0  0  0  0  0
  184.4780  178.5190  145.3620 C   0  0  0  0  0  1  0  0  0  0  0  0
  181.8530  176.8250  139.1930 C   0  0  0  0  0  2  0  0  0  0  0  0
  183.4940  178.7250  139.1460 C   0  0  2  0  0  3  0  0  0  0  0  0
  180.9690  179.3790  141.8920 C   0  0  0  0  0  3  0  0  0  0  0  0
  186.1280  178.2700  143.5050 C   0  0  0  0  0  3  0  0  0  0  0  0
  181.1770  177.5200  140.3400 C   0  0  0  0  0  0  0  0  0  0  0  0
  179.9160  177.0630  140.7380 C   0  0  0  0  0  3  0  0  0  0  0  0
  184.9320  179.1610  138.8550 C   0  0  0  0  0  2  0  0  0  0  0  0
  185.4750  178.6050  141.1960 C   0  0  0  0  0  0  0  0  0  0  0  0
  186.4540  178.3030  142.1460 C   0  0  0  0  0  3  0  0  0  0  0  0
  183.8050  174.4810  138.3430 O   0  0  0  0  0  0  0  0  0  0  0  0
  184.0190  175.3520  137.4560 C   0  0  0  0  0  0  0  0  0  0  0  0
  183.8040  176.7360  137.7370 N   0  0  0  0  0  2  0  0  0  0  0  0
  184.4270  172.0290  135.6970 C   0  0  1  0  0  3  0  0  0  0  0  0
  183.4170  174.2870  135.2610 C   0  0  0  0  0  2  0  0  0  0  0  0
  186.8950  174.7030  136.9500 C   0  0  0  0  0  1  0  0  0  0  0  0
  184.1560  170.7360  136.1390 O   0  0  0  0  0  1  0  0  0  0  0  0
  183.1440  172.8560  135.7280 C   0  0  0  0  0  2  0  0  0  0  0  0
  185.7850  174.0820  136.1210 C   0  0  2  0  0  3  0  0  0  0  0  0
  184.5150  174.9530  136.0950 C   0  0  2  0  0  3  0  0  0  0  0  0
  185.4880  172.6600  136.5910 C   0  0  0  0  0  2  0  0  0  0  0  0
  1  9  1  0  0  0  0
  2  5  1  1  0  0  0
  2  3  1  0  0  0  0
  3  7  1  0  0  0  0
  4 11  1  0  0  0  0
  5 14  2  0  0  0  0
  6  1  2  0  0  0  0
  7  4  2  0  0  0  0
  8 23  1  6  0  0  0
  8 13  1  0  0  0  0
  8 12  1  0  0  0  0
 10 19  1  0  0  0  0
 12 16  1  0  0  0  0
 13 18  1  1  0  0  0
 13  2  1  0  0  0  0
 14  1  1  0  0  0  0
 15  4  1  0  0  0  0
 16 17  2  0  0  0  0
 16  5  1  0  0  0  0
 17  6  1  0  0  0  0
 18 10  1  0  0  0  0
 19  3  2  0  0  0  0
 19 20  1  0  0  0  0
 20 15  2  0  0  0  0
 22 23  1  0  0  0  0
 22 21  2  0  0  0  0
 24 28  1  0  0  0  0
 24 27  1  1  0  0  0
 24 31  1  0  0  0  0
 25 28  1  0  0  0  0
 25 30  1  0  0  0  0
 29 31  1  0  0  0  0
 29 26  1  1  0  0  0
 30 29  1  0  0  0  0
 30 22  1  1  0  0  0
M  END
>  <MODEL>
5

>  <REMARK>
 VINA RESULT:      -7.1      5.952     10.531
  Name = 
  2 active torsions:
  status: ('A' for Active; 'I' for Inactive)
    1  A    between atoms: C_5  and  C_30
    2  A    between atoms: C_10  and  N_16
                            x       y       z     vdW  Elec       q    Type
                         _______ _______ _______ _____ _____    ______ ____

>  <TORSDO>
F 2

$$$$
=
 OpenBabel11122411193D

 31 35  0  0  1  0  0  0  0  0999 V2000
  179.6970  178.6600  142.1310 C   0  0  0  0  0  0  0  0  0  0  0  0
  183.0720  179.1080  140.4380 C   0  0  2  0  0  3  0  0  0  0  0  0
  184.1310  178.8040  141.4890 C   0  0  0  0  0  0  0  0  0  0  0  0
  184.7970  178.5270  143.8130 C   0  0  0  0  0  0  0  0  0  0  0  0
  181.7150  178.5410  140.7860 C   0  0  0  0  0  0  0  0  0  0  0  0
  179.2340  177.4770  141.5500 C   0  0  0  0  0  3  0  0  0  0  0  0
  183.8100  178.7760  142.8560 C   0  0  0  0  0  3  0  0  0  0  0  0
  183.4160  177.1350  138.9090 C   0  0  2  0  0  3  0  0  0  0  0  0
  178.9500  179.2920  143.0680 F   0  0  0  0  0  0  0  0  0  0  0  0
  185.8360  178.6900  139.7520 O   0  0  0  0  0  0  0  0  0  0  0  0
  184.4390  178.4850  145.2540 C   0  0  0  0  0  1  0  0  0  0  0  0
  181.9620  176.6860  139.0550 C   0  0  0  0  0  2  0  0  0  0  0  0
  183.5130  178.6610  139.0290 C   0  0  2  0  0  3  0  0  0  0  0  0
  180.9310  179.1890  141.7480 C   0  0  0  0  0  3  0  0  0  0  0  0
  186.1180  178.3190  143.4150 C   0  0  0  0  0  3  0  0  0  0  0  0
  181.2420  177.3460  140.1960 C   0  0  0  0  0  0  0  0  0  0  0  0
  180.0000  176.8290  140.5790 C   0  0  0  0  0  3  0  0  0  0  0  0
  184.9320  179.1640  138.7540 C   0  0  0  0  0  2  0  0  0  0  0  0
  185.4750  178.6280  141.1000 C   0  0  0  0  0  0  0  0  0  0  0  0
  186.4570  178.3700  142.0600 C   0  0  0  0  0  3  0  0  0  0  0  0
  184.0380  174.4380  138.2240 O   0  0  0  0  0  0  0  0  0  0  0  0
  184.2170  175.3200  137.3400 C   0  0  0  0  0  0  0  0  0  0  0  0
  183.9310  176.6910  137.6200 N   0  0  0  0  0  2  0  0  0  0  0  0
  186.7130  176.9120  134.9870 C   0  0  1  0  0  3  0  0  0  0  0  0
  186.2520  174.6680  136.0160 C   0  0  0  0  0  2  0  0  0  0  0  0
  182.9190  176.2800  134.8200 C   0  0  0  0  0  1  0  0  0  0  0  0
  187.4530  178.0860  135.1180 O   0  0  0  0  0  1  0  0  0  0  0  0
  187.0630  175.9600  136.1280 C   0  0  0  0  0  2  0  0  0  0  0  0
  184.4040  175.9650  134.8770 C   0  0  2  0  0  3  0  0  0  0  0  0
  184.7460  174.9480  135.9830 C   0  0  2  0  0  3  0  0  0  0  0  0
  185.2250  177.2450  135.0100 C   0  0  0  0  0  2  0  0  0  0  0  0
  1  9  1  0  0  0  0
  2  5  1  1  0  0  0
  2  3  1  0  0  0  0
  3  7  1  0  0  0  0
  4 11  1  0  0  0  0
  5 14  2  0  0  0  0
  6  1  2  0  0  0  0
  7  4  2  0  0  0  0
  8 23  1  6  0  0  0
  8 13  1  0  0  0  0
  8 12  1  0  0  0  0
 10 19  1  0  0  0  0
 12 16  1  0  0  0  0
 13 18  1  1  0  0  0
 13  2  1  0  0  0  0
 14  1  1  0  0  0  0
 15  4  1  0  0  0  0
 16 17  2  0  0  0  0
 16  5  1  0  0  0  0
 17  6  1  0  0  0  0
 18 10  1  0  0  0  0
 19  3  2  0  0  0  0
 19 20  1  0  0  0  0
 20 15  2  0  0  0  0
 22 23  1  0  0  0  0
 22 21  2  0  0  0  0
 24 31  1  0  0  0  0
 24 27  1  1  0  0  0
 24 28  1  0  0  0  0
 25 28  1  0  0  0  0
 29 26  1  1  0  0  0
 29 31  1  0  0  0  0
 29 30  1  0  0  0  0
 30 25  1  0  0  0  0
 30 22  1  1  0  0  0
M  END
>  <MODEL>
6

>  <REMARK>
 VINA RESULT:      -6.9      5.813     10.263
  Name = 
  2 active torsions:
  status: ('A' for Active; 'I' for Inactive)
    1  A    between atoms: C_5  and  C_30
    2  A    between atoms: C_10  and  N_16
                            x       y       z     vdW  Elec       q    Type
                         _______ _______ _______ _____ _____    ______ ____

>  <TORSDO>
F 2

$$$$
=
 OpenBabel11122411193D

 31 35  0  0  1  0  0  0  0  0999 V2000
  188.8020  178.2690  142.5190 C   0  0  0  0  0  0  0  0  0  0  0  0
  185.9920  179.0340  140.0730 C   0  0  2  0  0  3  0  0  0  0  0  0
  186.1610  178.0760  138.9030 C   0  0  0  0  0  0  0  0  0  0  0  0
  187.5200  176.5330  137.6000 C   0  0  0  0  0  0  0  0  0  0  0  0
  186.7120  178.5740  141.3210 C   0  0  0  0  0  0  0  0  0  0  0  0
  188.1170  177.6450  143.5650 C   0  0  0  0  0  3  0  0  0  0  0  0
  187.3670  177.3850  138.6960 C   0  0  0  0  0  3  0  0  0  0  0  0
  183.8620  178.1210  141.0630 C   0  0  2  0  0  3  0  0  0  0  0  0
  190.1460  178.4210  142.5860 F   0  0  0  0  0  0  0  0  0  0  0  0
  183.9250  178.6350  138.1110 O   0  0  0  0  0  0  0  0  0  0  0  0
  188.7960  175.7990  137.4030 C   0  0  0  0  0  1  0  0  0  0  0  0
  184.5200  177.8800  142.4220 C   0  0  0  0  0  2  0  0  0  0  0  0
  184.5070  179.3270  140.3690 C   0  0  2  0  0  3  0  0  0  0  0  0
  188.1010  178.7320  141.4040 C   0  0  0  0  0  3  0  0  0  0  0  0
  186.4740  176.3720  136.6900 C   0  0  0  0  0  3  0  0  0  0  0  0
  186.0200  177.9460  142.3830 C   0  0  0  0  0  0  0  0  0  0  0  0
  186.7310  177.4940  143.4990 C   0  0  0  0  0  3  0  0  0  0  0  0
  183.7880  179.6850  139.0670 C   0  0  0  0  0  2  0  0  0  0  0  0
  185.1230  177.9330  137.9580 C   0  0  0  0  0  0  0  0  0  0  0  0
  185.2770  177.0720  136.8680 C   0  0  0  0  0  3  0  0  0  0  0  0
  181.7830  176.5370  139.9250 O   0  0  0  0  0  0  0  0  0  0  0  0
  181.4420  177.5070  140.6560 C   0  0  0  0  0  0  0  0  0  0  0  0
  182.4350  178.3440  141.2520 N   0  0  0  0  0  2  0  0  0  0  0  0
  179.3090  180.5990  140.2160 C   0  0  1  0  0  3  0  0  0  0  0  0
  179.2560  178.1630  139.6050 C   0  0  0  0  0  2  0  0  0  0  0  0
  180.4720  178.5740  143.2770 C   0  0  0  0  0  1  0  0  0  0  0  0
  179.6500  181.8710  139.7610 O   0  0  0  0  0  1  0  0  0  0  0  0
  179.6060  179.5730  139.1250 C   0  0  0  0  0  2  0  0  0  0  0  0
  179.7470  178.8830  141.9790 C   0  0  2  0  0  3  0  0  0  0  0  0
  179.9910  177.8090  140.9020 C   0  0  2  0  0  3  0  0  0  0  0  0
  180.1060  180.2800  141.4770 C   0  0  0  0  0  2  0  0  0  0  0  0
  1  9  1  0  0  0  0
  1  6  1  0  0  0  0
  2  3  1  6  0  0  0
  2 13  1  0  0  0  0
  2  5  1  0  0  0  0
  4  7  2  0  0  0  0
  5 14  1  0  0  0  0
  5 16  2  0  0  0  0
  7  3  1  0  0  0  0
  8 23  1  1  0  0  0
  8 12  1  0  0  0  0
 10 18  1  0  0  0  0
 11  4  1  0  0  0  0
 13 18  1  6  0  0  0
 13  8  1  0  0  0  0
 14  1  2  0  0  0  0
 15 20  2  0  0  0  0
 15  4  1  0  0  0  0
 16 12  1  0  0  0  0
 16 17  1  0  0  0  0
 17  6  2  0  0  0  0
 19 10  1  0  0  0  0
 19  3  2  0  0  0  0
 20 19  1  0  0  0  0
 21 22  2  0  0  0  0
 22 23  1  0  0  0  0
 24 27  1  6  0  0  0
 24 31  1  0  0  0  0
 25 30  1  0  0  0  0
 28 25  1  0  0  0  0
 28 24  1  0  0  0  0
 29 26  1  1  0  0  0
 30 22  1  6  0  0  0
 30 29  1  0  0  0  0
 31 29  1  0  0  0  0
M  END
>  <MODEL>
7

>  <REMARK>
 VINA RESULT:      -6.8      5.655      8.191
  Name = 
  2 active torsions:
  status: ('A' for Active; 'I' for Inactive)
    1  A    between atoms: C_5  and  C_30
    2  A    between atoms: C_10  and  N_16
                            x       y       z     vdW  Elec       q    Type
                         _______ _______ _______ _____ _____    ______ ____

>  <TORSDO>
F 2

$$$$
=
 OpenBabel11122411193D

 31 35  0  0  1  0  0  0  0  0999 V2000
  185.9770  177.9330  137.9980 C   0  0  0  0  0  0  0  0  0  0  0  0
  189.6160  177.6850  139.0720 C   0  0  2  0  0  3  0  0  0  0  0  0
  189.6110  177.3050  140.5470 C   0  0  0  0  0  0  0  0  0  0  0  0
  188.4690  177.1230  142.6880 C   0  0  0  0  0  0  0  0  0  0  0  0
  188.3090  177.3750  138.3780 C   0  0  0  0  0  0  0  0  0  0  0  0
  185.8290  176.7950  137.2020 C   0  0  0  0  0  3  0  0  0  0  0  0
  188.4520  177.4450  141.3290 C   0  0  0  0  0  3  0  0  0  0  0  0
  190.5480  175.5580  138.0920 C   0  0  2  0  0  3  0  0  0  0  0  0
  184.9210  178.7540  138.2080 F   0  0  0  0  0  0  0  0  0  0  0  0
  191.9850  176.7690  140.4270 O   0  0  0  0  0  0  0  0  0  0  0  0
  187.2310  177.2630  143.4980 C   0  0  0  0  0  1  0  0  0  0  0  0
  189.3290  175.3630  137.1900 C   0  0  0  0  0  2  0  0  0  0  0  0
  190.8050  177.0530  138.3190 C   0  0  2  0  0  3  0  0  0  0  0  0
  187.2120  178.2210  138.5820 C   0  0  0  0  0  3  0  0  0  0  0  0
  189.6470  176.6710  143.2840 C   0  0  0  0  0  3  0  0  0  0  0  0
  188.1590  176.2260  137.5680 C   0  0  0  0  0  0  0  0  0  0  0  0
  186.9200  175.9510  136.9800 C   0  0  0  0  0  3  0  0  0  0  0  0
  192.0950  177.2950  139.1060 C   0  0  0  0  0  2  0  0  0  0  0  0
  190.8050  176.8820  141.1660 C   0  0  0  0  0  0  0  0  0  0  0  0
  190.8140  176.5520  142.5250 C   0  0  0  0  0  3  0  0  0  0  0  0
  191.3910  175.9380  135.3950 O   0  0  0  0  0  0  0  0  0  0  0  0
  192.0800  175.1670  136.1180 C   0  0  0  0  0  0  0  0  0  0  0  0
  191.7090  174.9290  137.4770 N   0  0  0  0  0  2  0  0  0  0  0  0
  195.0410  173.4210  137.6960 C   0  0  1  0  0  3  0  0  0  0  0  0
  193.3150  172.9880  135.9230 C   0  0  0  0  0  2  0  0  0  0  0  0
  194.6390  176.6320  135.6090 C   0  0  0  0  0  1  0  0  0  0  0  0
  195.3590  173.2210  139.0370 O   0  0  0  0  0  1  0  0  0  0  0  0
  193.6960  172.7680  137.3880 C   0  0  0  0  0  2  0  0  0  0  0  0
  194.6270  175.1490  135.9390 C   0  0  2  0  0  3  0  0  0  0  0  0
  193.2940  174.4760  135.5620 C   0  0  2  0  0  3  0  0  0  0  0  0
  194.9840  174.9180  137.4060 C   0  0  0  0  0  2  0  0  0  0  0  0
  1  9  1  0  0  0  0
  1 14  1  0  0  0  0
  2  5  1  6  0  0  0
  2  3  1  0  0  0  0
  3 19  2  0  0  0  0
  3  7  1  0  0  0  0
  4 15  1  0  0  0  0
  4 11  1  0  0  0  0
  5 14  2  0  0  0  0
  6  1  2  0  0  0  0
  7  4  2  0  0  0  0
  8 23  1  6  0  0  0
  8 13  1  0  0  0  0
 10 19  1  0  0  0  0
 12 16  1  0  0  0  0
 12  8  1  0  0  0  0
 13  2  1  0  0  0  0
 13 18  1  1  0  0  0
 16  5  1  0  0  0  0
 17  6  1  0  0  0  0
 17 16  2  0  0  0  0
 18 10  1  0  0  0  0
 19 20  1  0  0  0  0
 20 15  2  0  0  0  0
 21 22  2  0  0  0  0
 22 23  1  0  0  0  0
 24 27  1  1  0  0  0
 25 28  1  0  0  0  0
 28 24  1  0  0  0  0
 29 26  1  1  0  0  0
 29 31  1  0  0  0  0
 30 25  1  0  0  0  0
 30 29  1  0  0  0  0
 30 22  1  1  0  0  0
 31 24  1  0  0  0  0
M  END
>  <MODEL>
8

>  <REMARK>
 VINA RESULT:      -6.8      2.958      7.253
  Name = 
  2 active torsions:
  status: ('A' for Active; 'I' for Inactive)
    1  A    between atoms: C_5  and  C_30
    2  A    between atoms: C_10  and  N_16
                            x       y       z     vdW  Elec       q    Type
                         _______ _______ _______ _____ _____    ______ ____

>  <TORSDO>
F 2

$$$$
=
 OpenBabel11122411193D

 31 35  0  0  1  0  0  0  0  0999 V2000
  191.7920  177.3740  140.5390 C   0  0  0  0  0  0  0  0  0  0  0  0
  189.3610  177.9360  137.6690 C   0  0  2  0  0  3  0  0  0  0  0  0
  189.2730  176.6200  136.9090 C   0  0  0  0  0  0  0  0  0  0  0  0
  190.1630  174.4240  136.3550 C   0  0  0  0  0  0  0  0  0  0  0  0
  189.8970  177.7710  139.0730 C   0  0  0  0  0  0  0  0  0  0  0  0
  190.9390  177.3560  141.6450 C   0  0  0  0  0  3  0  0  0  0  0  0
  190.2380  175.6140  137.0830 C   0  0  0  0  0  3  0  0  0  0  0  0
  187.0410  178.0120  138.6510 C   0  0  2  0  0  3  0  0  0  0  0  0
  193.1230  177.1860  140.7070 F   0  0  0  0  0  0  0  0  0  0  0  0
  187.3020  177.4270  135.7230 O   0  0  0  0  0  0  0  0  0  0  0  0
  191.1840  173.3640  136.5620 C   0  0  0  0  0  1  0  0  0  0  0  0
  187.5780  178.1000  140.0790 C   0  0  0  0  0  2  0  0  0  0  0  0
  188.0140  178.6880  137.6770 C   0  0  2  0  0  3  0  0  0  0  0  0
  191.2730  177.5830  139.2600 C   0  0  0  0  0  3  0  0  0  0  0  0
  189.1320  174.2320  135.4340 C   0  0  0  0  0  3  0  0  0  0  0  0
  189.0360  177.7570  140.1950 C   0  0  0  0  0  0  0  0  0  0  0  0
  189.5680  177.5560  141.4720 C   0  0  0  0  0  3  0  0  0  0  0  0
  187.4500  178.7420  136.2560 C   0  0  0  0  0  2  0  0  0  0  0  0
  188.2550  176.4310  135.9500 C   0  0  0  0  0  0  0  0  0  0  0  0
  188.1800  175.2340  135.2320 C   0  0  0  0  0  3  0  0  0  0  0  0
  184.6010  176.6990  137.9810 O   0  0  0  0  0  0  0  0  0  0  0  0
  184.5450  177.9300  138.2510 C   0  0  0  0  0  0  0  0  0  0  0  0
  185.7320  178.6490  138.5880 N   0  0  0  0  0  2  0  0  0  0  0  0
  181.0580  177.1190  139.4710 C   0  0  1  0  0  3  0  0  0  0  0  0
  182.7220  178.9950  139.6140 C   0  0  0  0  0  2  0  0  0  0  0  0
  182.6190  177.5990  135.9850 C   0  0  0  0  0  1  0  0  0  0  0  0
  180.5720  175.9870  140.1220 O   0  0  0  0  0  1  0  0  0  0  0  0
  182.1590  177.7570  140.3150 C   0  0  0  0  0  2  0  0  0  0  0  0
  182.1440  177.9560  137.3830 C   0  0  2  0  0  3  0  0  0  0  0  0
  183.2350  178.6650  138.2090 C   0  0  2  0  0  3  0  0  0  0  0  0
  181.6000  176.7240  138.1010 C   0  0  0  0  0  2  0  0  0  0  0  0
  1  9  1  0  0  0  0
  1  6  1  0  0  0  0
  2  3  1  1  0  0  0
  2 13  1  0  0  0  0
  2  5  1  0  0  0  0
  3  7  1  0  0  0  0
  4 11  1  0  0  0  0
  4  7  2  0  0  0  0
  5 14  1  0  0  0  0
  5 16  2  0  0  0  0
  8 23  1  1  0  0  0
  8 12  1  0  0  0  0
 10 19  1  0  0  0  0
 10 18  1  0  0  0  0
 12 16  1  0  0  0  0
 13 18  1  6  0  0  0
 13  8  1  0  0  0  0
 14  1  2  0  0  0  0
 15  4  1  0  0  0  0
 16 17  1  0  0  0  0
 17  6  2  0  0  0  0
 19  3  2  0  0  0  0
 20 15  2  0  0  0  0
 20 19  1  0  0  0  0
 21 22  2  0  0  0  0
 22 23  1  0  0  0  0
 24 27  1  1  0  0  0
 24 28  1  0  0  0  0
 25 28  1  0  0  0  0
 29 26  1  6  0  0  0
 29 31  1  0  0  0  0
 29 30  1  0  0  0  0
 30 22  1  1  0  0  0
 30 25  1  0  0  0  0
 31 24  1  0  0  0  0
M  END
>  <MODEL>
9

>  <REMARK>
 VINA RESULT:      -6.7      3.653      6.281
  Name = 
  2 active torsions:
  status: ('A' for Active; 'I' for Inactive)
    1  A    between atoms: C_5  and  C_30
    2  A    between atoms: C_10  and  N_16
                            x       y       z     vdW  Elec       q    Type
                         _______ _______ _______ _____ _____    ______ ____

>  <TORSDO>
F 2

$$$$
