=
 OpenBabel11122411153D

 31 35  0  0  1  0  0  0  0  0999 V2000
  189.8780  176.1320  142.7380 C   0  0  0  0  0  0  0  0  0  0  0  0
  186.4730  177.3010  143.9740 C   0  0  2  0  0  3  0  0  0  0  0  0
  186.7350  178.2480  145.1740 C   0  0  2  0  0  3  0  0  0  0  0  0
  187.9070  178.2960  147.4300 C   0  0  0  0  0  0  0  0  0  0  0  0
  187.6950  177.1360  143.0950 C   0  0  0  0  0  0  0  0  0  0  0  0
  190.0270  176.8600  141.5570 C   0  0  0  0  0  3  0  0  0  0  0  0
  187.8490  177.6660  146.0640 C   0  0  0  0  0  2  0  0  0  0  0  0
  185.6310  179.0180  142.3290 C   0  0  2  0  0  3  0  0  0  0  0  0
  190.8850  175.2720  143.1560 O   0  0  0  0  0  1  0  0  0  0  0  0
  184.4480  178.9950  145.1520 C   0  0  0  0  0  2  0  0  0  0  0  0
  189.0100  177.9140  148.3550 C   0  0  0  0  0  1  0  0  0  0  0  0
  186.7280  178.6890  141.3180 C   0  0  0  0  0  2  0  0  0  0  0  0
  185.2650  177.7680  143.1440 C   0  0  2  0  0  3  0  0  0  0  0  0
  188.7160  176.2680  143.5010 C   0  0  0  0  0  3  0  0  0  0  0  0
  186.9200  179.0760  147.8800 C   0  0  0  0  0  3  0  0  0  0  0  0
  187.8450  177.8670  141.8940 C   0  0  0  0  0  0  0  0  0  0  0  0
  189.0090  177.7160  141.1320 C   0  0  0  0  0  3  0  0  0  0  0  0
  184.0660  178.0110  144.0560 C   0  0  0  0  0  2  0  0  0  0  0  0
  185.5140  178.4440  145.9830 N   0  0  2  0  0  0  0  0  0  0  0  0
  185.7930  179.4820  146.9750 C   0  0  0  0  0  2  0  0  0  0  0  0
  183.8560  177.4490  140.7420 O   0  0  0  0  0  0  0  0  0  0  0  0
  183.6090  178.6820  140.8460 C   0  0  0  0  0  0  0  0  0  0  0  0
  184.4620  179.5250  141.6220 N   0  0  0  0  0  2  0  0  0  0  0  0
  180.1240  177.4400  140.0610 C   0  0  1  0  0  3  0  0  0  0  0  0
  181.2280  179.4490  141.0890 C   0  0  0  0  0  2  0  0  0  0  0  0
  183.1770  178.3610  137.9030 C   0  0  0  0  0  1  0  0  0  0  0  0
  179.5200  176.2160  140.3390 O   0  0  0  0  0  1  0  0  0  0  0  0
  180.5460  178.1080  141.3670 C   0  0  0  0  0  2  0  0  0  0  0  0
  182.0120  178.5520  138.8600 C   0  0  2  0  0  3  0  0  0  0  0  0
  182.4250  179.2880  140.1470 C   0  0  2  0  0  3  0  0  0  0  0  0
  181.3370  177.2160  139.1620 C   0  0  0  0  0  2  0  0  0  0  0  0
  1  9  1  0  0  0  0
  1 14  1  0  0  0  0
  2  5  1  6  0  0  0
  2  3  1  0  0  0  0
  3 19  1  0  0  0  0
  3  7  1  1  0  0  0
  4 15  2  0  0  0  0
  4 11  1  0  0  0  0
  5 14  2  0  0  0  0
  6  1  2  0  0  0  0
  7  4  1  0  0  0  0
  8 23  1  6  0  0  0
  8 13  1  0  0  0  0
 12 16  1  0  0  0  0
 12  8  1  0  0  0  0
 13  2  1  0  0  0  0
 13 18  1  1  0  0  0
 16  5  1  0  0  0  0
 17  6  1  0  0  0  0
 17 16  2  0  0  0  0
 18 10  1  0  0  0  0
 19 10  1  6  0  0  0
 19 20  1  0  0  0  0
 20 15  1  0  0  0  0
 21 22  2  0  0  0  0
 22 23  1  0  0  0  0
 24 27  1  1  0  0  0
 24 28  1  0  0  0  0
 25 28  1  0  0  0  0
 29 26  1  6  0  0  0
 29 31  1  0  0  0  0
 29 30  1  0  0  0  0
 30 22  1  1  0  0  0
 30 25  1  0  0  0  0
 31 24  1  0  0  0  0
M  END
>  <MODEL>
1

>  <REMARK>
 VINA RESULT:      -9.0      0.000      0.000
  Name = 
  2 active torsions:
  status: ('A' for Active; 'I' for Inactive)
    1  A    between atoms: C_5  and  C_30
    2  A    between atoms: C_10  and  N_16
                            x       y       z     vdW  Elec       q    Type
                         _______ _______ _______ _____ _____    ______ ____

>  <TORSDO>
F 2

$$$$
=
 OpenBabel11122411153D

 31 35  0  0  1  0  0  0  0  0999 V2000
  190.4530  176.1470  142.9740 C   0  0  0  0  0  0  0  0  0  0  0  0
  186.8360  177.2200  143.4790 C   0  0  2  0  0  3  0  0  0  0  0  0
  186.8170  178.1560  144.7160 C   0  0  2  0  0  3  0  0  0  0  0  0
  187.4900  178.1980  147.1680 C   0  0  0  0  0  0  0  0  0  0  0  0
  188.2180  177.0960  142.8740 C   0  0  0  0  0  0  0  0  0  0  0  0
  190.8270  176.8940  141.8570 C   0  0  0  0  0  3  0  0  0  0  0  0
  187.7340  177.5870  145.8140 C   0  0  0  0  0  2  0  0  0  0  0  0
  186.3130  178.9400  141.7100 C   0  0  2  0  0  3  0  0  0  0  0  0
  191.3720  175.3050  143.5850 O   0  0  0  0  0  1  0  0  0  0  0  0
  184.5670  178.8500  144.2220 C   0  0  0  0  0  2  0  0  0  0  0  0
  188.3840  177.8290  148.3000 C   0  0  0  0  0  1  0  0  0  0  0  0
  187.6060  178.6510  140.9490 C   0  0  0  0  0  2  0  0  0  0  0  0
  185.8170  177.6700  142.4190 C   0  0  2  0  0  3  0  0  0  0  0  0
  189.1540  176.2450  143.4780 C   0  0  0  0  0  3  0  0  0  0  0  0
  186.4100  178.9490  147.4080 C   0  0  0  0  0  3  0  0  0  0  0  0
  188.5990  177.8470  141.7380 C   0  0  0  0  0  0  0  0  0  0  0  0
  189.8990  177.7340  141.2360 C   0  0  0  0  0  3  0  0  0  0  0  0
  184.4480  177.8730  143.0620 C   0  0  0  0  0  2  0  0  0  0  0  0
  185.4490  178.3120  145.2530 N   0  0  2  0  0  0  0  0  0  0  0  0
  185.4880  179.3420  146.2900 C   0  0  0  0  0  2  0  0  0  0  0  0
  185.5640  177.6650  139.2720 O   0  0  0  0  0  0  0  0  0  0  0  0
  184.9740  178.7390  139.5740 C   0  0  0  0  0  0  0  0  0  0  0  0
  185.3060  179.4310  140.7780 N   0  0  0  0  0  2  0  0  0  0  0  0
  181.2580  178.1550  139.1790 C   0  0  1  0  0  3  0  0  0  0  0  0
  182.8510  180.0790  139.4510 C   0  0  0  0  0  2  0  0  0  0  0  0
  184.3140  177.5020  136.9310 C   0  0  0  0  0  1  0  0  0  0  0  0
  180.4050  177.2890  139.8600 O   0  0  0  0  0  1  0  0  0  0  0  0
  181.8960  179.1250  140.1720 C   0  0  0  0  0  2  0  0  0  0  0  0
  183.2800  178.2890  137.7180 C   0  0  2  0  0  3  0  0  0  0  0  0
  183.9240  179.3160  138.6670 C   0  0  2  0  0  3  0  0  0  0  0  0
  182.3340  177.3470  138.4590 C   0  0  0  0  0  2  0  0  0  0  0  0
  1 14  1  0  0  0  0
  1  9  1  0  0  0  0
  2  5  1  6  0  0  0
  2  3  1  0  0  0  0
  3 19  1  0  0  0  0
  3  7  1  1  0  0  0
  4 15  2  0  0  0  0
  4 11  1  0  0  0  0
  5 14  2  0  0  0  0
  6  1  2  0  0  0  0
  7  4  1  0  0  0  0
  8 23  1  6  0  0  0
  8 13  1  0  0  0  0
 12  8  1  0  0  0  0
 12 16  1  0  0  0  0
 13 18  1  1  0  0  0
 13  2  1  0  0  0  0
 16  5  1  0  0  0  0
 17 16  2  0  0  0  0
 17  6  1  0  0  0  0
 18 10  1  0  0  0  0
 19 10  1  6  0  0  0
 19 20  1  0  0  0  0
 20 15  1  0  0  0  0
 21 22  2  0  0  0  0
 22 23  1  0  0  0  0
 24 27  1  1  0  0  0
 24 28  1  0  0  0  0
 25 28  1  0  0  0  0
 29 26  1  1  0  0  0
 29 31  1  0  0  0  0
 29 30  1  0  0  0  0
 30 25  1  0  0  0  0
 30 22  1  1  0  0  0
 31 24  1  0  0  0  0
M  END
>  <MODEL>
2

>  <REMARK>
 VINA RESULT:      -9.0      1.024      1.241
  Name = 
  2 active torsions:
  status: ('A' for Active; 'I' for Inactive)
    1  A    between atoms: C_5  and  C_30
    2  A    between atoms: C_10  and  N_16
                            x       y       z     vdW  Elec       q    Type
                         _______ _______ _______ _____ _____    ______ ____

>  <TORSDO>
F 2

$$$$
=
 OpenBabel11122411153D

 31 35  0  0  1  0  0  0  0  0999 V2000
  191.2960  176.2750  144.0330 C   0  0  0  0  0  0  0  0  0  0  0  0
  187.5860  177.0890  143.7870 C   0  0  2  0  0  3  0  0  0  0  0  0
  187.2690  178.0760  144.9420 C   0  0  2  0  0  3  0  0  0  0  0  0
  187.4560  178.2780  147.4690 C   0  0  0  0  0  0  0  0  0  0  0  0
  189.0640  177.0450  143.4610 C   0  0  0  0  0  0  0  0  0  0  0  0
  191.8270  176.9990  142.9640 C   0  0  0  0  0  3  0  0  0  0  0  0
  187.9950  177.6280  146.2240 C   0  0  0  0  0  2  0  0  0  0  0  0
  187.2990  178.6840  141.8540 C   0  0  2  0  0  3  0  0  0  0  0  0
  192.1350  175.5340  144.8540 O   0  0  0  0  0  1  0  0  0  0  0  0
  185.1140  178.5730  143.9940 C   0  0  0  0  0  2  0  0  0  0  0  0
  188.1390  178.0290  148.7690 C   0  0  0  0  0  1  0  0  0  0  0  0
  188.7300  178.4610  141.3670 C   0  0  0  0  0  2  0  0  0  0  0  0
  186.7620  177.4130  142.5300 C   0  0  2  0  0  3  0  0  0  0  0  0
  189.9210  176.2960  144.2770 C   0  0  0  0  0  3  0  0  0  0  0  0
  186.3020  178.9550  147.4590 C   0  0  0  0  0  3  0  0  0  0  0  0
  189.6040  177.7720  142.3740 C   0  0  0  0  0  0  0  0  0  0  0  0
  190.9810  177.7360  142.1320 C   0  0  0  0  0  3  0  0  0  0  0  0
  185.2850  177.5390  142.8920 C   0  0  0  0  0  2  0  0  0  0  0  0
  185.8160  178.1500  145.2020 N   0  0  2  0  0  0  0  0  0  0  0  0
  185.5870  179.2250  146.1670 C   0  0  0  0  0  2  0  0  0  0  0  0
  187.3790  177.4700  139.2760 O   0  0  0  0  0  0  0  0  0  0  0  0
  186.5460  178.4010  139.4560 C   0  0  0  0  0  0  0  0  0  0  0  0
  186.4580  179.0550  140.7230 N   0  0  0  0  0  2  0  0  0  0  0  0
  184.2460  176.5760  137.0710 C   0  0  1  0  0  3  0  0  0  0  0  0
  184.1710  178.5360  138.6410 C   0  0  0  0  0  2  0  0  0  0  0  0
  187.5000  178.5870  136.6270 C   0  0  0  0  0  1  0  0  0  0  0  0
  183.9720  175.2160  136.9470 O   0  0  0  0  0  1  0  0  0  0  0  0
  183.8660  177.0460  138.4730 C   0  0  0  0  0  2  0  0  0  0  0  0
  186.0420  178.3090  136.9560 C   0  0  2  0  0  3  0  0  0  0  0  0
  185.6420  178.8470  138.3420 C   0  0  2  0  0  3  0  0  0  0  0  0
  185.7300  176.8220  136.8120 C   0  0  0  0  0  2  0  0  0  0  0  0
  1 14  1  0  0  0  0
  1  9  1  0  0  0  0
  2  5  1  6  0  0  0
  2  3  1  0  0  0  0
  3 19  1  0  0  0  0
  3  7  1  1  0  0  0
  4 11  1  0  0  0  0
  5 14  2  0  0  0  0
  6  1  2  0  0  0  0
  7  4  1  0  0  0  0
  8 23  1  6  0  0  0
  8 13  1  0  0  0  0
 12  8  1  0  0  0  0
 12 16  1  0  0  0  0
 13 18  1  1  0  0  0
 13  2  1  0  0  0  0
 15  4  2  0  0  0  0
 16  5  1  0  0  0  0
 17 16  2  0  0  0  0
 17  6  1  0  0  0  0
 18 10  1  0  0  0  0
 19 10  1  6  0  0  0
 19 20  1  0  0  0  0
 20 15  1  0  0  0  0
 21 22  2  0  0  0  0
 22 23  1  0  0  0  0
 24 27  1  1  0  0  0
 24 28  1  0  0  0  0
 28 25  1  0  0  0  0
 29 26  1  1  0  0  0
 29 30  1  0  0  0  0
 30 25  1  0  0  0  0
 30 22  1  1  0  0  0
 31 29  1  0  0  0  0
 31 24  1  0  0  0  0
M  END
>  <MODEL>
3

>  <REMARK>
 VINA RESULT:      -8.6      2.212      2.840
  Name = 
  2 active torsions:
  status: ('A' for Active; 'I' for Inactive)
    1  A    between atoms: C_5  and  C_30
    2  A    between atoms: C_10  and  N_16
                            x       y       z     vdW  Elec       q    Type
                         _______ _______ _______ _____ _____    ______ ____

>  <TORSDO>
F 2

$$$$
=
 OpenBabel11122411153D

 31 35  0  0  1  0  0  0  0  0999 V2000
  193.7270  175.0140  135.7970 C   0  0  0  0  0  0  0  0  0  0  0  0
  190.3860  176.3950  136.9890 C   0  0  2  0  0  3  0  0  0  0  0  0
  189.4130  175.1900  137.0820 C   0  0  2  0  0  3  0  0  0  0  0  0
  188.4700  173.3030  135.6630 C   0  0  0  0  0  0  0  0  0  0  0  0
  191.8370  175.9620  136.9940 C   0  0  0  0  0  0  0  0  0  0  0  0
  194.4940  175.0560  136.9620 C   0  0  0  0  0  3  0  0  0  0  0  0
  189.6070  174.2690  135.8640 C   0  0  0  0  0  2  0  0  0  0  0  0
  190.6130  176.8740  139.4550 C   0  0  2  0  0  3  0  0  0  0  0  0
  194.2760  174.5200  134.6220 O   0  0  0  0  0  1  0  0  0  0  0  0
  187.8060  176.5140  138.2890 C   0  0  0  0  0  2  0  0  0  0  0  0
  188.5780  172.2720  134.5940 C   0  0  0  0  0  1  0  0  0  0  0  0
  192.1280  176.6750  139.4250 C   0  0  0  0  0  2  0  0  0  0  0  0
  190.1210  177.4190  138.1060 C   0  0  2  0  0  3  0  0  0  0  0  0
  192.4060  175.4680  135.8130 C   0  0  0  0  0  3  0  0  0  0  0  0
  187.3160  173.4390  136.3230 C   0  0  0  0  0  3  0  0  0  0  0  0
  192.6190  176.0100  138.1710 C   0  0  0  0  0  0  0  0  0  0  0  0
  193.9440  175.5620  138.1420 C   0  0  0  0  0  3  0  0  0  0  0  0
  188.6380  177.7800  138.1420 C   0  0  0  0  0  2  0  0  0  0  0  0
  188.0060  175.6380  137.1380 N   0  0  2  0  0  0  0  0  0  0  0  0
  187.1720  174.4670  137.4080 C   0  0  0  0  0  2  0  0  0  0  0  0
  190.0730  176.1230  142.1520 O   0  0  0  0  0  0  0  0  0  0  0  0
  190.0170  177.3500  141.8660 C   0  0  0  0  0  0  0  0  0  0  0  0
  190.2710  177.7930  140.5320 N   0  0  0  0  0  2  0  0  0  0  0  0
  190.5710  177.5360  145.6030 C   0  0  1  0  0  3  0  0  0  0  0  0
  190.9190  178.9670  143.5670 C   0  0  0  0  0  2  0  0  0  0  0  0
  187.4400  177.2350  143.3820 C   0  0  0  0  0  1  0  0  0  0  0  0
  191.1850  176.6340  146.4690 O   0  0  0  0  0  1  0  0  0  0  0  0
  191.5730  177.9850  144.5420 C   0  0  0  0  0  2  0  0  0  0  0  0
  188.6900  177.8500  143.9890 C   0  0  2  0  0  3  0  0  0  0  0  0
  189.6680  178.3660  142.9170 C   0  0  2  0  0  3  0  0  0  0  0  0
  189.3640  176.8710  144.9470 C   0  0  0  0  0  2  0  0  0  0  0  0
  1 14  2  0  0  0  0
  1  6  1  0  0  0  0
  2  5  1  1  0  0  0
  2  3  1  0  0  0  0
  2 13  1  0  0  0  0
  3  7  1  6  0  0  0
  3 19  1  0  0  0  0
  4  7  1  0  0  0  0
  4 15  2  0  0  0  0
  5 16  2  0  0  0  0
  6 17  2  0  0  0  0
  8 23  1  1  0  0  0
  9  1  1  0  0  0  0
 11  4  1  0  0  0  0
 12  8  1  0  0  0  0
 13 18  1  1  0  0  0
 13  8  1  0  0  0  0
 14  5  1  0  0  0  0
 15 20  1  0  0  0  0
 16 12  1  0  0  0  0
 17 16  1  0  0  0  0
 18 10  1  0  0  0  0
 19 20  1  1  0  0  0
 19 10  1  0  0  0  0
 22 21  2  0  0  0  0
 23 22  1  0  0  0  0
 24 27  1  1  0  0  0
 25 28  1  0  0  0  0
 28 24  1  0  0  0  0
 29 26  1  6  0  0  0
 29 31  1  0  0  0  0
 30 22  1  6  0  0  0
 30 25  1  0  0  0  0
 30 29  1  0  0  0  0
 31 24  1  0  0  0  0
M  END
>  <MODEL>
4

>  <REMARK>
 VINA RESULT:      -8.1      4.919      9.196
  Name = 
  2 active torsions:
  status: ('A' for Active; 'I' for Inactive)
    1  A    between atoms: C_5  and  C_30
    2  A    between atoms: C_10  and  N_16
                            x       y       z     vdW  Elec       q    Type
                         _______ _______ _______ _____ _____    ______ ____

>  <TORSDO>
F 2

$$$$
=
 OpenBabel11122411153D

 31 35  0  0  1  0  0  0  0  0999 V2000
  184.6830  178.9110  139.5070 C   0  0  0  0  0  0  0  0  0  0  0  0
  188.4260  178.2520  139.7220 C   0  0  2  0  0  3  0  0  0  0  0  0
  188.6350  177.2400  140.8790 C   0  0  2  0  0  3  0  0  0  0  0  0
  188.1340  176.9430  143.3540 C   0  0  0  0  0  0  0  0  0  0  0  0
  187.0020  178.2500  139.2080 C   0  0  0  0  0  0  0  0  0  0  0  0
  184.3270  178.2050  138.3580 C   0  0  0  0  0  3  0  0  0  0  0  0
  187.7310  177.6140  142.0680 C   0  0  0  0  0  2  0  0  0  0  0  0
  189.0290  176.7380  137.7970 C   0  0  2  0  0  3  0  0  0  0  0  0
  183.7140  179.5900  140.2330 O   0  0  0  0  0  1  0  0  0  0  0  0
  190.9140  176.8610  140.2060 C   0  0  0  0  0  2  0  0  0  0  0  0
  187.2780  177.1200  144.5600 C   0  0  0  0  0  1  0  0  0  0  0  0
  187.6650  176.9210  137.1350 C   0  0  0  0  0  2  0  0  0  0  0  0
  189.4190  178.0050  138.5740 C   0  0  2  0  0  3  0  0  0  0  0  0
  186.0150  178.9360  139.9280 C   0  0  0  0  0  3  0  0  0  0  0  0
  189.3070  176.3130  143.4730 C   0  0  0  0  0  3  0  0  0  0  0  0
  186.6390  177.5400  138.0400 C   0  0  0  0  0  0  0  0  0  0  0  0
  185.3040  177.5300  137.6220 C   0  0  0  0  0  3  0  0  0  0  0  0
  190.8410  177.9250  139.1210 C   0  0  0  0  0  2  0  0  0  0  0  0
  190.0440  177.2140  141.3240 N   0  0  2  0  0  0  0  0  0  0  0  0
  190.1940  176.1160  142.2780 C   0  0  0  0  0  2  0  0  0  0  0  0
  190.5840  174.3520  137.6560 O   0  0  0  0  0  0  0  0  0  0  0  0
  190.7660  175.2210  136.7590 C   0  0  0  0  0  0  0  0  0  0  0  0
  190.0240  176.4410  136.7740 N   0  0  0  0  0  2  0  0  0  0  0  0
  193.3460  172.5340  136.1040 C   0  0  1  0  0  3  0  0  0  0  0  0
  191.4900  173.7080  134.8850 C   0  0  0  0  0  2  0  0  0  0  0  0
  193.5550  176.2860  136.9410 C   0  0  0  0  0  1  0  0  0  0  0  0
  193.6720  171.3980  136.8440 O   0  0  0  0  0  1  0  0  0  0  0  0
  191.8790  172.4640  135.6870 C   0  0  0  0  0  2  0  0  0  0  0  0
  193.2370  175.0290  136.1480 C   0  0  2  0  0  3  0  0  0  0  0  0
  191.7750  174.9950  135.6680 C   0  0  2  0  0  3  0  0  0  0  0  0
  193.6010  173.7800  136.9470 C   0  0  0  0  0  2  0  0  0  0  0  0
  1 14  1  0  0  0  0
  1  9  1  0  0  0  0
  2  5  1  6  0  0  0
  2  3  1  0  0  0  0
  3 19  1  0  0  0  0
  3  7  1  1  0  0  0
  4 15  2  0  0  0  0
  4 11  1  0  0  0  0
  5 14  2  0  0  0  0
  6  1  2  0  0  0  0
  7  4  1  0  0  0  0
  8 23  1  6  0  0  0
  8 13  1  0  0  0  0
 12  8  1  0  0  0  0
 12 16  1  0  0  0  0
 13 18  1  1  0  0  0
 13  2  1  0  0  0  0
 16  5  1  0  0  0  0
 17 16  2  0  0  0  0
 17  6  1  0  0  0  0
 18 10  1  0  0  0  0
 19 10  1  6  0  0  0
 19 20  1  0  0  0  0
 20 15  1  0  0  0  0
 22 23  1  0  0  0  0
 22 21  2  0  0  0  0
 24 27  1  1  0  0  0
 24 31  1  0  0  0  0
 25 30  1  0  0  0  0
 25 28  1  0  0  0  0
 28 24  1  0  0  0  0
 29 26  1  1  0  0  0
 29 31  1  0  0  0  0
 30 29  1  0  0  0  0
 30 22  1  1  0  0  0
M  END
>  <MODEL>
5

>  <REMARK>
 VINA RESULT:      -8.0      4.551      8.614
  Name = 
  2 active torsions:
  status: ('A' for Active; 'I' for Inactive)
    1  A    between atoms: C_5  and  C_30
    2  A    between atoms: C_10  and  N_16
                            x       y       z     vdW  Elec       q    Type
                         _______ _______ _______ _____ _____    ______ ____

>  <TORSDO>
F 2

$$$$
=
 OpenBabel11122411153D

 31 35  0  0  1  0  0  0  0  0999 V2000
  189.1420  177.9060  143.8400 C   0  0  0  0  0  0  0  0  0  0  0  0
  186.8730  178.8390  140.9300 C   0  0  2  0  0  3  0  0  0  0  0  0
  187.1260  177.7910  139.8140 C   0  0  2  0  0  3  0  0  0  0  0  0
  189.0120  176.8080  138.4220 C   0  0  0  0  0  0  0  0  0  0  0  0
  187.3250  178.3500  142.2890 C   0  0  0  0  0  0  0  0  0  0  0  0
  188.2370  177.3700  144.7570 C   0  0  0  0  0  3  0  0  0  0  0  0
  188.6330  177.5000  139.7040 C   0  0  0  0  0  2  0  0  0  0  0  0
  184.5300  178.1480  141.5580 C   0  0  2  0  0  3  0  0  0  0  0  0
  190.4950  177.9530  144.1460 O   0  0  0  0  0  1  0  0  0  0  0  0
  185.1910  178.5450  138.5960 C   0  0  0  0  0  2  0  0  0  0  0  0
  190.4200  176.3580  138.2320 C   0  0  0  0  0  1  0  0  0  0  0  0
  184.9250  177.8780  143.0090 C   0  0  0  0  0  2  0  0  0  0  0  0
  185.3980  179.2710  140.9700 C   0  0  2  0  0  3  0  0  0  0  0  0
  188.6870  178.3970  142.6140 C   0  0  0  0  0  3  0  0  0  0  0  0
  188.1550  176.7150  137.4000 C   0  0  0  0  0  3  0  0  0  0  0  0
  186.4100  177.8110  143.2230 C   0  0  0  0  0  0  0  0  0  0  0  0
  186.8750  177.3320  144.4520 C   0  0  0  0  0  3  0  0  0  0  0  0
  184.9340  179.6800  139.5750 C   0  0  0  0  0  2  0  0  0  0  0  0
  186.6210  178.2630  138.5070 N   0  0  2  0  0  0  0  0  0  0  0  0
  186.7290  177.1570  137.5570 C   0  0  0  0  0  2  0  0  0  0  0  0
  182.5430  176.8060  140.0160 O   0  0  0  0  0  0  0  0  0  0  0  0
  182.1740  177.7910  140.7120 C   0  0  0  0  0  0  0  0  0  0  0  0
  183.1200  178.5110  141.5030 N   0  0  0  0  0  2  0  0  0  0  0  0
  179.0890  176.6410  138.8500 C   0  0  1  0  0  3  0  0  0  0  0  0
  179.8000  177.1280  141.2100 C   0  0  0  0  0  2  0  0  0  0  0  0
  181.1660  179.8830  138.8260 C   0  0  0  0  0  1  0  0  0  0  0  0
  178.9330  175.6320  137.9020 O   0  0  0  0  0  1  0  0  0  0  0  0
  179.6050  176.0380  140.1540 C   0  0  0  0  0  2  0  0  0  0  0  0
  180.2540  178.7910  139.3600 C   0  0  2  0  0  3  0  0  0  0  0  0
  180.7380  178.2340  140.7110 C   0  0  2  0  0  3  0  0  0  0  0  0
  180.0690  177.6860  138.3230 C   0  0  0  0  0  2  0  0  0  0  0  0
  1  9  1  0  0  0  0
  1  6  1  0  0  0  0
  2 13  1  0  0  0  0
  2  5  1  1  0  0  0
  3  7  1  6  0  0  0
  3  2  1  0  0  0  0
  4  7  1  0  0  0  0
  5 14  1  0  0  0  0
  5 16  2  0  0  0  0
  8 23  1  1  0  0  0
  8 12  1  0  0  0  0
 10 18  1  0  0  0  0
 11  4  1  0  0  0  0
 12 16  1  0  0  0  0
 13 18  1  6  0  0  0
 13  8  1  0  0  0  0
 14  1  2  0  0  0  0
 15 20  1  0  0  0  0
 15  4  2  0  0  0  0
 16 17  1  0  0  0  0
 17  6  2  0  0  0  0
 19 20  1  6  0  0  0
 19 10  1  0  0  0  0
 19  3  1  0  0  0  0
 21 22  2  0  0  0  0
 22 23  1  0  0  0  0
 24 27  1  6  0  0  0
 24 28  1  0  0  0  0
 28 25  1  0  0  0  0
 29 26  1  6  0  0  0
 29 30  1  0  0  0  0
 30 22  1  6  0  0  0
 30 25  1  0  0  0  0
 31 24  1  0  0  0  0
 31 29  1  0  0  0  0
M  END
>  <MODEL>
6

>  <REMARK>
 VINA RESULT:      -7.9      2.159      4.852
  Name = 
  2 active torsions:
  status: ('A' for Active; 'I' for Inactive)
    1  A    between atoms: C_5  and  C_30
    2  A    between atoms: C_10  and  N_16
                            x       y       z     vdW  Elec       q    Type
                         _______ _______ _______ _____ _____    ______ ____

>  <TORSDO>
F 2

$$$$
=
 OpenBabel11122411153D

 31 35  0  0  1  0  0  0  0  0999 V2000
  188.7970  177.9920  143.6960 C   0  0  0  0  0  0  0  0  0  0  0  0
  186.5940  178.9190  140.7340 C   0  0  2  0  0  3  0  0  0  0  0  0
  186.8820  177.8780  139.6210 C   0  0  2  0  0  3  0  0  0  0  0  0
  188.8100  176.9150  138.2720 C   0  0  0  0  0  0  0  0  0  0  0  0
  187.0160  178.4270  142.1030 C   0  0  0  0  0  0  0  0  0  0  0  0
  187.8740  177.4440  144.5880 C   0  0  0  0  0  3  0  0  0  0  0  0
  188.3940  177.5980  139.5470 C   0  0  0  0  0  2  0  0  0  0  0  0
  184.2410  178.2070  141.3020 C   0  0  2  0  0  3  0  0  0  0  0  0
  190.1420  178.0470  144.0360 O   0  0  0  0  0  1  0  0  0  0  0  0
  184.9720  178.6210  138.3590 C   0  0  0  0  0  2  0  0  0  0  0  0
  190.2250  176.4770  138.1150 C   0  0  0  0  0  1  0  0  0  0  0  0
  184.6020  177.9340  142.7610 C   0  0  0  0  0  2  0  0  0  0  0  0
  185.1140  179.3390  140.7400 C   0  0  2  0  0  3  0  0  0  0  0  0
  188.3690  178.4830  142.4610 C   0  0  0  0  0  3  0  0  0  0  0  0
  187.9790  176.8200  137.2290 C   0  0  0  0  0  3  0  0  0  0  0  0
  186.0820  177.8780  143.0110 C   0  0  0  0  0  0  0  0  0  0  0  0
  186.5200  177.3970  144.2490 C   0  0  0  0  0  3  0  0  0  0  0  0
  184.6820  179.7510  139.3350 C   0  0  0  0  0  2  0  0  0  0  0  0
  186.4060  178.3510  138.3040 N   0  0  2  0  0  0  0  0  0  0  0  0
  186.5460  177.2490  137.3530 C   0  0  0  0  0  2  0  0  0  0  0  0
  182.3280  176.9290  139.6190 O   0  0  0  0  0  0  0  0  0  0  0  0
  181.9220  177.8720  140.3510 C   0  0  0  0  0  0  0  0  0  0  0  0
  182.8300  178.5590  141.2130 N   0  0  0  0  0  2  0  0  0  0  0  0
  179.4420  178.8880  143.0200 C   0  0  1  0  0  3  0  0  0  0  0  0
  180.3050  179.7390  140.8190 C   0  0  0  0  0  2  0  0  0  0  0  0
  179.6810  175.9060  140.5980 C   0  0  0  0  0  1  0  0  0  0  0  0
  179.5910  178.9760  144.4030 O   0  0  0  0  0  1  0  0  0  0  0  0
  180.4370  179.8270  142.3410 C   0  0  0  0  0  2  0  0  0  0  0  0
  179.5260  177.3460  141.0570 C   0  0  2  0  0  3  0  0  0  0  0  0
  180.4820  178.3010  140.3200 C   0  0  2  0  0  3  0  0  0  0  0  0
  179.6780  177.4490  142.5730 C   0  0  0  0  0  2  0  0  0  0  0  0
  1  9  1  0  0  0  0
  1  6  1  0  0  0  0
  2 13  1  0  0  0  0
  2  5  1  1  0  0  0
  3  7  1  6  0  0  0
  3  2  1  0  0  0  0
  4  7  1  0  0  0  0
  5 14  1  0  0  0  0
  5 16  2  0  0  0  0
  8 23  1  1  0  0  0
  8 12  1  0  0  0  0
 10 18  1  0  0  0  0
 11  4  1  0  0  0  0
 12 16  1  0  0  0  0
 13 18  1  6  0  0  0
 13  8  1  0  0  0  0
 14  1  2  0  0  0  0
 15 20  1  0  0  0  0
 15  4  2  0  0  0  0
 16 17  1  0  0  0  0
 17  6  2  0  0  0  0
 19 20  1  6  0  0  0
 19 10  1  0  0  0  0
 19  3  1  0  0  0  0
 21 22  2  0  0  0  0
 22 23  1  0  0  0  0
 24 27  1  1  0  0  0
 25 28  1  0  0  0  0
 28 24  1  0  0  0  0
 29 26  1  6  0  0  0
 29 31  1  0  0  0  0
 30 22  1  1  0  0  0
 30 25  1  0  0  0  0
 30 29  1  0  0  0  0
 31 24  1  0  0  0  0
M  END
>  <MODEL>
7

>  <REMARK>
 VINA RESULT:      -7.7      2.257      5.137
  Name = 
  2 active torsions:
  status: ('A' for Active; 'I' for Inactive)
    1  A    between atoms: C_5  and  C_30
    2  A    between atoms: C_10  and  N_16
                            x       y       z     vdW  Elec       q    Type
                         _______ _______ _______ _____ _____    ______ ____

>  <TORSDO>
F 2

$$$$
=
 OpenBabel11122411153D

 31 35  0  0  1  0  0  0  0  0999 V2000
  186.3570  178.0780  138.3800 C   0  0  0  0  0  0  0  0  0  0  0  0
  189.8190  177.8740  139.9470 C   0  0  2  0  0  3  0  0  0  0  0  0
  189.6790  177.0080  141.2270 C   0  0  2  0  0  3  0  0  0  0  0  0
  188.3590  176.8940  143.3960 C   0  0  0  0  0  0  0  0  0  0  0  0
  188.6730  177.6600  138.9810 C   0  0  0  0  0  0  0  0  0  0  0  0
  186.4820  177.2290  137.2800 C   0  0  0  0  0  3  0  0  0  0  0  0
  188.3890  177.3880  141.9750 C   0  0  0  0  0  2  0  0  0  0  0  0
  191.1730  176.2610  138.5590 C   0  0  2  0  0  3  0  0  0  0  0  0
  185.1470  178.7080  138.6360 O   0  0  0  0  0  1  0  0  0  0  0  0
  192.0700  176.8280  141.4300 C   0  0  0  0  0  2  0  0  0  0  0  0
  187.1210  177.0870  144.2030 C   0  0  0  0  0  1  0  0  0  0  0  0
  190.1210  176.2230  137.4520 C   0  0  0  0  0  2  0  0  0  0  0  0
  191.1690  177.6320  139.2510 C   0  0  2  0  0  3  0  0  0  0  0  0
  187.4480  178.2950  139.2240 C   0  0  0  0  0  3  0  0  0  0  0  0
  189.4570  176.4160  143.9910 C   0  0  0  0  0  3  0  0  0  0  0  0
  188.7990  176.8050  137.8620 C   0  0  0  0  0  0  0  0  0  0  0  0
  187.7030  176.6030  137.0170 C   0  0  0  0  0  3  0  0  0  0  0  0
  192.3080  177.7680  140.2580 C   0  0  0  0  0  2  0  0  0  0  0  0
  190.8380  177.1850  142.1270 N   0  0  2  0  0  0  0  0  0  0  0  0
  190.7200  176.2080  143.2080 C   0  0  0  0  0  2  0  0  0  0  0  0
  192.0430  173.7230  137.5940 O   0  0  0  0  0  0  0  0  0  0  0  0
  192.8550  174.6860  137.5160 C   0  0  0  0  0  0  0  0  0  0  0  0
  192.4840  175.9820  137.9870 N   0  0  0  0  0  2  0  0  0  0  0  0
  195.0910  171.6640  137.0930 C   0  0  1  0  0  3  0  0  0  0  0  0
  194.2040  173.5680  135.7130 C   0  0  0  0  0  2  0  0  0  0  0  0
  195.3180  174.8760  139.2040 C   0  0  0  0  0  1  0  0  0  0  0  0
  194.8830  170.3330  137.4480 O   0  0  0  0  0  1  0  0  0  0  0  0
  194.0090  172.1020  136.1090 C   0  0  0  0  0  2  0  0  0  0  0  0
  195.2720  173.9990  137.9640 C   0  0  2  0  0  3  0  0  0  0  0  0
  194.2290  174.4840  136.9410 C   0  0  2  0  0  3  0  0  0  0  0  0
  195.0550  172.5360  138.3450 C   0  0  0  0  0  2  0  0  0  0  0  0
  1  9  1  0  0  0  0
  1 14  1  0  0  0  0
  2  5  1  6  0  0  0
  2  3  1  0  0  0  0
  3  7  1  1  0  0  0
  3 19  1  0  0  0  0
  4 15  2  0  0  0  0
  4 11  1  0  0  0  0
  5 14  2  0  0  0  0
  6  1  2  0  0  0  0
  7  4  1  0  0  0  0
  8 23  1  6  0  0  0
  8 13  1  0  0  0  0
 12 16  1  0  0  0  0
 12  8  1  0  0  0  0
 13  2  1  0  0  0  0
 13 18  1  1  0  0  0
 16  5  1  0  0  0  0
 17  6  1  0  0  0  0
 17 16  2  0  0  0  0
 18 10  1  0  0  0  0
 19 10  1  6  0  0  0
 19 20  1  0  0  0  0
 20 15  1  0  0  0  0
 22 21  2  0  0  0  0
 22 23  1  0  0  0  0
 24 27  1  1  0  0  0
 24 31  1  0  0  0  0
 25 28  1  0  0  0  0
 25 30  1  0  0  0  0
 28 24  1  0  0  0  0
 29 31  1  0  0  0  0
 29 26  1  1  0  0  0
 30 22  1  1  0  0  0
 30 29  1  0  0  0  0
M  END
>  <MODEL>
8

>  <REMARK>
 VINA RESULT:      -7.7      5.025      9.498
  Name = 
  2 active torsions:
  status: ('A' for Active; 'I' for Inactive)
    1  A    between atoms: C_5  and  C_30
    2  A    between atoms: C_10  and  N_16
                            x       y       z     vdW  Elec       q    Type
                         _______ _______ _______ _____ _____    ______ ____

>  <TORSDO>
F 2

$$$$
=
 OpenBabel11122411153D

 31 35  0  0  1  0  0  0  0  0999 V2000
  179.7130  178.1670  142.2760 C   0  0  0  0  0  0  0  0  0  0  0  0
  183.1290  178.9160  140.7740 C   0  0  2  0  0  3  0  0  0  0  0  0
  184.1830  178.3410  141.7560 C   0  0  2  0  0  3  0  0  0  0  0  0
  184.8890  178.4790  144.1950 C   0  0  0  0  0  0  0  0  0  0  0  0
  181.7610  178.3000  140.9760 C   0  0  0  0  0  0  0  0  0  0  0  0
  179.2550  177.1320  141.4600 C   0  0  0  0  0  3  0  0  0  0  0  0
  183.7670  178.6470  143.2060 C   0  0  0  0  0  2  0  0  0  0  0  0
  183.4790  177.2980  138.8710 C   0  0  2  0  0  3  0  0  0  0  0  0
  178.9310  178.6180  143.3310 O   0  0  0  0  0  1  0  0  0  0  0  0
  185.9320  178.6290  140.1280 C   0  0  0  0  0  2  0  0  0  0  0  0
  184.6010  178.6270  145.6490 C   0  0  0  0  0  1  0  0  0  0  0  0
  182.0230  176.8360  138.9050 C   0  0  0  0  0  2  0  0  0  0  0  0
  183.5830  178.7660  139.3120 C   0  0  2  0  0  3  0  0  0  0  0  0
  180.9590  178.7500  142.0330 C   0  0  0  0  0  3  0  0  0  0  0  0
  186.1570  178.3420  143.7920 C   0  0  0  0  0  3  0  0  0  0  0  0
  181.2910  177.2550  140.1470 C   0  0  0  0  0  0  0  0  0  0  0  0
  180.0380  176.6850  140.3940 C   0  0  0  0  0  3  0  0  0  0  0  0
  184.9970  179.3150  139.1440 C   0  0  0  0  0  2  0  0  0  0  0  0
  185.5240  178.9100  141.5010 N   0  0  2  0  0  0  0  0  0  0  0  0
  186.4840  178.1890  142.3350 C   0  0  0  0  0  2  0  0  0  0  0  0
  184.4720  174.8590  137.7790 O   0  0  0  0  0  0  0  0  0  0  0  0
  184.4830  175.8780  137.0350 C   0  0  0  0  0  0  0  0  0  0  0  0
  184.0050  177.1320  137.5220 N   0  0  0  0  0  2  0  0  0  0  0  0
  187.1090  173.7360  135.3550 C   0  0  1  0  0  3  0  0  0  0  0  0
  184.7220  174.4320  134.9920 C   0  0  0  0  0  2  0  0  0  0  0  0
  186.8320  177.4960  136.1320 C   0  0  0  0  0  1  0  0  0  0  0  0
  187.9280  172.7370  135.8800 O   0  0  0  0  0  1  0  0  0  0  0  0
  185.6450  173.3450  135.5460 C   0  0  0  0  0  2  0  0  0  0  0  0
  186.5030  176.1550  135.4980 C   0  0  2  0  0  3  0  0  0  0  0  0
  185.0110  175.7960  135.6300 C   0  0  2  0  0  3  0  0  0  0  0  0
  187.4030  175.0570  136.0600 C   0  0  0  0  0  2  0  0  0  0  0  0
  1  9  1  0  0  0  0
  2  5  1  6  0  0  0
  2  3  1  0  0  0  0
  3  7  1  1  0  0  0
  4 11  1  0  0  0  0
  5 14  2  0  0  0  0
  6  1  2  0  0  0  0
  7  4  1  0  0  0  0
  8 23  1  6  0  0  0
  8 12  1  0  0  0  0
  8 13  1  0  0  0  0
 12 16  1  0  0  0  0
 13 18  1  1  0  0  0
 13  2  1  0  0  0  0
 14  1  1  0  0  0  0
 15  4  2  0  0  0  0
 16 17  2  0  0  0  0
 16  5  1  0  0  0  0
 17  6  1  0  0  0  0
 18 10  1  0  0  0  0
 19 10  1  6  0  0  0
 19  3  1  0  0  0  0
 19 20  1  0  0  0  0
 20 15  1  0  0  0  0
 22 23  1  0  0  0  0
 22 21  2  0  0  0  0
 24 28  1  0  0  0  0
 24 27  1  1  0  0  0
 24 31  1  0  0  0  0
 25 28  1  0  0  0  0
 25 30  1  0  0  0  0
 29 30  1  0  0  0  0
 29 31  1  0  0  0  0
 29 26  1  1  0  0  0
 30 22  1  1  0  0  0
M  END
>  <MODEL>
9

>  <REMARK>
 VINA RESULT:      -7.7      3.343      6.880
  Name = 
  2 active torsions:
  status: ('A' for Active; 'I' for Inactive)
    1  A    between atoms: C_5  and  C_30
    2  A    between atoms: C_10  and  N_16
                            x       y       z     vdW  Elec       q    Type
                         _______ _______ _______ _____ _____    ______ ____

>  <TORSDO>
F 2

$$$$
