=
 OpenBabel11122410303D

 30 35  0  0  1  0  0  0  0  0999 V2000
  186.7760  178.4310  142.7730 C   0  0  2  0  0  3  0  0  0  0  0  0
  185.1940  178.5230  144.7730 C   0  0  0  0  0  0  0  0  0  0  0  0
  183.4120  178.8720  140.2150 N   0  0  0  0  0  2  0  0  0  0  0  0
  186.8990  178.6800  141.2910 N   0  0  1  0  0  0  0  0  0  0  0  0
  187.3940  177.0960  143.2150 C   0  0  0  0  0  2  0  0  0  0  0  0
  189.7400  179.0870  141.9070 O   0  0  0  0  0  1  0  0  0  0  0  0
  187.7370  177.5420  138.1880 C   0  0  1  0  0  3  0  0  0  0  0  0
  189.2490  177.8090  141.6270 C   0  0  1  0  0  3  0  0  0  0  0  0
  186.2140  177.3830  138.2910 C   0  0  2  0  0  3  0  0  0  0  0  0
  184.0550  178.6090  138.9770 C   0  0  0  0  0  0  0  0  0  0  0  0
  188.9000  177.0990  142.9360 C   0  0  2  0  0  3  0  0  0  0  0  0
  188.0160  177.8960  140.7140 C   0  0  2  0  0  3  0  0  0  0  0  0
  183.9140  178.6380  145.3240 C   0  0  0  0  0  3  0  0  0  0  0  0
  185.7950  177.4080  136.8430 C   0  0  0  0  0  2  0  0  0  0  0  0
  188.0480  178.1120  136.9450 O   0  0  0  0  0  0  0  0  0  0  0  0
  186.2500  178.3360  145.6050 F   0  0  0  0  0  0  0  0  0  0  0  0
  184.5080  179.1190  141.1280 C   0  0  2  0  0  3  0  0  0  0  0  0
  182.8090  178.8550  144.4980 C   0  0  0  0  0  3  0  0  0  0  0  0
  185.3790  178.6010  143.3790 C   0  0  0  0  0  0  0  0  0  0  0  0
  185.6520  178.2780  140.6150 C   0  0  1  0  0  3  0  0  0  0  0  0
  183.4160  178.5360  137.8950 O   0  0  0  0  0  0  0  0  0  0  0  0
  185.5500  178.5220  139.0980 C   0  0  1  0  0  3  0  0  0  0  0  0
  187.0790  177.6070  136.0700 C   0  0  0  0  0  2  0  0  0  0  0  0
  189.0390  179.3080  139.1070 O   0  0  0  0  0  0  0  0  0  0  0  0
  182.9820  178.9650  143.1180 C   0  0  0  0  0  3  0  0  0  0  0  0
  184.2560  178.8210  142.5570 C   0  0  0  0  0  0  0  0  0  0  0  0
  188.3470  178.3230  139.3180 C   0  0  0  0  0  0  0  0  0  0  0  0
  189.4310  175.6730  142.9030 C   0  0  0  0  0  2  0  0  0  0  0  0
  191.1480  176.5490  144.4860 C   0  0  0  0  0  1  0  0  0  0  0  0
  190.8930  175.6160  143.3180 C   0  0  0  0  0  2  0  0  0  0  0  0
  1  5  1  6  0  0  0
  1 19  1  0  0  0  0
  2 13  1  0  0  0  0
  2 16  1  0  0  0  0
  3 17  1  0  0  0  0
  4  1  1  0  0  0  0
  7  9  1  0  0  0  0
  7 27  1  0  0  0  0
  8  6  1  0  0  0  0
  8 11  1  0  0  0  0
  9 22  1  0  0  0  0
 10 22  1  0  0  0  0
 10  3  1  0  0  0  0
 11  5  1  0  0  0  0
 12  4  1  0  0  0  0
 12  8  1  0  0  0  0
 14  9  1  0  0  0  0
 15  7  1  0  0  0  0
 17 26  1  0  0  0  0
 18 13  2  0  0  0  0
 19  2  2  0  0  0  0
 20 17  1  0  0  0  0
 20  4  1  0  0  0  0
 21 10  2  0  0  0  0
 22 20  1  0  0  0  0
 23 14  1  0  0  0  0
 23 15  1  0  0  0  0
 24 27  2  0  0  0  0
 25 18  1  0  0  0  0
 26 25  2  0  0  0  0
 26 19  1  0  0  0  0
 27 12  1  0  0  0  0
 28 11  1  0  0  0  0
 28 30  1  0  0  0  0
 30 29  1  0  0  0  0
M  END
>  <MODEL>
1

>  <REMARK>
 VINA RESULT:      -8.4      0.000      0.000
  Name = 
  2 active torsions:
  status: ('A' for Active; 'I' for Inactive)
    1  A    between atoms: C_11  and  C_28
    2  A    between atoms: C_28  and  C_30
                            x       y       z     vdW  Elec       q    Type
                         _______ _______ _______ _____ _____    ______ ____

>  <TORSDO>
F 2

$$$$
=
 OpenBabel11122410303D

 30 35  0  0  1  0  0  0  0  0999 V2000
  186.9100  178.2470  138.3170 C   0  0  2  0  0  3  0  0  0  0  0  0
  188.1710  177.6260  136.1880 C   0  0  0  0  0  0  0  0  0  0  0  0
  190.3630  177.1940  140.5570 N   0  0  0  0  0  2  0  0  0  0  0  0
  187.0520  178.5350  139.7910 N   0  0  1  0  0  0  0  0  0  0  0  0
  185.7340  177.3130  137.9950 C   0  0  0  0  0  2  0  0  0  0  0  0
  184.6240  180.1370  139.3980 O   0  0  0  0  0  1  0  0  0  0  0  0
  186.1090  177.8990  143.0050 C   0  0  1  0  0  3  0  0  0  0  0  0
  184.5360  178.7750  139.6980 C   0  0  1  0  0  3  0  0  0  0  0  0
  187.3950  177.0900  142.7820 C   0  0  2  0  0  3  0  0  0  0  0  0
  189.7940  177.2460  141.8560 C   0  0  0  0  0  0  0  0  0  0  0  0
  184.4130  177.9750  138.3990 C   0  0  2  0  0  3  0  0  0  0  0  0
  185.7670  178.3220  140.4980 C   0  0  2  0  0  3  0  0  0  0  0  0
  189.3150  177.1670  135.5270 C   0  0  0  0  0  3  0  0  0  0  0  0
  187.9220  176.9400  144.1860 C   0  0  0  0  0  2  0  0  0  0  0  0
  186.1990  178.5560  144.2410 O   0  0  0  0  0  0  0  0  0  0  0  0
  187.0640  177.9130  135.4590 F   0  0  0  0  0  0  0  0  0  0  0  0
  189.3990  177.8880  139.7300 C   0  0  2  0  0  3  0  0  0  0  0  0
  190.4790  176.8850  136.2450 C   0  0  0  0  0  3  0  0  0  0  0  0
  188.1760  177.7860  137.5880 C   0  0  0  0  0  0  0  0  0  0  0  0
  188.0600  177.6340  140.3780 C   0  0  1  0  0  3  0  0  0  0  0  0
  190.4390  176.9090  142.8830 O   0  0  0  0  0  0  0  0  0  0  0  0
  188.4050  177.8190  141.8660 C   0  0  1  0  0  3  0  0  0  0  0  0
  186.9330  177.6840  145.0540 C   0  0  0  0  0  2  0  0  0  0  0  0
  185.6190  180.0490  142.1140 O   0  0  0  0  0  0  0  0  0  0  0  0
  190.5060  177.0690  137.6270 C   0  0  0  0  0  3  0  0  0  0  0  0
  189.3560  177.4990  138.3000 C   0  0  0  0  0  0  0  0  0  0  0  0
  185.7920  178.8600  141.8940 C   0  0  0  0  0  0  0  0  0  0  0  0
  183.3230  176.9240  138.5470 C   0  0  0  0  0  2  0  0  0  0  0  0
  181.2770  176.2580  139.8100 C   0  0  0  0  0  1  0  0  0  0  0  0
  182.5080  177.1440  139.8120 C   0  0  0  0  0  2  0  0  0  0  0  0
  1  5  1  1  0  0  0
  1  4  1  0  0  0  0
  2 19  1  0  0  0  0
  3 10  1  0  0  0  0
  4 20  1  0  0  0  0
  4 12  1  0  0  0  0
  5 11  1  0  0  0  0
  6  8  1  0  0  0  0
  7 15  1  0  0  0  0
  8 12  1  0  0  0  0
  9  7  1  0  0  0  0
  9 14  1  0  0  0  0
 10 22  1  0  0  0  0
 10 21  2  0  0  0  0
 11 28  1  0  0  0  0
 11  8  1  0  0  0  0
 12 27  1  0  0  0  0
 13  2  2  0  0  0  0
 13 18  1  0  0  0  0
 14 23  1  0  0  0  0
 15 23  1  0  0  0  0
 16  2  1  0  0  0  0
 17 20  1  0  0  0  0
 17  3  1  0  0  0  0
 18 25  2  0  0  0  0
 19 26  2  0  0  0  0
 19  1  1  0  0  0  0
 20 22  1  0  0  0  0
 22  9  1  0  0  0  0
 25 26  1  0  0  0  0
 26 17  1  0  0  0  0
 27 24  2  0  0  0  0
 27  7  1  0  0  0  0
 28 30  1  0  0  0  0
 29 30  1  0  0  0  0
M  END
>  <MODEL>
2

>  <REMARK>
 VINA RESULT:      -8.1      2.873      7.176
  Name = 
  2 active torsions:
  status: ('A' for Active; 'I' for Inactive)
    1  A    between atoms: C_11  and  C_28
    2  A    between atoms: C_28  and  C_30
                            x       y       z     vdW  Elec       q    Type
                         _______ _______ _______ _____ _____    ______ ____

>  <TORSDO>
F 2

$$$$
=
 OpenBabel11122410303D

 30 35  0  0  1  0  0  0  0  0999 V2000
  189.0870  177.7210  143.1000 C   0  0  2  0  0  3  0  0  0  0  0  0
  186.9900  178.0740  144.5090 C   0  0  0  0  0  0  0  0  0  0  0  0
  186.7230  178.2780  139.6140 N   0  0  0  0  0  2  0  0  0  0  0  0
  189.6800  177.8640  141.7200 N   0  0  1  0  0  0  0  0  0  0  0  0
  189.4060  176.3700  143.7570 C   0  0  0  0  0  2  0  0  0  0  0  0
  192.2240  178.0690  143.1690 O   0  0  0  0  0  1  0  0  0  0  0  0
  191.3050  176.4630  139.0700 C   0  0  1  0  0  3  0  0  0  0  0  0
  191.7170  176.8220  142.7960 C   0  0  1  0  0  3  0  0  0  0  0  0
  189.8150  176.4390  138.7030 C   0  0  2  0  0  3  0  0  0  0  0  0
  187.6820  177.8840  138.6450 C   0  0  0  0  0  0  0  0  0  0  0  0
  190.9170  176.2290  143.9580 C   0  0  2  0  0  3  0  0  0  0  0  0
  190.8360  176.9540  141.5450 C   0  0  2  0  0  3  0  0  0  0  0  0
  185.6200  178.3310  144.6330 C   0  0  0  0  0  3  0  0  0  0  0  0
  189.8610  176.4070  137.1970 C   0  0  0  0  0  2  0  0  0  0  0  0
  192.0340  176.9240  137.9650 O   0  0  0  0  0  0  0  0  0  0  0  0
  187.7180  177.8530  145.6320 F   0  0  0  0  0  0  0  0  0  0  0  0
  187.5080  178.4900  140.8110 C   0  0  2  0  0  3  0  0  0  0  0  0
  184.8470  178.5860  143.4990 C   0  0  0  0  0  3  0  0  0  0  0  0
  187.5960  178.0470  143.2380 C   0  0  0  0  0  0  0  0  0  0  0  0
  188.6640  177.5250  140.7070 C   0  0  1  0  0  3  0  0  0  0  0  0
  187.3990  177.7950  137.4220 O   0  0  0  0  0  0  0  0  0  0  0  0
  189.0530  177.6790  139.2250 C   0  0  1  0  0  3  0  0  0  0  0  0
  191.3320  176.4460  136.8510 C   0  0  0  0  0  2  0  0  0  0  0  0
  192.4340  178.1680  140.2840 O   0  0  0  0  0  0  0  0  0  0  0  0
  185.4410  178.5930  142.2360 C   0  0  0  0  0  3  0  0  0  0  0  0
  186.8050  178.3060  142.1020 C   0  0  0  0  0  0  0  0  0  0  0  0
  191.6170  177.2600  140.3050 C   0  0  0  0  0  0  0  0  0  0  0  0
  191.2880  174.7640  144.1400 C   0  0  0  0  0  2  0  0  0  0  0  0
  192.1050  175.6100  146.3410 C   0  0  0  0  0  1  0  0  0  0  0  0
  192.3220  174.5870  145.2420 C   0  0  0  0  0  2  0  0  0  0  0  0
  1 19  1  0  0  0  0
  1  5  1  6  0  0  0
  2 13  1  0  0  0  0
  2 16  1  0  0  0  0
  3 17  1  0  0  0  0
  4  1  1  0  0  0  0
  5 11  1  0  0  0  0
  7 27  1  0  0  0  0
  8  6  1  0  0  0  0
  8 11  1  0  0  0  0
  9  7  1  0  0  0  0
  9 22  1  0  0  0  0
 10 22  1  0  0  0  0
 10  3  1  0  0  0  0
 11 28  1  0  0  0  0
 12  4  1  0  0  0  0
 12  8  1  0  0  0  0
 14  9  1  0  0  0  0
 15  7  1  0  0  0  0
 17 26  1  0  0  0  0
 18 13  2  0  0  0  0
 19  2  2  0  0  0  0
 20 17  1  0  0  0  0
 20  4  1  0  0  0  0
 21 10  2  0  0  0  0
 22 20  1  0  0  0  0
 23 14  1  0  0  0  0
 23 15  1  0  0  0  0
 24 27  2  0  0  0  0
 25 18  1  0  0  0  0
 26 25  2  0  0  0  0
 26 19  1  0  0  0  0
 27 12  1  0  0  0  0
 28 30  1  0  0  0  0
 30 29  1  0  0  0  0
M  END
>  <MODEL>
3

>  <REMARK>
 VINA RESULT:      -8.1      2.061      3.107
  Name = 
  2 active torsions:
  status: ('A' for Active; 'I' for Inactive)
    1  A    between atoms: C_11  and  C_28
    2  A    between atoms: C_28  and  C_30
                            x       y       z     vdW  Elec       q    Type
                         _______ _______ _______ _____ _____    ______ ____

>  <TORSDO>
F 2

$$$$
=
 OpenBabel11122410303D

 30 35  0  0  1  0  0  0  0  0999 V2000
  188.5620  178.0680  145.5520 C   0  0  2  0  0  3  0  0  0  0  0  0
  186.3460  178.2480  146.8030 C   0  0  0  0  0  0  0  0  0  0  0  0
  186.4190  178.4120  141.8990 N   0  0  0  0  0  2  0  0  0  0  0  0
  189.2390  178.2550  144.2170 N   0  0  1  0  0  0  0  0  0  0  0  0
  188.9440  176.7510  146.2440 C   0  0  0  0  0  2  0  0  0  0  0  0
  191.6460  178.6790  145.8430 O   0  0  0  0  0  1  0  0  0  0  0  0
  191.1640  176.9860  141.7050 C   0  0  1  0  0  3  0  0  0  0  0  0
  191.2730  177.3920  145.4470 C   0  0  1  0  0  3  0  0  0  0  0  0
  189.7110  176.8360  141.2310 C   0  0  2  0  0  3  0  0  0  0  0  0
  187.4760  178.0960  141.0060 C   0  0  0  0  0  0  0  0  0  0  0  0
  190.4440  176.7380  146.5540 C   0  0  2  0  0  3  0  0  0  0  0  0
  190.4770  177.4440  144.1340 C   0  0  2  0  0  3  0  0  0  0  0  0
  184.9550  178.3890  146.8250 C   0  0  0  0  0  3  0  0  0  0  0  0
  189.8690  176.8020  139.7330 C   0  0  0  0  0  2  0  0  0  0  0  0
  191.9300  177.5030  140.6500 O   0  0  0  0  0  0  0  0  0  0  0  0
  187.0070  178.0930  147.9780 F   0  0  0  0  0  0  0  0  0  0  0  0
  187.0950  178.6930  143.1480 C   0  0  2  0  0  3  0  0  0  0  0  0
  184.2470  178.5750  145.6360 C   0  0  0  0  0  3  0  0  0  0  0  0
  187.0430  178.2680  145.5790 C   0  0  0  0  0  0  0  0  0  0  0  0
  188.3320  177.8280  143.1360 C   0  0  1  0  0  3  0  0  0  0  0  0
  187.2900  177.9790  139.7660 O   0  0  0  0  0  0  0  0  0  0  0  0
  188.8130  178.0090  141.6850 C   0  0  1  0  0  3  0  0  0  0  0  0
  191.3530  176.9640  139.4940 C   0  0  0  0  0  2  0  0  0  0  0  0
  192.0560  178.7850  142.9800 O   0  0  0  0  0  0  0  0  0  0  0  0
  184.9280  178.6270  144.4200 C   0  0  0  0  0  3  0  0  0  0  0  0
  186.3170  178.4560  144.3870 C   0  0  0  0  0  0  0  0  0  0  0  0
  191.3170  177.8110  142.9510 C   0  0  0  0  0  0  0  0  0  0  0  0
  190.9210  175.3100  146.7770 C   0  0  0  0  0  2  0  0  0  0  0  0
  192.8080  175.6290  148.3770 C   0  0  0  0  0  1  0  0  0  0  0  0
  192.4310  175.2530  146.9580 C   0  0  0  0  0  2  0  0  0  0  0  0
  1 19  1  0  0  0  0
  1  5  1  6  0  0  0
  2 13  1  0  0  0  0
  2 16  1  0  0  0  0
  3 17  1  0  0  0  0
  4  1  1  0  0  0  0
  5 11  1  0  0  0  0
  7 27  1  0  0  0  0
  8  6  1  0  0  0  0
  8 11  1  0  0  0  0
  9 22  1  0  0  0  0
  9  7  1  0  0  0  0
 10 22  1  0  0  0  0
 10  3  1  0  0  0  0
 11 28  1  0  0  0  0
 12  4  1  0  0  0  0
 12  8  1  0  0  0  0
 14  9  1  0  0  0  0
 15  7  1  0  0  0  0
 17 26  1  0  0  0  0
 18 13  2  0  0  0  0
 19  2  2  0  0  0  0
 20 17  1  0  0  0  0
 20  4  1  0  0  0  0
 21 10  2  0  0  0  0
 22 20  1  0  0  0  0
 23 14  1  0  0  0  0
 23 15  1  0  0  0  0
 25 18  1  0  0  0  0
 26 25  2  0  0  0  0
 26 19  1  0  0  0  0
 27 24  2  0  0  0  0
 27 12  1  0  0  0  0
 28 30  1  0  0  0  0
 30 29  1  0  0  0  0
M  END
>  <MODEL>
4

>  <REMARK>
 VINA RESULT:      -7.8      2.491      3.944
  Name = 
  2 active torsions:
  status: ('A' for Active; 'I' for Inactive)
    1  A    between atoms: C_11  and  C_28
    2  A    between atoms: C_28  and  C_30
                            x       y       z     vdW  Elec       q    Type
                         _______ _______ _______ _____ _____    ______ ____

>  <TORSDO>
F 2

$$$$
=
 OpenBabel11122410303D

 30 35  0  0  1  0  0  0  0  0999 V2000
  188.3430  178.0470  139.4120 C   0  0  2  0  0  3  0  0  0  0  0  0
  190.6710  177.3550  140.1930 C   0  0  0  0  0  0  0  0  0  0  0  0
  187.1430  178.2550  143.4830 N   0  0  0  0  0  2  0  0  0  0  0  0
  187.0210  178.6270  139.8500 N   0  0  1  0  0  0  0  0  0  0  0  0
  188.1920  176.8230  138.4970 C   0  0  0  0  0  2  0  0  0  0  0  0
  186.8390  179.5220  137.0600 O   0  0  0  0  0  1  0  0  0  0  0  0
  183.6230  178.3930  139.9940 C   0  0  1  0  0  3  0  0  0  0  0  0
  186.3800  178.2560  137.4320 C   0  0  1  0  0  3  0  0  0  0  0  0
  184.1320  177.8780  141.3470 C   0  0  2  0  0  3  0  0  0  0  0  0
  185.7470  178.4120  143.2810 C   0  0  0  0  0  0  0  0  0  0  0  0
  187.4850  177.2240  137.1990 C   0  0  2  0  0  3  0  0  0  0  0  0
  185.9420  178.2560  138.9050 C   0  0  2  0  0  3  0  0  0  0  0  0
  191.5910  177.0590  141.2040 C   0  0  0  0  0  3  0  0  0  0  0  0
  182.9430  178.1150  142.2430 C   0  0  0  0  0  2  0  0  0  0  0  0
  182.5510  179.2690  140.2200 O   0  0  0  0  0  0  0  0  0  0  0  0
  191.0600  177.2380  138.8990 F   0  0  0  0  0  0  0  0  0  0  0  0
  187.7140  178.5420  142.1840 C   0  0  2  0  0  3  0  0  0  0  0  0
  191.2300  177.1930  142.5460 C   0  0  0  0  0  3  0  0  0  0  0  0
  189.3640  177.7670  140.5200 C   0  0  0  0  0  0  0  0  0  0  0  0
  186.6690  178.1080  141.1840 C   0  0  1  0  0  3  0  0  0  0  0  0
  184.9310  178.4290  144.2400 O   0  0  0  0  0  0  0  0  0  0  0  0
  185.3830  178.6400  141.8420 C   0  0  1  0  0  3  0  0  0  0  0  0
  181.9050  178.7570  141.3510 C   0  0  0  0  0  2  0  0  0  0  0  0
  184.5550  180.1700  138.7160 O   0  0  0  0  0  0  0  0  0  0  0  0
  189.9480  177.6290  142.8830 C   0  0  0  0  0  3  0  0  0  0  0  0
  189.0120  177.8980  141.8770 C   0  0  0  0  0  0  0  0  0  0  0  0
  184.6850  179.0330  139.1450 C   0  0  0  0  0  0  0  0  0  0  0  0
  186.9020  175.9950  136.5170 C   0  0  0  0  0  2  0  0  0  0  0  0
  186.2160  173.7000  137.2180 C   0  0  0  0  0  1  0  0  0  0  0  0
  187.3440  174.7150  137.2110 C   0  0  0  0  0  2  0  0  0  0  0  0
  1  5  1  1  0  0  0
  1  4  1  0  0  0  0
  1 19  1  0  0  0  0
  2 19  2  0  0  0  0
  2 13  1  0  0  0  0
  4 20  1  0  0  0  0
  6  8  1  0  0  0  0
  7 15  1  0  0  0  0
  7  9  1  0  0  0  0
  8 12  1  0  0  0  0
  9 22  1  0  0  0  0
  9 14  1  0  0  0  0
 10  3  1  0  0  0  0
 10 21  2  0  0  0  0
 11  8  1  0  0  0  0
 11  5  1  0  0  0  0
 12 27  1  0  0  0  0
 12  4  1  0  0  0  0
 13 18  2  0  0  0  0
 15 23  1  0  0  0  0
 16  2  1  0  0  0  0
 17  3  1  0  0  0  0
 18 25  1  0  0  0  0
 19 26  1  0  0  0  0
 20 22  1  0  0  0  0
 20 17  1  0  0  0  0
 22 10  1  0  0  0  0
 23 14  1  0  0  0  0
 24 27  2  0  0  0  0
 26 17  1  0  0  0  0
 26 25  2  0  0  0  0
 27  7  1  0  0  0  0
 28 11  1  0  0  0  0
 28 30  1  0  0  0  0
 30 29  1  0  0  0  0
M  END
>  <MODEL>
5

>  <REMARK>
 VINA RESULT:      -7.4      2.450      5.817
  Name = 
  2 active torsions:
  status: ('A' for Active; 'I' for Inactive)
    1  A    between atoms: C_11  and  C_28
    2  A    between atoms: C_28  and  C_30
                            x       y       z     vdW  Elec       q    Type
                         _______ _______ _______ _____ _____    ______ ____

>  <TORSDO>
F 2

$$$$
=
 OpenBabel11122410303D

 30 35  0  0  1  0  0  0  0  0999 V2000
  186.6990  177.6280  142.4130 C   0  0  2  0  0  3  0  0  0  0  0  0
  184.3450  178.6060  142.3100 C   0  0  0  0  0  0  0  0  0  0  0  0
  186.5120  177.8710  146.6500 N   0  0  0  0  0  2  0  0  0  0  0  0
  187.7330  177.0060  143.3170 N   0  0  1  0  0  0  0  0  0  0  0  0
  187.2780  178.7020  141.4800 C   0  0  0  0  0  2  0  0  0  0  0  0
  188.6810  175.7340  140.8470 O   0  0  0  0  0  1  0  0  0  0  0  0
  190.9140  176.9810  144.5470 C   0  0  1  0  0  3  0  0  0  0  0  0
  189.1480  176.9970  141.2210 C   0  0  1  0  0  3  0  0  0  0  0  0
  190.0680  177.7120  145.5980 C   0  0  2  0  0  3  0  0  0  0  0  0
  187.8710  177.5750  146.9360 C   0  0  0  0  0  0  0  0  0  0  0  0
  188.3070  178.0750  140.5340 C   0  0  2  0  0  3  0  0  0  0  0  0
  189.0930  177.1590  142.7470 C   0  0  2  0  0  3  0  0  0  0  0  0
  183.1940  179.1080  142.9260 C   0  0  0  0  0  3  0  0  0  0  0  0
  190.8730  177.5020  146.8550 C   0  0  0  0  0  2  0  0  0  0  0  0
  191.7440  176.0590  145.2000 O   0  0  0  0  0  0  0  0  0  0  0  0
  184.4030  178.5790  140.9550 F   0  0  0  0  0  0  0  0  0  0  0  0
  186.3530  177.4600  145.2710 C   0  0  2  0  0  3  0  0  0  0  0  0
  183.0920  179.1270  144.3190 C   0  0  0  0  0  3  0  0  0  0  0  0
  185.4210  178.1360  143.0880 C   0  0  0  0  0  0  0  0  0  0  0  0
  187.7050  177.6700  144.6330 C   0  0  1  0  0  3  0  0  0  0  0  0
  188.3320  177.6210  148.1070 O   0  0  0  0  0  0  0  0  0  0  0  0
  188.6420  177.1280  145.7270 C   0  0  1  0  0  3  0  0  0  0  0  0
  192.0550  176.6640  146.4230 C   0  0  0  0  0  2  0  0  0  0  0  0
  190.2270  175.1310  143.2190 O   0  0  0  0  0  0  0  0  0  0  0  0
  184.1390  178.6360  145.1010 C   0  0  0  0  0  3  0  0  0  0  0  0
  185.3060  178.1600  144.4910 C   0  0  0  0  0  0  0  0  0  0  0  0
  190.1060  176.3220  143.4650 C   0  0  0  0  0  0  0  0  0  0  0  0
  189.2190  179.1500  139.9630 C   0  0  0  0  0  2  0  0  0  0  0  0
  188.1940  178.2520  137.8730 C   0  0  0  0  0  1  0  0  0  0  0  0
  189.3750  179.0030  138.4570 C   0  0  0  0  0  2  0  0  0  0  0  0
  1  5  1  1  0  0  0
  1 19  1  0  0  0  0
  1  4  1  0  0  0  0
  2 13  2  0  0  0  0
  2 19  1  0  0  0  0
  3 10  1  0  0  0  0
  4 20  1  0  0  0  0
  6  8  1  0  0  0  0
  7 15  1  0  0  0  0
  7  9  1  0  0  0  0
  8 12  1  0  0  0  0
  9 22  1  0  0  0  0
  9 14  1  0  0  0  0
 10 21  2  0  0  0  0
 11  8  1  0  0  0  0
 11  5  1  0  0  0  0
 12  4  1  0  0  0  0
 12 27  1  0  0  0  0
 13 18  1  0  0  0  0
 15 23  1  0  0  0  0
 16  2  1  0  0  0  0
 17  3  1  0  0  0  0
 18 25  2  0  0  0  0
 19 26  2  0  0  0  0
 20 17  1  0  0  0  0
 20 22  1  0  0  0  0
 22 10  1  0  0  0  0
 23 14  1  0  0  0  0
 24 27  2  0  0  0  0
 26 25  1  0  0  0  0
 26 17  1  0  0  0  0
 27  7  1  0  0  0  0
 28 11  1  0  0  0  0
 29 30  1  0  0  0  0
 30 28  1  0  0  0  0
M  END
>  <MODEL>
6

>  <REMARK>
 VINA RESULT:      -7.3      2.656      6.023
  Name = 
  2 active torsions:
  status: ('A' for Active; 'I' for Inactive)
    1  A    between atoms: C_11  and  C_28
    2  A    between atoms: C_28  and  C_30
                            x       y       z     vdW  Elec       q    Type
                         _______ _______ _______ _____ _____    ______ ____

>  <TORSDO>
F 2

$$$$
=
 OpenBabel11122410303D

 30 35  0  0  1  0  0  0  0  0999 V2000
  188.6840  177.8910  140.3860 C   0  0  2  0  0  3  0  0  0  0  0  0
  186.4160  178.8580  141.0400 C   0  0  0  0  0  0  0  0  0  0  0  0
  187.0720  176.9400  136.5720 N   0  0  0  0  0  2  0  0  0  0  0  0
  189.5310  177.4140  139.2320 N   0  0  1  0  0  0  0  0  0  0  0  0
  188.7290  176.9490  141.5980 C   0  0  0  0  0  2  0  0  0  0  0  0
  191.7750  178.1720  140.9660 O   0  0  0  0  0  1  0  0  0  0  0  0
  191.4500  174.9760  137.8190 C   0  0  1  0  0  3  0  0  0  0  0  0
  191.2120  176.8960  141.0490 C   0  0  1  0  0  3  0  0  0  0  0  0
  190.0590  174.8260  137.1880 C   0  0  2  0  0  3  0  0  0  0  0  0
  188.1430  176.1480  136.0830 C   0  0  0  0  0  0  0  0  0  0  0  0
  190.1530  176.8770  142.1540 C   0  0  2  0  0  3  0  0  0  0  0  0
  190.5940  176.4940  139.7020 C   0  0  2  0  0  3  0  0  0  0  0  0
  185.0830  179.1710  140.7520 C   0  0  0  0  0  3  0  0  0  0  0  0
  190.3750  174.1470  135.8800 C   0  0  0  0  0  2  0  0  0  0  0  0
  192.4150  174.9010  136.8040 O   0  0  0  0  0  0  0  0  0  0  0  0
  186.8990  179.1280  142.2790 F   0  0  0  0  0  0  0  0  0  0  0  0
  187.6430  177.6310  137.7080 C   0  0  2  0  0  3  0  0  0  0  0  0
  184.5620  178.9290  139.4800 C   0  0  0  0  0  3  0  0  0  0  0  0
  187.2380  178.2740  140.0570 C   0  0  0  0  0  0  0  0  0  0  0  0
  188.6870  176.6920  138.2630 C   0  0  1  0  0  3  0  0  0  0  0  0
  188.0800  175.5470  134.9790 O   0  0  0  0  0  0  0  0  0  0  0  0
  189.3540  176.1850  136.9710 C   0  0  1  0  0  3  0  0  0  0  0  0
  191.8800  174.0050  135.8700 C   0  0  0  0  0  2  0  0  0  0  0  0
  192.5180  177.0150  138.4190 O   0  0  0  0  0  0  0  0  0  0  0  0
  185.3740  178.3790  138.4870 C   0  0  0  0  0  3  0  0  0  0  0  0
  186.7000  178.0350  138.7770 C   0  0  0  0  0  0  0  0  0  0  0  0
  191.6160  176.2210  138.6430 C   0  0  0  0  0  0  0  0  0  0  0  0
  190.3230  175.6270  143.0050 C   0  0  0  0  0  2  0  0  0  0  0  0
  191.4640  176.7640  144.9100 C   0  0  0  0  0  1  0  0  0  0  0  0
  191.5910  175.6940  143.8430 C   0  0  0  0  0  2  0  0  0  0  0  0
  1  5  1  1  0  0  0
  2 16  1  0  0  0  0
  3 17  1  0  0  0  0
  4 12  1  0  0  0  0
  4  1  1  0  0  0  0
  5 11  1  0  0  0  0
  6  8  1  0  0  0  0
  7 27  1  0  0  0  0
  8 11  1  0  0  0  0
  9  7  1  0  0  0  0
 10  3  1  0  0  0  0
 10 22  1  0  0  0  0
 11 28  1  0  0  0  0
 12  8  1  0  0  0  0
 13  2  1  0  0  0  0
 14  9  1  0  0  0  0
 15  7  1  0  0  0  0
 17 20  1  0  0  0  0
 17 26  1  0  0  0  0
 18 13  2  0  0  0  0
 19  1  1  0  0  0  0
 19  2  2  0  0  0  0
 20  4  1  0  0  0  0
 21 10  2  0  0  0  0
 22  9  1  0  0  0  0
 22 20  1  0  0  0  0
 23 14  1  0  0  0  0
 23 15  1  0  0  0  0
 24 27  2  0  0  0  0
 25 26  2  0  0  0  0
 25 18  1  0  0  0  0
 26 19  1  0  0  0  0
 27 12  1  0  0  0  0
 28 30  1  0  0  0  0
 30 29  1  0  0  0  0
M  END
>  <MODEL>
7

>  <REMARK>
 VINA RESULT:      -7.2      2.913      4.217
  Name = 
  2 active torsions:
  status: ('A' for Active; 'I' for Inactive)
    1  A    between atoms: C_11  and  C_28
    2  A    between atoms: C_28  and  C_30
                            x       y       z     vdW  Elec       q    Type
                         _______ _______ _______ _____ _____    ______ ____

>  <TORSDO>
F 2

$$$$
=
 OpenBabel11122410303D

 30 35  0  0  1  0  0  0  0  0999 V2000
  184.2760  178.8240  139.4350 C   0  0  2  0  0  3  0  0  0  0  0  0
  186.7520  178.3080  139.1030 C   0  0  0  0  0  0  0  0  0  0  0  0
  184.9680  178.9810  143.6240 N   0  0  0  0  0  2  0  0  0  0  0  0
  183.2430  179.3110  140.4200 N   0  0  1  0  0  0  0  0  0  0  0  0
  183.8240  177.5840  138.6500 C   0  0  0  0  0  2  0  0  0  0  0  0
  181.7970  180.1650  138.0120 O   0  0  0  0  0  1  0  0  0  0  0  0
  180.2750  178.8340  142.0300 C   0  0  1  0  0  3  0  0  0  0  0  0
  181.6350  178.8730  138.5180 C   0  0  1  0  0  3  0  0  0  0  0  0
  181.3590  178.3690  143.0120 C   0  0  2  0  0  3  0  0  0  0  0  0
  183.6170  179.0360  144.0570 C   0  0  0  0  0  0  0  0  0  0  0  0
  182.5940  177.9210  137.8010 C   0  0  2  0  0  3  0  0  0  0  0  0
  181.8870  178.8550  140.0340 C   0  0  2  0  0  3  0  0  0  0  0  0
  188.0400  178.0880  139.6030 C   0  0  0  0  0  3  0  0  0  0  0  0
  180.6700  178.5280  144.3430 C   0  0  0  0  0  2  0  0  0  0  0  0
  179.3530  179.6330  142.7220 O   0  0  0  0  0  0  0  0  0  0  0  0
  186.5430  178.2070  137.7670 F   0  0  0  0  0  0  0  0  0  0  0  0
  184.8910  179.2970  142.2140 C   0  0  2  0  0  3  0  0  0  0  0  0
  188.2950  178.2080  140.9710 C   0  0  0  0  0  3  0  0  0  0  0  0
  185.6950  178.6280  139.9780 C   0  0  0  0  0  0  0  0  0  0  0  0
  183.5470  178.7800  141.7610 C   0  0  1  0  0  3  0  0  0  0  0  0
  183.3040  179.0030  145.2770 O   0  0  0  0  0  0  0  0  0  0  0  0
  182.6450  179.2240  142.9280 C   0  0  1  0  0  3  0  0  0  0  0  0
  179.3050  179.0850  144.0100 C   0  0  0  0  0  2  0  0  0  0  0  0
  180.4300  180.6610  140.5150 O   0  0  0  0  0  0  0  0  0  0  0  0
  187.2630  178.5540  141.8440 C   0  0  0  0  0  3  0  0  0  0  0  0
  185.9650  178.7450  141.3550 C   0  0  0  0  0  0  0  0  0  0  0  0
  180.8120  179.5410  140.8170 C   0  0  0  0  0  0  0  0  0  0  0  0
  181.8580  176.6460  137.4150 C   0  0  0  0  0  2  0  0  0  0  0  0
  180.9040  175.2680  139.2620 C   0  0  0  0  0  1  0  0  0  0  0  0
  182.1300  175.5260  138.4080 C   0  0  0  0  0  2  0  0  0  0  0  0
  1  5  1  1  0  0  0
  1 19  1  0  0  0  0
  1  4  1  0  0  0  0
  2 13  2  0  0  0  0
  2 19  1  0  0  0  0
  3 10  1  0  0  0  0
  4 20  1  0  0  0  0
  6  8  1  0  0  0  0
  7 15  1  0  0  0  0
  7  9  1  0  0  0  0
  8 12  1  0  0  0  0
  9 14  1  0  0  0  0
 10 21  2  0  0  0  0
 11  8  1  0  0  0  0
 11  5  1  0  0  0  0
 12  4  1  0  0  0  0
 12 27  1  0  0  0  0
 13 18  1  0  0  0  0
 15 23  1  0  0  0  0
 16  2  1  0  0  0  0
 17  3  1  0  0  0  0
 18 25  2  0  0  0  0
 19 26  2  0  0  0  0
 20 17  1  0  0  0  0
 20 22  1  0  0  0  0
 22  9  1  0  0  0  0
 22 10  1  0  0  0  0
 23 14  1  0  0  0  0
 24 27  2  0  0  0  0
 26 25  1  0  0  0  0
 26 17  1  0  0  0  0
 27  7  1  0  0  0  0
 28 11  1  0  0  0  0
 28 30  1  0  0  0  0
 30 29  1  0  0  0  0
M  END
>  <MODEL>
8

>  <REMARK>
 VINA RESULT:      -7.2      3.302      7.240
  Name = 
  2 active torsions:
  status: ('A' for Active; 'I' for Inactive)
    1  A    between atoms: C_11  and  C_28
    2  A    between atoms: C_28  and  C_30
                            x       y       z     vdW  Elec       q    Type
                         _______ _______ _______ _____ _____    ______ ____

>  <TORSDO>
F 2

$$$$
=
 OpenBabel11122410303D

 30 35  0  0  1  0  0  0  0  0999 V2000
  188.0170  177.2220  143.3730 C   0  0  2  0  0  3  0  0  0  0  0  0
  185.7950  178.2510  142.6550 C   0  0  0  0  0  0  0  0  0  0  0  0
  187.0390  178.1580  147.4000 N   0  0  0  0  0  2  0  0  0  0  0  0
  188.8160  176.7210  144.5500 N   0  0  1  0  0  0  0  0  0  0  0  0
  188.8340  178.1100  142.4220 C   0  0  0  0  0  2  0  0  0  0  0  0
  190.1340  175.0320  142.5430 O   0  0  0  0  0  1  0  0  0  0  0  0
  191.6930  176.7870  146.3790 C   0  0  1  0  0  3  0  0  0  0  0  0
  190.6020  176.3220  142.8050 C   0  0  1  0  0  3  0  0  0  0  0  0
  190.7110  177.7080  147.1160 C   0  0  2  0  0  3  0  0  0  0  0  0
  188.2940  177.8660  147.9940 C   0  0  0  0  0  0  0  0  0  0  0  0
  189.9810  177.3020  141.8080 C   0  0  2  0  0  3  0  0  0  0  0  0
  190.2670  176.7320  144.2470 C   0  0  2  0  0  3  0  0  0  0  0  0
  184.5840  178.8860  142.9450 C   0  0  0  0  0  3  0  0  0  0  0  0
  191.2450  177.6780  148.5250 C   0  0  0  0  0  2  0  0  0  0  0  0
  192.3210  175.9550  147.3180 O   0  0  0  0  0  0  0  0  0  0  0  0
  186.1100  178.0030  141.3590 F   0  0  0  0  0  0  0  0  0  0  0  0
  187.1190  177.5340  146.0970 C   0  0  2  0  0  3  0  0  0  0  0  0
  184.2180  179.1340  144.2700 C   0  0  0  0  0  3  0  0  0  0  0  0
  186.6690  177.8780  143.6940 C   0  0  0  0  0  0  0  0  0  0  0  0
  188.5790  177.5900  145.7170 C   0  0  1  0  0  3  0  0  0  0  0  0
  188.5250  178.0860  149.2120 O   0  0  0  0  0  0  0  0  0  0  0  0
  189.2520  177.2020  147.0460 C   0  0  1  0  0  3  0  0  0  0  0  0
  192.4310  176.7410  148.4720 C   0  0  0  0  0  2  0  0  0  0  0  0
  191.1530  174.7700  145.2390 O   0  0  0  0  0  0  0  0  0  0  0  0
  185.0610  178.7420  145.3100 C   0  0  0  0  0  3  0  0  0  0  0  0
  186.2890  178.1340  145.0260 C   0  0  0  0  0  0  0  0  0  0  0  0
  191.0660  175.9890  145.2710 C   0  0  0  0  0  0  0  0  0  0  0  0
  191.0540  178.2390  141.2730 C   0  0  0  0  0  2  0  0  0  0  0  0
  191.2770  176.7830  139.2590 C   0  0  0  0  0  1  0  0  0  0  0  0
  192.0270  177.5040  140.3620 C   0  0  0  0  0  2  0  0  0  0  0  0
  1  5  1  1  0  0  0
  1 19  1  0  0  0  0
  1  4  1  0  0  0  0
  2 13  2  0  0  0  0
  2 19  1  0  0  0  0
  3 10  1  0  0  0  0
  4 20  1  0  0  0  0
  6  8  1  0  0  0  0
  7  9  1  0  0  0  0
  7 15  1  0  0  0  0
  8 12  1  0  0  0  0
  9 14  1  0  0  0  0
 10 21  2  0  0  0  0
 11  5  1  0  0  0  0
 11  8  1  0  0  0  0
 12  4  1  0  0  0  0
 12 27  1  0  0  0  0
 13 18  1  0  0  0  0
 15 23  1  0  0  0  0
 16  2  1  0  0  0  0
 17  3  1  0  0  0  0
 18 25  2  0  0  0  0
 19 26  2  0  0  0  0
 20 17  1  0  0  0  0
 20 22  1  0  0  0  0
 22  9  1  0  0  0  0
 22 10  1  0  0  0  0
 23 14  1  0  0  0  0
 24 27  2  0  0  0  0
 26 25  1  0  0  0  0
 26 17  1  0  0  0  0
 27  7  1  0  0  0  0
 28 11  1  0  0  0  0
 29 30  1  0  0  0  0
 30 28  1  0  0  0  0
M  END
>  <MODEL>
9

>  <REMARK>
 VINA RESULT:      -7.1      3.754      6.868
  Name = 
  2 active torsions:
  status: ('A' for Active; 'I' for Inactive)
    1  A    between atoms: C_11  and  C_28
    2  A    between atoms: C_28  and  C_30
                            x       y       z     vdW  Elec       q    Type
                         _______ _______ _______ _____ _____    ______ ____

>  <TORSDO>
F 2

$$$$
