=
 OpenBabel11122412063D

 34 41  0  0  1  0  0  0  0  0999 V2000
  186.3370  176.1840  135.2790 C   0  0  0  0  0  0  0  0  0  0  0  0
  188.2830  177.5730  134.5950 C   0  0  0  0  0  3  0  0  0  0  0  0
  183.2750  171.1640  135.9860 C   0  0  2  0  0  3  0  0  0  0  0  0
  184.5920  175.0890  136.5650 C   0  0  0  0  0  0  0  0  0  0  0  0
  184.9400  172.6870  137.3940 C   0  0  1  0  0  3  0  0  0  0  0  0
  184.5430  172.4600  134.8190 C   0  0  0  0  0  2  0  0  0  0  0  0
  183.1910  171.7980  134.6040 C   0  0  0  0  0  2  0  0  0  0  0  0
  181.8770  173.1500  136.8160 C   0  0  0  0  0  2  0  0  0  0  0  0
  188.7820  175.3710  135.4060 C   0  0  2  0  0  3  0  0  0  0  0  0
  190.8640  175.2810  137.9220 C   0  0  0  0  0  2  0  0  0  0  0  0
  186.4250  173.0310  137.4820 C   0  0  0  0  0  2  0  0  0  0  0  0
  182.6750  173.8970  137.8630 C   0  0  0  0  0  2  0  0  0  0  0  0
  188.2730  174.5180  136.5890 C   0  0  1  0  0  3  0  0  0  0  0  0
  189.4570  177.6670  135.2020 C   0  0  0  0  0  3  0  0  0  0  0  0
  184.1580  174.0000  137.5130 C   0  0  2  0  0  3  0  0  0  0  0  0
  182.1580  171.6560  136.9180 C   0  0  0  0  0  2  0  0  0  0  0  0
  190.1700  176.5130  137.3110 C   0  0  1  0  0  3  0  0  0  0  0  0
  185.9200  175.1050  136.0820 C   0  0  0  0  0  0  0  0  0  0  0  0
  184.6640  171.7740  136.1710 C   0  0  2  0  0  3  0  0  0  0  0  0
  186.8770  173.9520  136.3320 C   0  0  2  0  0  3  0  0  0  0  0  0
  184.1880  177.1930  135.4570 C   0  0  0  0  0  3  0  0  0  0  0  0
  190.7310  173.9840  137.1100 C   0  0  0  0  0  2  0  0  0  0  0  0
  183.7380  176.1540  136.2670 C   0  0  0  0  0  3  0  0  0  0  0  0
  189.2960  173.4540  137.0110 C   0  0  0  0  0  2  0  0  0  0  0  0
  189.8930  176.3730  135.7920 C   0  0  1  0  0  3  0  0  0  0  0  0
  185.4590  177.1810  134.9780 N   0  0  0  0  0  0  0  0  0  0  0  0
  187.7140  176.1940  134.6560 C   0  0  1  0  0  3  0  0  0  0  0  0
  188.9980  176.7920  138.0260 O   0  0  0  0  0  0  0  0  0  0  0  0
  189.3680  177.6700  139.0480 C   0  0  0  0  0  2  0  0  0  0  0  0
  186.7130  178.7560  141.2550 N   0  0  0  0  0  0  0  0  0  0  0  0
  186.9860  178.4440  139.1180 N   0  0  0  0  0  0  0  0  0  0  0  0
  188.1420  178.1600  139.7380 C   0  0  0  0  0  0  0  0  0  0  0  0
  186.1730  178.7960  140.0710 O   0  0  0  0  0  0  0  0  0  0  0  0
  187.9870  178.3480  141.0920 C   0  0  0  0  0  3  0  0  0  0  0  0
  1 18  1  0  0  0  0
  2 27  1  0  0  0  0
  2 14  2  0  0  0  0
  3  7  1  6  0  0  0
  3 19  1  0  0  0  0
  3 16  1  0  0  0  0
  4 15  1  0  0  0  0
  5 11  1  6  0  0  0
  5 15  1  0  0  0  0
  6 19  1  0  0  0  0
  7  6  1  0  0  0  0
  8 16  1  0  0  0  0
  8 12  1  0  0  0  0
  9 25  1  0  0  0  0
  9 13  1  0  0  0  0
 13 24  1  0  0  0  0
 14 25  1  0  0  0  0
 15 12  1  0  0  0  0
 17 10  1  0  0  0  0
 17 28  1  0  0  0  0
 18 20  1  0  0  0  0
 18  4  2  0  0  0  0
 19  5  1  0  0  0  0
 20 13  1  0  0  0  0
 20 11  1  0  0  0  0
 21 23  2  0  0  0  0
 22 10  1  0  0  0  0
 23  4  1  0  0  0  0
 24 22  1  0  0  0  0
 25 17  1  0  0  0  0
 26  1  2  0  0  0  0
 26 21  1  0  0  0  0
 27  1  1  0  0  0  0
 27  9  1  0  0  0  0
 28 29  1  0  0  0  0
 29 32  1  0  0  0  0
 31 32  2  0  0  0  0
 31 33  1  0  0  0  0
 32 34  1  0  0  0  0
 33 30  1  0  0  0  0
 34 30  2  0  0  0  0
M  END
>  <MODEL>
1

>  <REMARK>
 VINA RESULT:      -6.7      0.000      0.000
  Name = 
  3 active torsions:
  status: ('A' for Active; 'I' for Inactive)
    1  A    between atoms: C_17  and  O_28
    2  A    between atoms: O_28  and  C_29
    3  A    between atoms: C_29  and  C_32
                            x       y       z     vdW  Elec       q    Type
                         _______ _______ _______ _____ _____    ______ ____

>  <TORSDO>
F 3

$$$$
=
 OpenBabel11122412063D

 34 41  0  0  1  0  0  0  0  0999 V2000
  189.8100  177.8810  138.9360 C   0  0  0  0  0  0  0  0  0  0  0  0
  189.0600  178.5170  136.6510 C   0  0  0  0  0  3  0  0  0  0  0  0
  190.2160  178.4060  144.8210 C   0  0  2  0  0  3  0  0  0  0  0  0
  190.1990  176.6830  141.0120 C   0  0  0  0  0  0  0  0  0  0  0  0
  188.7000  177.1360  143.0430 C   0  0  1  0  0  3  0  0  0  0  0  0
  190.2160  179.2560  142.8400 C   0  0  0  0  0  2  0  0  0  0  0  0
  191.1810  179.2630  144.0150 C   0  0  0  0  0  2  0  0  0  0  0  0
  191.5940  176.3870  144.0390 C   0  0  0  0  0  2  0  0  0  0  0  0
  187.5160  178.9490  138.4360 C   0  0  2  0  0  3  0  0  0  0  0  0
  184.5720  177.5830  138.0560 C   0  0  0  0  0  2  0  0  0  0  0  0
  187.5840  177.4170  142.0380 C   0  0  0  0  0  2  0  0  0  0  0  0
  190.6890  175.4590  143.2580 C   0  0  0  0  0  2  0  0  0  0  0  0
  187.0490  178.1520  139.6740 C   0  0  1  0  0  3  0  0  0  0  0  0
  187.8520  178.3640  136.1300 C   0  0  0  0  0  3  0  0  0  0  0  0
  189.7100  176.2090  142.3570 C   0  0  2  0  0  3  0  0  0  0  0  0
  190.8140  177.0360  145.1750 C   0  0  0  0  0  2  0  0  0  0  0  0
  185.8470  177.3330  137.2270 C   0  0  1  0  0  3  0  0  0  0  0  0
  189.3820  177.5300  140.2310 C   0  0  0  0  0  0  0  0  0  0  0  0
  189.2180  178.4580  143.6650 C   0  0  2  0  0  3  0  0  0  0  0  0
  188.1030  178.1380  140.7800 C   0  0  2  0  0  3  0  0  0  0  0  0
  191.7830  176.5730  139.1960 C   0  0  0  0  0  3  0  0  0  0  0  0
  184.6440  178.7750  139.0230 C   0  0  0  0  0  2  0  0  0  0  0  0
  191.3900  176.1880  140.4750 C   0  0  0  0  0  3  0  0  0  0  0  0
  185.6620  178.6000  140.1550 C   0  0  0  0  0  2  0  0  0  0  0  0
  186.7740  178.5720  137.1340 C   0  0  1  0  0  3  0  0  0  0  0  0
  190.9990  177.4090  138.4660 N   0  0  0  0  0  0  0  0  0  0  0  0
  189.0200  178.8640  138.1030 C   0  0  1  0  0  3  0  0  0  0  0  0
  186.5250  176.2180  137.7380 O   0  0  0  0  0  0  0  0  0  0  0  0
  186.4910  175.2500  136.7310 C   0  0  0  0  0  2  0  0  0  0  0  0
  189.6930  173.6140  137.1400 N   0  0  0  0  0  0  0  0  0  0  0  0
  187.6440  173.0250  136.7010 N   0  0  0  0  0  0  0  0  0  0  0  0
  187.6740  174.3560  136.8740 C   0  0  0  0  0  0  0  0  0  0  0  0
  188.8730  172.6380  136.8750 O   0  0  0  0  0  0  0  0  0  0  0  0
  188.9640  174.7470  137.1480 C   0  0  0  0  0  3  0  0  0  0  0  0
  1 18  1  0  0  0  0
  2 27  1  0  0  0  0
  3  7  1  6  0  0  0
  3 16  1  0  0  0  0
  4 15  1  0  0  0  0
  5 11  1  6  0  0  0
  5 19  1  0  0  0  0
  6 19  1  0  0  0  0
  6  7  1  0  0  0  0
  8 16  1  0  0  0  0
  9 13  1  0  0  0  0
 10 22  1  0  0  0  0
 12  8  1  0  0  0  0
 13 24  1  0  0  0  0
 13 20  1  0  0  0  0
 14  2  2  0  0  0  0
 14 25  1  0  0  0  0
 15  5  1  0  0  0  0
 15 12  1  0  0  0  0
 17 28  1  0  0  0  0
 17 10  1  0  0  0  0
 18 20  1  0  0  0  0
 18  4  2  0  0  0  0
 19  3  1  0  0  0  0
 20 11  1  0  0  0  0
 21 23  2  0  0  0  0
 22 24  1  0  0  0  0
 23  4  1  0  0  0  0
 25 17  1  0  0  0  0
 25  9  1  0  0  0  0
 26  1  2  0  0  0  0
 26 21  1  0  0  0  0
 27  9  1  0  0  0  0
 27  1  1  0  0  0  0
 29 32  1  0  0  0  0
 29 28  1  0  0  0  0
 30 34  2  0  0  0  0
 31 32  2  0  0  0  0
 31 33  1  0  0  0  0
 32 34  1  0  0  0  0
 33 30  1  0  0  0  0
M  END
>  <MODEL>
2

>  <REMARK>
 VINA RESULT:      -6.4      3.110      7.828
  Name = 
  3 active torsions:
  status: ('A' for Active; 'I' for Inactive)
    1  A    between atoms: C_17  and  O_28
    2  A    between atoms: O_28  and  C_29
    3  A    between atoms: C_29  and  C_32
                            x       y       z     vdW  Elec       q    Type
                         _______ _______ _______ _____ _____    ______ ____

>  <TORSDO>
F 3

$$$$
=
 OpenBabel11122412063D

 34 41  0  0  1  0  0  0  0  0999 V2000
  185.7410  178.2320  137.5040 C   0  0  0  0  0  0  0  0  0  0  0  0
  187.9510  179.2710  137.0350 C   0  0  0  0  0  3  0  0  0  0  0  0
  181.0390  174.8130  136.3740 C   0  0  2  0  0  3  0  0  0  0  0  0
  183.9270  176.9620  138.5000 C   0  0  0  0  0  0  0  0  0  0  0  0
  183.3820  174.6160  137.6180 C   0  0  1  0  0  3  0  0  0  0  0  0
  182.5270  176.2490  135.7630 C   0  0  0  0  0  2  0  0  0  0  0  0
  181.0070  176.2030  135.7540 C   0  0  0  0  0  2  0  0  0  0  0  0
  180.7310  175.9810  138.6390 C   0  0  0  0  0  2  0  0  0  0  0  0
  187.6210  177.0480  136.1950 C   0  0  2  0  0  3  0  0  0  0  0  0
  189.8510  174.8710  137.1780 C   0  0  0  0  0  2  0  0  0  0  0  0
  184.8710  174.4910  137.3020 C   0  0  0  0  0  2  0  0  0  0  0  0
  181.9190  175.6510  139.5170 C   0  0  0  0  0  2  0  0  0  0  0  0
  187.0000  175.7580  136.7740 C   0  0  1  0  0  3  0  0  0  0  0  0
  189.1390  178.6860  137.0780 C   0  0  0  0  0  3  0  0  0  0  0  0
  183.2380  175.6440  138.7470 C   0  0  2  0  0  3  0  0  0  0  0  0
  180.3850  174.7830  137.7640 C   0  0  0  0  0  2  0  0  0  0  0  0
  189.6380  176.3070  137.6930 C   0  0  1  0  0  3  0  0  0  0  0  0
  185.0490  177.0140  137.6430 C   0  0  0  0  0  0  0  0  0  0  0  0
  182.5660  174.8330  136.3170 C   0  0  2  0  0  3  0  0  0  0  0  0
  185.4730  175.8190  136.8070 C   0  0  2  0  0  3  0  0  0  0  0  0
  184.2540  179.2920  139.0320 C   0  0  0  0  0  3  0  0  0  0  0  0
  189.0690  174.5090  135.9050 C   0  0  0  0  0  2  0  0  0  0  0  0
  183.5500  178.1040  139.2120 C   0  0  0  0  0  3  0  0  0  0  0  0
  187.5480  174.4990  136.0880 C   0  0  0  0  0  2  0  0  0  0  0  0
  189.0920  177.2740  136.6120 C   0  0  1  0  0  3  0  0  0  0  0  0
  185.3150  179.3330  138.1840 N   0  0  0  0  0  0  0  0  0  0  0  0
  186.8830  178.3620  136.5230 C   0  0  1  0  0  3  0  0  0  0  0  0
  188.8120  176.2800  138.8260 O   0  0  0  0  0  0  0  0  0  0  0  0
  189.5720  176.8110  139.8710 C   0  0  0  0  0  2  0  0  0  0  0  0
  187.5850  177.9690  142.6650 N   0  0  0  0  0  0  0  0  0  0  0  0
  187.7720  178.4180  140.5430 N   0  0  0  0  0  0  0  0  0  0  0  0
  188.6620  177.4630  140.8530 C   0  0  0  0  0  0  0  0  0  0  0  0
  187.1620  178.6820  141.6610 O   0  0  0  0  0  0  0  0  0  0  0  0
  188.5550  177.1630  142.1920 C   0  0  0  0  0  3  0  0  0  0  0  0
  1 18  2  0  0  0  0
  1 26  1  0  0  0  0
  2 14  2  0  0  0  0
  3  7  1  1  0  0  0
  3 16  1  0  0  0  0
  4 15  1  0  0  0  0
  4 23  2  0  0  0  0
  5 11  1  6  0  0  0
  5 15  1  0  0  0  0
  6 19  1  0  0  0  0
  7  6  1  0  0  0  0
  8 12  1  0  0  0  0
  9 27  1  0  0  0  0
  9 25  1  0  0  0  0
  9 13  1  0  0  0  0
 10 17  1  0  0  0  0
 13 20  1  0  0  0  0
 15 12  1  0  0  0  0
 16  8  1  0  0  0  0
 17 28  1  0  0  0  0
 18  4  1  0  0  0  0
 19  3  1  0  0  0  0
 19  5  1  0  0  0  0
 20 11  1  0  0  0  0
 20 18  1  0  0  0  0
 21 23  1  0  0  0  0
 22 24  1  0  0  0  0
 22 10  1  0  0  0  0
 24 13  1  0  0  0  0
 25 14  1  0  0  0  0
 25 17  1  0  0  0  0
 26 21  2  0  0  0  0
 27  2  1  0  0  0  0
 27  1  1  0  0  0  0
 28 29  1  0  0  0  0
 29 32  1  0  0  0  0
 31 32  2  0  0  0  0
 31 33  1  0  0  0  0
 32 34  1  0  0  0  0
 33 30  1  0  0  0  0
 34 30  2  0  0  0  0
M  END
>  <MODEL>
3

>  <REMARK>
 VINA RESULT:      -6.3      2.040      2.771
  Name = 
  3 active torsions:
  status: ('A' for Active; 'I' for Inactive)
    1  A    between atoms: C_17  and  O_28
    2  A    between atoms: O_28  and  C_29
    3  A    between atoms: C_29  and  C_32
                            x       y       z     vdW  Elec       q    Type
                         _______ _______ _______ _____ _____    ______ ____

>  <TORSDO>
F 3

$$$$
=
 OpenBabel11122412063D

 34 41  0  0  1  0  0  0  0  0999 V2000
  189.7960  177.9590  138.8970 C   0  0  0  0  0  0  0  0  0  0  0  0
  189.0420  178.5870  136.6130 C   0  0  0  0  0  3  0  0  0  0  0  0
  190.1880  178.4850  144.7840 C   0  0  2  0  0  3  0  0  0  0  0  0
  190.1970  176.7650  140.9740 C   0  0  0  0  0  0  0  0  0  0  0  0
  188.6900  177.1990  143.0020 C   0  0  1  0  0  3  0  0  0  0  0  0
  190.1810  179.3370  142.8020 C   0  0  0  0  0  2  0  0  0  0  0  0
  191.1440  179.3550  143.9790 C   0  0  0  0  0  2  0  0  0  0  0  0
  191.5920  176.4830  144.0020 C   0  0  0  0  0  2  0  0  0  0  0  0
  187.4900  179.0000  138.3950 C   0  0  2  0  0  3  0  0  0  0  0  0
  184.5630  177.5990  138.0110 C   0  0  0  0  0  2  0  0  0  0  0  0
  187.5720  177.4670  141.9970 C   0  0  0  0  0  2  0  0  0  0  0  0
  190.6990  175.5450  143.2190 C   0  0  0  0  0  2  0  0  0  0  0  0
  187.0310  178.1970  139.6320 C   0  0  1  0  0  3  0  0  0  0  0  0
  187.8360  178.4210  136.0900 C   0  0  0  0  0  3  0  0  0  0  0  0
  189.7120  176.2840  142.3170 C   0  0  2  0  0  3  0  0  0  0  0  0
  190.8030  177.1230  145.1380 C   0  0  0  0  0  2  0  0  0  0  0  0
  185.8420  177.3640  137.1830 C   0  0  1  0  0  3  0  0  0  0  0  0
  189.3710  177.6020  140.1920 C   0  0  0  0  0  0  0  0  0  0  0  0
  189.1920  178.5270  143.6260 C   0  0  2  0  0  3  0  0  0  0  0  0
  188.0840  178.1950  140.7400 C   0  0  2  0  0  3  0  0  0  0  0  0
  191.7840  176.6750  139.1590 C   0  0  0  0  0  3  0  0  0  0  0  0
  184.6200  178.7910  138.9790 C   0  0  0  0  0  2  0  0  0  0  0  0
  191.3950  176.2840  140.4370 C   0  0  0  0  0  3  0  0  0  0  0  0
  185.6390  178.6280  140.1120 C   0  0  0  0  0  2  0  0  0  0  0  0
  186.7540  178.6140  137.0930 C   0  0  1  0  0  3  0  0  0  0  0  0
  190.9910  177.5020  138.4290 N   0  0  0  0  0  0  0  0  0  0  0  0
  188.9950  178.9330  138.0650 C   0  0  1  0  0  3  0  0  0  0  0  0
  186.5330  176.2570  137.6940 O   0  0  0  0  0  0  0  0  0  0  0  0
  186.5430  175.3030  136.6740 C   0  0  0  0  0  2  0  0  0  0  0  0
  183.7510  173.0260  137.0110 N   0  0  0  0  0  0  0  0  0  0  0  0
  185.6900  173.3260  137.9550 N   0  0  0  0  0  0  0  0  0  0  0  0
  185.5440  174.2430  136.9860 C   0  0  0  0  0  0  0  0  0  0  0  0
  184.5940  172.6270  137.9210 O   0  0  0  0  0  0  0  0  0  0  0  0
  184.3200  174.0710  136.3810 C   0  0  0  0  0  3  0  0  0  0  0  0
  1 18  1  0  0  0  0
  2 27  1  0  0  0  0
  3  7  1  6  0  0  0
  3 16  1  0  0  0  0
  4 15  1  0  0  0  0
  5 11  1  6  0  0  0
  5 19  1  0  0  0  0
  6 19  1  0  0  0  0
  6  7  1  0  0  0  0
  8 16  1  0  0  0  0
  9 13  1  0  0  0  0
 10 22  1  0  0  0  0
 12  8  1  0  0  0  0
 13 24  1  0  0  0  0
 13 20  1  0  0  0  0
 14  2  2  0  0  0  0
 14 25  1  0  0  0  0
 15  5  1  0  0  0  0
 15 12  1  0  0  0  0
 17 28  1  0  0  0  0
 17 10  1  0  0  0  0
 18 20  1  0  0  0  0
 18  4  2  0  0  0  0
 19  3  1  0  0  0  0
 20 11  1  0  0  0  0
 21 23  2  0  0  0  0
 22 24  1  0  0  0  0
 23  4  1  0  0  0  0
 25 17  1  0  0  0  0
 25  9  1  0  0  0  0
 26  1  2  0  0  0  0
 26 21  1  0  0  0  0
 27  9  1  0  0  0  0
 27  1  1  0  0  0  0
 29 32  1  0  0  0  0
 29 28  1  0  0  0  0
 30 33  1  0  0  0  0
 32 31  2  0  0  0  0
 33 31  1  0  0  0  0
 34 32  1  0  0  0  0
 34 30  2  0  0  0  0
M  END
>  <MODEL>
4

>  <REMARK>
 VINA RESULT:      -6.2      3.093      7.870
  Name = 
  3 active torsions:
  status: ('A' for Active; 'I' for Inactive)
    1  A    between atoms: C_17  and  O_28
    2  A    between atoms: O_28  and  C_29
    3  A    between atoms: C_29  and  C_32
                            x       y       z     vdW  Elec       q    Type
                         _______ _______ _______ _____ _____    ______ ____

>  <TORSDO>
F 3

$$$$
=
 OpenBabel11122412063D

 34 41  0  0  1  0  0  0  0  0999 V2000
  185.4240  178.3510  139.4960 C   0  0  0  0  0  0  0  0  0  0  0  0
  187.8550  178.0470  139.0700 C   0  0  0  0  0  3  0  0  0  0  0  0
  179.9320  180.2260  138.3120 C   0  0  2  0  0  3  0  0  0  0  0  0
  183.0620  177.9590  139.9060 C   0  0  0  0  0  0  0  0  0  0  0  0
  181.4020  178.0390  137.9530 C   0  0  1  0  0  3  0  0  0  0  0  0
  182.0660  180.5320  138.3740 C   0  0  0  0  0  2  0  0  0  0  0  0
  180.8570  181.2540  138.9480 C   0  0  0  0  0  2  0  0  0  0  0  0
  179.9610  179.0200  140.5780 C   0  0  0  0  0  2  0  0  0  0  0  0
  186.4280  178.0360  137.1410 C   0  0  2  0  0  3  0  0  0  0  0  0
  186.6740  175.3650  135.2750 C   0  0  0  0  0  2  0  0  0  0  0  0
  182.5460  177.5240  137.0820 C   0  0  0  0  0  2  0  0  0  0  0  0
  180.5220  177.6290  140.3760 C   0  0  0  0  0  2  0  0  0  0  0  0
  185.0620  177.3920  136.8150 C   0  0  1  0  0  3  0  0  0  0  0  0
  188.4220  177.2210  138.2030 C   0  0  0  0  0  3  0  0  0  0  0  0
  181.6910  177.6000  139.3930 C   0  0  2  0  0  3  0  0  0  0  0  0
  179.1410  179.4300  139.3610 C   0  0  0  0  0  2  0  0  0  0  0  0
  187.2700  175.5990  136.6770 C   0  0  1  0  0  3  0  0  0  0  0  0
  184.1290  178.1160  138.9940 C   0  0  0  0  0  0  0  0  0  0  0  0
  181.1440  179.5430  137.6790 C   0  0  2  0  0  3  0  0  0  0  0  0
  183.9040  178.1250  137.4920 C   0  0  2  0  0  3  0  0  0  0  0  0
  184.6100  178.2560  141.7320 C   0  0  0  0  0  3  0  0  0  0  0  0
  186.0910  176.6130  134.5950 C   0  0  0  0  0  2  0  0  0  0  0  0
  183.3170  178.0060  141.2790 C   0  0  0  0  0  3  0  0  0  0  0  0
  184.8660  177.1980  135.3050 C   0  0  0  0  0  2  0  0  0  0  0  0
  187.6280  177.0820  136.9530 C   0  0  1  0  0  3  0  0  0  0  0  0
  185.6210  178.4310  140.8420 N   0  0  0  0  0  0  0  0  0  0  0  0
  186.5760  178.6260  138.5590 C   0  0  1  0  0  3  0  0  0  0  0  0
  186.3960  175.0910  137.6470 O   0  0  0  0  0  0  0  0  0  0  0  0
  186.2310  173.7360  137.3470 C   0  0  0  0  0  2  0  0  0  0  0  0
  182.8820  172.3960  137.0550 N   0  0  0  0  0  0  0  0  0  0  0  0
  183.8020  174.2930  137.6000 N   0  0  0  0  0  0  0  0  0  0  0  0
  184.7770  173.4140  137.3230 C   0  0  0  0  0  0  0  0  0  0  0  0
  182.6960  173.6310  137.4260 O   0  0  0  0  0  0  0  0  0  0  0  0
  184.2140  172.2090  136.9710 C   0  0  0  0  0  3  0  0  0  0  0  0
  1 26  1  0  0  0  0
  3  7  1  1  0  0  0
  3 16  1  0  0  0  0
  4 23  2  0  0  0  0
  5 11  1  6  0  0  0
  5 15  1  0  0  0  0
  6  7  1  0  0  0  0
  9 27  1  0  0  0  0
 10 17  1  0  0  0  0
 11 20  1  0  0  0  0
 12  8  1  0  0  0  0
 13  9  1  0  0  0  0
 13 20  1  0  0  0  0
 14  2  2  0  0  0  0
 15  4  1  0  0  0  0
 15 12  1  0  0  0  0
 16  8  1  0  0  0  0
 17 25  1  0  0  0  0
 17 28  1  0  0  0  0
 18  1  2  0  0  0  0
 18  4  1  0  0  0  0
 19  5  1  0  0  0  0
 19  3  1  0  0  0  0
 19  6  1  0  0  0  0
 20 18  1  0  0  0  0
 22 10  1  0  0  0  0
 22 24  1  0  0  0  0
 23 21  1  0  0  0  0
 24 13  1  0  0  0  0
 25  9  1  0  0  0  0
 25 14  1  0  0  0  0
 26 21  2  0  0  0  0
 27  2  1  0  0  0  0
 27  1  1  0  0  0  0
 29 28  1  0  0  0  0
 30 33  1  0  0  0  0
 32 29  1  0  0  0  0
 32 31  2  0  0  0  0
 33 31  1  0  0  0  0
 34 30  2  0  0  0  0
 34 32  1  0  0  0  0
M  END
>  <MODEL>
5

>  <REMARK>
 VINA RESULT:      -5.7      3.714      6.224
  Name = 
  3 active torsions:
  status: ('A' for Active; 'I' for Inactive)
    1  A    between atoms: C_17  and  O_28
    2  A    between atoms: O_28  and  C_29
    3  A    between atoms: C_29  and  C_32
                            x       y       z     vdW  Elec       q    Type
                         _______ _______ _______ _____ _____    ______ ____

>  <TORSDO>
F 3

$$$$
=
 OpenBabel11122412063D

 34 41  0  0  1  0  0  0  0  0999 V2000
  183.3780  178.0870  139.5390 C   0  0  0  0  0  0  0  0  0  0  0  0
  181.5640  178.9930  140.9770 C   0  0  0  0  0  3  0  0  0  0  0  0
  185.8530  174.2840  135.7320 C   0  0  2  0  0  3  0  0  0  0  0  0
  185.0840  177.8160  137.8310 C   0  0  0  0  0  0  0  0  0  0  0  0
  184.5200  176.5840  135.6540 C   0  0  1  0  0  3  0  0  0  0  0  0
  184.6540  174.7110  137.4720 C   0  0  0  0  0  2  0  0  0  0  0  0
  185.8890  173.8680  137.1960 C   0  0  0  0  0  2  0  0  0  0  0  0
  187.5530  176.1010  136.3630 C   0  0  0  0  0  2  0  0  0  0  0  0
  180.8740  177.9250  138.9430 C   0  0  2  0  0  3  0  0  0  0  0  0
  179.0300  179.7780  136.9830 C   0  0  0  0  0  2  0  0  0  0  0  0
  183.1030  177.1260  135.8240 C   0  0  0  0  0  2  0  0  0  0  0  0
  186.9500  177.4540  136.0510 C   0  0  0  0  0  2  0  0  0  0  0  0
  181.3790  177.9580  137.4840 C   0  0  1  0  0  3  0  0  0  0  0  0
  180.4700  179.6300  140.5860 C   0  0  0  0  0  3  0  0  0  0  0  0
  185.4650  177.5340  136.4010 C   0  0  2  0  0  3  0  0  0  0  0  0
  187.1010  175.0810  135.3250 C   0  0  0  0  0  2  0  0  0  0  0  0
  179.8120  180.2130  138.2370 C   0  0  1  0  0  3  0  0  0  0  0  0
  183.7310  177.7210  138.2250 C   0  0  0  0  0  0  0  0  0  0  0  0
  184.5720  175.0730  135.9980 C   0  0  2  0  0  3  0  0  0  0  0  0
  182.6660  177.1550  137.3020 C   0  0  2  0  0  3  0  0  0  0  0  0
  185.6420  178.6360  140.0310 C   0  0  0  0  0  3  0  0  0  0  0  0
  178.9310  178.2600  136.7670 C   0  0  0  0  0  2  0  0  0  0  0  0
  186.0330  178.3000  138.7370 C   0  0  0  0  0  3  0  0  0  0  0  0
  180.2750  177.5790  136.4860 C   0  0  0  0  0  2  0  0  0  0  0  0
  179.9330  179.0960  139.3050 C   0  0  1  0  0  3  0  0  0  0  0  0
  184.3410  178.5140  140.4030 N   0  0  0  0  0  0  0  0  0  0  0  0
  181.9630  177.9050  140.0360 C   0  0  1  0  0  3  0  0  0  0  0  0
  181.0700  180.7020  137.8580 O   0  0  0  0  0  0  0  0  0  0  0  0
  181.1440  182.0060  138.3540 C   0  0  0  0  0  2  0  0  0  0  0  0
  181.2430  184.7720  136.0220 N   0  0  0  0  0  0  0  0  0  0  0  0
  180.8330  182.6350  135.9490 N   0  0  0  0  0  0  0  0  0  0  0  0
  181.1420  182.9630  137.2120 C   0  0  0  0  0  0  0  0  0  0  0  0
  180.9120  183.7510  135.2850 O   0  0  0  0  0  0  0  0  0  0  0  0
  181.4000  184.3130  137.2790 C   0  0  0  0  0  3  0  0  0  0  0  0
  1 27  1  0  0  0  0
  1 26  1  0  0  0  0
  3 16  1  1  0  0  0
  3 19  1  0  0  0  0
  3  7  1  0  0  0  0
  4 18  1  0  0  0  0
  4 23  2  0  0  0  0
  5 11  1  1  0  0  0
  5 19  1  0  0  0  0
  5 15  1  0  0  0  0
  7  6  1  0  0  0  0
  9 25  1  0  0  0  0
  9 27  1  0  0  0  0
 10 17  1  0  0  0  0
 11 20  1  0  0  0  0
 12  8  1  0  0  0  0
 12 15  1  0  0  0  0
 13  9  1  0  0  0  0
 14  2  2  0  0  0  0
 15  4  1  0  0  0  0
 16  8  1  0  0  0  0
 17 25  1  0  0  0  0
 18  1  2  0  0  0  0
 19  6  1  0  0  0  0
 20 13  1  0  0  0  0
 20 18  1  0  0  0  0
 21 26  2  0  0  0  0
 22 10  1  0  0  0  0
 23 21  1  0  0  0  0
 24 22  1  0  0  0  0
 24 13  1  0  0  0  0
 25 14  1  0  0  0  0
 27  2  1  0  0  0  0
 28 17  1  0  0  0  0
 28 29  1  0  0  0  0
 30 34  2  0  0  0  0
 31 32  2  0  0  0  0
 32 34  1  0  0  0  0
 32 29  1  0  0  0  0
 33 31  1  0  0  0  0
 33 30  1  0  0  0  0
M  END
>  <MODEL>
6

>  <REMARK>
 VINA RESULT:      -5.6      4.607      7.731
  Name = 
  3 active torsions:
  status: ('A' for Active; 'I' for Inactive)
    1  A    between atoms: C_17  and  O_28
    2  A    between atoms: O_28  and  C_29
    3  A    between atoms: C_29  and  C_32
                            x       y       z     vdW  Elec       q    Type
                         _______ _______ _______ _____ _____    ______ ____

>  <TORSDO>
F 3

$$$$
=
 OpenBabel11122412063D

 34 41  0  0  1  0  0  0  0  0999 V2000
  185.9530  177.4620  136.7810 C   0  0  0  0  0  0  0  0  0  0  0  0
  187.9630  178.9040  136.5350 C   0  0  0  0  0  3  0  0  0  0  0  0
  182.3200  172.9910  135.4060 C   0  0  2  0  0  3  0  0  0  0  0  0
  184.2680  175.9390  137.6410 C   0  0  0  0  0  0  0  0  0  0  0  0
  184.3740  173.4500  137.0320 C   0  0  1  0  0  3  0  0  0  0  0  0
  183.5850  174.6450  134.8440 C   0  0  0  0  0  2  0  0  0  0  0  0
  182.1340  174.2650  134.5940 C   0  0  0  0  0  2  0  0  0  0  0  0
  181.3610  174.3000  137.3960 C   0  0  0  0  0  2  0  0  0  0  0  0
  188.2440  176.5860  135.9850 C   0  0  2  0  0  3  0  0  0  0  0  0
  190.6290  175.0710  137.6270 C   0  0  0  0  0  2  0  0  0  0  0  0
  185.8910  173.6210  136.9870 C   0  0  0  0  0  2  0  0  0  0  0  0
  182.4010  174.3360  138.4940 C   0  0  0  0  0  2  0  0  0  0  0  0
  187.7900  175.2620  136.6360 C   0  0  1  0  0  3  0  0  0  0  0  0
  189.2130  178.6040  136.8570 C   0  0  0  0  0  3  0  0  0  0  0  0
  183.8180  174.5360  137.9610 C   0  0  2  0  0  3  0  0  0  0  0  0
  181.4310  172.9680  136.6590 C   0  0  0  0  0  2  0  0  0  0  0  0
  190.0430  176.4730  137.8860 C   0  0  1  0  0  3  0  0  0  0  0  0
  185.5000  176.1440  136.9820 C   0  0  0  0  0  0  0  0  0  0  0  0
  183.7950  173.3410  135.5980 C   0  0  2  0  0  3  0  0  0  0  0  0
  186.3030  174.9890  136.4090 C   0  0  2  0  0  3  0  0  0  0  0  0
  184.0220  178.3270  137.8740 C   0  0  0  0  0  3  0  0  0  0  0  0
  190.1920  174.4120  136.3100 C   0  0  0  0  0  2  0  0  0  0  0  0
  183.5450  177.0400  138.1080 C   0  0  0  0  0  3  0  0  0  0  0  0
  188.6950  174.0870  136.2400 C   0  0  0  0  0  2  0  0  0  0  0  0
  189.5340  177.1740  136.6000 C   0  0  1  0  0  3  0  0  0  0  0  0
  185.1960  178.5090  137.2150 N   0  0  0  0  0  0  0  0  0  0  0  0
  187.2120  177.7330  135.9930 C   0  0  1  0  0  3  0  0  0  0  0  0
  189.0380  176.3870  138.8590 O   0  0  0  0  0  0  0  0  0  0  0  0
  189.4950  177.1260  139.9530 C   0  0  0  0  0  2  0  0  0  0  0  0
  186.8670  178.4540  142.0570 N   0  0  0  0  0  0  0  0  0  0  0  0
  187.4260  178.5390  139.9540 N   0  0  0  0  0  0  0  0  0  0  0  0
  188.3370  177.7990  140.6050 C   0  0  0  0  0  0  0  0  0  0  0  0
  186.5770  178.9040  140.8690 O   0  0  0  0  0  0  0  0  0  0  0  0
  187.9970  177.7310  141.9360 C   0  0  0  0  0  3  0  0  0  0  0  0
  1 18  2  0  0  0  0
  1 26  1  0  0  0  0
  2 14  2  0  0  0  0
  3  7  1  6  0  0  0
  3 19  1  0  0  0  0
  3 16  1  0  0  0  0
  4 15  1  0  0  0  0
  4 23  2  0  0  0  0
  5 11  1  6  0  0  0
  5 15  1  0  0  0  0
  6 19  1  0  0  0  0
  7  6  1  0  0  0  0
  8 12  1  0  0  0  0
  9 27  1  0  0  0  0
  9 25  1  0  0  0  0
  9 13  1  0  0  0  0
 10 17  1  0  0  0  0
 15 12  1  0  0  0  0
 16  8  1  0  0  0  0
 17 28  1  0  0  0  0
 18  4  1  0  0  0  0
 19  5  1  0  0  0  0
 20 13  1  0  0  0  0
 20 18  1  0  0  0  0
 20 11  1  0  0  0  0
 21 23  1  0  0  0  0
 22 10  1  0  0  0  0
 24 22  1  0  0  0  0
 24 13  1  0  0  0  0
 25 14  1  0  0  0  0
 25 17  1  0  0  0  0
 26 21  2  0  0  0  0
 27  2  1  0  0  0  0
 27  1  1  0  0  0  0
 28 29  1  0  0  0  0
 29 32  1  0  0  0  0
 31 32  2  0  0  0  0
 31 33  1  0  0  0  0
 32 34  1  0  0  0  0
 33 30  1  0  0  0  0
 34 30  2  0  0  0  0
M  END
>  <MODEL>
7

>  <REMARK>
 VINA RESULT:      -5.5      1.445      1.569
  Name = 
  3 active torsions:
  status: ('A' for Active; 'I' for Inactive)
    1  A    between atoms: C_17  and  O_28
    2  A    between atoms: O_28  and  C_29
    3  A    between atoms: C_29  and  C_32
                            x       y       z     vdW  Elec       q    Type
                         _______ _______ _______ _____ _____    ______ ____

>  <TORSDO>
F 3

$$$$
=
 OpenBabel11122412063D

 34 41  0  0  1  0  0  0  0  0999 V2000
  181.5320  178.1150  136.5350 C   0  0  0  0  0  0  0  0  0  0  0  0
  180.7890  180.3610  137.3000 C   0  0  0  0  0  3  0  0  0  0  0  0
  185.3080  173.5880  135.9590 C   0  0  2  0  0  3  0  0  0  0  0  0
  181.7180  175.7210  136.1680 C   0  0  0  0  0  0  0  0  0  0  0  0
  183.3450  174.3390  137.5890 C   0  0  1  0  0  3  0  0  0  0  0  0
  184.8670  175.6990  135.9560 C   0  0  0  0  0  2  0  0  0  0  0  0
  185.4870  174.7270  134.9650 C   0  0  0  0  0  2  0  0  0  0  0  0
  183.1240  173.0520  134.7210 C   0  0  0  0  0  2  0  0  0  0  0  0
  182.2600  179.1690  138.7740 C   0  0  2  0  0  3  0  0  0  0  0  0
  181.1070  178.7390  141.8010 C   0  0  0  0  0  2  0  0  0  0  0  0
  183.0670  175.3380  138.7100 C   0  0  0  0  0  2  0  0  0  0  0  0
  181.9740  173.1730  135.6970 C   0  0  0  0  0  2  0  0  0  0  0  0
  182.3460  177.7050  139.2570 C   0  0  1  0  0  3  0  0  0  0  0  0
  180.4400  180.7180  138.5280 C   0  0  0  0  0  3  0  0  0  0  0  0
  182.1310  174.3550  136.6520 C   0  0  2  0  0  3  0  0  0  0  0  0
  184.3540  172.5050  135.4340 C   0  0  0  0  0  2  0  0  0  0  0  0
  180.3490  179.2560  140.5640 C   0  0  1  0  0  3  0  0  0  0  0  0
  182.0130  176.8580  136.9520 C   0  0  0  0  0  0  0  0  0  0  0  0
  184.7500  174.5800  136.9790 C   0  0  2  0  0  3  0  0  0  0  0  0
  182.9040  176.7750  138.1790 C   0  0  2  0  0  3  0  0  0  0  0  0
  180.4900  177.1240  134.6370 C   0  0  0  0  0  3  0  0  0  0  0  0
  182.6310  178.6290  141.6360 C   0  0  0  0  0  2  0  0  0  0  0  0
  180.9320  175.8600  135.0210 C   0  0  0  0  0  3  0  0  0  0  0  0
  183.0740  177.5870  140.6030 C   0  0  0  0  0  2  0  0  0  0  0  0
  181.2510  180.0290  139.5680 C   0  0  1  0  0  3  0  0  0  0  0  0
  180.8040  178.2120  135.3880 N   0  0  0  0  0  0  0  0  0  0  0  0
  181.9070  179.3710  137.2860 C   0  0  1  0  0  3  0  0  0  0  0  0
  179.6890  178.1890  139.9400 O   0  0  0  0  0  0  0  0  0  0  0  0
  179.1490  177.4140  140.9690 C   0  0  0  0  0  2  0  0  0  0  0  0
  179.3520  174.1470  139.4260 N   0  0  0  0  0  0  0  0  0  0  0  0
  178.9310  174.9560  141.4030 N   0  0  0  0  0  0  0  0  0  0  0  0
  179.1950  175.9780  140.5750 C   0  0  0  0  0  0  0  0  0  0  0  0
  179.0420  173.8910  140.6650 O   0  0  0  0  0  0  0  0  0  0  0  0
  179.4600  175.4850  139.3180 C   0  0  0  0  0  3  0  0  0  0  0  0
  1 18  1  0  0  0  0
  1 27  1  0  0  0  0
  2 14  2  0  0  0  0
  3  7  1  6  0  0  0
  3 19  1  0  0  0  0
  4 15  1  0  0  0  0
  4 18  2  0  0  0  0
  5 11  1  1  0  0  0
  6 19  1  0  0  0  0
  7  6  1  0  0  0  0
  8 16  1  0  0  0  0
  8 12  1  0  0  0  0
  9 13  1  0  0  0  0
  9 25  1  0  0  0  0
 12 15  1  0  0  0  0
 13 24  1  0  0  0  0
 14 25  1  0  0  0  0
 15  5  1  0  0  0  0
 16  3  1  0  0  0  0
 17 10  1  0  0  0  0
 18 20  1  0  0  0  0
 19  5  1  0  0  0  0
 20 11  1  0  0  0  0
 20 13  1  0  0  0  0
 21 23  2  0  0  0  0
 21 26  1  0  0  0  0
 22 10  1  0  0  0  0
 23  4  1  0  0  0  0
 24 22  1  0  0  0  0
 25 17  1  0  0  0  0
 26  1  2  0  0  0  0
 27  2  1  0  0  0  0
 27  9  1  0  0  0  0
 28 17  1  0  0  0  0
 28 29  1  0  0  0  0
 30 33  1  0  0  0  0
 32 29  1  0  0  0  0
 32 31  2  0  0  0  0
 33 31  1  0  0  0  0
 34 30  2  0  0  0  0
 34 32  1  0  0  0  0
M  END
>  <MODEL>
8

>  <REMARK>
 VINA RESULT:      -5.2      4.482      7.047
  Name = 
  3 active torsions:
  status: ('A' for Active; 'I' for Inactive)
    1  A    between atoms: C_17  and  O_28
    2  A    between atoms: O_28  and  C_29
    3  A    between atoms: C_29  and  C_32
                            x       y       z     vdW  Elec       q    Type
                         _______ _______ _______ _____ _____    ______ ____

>  <TORSDO>
F 3

$$$$
=
 OpenBabel11122412063D

 34 41  0  0  1  0  0  0  0  0999 V2000
  184.1670  177.3500  138.8340 C   0  0  0  0  0  0  0  0  0  0  0  0
  182.8380  178.6140  140.5130 C   0  0  0  0  0  3  0  0  0  0  0  0
  185.8910  172.5490  135.8230 C   0  0  2  0  0  3  0  0  0  0  0  0
  185.1590  176.5560  136.7630 C   0  0  0  0  0  0  0  0  0  0  0  0
  184.1410  174.5340  135.5590 C   0  0  1  0  0  3  0  0  0  0  0  0
  185.3350  173.5350  137.6590 C   0  0  0  0  0  2  0  0  0  0  0  0
  186.5440  172.7420  137.1850 C   0  0  0  0  0  2  0  0  0  0  0  0
  187.2500  174.5850  135.0510 C   0  0  0  0  0  2  0  0  0  0  0  0
  181.7210  176.7880  139.4290 C   0  0  2  0  0  3  0  0  0  0  0  0
  178.9310  177.5910  137.9290 C   0  0  0  0  0  2  0  0  0  0  0  0
  182.7960  174.9960  136.1180 C   0  0  0  0  0  2  0  0  0  0  0  0
  186.2890  175.6610  134.5950 C   0  0  0  0  0  2  0  0  0  0  0  0
  181.6460  176.2850  137.9700 C   0  0  1  0  0  3  0  0  0  0  0  0
  181.5640  178.9660  140.4290 C   0  0  0  0  0  3  0  0  0  0  0  0
  185.0530  175.7650  135.4850 C   0  0  2  0  0  3  0  0  0  0  0  0
  186.6970  173.2110  134.6950 C   0  0  0  0  0  2  0  0  0  0  0  0
  179.9930  178.5360  138.5230 C   0  0  1  0  0  3  0  0  0  0  0  0
  184.0960  176.5260  137.6940 C   0  0  0  0  0  0  0  0  0  0  0  0
  184.6500  173.2850  136.3240 C   0  0  2  0  0  3  0  0  0  0  0  0
  182.9260  175.5690  137.5420 C   0  0  2  0  0  3  0  0  0  0  0  0
  186.2720  178.2080  138.1240 C   0  0  0  0  0  3  0  0  0  0  0  0
  179.1030  176.1060  138.2870 C   0  0  0  0  0  2  0  0  0  0  0  0
  186.2350  177.4220  136.9750 C   0  0  0  0  0  3  0  0  0  0  0  0
  180.3720  175.4680  137.7110 C   0  0  0  0  0  2  0  0  0  0  0  0
  180.7370  177.9370  139.7430 C   0  0  1  0  0  3  0  0  0  0  0  0
  185.2550  178.1480  139.0230 N   0  0  0  0  0  0  0  0  0  0  0  0
  183.1050  177.2760  139.9050 C   0  0  1  0  0  3  0  0  0  0  0  0
  180.8860  178.9270  137.5150 O   0  0  0  0  0  0  0  0  0  0  0  0
  180.1840  179.8200  136.7020 C   0  0  0  0  0  2  0  0  0  0  0  0
  180.7460  183.3730  137.0920 N   0  0  0  0  0  0  0  0  0  0  0  0
  181.5040  181.5300  137.9700 N   0  0  0  0  0  0  0  0  0  0  0  0
  180.5720  181.2130  137.0590 C   0  0  0  0  0  0  0  0  0  0  0  0
  181.5630  182.8300  137.9480 O   0  0  0  0  0  0  0  0  0  0  0  0
  180.0840  182.3670  136.4900 C   0  0  0  0  0  3  0  0  0  0  0  0
  1 26  1  0  0  0  0
  1 27  1  0  0  0  0
  3 16  1  6  0  0  0
  3 19  1  0  0  0  0
  3  7  1  0  0  0  0
  4 23  2  0  0  0  0
  4 18  1  0  0  0  0
  5 11  1  1  0  0  0
  5 19  1  0  0  0  0
  7  6  1  0  0  0  0
  9 25  1  0  0  0  0
  9 27  1  0  0  0  0
 10 22  1  0  0  0  0
 10 17  1  0  0  0  0
 11 20  1  0  0  0  0
 12  8  1  0  0  0  0
 12 15  1  0  0  0  0
 13  9  1  0  0  0  0
 14  2  2  0  0  0  0
 15  5  1  0  0  0  0
 15  4  1  0  0  0  0
 16  8  1  0  0  0  0
 17 25  1  0  0  0  0
 18  1  2  0  0  0  0
 19  6  1  0  0  0  0
 20 18  1  0  0  0  0
 20 13  1  0  0  0  0
 21 26  2  0  0  0  0
 23 21  1  0  0  0  0
 24 13  1  0  0  0  0
 24 22  1  0  0  0  0
 25 14  1  0  0  0  0
 27  2  1  0  0  0  0
 28 17  1  0  0  0  0
 29 32  1  0  0  0  0
 29 28  1  0  0  0  0
 30 33  1  0  0  0  0
 32 31  2  0  0  0  0
 33 31  1  0  0  0  0
 34 32  1  0  0  0  0
 34 30  2  0  0  0  0
M  END
>  <MODEL>
9

>  <REMARK>
 VINA RESULT:      -5.1      3.907      6.974
  Name = 
  3 active torsions:
  status: ('A' for Active; 'I' for Inactive)
    1  A    between atoms: C_17  and  O_28
    2  A    between atoms: O_28  and  C_29
    3  A    between atoms: C_29  and  C_32
                            x       y       z     vdW  Elec       q    Type
                         _______ _______ _______ _____ _____    ______ ____

>  <TORSDO>
F 3

$$$$
