=
 OpenBabel11122411553D

 28 32  0  0  1  0  0  0  0  0999 V2000
  180.2170  177.8400  141.8690 C   0  0  0  0  0  0  0  0  0  0  0  0
  180.5320  180.7220  139.5570 O   0  0  0  0  0  0  0  0  0  0  0  0
  182.0030  173.9740  137.2120 O   0  0  0  0  0  0  0  0  0  0  0  0
  182.2040  179.0180  143.4530 C   0  0  0  0  0  3  0  0  0  0  0  0
  183.4150  175.8110  137.6060 N   0  0  0  0  0  0  0  0  0  0  0  0
  179.2360  177.2160  141.1040 O   0  0  0  0  0  0  0  0  0  0  0  0
  182.6520  181.6240  138.6920 O   0  0  0  0  0  0  0  0  0  0  0  0
  181.7050  180.4590  138.6560 S   0  0  0  0  0  0  0  0  0  0  0  0
  181.4460  178.9850  136.3650 C   0  0  0  0  0  0  0  0  0  0  0  0
  182.5650  178.9870  139.1580 C   0  0  2  0  0  3  0  0  0  0  0  0
  178.9310  174.0050  139.4420 O   0  0  0  0  0  1  0  0  0  0  0  0
  182.4010  176.6150  139.6130 C   0  0  2  0  0  3  0  0  0  0  0  0
  182.3040  178.1210  136.8230 N   0  0  0  0  0  0  0  0  0  0  0  0
  181.1620  180.2050  137.0440 N   0  0  0  0  0  2  0  0  0  0  0  0
  179.0170  175.3940  139.5310 C   0  0  2  0  0  3  0  0  0  0  0  0
  181.4430  178.2110  141.2900 C   0  0  0  0  0  0  0  0  0  0  0  0
  182.2940  174.9970  137.8870 C   0  0  0  0  0  0  0  0  0  0  0  0
  180.6950  178.6650  135.1230 C   0  0  0  0  0  1  0  0  0  0  0  0
  180.1240  175.9070  138.6080 C   0  0  0  0  0  2  0  0  0  0  0  0
  182.4400  178.7840  142.0960 C   0  0  0  0  0  3  0  0  0  0  0  0
  179.9840  178.0830  143.2280 C   0  0  0  0  0  3  0  0  0  0  0  0
  180.9740  178.6720  144.0170 C   0  0  0  0  0  3  0  0  0  0  0  0
  179.2310  175.8030  140.9820 C   0  0  0  0  0  2  0  0  0  0  0  0
  183.5120  176.8840  138.5790 C   0  0  2  0  0  3  0  0  0  0  0  0
  181.5190  175.4610  139.0600 C   0  0  2  0  0  3  0  0  0  0  0  0
  183.2060  178.2640  137.9810 C   0  0  2  0  0  3  0  0  0  0  0  0
  184.3930  175.5550  136.5630 C   0  0  0  0  0  1  0  0  0  0  0  0
  181.6820  177.9480  139.8280 C   0  0  1  0  0  3  0  0  0  0  0  0
  1 21  1  0  0  0  0
  3 17  2  0  0  0  0
  4 22  1  0  0  0  0
  5 17  1  0  0  0  0
  5 24  1  0  0  0  0
  6  1  1  0  0  0  0
  8  7  2  0  0  0  0
  8  2  2  0  0  0  0
  9 13  2  0  0  0  0
  9 14  1  0  0  0  0
 10  8  1  6  0  0  0
 10 28  1  0  0  0  0
 11 15  1  0  0  0  0
 12 28  1  0  0  0  0
 13 26  1  0  0  0  0
 14  8  1  0  0  0  0
 15 23  1  0  0  0  0
 16  1  2  0  0  0  0
 16 20  1  0  0  0  0
 17 25  1  0  0  0  0
 18  9  1  0  0  0  0
 19 25  1  0  0  0  0
 19 15  1  0  0  0  0
 20  4  2  0  0  0  0
 21 22  2  0  0  0  0
 23  6  1  0  0  0  0
 24 12  1  0  0  0  0
 25 12  1  0  0  0  0
 26 24  1  0  0  0  0
 26 10  1  0  0  0  0
 27  5  1  0  0  0  0
 28 16  1  0  0  0  0
M  END
>  <MODEL>
1

>  <REMARK>
 VINA RESULT:      -6.0      0.000      0.000
  Name = 
  0 active torsions:
  status: ('A' for Active; 'I' for Inactive)
                            x       y       z     vdW  Elec       q    Type
                         _______ _______ _______ _____ _____    ______ ____

>  <TORSDO>
F 0

$$$$
=
 OpenBabel11122411553D

 28 32  0  0  1  0  0  0  0  0999 V2000
  185.3710  175.7540  137.2100 C   0  0  0  0  0  0  0  0  0  0  0  0
  182.6110  175.2500  134.7860 O   0  0  0  0  0  0  0  0  0  0  0  0
  181.3860  178.8050  141.0350 O   0  0  0  0  0  0  0  0  0  0  0  0
  185.5540  172.9690  137.4330 C   0  0  0  0  0  3  0  0  0  0  0  0
  180.6700  176.6920  140.2980 N   0  0  0  0  0  0  0  0  0  0  0  0
  185.3040  177.1420  137.1370 O   0  0  0  0  0  0  0  0  0  0  0  0
  180.6890  173.7470  135.1130 O   0  0  0  0  0  0  0  0  0  0  0  0
  181.3510  175.0160  135.5700 S   0  0  0  0  0  0  0  0  0  0  0  0
  179.8240  177.0990  136.4760 C   0  0  0  0  0  0  0  0  0  0  0  0
  181.7040  174.9020  137.3080 C   0  0  2  0  0  3  0  0  0  0  0  0
  184.7180  179.8140  139.5210 O   0  0  0  0  0  1  0  0  0  0  0  0
  182.6880  175.9820  139.2380 C   0  0  2  0  0  3  0  0  0  0  0  0
  180.0080  176.7010  137.7010 N   0  0  0  0  0  0  0  0  0  0  0  0
  180.2730  176.3390  135.3570 N   0  0  0  0  0  2  0  0  0  0  0  0
  184.4510  179.0090  138.4140 C   0  0  2  0  0  3  0  0  0  0  0  0
  184.2240  175.0010  137.5190 C   0  0  0  0  0  0  0  0  0  0  0  0
  181.6080  177.7450  140.3930 C   0  0  0  0  0  0  0  0  0  0  0  0
  179.1750  178.4130  136.2350 C   0  0  0  0  0  1  0  0  0  0  0  0
  183.0340  178.4420  138.5120 C   0  0  0  0  0  2  0  0  0  0  0  0
  184.3300  173.6070  137.6470 C   0  0  0  0  0  3  0  0  0  0  0  0
  186.5930  175.1080  136.9900 C   0  0  0  0  0  3  0  0  0  0  0  0
  186.6850  173.7190  137.1000 C   0  0  0  0  0  3  0  0  0  0  0  0
  185.5090  177.9200  138.3050 C   0  0  0  0  0  2  0  0  0  0  0  0
  181.2270  175.5910  139.5320 C   0  0  2  0  0  3  0  0  0  0  0  0
  182.8730  177.4610  139.6790 C   0  0  2  0  0  3  0  0  0  0  0  0
  180.5540  175.4130  138.1650 C   0  0  2  0  0  3  0  0  0  0  0  0
  179.3770  176.6640  140.9600 C   0  0  0  0  0  1  0  0  0  0  0  0
  182.9160  175.7050  137.7510 C   0  0  1  0  0  3  0  0  0  0  0  0
  1 16  1  0  0  0  0
  2  8  2  0  0  0  0
  4 20  1  0  0  0  0
  5 17  1  0  0  0  0
  5 27  1  0  0  0  0
  6  1  1  0  0  0  0
  6 23  1  0  0  0  0
  7  8  2  0  0  0  0
  9 13  2  0  0  0  0
 10  8  1  6  0  0  0
 10 28  1  0  0  0  0
 10 26  1  0  0  0  0
 12 24  1  0  0  0  0
 12 25  1  0  0  0  0
 13 26  1  0  0  0  0
 14  8  1  0  0  0  0
 14  9  1  0  0  0  0
 15 19  1  0  0  0  0
 15 11  1  0  0  0  0
 16 20  2  0  0  0  0
 16 28  1  0  0  0  0
 17  3  2  0  0  0  0
 18  9  1  0  0  0  0
 19 25  1  0  0  0  0
 21 22  1  0  0  0  0
 21  1  2  0  0  0  0
 22  4  2  0  0  0  0
 23 15  1  0  0  0  0
 24  5  1  0  0  0  0
 25 17  1  0  0  0  0
 26 24  1  0  0  0  0
 28 12  1  0  0  0  0
M  END
>  <MODEL>
2

>  <REMARK>
 VINA RESULT:      -5.6      2.581      6.071
  Name = 
  0 active torsions:
  status: ('A' for Active; 'I' for Inactive)
                            x       y       z     vdW  Elec       q    Type
                         _______ _______ _______ _____ _____    ______ ____

>  <TORSDO>
F 0

$$$$
=
 OpenBabel11122411553D

 28 32  0  0  1  0  0  0  0  0999 V2000
  184.0350  175.9840  136.3540 C   0  0  0  0  0  0  0  0  0  0  0  0
  181.2220  178.1680  135.3200 O   0  0  0  0  0  0  0  0  0  0  0  0
  184.4970  179.2220  141.7510 O   0  0  0  0  0  0  0  0  0  0  0  0
  182.2620  173.8190  136.2530 C   0  0  0  0  0  3  0  0  0  0  0  0
  182.3510  178.4210  141.2270 N   0  0  0  0  0  0  0  0  0  0  0  0
  184.9440  177.0350  136.4280 O   0  0  0  0  0  0  0  0  0  0  0  0
  178.9740  178.1590  136.3200 O   0  0  0  0  0  0  0  0  0  0  0  0
  180.4200  178.4940  136.5480 S   0  0  0  0  0  0  0  0  0  0  0  0
  181.0940  180.5800  138.1860 C   0  0  0  0  0  0  0  0  0  0  0  0
  181.0210  177.5810  137.9500 C   0  0  2  0  0  3  0  0  0  0  0  0
  187.0360  178.4430  139.0380 O   0  0  0  0  0  1  0  0  0  0  0  0
  182.9270  177.0630  139.3490 C   0  0  2  0  0  3  0  0  0  0  0  0
  181.2520  179.7520  139.1760 N   0  0  0  0  0  0  0  0  0  0  0  0
  180.5750  180.1640  136.9250 N   0  0  0  0  0  2  0  0  0  0  0  0
  186.0110  178.4270  138.0930 C   0  0  2  0  0  3  0  0  0  0  0  0
  182.8220  176.0400  137.0650 C   0  0  0  0  0  0  0  0  0  0  0  0
  183.7380  178.5620  140.9930 C   0  0  0  0  0  0  0  0  0  0  0  0
  181.5210  181.9930  138.3530 C   0  0  0  0  0  1  0  0  0  0  0  0
  184.6950  178.8540  138.7440 C   0  0  0  0  0  2  0  0  0  0  0  0
  181.9490  174.9420  137.0230 C   0  0  0  0  0  3  0  0  0  0  0  0
  184.3400  174.8590  135.5790 C   0  0  0  0  0  3  0  0  0  0  0  0
  183.4550  173.7800  135.5280 C   0  0  0  0  0  3  0  0  0  0  0  0
  185.9250  177.0480  137.4530 C   0  0  0  0  0  2  0  0  0  0  0  0
  181.7550  177.5720  140.2110 C   0  0  2  0  0  3  0  0  0  0  0  0
  184.1980  177.8430  139.7840 C   0  0  2  0  0  3  0  0  0  0  0  0
  180.8310  178.3410  139.2560 C   0  0  2  0  0  3  0  0  0  0  0  0
  181.6390  178.9550  142.3760 C   0  0  0  0  0  1  0  0  0  0  0  0
  182.5030  177.2550  137.8920 C   0  0  1  0  0  3  0  0  0  0  0  0
  1  6  1  0  0  0  0
  1 16  1  0  0  0  0
  2  8  2  0  0  0  0
  4 20  1  0  0  0  0
  5 27  1  0  0  0  0
  6 23  1  0  0  0  0
  7  8  2  0  0  0  0
  8 14  1  0  0  0  0
  9 18  1  0  0  0  0
  9 13  2  0  0  0  0
 10  8  1  6  0  0  0
 10 26  1  0  0  0  0
 12 25  1  0  0  0  0
 12 24  1  0  0  0  0
 13 26  1  0  0  0  0
 14  9  1  0  0  0  0
 15 19  1  0  0  0  0
 15 11  1  0  0  0  0
 16 28  1  0  0  0  0
 17  5  1  0  0  0  0
 17  3  2  0  0  0  0
 19 25  1  0  0  0  0
 20 16  2  0  0  0  0
 21  1  2  0  0  0  0
 22 21  1  0  0  0  0
 22  4  2  0  0  0  0
 23 15  1  0  0  0  0
 24  5  1  0  0  0  0
 25 17  1  0  0  0  0
 26 24  1  0  0  0  0
 28 10  1  0  0  0  0
 28 12  1  0  0  0  0
M  END
>  <MODEL>
3

>  <REMARK>
 VINA RESULT:      -5.2      2.757      5.874
  Name = 
  0 active torsions:
  status: ('A' for Active; 'I' for Inactive)
                            x       y       z     vdW  Elec       q    Type
                         _______ _______ _______ _____ _____    ______ ____

>  <TORSDO>
F 0

$$$$
=
 OpenBabel11122411553D

 28 32  0  0  1  0  0  0  0  0999 V2000
  180.6050  180.2300  138.9490 C   0  0  0  0  0  0  0  0  0  0  0  0
  184.2740  180.1240  139.4740 O   0  0  0  0  0  0  0  0  0  0  0  0
  181.0670  175.2640  135.0820 O   0  0  0  0  0  0  0  0  0  0  0  0
  180.2970  179.7530  141.6910 C   0  0  0  0  0  3  0  0  0  0  0  0
  182.0740  175.0080  137.1900 N   0  0  0  0  0  0  0  0  0  0  0  0
  180.7150  180.4560  137.5800 O   0  0  0  0  0  0  0  0  0  0  0  0
  185.4800  178.3860  140.7320 O   0  0  0  0  0  0  0  0  0  0  0  0
  184.6930  178.6810  139.4870 S   0  0  0  0  0  0  0  0  0  0  0  0
  185.2500  177.3330  137.1710 C   0  0  0  0  0  0  0  0  0  0  0  0
  183.2730  177.6150  139.4220 C   0  0  2  0  0  3  0  0  0  0  0  0
  179.5920  178.7280  134.5940 O   0  0  0  0  0  1  0  0  0  0  0  0
  181.2650  177.0070  138.2160 C   0  0  2  0  0  3  0  0  0  0  0  0
  184.2950  176.4890  137.4320 N   0  0  0  0  0  0  0  0  0  0  0  0
  185.6510  178.3360  138.1010 N   0  0  0  0  0  2  0  0  0  0  0  0
  180.5200  179.2430  135.4980 C   0  0  2  0  0  3  0  0  0  0  0  0
  181.2510  179.1310  139.5440 C   0  0  0  0  0  0  0  0  0  0  0  0
  181.3190  175.7190  136.2290 C   0  0  0  0  0  0  0  0  0  0  0  0
  185.9050  177.2890  135.8390 C   0  0  0  0  0  1  0  0  0  0  0  0
  181.5090  178.1520  135.9080 C   0  0  0  0  0  2  0  0  0  0  0  0
  181.0750  178.8890  140.9160 C   0  0  0  0  0  3  0  0  0  0  0  0
  179.8330  181.0950  139.7330 C   0  0  0  0  0  3  0  0  0  0  0  0
  179.6800  180.8580  141.1010 C   0  0  0  0  0  3  0  0  0  0  0  0
  179.7920  179.8500  136.6900 C   0  0  0  0  0  2  0  0  0  0  0  0
  182.1570  175.7680  138.4250 C   0  0  2  0  0  3  0  0  0  0  0  0
  180.8460  177.0330  136.7200 C   0  0  2  0  0  3  0  0  0  0  0  0
  183.5680  176.3060  138.7020 C   0  0  2  0  0  3  0  0  0  0  0  0
  182.6010  173.6660  137.0120 C   0  0  0  0  0  1  0  0  0  0  0  0
  182.0810  178.2090  138.6930 C   0  0  1  0  0  3  0  0  0  0  0  0
  1 16  2  0  0  0  0
  1 21  1  0  0  0  0
  2  8  2  0  0  0  0
  3 17  2  0  0  0  0
  5 24  1  0  0  0  0
  6  1  1  0  0  0  0
  8  7  2  0  0  0  0
  9 13  2  0  0  0  0
  9 14  1  0  0  0  0
 10  8  1  6  0  0  0
 11 15  1  0  0  0  0
 12 24  1  0  0  0  0
 12 28  1  0  0  0  0
 13 26  1  0  0  0  0
 14  8  1  0  0  0  0
 15 19  1  0  0  0  0
 15 23  1  0  0  0  0
 16 20  1  0  0  0  0
 17 25  1  0  0  0  0
 17  5  1  0  0  0  0
 18  9  1  0  0  0  0
 19 25  1  0  0  0  0
 20  4  2  0  0  0  0
 21 22  2  0  0  0  0
 22  4  1  0  0  0  0
 23  6  1  0  0  0  0
 24 26  1  0  0  0  0
 25 12  1  0  0  0  0
 26 10  1  0  0  0  0
 27  5  1  0  0  0  0
 28 10  1  0  0  0  0
 28 16  1  0  0  0  0
M  END
>  <MODEL>
4

>  <REMARK>
 VINA RESULT:      -5.1      2.514      3.744
  Name = 
  0 active torsions:
  status: ('A' for Active; 'I' for Inactive)
                            x       y       z     vdW  Elec       q    Type
                         _______ _______ _______ _____ _____    ______ ____

>  <TORSDO>
F 0

$$$$
=
 OpenBabel11122411553D

 28 32  0  0  1  0  0  0  0  0999 V2000
  189.6020  174.4060  136.3790 C   0  0  0  0  0  0  0  0  0  0  0  0
  189.4750  177.4840  138.4430 O   0  0  0  0  0  0  0  0  0  0  0  0
  183.3710  174.8170  135.4710 O   0  0  0  0  0  0  0  0  0  0  0  0
  191.2940  175.7750  134.6170 C   0  0  0  0  0  3  0  0  0  0  0  0
  184.5990  176.7620  134.9880 N   0  0  0  0  0  0  0  0  0  0  0  0
  188.7550  173.6950  137.2240 O   0  0  0  0  0  0  0  0  0  0  0  0
  189.0550  179.7530  137.5870 O   0  0  0  0  0  0  0  0  0  0  0  0
  188.4500  178.4000  137.8350 S   0  0  0  0  0  0  0  0  0  0  0  0
  185.7940  178.1880  138.4560 C   0  0  0  0  0  0  0  0  0  0  0  0
  187.8450  177.7360  136.3020 C   0  0  2  0  0  3  0  0  0  0  0  0
  185.5540  172.0290  136.8410 O   0  0  0  0  0  1  0  0  0  0  0  0
  186.7980  175.8550  135.1960 C   0  0  2  0  0  3  0  0  0  0  0  0
  185.5200  177.9500  137.2070 N   0  0  0  0  0  0  0  0  0  0  0  0
  187.1010  178.5550  138.8900 N   0  0  0  0  0  2  0  0  0  0  0  0
  186.4480  172.9800  137.3320 C   0  0  2  0  0  3  0  0  0  0  0  0
  189.2060  175.6500  135.8560 C   0  0  0  0  0  0  0  0  0  0  0  0
  184.4790  175.4080  135.3760 C   0  0  0  0  0  0  0  0  0  0  0  0
  184.7240  178.0190  139.4720 C   0  0  0  0  0  1  0  0  0  0  0  0
  185.8830  174.3850  137.1200 C   0  0  0  0  0  2  0  0  0  0  0  0
  190.0530  176.3190  134.9580 C   0  0  0  0  0  3  0  0  0  0  0  0
  190.8490  173.8690  136.0390 C   0  0  0  0  0  3  0  0  0  0  0  0
  191.6940  174.5520  135.1610 C   0  0  0  0  0  3  0  0  0  0  0  0
  187.8080  172.7920  136.6750 C   0  0  0  0  0  2  0  0  0  0  0  0
  185.9980  177.1440  134.9270 C   0  0  2  0  0  3  0  0  0  0  0  0
  185.7850  174.7620  135.6370 C   0  0  2  0  0  3  0  0  0  0  0  0
  186.3980  178.1280  136.0350 C   0  0  2  0  0  3  0  0  0  0  0  0
  183.4930  177.6200  134.5990 C   0  0  0  0  0  1  0  0  0  0  0  0
  187.8650  176.2180  136.2300 C   0  0  1  0  0  3  0  0  0  0  0  0
  1  6  1  0  0  0  0
  4 20  2  0  0  0  0
  4 22  1  0  0  0  0
  5 17  1  0  0  0  0
  7  8  2  0  0  0  0
  8  2  2  0  0  0  0
  8 14  1  0  0  0  0
  9 14  1  0  0  0  0
  9 18  1  0  0  0  0
 10  8  1  1  0  0  0
 11 15  1  0  0  0  0
 12 25  1  0  0  0  0
 12 28  1  0  0  0  0
 13  9  2  0  0  0  0
 16 28  1  0  0  0  0
 16  1  2  0  0  0  0
 17  3  2  0  0  0  0
 17 25  1  0  0  0  0
 19 15  1  0  0  0  0
 20 16  1  0  0  0  0
 21  1  1  0  0  0  0
 22 21  2  0  0  0  0
 23  6  1  0  0  0  0
 23 15  1  0  0  0  0
 24  5  1  0  0  0  0
 24 12  1  0  0  0  0
 24 26  1  0  0  0  0
 25 19  1  0  0  0  0
 26 10  1  0  0  0  0
 26 13  1  0  0  0  0
 27  5  1  0  0  0  0
 28 10  1  0  0  0  0
M  END
>  <MODEL>
5

>  <REMARK>
 VINA RESULT:      -5.1      4.726      8.056
  Name = 
  0 active torsions:
  status: ('A' for Active; 'I' for Inactive)
                            x       y       z     vdW  Elec       q    Type
                         _______ _______ _______ _____ _____    ______ ____

>  <TORSDO>
F 0

$$$$
=
 OpenBabel11122411553D

 28 32  0  0  1  0  0  0  0  0999 V2000
  187.2610  175.7650  137.0980 C   0  0  0  0  0  0  0  0  0  0  0  0
  185.8620  178.1070  139.6080 O   0  0  0  0  0  0  0  0  0  0  0  0
  181.4190  173.7860  135.7630 O   0  0  0  0  0  0  0  0  0  0  0  0
  188.2570  177.9900  135.7200 C   0  0  0  0  0  3  0  0  0  0  0  0
  181.7450  176.1130  135.6970 N   0  0  0  0  0  0  0  0  0  0  0  0
  186.7730  174.6340  137.7460 O   0  0  0  0  0  0  0  0  0  0  0  0
  184.5550  180.1280  139.0930 O   0  0  0  0  0  0  0  0  0  0  0  0
  184.5580  178.6260  139.0730 S   0  0  0  0  0  0  0  0  0  0  0  0
  182.2170  177.2550  139.4340 C   0  0  0  0  0  0  0  0  0  0  0  0
  184.2920  178.0600  137.4090 C   0  0  2  0  0  3  0  0  0  0  0  0
  184.5430  171.9180  136.8440 O   0  0  0  0  0  1  0  0  0  0  0  0
  184.1200  176.1470  135.9360 C   0  0  2  0  0  3  0  0  0  0  0  0
  182.0770  177.1540  138.1440 N   0  0  0  0  0  0  0  0  0  0  0  0
  183.2550  178.0330  140.0250 N   0  0  0  0  0  2  0  0  0  0  0  0
  184.9630  173.0430  137.5510 C   0  0  2  0  0  3  0  0  0  0  0  0
  186.3940  176.8150  136.7480 C   0  0  0  0  0  0  0  0  0  0  0  0
  182.1880  174.7800  135.8540 C   0  0  0  0  0  0  0  0  0  0  0  0
  181.3020  176.4900  140.3190 C   0  0  0  0  0  1  0  0  0  0  0  0
  183.8720  174.1150  137.5210 C   0  0  0  0  0  2  0  0  0  0  0  0
  186.8990  177.9180  136.0410 C   0  0  0  0  0  3  0  0  0  0  0  0
  188.6220  175.8460  136.7790 C   0  0  0  0  0  3  0  0  0  0  0  0
  189.1190  176.9560  136.0930 C   0  0  0  0  0  3  0  0  0  0  0  0
  186.2860  173.5400  136.9850 C   0  0  0  0  0  2  0  0  0  0  0  0
  182.8640  177.0310  135.8120 C   0  0  2  0  0  3  0  0  0  0  0  0
  183.6420  174.6790  136.1140 C   0  0  2  0  0  3  0  0  0  0  0  0
  182.8150  177.8760  137.0920 C   0  0  2  0  0  3  0  0  0  0  0  0
  180.3870  176.5070  135.3610 C   0  0  0  0  0  1  0  0  0  0  0  0
  184.9350  176.7190  137.0980 C   0  0  1  0  0  3  0  0  0  0  0  0
  1  6  1  0  0  0  0
  3 17  2  0  0  0  0
  4 20  2  0  0  0  0
  4 22  1  0  0  0  0
  5 24  1  0  0  0  0
  5 17  1  0  0  0  0
  8  7  2  0  0  0  0
  8  2  2  0  0  0  0
  8 14  1  0  0  0  0
  9 14  1  0  0  0  0
  9 18  1  0  0  0  0
 10  8  1  1  0  0  0
 11 15  1  0  0  0  0
 12 25  1  0  0  0  0
 12 28  1  0  0  0  0
 13  9  2  0  0  0  0
 16  1  2  0  0  0  0
 16 28  1  0  0  0  0
 17 25  1  0  0  0  0
 19 15  1  0  0  0  0
 20 16  1  0  0  0  0
 21  1  1  0  0  0  0
 22 21  2  0  0  0  0
 23 15  1  0  0  0  0
 23  6  1  0  0  0  0
 24 12  1  0  0  0  0
 24 26  1  0  0  0  0
 25 19  1  0  0  0  0
 26 10  1  0  0  0  0
 26 13  1  0  0  0  0
 27  5  1  0  0  0  0
 28 10  1  0  0  0  0
M  END
>  <MODEL>
6

>  <REMARK>
 VINA RESULT:      -4.9      2.863      5.976
  Name = 
  0 active torsions:
  status: ('A' for Active; 'I' for Inactive)
                            x       y       z     vdW  Elec       q    Type
                         _______ _______ _______ _____ _____    ______ ____

>  <TORSDO>
F 0

$$$$
=
 OpenBabel11122411553D

 28 32  0  0  1  0  0  0  0  0999 V2000
  189.3860  178.2240  139.6950 C   0  0  0  0  0  0  0  0  0  0  0  0
  193.0560  178.0180  139.2080 O   0  0  0  0  0  0  0  0  0  0  0  0
  188.5560  174.6040  134.5940 O   0  0  0  0  0  0  0  0  0  0  0  0
  189.7420  176.9670  142.1720 C   0  0  0  0  0  3  0  0  0  0  0  0
  190.0390  173.7590  136.2090 N   0  0  0  0  0  0  0  0  0  0  0  0
  189.1650  178.8400  138.4670 O   0  0  0  0  0  0  0  0  0  0  0  0
  194.4260  176.0050  139.5660 O   0  0  0  0  0  0  0  0  0  0  0  0
  193.3730  176.6390  138.7020 S   0  0  0  0  0  0  0  0  0  0  0  0
  193.2490  176.0300  136.0370 C   0  0  0  0  0  0  0  0  0  0  0  0
  191.9180  175.6190  138.7040 C   0  0  2  0  0  3  0  0  0  0  0  0
  187.2260  178.0410  135.5050 O   0  0  0  0  0  1  0  0  0  0  0  0
  189.6380  175.3620  137.9330 C   0  0  2  0  0  3  0  0  0  0  0  0
  192.3380  175.1340  136.2840 N   0  0  0  0  0  0  0  0  0  0  0  0
  193.9320  176.7240  137.0780 N   0  0  0  0  0  2  0  0  0  0  0  0
  188.3810  178.2830  136.2490 C   0  0  2  0  0  3  0  0  0  0  0  0
  190.0890  177.0090  139.7670 C   0  0  0  0  0  0  0  0  0  0  0  0
  189.1140  174.7080  135.7180 C   0  0  0  0  0  0  0  0  0  0  0  0
  193.5480  176.3830  134.6250 C   0  0  0  0  0  1  0  0  0  0  0  0
  189.3710  177.1320  136.0630 C   0  0  0  0  0  2  0  0  0  0  0  0
  190.2460  176.3760  141.0100 C   0  0  0  0  0  3  0  0  0  0  0  0
  188.8890  178.8140  140.8630 C   0  0  0  0  0  3  0  0  0  0  0  0
  189.0680  178.1880  142.0990 C   0  0  0  0  0  3  0  0  0  0  0  0
  188.0130  178.5070  137.7090 C   0  0  0  0  0  2  0  0  0  0  0  0
  190.4750  174.1280  137.5440 C   0  0  2  0  0  3  0  0  0  0  0  0
  188.8620  175.8170  136.6660 C   0  0  2  0  0  3  0  0  0  0  0  0
  191.9410  174.5800  137.5910 C   0  0  2  0  0  3  0  0  0  0  0  0
  190.4190  172.5330  135.5280 C   0  0  0  0  0  1  0  0  0  0  0  0
  190.6210  176.3850  138.5060 C   0  0  1  0  0  3  0  0  0  0  0  0
  1 16  2  0  0  0  0
  1 21  1  0  0  0  0
  3 17  2  0  0  0  0
  5 24  1  0  0  0  0
  6  1  1  0  0  0  0
  8  2  2  0  0  0  0
  8  7  2  0  0  0  0
  9 13  2  0  0  0  0
  9 14  1  0  0  0  0
 10  8  1  6  0  0  0
 11 15  1  0  0  0  0
 12 28  1  0  0  0  0
 13 26  1  0  0  0  0
 14  8  1  0  0  0  0
 15 23  1  0  0  0  0
 16 20  1  0  0  0  0
 17  5  1  0  0  0  0
 17 25  1  0  0  0  0
 18  9  1  0  0  0  0
 19 15  1  0  0  0  0
 19 25  1  0  0  0  0
 20  4  2  0  0  0  0
 21 22  2  0  0  0  0
 22  4  1  0  0  0  0
 23  6  1  0  0  0  0
 24 26  1  0  0  0  0
 24 12  1  0  0  0  0
 25 12  1  0  0  0  0
 26 10  1  0  0  0  0
 27  5  1  0  0  0  0
 28 10  1  0  0  0  0
 28 16  1  0  0  0  0
M  END
>  <MODEL>
7

>  <REMARK>
 VINA RESULT:      -4.9      7.975      9.805
  Name = 
  0 active torsions:
  status: ('A' for Active; 'I' for Inactive)
                            x       y       z     vdW  Elec       q    Type
                         _______ _______ _______ _____ _____    ______ ____

>  <TORSDO>
F 0

$$$$
=
 OpenBabel11122411553D

 28 32  0  0  1  0  0  0  0  0999 V2000
  179.9340  175.1100  138.7890 C   0  0  0  0  0  0  0  0  0  0  0  0
  183.5540  175.3330  138.0200 O   0  0  0  0  0  0  0  0  0  0  0  0
  180.0400  181.0970  140.7800 O   0  0  0  0  0  0  0  0  0  0  0  0
  179.4840  174.6230  136.0690 C   0  0  0  0  0  3  0  0  0  0  0  0
  180.9440  180.7200  138.6430 N   0  0  0  0  0  0  0  0  0  0  0  0
  180.1130  175.3610  140.1470 O   0  0  0  0  0  0  0  0  0  0  0  0
  184.5390  176.6470  136.1870 O   0  0  0  0  0  0  0  0  0  0  0  0
  183.8280  176.7190  137.5090 S   0  0  0  0  0  0  0  0  0  0  0  0
  184.3310  178.7990  139.2140 C   0  0  0  0  0  0  0  0  0  0  0  0
  182.3140  177.6270  137.3130 C   0  0  2  0  0  3  0  0  0  0  0  0
  178.9310  177.8840  142.4710 O   0  0  0  0  0  1  0  0  0  0  0  0
  180.2980  178.4360  138.3830 C   0  0  2  0  0  3  0  0  0  0  0  0
  183.2890  179.4280  138.7540 N   0  0  0  0  0  0  0  0  0  0  0  0
  184.7960  177.5800  138.6390 N   0  0  0  0  0  2  0  0  0  0  0  0
  179.8730  177.1750  141.7260 C   0  0  2  0  0  3  0  0  0  0  0  0
  180.4470  175.9970  137.8270 C   0  0  0  0  0  0  0  0  0  0  0  0
  180.2960  180.3100  139.8310 C   0  0  0  0  0  0  0  0  0  0  0  0
  185.0250  179.3360  140.4120 C   0  0  0  0  0  1  0  0  0  0  0  0
  180.7350  178.1450  140.9170 C   0  0  0  0  0  2  0  0  0  0  0  0
  180.2000  175.7550  136.4660 C   0  0  0  0  0  3  0  0  0  0  0  0
  179.2230  173.9740  138.3840 C   0  0  0  0  0  3  0  0  0  0  0  0
  179.0000  173.7300  137.0270 C   0  0  0  0  0  3  0  0  0  0  0  0
  179.1670  176.1510  140.8480 C   0  0  0  0  0  2  0  0  0  0  0  0
  181.0580  179.6030  137.7230 C   0  0  2  0  0  3  0  0  0  0  0  0
  179.9370  178.8740  139.8290 C   0  0  2  0  0  3  0  0  0  0  0  0
  182.5030  179.1200  137.5450 C   0  0  2  0  0  3  0  0  0  0  0  0
  181.3420  182.0840  138.3380 C   0  0  0  0  0  1  0  0  0  0  0  0
  181.2120  177.2130  138.2740 C   0  0  1  0  0  3  0  0  0  0  0  0
  1  6  1  0  0  0  0
  4 20  2  0  0  0  0
  4 22  1  0  0  0  0
  5 17  1  0  0  0  0
  6 23  1  0  0  0  0
  7  8  2  0  0  0  0
  8  2  2  0  0  0  0
  8 14  1  0  0  0  0
  9 18  1  0  0  0  0
 10  8  1  1  0  0  0
 10 26  1  0  0  0  0
 10 28  1  0  0  0  0
 12 25  1  0  0  0  0
 13  9  2  0  0  0  0
 14  9  1  0  0  0  0
 15 11  1  0  0  0  0
 16 28  1  0  0  0  0
 16  1  2  0  0  0  0
 17  3  2  0  0  0  0
 19 15  1  0  0  0  0
 20 16  1  0  0  0  0
 21  1  1  0  0  0  0
 22 21  2  0  0  0  0
 23 15  1  0  0  0  0
 24 12  1  0  0  0  0
 24  5  1  0  0  0  0
 25 17  1  0  0  0  0
 25 19  1  0  0  0  0
 26 24  1  0  0  0  0
 26 13  1  0  0  0  0
 27  5  1  0  0  0  0
 28 12  1  0  0  0  0
M  END
>  <MODEL>
8

>  <REMARK>
 VINA RESULT:      -4.6      2.212      5.191
  Name = 
  0 active torsions:
  status: ('A' for Active; 'I' for Inactive)
                            x       y       z     vdW  Elec       q    Type
                         _______ _______ _______ _____ _____    ______ ____

>  <TORSDO>
F 0

$$$$
=
 OpenBabel11122411553D

 28 32  0  0  1  0  0  0  0  0999 V2000
  183.9900  178.2970  139.7260 C   0  0  0  0  0  0  0  0  0  0  0  0
  183.4170  174.9050  138.3440 O   0  0  0  0  0  0  0  0  0  0  0  0
  189.8050  178.2580  137.2750 O   0  0  0  0  0  0  0  0  0  0  0  0
  181.8790  179.2010  138.1240 C   0  0  0  0  0  3  0  0  0  0  0  0
  188.0680  177.7370  135.7800 N   0  0  0  0  0  0  0  0  0  0  0  0
  185.0520  177.8900  140.5290 O   0  0  0  0  0  0  0  0  0  0  0  0
  183.1510  174.3700  135.9560 O   0  0  0  0  0  0  0  0  0  0  0  0
  184.1130  174.8290  137.0140 S   0  0  0  0  0  0  0  0  0  0  0  0
  186.7630  174.1740  136.8230 C   0  0  0  0  0  0  0  0  0  0  0  0
  184.7730  176.4150  136.5600 C   0  0  2  0  0  3  0  0  0  0  0  0
  188.5510  178.8050  140.8170 O   0  0  0  0  0  1  0  0  0  0  0  0
  186.2140  178.2530  137.1940 C   0  0  2  0  0  3  0  0  0  0  0  0
  187.0080  175.3250  136.2680 N   0  0  0  0  0  0  0  0  0  0  0  0
  185.4370  173.7350  137.1060 N   0  0  0  0  0  2  0  0  0  0  0  0
  187.4680  177.9670  140.5550 C   0  0  2  0  0  3  0  0  0  0  0  0
  184.0000  178.0340  138.3450 C   0  0  0  0  0  0  0  0  0  0  0  0
  188.5740  178.1260  137.0410 C   0  0  0  0  0  0  0  0  0  0  0  0
  187.9040  173.3120  137.2260 C   0  0  0  0  0  1  0  0  0  0  0  0
  187.6170  177.3400  139.1680 C   0  0  0  0  0  2  0  0  0  0  0  0
  182.9460  178.5080  137.5470 C   0  0  0  0  0  3  0  0  0  0  0  0
  182.9150  178.9860  140.2990 C   0  0  0  0  0  3  0  0  0  0  0  0
  181.8610  179.4360  139.5000 C   0  0  0  0  0  3  0  0  0  0  0  0
  186.1690  178.7460  140.7070 C   0  0  0  0  0  2  0  0  0  0  0  0
  186.6160  177.7140  135.8080 C   0  0  2  0  0  3  0  0  0  0  0  0
  187.5120  178.3740  138.0410 C   0  0  2  0  0  3  0  0  0  0  0  0
  186.0390  176.2950  135.7240 C   0  0  2  0  0  3  0  0  0  0  0  0
  188.8730  177.5010  134.5940 C   0  0  0  0  0  1  0  0  0  0  0  0
  185.1590  177.2900  137.7410 C   0  0  1  0  0  3  0  0  0  0  0  0
  1 21  1  0  0  0  0
  1  6  1  0  0  0  0
  4 22  1  0  0  0  0
  5 24  1  0  0  0  0
  5 17  1  0  0  0  0
  6 23  1  0  0  0  0
  7  8  2  0  0  0  0
  8 14  1  0  0  0  0
  8  2  2  0  0  0  0
  9 14  1  0  0  0  0
  9 18  1  0  0  0  0
 10  8  1  1  0  0  0
 10 28  1  0  0  0  0
 12 28  1  0  0  0  0
 12 25  1  0  0  0  0
 13  9  2  0  0  0  0
 15 23  1  0  0  0  0
 15 11  1  0  0  0  0
 16  1  2  0  0  0  0
 17  3  2  0  0  0  0
 17 25  1  0  0  0  0
 19 15  1  0  0  0  0
 20  4  2  0  0  0  0
 20 16  1  0  0  0  0
 22 21  2  0  0  0  0
 24 12  1  0  0  0  0
 25 19  1  0  0  0  0
 26 24  1  0  0  0  0
 26 13  1  0  0  0  0
 26 10  1  0  0  0  0
 27  5  1  0  0  0  0
 28 16  1  0  0  0  0
M  END
>  <MODEL>
9

>  <REMARK>
 VINA RESULT:      -4.5      3.872      6.452
  Name = 
  0 active torsions:
  status: ('A' for Active; 'I' for Inactive)
                            x       y       z     vdW  Elec       q    Type
                         _______ _______ _______ _____ _____    ______ ____

>  <TORSDO>
F 0

$$$$
