=
 OpenBabel11122411213D

 37 44  0  0  1  0  0  0  0  0999 V2000
  187.5060  177.6070  139.5350 C   0  0  0  0  0  2  0  0  0  0  0  0
  190.3060  177.7570  143.3090 C   0  0  0  0  0  0  0  0  0  0  0  0
  186.1350  177.7900  143.9950 C   0  0  0  0  0  0  0  0  0  0  0  0
  187.8770  178.1860  138.1770 C   0  0  2  0  0  3  0  0  0  0  0  0
  183.6260  177.7330  141.1510 C   0  0  0  0  0  2  0  0  0  0  0  0
  188.3830  177.7160  144.9080 C   0  0  0  0  0  0  0  0  0  0  0  0
  185.6360  178.0620  142.7930 C   0  0  0  0  0  0  0  0  0  0  0  0
  185.3730  177.8780  137.6720 C   0  0  2  0  0  3  0  0  0  0  0  0
  187.5530  177.8000  143.8970 C   0  0  0  0  0  0  0  0  0  0  0  0
  184.1710  178.2240  142.4900 C   0  0  0  0  0  0  0  0  0  0  0  0
  187.8070  177.5390  146.2610 C   0  0  0  0  0  3  0  0  0  0  0  0
  186.6580  178.6580  137.3840 C   0  0  0  0  0  2  0  0  0  0  0  0
  187.9350  178.0870  142.5640 C   0  0  0  0  0  0  0  0  0  0  0  0
  190.5730  176.3020  142.9690 C   0  0  0  0  0  1  0  0  0  0  0  0
  184.6050  178.8450  145.5620 C   0  0  0  0  0  3  0  0  0  0  0  0
  186.4640  177.4960  146.4430 C   0  0  0  0  0  3  0  0  0  0  0  0
  189.3680  178.3610  142.2240 C   0  0  0  0  0  2  0  0  0  0  0  0
  184.5580  178.3770  138.8810 C   0  0  1  0  0  3  0  0  0  0  0  0
  184.7060  177.5970  140.1000 C   0  0  1  0  0  3  0  0  0  0  0  0
  185.4440  177.6390  145.3110 C   0  0  2  0  0  3  0  0  0  0  0  0
  186.8120  178.2510  141.8600 C   0  0  0  0  0  0  0  0  0  0  0  0
  189.7580  177.8350  144.6490 O   0  0  0  0  0  0  0  0  0  0  0  0
  183.2980  178.7770  143.3830 C   0  0  0  0  0  0  0  0  0  0  0  0
  191.6240  178.5010  143.2760 C   0  0  0  0  0  1  0  0  0  0  0  0
  185.3570  178.9230  140.0160 N   0  0  1  0  0  0  0  0  0  0  0  0
  185.5550  176.4900  137.6550 O   0  0  0  0  0  1  0  0  0  0  0  0
  186.7560  178.6300  140.3940 C   0  0  2  0  0  3  0  0  0  0  0  0
  183.6710  179.3020  144.7250 C   0  0  0  0  0  3  0  0  0  0  0  0
  180.8560  178.6300  143.8780 C   0  0  0  0  0  3  0  0  0  0  0  0
  181.8850  179.0340  143.0150 C   0  0  0  0  0  0  0  0  0  0  0  0
  181.5590  179.7320  141.8410 C   0  0  0  0  0  3  0  0  0  0  0  0
  179.9040  180.6980  140.3280 N   0  0  0  0  0  1  0  0  0  0  0  0
  179.2050  179.5800  142.3830 C   0  0  0  0  0  3  0  0  0  0  0  0
  180.2240  179.9970  141.5230 C   0  0  0  0  0  0  0  0  0  0  0  0
  179.5210  178.8980  143.5610 C   0  0  0  0  0  3  0  0  0  0  0  0
  189.9970  177.5170  137.3050 O   0  0  0  0  0  1  0  0  0  0  0  0
  188.6500  177.1590  137.3680 C   0  0  0  0  0  2  0  0  0  0  0  0
  1 27  1  0  0  0  0
  2 22  1  0  0  0  0
  3 20  1  0  0  0  0
  4 37  1  6  0  0  0
  4  1  1  0  0  0  0
  5 10  1  0  0  0  0
  6 11  1  0  0  0  0
  7  3  2  0  0  0  0
  8 26  1  1  0  0  0
  8 18  1  0  0  0  0
  9  3  1  0  0  0  0
  9  6  2  0  0  0  0
 10  7  1  0  0  0  0
 10 23  2  0  0  0  0
 11 16  2  0  0  0  0
 12  8  1  0  0  0  0
 12  4  1  0  0  0  0
 13  9  1  0  0  0  0
 14  2  1  0  0  0  0
 17 13  1  0  0  0  0
 17  2  1  0  0  0  0
 18 25  1  0  0  0  0
 18 19  1  0  0  0  0
 19  5  1  0  0  0  0
 20 15  1  0  0  0  0
 20 16  1  0  0  0  0
 21 13  2  0  0  0  0
 21  7  1  0  0  0  0
 22  6  1  0  0  0  0
 23 28  1  0  0  0  0
 24  2  1  0  0  0  0
 25 19  1  0  0  0  0
 25 27  1  0  0  0  0
 27 21  1  0  0  0  0
 28 15  2  0  0  0  0
 30 23  1  0  0  0  0
 30 29  2  0  0  0  0
 31 30  1  0  0  0  0
 32 34  1  0  0  0  0
 33 35  2  0  0  0  0
 34 31  2  0  0  0  0
 34 33  1  0  0  0  0
 35 29  1  0  0  0  0
 36 37  1  0  0  0  0
M  END
>  <MODEL>
1

>  <REMARK>
 VINA RESULT:     -10.6      0.000      0.000
  Name = 
  2 active torsions:
  status: ('A' for Active; 'I' for Inactive)
    1  A    between atoms: C_4  and  C_37
    2  A    between atoms: C_23  and  C_30
                            x       y       z     vdW  Elec       q    Type
                         _______ _______ _______ _____ _____    ______ ____

>  <TORSDO>
F 2

$$$$
=
 OpenBabel11122411213D

 37 44  0  0  1  0  0  0  0  0999 V2000
  188.2210  177.7150  139.7390 C   0  0  0  0  0  2  0  0  0  0  0  0
  190.7930  177.7990  143.6740 C   0  0  0  0  0  0  0  0  0  0  0  0
  186.5900  177.7330  144.1140 C   0  0  0  0  0  0  0  0  0  0  0  0
  188.6590  178.3420  138.4230 C   0  0  2  0  0  3  0  0  0  0  0  0
  184.2520  177.7180  141.1280 C   0  0  0  0  0  2  0  0  0  0  0  0
  188.7820  177.6730  145.1540 C   0  0  0  0  0  0  0  0  0  0  0  0
  186.1560  178.0330  142.8930 C   0  0  0  0  0  0  0  0  0  0  0  0
  186.1950  178.0030  137.7630 C   0  0  2  0  0  3  0  0  0  0  0  0
  188.0110  177.7720  144.0990 C   0  0  0  0  0  0  0  0  0  0  0  0
  184.7080  178.1780  142.5100 C   0  0  0  0  0  0  0  0  0  0  0  0
  188.1320  177.4430  146.4650 C   0  0  0  0  0  3  0  0  0  0  0  0
  187.4780  178.8160  137.5740 C   0  0  0  0  0  2  0  0  0  0  0  0
  188.4630  178.1080  142.8000 C   0  0  0  0  0  0  0  0  0  0  0  0
  191.1100  176.3610  143.3060 C   0  0  0  0  0  1  0  0  0  0  0  0
  184.9500  178.7100  145.6190 C   0  0  0  0  0  3  0  0  0  0  0  0
  186.7830  177.3690  146.5670 C   0  0  0  0  0  3  0  0  0  0  0  0
  189.9080  178.4190  142.5540 C   0  0  0  0  0  2  0  0  0  0  0  0
  185.3010  178.4490  138.9360 C   0  0  1  0  0  3  0  0  0  0  0  0
  185.3940  177.6350  140.1380 C   0  0  1  0  0  3  0  0  0  0  0  0
  185.8270  177.5280  145.3820 C   0  0  2  0  0  3  0  0  0  0  0  0
  187.3800  178.2730  142.0370 C   0  0  0  0  0  0  0  0  0  0  0  0
  190.1670  177.8250  144.9800 O   0  0  0  0  0  0  0  0  0  0  0  0
  183.7730  178.6860  143.3660 C   0  0  0  0  0  0  0  0  0  0  0  0
  192.0950  178.5680  143.7400 C   0  0  0  0  0  1  0  0  0  0  0  0
  186.0210  178.9750  140.1320 N   0  0  1  0  0  0  0  0  0  0  0  0
  186.4050  176.6210  137.7150 O   0  0  0  0  0  1  0  0  0  0  0  0
  187.4020  178.6960  140.5830 C   0  0  2  0  0  3  0  0  0  0  0  0
  184.0570  179.1760  144.7430 C   0  0  0  0  0  3  0  0  0  0  0  0
  182.1040  179.1260  141.5630 C   0  0  0  0  0  3  0  0  0  0  0  0
  182.3800  178.9280  142.9240 C   0  0  0  0  0  0  0  0  0  0  0  0
  181.3160  178.9020  143.8400 C   0  0  0  0  0  3  0  0  0  0  0  0
  178.9330  179.0770  144.3420 N   0  0  0  0  0  1  0  0  0  0  0  0
  179.7390  179.3080  142.0490 C   0  0  0  0  0  3  0  0  0  0  0  0
  180.0020  179.0980  143.4050 C   0  0  0  0  0  0  0  0  0  0  0  0
  180.7900  179.3200  141.1280 C   0  0  0  0  0  3  0  0  0  0  0  0
  189.7100  176.1980  138.3800 O   0  0  0  0  0  1  0  0  0  0  0  0
  189.4980  177.3550  137.6300 C   0  0  0  0  0  2  0  0  0  0  0  0
  1 27  1  0  0  0  0
  2 24  1  0  0  0  0
  2 22  1  0  0  0  0
  3 20  1  0  0  0  0
  4 37  1  6  0  0  0
  4  1  1  0  0  0  0
  5 10  1  0  0  0  0
  6 11  1  0  0  0  0
  7  3  2  0  0  0  0
  8 26  1  1  0  0  0
  8 18  1  0  0  0  0
  9  3  1  0  0  0  0
  9  6  2  0  0  0  0
 10  7  1  0  0  0  0
 10 23  2  0  0  0  0
 11 16  2  0  0  0  0
 12  8  1  0  0  0  0
 12  4  1  0  0  0  0
 13  9  1  0  0  0  0
 14  2  1  0  0  0  0
 17 13  1  0  0  0  0
 17  2  1  0  0  0  0
 18 25  1  0  0  0  0
 18 19  1  0  0  0  0
 19  5  1  0  0  0  0
 20 15  1  0  0  0  0
 20 16  1  0  0  0  0
 21 13  2  0  0  0  0
 21  7  1  0  0  0  0
 22  6  1  0  0  0  0
 23 28  1  0  0  0  0
 25 19  1  0  0  0  0
 25 27  1  0  0  0  0
 27 21  1  0  0  0  0
 28 15  2  0  0  0  0
 29 30  1  0  0  0  0
 30 23  1  0  0  0  0
 30 31  2  0  0  0  0
 33 34  2  0  0  0  0
 34 31  1  0  0  0  0
 34 32  1  0  0  0  0
 35 29  2  0  0  0  0
 35 33  1  0  0  0  0
 37 36  1  0  0  0  0
M  END
>  <MODEL>
2

>  <REMARK>
 VINA RESULT:     -10.5      1.001      1.261
  Name = 
  2 active torsions:
  status: ('A' for Active; 'I' for Inactive)
    1  A    between atoms: C_4  and  C_37
    2  A    between atoms: C_23  and  C_30
                            x       y       z     vdW  Elec       q    Type
                         _______ _______ _______ _____ _____    ______ ____

>  <TORSDO>
F 2

$$$$
=
 OpenBabel11122411213D

 37 44  0  0  1  0  0  0  0  0999 V2000
  187.2070  178.1700  145.3020 C   0  0  0  0  0  2  0  0  0  0  0  0
  191.0190  176.5240  143.0950 C   0  0  0  0  0  0  0  0  0  0  0  0
  187.9880  178.2410  140.6990 C   0  0  0  0  0  0  0  0  0  0  0  0
  186.6660  177.5990  146.6050 C   0  0  2  0  0  3  0  0  0  0  0  0
  184.7760  179.6030  142.1850 C   0  0  0  0  0  2  0  0  0  0  0  0
  190.2050  177.2630  140.8490 C   0  0  0  0  0  0  0  0  0  0  0  0
  186.9520  178.3080  141.5290 C   0  0  1  0  0  3  0  0  0  0  0  0
  184.5840  178.9980  146.0290 C   0  0  2  0  0  3  0  0  0  0  0  0
  189.0690  177.6270  141.3910 C   0  0  0  0  0  0  0  0  0  0  0  0
  185.5870  178.8190  141.1570 C   0  0  0  0  0  0  0  0  0  0  0  0
  190.4120  177.5620  139.4130 C   0  0  0  0  0  3  0  0  0  0  0  0
  185.1510  177.7650  146.7370 C   0  0  0  0  0  2  0  0  0  0  0  0
  188.6690  177.3110  142.7110 C   0  0  0  0  0  0  0  0  0  0  0  0
  191.6950  177.7430  143.6960 C   0  0  0  0  0  1  0  0  0  0  0  0
  187.0120  177.8280  138.5120 C   0  0  0  0  0  3  0  0  0  0  0  0
  189.4430  178.1660  138.6830 C   0  0  0  0  0  3  0  0  0  0  0  0
  189.5450  176.4730  143.5920 C   0  0  0  0  0  2  0  0  0  0  0  0
  184.2540  178.8040  144.5360 C   0  0  1  0  0  3  0  0  0  0  0  0
  185.2330  179.3430  143.6040 C   0  0  1  0  0  3  0  0  0  0  0  0
  188.0770  178.5690  139.2440 C   0  0  0  0  0  0  0  0  0  0  0  0
  187.4000  177.7050  142.8430 C   0  0  0  0  0  0  0  0  0  0  0  0
  191.1350  176.5830  141.6520 O   0  0  0  0  0  0  0  0  0  0  0  0
  185.0500  178.6280  139.9160 C   0  0  0  0  0  0  0  0  0  0  0  0
  191.7380  175.2890  143.5930 C   0  0  0  0  0  1  0  0  0  0  0  0
  185.1550  177.8770  143.7910 N   0  0  1  0  0  0  0  0  0  0  0  0
  185.3050  180.1670  146.2950 O   0  0  0  0  0  1  0  0  0  0  0  0
  186.5560  177.5060  144.0850 C   0  0  2  0  0  3  0  0  0  0  0  0
  185.7120  177.8870  138.8060 C   0  0  0  0  0  3  0  0  0  0  0  0
  183.4220  180.1490  138.7900 C   0  0  0  0  0  3  0  0  0  0  0  0
  183.6580  179.0360  139.6110 C   0  0  0  0  0  0  0  0  0  0  0  0
  182.5660  178.2900  140.0820 C   0  0  0  0  0  3  0  0  0  0  0  0
  180.1600  177.9100  140.2480 N   0  0  0  0  0  1  0  0  0  0  0  0
  181.0340  179.7850  138.9510 C   0  0  0  0  0  3  0  0  0  0  0  0
  181.2590  178.6670  139.7600 C   0  0  0  0  0  0  0  0  0  0  0  0
  182.1160  180.5240  138.4650 C   0  0  0  0  0  3  0  0  0  0  0  0
  188.2240  177.3430  148.3960 O   0  0  0  0  0  1  0  0  0  0  0  0
  187.3590  178.2530  147.7880 C   0  0  0  0  0  2  0  0  0  0  0  0
  1  4  1  0  0  0  0
  2 17  1  0  0  0  0
  2 24  1  0  0  0  0
  2 14  1  0  0  0  0
  3  9  2  0  0  0  0
  4 12  1  0  0  0  0
  4 37  1  1  0  0  0
  5 19  1  0  0  0  0
  6  9  1  0  0  0  0
  6 22  1  0  0  0  0
  7  3  1  6  0  0  0
  7 21  1  0  0  0  0
  8 26  1  6  0  0  0
  8 12  1  0  0  0  0
  9 13  1  0  0  0  0
 10  7  1  0  0  0  0
 10  5  1  0  0  0  0
 11  6  2  0  0  0  0
 13 21  2  0  0  0  0
 13 17  1  0  0  0  0
 15 28  2  0  0  0  0
 15 20  1  0  0  0  0
 16 20  2  0  0  0  0
 16 11  1  0  0  0  0
 18  8  1  0  0  0  0
 19 25  1  0  0  0  0
 19 18  1  0  0  0  0
 20  3  1  0  0  0  0
 21 27  1  0  0  0  0
 22  2  1  0  0  0  0
 23 10  2  0  0  0  0
 25 27  1  0  0  0  0
 25 18  1  0  0  0  0
 27  1  1  0  0  0  0
 28 23  1  0  0  0  0
 29 30  1  0  0  0  0
 30 23  1  0  0  0  0
 30 31  2  0  0  0  0
 33 34  2  0  0  0  0
 34 31  1  0  0  0  0
 34 32  1  0  0  0  0
 35 29  2  0  0  0  0
 35 33  1  0  0  0  0
 37 36  1  0  0  0  0
M  END
>  <MODEL>
3

>  <REMARK>
 VINA RESULT:     -10.4      2.327      5.616
  Name = 
  2 active torsions:
  status: ('A' for Active; 'I' for Inactive)
    1  A    between atoms: C_4  and  C_37
    2  A    between atoms: C_23  and  C_30
                            x       y       z     vdW  Elec       q    Type
                         _______ _______ _______ _____ _____    ______ ____

>  <TORSDO>
F 2

$$$$
=
 OpenBabel11122411213D

 37 44  0  0  1  0  0  0  0  0999 V2000
  187.0370  178.2530  145.0450 C   0  0  0  0  0  2  0  0  0  0  0  0
  191.1180  176.6710  143.3240 C   0  0  0  0  0  0  0  0  0  0  0  0
  188.2870  178.1350  140.5470 C   0  0  0  0  0  0  0  0  0  0  0  0
  186.3870  177.7220  146.3140 C   0  0  2  0  0  3  0  0  0  0  0  0
  184.8880  179.4250  141.6260 C   0  0  0  0  0  2  0  0  0  0  0  0
  190.5130  177.2640  140.9710 C   0  0  0  0  0  0  0  0  0  0  0  0
  187.1690  178.1970  141.2630 C   0  0  0  0  0  0  0  0  0  0  0  0
  184.3230  178.9980  145.4570 C   0  0  2  0  0  3  0  0  0  0  0  0
  189.3140  177.6040  141.3760 C   0  0  2  0  0  3  0  0  0  0  0  0
  185.8310  178.6280  140.7280 C   0  0  0  0  0  0  0  0  0  0  0  0
  190.8560  177.5030  139.5500 C   0  0  0  0  0  3  0  0  0  0  0  0
  184.8620  177.8270  146.2830 C   0  0  0  0  0  2  0  0  0  0  0  0
  188.7910  177.3340  142.6640 C   0  0  0  0  0  0  0  0  0  0  0  0
  191.6800  177.9460  143.9250 C   0  0  0  0  0  1  0  0  0  0  0  0
  187.5590  177.5740  138.2960 C   0  0  0  0  0  3  0  0  0  0  0  0
  189.9450  178.0270  138.6950 C   0  0  0  0  0  3  0  0  0  0  0  0
  189.6030  176.5800  143.6720 C   0  0  0  0  0  2  0  0  0  0  0  0
  184.1570  178.7180  143.9510 C   0  0  1  0  0  3  0  0  0  0  0  0
  185.2050  179.2540  143.0960 C   0  0  1  0  0  3  0  0  0  0  0  0
  188.5130  178.3960  139.0930 C   0  0  0  0  0  0  0  0  0  0  0  0
  187.5010  177.6780  142.6460 C   0  0  0  0  0  0  0  0  0  0  0  0
  191.3810  176.6660  141.8990 O   0  0  0  0  0  0  0  0  0  0  0  0
  185.4330  178.3540  139.4510 C   0  0  0  0  0  0  0  0  0  0  0  0
  191.8300  175.4950  143.9570 C   0  0  0  0  0  1  0  0  0  0  0  0
  185.1650  177.7970  143.3510 N   0  0  1  0  0  0  0  0  0  0  0  0
  184.9670  180.2100  145.7330 O   0  0  0  0  0  1  0  0  0  0  0  0
  186.5420  177.5030  143.8040 C   0  0  2  0  0  3  0  0  0  0  0  0
  186.2340  177.5910  138.4540 C   0  0  0  0  0  3  0  0  0  0  0  0
  183.1530  177.6560  138.7110 C   0  0  0  0  0  3  0  0  0  0  0  0
  184.0650  178.6860  138.9850 C   0  0  0  0  0  0  0  0  0  0  0  0
  183.6430  180.0200  138.8720 C   0  0  0  0  0  3  0  0  0  0  0  0
  181.9260  181.6740  138.3440 N   0  0  0  0  0  1  0  0  0  0  0  0
  181.4430  179.2860  138.1800 C   0  0  0  0  0  3  0  0  0  0  0  0
  182.3410  180.3190  138.4640 C   0  0  0  0  0  0  0  0  0  0  0  0
  181.8490  177.9540  138.3050 C   0  0  0  0  0  3  0  0  0  0  0  0
  187.8140  177.6440  148.2270 O   0  0  0  0  0  1  0  0  0  0  0  0
  186.9280  178.4620  147.5250 C   0  0  0  0  0  2  0  0  0  0  0  0
  1  4  1  0  0  0  0
  2 17  1  0  0  0  0
  2 14  1  0  0  0  0
  2 24  1  0  0  0  0
  3  7  2  0  0  0  0
  4 37  1  1  0  0  0
  5 19  1  0  0  0  0
  6  9  1  0  0  0  0
  6 22  1  0  0  0  0
  7 21  1  0  0  0  0
  8 26  1  6  0  0  0
  8 12  1  0  0  0  0
  9  3  1  6  0  0  0
  9 13  1  0  0  0  0
 10  7  1  0  0  0  0
 10  5  1  0  0  0  0
 11  6  2  0  0  0  0
 12  4  1  0  0  0  0
 13 17  1  0  0  0  0
 15 28  2  0  0  0  0
 15 20  1  0  0  0  0
 16 20  2  0  0  0  0
 16 11  1  0  0  0  0
 18  8  1  0  0  0  0
 19 25  1  0  0  0  0
 19 18  1  0  0  0  0
 20  3  1  0  0  0  0
 21 13  2  0  0  0  0
 21 27  1  0  0  0  0
 22  2  1  0  0  0  0
 23 10  2  0  0  0  0
 25 27  1  0  0  0  0
 25 18  1  0  0  0  0
 27  1  1  0  0  0  0
 28 23  1  0  0  0  0
 29 30  1  0  0  0  0
 30 23  1  0  0  0  0
 31 30  2  0  0  0  0
 32 34  1  0  0  0  0
 33 35  1  0  0  0  0
 33 34  2  0  0  0  0
 34 31  1  0  0  0  0
 35 29  2  0  0  0  0
 37 36  1  0  0  0  0
M  END
>  <MODEL>
4

>  <REMARK>
 VINA RESULT:     -10.3      2.487      5.629
  Name = 
  2 active torsions:
  status: ('A' for Active; 'I' for Inactive)
    1  A    between atoms: C_4  and  C_37
    2  A    between atoms: C_23  and  C_30
                            x       y       z     vdW  Elec       q    Type
                         _______ _______ _______ _____ _____    ______ ____

>  <TORSDO>
F 2

$$$$
=
 OpenBabel11122411213D

 37 44  0  0  1  0  0  0  0  0999 V2000
  186.6180  178.6020  138.2370 C   0  0  0  0  0  2  0  0  0  0  0  0
  182.1070  178.8300  139.5430 C   0  0  0  0  0  0  0  0  0  0  0  0
  185.0090  178.8070  142.6160 C   0  0  0  0  0  0  0  0  0  0  0  0
  187.1030  177.9080  136.9730 C   0  0  2  0  0  3  0  0  0  0  0  0
  188.7220  178.5740  141.8780 C   0  0  0  0  0  2  0  0  0  0  0  0
  182.6760  178.9910  141.9730 C   0  0  0  0  0  0  0  0  0  0  0  0
  186.1130  178.4200  141.9830 C   0  0  0  0  0  0  0  0  0  0  0  0
  189.4200  178.1370  138.0700 C   0  0  2  0  0  3  0  0  0  0  0  0
  183.9390  178.8060  141.6790 C   0  0  0  0  0  0  0  0  0  0  0  0
  187.4500  178.2120  142.6400 C   0  0  0  0  0  0  0  0  0  0  0  0
  182.3300  179.2820  143.3830 C   0  0  0  0  0  3  0  0  0  0  0  0
  188.5210  177.3500  137.1130 C   0  0  0  0  0  2  0  0  0  0  0  0
  184.4210  178.4040  140.4100 C   0  0  0  0  0  0  0  0  0  0  0  0
  182.1940  180.2520  139.0170 C   0  0  0  0  0  1  0  0  0  0  0  0
  185.2130  177.8780  144.8530 C   0  0  0  0  0  3  0  0  0  0  0  0
  183.2910  179.3250  144.3380 C   0  0  0  0  0  3  0  0  0  0  0  0
  183.4680  178.1190  139.2890 C   0  0  0  0  0  2  0  0  0  0  0  0
  189.3070  177.7390  139.5540 C   0  0  1  0  0  3  0  0  0  0  0  0
  188.5050  178.6280  140.3810 C   0  0  1  0  0  3  0  0  0  0  0  0
  184.7750  179.0670  144.0690 C   0  0  2  0  0  3  0  0  0  0  0  0
  185.7280  178.1630  140.5420 C   0  0  0  0  0  0  0  0  0  0  0  0
  181.7300  178.8670  140.9420 O   0  0  0  0  0  0  0  0  0  0  0  0
  187.5710  177.7320  143.9130 C   0  0  0  0  0  0  0  0  0  0  0  0
  181.0300  178.1040  138.7660 C   0  0  0  0  0  1  0  0  0  0  0  0
  187.9520  177.3080  140.0050 N   0  0  1  0  0  0  0  0  0  0  0  0
  189.3750  179.5200  137.8580 O   0  0  0  0  0  1  0  0  0  0  0  0
  186.6300  177.6520  139.4390 C   0  0  2  0  0  3  0  0  0  0  0  0
  186.4310  177.3350  144.7850 C   0  0  0  0  0  3  0  0  0  0  0  0
  189.1950  177.8240  145.8060 C   0  0  0  0  0  3  0  0  0  0  0  0
  188.8990  177.4250  144.4940 C   0  0  0  0  0  0  0  0  0  0  0  0
  189.8500  176.6840  143.7740 C   0  0  0  0  0  3  0  0  0  0  0  0
  192.0450  175.6280  143.6060 N   0  0  0  0  0  1  0  0  0  0  0  0
  191.3770  176.7860  145.6490 C   0  0  0  0  0  3  0  0  0  0  0  0
  191.0860  176.3720  144.3460 C   0  0  0  0  0  0  0  0  0  0  0  0
  190.4310  177.5110  146.3790 C   0  0  0  0  0  3  0  0  0  0  0  0
  186.8060  178.1610  134.6170 O   0  0  0  0  0  1  0  0  0  0  0  0
  187.0430  178.8670  135.7970 C   0  0  0  0  0  2  0  0  0  0  0  0
  1 27  1  0  0  0  0
  2 22  1  0  0  0  0
  3 20  1  0  0  0  0
  4 37  1  6  0  0  0
  4 12  1  0  0  0  0
  4  1  1  0  0  0  0
  5 10  1  0  0  0  0
  6 11  1  0  0  0  0
  7  3  2  0  0  0  0
  7 10  1  0  0  0  0
  8 26  1  1  0  0  0
  8 18  1  0  0  0  0
  9  6  2  0  0  0  0
  9  3  1  0  0  0  0
 10 23  2  0  0  0  0
 11 16  2  0  0  0  0
 12  8  1  0  0  0  0
 13 21  2  0  0  0  0
 13  9  1  0  0  0  0
 14  2  1  0  0  0  0
 17  2  1  0  0  0  0
 17 13  1  0  0  0  0
 18 25  1  0  0  0  0
 18 19  1  0  0  0  0
 19  5  1  0  0  0  0
 20 16  1  0  0  0  0
 20 15  1  0  0  0  0
 21  7  1  0  0  0  0
 22  6  1  0  0  0  0
 23 30  1  0  0  0  0
 23 28  1  0  0  0  0
 24  2  1  0  0  0  0
 25 19  1  0  0  0  0
 27 25  1  0  0  0  0
 27 21  1  0  0  0  0
 28 15  2  0  0  0  0
 29 35  1  0  0  0  0
 30 29  2  0  0  0  0
 31 34  2  0  0  0  0
 31 30  1  0  0  0  0
 32 34  1  0  0  0  0
 33 35  2  0  0  0  0
 34 33  1  0  0  0  0
 36 37  1  0  0  0  0
M  END
>  <MODEL>
5

>  <REMARK>
 VINA RESULT:      -9.4      2.425      6.609
  Name = 
  2 active torsions:
  status: ('A' for Active; 'I' for Inactive)
    1  A    between atoms: C_4  and  C_37
    2  A    between atoms: C_23  and  C_30
                            x       y       z     vdW  Elec       q    Type
                         _______ _______ _______ _____ _____    ______ ____

>  <TORSDO>
F 2

$$$$
=
 OpenBabel11122411213D

 37 44  0  0  1  0  0  0  0  0999 V2000
  189.0010  177.7890  141.0620 C   0  0  0  0  0  2  0  0  0  0  0  0
  184.4490  178.3560  142.0940 C   0  0  0  0  0  0  0  0  0  0  0  0
  187.1670  178.2530  145.3300 C   0  0  0  0  0  0  0  0  0  0  0  0
  189.5090  177.0200  139.8500 C   0  0  2  0  0  3  0  0  0  0  0  0
  190.8910  177.7530  144.8180 C   0  0  0  0  0  2  0  0  0  0  0  0
  184.8910  178.5660  144.5470 C   0  0  0  0  0  0  0  0  0  0  0  0
  188.2760  177.7730  144.7760 C   0  0  0  0  0  0  0  0  0  0  0  0
  191.7700  177.1370  141.0730 C   0  0  2  0  0  3  0  0  0  0  0  0
  186.1530  178.2880  144.3340 C   0  0  0  0  0  0  0  0  0  0  0  0
  189.5570  177.5020  145.5160 C   0  0  0  0  0  0  0  0  0  0  0  0
  184.4870  178.9290  145.9250 C   0  0  0  0  0  3  0  0  0  0  0  0
  190.8750  176.3770  140.0900 C   0  0  0  0  0  2  0  0  0  0  0  0
  186.6770  177.8110  143.1080 C   0  0  0  0  0  0  0  0  0  0  0  0
  184.6610  179.7490  141.5300 C   0  0  0  0  0  1  0  0  0  0  0  0
  187.1830  177.3930  147.6040 C   0  0  0  0  0  3  0  0  0  0  0  0
  185.3930  178.9430  146.9330 C   0  0  0  0  0  3  0  0  0  0  0  0
  185.7710  177.5490  141.9430 C   0  0  0  0  0  2  0  0  0  0  0  0
  191.5480  176.8000  142.5600 C   0  0  1  0  0  3  0  0  0  0  0  0
  190.7630  177.7680  143.3100 C   0  0  1  0  0  3  0  0  0  0  0  0
  186.8700  178.5790  146.7580 C   0  0  2  0  0  3  0  0  0  0  0  0
  187.9550  177.4900  143.3240 C   0  0  0  0  0  0  0  0  0  0  0  0
  183.9980  178.4670  143.4670 O   0  0  0  0  0  0  0  0  0  0  0  0
  189.5740  177.0610  146.8080 C   0  0  0  0  0  0  0  0  0  0  0  0
  183.3720  177.6740  141.2790 C   0  0  0  0  0  1  0  0  0  0  0  0
  190.1440  176.4740  142.9450 N   0  0  1  0  0  0  0  0  0  0  0  0
  191.8310  178.5110  140.8140 O   0  0  0  0  0  1  0  0  0  0  0  0
  188.8820  176.8830  142.2920 C   0  0  2  0  0  3  0  0  0  0  0  0
  188.3630  176.7700  147.6240 C   0  0  0  0  0  3  0  0  0  0  0  0
  191.5310  175.5330  147.0720 C   0  0  0  0  0  3  0  0  0  0  0  0
  190.8440  176.6880  147.4750 C   0  0  0  0  0  0  0  0  0  0  0  0
  191.4070  177.5080  148.4670 C   0  0  0  0  0  3  0  0  0  0  0  0
  193.1800  177.9950  150.0730 N   0  0  0  0  0  1  0  0  0  0  0  0
  193.2930  176.0030  148.6650 C   0  0  0  0  0  3  0  0  0  0  0  0
  192.6230  177.1620  149.0640 C   0  0  0  0  0  0  0  0  0  0  0  0
  192.7470  175.1890  147.6680 C   0  0  0  0  0  3  0  0  0  0  0  0
  188.6910  179.0030  138.8010 O   0  0  0  0  0  1  0  0  0  0  0  0
  189.5790  177.9390  138.6430 C   0  0  0  0  0  2  0  0  0  0  0  0
  1 27  1  0  0  0  0
  2 22  1  0  0  0  0
  3 20  1  0  0  0  0
  4 37  1  6  0  0  0
  4 12  1  0  0  0  0
  4  1  1  0  0  0  0
  5 10  1  0  0  0  0
  6 11  1  0  0  0  0
  7  3  2  0  0  0  0
  7 10  1  0  0  0  0
  8 26  1  1  0  0  0
  8 18  1  0  0  0  0
  9  6  2  0  0  0  0
  9  3  1  0  0  0  0
 10 23  2  0  0  0  0
 11 16  2  0  0  0  0
 12  8  1  0  0  0  0
 13 21  2  0  0  0  0
 13  9  1  0  0  0  0
 14  2  1  0  0  0  0
 15 28  2  0  0  0  0
 17  2  1  0  0  0  0
 17 13  1  0  0  0  0
 18 25  1  0  0  0  0
 18 19  1  0  0  0  0
 19  5  1  0  0  0  0
 20 16  1  0  0  0  0
 20 15  1  0  0  0  0
 21  7  1  0  0  0  0
 22  6  1  0  0  0  0
 23 30  1  0  0  0  0
 23 28  1  0  0  0  0
 24  2  1  0  0  0  0
 25 19  1  0  0  0  0
 27 25  1  0  0  0  0
 27 21  1  0  0  0  0
 29 30  2  0  0  0  0
 29 35  1  0  0  0  0
 30 31  1  0  0  0  0
 31 34  2  0  0  0  0
 33 34  1  0  0  0  0
 34 32  1  0  0  0  0
 35 33  2  0  0  0  0
 37 36  1  0  0  0  0
M  END
>  <MODEL>
6

>  <REMARK>
 VINA RESULT:      -9.3      3.517      7.585
  Name = 
  2 active torsions:
  status: ('A' for Active; 'I' for Inactive)
    1  A    between atoms: C_4  and  C_37
    2  A    between atoms: C_23  and  C_30
                            x       y       z     vdW  Elec       q    Type
                         _______ _______ _______ _____ _____    ______ ____

>  <TORSDO>
F 2

$$$$
=
 OpenBabel11122411213D

 37 44  0  0  1  0  0  0  0  0999 V2000
  189.3590  177.2550  139.3510 C   0  0  0  0  0  2  0  0  0  0  0  0
  190.5860  177.6030  143.8770 C   0  0  0  0  0  0  0  0  0  0  0  0
  186.4670  177.8610  142.9670 C   0  0  0  0  0  0  0  0  0  0  0  0
  190.2400  177.7040  138.1950 C   0  0  2  0  0  3  0  0  0  0  0  0
  185.1750  177.6710  139.4060 C   0  0  0  0  0  2  0  0  0  0  0  0
  188.2140  177.7710  144.6490 C   0  0  0  0  0  0  0  0  0  0  0  0
  186.4620  178.0530  141.6510 C   0  0  0  0  0  0  0  0  0  0  0  0
  188.0800  177.4570  136.8190 C   0  0  2  0  0  3  0  0  0  0  0  0
  187.8200  177.8050  143.4000 C   0  0  0  0  0  0  0  0  0  0  0  0
  185.2250  178.2490  140.8180 C   0  0  0  0  0  0  0  0  0  0  0  0
  187.1720  177.7300  145.7010 C   0  0  0  0  0  3  0  0  0  0  0  0
  189.4310  178.1580  136.9790 C   0  0  0  0  0  2  0  0  0  0  0  0
  188.6810  177.9660  142.2880 C   0  0  0  0  0  0  0  0  0  0  0  0
  190.8600  176.1150  143.7500 C   0  0  0  0  0  1  0  0  0  0  0  0
  184.5450  179.1030  143.7880 C   0  0  0  0  0  3  0  0  0  0  0  0
  185.8560  177.7570  145.3760 C   0  0  0  0  0  3  0  0  0  0  0  0
  190.1540  178.1520  142.4870 C   0  0  0  0  0  2  0  0  0  0  0  0
  186.9150  178.0870  137.6070 C   0  0  1  0  0  3  0  0  0  0  0  0
  186.5530  177.4050  138.8400 C   0  0  1  0  0  3  0  0  0  0  0  0
  185.3330  177.8470  143.9410 C   0  0  2  0  0  3  0  0  0  0  0  0
  187.9080  178.1160  141.2100 C   0  0  0  0  0  0  0  0  0  0  0  0
  189.5930  177.8130  144.9110 O   0  0  0  0  0  0  0  0  0  0  0  0
  184.1250  178.9080  141.2880 C   0  0  0  0  0  0  0  0  0  0  0  0
  191.8720  178.2870  144.2880 C   0  0  0  0  0  1  0  0  0  0  0  0
  187.2780  178.6920  138.9210 N   0  0  1  0  0  0  0  0  0  0  0  0
  188.1600  176.0670  136.9560 O   0  0  0  0  0  1  0  0  0  0  0  0
  188.4180  178.3750  139.8080 C   0  0  2  0  0  3  0  0  0  0  0  0
  184.0160  179.5270  142.6380 C   0  0  0  0  0  3  0  0  0  0  0  0
  183.1440  179.9520  139.2440 C   0  0  0  0  0  3  0  0  0  0  0  0
  182.9660  179.1910  140.4090 C   0  0  0  0  0  0  0  0  0  0  0  0
  181.6970  178.6580  140.6900 C   0  0  0  0  0  3  0  0  0  0  0  0
  179.3380  178.3670  140.1320 N   0  0  0  0  0  1  0  0  0  0  0  0
  180.8050  179.6750  138.6830 C   0  0  0  0  0  3  0  0  0  0  0  0
  180.6200  178.9050  139.8350 C   0  0  0  0  0  0  0  0  0  0  0  0
  182.0670  180.1970  138.3870 C   0  0  0  0  0  3  0  0  0  0  0  0
  192.4510  176.8110  138.3320 O   0  0  0  0  0  1  0  0  0  0  0  0
  191.1830  176.5830  137.7940 C   0  0  0  0  0  2  0  0  0  0  0  0
  1 27  1  0  0  0  0
  2 24  1  0  0  0  0
  2 22  1  0  0  0  0
  3  9  1  0  0  0  0
  3 20  1  0  0  0  0
  4 37  1  6  0  0  0
  4  1  1  0  0  0  0
  5 10  1  0  0  0  0
  6 22  1  0  0  0  0
  6 11  1  0  0  0  0
  7  3  2  0  0  0  0
  8 26  1  1  0  0  0
  8 12  1  0  0  0  0
  8 18  1  0  0  0  0
  9  6  2  0  0  0  0
 10 23  2  0  0  0  0
 10  7  1  0  0  0  0
 12  4  1  0  0  0  0
 13 17  1  0  0  0  0
 13  9  1  0  0  0  0
 14  2  1  0  0  0  0
 15 20  1  0  0  0  0
 16 11  2  0  0  0  0
 17  2  1  0  0  0  0
 18 19  1  0  0  0  0
 18 25  1  0  0  0  0
 19 25  1  0  0  0  0
 19  5  1  0  0  0  0
 20 16  1  0  0  0  0
 21  7  1  0  0  0  0
 21 13  2  0  0  0  0
 23 28  1  0  0  0  0
 25 27  1  0  0  0  0
 27 21  1  0  0  0  0
 28 15  2  0  0  0  0
 29 30  1  0  0  0  0
 30 31  2  0  0  0  0
 30 23  1  0  0  0  0
 33 34  2  0  0  0  0
 34 32  1  0  0  0  0
 34 31  1  0  0  0  0
 35 33  1  0  0  0  0
 35 29  2  0  0  0  0
 37 36  1  0  0  0  0
M  END
>  <MODEL>
7

>  <REMARK>
 VINA RESULT:      -9.0      1.608      2.346
  Name = 
  2 active torsions:
  status: ('A' for Active; 'I' for Inactive)
    1  A    between atoms: C_4  and  C_37
    2  A    between atoms: C_23  and  C_30
                            x       y       z     vdW  Elec       q    Type
                         _______ _______ _______ _____ _____    ______ ____

>  <TORSDO>
F 2

$$$$
=
 OpenBabel11122411213D

 37 44  0  0  1  0  0  0  0  0999 V2000
  187.7170  178.1800  145.9680 C   0  0  0  0  0  2  0  0  0  0  0  0
  190.9470  176.7860  142.8480 C   0  0  0  0  0  0  0  0  0  0  0  0
  187.3220  178.3330  141.3180 C   0  0  0  0  0  0  0  0  0  0  0  0
  187.5500  177.5670  147.3510 C   0  0  2  0  0  3  0  0  0  0  0  0
  184.5090  179.4850  143.5850 C   0  0  0  0  0  2  0  0  0  0  0  0
  189.5590  177.4910  140.8910 C   0  0  0  0  0  0  0  0  0  0  0  0
  186.5230  178.3300  142.3810 C   0  0  1  0  0  3  0  0  0  0  0  0
  185.3140  178.8400  147.3410 C   0  0  2  0  0  3  0  0  0  0  0  0
  188.5740  177.7810  141.7060 C   0  0  0  0  0  0  0  0  0  0  0  0
  185.0810  178.7600  142.3700 C   0  0  0  0  0  0  0  0  0  0  0  0
  189.3850  177.8130  139.4560 C   0  0  0  0  0  3  0  0  0  0  0  0
  186.1100  177.6390  147.8590 C   0  0  0  0  0  2  0  0  0  0  0  0
  188.5340  177.4310  143.0770 C   0  0  0  0  0  0  0  0  0  0  0  0
  191.6800  178.0400  143.2900 C   0  0  0  0  0  1  0  0  0  0  0  0
  185.8580  177.8780  139.4320 C   0  0  0  0  0  3  0  0  0  0  0  0
  188.2310  178.3630  139.0030 C   0  0  0  0  0  3  0  0  0  0  0  0
  189.6480  176.6420  143.6940 C   0  0  0  0  0  2  0  0  0  0  0  0
  184.6350  178.6380  145.9730 C   0  0  1  0  0  3  0  0  0  0  0  0
  185.3180  179.2430  144.8400 C   0  0  1  0  0  3  0  0  0  0  0  0
  187.0270  178.6770  139.8940 C   0  0  0  0  0  0  0  0  0  0  0  0
  187.3180  177.7460  143.5290 C   0  0  0  0  0  0  0  0  0  0  0  0
  190.6970  176.8630  141.4230 O   0  0  0  0  0  0  0  0  0  0  0  0
  184.2640  178.5460  141.2970 C   0  0  0  0  0  0  0  0  0  0  0  0
  191.8370  175.5940  143.1240 C   0  0  0  0  0  1  0  0  0  0  0  0
  185.3730  177.7740  145.0070 N   0  0  1  0  0  0  0  0  0  0  0  0
  186.0110  180.0490  147.4460 O   0  0  0  0  0  1  0  0  0  0  0  0
  186.8220  177.4870  144.9360 C   0  0  2  0  0  3  0  0  0  0  0  0
  184.6700  177.8550  140.0420 C   0  0  0  0  0  3  0  0  0  0  0  0
  182.1700  179.3720  140.2180 C   0  0  0  0  0  3  0  0  0  0  0  0
  182.8190  178.8710  141.3560 C   0  0  0  0  0  0  0  0  0  0  0  0
  182.0700  178.6280  142.5190 C   0  0  0  0  0  3  0  0  0  0  0  0
  179.9540  178.6650  143.7350 N   0  0  0  0  0  1  0  0  0  0  0  0
  180.0660  179.4190  141.4160 C   0  0  0  0  0  3  0  0  0  0  0  0
  180.7010  178.9070  142.5500 C   0  0  0  0  0  0  0  0  0  0  0  0
  180.8010  179.6500  140.2490 C   0  0  0  0  0  3  0  0  0  0  0  0
  189.7960  177.8560  148.1110 O   0  0  0  0  0  1  0  0  0  0  0  0
  188.4770  178.2530  148.3400 C   0  0  0  0  0  2  0  0  0  0  0  0
  1  4  1  0  0  0  0
  2 24  1  0  0  0  0
  2 14  1  0  0  0  0
  2 17  1  0  0  0  0
  3  9  2  0  0  0  0
  4 12  1  0  0  0  0
  4 37  1  1  0  0  0
  5 19  1  0  0  0  0
  6 22  1  0  0  0  0
  6  9  1  0  0  0  0
  7  3  1  6  0  0  0
  7 21  1  0  0  0  0
  8 26  1  6  0  0  0
  8 12  1  0  0  0  0
  9 13  1  0  0  0  0
 10  7  1  0  0  0  0
 10  5  1  0  0  0  0
 11  6  2  0  0  0  0
 13 21  2  0  0  0  0
 13 17  1  0  0  0  0
 15 20  1  0  0  0  0
 15 28  2  0  0  0  0
 16 11  1  0  0  0  0
 16 20  2  0  0  0  0
 18  8  1  0  0  0  0
 19 25  1  0  0  0  0
 19 18  1  0  0  0  0
 20  3  1  0  0  0  0
 21 27  1  0  0  0  0
 22  2  1  0  0  0  0
 23 30  1  0  0  0  0
 23 10  2  0  0  0  0
 25 18  1  0  0  0  0
 27 25  1  0  0  0  0
 27  1  1  0  0  0  0
 28 23  1  0  0  0  0
 29 35  2  0  0  0  0
 29 30  1  0  0  0  0
 30 31  2  0  0  0  0
 31 34  1  0  0  0  0
 33 34  2  0  0  0  0
 34 32  1  0  0  0  0
 35 33  1  0  0  0  0
 36 37  1  0  0  0  0
M  END
>  <MODEL>
8

>  <REMARK>
 VINA RESULT:      -8.9      2.071      5.574
  Name = 
  2 active torsions:
  status: ('A' for Active; 'I' for Inactive)
    1  A    between atoms: C_4  and  C_37
    2  A    between atoms: C_23  and  C_30
                            x       y       z     vdW  Elec       q    Type
                         _______ _______ _______ _____ _____    ______ ____

>  <TORSDO>
F 2

$$$$
=
 OpenBabel11122411213D

 37 44  0  0  1  0  0  0  0  0999 V2000
  191.1310  177.1780  138.4830 C   0  0  0  0  0  2  0  0  0  0  0  0
  186.8490  177.5160  136.5700 C   0  0  0  0  0  0  0  0  0  0  0  0
  187.1870  178.3180  140.7060 C   0  0  0  0  0  0  0  0  0  0  0  0
  192.2140  176.2310  137.9830 C   0  0  2  0  0  3  0  0  0  0  0  0
  190.4970  178.0740  142.5410 C   0  0  0  0  0  2  0  0  0  0  0  0
  185.7990  178.2550  138.7160 C   0  0  0  0  0  0  0  0  0  0  0  0
  188.3920  177.8420  141.0070 C   0  0  0  0  0  0  0  0  0  0  0  0
  193.3540  176.8020  140.2180 C   0  0  2  0  0  3  0  0  0  0  0  0
  186.9400  178.0590  139.3300 C   0  0  0  0  0  0  0  0  0  0  0  0
  188.9960  177.8460  142.3840 C   0  0  0  0  0  0  0  0  0  0  0  0
  184.6890  178.8480  139.4950 C   0  0  0  0  0  3  0  0  0  0  0  0
  193.1610  175.7790  139.0950 C   0  0  0  0  0  2  0  0  0  0  0  0
  188.0560  177.3950  138.7650 C   0  0  0  0  0  0  0  0  0  0  0  0
  187.4060  178.7800  135.9420 C   0  0  0  0  0  1  0  0  0  0  0  0
  185.8490  177.9390  142.7000 C   0  0  0  0  0  3  0  0  0  0  0  0
  184.8440  179.1490  140.8080 C   0  0  0  0  0  3  0  0  0  0  0  0
  187.9800  176.8210  137.3830 C   0  0  0  0  0  2  0  0  0  0  0  0
  192.2990  176.7510  141.3400 C   0  0  1  0  0  3  0  0  0  0  0  0
  191.2650  177.7730  141.2730 C   0  0  1  0  0  3  0  0  0  0  0  0
  186.1330  178.8960  141.5940 C   0  0  2  0  0  3  0  0  0  0  0  0
  188.9590  177.2440  139.7370 C   0  0  0  0  0  0  0  0  0  0  0  0
  185.6920  177.8580  137.3730 O   0  0  0  0  0  0  0  0  0  0  0  0
  188.2440  177.6760  143.5120 C   0  0  0  0  0  0  0  0  0  0  0  0
  186.4140  176.5860  135.4570 C   0  0  0  0  0  1  0  0  0  0  0  0
  190.9190  176.3810  140.9120 N   0  0  1  0  0  0  0  0  0  0  0  0
  193.6100  178.0950  139.7490 O   0  0  0  0  0  1  0  0  0  0  0  0
  190.2860  176.5310  139.5840 C   0  0  2  0  0  3  0  0  0  0  0  0
  186.7730  177.4450  143.5270 C   0  0  0  0  0  3  0  0  0  0  0  0
  188.1580  177.9360  145.9930 C   0  0  0  0  0  3  0  0  0  0  0  0
  188.8770  177.5650  144.8470 C   0  0  0  0  0  0  0  0  0  0  0  0
  190.1700  177.0370  144.9930 C   0  0  0  0  0  3  0  0  0  0  0  0
  192.0560  176.3770  146.3970 N   0  0  0  0  0  1  0  0  0  0  0  0
  190.0230  177.2900  147.3950 C   0  0  0  0  0  3  0  0  0  0  0  0
  190.7430  176.9060  146.2610 C   0  0  0  0  0  0  0  0  0  0  0  0
  188.7300  177.8030  147.2610 C   0  0  0  0  0  3  0  0  0  0  0  0
  194.3050  176.3800  136.8400 O   0  0  0  0  0  1  0  0  0  0  0  0
  193.0070  176.8910  136.8690 C   0  0  0  0  0  2  0  0  0  0  0  0
  1 27  1  0  0  0  0
  2 22  1  0  0  0  0
  2 17  1  0  0  0  0
  3  7  2  0  0  0  0
  3 20  1  0  0  0  0
  4 37  1  6  0  0  0
  4  1  1  0  0  0  0
  4 12  1  0  0  0  0
  6  9  2  0  0  0  0
  6 11  1  0  0  0  0
  7 10  1  0  0  0  0
  8 26  1  6  0  0  0
  8 18  1  0  0  0  0
  9  3  1  0  0  0  0
 10  5  1  0  0  0  0
 10 23  2  0  0  0  0
 11 16  2  0  0  0  0
 12  8  1  0  0  0  0
 13  9  1  0  0  0  0
 13 21  2  0  0  0  0
 14  2  1  0  0  0  0
 15 28  2  0  0  0  0
 16 20  1  0  0  0  0
 17 13  1  0  0  0  0
 19 18  1  0  0  0  0
 19  5  1  0  0  0  0
 20 15  1  0  0  0  0
 21  7  1  0  0  0  0
 22  6  1  0  0  0  0
 23 28  1  0  0  0  0
 23 30  1  0  0  0  0
 24  2  1  0  0  0  0
 25 19  1  0  0  0  0
 25 18  1  0  0  0  0
 27 21  1  0  0  0  0
 27 25  1  0  0  0  0
 29 35  1  0  0  0  0
 30 31  1  0  0  0  0
 30 29  2  0  0  0  0
 31 34  2  0  0  0  0
 34 32  1  0  0  0  0
 34 33  1  0  0  0  0
 35 33  2  0  0  0  0
 36 37  1  0  0  0  0
M  END
>  <MODEL>
9

>  <REMARK>
 VINA RESULT:      -8.9      3.470      7.165
  Name = 
  2 active torsions:
  status: ('A' for Active; 'I' for Inactive)
    1  A    between atoms: C_4  and  C_37
    2  A    between atoms: C_23  and  C_30
                            x       y       z     vdW  Elec       q    Type
                         _______ _______ _______ _____ _____    ______ ____

>  <TORSDO>
F 2

$$$$
