=
 OpenBabel11122411023D

 31 35  0  0  1  0  0  0  0  0999 V2000
  185.1410  178.5880  144.3110 C   0  0  0  0  0  0  0  0  0  0  0  0
  188.8700  178.3350  143.9190 N   0  0  0  0  0  0  0  0  0  0  0  0
  189.4190  177.7210  145.1130 C   0  0  0  0  0  0  0  0  0  0  0  0
  189.1620  176.7780  147.3430 C   0  0  0  0  0  0  0  0  0  0  0  0
  187.4580  178.3030  143.6400 C   0  0  0  0  0  0  0  0  0  0  0  0
  184.7200  178.2040  143.0350 C   0  0  0  0  0  3  0  0  0  0  0  0
  188.6230  177.4380  146.2360 C   0  0  0  0  0  3  0  0  0  0  0  0
  189.3950  177.4290  141.7690 N   0  0  0  0  0  0  0  0  0  0  0  0
  183.9600  179.0030  145.5330 Cl  0  0  0  0  0  0  0  0  0  0  0  0
  191.5780  177.6020  144.0280 O   0  0  0  0  0  0  0  0  0  0  0  0
  188.3050  176.4890  148.5230 C   0  0  0  0  0  1  0  0  0  0  0  0
  188.0340  177.6570  141.2610 C   0  0  0  0  0  2  0  0  0  0  0  0
  189.7140  178.5020  142.7240 C   0  0  2  0  0  3  0  0  0  0  0  0
  186.5050  178.6430  144.6110 C   0  0  0  0  0  3  0  0  0  0  0  0
  190.4990  176.3760  147.3360 C   0  0  0  0  0  3  0  0  0  0  0  0
  187.0280  177.9200  142.3530 C   0  0  0  0  0  0  0  0  0  0  0  0
  185.6620  177.8780  142.0560 C   0  0  0  0  0  3  0  0  0  0  0  0
  191.2080  178.5970  143.0820 C   0  0  0  0  0  2  0  0  0  0  0  0
  190.7700  177.3280  145.1260 C   0  0  0  0  0  0  0  0  0  0  0  0
  191.3020  176.6490  146.2250 C   0  0  0  0  0  3  0  0  0  0  0  0
  190.2710  177.5200  140.6060 C   0  0  0  0  0  2  0  0  0  0  0  0
  189.4300  178.6280  138.5240 C   0  0  0  0  0  1  0  0  0  0  0  0
  189.4530  177.3430  139.3340 C   0  0  1  0  0  3  0  0  0  0  0  0
  191.0020  174.0020  137.1620 N   0  0  0  0  0  0  0  0  0  0  0  0
  191.3510  175.8410  138.7180 C   0  0  0  0  0  2  0  0  0  0  0  0
  187.8690  175.6710  137.5900 O   0  0  0  0  0  0  0  0  0  0  0  0
  191.6260  173.2810  136.0680 C   0  0  0  0  0  1  0  0  0  0  0  0
  191.8820  175.1230  137.4820 C   0  0  0  0  0  2  0  0  0  0  0  0
  189.1130  175.4770  137.6290 C   0  0  0  0  0  0  0  0  0  0  0  0
  189.9510  176.2210  138.5380 N   0  0  0  0  0  0  0  0  0  0  0  0
  189.7400  174.5310  136.6480 C   0  0  0  0  0  2  0  0  0  0  0  0
  1 14  1  0  0  0  0
  1  9  1  0  0  0  0
  2  3  1  0  0  0  0
  3 19  2  0  0  0  0
  3  7  1  0  0  0  0
  4 11  1  0  0  0  0
  5  2  1  0  0  0  0
  5 14  2  0  0  0  0
  6  1  2  0  0  0  0
  7  4  2  0  0  0  0
  8 13  1  0  0  0  0
 10 19  1  0  0  0  0
 12  8  1  0  0  0  0
 12 16  1  0  0  0  0
 13 18  1  1  0  0  0
 13  2  1  0  0  0  0
 15  4  1  0  0  0  0
 16  5  1  0  0  0  0
 17 16  2  0  0  0  0
 17  6  1  0  0  0  0
 18 10  1  0  0  0  0
 19 20  1  0  0  0  0
 20 15  2  0  0  0  0
 21  8  1  0  0  0  0
 23 22  1  6  0  0  0
 23 21  1  0  0  0  0
 24 28  1  0  0  0  0
 26 29  2  0  0  0  0
 27 24  1  0  0  0  0
 28 25  1  0  0  0  0
 29 30  1  0  0  0  0
 30 25  1  0  0  0  0
 30 23  1  0  0  0  0
 31 24  1  0  0  0  0
 31 29  1  0  0  0  0
M  END
>  <MODEL>
1

>  <REMARK>
 VINA RESULT:      -8.1      0.000      0.000
  Name = 
  3 active torsions:
  status: ('A' for Active; 'I' for Inactive)
    1  A    between atoms: C_5  and  C_16
    2  A    between atoms: C_5  and  N_30
    3  A    between atoms: N_10  and  C_16
                            x       y       z     vdW  Elec       q    Type
                         _______ _______ _______ _____ _____    ______ ____

>  <TORSDO>
F 3

$$$$
=
 OpenBabel11122411023D

 31 35  0  0  1  0  0  0  0  0999 V2000
  187.3700  178.1110  136.2680 C   0  0  0  0  0  0  0  0  0  0  0  0
  185.9480  178.6420  139.7060 N   0  0  0  0  0  0  0  0  0  0  0  0
  184.5820  178.1520  139.7220 C   0  0  0  0  0  0  0  0  0  0  0  0
  182.6510  177.1680  138.6120 C   0  0  0  0  0  0  0  0  0  0  0  0
  186.8500  178.3170  138.6310 C   0  0  0  0  0  0  0  0  0  0  0  0
  188.6510  177.6520  136.5860 C   0  0  0  0  0  3  0  0  0  0  0  0
  183.9400  177.7060  138.5550 C   0  0  0  0  0  3  0  0  0  0  0  0
  187.5050  177.8730  141.3500 N   0  0  0  0  0  0  0  0  0  0  0  0
  186.8870  178.2660  134.5940 Cl  0  0  0  0  0  0  0  0  0  0  0  0
  184.5170  178.4890  142.1170 O   0  0  0  0  0  0  0  0  0  0  0  0
  181.9870  176.7030  137.3660 C   0  0  0  0  0  1  0  0  0  0  0  0
  188.6090  177.8130  140.3800 C   0  0  0  0  0  2  0  0  0  0  0  0
  186.6200  178.9850  140.9700 C   0  0  2  0  0  3  0  0  0  0  0  0
  186.4740  178.4480  137.2860 C   0  0  0  0  0  3  0  0  0  0  0  0
  181.9950  177.0540  139.8380 C   0  0  0  0  0  3  0  0  0  0  0  0
  188.1440  177.8570  138.9460 C   0  0  0  0  0  0  0  0  0  0  0  0
  189.0390  177.5330  137.9230 C   0  0  0  0  0  3  0  0  0  0  0  0
  185.6160  179.3880  142.0660 C   0  0  0  0  0  2  0  0  0  0  0  0
  183.9030  178.0490  140.9490 C   0  0  0  0  0  0  0  0  0  0  0  0
  182.6220  177.4920  141.0080 C   0  0  0  0  0  3  0  0  0  0  0  0
  188.1270  178.1480  142.6400 C   0  0  0  0  0  2  0  0  0  0  0  0
  189.0210  175.8850  143.2270 C   0  0  0  0  0  1  0  0  0  0  0  0
  187.9760  176.9380  143.5510 C   0  0  1  0  0  3  0  0  0  0  0  0
  188.2970  178.1710  147.6320 N   0  0  0  0  0  0  0  0  0  0  0  0
  189.3400  177.3060  145.6100 C   0  0  0  0  0  2  0  0  0  0  0  0
  185.7660  177.9460  145.1160 O   0  0  0  0  0  0  0  0  0  0  0  0
  188.3030  178.0480  149.0780 C   0  0  0  0  0  1  0  0  0  0  0  0
  189.1940  177.1400  147.1190 C   0  0  0  0  0  2  0  0  0  0  0  0
  186.8660  177.7500  145.6990 C   0  0  0  0  0  0  0  0  0  0  0  0
  188.0310  177.3270  144.9600 N   0  0  0  0  0  0  0  0  0  0  0  0
  186.9360  177.8660  147.1930 C   0  0  0  0  0  2  0  0  0  0  0  0
  1  6  2  0  0  0  0
  1 14  1  0  0  0  0
  2  3  1  0  0  0  0
  2 13  1  0  0  0  0
  3 19  1  0  0  0  0
  4 15  2  0  0  0  0
  5 16  1  0  0  0  0
  5  2  1  0  0  0  0
  6 17  1  0  0  0  0
  7  4  1  0  0  0  0
  7  3  2  0  0  0  0
  8 21  1  0  0  0  0
  9  1  1  0  0  0  0
 11  4  1  0  0  0  0
 12  8  1  0  0  0  0
 13  8  1  0  0  0  0
 13 18  1  1  0  0  0
 14  5  2  0  0  0  0
 15 20  1  0  0  0  0
 16 12  1  0  0  0  0
 17 16  2  0  0  0  0
 18 10  1  0  0  0  0
 19 20  2  0  0  0  0
 19 10  1  0  0  0  0
 21 23  1  0  0  0  0
 23 22  1  6  0  0  0
 23 30  1  0  0  0  0
 24 27  1  0  0  0  0
 25 28  1  0  0  0  0
 26 29  2  0  0  0  0
 28 24  1  0  0  0  0
 29 31  1  0  0  0  0
 30 25  1  0  0  0  0
 30 29  1  0  0  0  0
 31 24  1  0  0  0  0
M  END
>  <MODEL>
2

>  <REMARK>
 VINA RESULT:      -7.8      3.668      8.220
  Name = 
  3 active torsions:
  status: ('A' for Active; 'I' for Inactive)
    1  A    between atoms: C_5  and  C_16
    2  A    between atoms: C_5  and  N_30
    3  A    between atoms: N_10  and  C_16
                            x       y       z     vdW  Elec       q    Type
                         _______ _______ _______ _____ _____    ______ ____

>  <TORSDO>
F 3

$$$$
=
 OpenBabel11122411023D

 31 35  0  0  1  0  0  0  0  0999 V2000
  184.2370  179.0020  142.3590 C   0  0  0  0  0  0  0  0  0  0  0  0
  187.3400  178.5500  140.2880 N   0  0  0  0  0  0  0  0  0  0  0  0
  188.3500  177.9030  141.1040 C   0  0  0  0  0  0  0  0  0  0  0  0
  189.1110  176.9660  143.2190 C   0  0  0  0  0  0  0  0  0  0  0  0
  185.9600  178.5950  140.6960 C   0  0  0  0  0  0  0  0  0  0  0  0
  183.2530  178.6460  141.4320 C   0  0  0  0  0  3  0  0  0  0  0  0
  188.1530  177.6590  142.4740 C   0  0  0  0  0  3  0  0  0  0  0  0
  186.7620  177.6250  138.1600 N   0  0  0  0  0  0  0  0  0  0  0  0
  183.7810  179.4750  143.9800 Cl  0  0  0  0  0  0  0  0  0  0  0  0
  189.7490  177.6720  139.1440 O   0  0  0  0  0  0  0  0  0  0  0  0
  188.8870  176.7200  144.6680 C   0  0  0  0  0  1  0  0  0  0  0  0
  185.3330  177.9280  138.3360 C   0  0  0  0  0  2  0  0  0  0  0  0
  187.5400  178.6760  138.8350 C   0  0  2  0  0  3  0  0  0  0  0  0
  185.5850  178.9820  141.9910 C   0  0  0  0  0  3  0  0  0  0  0  0
  190.2700  176.4940  142.6010 C   0  0  0  0  0  3  0  0  0  0  0  0
  184.9640  178.2400  139.7650 C   0  0  0  0  0  0  0  0  0  0  0  0
  183.6160  178.2730  140.1350 C   0  0  0  0  0  3  0  0  0  0  0  0
  189.0320  178.6880  138.4570 C   0  0  0  0  0  2  0  0  0  0  0  0
  189.5310  177.4370  140.4970 C   0  0  0  0  0  0  0  0  0  0  0  0
  190.4780  176.7270  141.2390 C   0  0  0  0  0  3  0  0  0  0  0  0
  187.0000  177.6730  136.7220 C   0  0  0  0  0  2  0  0  0  0  0  0
  186.4230  176.3570  134.6720 C   0  0  0  0  0  1  0  0  0  0  0  0
  186.8430  176.2800  136.1290 C   0  0  1  0  0  3  0  0  0  0  0  0
  190.5080  174.1460  136.6720 N   0  0  0  0  0  0  0  0  0  0  0  0
  189.3330  176.1590  135.9730 C   0  0  0  0  0  2  0  0  0  0  0  0
  187.0150  173.6070  137.2130 O   0  0  0  0  0  0  0  0  0  0  0  0
  191.6260  173.2850  136.3330 C   0  0  0  0  0  1  0  0  0  0  0  0
  190.4040  175.1370  135.6050 C   0  0  0  0  0  2  0  0  0  0  0  0
  188.0680  174.1360  136.7680 C   0  0  0  0  0  0  0  0  0  0  0  0
  188.0690  175.4970  136.2890 N   0  0  0  0  0  0  0  0  0  0  0  0
  189.3120  173.3050  136.6460 C   0  0  0  0  0  2  0  0  0  0  0  0
  1  9  1  0  0  0  0
  2  5  1  0  0  0  0
  2  3  1  0  0  0  0
  3  7  1  0  0  0  0
  4 11  1  0  0  0  0
  5 14  2  0  0  0  0
  6  1  2  0  0  0  0
  7  4  2  0  0  0  0
  8 12  1  0  0  0  0
  8 13  1  0  0  0  0
 10 19  1  0  0  0  0
 12 16  1  0  0  0  0
 13 18  1  1  0  0  0
 13  2  1  0  0  0  0
 14  1  1  0  0  0  0
 15  4  1  0  0  0  0
 16 17  2  0  0  0  0
 16  5  1  0  0  0  0
 17  6  1  0  0  0  0
 18 10  1  0  0  0  0
 19  3  2  0  0  0  0
 19 20  1  0  0  0  0
 20 15  2  0  0  0  0
 21  8  1  0  0  0  0
 23 22  1  6  0  0  0
 23 30  1  0  0  0  0
 23 21  1  0  0  0  0
 25 30  1  0  0  0  0
 27 24  1  0  0  0  0
 28 25  1  0  0  0  0
 28 24  1  0  0  0  0
 29 26  2  0  0  0  0
 30 29  1  0  0  0  0
 31 24  1  0  0  0  0
 31 29  1  0  0  0  0
M  END
>  <MODEL>
3

>  <REMARK>
 VINA RESULT:      -7.5      2.295      3.683
  Name = 
  3 active torsions:
  status: ('A' for Active; 'I' for Inactive)
    1  A    between atoms: C_5  and  C_16
    2  A    between atoms: C_5  and  N_30
    3  A    between atoms: N_10  and  C_16
                            x       y       z     vdW  Elec       q    Type
                         _______ _______ _______ _____ _____    ______ ____

>  <TORSDO>
F 3

$$$$
=
 OpenBabel11122411023D

 31 35  0  0  1  0  0  0  0  0999 V2000
  180.0520  178.6230  142.8330 C   0  0  0  0  0  0  0  0  0  0  0  0
  183.2600  178.9360  140.9000 N   0  0  0  0  0  0  0  0  0  0  0  0
  184.3710  178.7600  141.8170 C   0  0  0  0  0  0  0  0  0  0  0  0
  185.2580  178.4000  144.0560 C   0  0  0  0  0  0  0  0  0  0  0  0
  181.9140  178.5840  141.2740 C   0  0  0  0  0  0  0  0  0  0  0  0
  179.2920  177.8520  141.9490 C   0  0  0  0  0  3  0  0  0  0  0  0
  184.1780  178.6440  143.2040 C   0  0  0  0  0  3  0  0  0  0  0  0
  183.1380  177.6090  138.9150 N   0  0  0  0  0  0  0  0  0  0  0  0
  179.3700  179.1270  144.3630 Cl  0  0  0  0  0  0  0  0  0  0  0  0
  185.8890  178.7450  139.9340 O   0  0  0  0  0  0  0  0  0  0  0  0
  185.0350  178.2820  145.5200 C   0  0  0  0  0  1  0  0  0  0  0  0
  181.6790  177.4530  139.0220 C   0  0  0  0  0  2  0  0  0  0  0  0
  183.4990  178.9320  139.4470 C   0  0  2  0  0  3  0  0  0  0  0  0
  181.3570  178.9930  142.4950 C   0  0  0  0  0  3  0  0  0  0  0  0
  186.5430  178.2520  143.5310 C   0  0  0  0  0  3  0  0  0  0  0  0
  181.1420  177.8100  140.3850 C   0  0  0  0  0  0  0  0  0  0  0  0
  179.8340  177.4530  140.7250 C   0  0  0  0  0  3  0  0  0  0  0  0
  184.9300  179.3780  139.0970 C   0  0  0  0  0  2  0  0  0  0  0  0
  185.6730  178.6280  141.3020 C   0  0  0  0  0  0  0  0  0  0  0  0
  186.7500  178.3630  142.1530 C   0  0  0  0  0  3  0  0  0  0  0  0
  183.4370  177.5460  137.4890 C   0  0  0  0  0  2  0  0  0  0  0  0
  182.9080  175.8380  135.7370 C   0  0  0  0  0  1  0  0  0  0  0  0
  183.6030  176.0950  137.0630 C   0  0  1  0  0  3  0  0  0  0  0  0
  187.7740  175.1580  136.9880 N   0  0  0  0  0  0  0  0  0  0  0  0
  185.9820  176.7870  136.7460 C   0  0  0  0  0  2  0  0  0  0  0  0
  184.6840  173.4730  137.6160 O   0  0  0  0  0  0  0  0  0  0  0  0
  189.0530  174.7570  136.4320 C   0  0  0  0  0  1  0  0  0  0  0  0
  187.2610  176.2250  136.1340 C   0  0  0  0  0  2  0  0  0  0  0  0
  185.4750  174.3690  137.2190 C   0  0  0  0  0  0  0  0  0  0  0  0
  185.0170  175.7200  137.0040 N   0  0  0  0  0  0  0  0  0  0  0  0
  186.8880  174.0010  136.8730 C   0  0  0  0  0  2  0  0  0  0  0  0
  1  9  1  0  0  0  0
  2  5  1  0  0  0  0
  2  3  1  0  0  0  0
  3  7  1  0  0  0  0
  4 11  1  0  0  0  0
  5 14  2  0  0  0  0
  6  1  2  0  0  0  0
  7  4  2  0  0  0  0
  8 12  1  0  0  0  0
  8 13  1  0  0  0  0
 10 19  1  0  0  0  0
 12 16  1  0  0  0  0
 13 18  1  1  0  0  0
 13  2  1  0  0  0  0
 14  1  1  0  0  0  0
 15  4  1  0  0  0  0
 16 17  2  0  0  0  0
 16  5  1  0  0  0  0
 17  6  1  0  0  0  0
 18 10  1  0  0  0  0
 19  3  2  0  0  0  0
 19 20  1  0  0  0  0
 20 15  2  0  0  0  0
 21  8  1  0  0  0  0
 23 22  1  6  0  0  0
 23 21  1  0  0  0  0
 25 30  1  0  0  0  0
 27 24  1  0  0  0  0
 28 25  1  0  0  0  0
 28 24  1  0  0  0  0
 29 26  2  0  0  0  0
 30 23  1  0  0  0  0
 30 29  1  0  0  0  0
 31 24  1  0  0  0  0
 31 29  1  0  0  0  0
M  END
>  <MODEL>
4

>  <REMARK>
 VINA RESULT:      -7.5      4.023      5.813
  Name = 
  3 active torsions:
  status: ('A' for Active; 'I' for Inactive)
    1  A    between atoms: C_5  and  C_16
    2  A    between atoms: C_5  and  N_30
    3  A    between atoms: N_10  and  C_16
                            x       y       z     vdW  Elec       q    Type
                         _______ _______ _______ _____ _____    ______ ____

>  <TORSDO>
F 3

$$$$
=
 OpenBabel11122411023D

 31 35  0  0  1  0  0  0  0  0999 V2000
  184.8940  179.2330  145.0530 C   0  0  0  0  0  0  0  0  0  0  0  0
  185.1060  179.2240  141.3010 N   0  0  0  0  0  0  0  0  0  0  0  0
  186.3860  178.6630  140.9120 C   0  0  0  0  0  0  0  0  0  0  0  0
  188.5680  177.7320  141.4620 C   0  0  0  0  0  0  0  0  0  0  0  0
  184.6070  179.0950  142.6460 C   0  0  0  0  0  0  0  0  0  0  0  0
  183.5770  178.8060  145.2390 C   0  0  0  0  0  3  0  0  0  0  0  0
  187.3740  178.3410  141.8570 C   0  0  0  0  0  3  0  0  0  0  0  0
  183.0880  178.3300  140.3820 N   0  0  0  0  0  0  0  0  0  0  0  0
  185.9040  179.5830  146.4380 Cl  0  0  0  0  0  0  0  0  0  0  0  0
  185.6610  178.6750  138.6040 O   0  0  0  0  0  0  0  0  0  0  0  0
  189.6020  177.4010  142.4760 C   0  0  0  0  0  1  0  0  0  0  0  0
  182.3650  178.4600  141.6560 C   0  0  0  0  0  2  0  0  0  0  0  0
  184.0570  179.4330  140.2890 C   0  0  2  0  0  3  0  0  0  0  0  0
  185.4070  179.3820  143.7610 C   0  0  0  0  0  3  0  0  0  0  0  0
  188.7820  177.4210  140.1180 C   0  0  0  0  0  3  0  0  0  0  0  0
  183.2780  178.6680  142.8380 C   0  0  0  0  0  0  0  0  0  0  0  0
  182.7680  178.5310  144.1330 C   0  0  0  0  0  3  0  0  0  0  0  0
  184.6460  179.6310  138.8810 C   0  0  0  0  0  2  0  0  0  0  0  0
  186.6220  178.3610  139.5580 C   0  0  0  0  0  0  0  0  0  0  0  0
  187.8070  177.7320  139.1670 C   0  0  0  0  0  3  0  0  0  0  0  0
  182.0770  178.4650  139.3390 C   0  0  0  0  0  2  0  0  0  0  0  0
  179.6100  178.8770  139.4370 C   0  0  0  0  0  1  0  0  0  0  0  0
  180.7400  177.9510  139.8520 C   0  0  1  0  0  3  0  0  0  0  0  0
  180.2070  173.9300  138.4990 N   0  0  0  0  0  0  0  0  0  0  0  0
  181.1230  176.1590  138.1560 C   0  0  0  0  0  2  0  0  0  0  0  0
  179.2960  175.9260  141.3230 O   0  0  0  0  0  0  0  0  0  0  0  0
  179.5900  172.8160  137.8040 C   0  0  0  0  0  1  0  0  0  0  0  0
  180.3530  175.0050  137.5220 C   0  0  0  0  0  2  0  0  0  0  0  0
  179.6970  175.6440  140.1630 C   0  0  0  0  0  0  0  0  0  0  0  0
  180.4940  176.5790  139.4070 N   0  0  0  0  0  0  0  0  0  0  0  0
  179.2570  174.3590  139.5250 C   0  0  0  0  0  2  0  0  0  0  0  0
  1  6  1  0  0  0  0
  1  9  1  0  0  0  0
  2  5  1  0  0  0  0
  3  2  1  0  0  0  0
  3  7  1  0  0  0  0
  4  7  2  0  0  0  0
  4 11  1  0  0  0  0
  5 16  2  0  0  0  0
  5 14  1  0  0  0  0
  8 12  1  0  0  0  0
 10 18  1  0  0  0  0
 10 19  1  0  0  0  0
 12 16  1  0  0  0  0
 13 18  1  6  0  0  0
 13  8  1  0  0  0  0
 13  2  1  0  0  0  0
 14  1  2  0  0  0  0
 15  4  1  0  0  0  0
 16 17  1  0  0  0  0
 17  6  2  0  0  0  0
 19  3  2  0  0  0  0
 20 19  1  0  0  0  0
 20 15  2  0  0  0  0
 21 23  1  0  0  0  0
 21  8  1  0  0  0  0
 23 22  1  6  0  0  0
 24 31  1  0  0  0  0
 25 30  1  0  0  0  0
 27 24  1  0  0  0  0
 28 25  1  0  0  0  0
 28 24  1  0  0  0  0
 29 26  2  0  0  0  0
 30 23  1  0  0  0  0
 30 29  1  0  0  0  0
 31 29  1  0  0  0  0
M  END
>  <MODEL>
5

>  <REMARK>
 VINA RESULT:      -7.5      4.998      7.509
  Name = 
  3 active torsions:
  status: ('A' for Active; 'I' for Inactive)
    1  A    between atoms: C_5  and  C_16
    2  A    between atoms: C_5  and  N_30
    3  A    between atoms: N_10  and  C_16
                            x       y       z     vdW  Elec       q    Type
                         _______ _______ _______ _____ _____    ______ ____

>  <TORSDO>
F 3

$$$$
=
 OpenBabel11122411023D

 31 35  0  0  1  0  0  0  0  0999 V2000
  188.6650  177.8760  143.8460 C   0  0  0  0  0  0  0  0  0  0  0  0
  186.6890  178.6240  140.7380 N   0  0  0  0  0  0  0  0  0  0  0  0
  187.3980  178.0770  139.5970 C   0  0  0  0  0  0  0  0  0  0  0  0
  189.3040  176.9190  138.6180 C   0  0  0  0  0  0  0  0  0  0  0  0
  187.0350  178.2530  142.0860 C   0  0  0  0  0  0  0  0  0  0  0  0
  187.6410  177.5020  144.7200 C   0  0  0  0  0  3  0  0  0  0  0  0
  188.6760  177.5070  139.7200 C   0  0  0  0  0  3  0  0  0  0  0  0
  184.3910  178.0650  141.0890 N   0  0  0  0  0  0  0  0  0  0  0  0
  190.3270  177.8700  144.3920 Cl  0  0  0  0  0  0  0  0  0  0  0  0
  185.4990  178.6080  138.1950 O   0  0  0  0  0  0  0  0  0  0  0  0
  190.6570  176.3230  138.7680 C   0  0  0  0  0  1  0  0  0  0  0  0
  184.5620  177.9750  142.5480 C   0  0  0  0  0  2  0  0  0  0  0  0
  185.3050  179.1010  140.5840 C   0  0  2  0  0  3  0  0  0  0  0  0
  188.3640  178.2550  142.5350 C   0  0  0  0  0  3  0  0  0  0  0  0
  188.6540  176.8780  137.3840 C   0  0  0  0  0  3  0  0  0  0  0  0
  186.0050  177.8790  142.9720 C   0  0  0  0  0  0  0  0  0  0  0  0
  186.3130  177.5110  144.2860 C   0  0  0  0  0  3  0  0  0  0  0  0
  185.0060  179.5480  139.1410 C   0  0  0  0  0  2  0  0  0  0  0  0
  186.7620  178.0450  138.3420 C   0  0  0  0  0  0  0  0  0  0  0  0
  187.3810  177.4380  137.2470 C   0  0  0  0  0  3  0  0  0  0  0  0
  183.0070  178.4740  140.8780 C   0  0  0  0  0  2  0  0  0  0  0  0
  180.7680  177.3690  140.6890 C   0  0  0  0  0  1  0  0  0  0  0  0
  182.2230  177.3270  140.2550 C   0  0  1  0  0  3  0  0  0  0  0  0
  182.6380  177.5320  136.0050 N   0  0  0  0  0  0  0  0  0  0  0  0
  181.9130  178.5440  138.0970 C   0  0  0  0  0  2  0  0  0  0  0  0
  183.4300  175.2550  138.6450 O   0  0  0  0  0  0  0  0  0  0  0  0
  182.2730  177.3790  134.6090 C   0  0  0  0  0  1  0  0  0  0  0  0
  181.5310  178.2280  136.6540 C   0  0  0  0  0  2  0  0  0  0  0  0
  182.8920  176.2280  138.0530 C   0  0  0  0  0  0  0  0  0  0  0  0
  182.3440  177.3360  138.7970 N   0  0  0  0  0  0  0  0  0  0  0  0
  182.7330  176.1840  136.5620 C   0  0  0  0  0  2  0  0  0  0  0  0
  1  9  1  0  0  0  0
  1  6  1  0  0  0  0
  2  5  1  0  0  0  0
  3  7  1  0  0  0  0
  3  2  1  0  0  0  0
  4 11  1  0  0  0  0
  4  7  2  0  0  0  0
  5 14  1  0  0  0  0
  5 16  2  0  0  0  0
  8 12  1  0  0  0  0
 10 19  1  0  0  0  0
 10 18  1  0  0  0  0
 12 16  1  0  0  0  0
 13 18  1  6  0  0  0
 13  2  1  0  0  0  0
 13  8  1  0  0  0  0
 14  1  2  0  0  0  0
 15  4  1  0  0  0  0
 16 17  1  0  0  0  0
 17  6  2  0  0  0  0
 19  3  2  0  0  0  0
 20 15  2  0  0  0  0
 20 19  1  0  0  0  0
 21  8  1  0  0  0  0
 23 22  1  6  0  0  0
 23 21  1  0  0  0  0
 24 31  1  0  0  0  0
 24 28  1  0  0  0  0
 25 30  1  0  0  0  0
 27 24  1  0  0  0  0
 28 25  1  0  0  0  0
 29 26  2  0  0  0  0
 29 30  1  0  0  0  0
 30 23  1  0  0  0  0
 31 29  1  0  0  0  0
M  END
>  <MODEL>
6

>  <REMARK>
 VINA RESULT:      -7.4      4.131      7.120
  Name = 
  3 active torsions:
  status: ('A' for Active; 'I' for Inactive)
    1  A    between atoms: C_5  and  C_16
    2  A    between atoms: C_5  and  N_30
    3  A    between atoms: N_10  and  C_16
                            x       y       z     vdW  Elec       q    Type
                         _______ _______ _______ _____ _____    ______ ____

>  <TORSDO>
F 3

$$$$
=
 OpenBabel11122411023D

 31 35  0  0  1  0  0  0  0  0999 V2000
  189.8880  176.9240  136.4260 C   0  0  0  0  0  0  0  0  0  0  0  0
  188.1520  178.4510  139.3900 N   0  0  0  0  0  0  0  0  0  0  0  0
  186.7210  178.2750  139.2280 C   0  0  0  0  0  0  0  0  0  0  0  0
  184.7910  177.5120  137.9530 C   0  0  0  0  0  0  0  0  0  0  0  0
  189.0940  177.7250  138.5780 C   0  0  0  0  0  0  0  0  0  0  0  0
  190.9570  176.2820  137.0560 C   0  0  0  0  0  3  0  0  0  0  0  0
  186.1660  177.7410  138.0530 C   0  0  0  0  0  3  0  0  0  0  0  0
  189.2160  177.7320  141.4070 N   0  0  0  0  0  0  0  0  0  0  0  0
  189.7070  176.8250  134.6900 Cl  0  0  0  0  0  0  0  0  0  0  0  0
  186.3900  179.1120  141.4740 O   0  0  0  0  0  0  0  0  0  0  0  0
  184.2230  176.9480  136.7010 C   0  0  0  0  0  1  0  0  0  0  0  0
  190.4020  177.2380  140.6900 C   0  0  0  0  0  2  0  0  0  0  0  0
  188.6950  178.9010  140.6820 C   0  0  2  0  0  3  0  0  0  0  0  0
  188.9620  177.6480  137.1840 C   0  0  0  0  0  3  0  0  0  0  0  0
  183.9550  177.7990  139.0340 C   0  0  0  0  0  3  0  0  0  0  0  0
  190.1760  177.0790  139.2070 C   0  0  0  0  0  0  0  0  0  0  0  0
  191.1050  176.3650  138.4430 C   0  0  0  0  0  3  0  0  0  0  0  0
  187.6710  179.7270  141.4820 C   0  0  0  0  0  2  0  0  0  0  0  0
  185.8650  178.5770  140.3030 C   0  0  0  0  0  0  0  0  0  0  0  0
  184.4920  178.3280  140.2100 C   0  0  0  0  0  3  0  0  0  0  0  0
  189.6910  178.1330  142.7260 C   0  0  0  0  0  2  0  0  0  0  0  0
  188.4710  176.0030  143.2180 C   0  0  0  0  0  1  0  0  0  0  0  0
  188.9900  177.3090  143.7960 C   0  0  1  0  0  3  0  0  0  0  0  0
  191.6920  176.7210  147.0560 N   0  0  0  0  0  0  0  0  0  0  0  0
  191.2760  176.7930  144.6590 C   0  0  0  0  0  2  0  0  0  0  0  0
  188.2460  177.5460  146.5780 O   0  0  0  0  0  0  0  0  0  0  0  0
  192.4300  176.0030  148.0790 C   0  0  0  0  0  1  0  0  0  0  0  0
  191.9130  176.0080  145.8020 C   0  0  0  0  0  2  0  0  0  0  0  0
  189.4050  177.1350  146.3060 C   0  0  0  0  0  0  0  0  0  0  0  0
  189.8690  177.0720  144.9420 N   0  0  0  0  0  0  0  0  0  0  0  0
  190.2780  176.6150  147.4110 C   0  0  0  0  0  2  0  0  0  0  0  0
  1  6  2  0  0  0  0
  1 14  1  0  0  0  0
  2 13  1  0  0  0  0
  3  2  1  0  0  0  0
  3 19  1  0  0  0  0
  4  7  1  0  0  0  0
  4 15  2  0  0  0  0
  5 16  1  0  0  0  0
  5  2  1  0  0  0  0
  6 17  1  0  0  0  0
  7  3  2  0  0  0  0
  8 21  1  0  0  0  0
  9  1  1  0  0  0  0
 10 18  1  0  0  0  0
 11  4  1  0  0  0  0
 12  8  1  0  0  0  0
 13  8  1  0  0  0  0
 13 18  1  1  0  0  0
 14  5  2  0  0  0  0
 15 20  1  0  0  0  0
 16 12  1  0  0  0  0
 17 16  2  0  0  0  0
 19 10  1  0  0  0  0
 20 19  2  0  0  0  0
 21 23  1  0  0  0  0
 23 22  1  6  0  0  0
 23 30  1  0  0  0  0
 24 31  1  0  0  0  0
 24 27  1  0  0  0  0
 25 30  1  0  0  0  0
 25 28  1  0  0  0  0
 28 24  1  0  0  0  0
 29 26  2  0  0  0  0
 29 31  1  0  0  0  0
 30 29  1  0  0  0  0
M  END
>  <MODEL>
7

>  <REMARK>
 VINA RESULT:      -7.3      3.368      7.899
  Name = 
  3 active torsions:
  status: ('A' for Active; 'I' for Inactive)
    1  A    between atoms: C_5  and  C_16
    2  A    between atoms: C_5  and  N_30
    3  A    between atoms: N_10  and  C_16
                            x       y       z     vdW  Elec       q    Type
                         _______ _______ _______ _____ _____    ______ ____

>  <TORSDO>
F 3

$$$$
=
 OpenBabel11122411023D

 31 35  0  0  1  0  0  0  0  0999 V2000
  183.1810  178.5910  139.1790 C   0  0  0  0  0  0  0  0  0  0  0  0
  186.9240  178.4380  138.8700 N   0  0  0  0  0  0  0  0  0  0  0  0
  187.4870  178.2090  140.1880 C   0  0  0  0  0  0  0  0  0  0  0  0
  187.2470  177.9080  142.5920 C   0  0  0  0  0  0  0  0  0  0  0  0
  185.5190  178.2550  138.6120 C   0  0  0  0  0  0  0  0  0  0  0  0
  182.7990  177.8460  138.0600 C   0  0  0  0  0  3  0  0  0  0  0  0
  186.6910  178.2060  141.3450 C   0  0  0  0  0  3  0  0  0  0  0  0
  187.5260  177.0030  137.0550 N   0  0  0  0  0  0  0  0  0  0  0  0
  181.9640  179.2630  140.2390 Cl  0  0  0  0  0  0  0  0  0  0  0  0
  189.6650  177.9110  139.1770 O   0  0  0  0  0  0  0  0  0  0  0  0
  186.3900  177.9110  143.8060 C   0  0  0  0  0  1  0  0  0  0  0  0
  186.1620  177.0080  136.5050 C   0  0  0  0  0  2  0  0  0  0  0  0
  187.7750  178.3140  137.6760 C   0  0  2  0  0  3  0  0  0  0  0  0
  184.5360  178.7990  139.4520 C   0  0  0  0  0  3  0  0  0  0  0  0
  188.6030  177.5920  142.6950 C   0  0  0  0  0  3  0  0  0  0  0  0
  185.1280  177.5090  137.4830 C   0  0  0  0  0  0  0  0  0  0  0  0
  183.7710  177.3130  137.2090 C   0  0  0  0  0  3  0  0  0  0  0  0
  189.2570  178.5840  137.9930 C   0  0  0  0  0  2  0  0  0  0  0  0
  188.8560  177.9080  140.3080 C   0  0  0  0  0  0  0  0  0  0  0  0
  189.4070  177.5890  141.5520 C   0  0  0  0  0  3  0  0  0  0  0  0
  188.4120  176.8150  135.9120 C   0  0  0  0  0  2  0  0  0  0  0  0
  188.6370  174.5840  134.8000 C   0  0  0  0  0  1  0  0  0  0  0  0
  189.0560  175.4380  135.9840 C   0  0  1  0  0  3  0  0  0  0  0  0
  193.3020  175.9050  136.1630 N   0  0  0  0  0  0  0  0  0  0  0  0
  191.2240  176.0470  134.9040 C   0  0  0  0  0  2  0  0  0  0  0  0
  190.6420  174.9290  138.3440 O   0  0  0  0  0  0  0  0  0  0  0  0
  194.7020  175.5410  136.0450 C   0  0  0  0  0  1  0  0  0  0  0  0
  192.6700  175.5590  134.8940 C   0  0  0  0  0  2  0  0  0  0  0  0
  191.2450  175.1960  137.2710 C   0  0  0  0  0  0  0  0  0  0  0  0
  190.5130  175.5410  136.0760 N   0  0  0  0  0  0  0  0  0  0  0  0
  192.7380  175.0570  137.2120 C   0  0  0  0  0  2  0  0  0  0  0  0
  1 14  1  0  0  0  0
  1  9  1  0  0  0  0
  2  3  1  0  0  0  0
  3 19  2  0  0  0  0
  3  7  1  0  0  0  0
  4 15  1  0  0  0  0
  4 11  1  0  0  0  0
  5  2  1  0  0  0  0
  5 14  2  0  0  0  0
  6  1  2  0  0  0  0
  7  4  2  0  0  0  0
  8 13  1  0  0  0  0
 10 19  1  0  0  0  0
 12  8  1  0  0  0  0
 12 16  1  0  0  0  0
 13 18  1  1  0  0  0
 13  2  1  0  0  0  0
 16  5  1  0  0  0  0
 17 16  2  0  0  0  0
 17  6  1  0  0  0  0
 18 10  1  0  0  0  0
 19 20  1  0  0  0  0
 20 15  2  0  0  0  0
 21 23  1  0  0  0  0
 21  8  1  0  0  0  0
 23 22  1  6  0  0  0
 23 30  1  0  0  0  0
 24 31  1  0  0  0  0
 25 30  1  0  0  0  0
 27 24  1  0  0  0  0
 28 25  1  0  0  0  0
 28 24  1  0  0  0  0
 29 26  2  0  0  0  0
 30 29  1  0  0  0  0
 31 29  1  0  0  0  0
M  END
>  <MODEL>
8

>  <REMARK>
 VINA RESULT:      -7.2      3.033      4.798
  Name = 
  3 active torsions:
  status: ('A' for Active; 'I' for Inactive)
    1  A    between atoms: C_5  and  C_16
    2  A    between atoms: C_5  and  N_30
    3  A    between atoms: N_10  and  C_16
                            x       y       z     vdW  Elec       q    Type
                         _______ _______ _______ _____ _____    ______ ____

>  <TORSDO>
F 3

$$$$
=
 OpenBabel11122411023D

 31 35  0  0  1  0  0  0  0  0999 V2000
  188.9890  177.0190  141.9190 C   0  0  0  0  0  0  0  0  0  0  0  0
  186.3720  177.7450  144.5170 N   0  0  0  0  0  0  0  0  0  0  0  0
  187.0250  177.8670  145.8080 C   0  0  0  0  0  0  0  0  0  0  0  0
  189.0110  177.7960  147.2150 C   0  0  0  0  0  0  0  0  0  0  0  0
  187.1270  177.7600  143.2900 C   0  0  0  0  0  0  0  0  0  0  0  0
  188.5590  177.8490  140.8800 C   0  0  0  0  0  3  0  0  0  0  0  0
  188.3930  177.5970  145.9770 C   0  0  0  0  0  3  0  0  0  0  0  0
  184.9300  179.4880  143.7440 N   0  0  0  0  0  0  0  0  0  0  0  0
  190.4240  176.0400  141.7190 Cl  0  0  0  0  0  0  0  0  0  0  0  0
  184.9310  178.6110  146.7660 O   0  0  0  0  0  0  0  0  0  0  0  0
  190.4580  177.5030  147.3750 C   0  0  0  0  0  1  0  0  0  0  0  0
  185.4060  179.3650  142.3580 C   0  0  0  0  0  2  0  0  0  0  0  0
  184.9670  178.1540  144.3620 C   0  0  2  0  0  3  0  0  0  0  0  0
  188.2730  176.9700  143.1190 C   0  0  0  0  0  3  0  0  0  0  0  0
  188.2720  178.2850  148.2940 C   0  0  0  0  0  3  0  0  0  0  0  0
  186.6950  178.5920  142.2380 C   0  0  0  0  0  0  0  0  0  0  0  0
  187.4100  178.6280  141.0370 C   0  0  0  0  0  3  0  0  0  0  0  0
  184.1890  178.0570  145.6870 C   0  0  0  0  0  2  0  0  0  0  0  0
  186.2870  178.3410  146.9080 C   0  0  0  0  0  0  0  0  0  0  0  0
  186.9110  178.5600  148.1400 C   0  0  0  0  0  3  0  0  0  0  0  0
  183.5520  179.9570  143.6490 C   0  0  0  0  0  2  0  0  0  0  0  0
  181.5480  178.6280  144.3430 C   0  0  0  0  0  1  0  0  0  0  0  0
  182.6380  178.7920  143.2980 C   0  0  1  0  0  3  0  0  0  0  0  0
  180.9780  179.4400  139.4120 N   0  0  0  0  0  0  0  0  0  0  0  0
  180.9940  179.9240  141.7970 C   0  0  0  0  0  2  0  0  0  0  0  0
  183.5920  177.5030  140.8950 O   0  0  0  0  0  0  0  0  0  0  0  0
  180.0930  179.2480  138.2780 C   0  0  0  0  0  1  0  0  0  0  0  0
  180.1270  179.5800  140.5900 C   0  0  0  0  0  2  0  0  0  0  0  0
  182.5540  178.2120  140.8160 C   0  0  0  0  0  0  0  0  0  0  0  0
  182.0720  178.9490  141.9580 N   0  0  0  0  0  0  0  0  0  0  0  0
  181.7590  178.2110  139.5440 C   0  0  0  0  0  2  0  0  0  0  0  0
  1 14  1  0  0  0  0
  2  3  1  0  0  0  0
  3  7  2  0  0  0  0
  3 19  1  0  0  0  0
  4 11  1  0  0  0  0
  4 15  2  0  0  0  0
  5  2  1  0  0  0  0
  6 17  1  0  0  0  0
  6  1  2  0  0  0  0
  7  4  1  0  0  0  0
  8 13  1  0  0  0  0
  9  1  1  0  0  0  0
 10 19  1  0  0  0  0
 12  8  1  0  0  0  0
 13  2  1  0  0  0  0
 13 18  1  1  0  0  0
 14  5  2  0  0  0  0
 16 12  1  0  0  0  0
 16  5  1  0  0  0  0
 17 16  2  0  0  0  0
 18 10  1  0  0  0  0
 19 20  2  0  0  0  0
 20 15  1  0  0  0  0
 21  8  1  0  0  0  0
 23 21  1  0  0  0  0
 23 22  1  1  0  0  0
 24 31  1  0  0  0  0
 24 28  1  0  0  0  0
 25 30  1  0  0  0  0
 27 24  1  0  0  0  0
 28 25  1  0  0  0  0
 29 26  2  0  0  0  0
 29 30  1  0  0  0  0
 30 23  1  0  0  0  0
 31 29  1  0  0  0  0
M  END
>  <MODEL>
9

>  <REMARK>
 VINA RESULT:      -7.2      4.056      6.880
  Name = 
  3 active torsions:
  status: ('A' for Active; 'I' for Inactive)
    1  A    between atoms: C_5  and  C_16
    2  A    between atoms: C_5  and  N_30
    3  A    between atoms: N_10  and  C_16
                            x       y       z     vdW  Elec       q    Type
                         _______ _______ _______ _____ _____    ______ ____

>  <TORSDO>
F 3

$$$$
