=
 OpenBabel11122410543D

 31 35  0  0  1  0  0  0  0  0999 V2000
  190.1090  175.9930  142.7730 C   0  0  0  0  0  0  0  0  0  0  0  0
  186.7780  177.5010  143.6350 N   0  0  0  0  0  0  0  0  0  0  0  0
  186.7800  177.8600  145.0400 C   0  0  0  0  0  0  0  0  0  0  0  0
  187.8810  178.0020  147.2080 C   0  0  0  0  0  0  0  0  0  0  0  0
  187.9980  177.1860  142.9350 C   0  0  0  0  0  0  0  0  0  0  0  0
  190.3680  176.6070  141.5460 C   0  0  0  0  0  3  0  0  0  0  0  0
  187.8770  177.5840  145.8750 C   0  0  0  0  0  3  0  0  0  0  0  0
  186.0790  179.1110  141.9400 C   0  0  2  0  0  3  0  0  0  0  0  0
  191.0030  175.1200  143.2950 F   0  0  0  0  0  0  0  0  0  0  0  0
  184.5920  178.8550  144.7630 O   0  0  0  0  0  0  0  0  0  0  0  0
  189.0470  177.6980  148.0770 C   0  0  0  0  0  1  0  0  0  0  0  0
  187.2540  178.7110  141.0320 C   0  0  0  0  0  2  0  0  0  0  0  0
  185.6520  177.9030  142.7770 C   0  0  2  0  0  3  0  0  0  0  0  0
  188.9270  176.2780  143.4620 C   0  0  0  0  0  3  0  0  0  0  0  0
  186.7960  178.7180  147.7190 C   0  0  0  0  0  3  0  0  0  0  0  0
  188.2610  177.8000  141.6890 C   0  0  0  0  0  0  0  0  0  0  0  0
  189.4430  177.5030  141.0040 C   0  0  0  0  0  3  0  0  0  0  0  0
  184.3560  178.1160  143.5700 C   0  0  0  0  0  2  0  0  0  0  0  0
  185.6880  178.5690  145.5710 C   0  0  0  0  0  0  0  0  0  0  0  0
  185.7010  179.0030  146.9000 C   0  0  0  0  0  3  0  0  0  0  0  0
  184.9330  179.6200  141.0750 C   0  0  0  0  0  2  0  0  0  0  0  0
  185.0380  179.1810  138.7190 O   0  0  0  0  0  1  0  0  0  0  0  0
  184.6280  178.6480  139.9450 C   0  0  2  0  0  3  0  0  0  0  0  0
  182.3190  176.7430  137.6770 C   0  0  1  0  0  3  0  0  0  0  0  0
  182.9640  176.7520  139.8430 C   0  0  0  0  0  2  0  0  0  0  0  0
  182.5620  180.3080  138.7180 O   0  0  0  0  0  1  0  0  0  0  0  0
  182.4620  176.1000  136.4480 O   0  0  0  0  0  1  0  0  0  0  0  0
  183.3130  176.2860  138.5620 O   0  0  0  0  0  0  0  0  0  0  0  0
  182.2880  178.9440  138.8310 C   0  0  2  0  0  3  0  0  0  0  0  0
  183.1390  178.2730  139.9310 C   0  0  2  0  0  3  0  0  0  0  0  0
  182.4520  178.2530  137.4800 C   0  0  0  0  0  2  0  0  0  0  0  0
  1  9  1  0  0  0  0
  1 14  1  0  0  0  0
  2  3  1  0  0  0  0
  3 19  2  0  0  0  0
  3  7  1  0  0  0  0
  4 15  1  0  0  0  0
  4 11  1  0  0  0  0
  5 14  2  0  0  0  0
  5  2  1  0  0  0  0
  6  1  2  0  0  0  0
  7  4  2  0  0  0  0
  8 21  1  6  0  0  0
  8 13  1  0  0  0  0
 10 19  1  0  0  0  0
 12 16  1  0  0  0  0
 12  8  1  0  0  0  0
 13 18  1  1  0  0  0
 13  2  1  0  0  0  0
 16  5  1  0  0  0  0
 17  6  1  0  0  0  0
 17 16  2  0  0  0  0
 18 10  1  0  0  0  0
 19 20  1  0  0  0  0
 20 15  2  0  0  0  0
 23 22  1  6  0  0  0
 23 21  1  0  0  0  0
 24 27  1  6  0  0  0
 24 28  1  0  0  0  0
 25 30  1  0  0  0  0
 28 25  1  0  0  0  0
 29 26  1  6  0  0  0
 29 30  1  0  0  0  0
 30 23  1  6  0  0  0
 31 24  1  0  0  0  0
 31 29  1  0  0  0  0
M  END
>  <MODEL>
1

>  <REMARK>
 VINA RESULT:      -9.5      0.000      0.000
  Name = 
  3 active torsions:
  status: ('A' for Active; 'I' for Inactive)
    1  A    between atoms: C_5  and  C_16
    2  A    between atoms: C_5  and  C_30
    3  A    between atoms: C_10  and  C_16
                            x       y       z     vdW  Elec       q    Type
                         _______ _______ _______ _____ _____    ______ ____

>  <TORSDO>
F 3

$$$$
=
 OpenBabel11122410543D

 31 35  0  0  1  0  0  0  0  0999 V2000
  190.1240  175.9640  142.7950 C   0  0  0  0  0  0  0  0  0  0  0  0
  186.7140  177.4420  143.3470 N   0  0  0  0  0  0  0  0  0  0  0  0
  186.5950  177.8300  144.7400 C   0  0  0  0  0  0  0  0  0  0  0  0
  187.5110  178.0320  146.9870 C   0  0  0  0  0  0  0  0  0  0  0  0
  187.9920  177.1300  142.7560 C   0  0  0  0  0  0  0  0  0  0  0  0
  190.4750  176.5570  141.5800 C   0  0  0  0  0  3  0  0  0  0  0  0
  187.6230  177.5870  145.6680 C   0  0  0  0  0  3  0  0  0  0  0  0
  186.1380  179.0060  141.5660 C   0  0  2  0  0  3  0  0  0  0  0  0
  190.9820  175.1150  143.4080 F   0  0  0  0  0  0  0  0  0  0  0  0
  184.4260  178.7870  144.2610 O   0  0  0  0  0  0  0  0  0  0  0  0
  188.6060  177.7630  147.9560 C   0  0  0  0  0  1  0  0  0  0  0  0
  187.3880  178.6050  140.7670 C   0  0  0  0  0  2  0  0  0  0  0  0
  185.6580  177.8090  142.3910 C   0  0  2  0  0  3  0  0  0  0  0  0
  188.8860  176.2460  143.3780 C   0  0  0  0  0  3  0  0  0  0  0  0
  186.3790  178.7420  147.3920 C   0  0  0  0  0  3  0  0  0  0  0  0
  188.3490  177.7220  141.5240 C   0  0  0  0  0  0  0  0  0  0  0  0
  189.5870  177.4280  140.9450 C   0  0  0  0  0  3  0  0  0  0  0  0
  184.2980  178.0200  143.0700 C   0  0  0  0  0  2  0  0  0  0  0  0
  185.4550  178.5330  145.1640 C   0  0  0  0  0  0  0  0  0  0  0  0
  185.3520  178.9950  146.4790 C   0  0  0  0  0  3  0  0  0  0  0  0
  185.0600  179.4810  140.5980 C   0  0  0  0  0  2  0  0  0  0  0  0
  186.0560  178.9020  138.4940 O   0  0  0  0  0  1  0  0  0  0  0  0
  185.0060  178.5940  139.3630 C   0  0  2  0  0  3  0  0  0  0  0  0
  181.7910  176.6530  139.3380 C   0  0  1  0  0  3  0  0  0  0  0  0
  182.5090  178.7650  139.7000 C   0  0  0  0  0  2  0  0  0  0  0  0
  184.4070  177.3580  136.7870 O   0  0  0  0  0  1  0  0  0  0  0  0
  181.3500  175.4790  139.9470 O   0  0  0  0  0  1  0  0  0  0  0  0
  182.3330  177.5110  140.3140 O   0  0  0  0  0  0  0  0  0  0  0  0
  183.3240  177.6080  137.6310 C   0  0  2  0  0  3  0  0  0  0  0  0
  183.6410  178.7070  138.6670 C   0  0  2  0  0  3  0  0  0  0  0  0
  182.8540  176.3150  138.2940 C   0  0  0  0  0  2  0  0  0  0  0  0
  1 14  1  0  0  0  0
  1  9  1  0  0  0  0
  2  3  1  0  0  0  0
  3 19  2  0  0  0  0
  3  7  1  0  0  0  0
  4 15  1  0  0  0  0
  4 11  1  0  0  0  0
  5  2  1  0  0  0  0
  5 14  2  0  0  0  0
  6  1  2  0  0  0  0
  7  4  2  0  0  0  0
  8 21  1  6  0  0  0
  8 13  1  0  0  0  0
 10 19  1  0  0  0  0
 12 16  1  0  0  0  0
 12  8  1  0  0  0  0
 13 18  1  1  0  0  0
 13  2  1  0  0  0  0
 16  5  1  0  0  0  0
 17 16  2  0  0  0  0
 17  6  1  0  0  0  0
 18 10  1  0  0  0  0
 19 20  1  0  0  0  0
 20 15  2  0  0  0  0
 23 22  1  6  0  0  0
 23 21  1  0  0  0  0
 24 27  1  1  0  0  0
 24 28  1  0  0  0  0
 25 28  1  0  0  0  0
 29 26  1  1  0  0  0
 29 31  1  0  0  0  0
 29 30  1  0  0  0  0
 30 23  1  1  0  0  0
 30 25  1  0  0  0  0
 31 24  1  0  0  0  0
M  END
>  <MODEL>
2

>  <REMARK>
 VINA RESULT:      -9.3      1.002      1.368
  Name = 
  3 active torsions:
  status: ('A' for Active; 'I' for Inactive)
    1  A    between atoms: C_5  and  C_16
    2  A    between atoms: C_5  and  C_30
    3  A    between atoms: C_10  and  C_16
                            x       y       z     vdW  Elec       q    Type
                         _______ _______ _______ _____ _____    ______ ____

>  <TORSDO>
F 3

$$$$
=
 OpenBabel11122410543D

 31 35  0  0  1  0  0  0  0  0999 V2000
  185.1130  178.6740  144.4730 C   0  0  0  0  0  0  0  0  0  0  0  0
  188.8190  178.3650  143.9320 N   0  0  0  0  0  0  0  0  0  0  0  0
  189.4080  177.7410  145.1010 C   0  0  0  0  0  0  0  0  0  0  0  0
  189.2210  176.7440  147.3150 C   0  0  0  0  0  0  0  0  0  0  0  0
  187.3950  178.3460  143.7030 C   0  0  0  0  0  0  0  0  0  0  0  0
  184.6310  178.2840  143.2220 C   0  0  0  0  0  3  0  0  0  0  0  0
  188.6410  177.4060  146.2300 C   0  0  0  0  0  3  0  0  0  0  0  0
  189.3110  177.5310  141.6930 C   0  0  2  0  0  3  0  0  0  0  0  0
  184.2480  179.0210  145.4550 F   0  0  0  0  0  0  0  0  0  0  0  0
  191.5490  177.7140  143.9730 O   0  0  0  0  0  0  0  0  0  0  0  0
  188.3950  176.4000  148.5010 C   0  0  0  0  0  1  0  0  0  0  0  0
  187.8320  177.6490  141.2900 C   0  0  0  0  0  2  0  0  0  0  0  0
  189.6390  178.6030  142.7340 C   0  0  2  0  0  3  0  0  0  0  0  0
  186.4900  178.7100  144.7110 C   0  0  0  0  0  3  0  0  0  0  0  0
  190.5720  176.3910  147.2770 C   0  0  0  0  0  3  0  0  0  0  0  0
  186.9020  177.9580  142.4370 C   0  0  0  0  0  0  0  0  0  0  0  0
  185.5230  177.9330  142.2060 C   0  0  0  0  0  3  0  0  0  0  0  0
  191.1340  178.7230  143.0610 C   0  0  0  0  0  2  0  0  0  0  0  0
  190.7700  177.3940  145.0820 C   0  0  0  0  0  0  0  0  0  0  0  0
  191.3450  176.7140  146.1600 C   0  0  0  0  0  3  0  0  0  0  0  0
  190.1790  177.6800  140.4490 C   0  0  0  0  0  2  0  0  0  0  0  0
  190.8390  175.6130  139.4250 O   0  0  0  0  0  1  0  0  0  0  0  0
  189.8520  176.6040  139.4240 C   0  0  2  0  0  3  0  0  0  0  0  0
  187.0990  178.3570  137.5660 C   0  0  1  0  0  3  0  0  0  0  0  0
  189.2620  178.6920  138.1330 C   0  0  0  0  0  2  0  0  0  0  0  0
  188.8490  175.1010  137.1300 O   0  0  0  0  0  1  0  0  0  0  0  0
  185.7780  178.6940  137.8590 O   0  0  0  0  0  1  0  0  0  0  0  0
  187.9390  178.8130  138.5990 O   0  0  0  0  0  0  0  0  0  0  0  0
  188.6670  176.4850  137.1040 C   0  0  2  0  0  3  0  0  0  0  0  0
  189.6640  177.2160  138.0280 C   0  0  2  0  0  3  0  0  0  0  0  0
  187.2190  176.8390  137.4300 C   0  0  0  0  0  2  0  0  0  0  0  0
  1 14  1  0  0  0  0
  1  9  1  0  0  0  0
  2  3  1  0  0  0  0
  3  7  1  0  0  0  0
  4 11  1  0  0  0  0
  5  2  1  0  0  0  0
  5 14  2  0  0  0  0
  6  1  2  0  0  0  0
  7  4  2  0  0  0  0
  8 21  1  6  0  0  0
  8 13  1  0  0  0  0
 10 19  1  0  0  0  0
 12  8  1  0  0  0  0
 12 16  1  0  0  0  0
 13 18  1  1  0  0  0
 13  2  1  0  0  0  0
 15  4  1  0  0  0  0
 16  5  1  0  0  0  0
 17 16  2  0  0  0  0
 17  6  1  0  0  0  0
 18 10  1  0  0  0  0
 19  3  2  0  0  0  0
 19 20  1  0  0  0  0
 20 15  2  0  0  0  0
 23 22  1  6  0  0  0
 23 21  1  0  0  0  0
 24 27  1  1  0  0  0
 24 28  1  0  0  0  0
 25 28  1  0  0  0  0
 29 26  1  1  0  0  0
 29 31  1  0  0  0  0
 29 30  1  0  0  0  0
 30 25  1  0  0  0  0
 30 23  1  1  0  0  0
 31 24  1  0  0  0  0
M  END
>  <MODEL>
3

>  <REMARK>
 VINA RESULT:      -8.6      3.252      5.161
  Name = 
  3 active torsions:
  status: ('A' for Active; 'I' for Inactive)
    1  A    between atoms: C_5  and  C_16
    2  A    between atoms: C_5  and  C_30
    3  A    between atoms: C_10  and  C_16
                            x       y       z     vdW  Elec       q    Type
                         _______ _______ _______ _____ _____    ______ ____

>  <TORSDO>
F 3

$$$$
=
 OpenBabel11122410543D

 31 35  0  0  1  0  0  0  0  0999 V2000
  191.4600  176.0620  144.9880 C   0  0  0  0  0  0  0  0  0  0  0  0
  188.0330  177.2240  143.9770 N   0  0  0  0  0  0  0  0  0  0  0  0
  187.3630  177.7660  145.1440 C   0  0  0  0  0  0  0  0  0  0  0  0
  187.3220  178.3400  147.5110 C   0  0  0  0  0  0  0  0  0  0  0  0
  189.4540  176.9800  143.9680 C   0  0  0  0  0  0  0  0  0  0  0  0
  192.2250  176.5350  143.9200 C   0  0  0  0  0  3  0  0  0  0  0  0
  187.9600  177.7500  146.4170 C   0  0  0  0  0  3  0  0  0  0  0  0
  188.1150  178.4860  141.8910 C   0  0  2  0  0  3  0  0  0  0  0  0
  192.0550  175.3910  146.0030 F   0  0  0  0  0  0  0  0  0  0  0  0
  185.5040  178.4200  143.7410 O   0  0  0  0  0  0  0  0  0  0  0  0
  187.9660  178.3100  148.8490 C   0  0  0  0  0  1  0  0  0  0  0  0
  189.5970  178.1250  141.6950 C   0  0  0  0  0  2  0  0  0  0  0  0
  187.4150  177.3560  142.6490 C   0  0  2  0  0  3  0  0  0  0  0  0
  190.0800  176.2800  145.0100 C   0  0  0  0  0  3  0  0  0  0  0  0
  186.0870  178.9690  147.3430 C   0  0  0  0  0  3  0  0  0  0  0  0
  190.2310  177.4510  142.8860 C   0  0  0  0  0  0  0  0  0  0  0  0
  191.6110  177.2210  142.8700 C   0  0  0  0  0  3  0  0  0  0  0  0
  185.8880  177.5030  142.7230 C   0  0  0  0  0  2  0  0  0  0  0  0
  186.1130  178.3900  144.9920 C   0  0  0  0  0  0  0  0  0  0  0  0
  185.4840  178.9970  146.0830 C   0  0  0  0  0  3  0  0  0  0  0  0
  187.4760  178.7210  140.5280 C   0  0  0  0  0  2  0  0  0  0  0  0
  188.8610  179.3770  138.6820 O   0  0  0  0  0  1  0  0  0  0  0  0
  188.4020  178.2730  139.4070 C   0  0  2  0  0  3  0  0  0  0  0  0
  188.6610  177.1940  135.8190 C   0  0  1  0  0  3  0  0  0  0  0  0
  188.7310  176.2840  137.8870 C   0  0  0  0  0  2  0  0  0  0  0  0
  186.0180  178.8740  137.8300 O   0  0  0  0  0  1  0  0  0  0  0  0
  189.4250  177.6000  134.7260 O   0  0  0  0  0  1  0  0  0  0  0  0
  189.5080  176.9390  136.9130 O   0  0  0  0  0  0  0  0  0  0  0  0
  186.8290  177.8350  137.3730 C   0  0  2  0  0  3  0  0  0  0  0  0
  187.7070  177.2480  138.4990 C   0  0  2  0  0  3  0  0  0  0  0  0
  187.6630  178.2940  136.1780 C   0  0  0  0  0  2  0  0  0  0  0  0
  1 14  1  0  0  0  0
  1  9  1  0  0  0  0
  2  3  1  0  0  0  0
  3  7  1  0  0  0  0
  4 11  1  0  0  0  0
  5  2  1  0  0  0  0
  5 14  2  0  0  0  0
  6  1  2  0  0  0  0
  7  4  2  0  0  0  0
  8 21  1  6  0  0  0
  8 13  1  0  0  0  0
 10 19  1  0  0  0  0
 12  8  1  0  0  0  0
 12 16  1  0  0  0  0
 13 18  1  1  0  0  0
 13  2  1  0  0  0  0
 15  4  1  0  0  0  0
 16  5  1  0  0  0  0
 17 16  2  0  0  0  0
 17  6  1  0  0  0  0
 18 10  1  0  0  0  0
 19  3  2  0  0  0  0
 19 20  1  0  0  0  0
 20 15  2  0  0  0  0
 23 22  1  6  0  0  0
 23 21  1  0  0  0  0
 24 27  1  6  0  0  0
 24 31  1  0  0  0  0
 24 28  1  0  0  0  0
 25 30  1  0  0  0  0
 28 25  1  0  0  0  0
 29 26  1  1  0  0  0
 29 30  1  0  0  0  0
 30 23  1  6  0  0  0
 31 29  1  0  0  0  0
M  END
>  <MODEL>
4

>  <REMARK>
 VINA RESULT:      -8.3      2.622      3.486
  Name = 
  3 active torsions:
  status: ('A' for Active; 'I' for Inactive)
    1  A    between atoms: C_5  and  C_16
    2  A    between atoms: C_5  and  C_30
    3  A    between atoms: C_10  and  C_16
                            x       y       z     vdW  Elec       q    Type
                         _______ _______ _______ _____ _____    ______ ____

>  <TORSDO>
F 3

$$$$
=
 OpenBabel11122410543D

 31 35  0  0  1  0  0  0  0  0999 V2000
  191.1810  176.3180  143.7890 C   0  0  0  0  0  0  0  0  0  0  0  0
  187.5720  177.3630  143.8200 N   0  0  0  0  0  0  0  0  0  0  0  0
  187.2300  177.8100  145.1570 C   0  0  0  0  0  0  0  0  0  0  0  0
  187.8190  178.2590  147.4770 C   0  0  0  0  0  0  0  0  0  0  0  0
  188.9440  177.1890  143.4110 C   0  0  0  0  0  0  0  0  0  0  0  0
  191.6090  176.8820  142.5850 C   0  0  0  0  0  3  0  0  0  0  0  0
  188.1520  177.7580  146.2160 C   0  0  0  0  0  3  0  0  0  0  0  0
  187.0400  178.7330  141.8740 C   0  0  2  0  0  3  0  0  0  0  0  0
  192.0530  175.6250  144.5600 F   0  0  0  0  0  0  0  0  0  0  0  0
  185.0370  178.4440  144.3540 O   0  0  0  0  0  0  0  0  0  0  0  0
  188.8050  178.1920  148.5860 C   0  0  0  0  0  1  0  0  0  0  0  0
  188.4220  178.4550  141.2610 C   0  0  0  0  0  2  0  0  0  0  0  0
  186.6100  177.5320  142.7200 C   0  0  2  0  0  3  0  0  0  0  0  0
  189.8530  176.4670  144.1980 C   0  0  0  0  0  3  0  0  0  0  0  0
  186.5650  178.8360  147.6900 C   0  0  0  0  0  3  0  0  0  0  0  0
  189.3800  177.7520  142.1900 C   0  0  0  0  0  0  0  0  0  0  0  0
  190.7090  177.5910  141.7860 C   0  0  0  0  0  3  0  0  0  0  0  0
  185.1590  177.6010  143.2150 C   0  0  0  0  0  2  0  0  0  0  0  0
  185.9660  178.3800  145.3890 C   0  0  0  0  0  0  0  0  0  0  0  0
  185.6400  178.8980  146.6450 C   0  0  0  0  0  3  0  0  0  0  0  0
  186.0440  179.0060  140.7520 C   0  0  0  0  0  2  0  0  0  0  0  0
  187.7060  178.6300  139.0630 O   0  0  0  0  0  1  0  0  0  0  0  0
  186.4280  178.2530  139.4870 C   0  0  2  0  0  3  0  0  0  0  0  0
  183.3790  176.4450  138.2450 C   0  0  1  0  0  3  0  0  0  0  0  0
  183.9670  178.5000  138.9810 C   0  0  0  0  0  2  0  0  0  0  0  0
  186.7120  177.2100  136.7750 O   0  0  0  0  0  1  0  0  0  0  0  0
  182.7420  175.2520  138.5840 O   0  0  0  0  0  1  0  0  0  0  0  0
  183.5750  177.2160  139.4060 O   0  0  0  0  0  0  0  0  0  0  0  0
  185.4120  177.4470  137.2240 C   0  0  2  0  0  3  0  0  0  0  0  0
  185.3790  178.4640  138.3850 C   0  0  2  0  0  3  0  0  0  0  0  0
  184.7270  176.1340  137.5940 C   0  0  0  0  0  2  0  0  0  0  0  0
  1 14  1  0  0  0  0
  1  9  1  0  0  0  0
  2  3  1  0  0  0  0
  3 19  2  0  0  0  0
  3  7  1  0  0  0  0
  4 15  1  0  0  0  0
  4 11  1  0  0  0  0
  5  2  1  0  0  0  0
  5 14  2  0  0  0  0
  6  1  2  0  0  0  0
  7  4  2  0  0  0  0
  8 21  1  6  0  0  0
  8 13  1  0  0  0  0
 10 19  1  0  0  0  0
 12  8  1  0  0  0  0
 12 16  1  0  0  0  0
 13 18  1  1  0  0  0
 13  2  1  0  0  0  0
 16  5  1  0  0  0  0
 17 16  2  0  0  0  0
 17  6  1  0  0  0  0
 18 10  1  0  0  0  0
 19 20  1  0  0  0  0
 20 15  2  0  0  0  0
 23 22  1  6  0  0  0
 23 21  1  0  0  0  0
 24 27  1  1  0  0  0
 24 28  1  0  0  0  0
 25 28  1  0  0  0  0
 29 26  1  1  0  0  0
 29 31  1  0  0  0  0
 29 30  1  0  0  0  0
 30 25  1  0  0  0  0
 30 23  1  1  0  0  0
 31 24  1  0  0  0  0
M  END
>  <MODEL>
5

>  <REMARK>
 VINA RESULT:      -8.2      1.457      1.884
  Name = 
  3 active torsions:
  status: ('A' for Active; 'I' for Inactive)
    1  A    between atoms: C_5  and  C_16
    2  A    between atoms: C_5  and  C_30
    3  A    between atoms: C_10  and  C_16
                            x       y       z     vdW  Elec       q    Type
                         _______ _______ _______ _____ _____    ______ ____

>  <TORSDO>
F 3

$$$$
=
 OpenBabel11122410543D

 31 35  0  0  1  0  0  0  0  0999 V2000
  189.0370  178.0590  137.0310 C   0  0  0  0  0  0  0  0  0  0  0  0
  186.6700  178.6000  139.8990 N   0  0  0  0  0  0  0  0  0  0  0  0
  185.3280  178.2670  139.4620 C   0  0  0  0  0  0  0  0  0  0  0  0
  183.7620  177.4970  137.7620 C   0  0  0  0  0  0  0  0  0  0  0  0
  187.8300  178.2120  139.1350 C   0  0  0  0  0  0  0  0  0  0  0  0
  190.1010  177.4310  137.6820 C   0  0  0  0  0  3  0  0  0  0  0  0
  185.0520  177.8790  138.1390 C   0  0  0  0  0  3  0  0  0  0  0  0
  187.5730  177.6740  141.9670 C   0  0  2  0  0  3  0  0  0  0  0  0
  189.0990  178.2890  135.6980 F   0  0  0  0  0  0  0  0  0  0  0  0
  184.5310  178.6370  141.7160 O   0  0  0  0  0  0  0  0  0  0  0  0
  183.4880  177.0930  136.3590 C   0  0  0  0  0  1  0  0  0  0  0  0
  188.9210  177.3860  141.2860 C   0  0  0  0  0  2  0  0  0  0  0  0
  186.9280  178.8990  141.3160 C   0  0  2  0  0  3  0  0  0  0  0  0
  187.9080  178.4520  137.7560 C   0  0  0  0  0  3  0  0  0  0  0  0
  182.7340  177.4800  138.7080 C   0  0  0  0  0  3  0  0  0  0  0  0
  188.9120  177.5820  139.7900 C   0  0  0  0  0  0  0  0  0  0  0  0
  190.0400  177.2000  139.0580 C   0  0  0  0  0  3  0  0  0  0  0  0
  185.6780  179.4120  142.0440 C   0  0  0  0  0  2  0  0  0  0  0  0
  184.2810  178.2590  140.4000 C   0  0  0  0  0  0  0  0  0  0  0  0
  182.9950  177.8590  140.0270 C   0  0  0  0  0  3  0  0  0  0  0  0
  187.8050  177.8940  143.4570 C   0  0  0  0  0  2  0  0  0  0  0  0
  189.0010  175.9880  144.2880 O   0  0  0  0  0  1  0  0  0  0  0  0
  189.1460  177.3200  143.8910 C   0  0  2  0  0  3  0  0  0  0  0  0
  191.4840  176.7560  146.7750 C   0  0  1  0  0  3  0  0  0  0  0  0
  191.3050  178.0820  144.9540 C   0  0  0  0  0  2  0  0  0  0  0  0
  187.9060  177.7410  146.5010 O   0  0  0  0  0  1  0  0  0  0  0  0
  192.1230  175.6400  147.3150 O   0  0  0  0  0  1  0  0  0  0  0  0
  191.7370  176.8160  145.3920 O   0  0  0  0  0  0  0  0  0  0  0  0
  189.2930  177.8780  146.4340 C   0  0  2  0  0  3  0  0  0  0  0  0
  189.7760  178.1770  144.9990 C   0  0  2  0  0  3  0  0  0  0  0  0
  189.9800  176.6500  147.0250 C   0  0  0  0  0  2  0  0  0  0  0  0
  1  6  2  0  0  0  0
  1 14  1  0  0  0  0
  2 13  1  0  0  0  0
  3  2  1  0  0  0  0
  3 19  1  0  0  0  0
  4  7  1  0  0  0  0
  4 15  2  0  0  0  0
  5 16  1  0  0  0  0
  5  2  1  0  0  0  0
  6 17  1  0  0  0  0
  7  3  2  0  0  0  0
  8 21  1  1  0  0  0
  9  1  1  0  0  0  0
 10 18  1  0  0  0  0
 11  4  1  0  0  0  0
 12  8  1  0  0  0  0
 13  8  1  0  0  0  0
 13 18  1  1  0  0  0
 14  5  2  0  0  0  0
 15 20  1  0  0  0  0
 16 12  1  0  0  0  0
 17 16  2  0  0  0  0
 19 10  1  0  0  0  0
 20 19  2  0  0  0  0
 21 23  1  0  0  0  0
 23 22  1  1  0  0  0
 24 31  1  0  0  0  0
 24 27  1  6  0  0  0
 25 30  1  0  0  0  0
 25 28  1  0  0  0  0
 28 24  1  0  0  0  0
 29 26  1  6  0  0  0
 29 31  1  0  0  0  0
 30 23  1  6  0  0  0
 30 29  1  0  0  0  0
M  END
>  <MODEL>
6

>  <REMARK>
 VINA RESULT:      -8.1      3.422      7.872
  Name = 
  3 active torsions:
  status: ('A' for Active; 'I' for Inactive)
    1  A    between atoms: C_5  and  C_16
    2  A    between atoms: C_5  and  C_30
    3  A    between atoms: C_10  and  C_16
                            x       y       z     vdW  Elec       q    Type
                         _______ _______ _______ _____ _____    ______ ____

>  <TORSDO>
F 3

$$$$
=
 OpenBabel11122410543D

 31 35  0  0  1  0  0  0  0  0999 V2000
  189.1820  176.5970  142.1710 C   0  0  0  0  0  0  0  0  0  0  0  0
  186.6140  177.5810  144.7320 N   0  0  0  0  0  0  0  0  0  0  0  0
  187.2760  177.7530  146.0110 C   0  0  0  0  0  0  0  0  0  0  0  0
  189.2760  177.7410  147.4020 C   0  0  0  0  0  0  0  0  0  0  0  0
  187.3610  177.5040  143.5000 C   0  0  0  0  0  0  0  0  0  0  0  0
  188.7940  177.3910  141.0900 C   0  0  0  0  0  3  0  0  0  0  0  0
  188.6490  177.5020  146.1760 C   0  0  0  0  0  3  0  0  0  0  0  0
  185.1230  179.3030  143.8600 C   0  0  2  0  0  3  0  0  0  0  0  0
  190.2520  175.7740  142.0590 F   0  0  0  0  0  0  0  0  0  0  0  0
  185.1850  178.5130  146.9610 O   0  0  0  0  0  0  0  0  0  0  0  0
  190.7270  177.4660  147.5590 C   0  0  0  0  0  1  0  0  0  0  0  0
  185.7330  179.1640  142.4560 C   0  0  0  0  0  2  0  0  0  0  0  0
  185.2000  177.9550  144.5810 C   0  0  2  0  0  3  0  0  0  0  0  0
  188.4650  176.6500  143.3700 C   0  0  0  0  0  3  0  0  0  0  0  0
  188.5410  178.2530  148.4740 C   0  0  0  0  0  3  0  0  0  0  0  0
  186.9680  178.3000  142.4010 C   0  0  0  0  0  0  0  0  0  0  0  0
  187.6870  178.2350  141.2040 C   0  0  0  0  0  3  0  0  0  0  0  0
  184.4360  177.9110  145.9120 C   0  0  0  0  0  2  0  0  0  0  0  0
  186.5450  178.2540  147.1020 C   0  0  0  0  0  0  0  0  0  0  0  0
  187.1770  178.5120  148.3220 C   0  0  0  0  0  3  0  0  0  0  0  0
  183.6820  179.7820  143.7310 C   0  0  0  0  0  2  0  0  0  0  0  0
  183.5420  178.1780  141.9530 O   0  0  0  0  0  1  0  0  0  0  0  0
  182.8270  178.7530  143.0080 C   0  0  2  0  0  3  0  0  0  0  0  0
  179.5300  177.4990  141.7180 C   0  0  1  0  0  3  0  0  0  0  0  0
  180.3270  178.8490  143.3460 C   0  0  0  0  0  2  0  0  0  0  0  0
  182.3110  179.4720  140.2250 O   0  0  0  0  0  1  0  0  0  0  0  0
  179.0020  176.2400  141.4370 O   0  0  0  0  0  1  0  0  0  0  0  0
  180.0580  177.5050  143.0220 O   0  0  0  0  0  0  0  0  0  0  0  0
  181.1970  179.2070  141.0230 C   0  0  2  0  0  3  0  0  0  0  0  0
  181.5090  179.3770  142.5250 C   0  0  2  0  0  3  0  0  0  0  0  0
  180.6310  177.8250  140.7090 C   0  0  0  0  0  2  0  0  0  0  0  0
  1 14  1  0  0  0  0
  2  3  1  0  0  0  0
  3  7  2  0  0  0  0
  3 19  1  0  0  0  0
  4 11  1  0  0  0  0
  4 15  2  0  0  0  0
  5  2  1  0  0  0  0
  6 17  1  0  0  0  0
  6  1  2  0  0  0  0
  7  4  1  0  0  0  0
  8 21  1  6  0  0  0
  8 13  1  0  0  0  0
  9  1  1  0  0  0  0
 10 19  1  0  0  0  0
 12  8  1  0  0  0  0
 13  2  1  0  0  0  0
 13 18  1  1  0  0  0
 14  5  2  0  0  0  0
 16 12  1  0  0  0  0
 16  5  1  0  0  0  0
 17 16  2  0  0  0  0
 18 10  1  0  0  0  0
 19 20  2  0  0  0  0
 20 15  1  0  0  0  0
 23 22  1  6  0  0  0
 23 21  1  0  0  0  0
 24 27  1  6  0  0  0
 24 28  1  0  0  0  0
 28 25  1  0  0  0  0
 29 26  1  6  0  0  0
 29 30  1  0  0  0  0
 30 23  1  1  0  0  0
 30 25  1  0  0  0  0
 31 29  1  0  0  0  0
 31 24  1  0  0  0  0
M  END
>  <MODEL>
7

>  <REMARK>
 VINA RESULT:      -7.9      2.233      2.804
  Name = 
  3 active torsions:
  status: ('A' for Active; 'I' for Inactive)
    1  A    between atoms: C_5  and  C_16
    2  A    between atoms: C_5  and  C_30
    3  A    between atoms: C_10  and  C_16
                            x       y       z     vdW  Elec       q    Type
                         _______ _______ _______ _____ _____    ______ ____

>  <TORSDO>
F 3

$$$$
=
 OpenBabel11122410543D

 31 35  0  0  1  0  0  0  0  0999 V2000
  184.9340  179.4190  144.9740 C   0  0  0  0  0  0  0  0  0  0  0  0
  185.1060  179.1690  141.2290 N   0  0  0  0  0  0  0  0  0  0  0  0
  186.4110  178.6560  140.8570 C   0  0  0  0  0  0  0  0  0  0  0  0
  188.6280  177.8320  141.4370 C   0  0  0  0  0  0  0  0  0  0  0  0
  184.6240  179.0930  142.5860 C   0  0  0  0  0  0  0  0  0  0  0  0
  183.6530  178.9180  145.2140 C   0  0  0  0  0  3  0  0  0  0  0  0
  187.4040  178.3900  141.8150 C   0  0  0  0  0  3  0  0  0  0  0  0
  183.0720  178.1740  140.3230 C   0  0  2  0  0  3  0  0  0  0  0  0
  185.7100  179.8190  146.0100 F   0  0  0  0  0  0  0  0  0  0  0  0
  185.6990  178.5980  138.5460 O   0  0  0  0  0  0  0  0  0  0  0  0
  189.6680  177.5610  142.4630 C   0  0  0  0  0  1  0  0  0  0  0  0
  182.3970  178.2190  141.7040 C   0  0  0  0  0  2  0  0  0  0  0  0
  184.0630  179.3340  140.2060 C   0  0  2  0  0  3  0  0  0  0  0  0
  185.4160  179.5100  143.6660 C   0  0  0  0  0  3  0  0  0  0  0  0
  188.8670  177.5150  140.0980 C   0  0  0  0  0  3  0  0  0  0  0  0
  183.3260  178.5920  142.8330 C   0  0  0  0  0  0  0  0  0  0  0  0
  182.8500  178.5120  144.1460 C   0  0  0  0  0  3  0  0  0  0  0  0
  184.6460  179.5200  138.7980 C   0  0  0  0  0  2  0  0  0  0  0  0
  186.6700  178.3450  139.5110 C   0  0  0  0  0  0  0  0  0  0  0  0
  187.8870  177.7690  139.1360 C   0  0  0  0  0  3  0  0  0  0  0  0
  181.9990  178.2470  139.2430 C   0  0  0  0  0  2  0  0  0  0  0  0
  182.5160  176.8320  137.3760 O   0  0  0  0  0  1  0  0  0  0  0  0
  181.8020  176.8940  138.5760 C   0  0  2  0  0  3  0  0  0  0  0  0
  179.0230  175.3410  140.5680 C   0  0  1  0  0  3  0  0  0  0  0  0
  179.4660  177.2610  139.4610 C   0  0  0  0  0  2  0  0  0  0  0  0
  180.8010  174.3990  137.4370 O   0  0  0  0  0  1  0  0  0  0  0  0
  178.9320  174.7440  141.8250 O   0  0  0  0  0  1  0  0  0  0  0  0
  179.6420  176.5980  140.6910 O   0  0  0  0  0  0  0  0  0  0  0  0
  179.9290  175.1070  138.2650 C   0  0  2  0  0  3  0  0  0  0  0  0
  180.3090  176.5990  138.3650 C   0  0  2  0  0  3  0  0  0  0  0  0
  179.8420  174.4450  139.6380 C   0  0  0  0  0  2  0  0  0  0  0  0
  1  6  1  0  0  0  0
  1  9  1  0  0  0  0
  2  5  1  0  0  0  0
  3  2  1  0  0  0  0
  3  7  1  0  0  0  0
  4  7  2  0  0  0  0
  4 11  1  0  0  0  0
  5 16  2  0  0  0  0
  5 14  1  0  0  0  0
  8 21  1  6  0  0  0
  8 12  1  0  0  0  0
 10 18  1  0  0  0  0
 10 19  1  0  0  0  0
 12 16  1  0  0  0  0
 13 18  1  6  0  0  0
 13  8  1  0  0  0  0
 13  2  1  0  0  0  0
 14  1  2  0  0  0  0
 15  4  1  0  0  0  0
 16 17  1  0  0  0  0
 17  6  2  0  0  0  0
 19  3  2  0  0  0  0
 20 19  1  0  0  0  0
 20 15  2  0  0  0  0
 23 22  1  6  0  0  0
 23 21  1  0  0  0  0
 24 28  1  0  0  0  0
 24 27  1  1  0  0  0
 25 28  1  0  0  0  0
 29 26  1  6  0  0  0
 29 30  1  0  0  0  0
 29 31  1  0  0  0  0
 30 23  1  1  0  0  0
 30 25  1  0  0  0  0
 31 24  1  0  0  0  0
M  END
>  <MODEL>
8

>  <REMARK>
 VINA RESULT:      -7.9      2.763      5.424
  Name = 
  3 active torsions:
  status: ('A' for Active; 'I' for Inactive)
    1  A    between atoms: C_5  and  C_16
    2  A    between atoms: C_5  and  C_30
    3  A    between atoms: C_10  and  C_16
                            x       y       z     vdW  Elec       q    Type
                         _______ _______ _______ _____ _____    ______ ____

>  <TORSDO>
F 3

$$$$
=
 OpenBabel11122410543D

 31 35  0  0  1  0  0  0  0  0999 V2000
  191.2920  177.2900  141.9180 C   0  0  0  0  0  0  0  0  0  0  0  0
  189.9640  177.6810  138.4250 N   0  0  0  0  0  0  0  0  0  0  0  0
  190.6770  176.7690  137.5520 C   0  0  0  0  0  0  0  0  0  0  0  0
  192.3520  175.0410  137.1750 C   0  0  0  0  0  0  0  0  0  0  0  0
  190.0260  177.5560  139.8610 C   0  0  0  0  0  0  0  0  0  0  0  0
  190.1050  177.3050  142.6550 C   0  0  0  0  0  3  0  0  0  0  0  0
  191.7270  175.9600  138.0220 C   0  0  0  0  0  3  0  0  0  0  0  0
  187.5260  177.7600  138.4190 C   0  0  2  0  0  3  0  0  0  0  0  0
  192.4810  177.1520  142.5510 F   0  0  0  0  0  0  0  0  0  0  0  0
  189.2270  177.4220  135.7290 O   0  0  0  0  0  0  0  0  0  0  0  0
  193.4620  174.1970  137.6880 C   0  0  0  0  0  1  0  0  0  0  0  0
  187.4920  177.8160  139.9550 C   0  0  0  0  0  2  0  0  0  0  0  0
  188.8050  178.4310  137.9150 C   0  0  2  0  0  3  0  0  0  0  0  0
  191.2520  177.4200  140.5270 C   0  0  0  0  0  3  0  0  0  0  0  0
  191.9230  174.9050  135.8530 C   0  0  0  0  0  3  0  0  0  0  0  0
  188.8290  177.5770  140.6110 C   0  0  0  0  0  0  0  0  0  0  0  0
  188.8790  177.4540  142.0030 C   0  0  0  0  0  3  0  0  0  0  0  0
  188.8550  178.6240  136.3930 C   0  0  0  0  0  2  0  0  0  0  0  0
  190.2660  176.6330  136.2150 C   0  0  0  0  0  0  0  0  0  0  0  0
  190.8790  175.6990  135.3740 C   0  0  0  0  0  3  0  0  0  0  0  0
  186.2830  178.4500  137.8680 C   0  0  0  0  0  2  0  0  0  0  0  0
  184.8610  176.9690  136.6270 O   0  0  0  0  0  1  0  0  0  0  0  0
  185.0830  177.5150  137.8940 C   0  0  2  0  0  3  0  0  0  0  0  0
  184.0220  179.0870  141.1360 C   0  0  1  0  0  3  0  0  0  0  0  0
  184.2010  179.6320  138.9500 C   0  0  0  0  0  2  0  0  0  0  0  0
  182.8540  176.1400  139.1860 O   0  0  0  0  0  1  0  0  0  0  0  0
  184.6030  179.2220  142.3960 O   0  0  0  0  0  1  0  0  0  0  0  0
  184.9240  179.5370  140.1540 O   0  0  0  0  0  0  0  0  0  0  0  0
  183.0370  177.4840  139.5110 C   0  0  2  0  0  3  0  0  0  0  0  0
  183.8360  178.2380  138.4270 C   0  0  2  0  0  3  0  0  0  0  0  0
  183.6760  177.6180  140.8910 C   0  0  0  0  0  2  0  0  0  0  0  0
  1  9  1  0  0  0  0
  1  6  1  0  0  0  0
  2  5  1  0  0  0  0
  3  7  1  0  0  0  0
  3  2  1  0  0  0  0
  4 11  1  0  0  0  0
  4  7  2  0  0  0  0
  5 14  1  0  0  0  0
  5 16  2  0  0  0  0
  8 21  1  6  0  0  0
  8 12  1  0  0  0  0
 10 19  1  0  0  0  0
 10 18  1  0  0  0  0
 12 16  1  0  0  0  0
 13 18  1  6  0  0  0
 13  8  1  0  0  0  0
 13  2  1  0  0  0  0
 14  1  2  0  0  0  0
 15  4  1  0  0  0  0
 16 17  1  0  0  0  0
 17  6  2  0  0  0  0
 19  3  2  0  0  0  0
 20 15  2  0  0  0  0
 20 19  1  0  0  0  0
 21 23  1  0  0  0  0
 23 22  1  6  0  0  0
 24 27  1  1  0  0  0
 25 28  1  0  0  0  0
 28 24  1  0  0  0  0
 29 26  1  6  0  0  0
 29 31  1  0  0  0  0
 30 23  1  1  0  0  0
 30 25  1  0  0  0  0
 30 29  1  0  0  0  0
 31 24  1  0  0  0  0
M  END
>  <MODEL>
9

>  <REMARK>
 VINA RESULT:      -7.7      3.338      6.619
  Name = 
  3 active torsions:
  status: ('A' for Active; 'I' for Inactive)
    1  A    between atoms: C_5  and  C_16
    2  A    between atoms: C_5  and  C_30
    3  A    between atoms: C_10  and  C_16
                            x       y       z     vdW  Elec       q    Type
                         _______ _______ _______ _____ _____    ______ ____

>  <TORSDO>
F 3

$$$$
