=
 OpenBabel11122411093D

 31 35  0  0  1  0  0  0  0  0999 V2000
  189.7480  177.1280  145.2770 C   0  0  0  0  0  0  0  0  0  0  0  0
  187.0650  178.2040  142.8640 C   0  0  0  0  0  0  0  0  0  0  0  0
  185.8820  178.4500  143.6290 C   0  0  0  0  0  0  0  0  0  0  0  0
  184.6550  178.5410  145.7420 C   0  0  0  0  0  0  0  0  0  0  0  0
  188.3130  177.7750  143.4100 C   0  0  0  0  0  0  0  0  0  0  0  0
  190.8160  176.9260  144.4040 C   0  0  0  0  0  3  0  0  0  0  0  0
  185.8280  178.2920  145.0260 C   0  0  0  0  0  3  0  0  0  0  0  0
  188.1090  178.1790  140.6490 C   0  0  0  0  0  0  0  0  0  0  0  0
  189.9100  176.9160  146.6050 F   0  0  0  0  0  0  0  0  0  0  0  0
  184.7000  179.0450  141.5920 C   0  0  0  0  0  3  0  0  0  0  0  0
  184.6350  178.3750  147.1200 O   0  0  0  0  0  1  0  0  0  0  0  0
  189.2770  177.7700  141.2050 N   0  0  0  0  0  0  0  0  0  0  0  0
  186.9870  178.4020  141.4570 C   0  0  0  0  0  0  0  0  0  0  0  0
  188.0220  178.3780  139.2330 N   0  0  0  0  0  2  0  0  0  0  0  0
  188.5110  177.5470  144.7830 C   0  0  0  0  0  3  0  0  0  0  0  0
  183.5050  178.9560  145.0730 C   0  0  0  0  0  3  0  0  0  0  0  0
  189.4100  177.5660  142.5370 C   0  0  0  0  0  0  0  0  0  0  0  0
  190.6470  177.1460  143.0370 C   0  0  0  0  0  3  0  0  0  0  0  0
  185.8250  178.8090  140.8770 N   0  0  0  0  0  0  0  0  0  0  0  0
  184.7010  178.8740  142.9690 C   0  0  0  0  0  0  0  0  0  0  0  0
  183.5280  179.1220  143.6880 C   0  0  0  0  0  3  0  0  0  0  0  0
  189.0660  179.1650  137.1680 C   0  0  0  0  0  1  0  0  0  0  0  0
  189.1550  178.1960  138.3360 C   0  0  2  0  0  3  0  0  0  0  0  0
  189.3240  174.1350  136.9260 C   0  0  0  0  0  0  0  0  0  0  0  0
  188.0660  176.1660  137.3120 C   0  0  0  0  0  3  0  0  0  0  0  0
  191.5320  176.6350  138.4240 F   0  0  0  0  0  0  0  0  0  0  0  0
  189.3800  172.8570  136.4830 F   0  0  0  0  0  0  0  0  0  0  0  0
  188.1240  174.8470  136.8540 C   0  0  0  0  0  3  0  0  0  0  0  0
  190.4120  176.0620  137.9140 C   0  0  0  0  0  0  0  0  0  0  0  0
  189.2100  176.7820  137.8450 C   0  0  0  0  0  0  0  0  0  0  0  0
  190.4670  174.7420  137.4550 C   0  0  0  0  0  3  0  0  0  0  0  0
  1  9  1  0  0  0  0
  2  5  1  0  0  0  0
  2  3  1  0  0  0  0
  3  7  1  0  0  0  0
  4 11  1  0  0  0  0
  5 15  2  0  0  0  0
  6  1  2  0  0  0  0
  7  4  2  0  0  0  0
  8 12  2  0  0  0  0
  8 13  1  0  0  0  0
 10 20  1  0  0  0  0
 12 17  1  0  0  0  0
 13  2  2  0  0  0  0
 14  8  1  0  0  0  0
 15  1  1  0  0  0  0
 16  4  1  0  0  0  0
 17 18  2  0  0  0  0
 17  5  1  0  0  0  0
 18  6  1  0  0  0  0
 19 13  1  0  0  0  0
 19 10  2  0  0  0  0
 20  3  2  0  0  0  0
 20 21  1  0  0  0  0
 21 16  2  0  0  0  0
 23 22  1  6  0  0  0
 23 14  1  0  0  0  0
 24 31  1  0  0  0  0
 25 30  2  0  0  0  0
 27 24  1  0  0  0  0
 28 24  2  0  0  0  0
 28 25  1  0  0  0  0
 29 26  1  0  0  0  0
 30 29  1  0  0  0  0
 30 23  1  0  0  0  0
 31 29  2  0  0  0  0
M  END
>  <MODEL>
1

>  <REMARK>
 VINA RESULT:     -11.4      0.000      0.000
  Name = 
  2 active torsions:
  status: ('A' for Active; 'I' for Inactive)
    1  A    between atoms: C_5  and  N_16
    2  A    between atoms: C_5  and  C_30
                            x       y       z     vdW  Elec       q    Type
                         _______ _______ _______ _____ _____    ______ ____

>  <TORSDO>
F 2

$$$$
=
 OpenBabel11122411093D

 31 35  0  0  1  0  0  0  0  0999 V2000
  189.7290  177.1540  145.3000 C   0  0  0  0  0  0  0  0  0  0  0  0
  187.0490  178.2080  142.8750 C   0  0  0  0  0  0  0  0  0  0  0  0
  185.8610  178.4440  143.6330 C   0  0  0  0  0  0  0  0  0  0  0  0
  184.6230  178.5260  145.7400 C   0  0  0  0  0  0  0  0  0  0  0  0
  188.2980  177.7900  143.4270 C   0  0  0  0  0  0  0  0  0  0  0  0
  190.8030  176.9610  144.4330 C   0  0  0  0  0  3  0  0  0  0  0  0
  185.8020  178.2860  145.0300 C   0  0  0  0  0  3  0  0  0  0  0  0
  188.1040  178.1930  140.6640 C   0  0  0  0  0  0  0  0  0  0  0  0
  189.8870  176.9430  146.6290 F   0  0  0  0  0  0  0  0  0  0  0  0
  184.6840  179.0300  141.5910 C   0  0  0  0  0  3  0  0  0  0  0  0
  184.5970  178.3590  147.1180 O   0  0  0  0  0  1  0  0  0  0  0  0
  189.2720  177.7930  141.2260 N   0  0  0  0  0  0  0  0  0  0  0  0
  186.9760  178.4060  141.4660 C   0  0  0  0  0  0  0  0  0  0  0  0
  188.0220  178.3900  139.2480 N   0  0  0  0  0  2  0  0  0  0  0  0
  188.4920  177.5630  144.8010 C   0  0  0  0  0  3  0  0  0  0  0  0
  183.4720  178.9310  145.0660 C   0  0  0  0  0  3  0  0  0  0  0  0
  189.4010  177.5900  142.5580 C   0  0  0  0  0  0  0  0  0  0  0  0
  190.6390  177.1800  143.0640 C   0  0  0  0  0  3  0  0  0  0  0  0
  185.8140  178.8040  140.8810 N   0  0  0  0  0  0  0  0  0  0  0  0
  184.6800  178.8590  142.9680 C   0  0  0  0  0  0  0  0  0  0  0  0
  183.5010  179.0980  143.6810 C   0  0  0  0  0  3  0  0  0  0  0  0
  189.0720  179.1890  137.1900 C   0  0  0  0  0  1  0  0  0  0  0  0
  189.1610  178.2180  138.3560 C   0  0  2  0  0  3  0  0  0  0  0  0
  189.3380  174.1610  136.9380 C   0  0  0  0  0  0  0  0  0  0  0  0
  190.4130  176.0620  137.9790 C   0  0  0  0  0  3  0  0  0  0  0  0
  186.9390  176.9110  137.1560 F   0  0  0  0  0  0  0  0  0  0  0  0
  189.3910  172.8830  136.4910 F   0  0  0  0  0  0  0  0  0  0  0  0
  190.4670  174.7440  137.5180 C   0  0  0  0  0  3  0  0  0  0  0  0
  188.0970  176.2140  137.2790 C   0  0  0  0  0  0  0  0  0  0  0  0
  189.2280  176.8060  137.8630 C   0  0  0  0  0  0  0  0  0  0  0  0
  188.1550  174.8950  136.8190 C   0  0  0  0  0  3  0  0  0  0  0  0
  1  9  1  0  0  0  0
  2  5  1  0  0  0  0
  2  3  1  0  0  0  0
  3  7  1  0  0  0  0
  4 11  1  0  0  0  0
  5 15  2  0  0  0  0
  6  1  2  0  0  0  0
  7  4  2  0  0  0  0
  8 12  2  0  0  0  0
  8 13  1  0  0  0  0
 10 20  1  0  0  0  0
 12 17  1  0  0  0  0
 13  2  2  0  0  0  0
 14  8  1  0  0  0  0
 15  1  1  0  0  0  0
 16  4  1  0  0  0  0
 17 18  2  0  0  0  0
 17  5  1  0  0  0  0
 18  6  1  0  0  0  0
 19 13  1  0  0  0  0
 19 10  2  0  0  0  0
 20  3  2  0  0  0  0
 20 21  1  0  0  0  0
 21 16  2  0  0  0  0
 23 22  1  6  0  0  0
 23 14  1  0  0  0  0
 24 28  1  0  0  0  0
 26 29  1  0  0  0  0
 27 24  1  0  0  0  0
 28 25  2  0  0  0  0
 29 30  2  0  0  0  0
 30 25  1  0  0  0  0
 30 23  1  0  0  0  0
 31 24  2  0  0  0  0
 31 29  1  0  0  0  0
M  END
>  <MODEL>
2

>  <REMARK>
 VINA RESULT:     -11.1      0.858      1.222
  Name = 
  2 active torsions:
  status: ('A' for Active; 'I' for Inactive)
    1  A    between atoms: C_5  and  N_16
    2  A    between atoms: C_5  and  C_30
                            x       y       z     vdW  Elec       q    Type
                         _______ _______ _______ _____ _____    ______ ____

>  <TORSDO>
F 2

$$$$
=
 OpenBabel11122411093D

 31 35  0  0  1  0  0  0  0  0999 V2000
  190.8350  177.2730  141.7520 C   0  0  0  0  0  0  0  0  0  0  0  0
  187.4340  178.0540  143.1690 C   0  0  0  0  0  0  0  0  0  0  0  0
  187.5150  177.8780  144.5860 C   0  0  0  0  0  0  0  0  0  0  0  0
  188.7400  177.3200  146.6270 C   0  0  0  0  0  0  0  0  0  0  0  0
  188.5180  177.8550  142.2610 C   0  0  0  0  0  0  0  0  0  0  0  0
  190.6040  177.4830  140.3940 C   0  0  0  0  0  3  0  0  0  0  0  0
  188.6960  177.4820  145.2400 C   0  0  0  0  0  3  0  0  0  0  0  0
  186.0310  178.6490  141.2510 C   0  0  0  0  0  0  0  0  0  0  0  0
  192.0620  176.8900  142.1790 F   0  0  0  0  0  0  0  0  0  0  0  0
  185.1760  178.4990  144.7870 C   0  0  0  0  0  3  0  0  0  0  0  0
  189.9210  176.9280  147.2420 O   0  0  0  0  0  1  0  0  0  0  0  0
  187.0850  178.4480  140.4200 N   0  0  0  0  0  0  0  0  0  0  0  0
  186.1800  178.4580  142.6310 C   0  0  0  0  0  0  0  0  0  0  0  0
  184.7660  179.0520  140.7170 N   0  0  0  0  0  2  0  0  0  0  0  0
  189.8020  177.4580  142.6730 C   0  0  0  0  0  3  0  0  0  0  0  0
  187.5980  177.5490  147.3920 C   0  0  0  0  0  3  0  0  0  0  0  0
  188.3010  178.0650  140.8750 C   0  0  0  0  0  0  0  0  0  0  0  0
  189.3400  177.8790  139.9570 C   0  0  0  0  0  3  0  0  0  0  0  0
  185.1090  178.6630  143.4450 N   0  0  0  0  0  0  0  0  0  0  0  0
  186.3660  178.1070  145.3830 C   0  0  0  0  0  0  0  0  0  0  0  0
  186.4120  177.9430  146.7710 C   0  0  0  0  0  3  0  0  0  0  0  0
  183.2880  180.1280  139.0930 C   0  0  0  0  0  1  0  0  0  0  0  0
  184.5470  179.3010  139.2980 C   0  0  2  0  0  3  0  0  0  0  0  0
  184.2870  175.5860  137.1440 C   0  0  0  0  0  0  0  0  0  0  0  0
  183.4310  177.0870  138.8380 C   0  0  0  0  0  3  0  0  0  0  0  0
  186.3890  178.5750  137.2560 F   0  0  0  0  0  0  0  0  0  0  0  0
  184.2080  174.4170  136.4640 F   0  0  0  0  0  0  0  0  0  0  0  0
  183.3490  175.8810  138.1360 C   0  0  0  0  0  3  0  0  0  0  0  0
  185.3930  177.7040  137.5530 C   0  0  0  0  0  0  0  0  0  0  0  0
  184.4530  178.0060  138.5510 C   0  0  0  0  0  0  0  0  0  0  0  0
  185.3070  176.4960  136.8530 C   0  0  0  0  0  3  0  0  0  0  0  0
  1  9  1  0  0  0  0
  1 15  1  0  0  0  0
  2  3  1  0  0  0  0
  3  7  2  0  0  0  0
  3 20  1  0  0  0  0
  4 11  1  0  0  0  0
  4 16  2  0  0  0  0
  5 15  2  0  0  0  0
  5  2  1  0  0  0  0
  6  1  2  0  0  0  0
  7  4  1  0  0  0  0
  8 13  1  0  0  0  0
 10 20  1  0  0  0  0
 12 17  1  0  0  0  0
 12  8  2  0  0  0  0
 13  2  2  0  0  0  0
 13 19  1  0  0  0  0
 14  8  1  0  0  0  0
 17  5  1  0  0  0  0
 18  6  1  0  0  0  0
 18 17  2  0  0  0  0
 19 10  2  0  0  0  0
 20 21  2  0  0  0  0
 21 16  1  0  0  0  0
 23 22  1  1  0  0  0
 23 14  1  0  0  0  0
 24 28  1  0  0  0  0
 26 29  1  0  0  0  0
 27 24  1  0  0  0  0
 28 25  2  0  0  0  0
 29 30  2  0  0  0  0
 30 25  1  0  0  0  0
 30 23  1  0  0  0  0
 31 24  2  0  0  0  0
 31 29  1  0  0  0  0
M  END
>  <MODEL>
3

>  <REMARK>
 VINA RESULT:     -10.3      2.773      4.091
  Name = 
  2 active torsions:
  status: ('A' for Active; 'I' for Inactive)
    1  A    between atoms: C_5  and  N_16
    2  A    between atoms: C_5  and  C_30
                            x       y       z     vdW  Elec       q    Type
                         _______ _______ _______ _____ _____    ______ ____

>  <TORSDO>
F 2

$$$$
=
 OpenBabel11122411093D

 31 35  0  0  1  0  0  0  0  0999 V2000
  190.0610  177.0910  147.0980 C   0  0  0  0  0  0  0  0  0  0  0  0
  188.1040  177.6300  143.9260 C   0  0  0  0  0  0  0  0  0  0  0  0
  186.7870  178.0360  144.3060 C   0  0  0  0  0  0  0  0  0  0  0  0
  185.0920  178.5780  145.9820 C   0  0  0  0  0  0  0  0  0  0  0  0
  189.1580  177.3260  144.8410 C   0  0  0  0  0  0  0  0  0  0  0  0
  191.2960  176.7060  146.5790 C   0  0  0  0  0  3  0  0  0  0  0  0
  186.3880  178.1800  145.6470 C   0  0  0  0  0  3  0  0  0  0  0  0
  189.6510  177.1310  142.0930 C   0  0  0  0  0  0  0  0  0  0  0  0
  189.8850  177.1680  148.4390 F   0  0  0  0  0  0  0  0  0  0  0  0
  186.1680  178.1830  141.9620 C   0  0  0  0  0  3  0  0  0  0  0  0
  184.7300  178.7110  147.3150 O   0  0  0  0  0  1  0  0  0  0  0  0
  190.6250  176.8480  142.9940 N   0  0  0  0  0  0  0  0  0  0  0  0
  188.3800  177.5230  142.5340 C   0  0  0  0  0  0  0  0  0  0  0  0
  189.9200  177.0220  140.6910 N   0  0  0  0  0  2  0  0  0  0  0  0
  189.0060  177.3970  146.2370 C   0  0  0  0  0  3  0  0  0  0  0  0
  184.1620  178.8420  144.9770 C   0  0  0  0  0  3  0  0  0  0  0  0
  190.4200  176.9340  144.3300 C   0  0  0  0  0  0  0  0  0  0  0  0
  191.4750  176.6290  145.1970 C   0  0  0  0  0  3  0  0  0  0  0  0
  187.4180  177.7980  141.6130 N   0  0  0  0  0  0  0  0  0  0  0  0
  185.8260  178.3100  143.3000 C   0  0  0  0  0  0  0  0  0  0  0  0
  184.5290  178.7090  143.6380 C   0  0  0  0  0  3  0  0  0  0  0  0
  192.2450  177.7390  140.4580 C   0  0  0  0  0  1  0  0  0  0  0  0
  191.2250  176.6510  140.1610 C   0  0  2  0  0  3  0  0  0  0  0  0
  190.9820  175.9300  135.9270 C   0  0  0  0  0  0  0  0  0  0  0  0
  189.9550  176.6890  137.9830 C   0  0  0  0  0  3  0  0  0  0  0  0
  193.3920  175.5900  138.6540 F   0  0  0  0  0  0  0  0  0  0  0  0
  190.9080  175.7030  134.5940 F   0  0  0  0  0  0  0  0  0  0  0  0
  189.8790  176.4540  136.6070 C   0  0  0  0  0  3  0  0  0  0  0  0
  192.2400  175.8760  137.9970 C   0  0  0  0  0  0  0  0  0  0  0  0
  191.1360  176.4010  138.6870 C   0  0  0  0  0  0  0  0  0  0  0  0
  192.1600  175.6420  136.6210 C   0  0  0  0  0  3  0  0  0  0  0  0
  1  9  1  0  0  0  0
  2  3  1  0  0  0  0
  2  5  1  0  0  0  0
  3  7  1  0  0  0  0
  4 11  1  0  0  0  0
  5 15  1  0  0  0  0
  6  1  1  0  0  0  0
  7  4  2  0  0  0  0
  8 13  1  0  0  0  0
  8 12  2  0  0  0  0
 10 20  1  0  0  0  0
 12 17  1  0  0  0  0
 13  2  2  0  0  0  0
 14  8  1  0  0  0  0
 15  1  2  0  0  0  0
 16  4  1  0  0  0  0
 17  5  2  0  0  0  0
 17 18  1  0  0  0  0
 18  6  2  0  0  0  0
 19 10  2  0  0  0  0
 19 13  1  0  0  0  0
 20 21  1  0  0  0  0
 20  3  2  0  0  0  0
 21 16  2  0  0  0  0
 23 22  1  6  0  0  0
 23 14  1  0  0  0  0
 24 28  2  0  0  0  0
 24 31  1  0  0  0  0
 25 30  2  0  0  0  0
 27 24  1  0  0  0  0
 28 25  1  0  0  0  0
 29 26  1  0  0  0  0
 29 30  1  0  0  0  0
 30 23  1  0  0  0  0
 31 29  2  0  0  0  0
M  END
>  <MODEL>
4

>  <REMARK>
 VINA RESULT:     -10.3      1.624      2.176
  Name = 
  2 active torsions:
  status: ('A' for Active; 'I' for Inactive)
    1  A    between atoms: C_5  and  N_16
    2  A    between atoms: C_5  and  C_30
                            x       y       z     vdW  Elec       q    Type
                         _______ _______ _______ _____ _____    ______ ____

>  <TORSDO>
F 2

$$$$
=
 OpenBabel11122411093D

 31 35  0  0  1  0  0  0  0  0999 V2000
  184.4510  178.6280  144.5130 C   0  0  0  0  0  0  0  0  0  0  0  0
  188.0400  177.8170  143.7120 C   0  0  0  0  0  0  0  0  0  0  0  0
  188.6860  177.4940  144.9450 C   0  0  0  0  0  0  0  0  0  0  0  0
  188.6810  177.1810  147.3700 C   0  0  0  0  0  0  0  0  0  0  0  0
  186.6660  178.1840  143.5840 C   0  0  0  0  0  0  0  0  0  0  0  0
  183.9610  178.9190  143.2410 C   0  0  0  0  0  3  0  0  0  0  0  0
  188.0190  177.5030  146.1830 C   0  0  0  0  0  3  0  0  0  0  0  0
  188.2580  178.0750  141.2850 C   0  0  0  0  0  0  0  0  0  0  0  0
  183.6290  178.6980  145.5870 F   0  0  0  0  0  0  0  0  0  0  0  0
  190.7650  177.1190  143.7460 C   0  0  0  0  0  3  0  0  0  0  0  0
  187.9940  177.2000  148.5760 O   0  0  0  0  0  1  0  0  0  0  0  0
  186.9490  178.4210  141.2060 N   0  0  0  0  0  0  0  0  0  0  0  0
  188.8290  177.7700  142.5270 C   0  0  0  0  0  0  0  0  0  0  0  0
  189.0590  178.0270  140.0990 N   0  0  0  0  0  2  0  0  0  0  0  0
  185.7890  178.2650  144.6800 C   0  0  0  0  0  3  0  0  0  0  0  0
  190.0330  176.8410  147.3430 C   0  0  0  0  0  3  0  0  0  0  0  0
  186.1500  178.4820  142.2980 C   0  0  0  0  0  0  0  0  0  0  0  0
  184.8090  178.8450  142.1360 C   0  0  0  0  0  3  0  0  0  0  0  0
  190.1440  177.4280  142.5840 N   0  0  0  0  0  0  0  0  0  0  0  0
  190.0600  177.1440  144.9410 C   0  0  0  0  0  0  0  0  0  0  0  0
  190.7210  176.8220  146.1300 C   0  0  0  0  0  3  0  0  0  0  0  0
  187.0670  177.8780  138.6890 C   0  0  0  0  0  1  0  0  0  0  0  0
  188.5250  178.3010  138.7710 C   0  0  2  0  0  3  0  0  0  0  0  0
  190.8510  176.2800  135.7680 C   0  0  0  0  0  0  0  0  0  0  0  0
  190.3880  176.7410  138.0990 C   0  0  0  0  0  3  0  0  0  0  0  0
  188.0400  178.6080  135.9850 F   0  0  0  0  0  0  0  0  0  0  0  0
  191.5810  175.6450  134.8210 F   0  0  0  0  0  0  0  0  0  0  0  0
  191.1410  176.0850  137.1210 C   0  0  0  0  0  3  0  0  0  0  0  0
  189.0500  177.7880  136.3690 C   0  0  0  0  0  0  0  0  0  0  0  0
  189.3380  177.5960  137.7290 C   0  0  0  0  0  0  0  0  0  0  0  0
  189.8060  177.1300  135.3930 C   0  0  0  0  0  3  0  0  0  0  0  0
  1 15  1  0  0  0  0
  1  9  1  0  0  0  0
  2  3  1  0  0  0  0
  3  7  1  0  0  0  0
  4 11  1  0  0  0  0
  5  2  1  0  0  0  0
  5 15  2  0  0  0  0
  6  1  2  0  0  0  0
  7  4  2  0  0  0  0
  8 13  1  0  0  0  0
 10 20  1  0  0  0  0
 12  8  2  0  0  0  0
 12 17  1  0  0  0  0
 13 19  1  0  0  0  0
 13  2  2  0  0  0  0
 14  8  1  0  0  0  0
 16  4  1  0  0  0  0
 17  5  1  0  0  0  0
 18 17  2  0  0  0  0
 18  6  1  0  0  0  0
 19 10  2  0  0  0  0
 20  3  2  0  0  0  0
 20 21  1  0  0  0  0
 21 16  2  0  0  0  0
 23 22  1  1  0  0  0
 23 14  1  0  0  0  0
 24 28  1  0  0  0  0
 26 29  1  0  0  0  0
 27 24  1  0  0  0  0
 28 25  2  0  0  0  0
 29 30  2  0  0  0  0
 30 25  1  0  0  0  0
 30 23  1  0  0  0  0
 31 24  2  0  0  0  0
 31 29  1  0  0  0  0
M  END
>  <MODEL>
5

>  <REMARK>
 VINA RESULT:     -10.0      2.135      4.265
  Name = 
  2 active torsions:
  status: ('A' for Active; 'I' for Inactive)
    1  A    between atoms: C_5  and  N_16
    2  A    between atoms: C_5  and  C_30
                            x       y       z     vdW  Elec       q    Type
                         _______ _______ _______ _____ _____    ______ ____

>  <TORSDO>
F 2

$$$$
=
 OpenBabel11122411093D

 31 35  0  0  1  0  0  0  0  0999 V2000
  185.2550  178.3780  143.7470 C   0  0  0  0  0  0  0  0  0  0  0  0
  188.9050  177.5120  143.4170 C   0  0  0  0  0  0  0  0  0  0  0  0
  189.3990  177.2510  144.7330 C   0  0  0  0  0  0  0  0  0  0  0  0
  189.1060  177.0670  147.1530 C   0  0  0  0  0  0  0  0  0  0  0  0
  187.5580  177.8770  143.1100 C   0  0  0  0  0  0  0  0  0  0  0  0
  184.9200  178.6030  142.4140 C   0  0  0  0  0  3  0  0  0  0  0  0
  188.5900  177.3290  145.8820 C   0  0  0  0  0  3  0  0  0  0  0  0
  189.4080  177.6390  141.0230 C   0  0  0  0  0  0  0  0  0  0  0  0
  184.3140  178.5080  144.7130 F   0  0  0  0  0  0  0  0  0  0  0  0
  191.6000  176.8060  143.8090 C   0  0  0  0  0  3  0  0  0  0  0  0
  188.2820  177.1530  148.2680 O   0  0  0  0  0  1  0  0  0  0  0  0
  188.1200  177.9860  140.7720 N   0  0  0  0  0  0  0  0  0  0  0  0
  189.8260  177.3980  142.3380 C   0  0  0  0  0  0  0  0  0  0  0  0
  190.3420  177.5260  139.9440 N   0  0  0  0  0  2  0  0  0  0  0  0
  186.5600  178.0190  144.0900 C   0  0  0  0  0  3  0  0  0  0  0  0
  190.4480  176.7210  147.3040 C   0  0  0  0  0  3  0  0  0  0  0  0
  187.2000  178.1090  141.7580 C   0  0  0  0  0  0  0  0  0  0  0  0
  185.8910  178.4680  141.4210 C   0  0  0  0  0  3  0  0  0  0  0  0
  191.1230  177.0550  142.5670 N   0  0  0  0  0  0  0  0  0  0  0  0
  190.7590  176.8960  144.9090 C   0  0  0  0  0  0  0  0  0  0  0  0
  191.2740  176.6360  146.1830 C   0  0  0  0  0  3  0  0  0  0  0  0
  188.9380  178.8410  138.4340 C   0  0  0  0  0  1  0  0  0  0  0  0
  189.9700  177.7310  138.5500 C   0  0  2  0  0  3  0  0  0  0  0  0
  188.4710  174.0740  136.8510 C   0  0  0  0  0  0  0  0  0  0  0  0
  188.0780  176.3200  137.6620 C   0  0  0  0  0  3  0  0  0  0  0  0
  191.6430  175.5040  137.9730 F   0  0  0  0  0  0  0  0  0  0  0  0
  188.0020  172.9220  136.3160 F   0  0  0  0  0  0  0  0  0  0  0  0
  187.5950  175.1310  137.1100 C   0  0  0  0  0  3  0  0  0  0  0  0
  190.3190  175.3940  137.6960 C   0  0  0  0  0  0  0  0  0  0  0  0
  189.4440  176.4590  137.9590 C   0  0  0  0  0  0  0  0  0  0  0  0
  189.8320  174.2060  137.1440 C   0  0  0  0  0  3  0  0  0  0  0  0
  1 15  1  0  0  0  0
  1  9  1  0  0  0  0
  2  3  1  0  0  0  0
  3 20  2  0  0  0  0
  3  7  1  0  0  0  0
  4 16  1  0  0  0  0
  4 11  1  0  0  0  0
  5  2  1  0  0  0  0
  5 15  2  0  0  0  0
  6  1  2  0  0  0  0
  7  4  2  0  0  0  0
  8 13  1  0  0  0  0
 10 20  1  0  0  0  0
 12  8  2  0  0  0  0
 12 17  1  0  0  0  0
 13 19  1  0  0  0  0
 13  2  2  0  0  0  0
 14  8  1  0  0  0  0
 17  5  1  0  0  0  0
 18 17  2  0  0  0  0
 18  6  1  0  0  0  0
 19 10  2  0  0  0  0
 20 21  1  0  0  0  0
 21 16  2  0  0  0  0
 23 22  1  1  0  0  0
 23 14  1  0  0  0  0
 24 28  2  0  0  0  0
 24 31  1  0  0  0  0
 25 30  2  0  0  0  0
 27 24  1  0  0  0  0
 28 25  1  0  0  0  0
 29 30  1  0  0  0  0
 29 26  1  0  0  0  0
 30 23  1  0  0  0  0
 31 29  2  0  0  0  0
M  END
>  <MODEL>
6

>  <REMARK>
 VINA RESULT:     -10.0      1.739      4.036
  Name = 
  2 active torsions:
  status: ('A' for Active; 'I' for Inactive)
    1  A    between atoms: C_5  and  N_16
    2  A    between atoms: C_5  and  C_30
                            x       y       z     vdW  Elec       q    Type
                         _______ _______ _______ _____ _____    ______ ____

>  <TORSDO>
F 2

$$$$
=
 OpenBabel11122411093D

 31 35  0  0  1  0  0  0  0  0999 V2000
  191.3810  176.6320  145.0080 C   0  0  0  0  0  0  0  0  0  0  0  0
  188.0130  177.7620  143.7600 C   0  0  0  0  0  0  0  0  0  0  0  0
  187.2030  178.0260  144.9080 C   0  0  0  0  0  0  0  0  0  0  0  0
  186.8500  178.1330  147.3250 C   0  0  0  0  0  0  0  0  0  0  0  0
  189.3670  177.3100  143.8050 C   0  0  0  0  0  0  0  0  0  0  0  0
  192.0450  176.4150  143.8020 C   0  0  0  0  0  3  0  0  0  0  0  0
  187.6690  177.8650  146.2260 C   0  0  0  0  0  3  0  0  0  0  0  0
  188.1590  177.7260  141.3150 C   0  0  0  0  0  0  0  0  0  0  0  0
  192.0210  176.4140  146.1820 F   0  0  0  0  0  0  0  0  0  0  0  0
  185.3600  178.6480  143.4540 C   0  0  0  0  0  3  0  0  0  0  0  0
  187.3400  177.9630  148.6130 O   0  0  0  0  0  1  0  0  0  0  0  0
  189.4430  177.2950  141.4000 N   0  0  0  0  0  0  0  0  0  0  0  0
  187.4210  177.9660  142.4810 C   0  0  0  0  0  0  0  0  0  0  0  0
  187.5560  177.9300  140.0330 N   0  0  0  0  0  2  0  0  0  0  0  0
  190.0570  177.0750  145.0070 C   0  0  0  0  0  3  0  0  0  0  0  0
  185.5410  178.5700  147.1300 C   0  0  0  0  0  3  0  0  0  0  0  0
  190.0570  177.0850  142.5880 C   0  0  0  0  0  0  0  0  0  0  0  0
  191.3840  176.6420  142.5940 C   0  0  0  0  0  3  0  0  0  0  0  0
  186.1350  178.3950  142.3730 N   0  0  0  0  0  0  0  0  0  0  0  0
  185.8690  178.4730  144.7320 C   0  0  0  0  0  0  0  0  0  0  0  0
  185.0510  178.7400  145.8350 C   0  0  0  0  0  3  0  0  0  0  0  0
  189.0710  178.9760  138.4240 C   0  0  0  0  0  1  0  0  0  0  0  0
  188.2720  177.7320  138.7790 C   0  0  2  0  0  3  0  0  0  0  0  0
  185.5280  176.7450  135.6160 C   0  0  0  0  0  0  0  0  0  0  0  0
  185.9710  177.7970  137.7500 C   0  0  0  0  0  3  0  0  0  0  0  0
  189.0480  176.2530  136.4770 F   0  0  0  0  0  0  0  0  0  0  0  0
  184.6670  176.4340  134.6190 F   0  0  0  0  0  0  0  0  0  0  0  0
  185.0830  177.4760  136.7210 C   0  0  0  0  0  3  0  0  0  0  0  0
  187.7550  176.6570  136.5680 C   0  0  0  0  0  0  0  0  0  0  0  0
  187.3130  177.3900  137.6810 C   0  0  0  0  0  0  0  0  0  0  0  0
  186.8630  176.3370  135.5400 C   0  0  0  0  0  3  0  0  0  0  0  0
  1  9  1  0  0  0  0
  2  5  1  0  0  0  0
  2  3  1  0  0  0  0
  3  7  1  0  0  0  0
  4 11  1  0  0  0  0
  5 15  2  0  0  0  0
  6  1  2  0  0  0  0
  7  4  2  0  0  0  0
  8 12  2  0  0  0  0
  8 13  1  0  0  0  0
 10 20  1  0  0  0  0
 12 17  1  0  0  0  0
 13  2  2  0  0  0  0
 14  8  1  0  0  0  0
 15  1  1  0  0  0  0
 16  4  1  0  0  0  0
 17 18  2  0  0  0  0
 17  5  1  0  0  0  0
 18  6  1  0  0  0  0
 19 13  1  0  0  0  0
 19 10  2  0  0  0  0
 20  3  2  0  0  0  0
 20 21  1  0  0  0  0
 21 16  2  0  0  0  0
 23 22  1  6  0  0  0
 23 14  1  0  0  0  0
 24 28  1  0  0  0  0
 26 29  1  0  0  0  0
 27 24  1  0  0  0  0
 28 25  2  0  0  0  0
 29 30  2  0  0  0  0
 30 25  1  0  0  0  0
 30 23  1  0  0  0  0
 31 24  2  0  0  0  0
 31 29  1  0  0  0  0
M  END
>  <MODEL>
7

>  <REMARK>
 VINA RESULT:      -9.9      2.018      2.564
  Name = 
  2 active torsions:
  status: ('A' for Active; 'I' for Inactive)
    1  A    between atoms: C_5  and  N_16
    2  A    between atoms: C_5  and  C_30
                            x       y       z     vdW  Elec       q    Type
                         _______ _______ _______ _____ _____    ______ ____

>  <TORSDO>
F 2

$$$$
=
 OpenBabel11122411093D

 31 35  0  0  1  0  0  0  0  0999 V2000
  190.2890  177.4840  140.8350 C   0  0  0  0  0  0  0  0  0  0  0  0
  186.9870  178.1350  142.5230 C   0  0  0  0  0  0  0  0  0  0  0  0
  187.1780  177.9220  143.9230 C   0  0  0  0  0  0  0  0  0  0  0  0
  188.5660  177.3420  145.8510 C   0  0  0  0  0  0  0  0  0  0  0  0
  188.0030  177.9900  141.5310 C   0  0  0  0  0  0  0  0  0  0  0  0
  189.9520  177.7240  139.5040 C   0  0  0  0  0  3  0  0  0  0  0  0
  188.4140  177.5410  144.4770 C   0  0  0  0  0  3  0  0  0  0  0  0
  185.4290  178.7440  140.7330 C   0  0  0  0  0  0  0  0  0  0  0  0
  191.5540  177.1230  141.1570 F   0  0  0  0  0  0  0  0  0  0  0  0
  184.8460  178.4740  144.3170 C   0  0  0  0  0  3  0  0  0  0  0  0
  189.7990  176.9660  146.3650 O   0  0  0  0  0  1  0  0  0  0  0  0
  186.4220  178.5930  139.8200 N   0  0  0  0  0  0  0  0  0  0  0  0
  185.6850  178.5190  142.0910 C   0  0  0  0  0  0  0  0  0  0  0  0
  184.1170  179.1260  140.3060 N   0  0  0  0  0  2  0  0  0  0  0  0
  189.3240  177.6160  141.8350 C   0  0  0  0  0  3  0  0  0  0  0  0
  187.4790  177.5200  146.7060 C   0  0  0  0  0  3  0  0  0  0  0  0
  187.6780  178.2310  140.1720 C   0  0  0  0  0  0  0  0  0  0  0  0
  188.6490  178.0980  139.1740 C   0  0  0  0  0  3  0  0  0  0  0  0
  184.6750  178.6730  142.9890 N   0  0  0  0  0  0  0  0  0  0  0  0
  186.0870  178.0990  144.8100 C   0  0  0  0  0  0  0  0  0  0  0  0
  186.2410  177.8980  146.1860 C   0  0  0  0  0  3  0  0  0  0  0  0
  182.7970  180.5590  138.8280 C   0  0  0  0  0  1  0  0  0  0  0  0
  183.7860  179.4080  138.9150 C   0  0  2  0  0  3  0  0  0  0  0  0
  182.1960  175.8930  137.0110 C   0  0  0  0  0  0  0  0  0  0  0  0
  181.9310  177.7380  138.5540 C   0  0  0  0  0  3  0  0  0  0  0  0
  185.2630  177.8830  137.0210 F   0  0  0  0  0  0  0  0  0  0  0  0
  181.6980  174.7860  136.4100 F   0  0  0  0  0  0  0  0  0  0  0  0
  181.4170  176.5970  137.9330 C   0  0  0  0  0  3  0  0  0  0  0  0
  184.0060  177.4730  137.3280 C   0  0  0  0  0  0  0  0  0  0  0  0
  183.2290  178.1840  138.2550 C   0  0  0  0  0  0  0  0  0  0  0  0
  183.4890  176.3310  136.7090 C   0  0  0  0  0  3  0  0  0  0  0  0
  1  9  1  0  0  0  0
  1 15  1  0  0  0  0
  2  3  1  0  0  0  0
  3  7  2  0  0  0  0
  3 20  1  0  0  0  0
  4 11  1  0  0  0  0
  4 16  2  0  0  0  0
  5 15  2  0  0  0  0
  5  2  1  0  0  0  0
  6  1  2  0  0  0  0
  7  4  1  0  0  0  0
  8 13  1  0  0  0  0
 10 20  1  0  0  0  0
 12 17  1  0  0  0  0
 12  8  2  0  0  0  0
 13  2  2  0  0  0  0
 13 19  1  0  0  0  0
 14  8  1  0  0  0  0
 17  5  1  0  0  0  0
 18  6  1  0  0  0  0
 18 17  2  0  0  0  0
 19 10  2  0  0  0  0
 20 21  2  0  0  0  0
 21 16  1  0  0  0  0
 23 22  1  1  0  0  0
 23 14  1  0  0  0  0
 24 28  1  0  0  0  0
 26 29  1  0  0  0  0
 27 24  1  0  0  0  0
 28 25  2  0  0  0  0
 29 30  2  0  0  0  0
 30 25  1  0  0  0  0
 30 23  1  0  0  0  0
 31 24  2  0  0  0  0
 31 29  1  0  0  0  0
M  END
>  <MODEL>
8

>  <REMARK>
 VINA RESULT:      -9.9      3.281      4.839
  Name = 
  2 active torsions:
  status: ('A' for Active; 'I' for Inactive)
    1  A    between atoms: C_5  and  N_16
    2  A    between atoms: C_5  and  C_30
                            x       y       z     vdW  Elec       q    Type
                         _______ _______ _______ _____ _____    ______ ____

>  <TORSDO>
F 2

$$$$
=
 OpenBabel11122411093D

 31 35  0  0  1  0  0  0  0  0999 V2000
  184.6450  178.4840  145.8110 C   0  0  0  0  0  0  0  0  0  0  0  0
  187.2580  178.0590  143.1330 C   0  0  0  0  0  0  0  0  0  0  0  0
  188.4890  177.7450  143.7880 C   0  0  0  0  0  0  0  0  0  0  0  0
  189.8230  177.3260  145.7930 C   0  0  0  0  0  0  0  0  0  0  0  0
  186.0180  178.2970  143.8000 C   0  0  0  0  0  0  0  0  0  0  0  0
  183.5260  178.7830  145.0370 C   0  0  0  0  0  3  0  0  0  0  0  0
  188.6040  177.6350  145.1860 C   0  0  0  0  0  3  0  0  0  0  0  0
  186.1040  178.4440  141.0060 C   0  0  0  0  0  0  0  0  0  0  0  0
  184.5390  178.4270  147.1600 F   0  0  0  0  0  0  0  0  0  0  0  0
  189.5960  177.6260  141.6300 C   0  0  0  0  0  3  0  0  0  0  0  0
  189.9040  177.2250  147.1760 O   0  0  0  0  0  1  0  0  0  0  0  0
  184.9450  178.6650  141.6770 N   0  0  0  0  0  0  0  0  0  0  0  0
  187.2750  178.1400  141.7110 C   0  0  0  0  0  0  0  0  0  0  0  0
  186.1300  178.5270  139.5770 N   0  0  0  0  0  2  0  0  0  0  0  0
  185.8760  178.2440  145.1970 C   0  0  0  0  0  3  0  0  0  0  0  0
  190.9590  177.1190  145.0120 C   0  0  0  0  0  3  0  0  0  0  0  0
  184.8680  178.6010  143.0270 C   0  0  0  0  0  0  0  0  0  0  0  0
  183.6370  178.8400  143.6470 C   0  0  0  0  0  3  0  0  0  0  0  0
  188.4260  177.9250  141.0190 N   0  0  0  0  0  0  0  0  0  0  0  0
  189.6550  177.5300  143.0130 C   0  0  0  0  0  0  0  0  0  0  0  0
  190.8750  177.2210  143.6240 C   0  0  0  0  0  3  0  0  0  0  0  0
  184.0130  179.7480  139.5220 C   0  0  0  0  0  1  0  0  0  0  0  0
  184.9450  178.8060  138.7770 C   0  0  2  0  0  3  0  0  0  0  0  0
  182.9230  175.1440  137.7700 C   0  0  0  0  0  0  0  0  0  0  0  0
  183.1450  177.0900  139.1920 C   0  0  0  0  0  3  0  0  0  0  0  0
  185.7230  177.1730  136.5820 F   0  0  0  0  0  0  0  0  0  0  0  0
  182.2880  173.9920  137.4510 F   0  0  0  0  0  0  0  0  0  0  0  0
  182.4900  175.9010  138.8620 C   0  0  0  0  0  3  0  0  0  0  0  0
  184.6690  176.7680  137.3350 C   0  0  0  0  0  0  0  0  0  0  0  0
  184.2390  177.5310  138.4310 C   0  0  0  0  0  0  0  0  0  0  0  0
  184.0110  175.5780  137.0070 C   0  0  0  0  0  3  0  0  0  0  0  0
  1  9  1  0  0  0  0
  2  3  1  0  0  0  0
  2  5  1  0  0  0  0
  3  7  1  0  0  0  0
  4 11  1  0  0  0  0
  5 15  2  0  0  0  0
  6  1  2  0  0  0  0
  7  4  2  0  0  0  0
  8 12  2  0  0  0  0
  8 13  1  0  0  0  0
 10 20  1  0  0  0  0
 12 17  1  0  0  0  0
 13  2  2  0  0  0  0
 14  8  1  0  0  0  0
 15  1  1  0  0  0  0
 16  4  1  0  0  0  0
 17 18  2  0  0  0  0
 17  5  1  0  0  0  0
 18  6  1  0  0  0  0
 19 10  2  0  0  0  0
 19 13  1  0  0  0  0
 20 21  1  0  0  0  0
 20  3  2  0  0  0  0
 21 16  2  0  0  0  0
 23 22  1  1  0  0  0
 23 14  1  0  0  0  0
 24 28  1  0  0  0  0
 26 29  1  0  0  0  0
 27 24  1  0  0  0  0
 28 25  2  0  0  0  0
 29 30  2  0  0  0  0
 30 23  1  0  0  0  0
 30 25  1  0  0  0  0
 31 29  1  0  0  0  0
 31 24  2  0  0  0  0
M  END
>  <MODEL>
9

>  <REMARK>
 VINA RESULT:      -9.5      3.051      5.178
  Name = 
  2 active torsions:
  status: ('A' for Active; 'I' for Inactive)
    1  A    between atoms: C_5  and  N_16
    2  A    between atoms: C_5  and  C_30
                            x       y       z     vdW  Elec       q    Type
                         _______ _______ _______ _____ _____    ______ ____

>  <TORSDO>
F 2

$$$$
