=
 OpenBabel11122411183D

 31 35  0  0  1  0  0  0  0  0999 V2000
  193.2950  175.1980  136.5250 C   0  0  0  0  0  0  0  0  0  0  0  0
  189.8740  176.8470  136.8060 C   0  0  2  0  0  3  0  0  0  0  0  0
  188.8260  175.7540  136.8450 C   0  0  0  0  0  0  0  0  0  0  0  0
  188.0840  173.4440  136.5290 C   0  0  0  0  0  0  0  0  0  0  0  0
  191.2740  176.3860  137.1500 C   0  0  0  0  0  0  0  0  0  0  0  0
  193.8790  175.5400  137.7470 C   0  0  0  0  0  3  0  0  0  0  0  0
  189.1200  174.4900  136.5100 C   0  0  0  0  0  3  0  0  0  0  0  0
  189.8150  177.8830  139.1590 C   0  0  1  0  0  3  0  0  0  0  0  0
  194.0540  174.3800  135.5430 C   0  0  0  0  0  1  0  0  0  0  0  0
  187.0850  177.3270  137.4840 N   0  0  0  0  0  0  0  0  0  0  0  0
  188.3770  172.2590  136.2230 O   0  0  0  0  0  0  0  0  0  0  0  0
  191.1960  177.5540  139.2960 O   0  0  0  0  0  0  0  0  0  0  0  0
  189.4580  178.0540  137.6700 C   0  0  2  0  0  3  0  0  0  0  0  0
  191.9990  175.6240  136.2260 C   0  0  0  0  0  3  0  0  0  0  0  0
  186.7050  173.7900  136.9100 C   0  0  0  0  0  3  0  0  0  0  0  0
  191.8720  176.7410  138.3770 C   0  0  0  0  0  0  0  0  0  0  0  0
  193.1710  176.3150  138.6700 C   0  0  0  0  0  3  0  0  0  0  0  0
  188.0050  178.4660  137.4170 C   0  0  0  0  0  2  0  0  0  0  0  0
  187.4180  176.1080  137.1800 C   0  0  0  0  0  0  0  0  0  0  0  0
  186.3920  175.0500  137.2190 C   0  0  0  0  0  3  0  0  0  0  0  0
  188.9570  176.8380  139.8670 C   0  0  0  0  0  2  0  0  0  0  0  0
  188.6560  178.8620  141.3090 C   0  0  0  0  0  1  0  0  0  0  0  0
  188.4440  177.3620  141.2040 C   0  0  2  0  0  3  0  0  0  0  0  0
  188.5000  177.5120  145.0190 C   0  0  0  0  0  0  0  0  0  0  0  0
  188.1420  175.9440  143.2210 O   0  0  0  0  0  0  0  0  0  0  0  0
  191.1880  177.8770  142.7170 C   0  0  0  0  0  2  0  0  0  0  0  0
  188.1340  177.8770  146.3440 N   0  0  0  0  0  1  0  0  0  0  0  0
  187.5030  176.8280  144.1250 C   0  0  0  0  0  2  0  0  0  0  0  0
  190.0160  177.5060  143.2110 C   0  0  0  0  0  0  0  0  0  0  0  0
  189.0750  176.6450  142.4070 C   0  0  2  0  0  3  0  0  0  0  0  0
  189.6570  177.8590  144.5480 N   0  0  0  0  0  0  0  0  0  0  0  0
  1  6  1  0  0  0  0
  2  3  1  1  0  0  0
  2  5  1  0  0  0  0
  2 13  1  0  0  0  0
  3 19  1  0  0  0  0
  4 15  1  0  0  0  0
  5 16  2  0  0  0  0
  6 17  2  0  0  0  0
  7  4  1  0  0  0  0
  7  3  2  0  0  0  0
  8 12  1  0  0  0  0
  8 21  1  6  0  0  0
  9  1  1  0  0  0  0
 11  4  2  0  0  0  0
 13 18  1  1  0  0  0
 13  8  1  0  0  0  0
 14  1  2  0  0  0  0
 14  5  1  0  0  0  0
 15 20  2  0  0  0  0
 16 17  1  0  0  0  0
 16 12  1  0  0  0  0
 18 10  1  0  0  0  0
 19 20  1  0  0  0  0
 19 10  2  0  0  0  0
 21 23  1  0  0  0  0
 23 22  1  1  0  0  0
 24 27  1  0  0  0  0
 25 28  1  0  0  0  0
 26 29  2  0  0  0  0
 28 24  1  0  0  0  0
 29 31  1  0  0  0  0
 30 23  1  6  0  0  0
 30 29  1  0  0  0  0
 30 25  1  0  0  0  0
 31 24  2  0  0  0  0
M  END
>  <MODEL>
1

>  <REMARK>
 VINA RESULT:      -7.1      0.000      0.000
  Name = 
  3 active torsions:
  status: ('A' for Active; 'I' for Inactive)
    1  A    between atoms: C_5  and  C_16
    2  A    between atoms: C_5  and  C_30
    3  A    between atoms: C_10  and  C_16
                            x       y       z     vdW  Elec       q    Type
                         _______ _______ _______ _____ _____    ______ ____

>  <TORSDO>
F 3

$$$$
=
 OpenBabel11122411183D

 31 35  0  0  1  0  0  0  0  0999 V2000
  180.7160  181.2590  136.0280 C   0  0  0  0  0  0  0  0  0  0  0  0
  180.9480  178.0450  138.0580 C   0  0  2  0  0  3  0  0  0  0  0  0
  182.1790  177.2890  137.6040 C   0  0  0  0  0  0  0  0  0  0  0  0
  184.0000  176.8490  136.0300 C   0  0  0  0  0  0  0  0  0  0  0  0
  180.9470  179.5160  137.7000 C   0  0  0  0  0  0  0  0  0  0  0  0
  180.9140  182.2330  137.0090 C   0  0  0  0  0  3  0  0  0  0  0  0
  182.8200  177.6110  136.4710 C   0  0  0  0  0  3  0  0  0  0  0  0
  181.5010  178.7990  140.4540 C   0  0  1  0  0  3  0  0  0  0  0  0
  180.4910  181.6630  134.6150 C   0  0  0  0  0  1  0  0  0  0  0  0
  182.0270  175.7430  139.4750 N   0  0  0  0  0  0  0  0  0  0  0  0
  184.5990  177.1700  134.9700 O   0  0  0  0  0  0  0  0  0  0  0  0
  181.2960  180.1470  140.0360 O   0  0  0  0  0  0  0  0  0  0  0  0
  180.6880  177.8410  139.5640 C   0  0  2  0  0  3  0  0  0  0  0  0
  180.7270  179.9060  136.3730 C   0  0  0  0  0  3  0  0  0  0  0  0
  184.4780  175.7130  136.8350 C   0  0  0  0  0  3  0  0  0  0  0  0
  181.1340  180.5030  138.6910 C   0  0  0  0  0  0  0  0  0  0  0  0
  181.1180  181.8560  138.3390 C   0  0  0  0  0  3  0  0  0  0  0  0
  180.7950  176.3670  139.9670 C   0  0  0  0  0  2  0  0  0  0  0  0
  182.6370  176.1060  138.3860 C   0  0  0  0  0  0  0  0  0  0  0  0
  183.8330  175.3640  137.9490 C   0  0  0  0  0  3  0  0  0  0  0  0
  182.9940  178.4800  140.4740 C   0  0  0  0  0  2  0  0  0  0  0  0
  182.4270  178.7240  142.9000 C   0  0  0  0  0  1  0  0  0  0  0  0
  183.5080  178.3440  141.9030 C   0  0  2  0  0  3  0  0  0  0  0  0
  187.2810  178.1510  141.3470 C   0  0  0  0  0  0  0  0  0  0  0  0
  185.4160  179.6350  140.9760 O   0  0  0  0  0  0  0  0  0  0  0  0
  185.4690  178.3940  144.4000 C   0  0  0  0  0  2  0  0  0  0  0  0
  188.5330  177.6960  140.8490 N   0  0  0  0  0  1  0  0  0  0  0  0
  186.2190  178.6240  140.3930 C   0  0  0  0  0  2  0  0  0  0  0  0
  185.7520  178.5030  143.1100 C   0  0  0  0  0  0  0  0  0  0  0  0
  184.7840  179.1590  142.1580 C   0  0  2  0  0  3  0  0  0  0  0  0
  187.0170  178.0620  142.6130 N   0  0  0  0  0  0  0  0  0  0  0  0
  1 14  2  0  0  0  0
  1  6  1  0  0  0  0
  2  3  1  1  0  0  0
  2 13  1  0  0  0  0
  3 19  1  0  0  0  0
  4  7  1  0  0  0  0
  4 15  1  0  0  0  0
  5  2  1  0  0  0  0
  5 16  2  0  0  0  0
  6 17  2  0  0  0  0
  7  3  2  0  0  0  0
  8 21  1  6  0  0  0
  9  1  1  0  0  0  0
 10 18  1  0  0  0  0
 11  4  2  0  0  0  0
 12  8  1  0  0  0  0
 13 18  1  1  0  0  0
 13  8  1  0  0  0  0
 14  5  1  0  0  0  0
 15 20  2  0  0  0  0
 16 12  1  0  0  0  0
 17 16  1  0  0  0  0
 19 10  2  0  0  0  0
 20 19  1  0  0  0  0
 21 23  1  0  0  0  0
 23 22  1  1  0  0  0
 24 31  2  0  0  0  0
 25 30  1  0  0  0  0
 27 24  1  0  0  0  0
 28 25  1  0  0  0  0
 28 24  1  0  0  0  0
 29 26  2  0  0  0  0
 30 23  1  6  0  0  0
 30 29  1  0  0  0  0
 31 29  1  0  0  0  0
M  END
>  <MODEL>
2

>  <REMARK>
 VINA RESULT:      -6.8      5.671      8.312
  Name = 
  3 active torsions:
  status: ('A' for Active; 'I' for Inactive)
    1  A    between atoms: C_5  and  C_16
    2  A    between atoms: C_5  and  C_30
    3  A    between atoms: C_10  and  C_16
                            x       y       z     vdW  Elec       q    Type
                         _______ _______ _______ _____ _____    ______ ____

>  <TORSDO>
F 3

$$$$
=
 OpenBabel11122411183D

 31 35  0  0  1  0  0  0  0  0999 V2000
  184.6680  175.8940  135.7750 C   0  0  0  0  0  0  0  0  0  0  0  0
  182.6690  178.3080  137.9400 C   0  0  2  0  0  3  0  0  0  0  0  0
  181.7390  177.4950  138.8160 C   0  0  0  0  0  0  0  0  0  0  0  0
  180.5750  175.4280  139.4180 C   0  0  0  0  0  0  0  0  0  0  0  0
  183.8310  177.5270  137.3640 C   0  0  0  0  0  0  0  0  0  0  0  0
  185.9650  176.0840  136.2570 C   0  0  0  0  0  3  0  0  0  0  0  0
  181.5030  176.1980  138.5720 C   0  0  0  0  0  3  0  0  0  0  0  0
  184.3770  179.3200  139.5750 C   0  0  1  0  0  3  0  0  0  0  0  0
  184.4180  174.9240  134.6780 C   0  0  0  0  0  1  0  0  0  0  0  0
  181.1830  179.4340  140.1740 N   0  0  0  0  0  0  0  0  0  0  0  0
  180.3720  174.2090  139.1840 O   0  0  0  0  0  0  0  0  0  0  0  0
  185.4110  178.6720  138.8360 O   0  0  0  0  0  0  0  0  0  0  0  0
  183.1600  179.5760  138.6670 C   0  0  2  0  0  3  0  0  0  0  0  0
  183.6060  176.6170  136.3230 C   0  0  0  0  0  3  0  0  0  0  0  0
  179.8910  176.0910  140.5410 C   0  0  0  0  0  3  0  0  0  0  0  0
  185.1440  177.7250  137.8390 C   0  0  0  0  0  0  0  0  0  0  0  0
  186.2040  177.0010  137.2840 C   0  0  0  0  0  3  0  0  0  0  0  0
  182.0110  180.3220  139.3530 C   0  0  0  0  0  2  0  0  0  0  0  0
  181.0040  178.1720  139.9210 C   0  0  0  0  0  0  0  0  0  0  0  0
  180.0960  177.3880  140.7770 C   0  0  0  0  0  3  0  0  0  0  0  0
  184.0370  178.5060  140.8210 C   0  0  0  0  0  2  0  0  0  0  0  0
  186.2220  179.3840  141.6700 C   0  0  0  0  0  1  0  0  0  0  0  0
  184.7940  179.0240  142.0390 C   0  0  2  0  0  3  0  0  0  0  0  0
  185.3750  178.9360  145.8120 C   0  0  0  0  0  0  0  0  0  0  0  0
  183.7420  178.2800  144.1630 O   0  0  0  0  0  0  0  0  0  0  0  0
  187.0890  177.1830  143.2340 C   0  0  0  0  0  2  0  0  0  0  0  0
  185.5740  179.4020  147.1410 N   0  0  0  0  0  1  0  0  0  0  0  0
  184.1200  179.3010  145.0680 C   0  0  0  0  0  2  0  0  0  0  0  0
  186.1210  177.8310  143.8660 C   0  0  0  0  0  0  0  0  0  0  0  0
  184.7760  178.0370  143.2160 C   0  0  2  0  0  3  0  0  0  0  0  0
  186.3170  178.2830  145.2070 N   0  0  0  0  0  0  0  0  0  0  0  0
  1  6  2  0  0  0  0
  1 14  1  0  0  0  0
  2  5  1  1  0  0  0
  2 13  1  0  0  0  0
  2  3  1  0  0  0  0
  3 19  1  0  0  0  0
  4 15  1  0  0  0  0
  5 16  1  0  0  0  0
  6 17  1  0  0  0  0
  7  3  2  0  0  0  0
  7  4  1  0  0  0  0
  8 21  1  1  0  0  0
  9  1  1  0  0  0  0
 11  4  2  0  0  0  0
 12  8  1  0  0  0  0
 13 18  1  1  0  0  0
 13  8  1  0  0  0  0
 14  5  2  0  0  0  0
 15 20  2  0  0  0  0
 16 12  1  0  0  0  0
 17 16  2  0  0  0  0
 18 10  1  0  0  0  0
 19 10  2  0  0  0  0
 19 20  1  0  0  0  0
 21 23  1  0  0  0  0
 23 22  1  6  0  0  0
 24 27  1  0  0  0  0
 25 28  1  0  0  0  0
 26 29  2  0  0  0  0
 28 24  1  0  0  0  0
 29 31  1  0  0  0  0
 30 23  1  6  0  0  0
 30 29  1  0  0  0  0
 30 25  1  0  0  0  0
 31 24  2  0  0  0  0
M  END
>  <MODEL>
3

>  <REMARK>
 VINA RESULT:      -6.6      4.765      6.578
  Name = 
  3 active torsions:
  status: ('A' for Active; 'I' for Inactive)
    1  A    between atoms: C_5  and  C_16
    2  A    between atoms: C_5  and  C_30
    3  A    between atoms: C_10  and  C_16
                            x       y       z     vdW  Elec       q    Type
                         _______ _______ _______ _____ _____    ______ ____

>  <TORSDO>
F 3

$$$$
=
 OpenBabel11122411183D

 31 35  0  0  1  0  0  0  0  0999 V2000
  190.3320  176.3140  142.5150 C   0  0  0  0  0  0  0  0  0  0  0  0
  189.8650  177.9230  139.0940 C   0  0  2  0  0  3  0  0  0  0  0  0
  189.9850  176.8380  138.0440 C   0  0  0  0  0  0  0  0  0  0  0  0
  190.6220  174.5950  137.3000 C   0  0  0  0  0  0  0  0  0  0  0  0
  189.5720  177.4140  140.4890 C   0  0  0  0  0  0  0  0  0  0  0  0
  189.0690  176.4850  143.0870 C   0  0  0  0  0  3  0  0  0  0  0  0
  190.4870  175.6300  138.3390 C   0  0  0  0  0  3  0  0  0  0  0  0
  187.3930  178.6280  139.0130 C   0  0  1  0  0  3  0  0  0  0  0  0
  191.4090  175.6350  143.2820 C   0  0  0  0  0  1  0  0  0  0  0  0
  189.1570  178.3160  136.2990 N   0  0  0  0  0  0  0  0  0  0  0  0
  191.0840  173.4620  137.5930 O   0  0  0  0  0  0  0  0  0  0  0  0
  187.2880  178.2780  140.3920 O   0  0  0  0  0  0  0  0  0  0  0  0
  188.8480  179.0010  138.6730 C   0  0  2  0  0  3  0  0  0  0  0  0
  190.5840  176.7820  141.2230 C   0  0  0  0  0  3  0  0  0  0  0  0
  190.2110  174.8910  135.9170 C   0  0  0  0  0  3  0  0  0  0  0  0
  188.3020  177.5960  141.0750 C   0  0  0  0  0  0  0  0  0  0  0  0
  188.0570  177.1280  142.3700 C   0  0  0  0  0  3  0  0  0  0  0  0
  189.0580  179.4490  137.2230 C   0  0  0  0  0  2  0  0  0  0  0  0
  189.6210  177.1480  136.6330 C   0  0  0  0  0  0  0  0  0  0  0  0
  189.7370  176.0990  135.6040 C   0  0  0  0  0  3  0  0  0  0  0  0
  186.8430  177.4990  138.1450 C   0  0  0  0  0  2  0  0  0  0  0  0
  184.4370  177.7850  138.7720 C   0  0  0  0  0  1  0  0  0  0  0  0
  185.4440  177.8280  137.6360 C   0  0  2  0  0  3  0  0  0  0  0  0
  186.3250  174.4780  136.0300 C   0  0  0  0  0  0  0  0  0  0  0  0
  184.4290  175.6800  136.9120 O   0  0  0  0  0  0  0  0  0  0  0  0
  186.3480  177.7330  134.5940 C   0  0  0  0  0  2  0  0  0  0  0  0
  186.9220  173.1990  135.8570 N   0  0  0  0  0  1  0  0  0  0  0  0
  185.4430  174.7410  137.2190 C   0  0  0  0  0  2  0  0  0  0  0  0
  186.0320  176.7340  135.4050 C   0  0  0  0  0  0  0  0  0  0  0  0
  184.9970  176.9140  136.4870 C   0  0  2  0  0  3  0  0  0  0  0  0
  186.6200  175.4450  135.2190 N   0  0  0  0  0  0  0  0  0  0  0  0
  1  6  1  0  0  0  0
  1  9  1  0  0  0  0
  2  3  1  6  0  0  0
  2  5  1  0  0  0  0
  3  7  2  0  0  0  0
  4 11  2  0  0  0  0
  4  7  1  0  0  0  0
  5 16  2  0  0  0  0
  5 14  1  0  0  0  0
  8 21  1  6  0  0  0
  8 12  1  0  0  0  0
 10 19  2  0  0  0  0
 10 18  1  0  0  0  0
 12 16  1  0  0  0  0
 13 18  1  6  0  0  0
 13  8  1  0  0  0  0
 13  2  1  0  0  0  0
 14  1  2  0  0  0  0
 15  4  1  0  0  0  0
 16 17  1  0  0  0  0
 17  6  2  0  0  0  0
 19  3  1  0  0  0  0
 20 15  2  0  0  0  0
 20 19  1  0  0  0  0
 23 21  1  0  0  0  0
 23 22  1  1  0  0  0
 24 28  1  0  0  0  0
 25 28  1  0  0  0  0
 26 29  2  0  0  0  0
 27 24  1  0  0  0  0
 29 30  1  0  0  0  0
 30 25  1  0  0  0  0
 30 23  1  1  0  0  0
 31 29  1  0  0  0  0
 31 24  2  0  0  0  0
M  END
>  <MODEL>
4

>  <REMARK>
 VINA RESULT:      -6.3      3.146      5.934
  Name = 
  3 active torsions:
  status: ('A' for Active; 'I' for Inactive)
    1  A    between atoms: C_5  and  C_16
    2  A    between atoms: C_5  and  C_30
    3  A    between atoms: C_10  and  C_16
                            x       y       z     vdW  Elec       q    Type
                         _______ _______ _______ _____ _____    ______ ____

>  <TORSDO>
F 3

$$$$
=
 OpenBabel11122411183D

 31 35  0  0  1  0  0  0  0  0999 V2000
  190.1420  177.7450  140.8540 C   0  0  0  0  0  0  0  0  0  0  0  0
  188.5540  177.8820  137.3940 C   0  0  2  0  0  3  0  0  0  0  0  0
  188.6140  176.4930  136.7930 C   0  0  0  0  0  0  0  0  0  0  0  0
  189.4580  174.1970  136.7090 C   0  0  0  0  0  0  0  0  0  0  0  0
  188.7150  177.9220  138.8990 C   0  0  0  0  0  0  0  0  0  0  0  0
  189.0490  178.0160  141.6810 C   0  0  0  0  0  3  0  0  0  0  0  0
  189.3900  175.5350  137.3210 C   0  0  0  0  0  3  0  0  0  0  0  0
  186.0510  178.2950  137.8160 C   0  0  1  0  0  3  0  0  0  0  0  0
  191.4820  177.5030  141.4490 C   0  0  0  0  0  1  0  0  0  0  0  0
  187.1200  177.1180  134.9800 N   0  0  0  0  0  0  0  0  0  0  0  0
  190.1820  173.3050  137.2210 O   0  0  0  0  0  0  0  0  0  0  0  0
  186.3560  178.4900  139.1970 O   0  0  0  0  0  0  0  0  0  0  0  0
  187.2810  178.6300  136.9520 C   0  0  2  0  0  3  0  0  0  0  0  0
  189.9760  177.7040  139.4670 C   0  0  0  0  0  3  0  0  0  0  0  0
  188.6710  173.9080  135.4990 C   0  0  0  0  0  3  0  0  0  0  0  0
  187.6160  178.2080  139.7370 C   0  0  0  0  0  0  0  0  0  0  0  0
  187.7900  178.2510  141.1240 C   0  0  0  0  0  3  0  0  0  0  0  0
  187.0400  178.5060  135.4440 C   0  0  0  0  0  2  0  0  0  0  0  0
  187.8620  176.2090  135.5390 C   0  0  0  0  0  0  0  0  0  0  0  0
  187.9170  174.8610  134.9470 C   0  0  0  0  0  3  0  0  0  0  0  0
  185.5270  176.8790  137.5940 C   0  0  0  0  0  2  0  0  0  0  0  0
  183.4460  178.2710  137.5980 C   0  0  0  0  0  1  0  0  0  0  0  0
  184.0040  176.8590  137.5370 C   0  0  2  0  0  3  0  0  0  0  0  0
  180.5870  175.9540  138.9830 C   0  0  0  0  0  0  0  0  0  0  0  0
  182.5920  174.9080  138.1440 O   0  0  0  0  0  0  0  0  0  0  0  0
  183.3630  177.5030  140.5800 C   0  0  0  0  0  2  0  0  0  0  0  0
  179.1730  175.8510  139.0980 N   0  0  0  0  0  1  0  0  0  0  0  0
  181.2910  175.3490  137.7990 C   0  0  0  0  0  2  0  0  0  0  0  0
  182.6760  176.7700  139.7170 C   0  0  0  0  0  0  0  0  0  0  0  0
  183.3770  175.9870  138.6350 C   0  0  2  0  0  3  0  0  0  0  0  0
  181.2580  176.6540  139.8440 N   0  0  0  0  0  0  0  0  0  0  0  0
  1  9  1  0  0  0  0
  1  6  1  0  0  0  0
  2  3  1  1  0  0  0
  2  5  1  0  0  0  0
  3  7  2  0  0  0  0
  4 11  2  0  0  0  0
  4  7  1  0  0  0  0
  5 14  1  0  0  0  0
  5 16  2  0  0  0  0
  8 21  1  1  0  0  0
  8 12  1  0  0  0  0
 10 18  1  0  0  0  0
 10 19  2  0  0  0  0
 12 16  1  0  0  0  0
 13 18  1  6  0  0  0
 13  2  1  0  0  0  0
 13  8  1  0  0  0  0
 14  1  2  0  0  0  0
 15  4  1  0  0  0  0
 16 17  1  0  0  0  0
 17  6  2  0  0  0  0
 19  3  1  0  0  0  0
 20 15  2  0  0  0  0
 20 19  1  0  0  0  0
 23 21  1  0  0  0  0
 23 22  1  1  0  0  0
 24 27  1  0  0  0  0
 24 31  2  0  0  0  0
 25 30  1  0  0  0  0
 28 25  1  0  0  0  0
 28 24  1  0  0  0  0
 29 31  1  0  0  0  0
 29 26  2  0  0  0  0
 30 23  1  6  0  0  0
 30 29  1  0  0  0  0
M  END
>  <MODEL>
5

>  <REMARK>
 VINA RESULT:      -6.3      3.527      5.826
  Name = 
  3 active torsions:
  status: ('A' for Active; 'I' for Inactive)
    1  A    between atoms: C_5  and  C_16
    2  A    between atoms: C_5  and  C_30
    3  A    between atoms: C_10  and  C_16
                            x       y       z     vdW  Elec       q    Type
                         _______ _______ _______ _____ _____    ______ ____

>  <TORSDO>
F 3

$$$$
=
 OpenBabel11122411183D

 31 35  0  0  1  0  0  0  0  0999 V2000
  183.5600  178.1780  139.6570 C   0  0  0  0  0  0  0  0  0  0  0  0
  187.0560  178.5640  138.1960 C   0  0  2  0  0  3  0  0  0  0  0  0
  188.0550  178.1100  139.2400 C   0  0  0  0  0  0  0  0  0  0  0  0
  188.6880  177.5160  141.5280 C   0  0  0  0  0  0  0  0  0  0  0  0
  185.6450  178.0640  138.4200 C   0  0  0  0  0  0  0  0  0  0  0  0
  183.0180  177.1800  138.8430 C   0  0  0  0  0  3  0  0  0  0  0  0
  187.6980  177.9320  140.5200 C   0  0  0  0  0  3  0  0  0  0  0  0
  187.2110  176.7900  136.3400 C   0  0  1  0  0  3  0  0  0  0  0  0
  182.7450  178.7680  140.7510 C   0  0  0  0  0  1  0  0  0  0  0  0
  189.8770  178.1320  137.6300 N   0  0  0  0  0  0  0  0  0  0  0  0
  188.3370  177.3420  142.7230 O   0  0  0  0  0  0  0  0  0  0  0  0
  185.8200  176.5330  136.5230 O   0  0  0  0  0  0  0  0  0  0  0  0
  187.5420  178.2310  136.7720 C   0  0  2  0  0  3  0  0  0  0  0  0
  184.8670  178.6220  139.4420 C   0  0  0  0  0  3  0  0  0  0  0  0
  190.0890  177.3020  141.1290 C   0  0  0  0  0  3  0  0  0  0  0  0
  185.0890  177.0660  137.5920 C   0  0  0  0  0  0  0  0  0  0  0  0
  183.7790  176.6280  137.8100 C   0  0  0  0  0  3  0  0  0  0  0  0
  189.0070  178.6280  136.5600 C   0  0  0  0  0  2  0  0  0  0  0  0
  189.4840  177.9420  138.8540 C   0  0  0  0  0  0  0  0  0  0  0  0
  190.4640  177.5030  139.8650 C   0  0  0  0  0  3  0  0  0  0  0  0
  188.0380  175.7380  137.0740 C   0  0  0  0  0  2  0  0  0  0  0  0
  188.0100  174.2850  135.0350 C   0  0  0  0  0  1  0  0  0  0  0  0
  188.8840  174.9260  136.0990 C   0  0  2  0  0  3  0  0  0  0  0  0
  192.5440  174.1250  136.8380 C   0  0  0  0  0  0  0  0  0  0  0  0
  190.4190  174.3330  137.9600 O   0  0  0  0  0  0  0  0  0  0  0  0
  190.1590  172.2370  134.9930 C   0  0  0  0  0  2  0  0  0  0  0  0
  193.9500  174.3030  136.9520 N   0  0  0  0  0  1  0  0  0  0  0  0
  191.6090  175.0160  137.6080 C   0  0  0  0  0  2  0  0  0  0  0  0
  190.6530  173.0990  135.8690 C   0  0  0  0  0  0  0  0  0  0  0  0
  189.7450  173.8630  136.7990 C   0  0  2  0  0  3  0  0  0  0  0  0
  192.0660  173.2640  135.9950 N   0  0  0  0  0  0  0  0  0  0  0  0
  1  9  1  0  0  0  0
  2  5  1  1  0  0  0
  2  3  1  0  0  0  0
  3  7  2  0  0  0  0
  4 11  2  0  0  0  0
  5 14  2  0  0  0  0
  6  1  2  0  0  0  0
  7  4  1  0  0  0  0
  8 12  1  0  0  0  0
  8 13  1  0  0  0  0
  8 21  1  1  0  0  0
 10 19  2  0  0  0  0
 12 16  1  0  0  0  0
 13 18  1  1  0  0  0
 13  2  1  0  0  0  0
 14  1  1  0  0  0  0
 15  4  1  0  0  0  0
 16 17  2  0  0  0  0
 16  5  1  0  0  0  0
 17  6  1  0  0  0  0
 18 10  1  0  0  0  0
 19  3  1  0  0  0  0
 19 20  1  0  0  0  0
 20 15  2  0  0  0  0
 23 22  1  6  0  0  0
 23 21  1  0  0  0  0
 24 27  1  0  0  0  0
 24 28  1  0  0  0  0
 26 29  2  0  0  0  0
 28 25  1  0  0  0  0
 29 31  1  0  0  0  0
 29 30  1  0  0  0  0
 30 23  1  6  0  0  0
 30 25  1  0  0  0  0
 31 24  2  0  0  0  0
M  END
>  <MODEL>
6

>  <REMARK>
 VINA RESULT:      -6.1      3.088      7.411
  Name = 
  3 active torsions:
  status: ('A' for Active; 'I' for Inactive)
    1  A    between atoms: C_5  and  C_16
    2  A    between atoms: C_5  and  C_30
    3  A    between atoms: C_10  and  C_16
                            x       y       z     vdW  Elec       q    Type
                         _______ _______ _______ _____ _____    ______ ____

>  <TORSDO>
F 3

$$$$
=
 OpenBabel11122411183D

 31 35  0  0  1  0  0  0  0  0999 V2000
  190.1430  177.5350  140.6900 C   0  0  0  0  0  0  0  0  0  0  0  0
  188.5260  177.7270  137.2470 C   0  0  2  0  0  3  0  0  0  0  0  0
  188.4280  176.3210  136.6940 C   0  0  0  0  0  0  0  0  0  0  0  0
  189.0210  173.9460  136.6790 C   0  0  0  0  0  0  0  0  0  0  0  0
  188.7130  177.7990  138.7470 C   0  0  0  0  0  0  0  0  0  0  0  0
  189.0980  177.9480  141.5210 C   0  0  0  0  0  3  0  0  0  0  0  0
  189.1060  175.3030  137.2450 C   0  0  0  0  0  3  0  0  0  0  0  0
  186.0880  178.4200  137.6840 C   0  0  1  0  0  3  0  0  0  0  0  0
  191.4590  177.1700  141.2780 C   0  0  0  0  0  1  0  0  0  0  0  0
  186.9820  177.0430  134.8780 N   0  0  0  0  0  0  0  0  0  0  0  0
  189.6530  172.9990  137.2120 O   0  0  0  0  0  0  0  0  0  0  0  0
  186.4330  178.6270  139.0530 O   0  0  0  0  0  0  0  0  0  0  0  0
  187.3340  178.5920  136.7940 C   0  0  2  0  0  3  0  0  0  0  0  0
  189.9520  177.4670  139.3080 C   0  0  0  0  0  3  0  0  0  0  0  0
  188.1890  173.7030  135.4880 C   0  0  0  0  0  3  0  0  0  0  0  0
  187.6650  178.2290  139.5880 C   0  0  0  0  0  0  0  0  0  0  0  0
  187.8630  178.2990  140.9710 C   0  0  0  0  0  3  0  0  0  0  0  0
  187.0580  178.4460  135.2950 C   0  0  0  0  0  2  0  0  0  0  0  0
  187.6310  176.0780  135.4590 C   0  0  0  0  0  0  0  0  0  0  0  0
  187.5330  174.7130  134.9130 C   0  0  0  0  0  3  0  0  0  0  0  0
  185.4130  177.0620  137.5160 C   0  0  0  0  0  2  0  0  0  0  0  0
  183.5470  177.2840  139.1710 C   0  0  0  0  0  1  0  0  0  0  0  0
  183.9030  177.1730  137.6990 C   0  0  2  0  0  3  0  0  0  0  0  0
  184.4250  173.5530  136.5980 C   0  0  0  0  0  0  0  0  0  0  0  0
  182.9170  174.9030  137.9110 O   0  0  0  0  0  0  0  0  0  0  0  0
  183.5340  176.3890  134.6430 C   0  0  0  0  0  2  0  0  0  0  0  0
  185.0370  172.2770  136.4630 N   0  0  0  0  0  1  0  0  0  0  0  0
  184.0630  174.0720  137.9620 C   0  0  0  0  0  2  0  0  0  0  0  0
  183.6720  175.6010  135.6990 C   0  0  0  0  0  0  0  0  0  0  0  0
  183.1370  176.0120  137.0470 C   0  0  2  0  0  3  0  0  0  0  0  0
  184.2710  174.3120  135.5580 N   0  0  0  0  0  0  0  0  0  0  0  0
  1  9  1  0  0  0  0
  1  6  1  0  0  0  0
  2  3  1  1  0  0  0
  2  5  1  0  0  0  0
  3  7  2  0  0  0  0
  4 11  2  0  0  0  0
  4  7  1  0  0  0  0
  5 14  1  0  0  0  0
  5 16  2  0  0  0  0
  8 21  1  1  0  0  0
  8 12  1  0  0  0  0
 10 18  1  0  0  0  0
 10 19  2  0  0  0  0
 12 16  1  0  0  0  0
 13 18  1  6  0  0  0
 13  2  1  0  0  0  0
 13  8  1  0  0  0  0
 14  1  2  0  0  0  0
 15  4  1  0  0  0  0
 16 17  1  0  0  0  0
 17  6  2  0  0  0  0
 19  3  1  0  0  0  0
 20 19  1  0  0  0  0
 20 15  2  0  0  0  0
 21 23  1  0  0  0  0
 23 22  1  1  0  0  0
 24 28  1  0  0  0  0
 25 28  1  0  0  0  0
 26 29  2  0  0  0  0
 27 24  1  0  0  0  0
 29 30  1  0  0  0  0
 30 23  1  1  0  0  0
 30 25  1  0  0  0  0
 31 29  1  0  0  0  0
 31 24  2  0  0  0  0
M  END
>  <MODEL>
7

>  <REMARK>
 VINA RESULT:      -6.0      3.794      6.075
  Name = 
  3 active torsions:
  status: ('A' for Active; 'I' for Inactive)
    1  A    between atoms: C_5  and  C_16
    2  A    between atoms: C_5  and  C_30
    3  A    between atoms: C_10  and  C_16
                            x       y       z     vdW  Elec       q    Type
                         _______ _______ _______ _____ _____    ______ ____

>  <TORSDO>
F 3

$$$$
=
 OpenBabel11122411183D

 31 35  0  0  1  0  0  0  0  0999 V2000
  190.1640  177.7560  141.0140 C   0  0  0  0  0  0  0  0  0  0  0  0
  188.6900  177.9480  137.5080 C   0  0  2  0  0  3  0  0  0  0  0  0
  188.7730  176.5700  136.8860 C   0  0  0  0  0  0  0  0  0  0  0  0
  189.6250  174.2780  136.7900 C   0  0  0  0  0  0  0  0  0  0  0  0
  188.8010  177.9630  139.0170 C   0  0  0  0  0  0  0  0  0  0  0  0
  189.0450  178.0100  141.8100 C   0  0  0  0  0  3  0  0  0  0  0  0
  189.5340  175.6050  137.4220 C   0  0  0  0  0  3  0  0  0  0  0  0
  186.1730  178.3490  137.8550 C   0  0  1  0  0  3  0  0  0  0  0  0
  191.4850  177.5060  141.6490 C   0  0  0  0  0  1  0  0  0  0  0  0
  187.3370  177.2230  135.0350 N   0  0  0  0  0  0  0  0  0  0  0  0
  190.3340  173.3780  137.3100 O   0  0  0  0  0  0  0  0  0  0  0  0
  186.4320  178.5210  139.2470 O   0  0  0  0  0  0  0  0  0  0  0  0
  187.4300  178.7010  137.0370 C   0  0  2  0  0  3  0  0  0  0  0  0
  190.0440  177.7380  139.6230 C   0  0  0  0  0  3  0  0  0  0  0  0
  188.8790  174.0080  135.5500 C   0  0  0  0  0  3  0  0  0  0  0  0
  187.6750  178.2320  139.8240 C   0  0  0  0  0  0  0  0  0  0  0  0
  187.8030  178.2520  141.2160 C   0  0  0  0  0  3  0  0  0  0  0  0
  187.2390  178.6030  135.5200 C   0  0  0  0  0  2  0  0  0  0  0  0
  188.0640  176.3060  135.6030 C   0  0  0  0  0  0  0  0  0  0  0  0
  188.1410  174.9680  134.9900 C   0  0  0  0  0  3  0  0  0  0  0  0
  185.6600  176.9360  137.5910 C   0  0  0  0  0  2  0  0  0  0  0  0
  183.4060  176.8740  138.6770 C   0  0  0  0  0  1  0  0  0  0  0  0
  184.1540  176.9330  137.3570 C   0  0  2  0  0  3  0  0  0  0  0  0
  181.1690  174.6190  136.7900 C   0  0  0  0  0  0  0  0  0  0  0  0
  182.6030  176.1400  135.5860 O   0  0  0  0  0  0  0  0  0  0  0  0
  184.5360  173.7890  137.5870 C   0  0  0  0  0  2  0  0  0  0  0  0
  179.8540  174.0900  136.9010 N   0  0  0  0  0  1  0  0  0  0  0  0
  181.3760  176.0200  136.2830 C   0  0  0  0  0  2  0  0  0  0  0  0
  183.5000  174.4750  137.1260 C   0  0  0  0  0  0  0  0  0  0  0  0
  183.6970  175.7980  136.4290 C   0  0  2  0  0  3  0  0  0  0  0  0
  182.1810  173.9340  137.2220 N   0  0  0  0  0  0  0  0  0  0  0  0
  1  9  1  0  0  0  0
  1  6  1  0  0  0  0
  2  3  1  1  0  0  0
  2  5  1  0  0  0  0
  3  7  2  0  0  0  0
  4 11  2  0  0  0  0
  4  7  1  0  0  0  0
  5 14  1  0  0  0  0
  5 16  2  0  0  0  0
  8 21  1  1  0  0  0
  8 12  1  0  0  0  0
 10 18  1  0  0  0  0
 10 19  2  0  0  0  0
 12 16  1  0  0  0  0
 13 18  1  6  0  0  0
 13  2  1  0  0  0  0
 13  8  1  0  0  0  0
 14  1  2  0  0  0  0
 15  4  1  0  0  0  0
 16 17  1  0  0  0  0
 17  6  2  0  0  0  0
 19  3  1  0  0  0  0
 20 15  2  0  0  0  0
 20 19  1  0  0  0  0
 23 21  1  0  0  0  0
 23 22  1  1  0  0  0
 24 27  1  0  0  0  0
 24 31  2  0  0  0  0
 25 28  1  0  0  0  0
 25 30  1  0  0  0  0
 28 24  1  0  0  0  0
 29 31  1  0  0  0  0
 29 26  2  0  0  0  0
 30 29  1  0  0  0  0
 30 23  1  1  0  0  0
M  END
>  <MODEL>
8

>  <REMARK>
 VINA RESULT:      -6.0      3.670      6.377
  Name = 
  3 active torsions:
  status: ('A' for Active; 'I' for Inactive)
    1  A    between atoms: C_5  and  C_16
    2  A    between atoms: C_5  and  C_30
    3  A    between atoms: C_10  and  C_16
                            x       y       z     vdW  Elec       q    Type
                         _______ _______ _______ _____ _____    ______ ____

>  <TORSDO>
F 3

$$$$
=
 OpenBabel11122411183D

 31 35  0  0  1  0  0  0  0  0999 V2000
  179.8180  178.5090  143.0270 C   0  0  0  0  0  0  0  0  0  0  0  0
  182.7270  179.3810  140.7270 C   0  0  2  0  0  3  0  0  0  0  0  0
  184.0100  178.9560  141.4100 C   0  0  0  0  0  0  0  0  0  0  0  0
  185.3010  178.2550  143.3670 C   0  0  0  0  0  0  0  0  0  0  0  0
  181.4790  178.7170  141.2690 C   0  0  0  0  0  0  0  0  0  0  0  0
  179.1550  177.5260  142.2890 C   0  0  0  0  0  3  0  0  0  0  0  0
  184.0390  178.6400  142.7130 C   0  0  0  0  0  3  0  0  0  0  0  0
  182.5030  177.7860  138.7220 C   0  0  1  0  0  3  0  0  0  0  0  0
  179.2950  178.9200  144.3550 C   0  0  0  0  0  1  0  0  0  0  0  0
  185.3050  179.2990  139.3800 N   0  0  0  0  0  0  0  0  0  0  0  0
  185.3110  177.9500  144.5880 O   0  0  0  0  0  0  0  0  0  0  0  0
  181.2440  177.3670  139.2450 O   0  0  0  0  0  0  0  0  0  0  0  0
  182.8230  179.2150  139.1980 C   0  0  2  0  0  3  0  0  0  0  0  0
  180.9730  179.1060  142.5160 C   0  0  0  0  0  3  0  0  0  0  0  0
  186.5480  178.2230  142.5860 C   0  0  0  0  0  3  0  0  0  0  0  0
  180.7980  177.7340  140.5210 C   0  0  0  0  0  0  0  0  0  0  0  0
  179.6410  177.1420  141.0360 C   0  0  0  0  0  3  0  0  0  0  0  0
  184.1340  179.7820  138.6430 C   0  0  0  0  0  2  0  0  0  0  0  0
  185.2850  178.9730  140.6380 C   0  0  0  0  0  0  0  0  0  0  0  0
  186.5390  178.5620  141.2950 C   0  0  0  0  0  3  0  0  0  0  0  0
  183.5840  176.7730  139.0910 C   0  0  0  0  0  2  0  0  0  0  0  0
  183.4890  176.5840  136.5970 C   0  0  0  0  0  1  0  0  0  0  0  0
  184.0050  175.9520  137.8780 C   0  0  2  0  0  3  0  0  0  0  0  0
  183.9380  172.7650  135.7750 C   0  0  0  0  0  0  0  0  0  0  0  0
  184.6370  173.5510  137.9450 O   0  0  0  0  0  0  0  0  0  0  0  0
  181.2250  174.5790  137.1920 C   0  0  0  0  0  2  0  0  0  0  0  0
  184.2170  171.8660  134.7090 N   0  0  0  0  0  1  0  0  0  0  0  0
  185.0610  173.3060  136.6160 C   0  0  0  0  0  2  0  0  0  0  0  0
  182.4540  174.1160  137.0160 C   0  0  0  0  0  0  0  0  0  0  0  0
  183.5630  174.4840  137.9680 C   0  0  2  0  0  3  0  0  0  0  0  0
  182.7290  173.1980  135.9560 N   0  0  0  0  0  0  0  0  0  0  0  0
  1  9  1  0  0  0  0
  2  5  1  1  0  0  0
  2  3  1  0  0  0  0
  3  7  2  0  0  0  0
  4 11  2  0  0  0  0
  5 14  2  0  0  0  0
  6  1  2  0  0  0  0
  7  4  1  0  0  0  0
  8 21  1  1  0  0  0
  8 13  1  0  0  0  0
  8 12  1  0  0  0  0
 10 19  2  0  0  0  0
 12 16  1  0  0  0  0
 13 18  1  1  0  0  0
 13  2  1  0  0  0  0
 14  1  1  0  0  0  0
 15  4  1  0  0  0  0
 16 17  2  0  0  0  0
 16  5  1  0  0  0  0
 17  6  1  0  0  0  0
 18 10  1  0  0  0  0
 19 20  1  0  0  0  0
 19  3  1  0  0  0  0
 20 15  2  0  0  0  0
 23 22  1  6  0  0  0
 23 21  1  0  0  0  0
 24 31  2  0  0  0  0
 24 28  1  0  0  0  0
 25 30  1  0  0  0  0
 27 24  1  0  0  0  0
 28 25  1  0  0  0  0
 29 26  2  0  0  0  0
 29 30  1  0  0  0  0
 30 23  1  6  0  0  0
 31 29  1  0  0  0  0
M  END
>  <MODEL>
9

>  <REMARK>
 VINA RESULT:      -5.9      5.354     10.053
  Name = 
  3 active torsions:
  status: ('A' for Active; 'I' for Inactive)
    1  A    between atoms: C_5  and  C_16
    2  A    between atoms: C_5  and  C_30
    3  A    between atoms: C_10  and  C_16
                            x       y       z     vdW  Elec       q    Type
                         _______ _______ _______ _____ _____    ______ ____

>  <TORSDO>
F 3

$$$$
