=
 OpenBabel11122412023D

 34 41  0  0  1  0  0  0  0  0999 V2000
  186.1600  178.2780  143.0370 C   0  0  1  0  0  3  0  0  0  0  0  0
  185.7160  178.6200  140.7250 C   0  0  0  0  0  2  0  0  0  0  0  0
  190.2490  177.5670  148.1640 C   0  0  0  0  0  0  0  0  0  0  0  0
  186.6580  177.4900  145.3570 C   0  0  2  0  0  3  0  0  0  0  0  0
  189.1450  177.5140  146.0500 C   0  0  1  0  0  3  0  0  0  0  0  0
  191.4060  176.7180  146.7530 C   0  0  0  0  0  2  0  0  0  0  0  0
  191.6710  177.3920  147.9720 O   0  0  0  0  0  0  0  0  0  0  0  0
  188.0850  178.4790  148.8100 C   0  0  0  0  0  3  0  0  0  0  0  0
  187.9690  178.2600  141.3310 C   0  0  1  0  0  3  0  0  0  0  0  0
  190.2890  177.3930  139.3890 C   0  0  0  0  0  2  0  0  0  0  0  0
  189.3450  177.1260  144.6020 C   0  0  0  0  0  3  0  0  0  0  0  0
  187.3120  178.1230  147.7630 C   0  0  0  0  0  3  0  0  0  0  0  0
  188.5760  177.1480  142.2190 C   0  0  2  0  0  3  0  0  0  0  0  0
  186.4780  178.3870  139.4470 C   0  0  0  0  0  2  0  0  0  0  0  0
  187.6790  177.3470  146.5130 C   0  0  1  0  0  3  0  0  0  0  0  0
  189.5020  178.2730  148.9580 N   0  0  0  0  0  0  0  0  0  0  0  0
  188.9390  178.0240  138.9850 C   0  0  1  0  0  3  0  0  0  0  0  0
  187.2200  178.2410  144.1380 C   0  0  1  0  0  3  0  0  0  0  0  0
  189.9960  176.6950  146.9970 C   0  0  1  0  0  3  0  0  0  0  0  0
  188.4640  177.5390  143.6740 C   0  0  0  0  0  0  0  0  0  0  0  0
  184.7640  179.1510  145.0380 C   0  0  0  0  0  2  0  0  0  0  0  0
  190.1600  176.2730  140.4180 C   0  0  0  0  0  2  0  0  0  0  0  0
  185.2130  177.8690  145.7380 C   0  0  0  0  0  2  0  0  0  0  0  0
  190.0300  176.8590  141.8230 C   0  0  0  0  0  2  0  0  0  0  0  0
  187.7520  177.7460  139.9220 C   0  0  1  0  0  3  0  0  0  0  0  0
  184.9120  179.0510  143.5090 C   0  0  0  0  0  2  0  0  0  0  0  0
  186.6910  178.8590  141.7960 N   0  0  2  0  0  0  0  0  0  0  0  0
  189.0210  179.3630  138.5310 O   0  0  0  0  0  0  0  0  0  0  0  0
  189.0060  179.3900  137.1230 C   0  0  0  0  0  2  0  0  0  0  0  0
  187.7300  177.3080  134.5940 C   0  0  0  0  0  2  0  0  0  0  0  0
  189.6400  177.2670  135.9790 C   0  0  0  0  0  2  0  0  0  0  0  0
  188.4980  178.0710  136.5570 C   0  0  2  0  0  3  0  0  0  0  0  0
  189.1930  176.9310  134.5940 C   0  0  0  0  0  2  0  0  0  0  0  0
  187.5270  178.3010  135.5660 O   0  0  0  0  0  0  0  0  0  0  0  0
  1 26  1  1  0  0  0
  1 18  1  0  0  0  0
  2 27  1  0  0  0  0
  3 16  2  0  0  0  0
  4 23  1  1  0  0  0
  4 15  1  0  0  0  0
  5 11  1  6  0  0  0
  5 15  1  0  0  0  0
  5 19  1  0  0  0  0
  6 19  1  0  0  0  0
  6  7  1  0  0  0  0
  7  3  1  0  0  0  0
  8 16  1  0  0  0  0
  9 27  1  0  0  0  0
  9 13  1  0  0  0  0
 10 22  1  0  0  0  0
 12  8  2  0  0  0  0
 13 20  1  0  0  0  0
 14 25  1  0  0  0  0
 14  2  1  0  0  0  0
 15 12  1  0  0  0  0
 17 10  1  0  0  0  0
 17 25  1  0  0  0  0
 18  4  1  0  0  0  0
 19  3  1  0  0  0  0
 20 18  1  0  0  0  0
 20 11  2  0  0  0  0
 21 23  1  0  0  0  0
 22 24  1  0  0  0  0
 24 13  1  0  0  0  0
 25  9  1  0  0  0  0
 26 21  1  0  0  0  0
 27  1  1  0  0  0  0
 28 17  1  0  0  0  0
 29 28  1  0  0  0  0
 30 34  1  0  0  0  0
 31 32  1  0  0  0  0
 32 29  1  0  0  0  0
 33 30  1  0  0  0  0
 33 31  1  0  0  0  0
 34 32  1  0  0  0  0
M  END
>  <MODEL>
1

>  <REMARK>
 VINA RESULT:     -10.5      0.000      0.000
  Name = 
  3 active torsions:
  status: ('A' for Active; 'I' for Inactive)
    1  A    between atoms: C_17  and  O_28
    2  A    between atoms: O_28  and  C_29
    3  A    between atoms: C_29  and  C_32
                            x       y       z     vdW  Elec       q    Type
                         _______ _______ _______ _____ _____    ______ ____

>  <TORSDO>
F 3

$$$$
=
 OpenBabel11122412023D

 34 41  0  0  1  0  0  0  0  0999 V2000
  184.2020  178.4540  144.5880 C   0  0  1  0  0  3  0  0  0  0  0  0
  181.8970  179.0000  144.3720 C   0  0  0  0  0  2  0  0  0  0  0  0
  190.3200  177.8580  142.1940 C   0  0  0  0  0  0  0  0  0  0  0  0
  186.5050  177.4820  144.6620 C   0  0  2  0  0  3  0  0  0  0  0  0
  187.9640  177.8720  142.5670 C   0  0  1  0  0  3  0  0  0  0  0  0
  189.3080  177.4210  140.5110 C   0  0  0  0  0  2  0  0  0  0  0  0
  190.5860  177.9710  140.7780 O   0  0  0  0  0  0  0  0  0  0  0  0
  190.2880  178.2680  144.5950 C   0  0  0  0  0  3  0  0  0  0  0  0
  183.1740  178.9840  142.3860 C   0  0  1  0  0  3  0  0  0  0  0  0
  182.0350  178.8090  139.4580 C   0  0  0  0  0  2  0  0  0  0  0  0
  186.6370  177.7140  141.8590 C   0  0  0  0  0  3  0  0  0  0  0  0
  189.0270  177.9130  144.9190 C   0  0  0  0  0  3  0  0  0  0  0  0
  184.1390  177.8980  141.8550 C   0  0  2  0  0  3  0  0  0  0  0  0
  180.9210  179.0730  143.2260 C   0  0  0  0  0  2  0  0  0  0  0  0
  187.9170  177.3830  144.0330 C   0  0  1  0  0  3  0  0  0  0  0  0
  190.8720  178.3080  143.2800 N   0  0  0  0  0  0  0  0  0  0  0  0
  181.2570  179.2290  140.7240 C   0  0  1  0  0  3  0  0  0  0  0  0
  185.5810  178.4710  143.9300 C   0  0  1  0  0  3  0  0  0  0  0  0
  189.0820  177.1090  141.8890 C   0  0  1  0  0  3  0  0  0  0  0  0
  185.5010  178.0740  142.4840 C   0  0  0  0  0  0  0  0  0  0  0  0
  185.6950  178.7950  146.6770 C   0  0  0  0  0  2  0  0  0  0  0  0
  182.8950  177.5630  139.6510 C   0  0  0  0  0  2  0  0  0  0  0  0
  186.4210  177.5380  146.1990 C   0  0  0  0  0  2  0  0  0  0  0  0
  184.2170  177.9330  140.3220 C   0  0  0  0  0  2  0  0  0  0  0  0
  181.7410  178.6210  142.0510 C   0  0  1  0  0  3  0  0  0  0  0  0
  184.2930  178.9190  146.0550 C   0  0  0  0  0  2  0  0  0  0  0  0
  183.2370  179.2740  143.8430 N   0  0  2  0  0  0  0  0  0  0  0  0
  180.9380  180.6070  140.7960 O   0  0  0  0  0  0  0  0  0  0  0  0
  179.6140  180.8130  140.3620 C   0  0  0  0  0  2  0  0  0  0  0  0
  180.9920  182.0330  137.3660 C   0  0  0  0  0  2  0  0  0  0  0  0
  179.1280  180.6950  137.9190 C   0  0  0  0  0  2  0  0  0  0  0  0
  179.5820  181.5870  139.0520 C   0  0  2  0  0  3  0  0  0  0  0  0
  180.1870  180.8520  136.8770 C   0  0  0  0  0  2  0  0  0  0  0  0
  180.8510  182.1180  138.7610 O   0  0  0  0  0  0  0  0  0  0  0  0
  1 26  1  1  0  0  0
  3 16  2  0  0  0  0
  4 23  1  1  0  0  0
  5 11  1  6  0  0  0
  5 15  1  0  0  0  0
  6  7  1  0  0  0  0
  6 19  1  0  0  0  0
  7  3  1  0  0  0  0
  8 12  2  0  0  0  0
  9 27  1  0  0  0  0
 10 22  1  0  0  0  0
 10 17  1  0  0  0  0
 11 20  2  0  0  0  0
 13  9  1  0  0  0  0
 13 20  1  0  0  0  0
 14  2  1  0  0  0  0
 15  4  1  0  0  0  0
 15 12  1  0  0  0  0
 16  8  1  0  0  0  0
 17 28  1  0  0  0  0
 17 25  1  0  0  0  0
 18  1  1  0  0  0  0
 18  4  1  0  0  0  0
 19  3  1  0  0  0  0
 19  5  1  0  0  0  0
 20 18  1  0  0  0  0
 22 24  1  0  0  0  0
 23 21  1  0  0  0  0
 24 13  1  0  0  0  0
 25  9  1  0  0  0  0
 25 14  1  0  0  0  0
 26 21  1  0  0  0  0
 27  2  1  0  0  0  0
 27  1  1  0  0  0  0
 29 28  1  0  0  0  0
 30 34  1  0  0  0  0
 31 32  1  0  0  0  0
 32 29  1  0  0  0  0
 33 30  1  0  0  0  0
 33 31  1  0  0  0  0
 34 32  1  0  0  0  0
M  END
>  <MODEL>
2

>  <REMARK>
 VINA RESULT:      -9.9      3.986      6.280
  Name = 
  3 active torsions:
  status: ('A' for Active; 'I' for Inactive)
    1  A    between atoms: C_17  and  O_28
    2  A    between atoms: O_28  and  C_29
    3  A    between atoms: C_29  and  C_32
                            x       y       z     vdW  Elec       q    Type
                         _______ _______ _______ _____ _____    ______ ____

>  <TORSDO>
F 3

$$$$
=
 OpenBabel11122412023D

 34 41  0  0  1  0  0  0  0  0999 V2000
  189.8560  177.7720  140.8530 C   0  0  1  0  0  3  0  0  0  0  0  0
  189.7150  177.6350  138.4820 C   0  0  0  0  0  2  0  0  0  0  0  0
  187.2250  177.4780  146.8950 C   0  0  0  0  0  0  0  0  0  0  0  0
  189.8790  178.3370  143.2890 C   0  0  2  0  0  3  0  0  0  0  0  0
  187.7020  177.8370  144.5860 C   0  0  1  0  0  3  0  0  0  0  0  0
  185.6160  178.1810  145.9140 C   0  0  0  0  0  2  0  0  0  0  0  0
  185.7950  177.4090  147.0890 O   0  0  0  0  0  0  0  0  0  0  0  0
  189.5990  176.9320  146.8780 C   0  0  0  0  0  3  0  0  0  0  0  0
  187.6780  177.5580  139.6730 C   0  0  1  0  0  3  0  0  0  0  0  0
  184.8180  178.1000  138.4780 C   0  0  0  0  0  2  0  0  0  0  0  0
  187.0650  178.2580  143.2810 C   0  0  0  0  0  3  0  0  0  0  0  0
  189.9990  177.4740  145.7090 C   0  0  0  0  0  3  0  0  0  0  0  0
  187.1630  178.4970  140.7900 C   0  0  2  0  0  3  0  0  0  0  0  0
  188.6120  177.7970  137.4690 C   0  0  0  0  0  2  0  0  0  0  0  0
  189.1930  178.2360  144.6750 C   0  0  1  0  0  3  0  0  0  0  0  0
  188.2590  176.8760  147.4010 N   0  0  0  0  0  0  0  0  0  0  0  0
  186.0920  177.7410  137.6860 C   0  0  1  0  0  3  0  0  0  0  0  0
  189.1370  177.5640  142.1860 C   0  0  1  0  0  3  0  0  0  0  0  0
  187.0180  178.4410  145.7930 C   0  0  1  0  0  3  0  0  0  0  0  0
  187.7200  178.0570  142.1240 C   0  0  0  0  0  0  0  0  0  0  0  0
  191.8550  177.0580  142.3390 C   0  0  0  0  0  2  0  0  0  0  0  0
  185.0390  179.1700  139.5450 C   0  0  0  0  0  2  0  0  0  0  0  0
  191.4130  178.2020  143.2510 C   0  0  0  0  0  2  0  0  0  0  0  0
  185.6290  178.5440  140.8070 C   0  0  0  0  0  2  0  0  0  0  0  0
  187.4270  178.1760  138.3120 C   0  0  1  0  0  3  0  0  0  0  0  0
  191.2900  177.2090  140.9150 C   0  0  0  0  0  2  0  0  0  0  0  0
  189.1120  177.1720  139.7370 N   0  0  2  0  0  0  0  0  0  0  0  0
  186.1030  176.4330  137.1390 O   0  0  0  0  0  0  0  0  0  0  0  0
  184.9020  176.1990  136.4420 C   0  0  0  0  0  2  0  0  0  0  0  0
  185.8210  172.8050  136.4160 C   0  0  0  0  0  2  0  0  0  0  0  0
  184.2630  174.0990  137.6260 C   0  0  0  0  0  2  0  0  0  0  0  0
  184.6390  174.7060  136.2940 C   0  0  2  0  0  3  0  0  0  0  0  0
  185.1970  172.9450  137.7850 C   0  0  0  0  0  2  0  0  0  0  0  0
  185.7720  174.0540  135.7760 O   0  0  0  0  0  0  0  0  0  0  0  0
  1 26  1  1  0  0  0
  1 18  1  0  0  0  0
  2 27  1  0  0  0  0
  3  7  1  0  0  0  0
  3 16  2  0  0  0  0
  4 23  1  1  0  0  0
  4 15  1  0  0  0  0
  5 11  1  6  0  0  0
  5 15  1  0  0  0  0
  5 19  1  0  0  0  0
  6  7  1  0  0  0  0
  8 16  1  0  0  0  0
  9 27  1  0  0  0  0
  9 13  1  0  0  0  0
 10 22  1  0  0  0  0
 12  8  2  0  0  0  0
 13 24  1  0  0  0  0
 13 20  1  0  0  0  0
 14 25  1  0  0  0  0
 14  2  1  0  0  0  0
 15 12  1  0  0  0  0
 17 25  1  0  0  0  0
 17 10  1  0  0  0  0
 18  4  1  0  0  0  0
 19  6  1  0  0  0  0
 19  3  1  0  0  0  0
 20 18  1  0  0  0  0
 20 11  2  0  0  0  0
 21 23  1  0  0  0  0
 22 24  1  0  0  0  0
 25  9  1  0  0  0  0
 26 21  1  0  0  0  0
 27  1  1  0  0  0  0
 28 17  1  0  0  0  0
 29 28  1  0  0  0  0
 30 33  1  0  0  0  0
 31 33  1  0  0  0  0
 32 29  1  0  0  0  0
 32 31  1  0  0  0  0
 34 32  1  0  0  0  0
 34 30  1  0  0  0  0
M  END
>  <MODEL>
3

>  <REMARK>
 VINA RESULT:      -9.5      2.663      4.551
  Name = 
  3 active torsions:
  status: ('A' for Active; 'I' for Inactive)
    1  A    between atoms: C_17  and  O_28
    2  A    between atoms: O_28  and  C_29
    3  A    between atoms: C_29  and  C_32
                            x       y       z     vdW  Elec       q    Type
                         _______ _______ _______ _____ _____    ______ ____

>  <TORSDO>
F 3

$$$$
=
 OpenBabel11122412023D

 34 41  0  0  1  0  0  0  0  0999 V2000
  187.9170  177.8350  143.2650 C   0  0  1  0  0  3  0  0  0  0  0  0
  190.1670  177.1720  142.8630 C   0  0  0  0  0  2  0  0  0  0  0  0
  181.6860  178.8360  141.3480 C   0  0  0  0  0  0  0  0  0  0  0  0
  185.6850  178.9280  143.5340 C   0  0  2  0  0  3  0  0  0  0  0  0
  184.0580  178.6820  141.5440 C   0  0  1  0  0  3  0  0  0  0  0  0
  182.5960  179.2690  139.6070 C   0  0  0  0  0  2  0  0  0  0  0  0
  181.3110  178.7810  139.9530 O   0  0  0  0  0  0  0  0  0  0  0  0
  181.8680  178.3510  143.7280 C   0  0  0  0  0  3  0  0  0  0  0  0
  188.7520  177.3180  140.9790 C   0  0  1  0  0  3  0  0  0  0  0  0
  189.6830  177.5200  137.9810 C   0  0  0  0  0  2  0  0  0  0  0  0
  185.3370  178.7900  140.7450 C   0  0  0  0  0  3  0  0  0  0  0  0
  183.1670  178.6270  143.9670 C   0  0  0  0  0  3  0  0  0  0  0  0
  187.8130  178.4710  140.5510 C   0  0  2  0  0  3  0  0  0  0  0  0
  191.0510  177.0810  141.6470 C   0  0  0  0  0  2  0  0  0  0  0  0
  184.2380  179.1230  143.0150 C   0  0  1  0  0  3  0  0  0  0  0  0
  181.1890  178.3830  142.4590 N   0  0  0  0  0  0  0  0  0  0  0  0
  190.5260  177.0210  139.1730 C   0  0  1  0  0  3  0  0  0  0  0  0
  186.4950  177.9130  142.7110 C   0  0  1  0  0  3  0  0  0  0  0  0
  182.9380  179.5250  140.9720 C   0  0  1  0  0  3  0  0  0  0  0  0
  186.4920  178.3500  141.2740 C   0  0  0  0  0  0  0  0  0  0  0  0
  186.5630  177.5120  145.4490 C   0  0  0  0  0  2  0  0  0  0  0  0
  188.9110  178.8050  138.2700 C   0  0  0  0  0  2  0  0  0  0  0  0
  185.8770  178.8200  145.0600 C   0  0  0  0  0  2  0  0  0  0  0  0
  187.6230  178.4870  139.0270 C   0  0  0  0  0  2  0  0  0  0  0  0
  190.1750  177.6120  140.5480 C   0  0  1  0  0  3  0  0  0  0  0  0
  187.9080  177.3310  144.7210 C   0  0  0  0  0  2  0  0  0  0  0  0
  188.7780  176.9870  142.4280 N   0  0  2  0  0  0  0  0  0  0  0  0
  190.7710  175.6250  139.1850 O   0  0  0  0  0  0  0  0  0  0  0  0
  191.8450  175.3240  138.3250 C   0  0  0  0  0  2  0  0  0  0  0  0
  189.5100  173.6030  136.3380 C   0  0  0  0  0  2  0  0  0  0  0  0
  191.3600  175.0000  135.9010 C   0  0  0  0  0  2  0  0  0  0  0  0
  191.4240  174.3280  137.2530 C   0  0  2  0  0  3  0  0  0  0  0  0
  189.9970  174.6710  135.3860 C   0  0  0  0  0  2  0  0  0  0  0  0
  190.1730  173.7650  137.5650 O   0  0  0  0  0  0  0  0  0  0  0  0
  1 26  1  1  0  0  0
  3 16  2  0  0  0  0
  4 23  1  1  0  0  0
  5 11  1  6  0  0  0
  5 15  1  0  0  0  0
  6  7  1  0  0  0  0
  6 19  1  0  0  0  0
  7  3  1  0  0  0  0
  8 12  2  0  0  0  0
  9 27  1  0  0  0  0
 10 22  1  0  0  0  0
 10 17  1  0  0  0  0
 11 20  2  0  0  0  0
 13  9  1  0  0  0  0
 13 20  1  0  0  0  0
 14  2  1  0  0  0  0
 15  4  1  0  0  0  0
 15 12  1  0  0  0  0
 16  8  1  0  0  0  0
 17 28  1  0  0  0  0
 17 25  1  0  0  0  0
 18  1  1  0  0  0  0
 18  4  1  0  0  0  0
 19  3  1  0  0  0  0
 19  5  1  0  0  0  0
 20 18  1  0  0  0  0
 22 24  1  0  0  0  0
 23 21  1  0  0  0  0
 24 13  1  0  0  0  0
 25  9  1  0  0  0  0
 25 14  1  0  0  0  0
 26 21  1  0  0  0  0
 27  2  1  0  0  0  0
 27  1  1  0  0  0  0
 29 28  1  0  0  0  0
 30 34  1  0  0  0  0
 31 32  1  0  0  0  0
 32 34  1  0  0  0  0
 32 29  1  0  0  0  0
 33 31  1  0  0  0  0
 33 30  1  0  0  0  0
M  END
>  <MODEL>
4

>  <REMARK>
 VINA RESULT:      -9.5      2.965      5.757
  Name = 
  3 active torsions:
  status: ('A' for Active; 'I' for Inactive)
    1  A    between atoms: C_17  and  O_28
    2  A    between atoms: O_28  and  C_29
    3  A    between atoms: C_29  and  C_32
                            x       y       z     vdW  Elec       q    Type
                         _______ _______ _______ _____ _____    ______ ____

>  <TORSDO>
F 3

$$$$
=
 OpenBabel11122412023D

 34 41  0  0  1  0  0  0  0  0999 V2000
  189.8730  177.8170  140.8810 C   0  0  1  0  0  3  0  0  0  0  0  0
  189.7030  177.7060  138.5100 C   0  0  0  0  0  2  0  0  0  0  0  0
  187.3130  177.4500  146.9490 C   0  0  0  0  0  0  0  0  0  0  0  0
  189.9230  178.3550  143.3220 C   0  0  2  0  0  3  0  0  0  0  0  0
  187.7630  177.8360  144.6390 C   0  0  1  0  0  3  0  0  0  0  0  0
  185.6910  178.1610  145.9950 C   0  0  0  0  0  2  0  0  0  0  0  0
  185.8850  177.3760  147.1590 O   0  0  0  0  0  0  0  0  0  0  0  0
  189.6870  176.9100  146.8990 C   0  0  0  0  0  3  0  0  0  0  0  0
  187.6810  177.6110  139.7240 C   0  0  1  0  0  3  0  0  0  0  0  0
  184.8060  178.1610  138.5690 C   0  0  0  0  0  2  0  0  0  0  0  0
  187.1090  178.2700  143.3460 C   0  0  0  0  0  3  0  0  0  0  0  0
  190.0730  177.4650  145.7310 C   0  0  0  0  0  3  0  0  0  0  0  0
  187.1780  178.5370  140.8570 C   0  0  2  0  0  3  0  0  0  0  0  0
  188.5890  177.8760  137.5120 C   0  0  0  0  0  2  0  0  0  0  0  0
  189.2540  178.2370  144.7150 C   0  0  1  0  0  3  0  0  0  0  0  0
  188.3540  176.8440  147.4360 N   0  0  0  0  0  0  0  0  0  0  0  0
  186.0720  177.8130  137.7570 C   0  0  1  0  0  3  0  0  0  0  0  0
  189.1690  177.5920  142.2190 C   0  0  1  0  0  3  0  0  0  0  0  0
  187.0910  178.4250  145.8600 C   0  0  1  0  0  3  0  0  0  0  0  0
  187.7510  178.0830  142.1790 C   0  0  0  0  0  0  0  0  0  0  0  0
  191.8900  177.0900  142.3350 C   0  0  0  0  0  2  0  0  0  0  0  0
  185.0370  179.2200  139.6440 C   0  0  0  0  0  2  0  0  0  0  0  0
  191.4570  178.2230  143.2650 C   0  0  0  0  0  2  0  0  0  0  0  0
  185.6440  178.5800  140.8920 C   0  0  0  0  0  2  0  0  0  0  0  0
  187.4130  178.2440  138.3720 C   0  0  1  0  0  3  0  0  0  0  0  0
  191.3080  177.2560  140.9190 C   0  0  0  0  0  2  0  0  0  0  0  0
  189.1160  177.2280  139.7670 N   0  0  2  0  0  0  0  0  0  0  0  0
  186.0790  176.5120  137.1960 O   0  0  0  0  0  0  0  0  0  0  0  0
  185.4230  176.5270  135.9500 C   0  0  0  0  0  2  0  0  0  0  0  0
  182.7710  174.8060  137.4880 C   0  0  0  0  0  2  0  0  0  0  0  0
  182.9370  176.4290  135.7830 C   0  0  0  0  0  2  0  0  0  0  0  0
  184.2010  175.6190  135.9650 C   0  0  2  0  0  3  0  0  0  0  0  0
  182.0660  176.0180  136.9250 C   0  0  0  0  0  2  0  0  0  0  0  0
  184.1350  174.8980  137.1710 O   0  0  0  0  0  0  0  0  0  0  0  0
  1 26  1  1  0  0  0
  1 18  1  0  0  0  0
  2 27  1  0  0  0  0
  3  7  1  0  0  0  0
  3 16  2  0  0  0  0
  4 23  1  1  0  0  0
  4 15  1  0  0  0  0
  5 11  1  6  0  0  0
  5 15  1  0  0  0  0
  5 19  1  0  0  0  0
  6  7  1  0  0  0  0
  8 16  1  0  0  0  0
  9 27  1  0  0  0  0
  9 13  1  0  0  0  0
 10 22  1  0  0  0  0
 12  8  2  0  0  0  0
 13 24  1  0  0  0  0
 13 20  1  0  0  0  0
 14 25  1  0  0  0  0
 14  2  1  0  0  0  0
 15 12  1  0  0  0  0
 17 25  1  0  0  0  0
 17 10  1  0  0  0  0
 18  4  1  0  0  0  0
 19  6  1  0  0  0  0
 19  3  1  0  0  0  0
 20 18  1  0  0  0  0
 20 11  2  0  0  0  0
 21 23  1  0  0  0  0
 22 24  1  0  0  0  0
 25  9  1  0  0  0  0
 26 21  1  0  0  0  0
 27  1  1  0  0  0  0
 28 17  1  0  0  0  0
 29 32  1  0  0  0  0
 29 28  1  0  0  0  0
 31 32  1  0  0  0  0
 31 33  1  0  0  0  0
 32 34  1  0  0  0  0
 33 30  1  0  0  0  0
 34 30  1  0  0  0  0
M  END
>  <MODEL>
5

>  <REMARK>
 VINA RESULT:      -9.1      2.635      4.628
  Name = 
  3 active torsions:
  status: ('A' for Active; 'I' for Inactive)
    1  A    between atoms: C_17  and  O_28
    2  A    between atoms: O_28  and  C_29
    3  A    between atoms: C_29  and  C_32
                            x       y       z     vdW  Elec       q    Type
                         _______ _______ _______ _____ _____    ______ ____

>  <TORSDO>
F 3

$$$$
=
 OpenBabel11122412023D

 34 41  0  0  1  0  0  0  0  0999 V2000
  190.5580  177.2410  141.1720 C   0  0  1  0  0  3  0  0  0  0  0  0
  191.6620  176.6560  139.1470 C   0  0  0  0  0  2  0  0  0  0  0  0
  185.1430  178.2330  144.8040 C   0  0  0  0  0  0  0  0  0  0  0  0
  189.3810  178.2640  143.1260 C   0  0  2  0  0  3  0  0  0  0  0  0
  186.8030  178.1180  143.0960 C   0  0  1  0  0  3  0  0  0  0  0  0
  184.4030  178.8040  143.0220 C   0  0  0  0  0  2  0  0  0  0  0  0
  183.8300  178.2650  144.2010 O   0  0  0  0  0  0  0  0  0  0  0  0
  187.0690  177.5910  146.1490 C   0  0  0  0  0  3  0  0  0  0  0  0
  189.3160  176.8990  139.0450 C   0  0  1  0  0  3  0  0  0  0  0  0
  187.6150  177.3260  136.4320 C   0  0  0  0  0  2  0  0  0  0  0  0
  187.0100  178.3080  141.6100 C   0  0  0  0  0  3  0  0  0  0  0  0
  188.0940  177.8780  145.3190 C   0  0  0  0  0  3  0  0  0  0  0  0
  188.4310  178.0570  139.5630 C   0  0  2  0  0  3  0  0  0  0  0  0
  191.2890  176.6670  137.6870 C   0  0  0  0  0  2  0  0  0  0  0  0
  188.0660  178.4620  143.9200 C   0  0  1  0  0  3  0  0  0  0  0  0
  185.6620  177.6950  145.8670 N   0  0  0  0  0  0  0  0  0  0  0  0
  189.0500  176.7640  136.5130 C   0  0  1  0  0  3  0  0  0  0  0  0
  189.2270  177.3250  141.9180 C   0  0  1  0  0  3  0  0  0  0  0  0
  185.6810  178.9740  143.6430 C   0  0  1  0  0  3  0  0  0  0  0  0
  188.1380  177.8580  141.0320 C   0  0  0  0  0  0  0  0  0  0  0  0
  191.3590  176.7390  143.5840 C   0  0  0  0  0  2  0  0  0  0  0  0
  187.3930  178.5710  137.2880 C   0  0  0  0  0  2  0  0  0  0  0  0
  190.6720  178.0560  143.9430 C   0  0  0  0  0  2  0  0  0  0  0  0
  187.1390  178.1740  138.7410 C   0  0  0  0  0  2  0  0  0  0  0  0
  189.9050  177.2530  137.6940 C   0  0  1  0  0  3  0  0  0  0  0  0
  191.6520  176.6380  142.0760 C   0  0  0  0  0  2  0  0  0  0  0  0
  190.4330  176.4700  139.9270 N   0  0  2  0  0  0  0  0  0  0  0  0
  189.1620  175.3770  136.2480 O   0  0  0  0  0  0  0  0  0  0  0  0
  187.9190  174.8740  135.8170 C   0  0  0  0  0  2  0  0  0  0  0  0
  185.5210  172.9680  137.5430 C   0  0  0  0  0  2  0  0  0  0  0  0
  187.1200  172.5120  135.8690 C   0  0  0  0  0  2  0  0  0  0  0  0
  187.4570  173.7260  136.7040 C   0  0  2  0  0  3  0  0  0  0  0  0
  185.7400  172.1350  136.3020 C   0  0  0  0  0  2  0  0  0  0  0  0
  186.3360  174.1090  137.4630 O   0  0  0  0  0  0  0  0  0  0  0  0
  1 18  1  0  0  0  0
  1 26  1  1  0  0  0
  2 27  1  0  0  0  0
  3 16  2  0  0  0  0
  4 15  1  0  0  0  0
  4 23  1  1  0  0  0
  5 11  1  6  0  0  0
  5 19  1  0  0  0  0
  5 15  1  0  0  0  0
  6 19  1  0  0  0  0
  6  7  1  0  0  0  0
  7  3  1  0  0  0  0
  9 13  1  0  0  0  0
  9 27  1  0  0  0  0
 10 17  1  0  0  0  0
 10 22  1  0  0  0  0
 12  8  2  0  0  0  0
 13 20  1  0  0  0  0
 14 25  1  0  0  0  0
 14  2  1  0  0  0  0
 15 12  1  0  0  0  0
 16  8  1  0  0  0  0
 17 25  1  0  0  0  0
 18  4  1  0  0  0  0
 19  3  1  0  0  0  0
 20 11  2  0  0  0  0
 20 18  1  0  0  0  0
 21 23  1  0  0  0  0
 22 24  1  0  0  0  0
 24 13  1  0  0  0  0
 25  9  1  0  0  0  0
 26 21  1  0  0  0  0
 27  1  1  0  0  0  0
 28 17  1  0  0  0  0
 29 28  1  0  0  0  0
 29 32  1  0  0  0  0
 31 33  1  0  0  0  0
 31 32  1  0  0  0  0
 32 34  1  0  0  0  0
 33 30  1  0  0  0  0
 34 30  1  0  0  0  0
M  END
>  <MODEL>
6

>  <REMARK>
 VINA RESULT:      -9.1      2.922      5.029
  Name = 
  3 active torsions:
  status: ('A' for Active; 'I' for Inactive)
    1  A    between atoms: C_17  and  O_28
    2  A    between atoms: O_28  and  C_29
    3  A    between atoms: C_29  and  C_32
                            x       y       z     vdW  Elec       q    Type
                         _______ _______ _______ _____ _____    ______ ____

>  <TORSDO>
F 3

$$$$
=
 OpenBabel11122412023D

 34 41  0  0  1  0  0  0  0  0999 V2000
  190.3390  177.3090  142.1020 C   0  0  1  0  0  3  0  0  0  0  0  0
  190.8920  176.9180  139.8220 C   0  0  0  0  0  2  0  0  0  0  0  0
  186.0210  177.9120  147.0520 C   0  0  0  0  0  0  0  0  0  0  0  0
  189.7020  178.1410  144.3720 C   0  0  2  0  0  3  0  0  0  0  0  0
  187.1980  177.9680  144.9780 C   0  0  1  0  0  3  0  0  0  0  0  0
  184.8630  178.6290  145.5700 C   0  0  0  0  0  2  0  0  0  0  0  0
  184.5990  177.9820  146.8030 O   0  0  0  0  0  0  0  0  0  0  0  0
  188.2160  177.1760  147.8070 C   0  0  0  0  0  3  0  0  0  0  0  0
  188.5980  177.1420  140.3340 C   0  0  1  0  0  3  0  0  0  0  0  0
  186.3000  177.7770  138.2810 C   0  0  0  0  0  2  0  0  0  0  0  0
  187.0270  178.2910  143.5100 C   0  0  0  0  0  3  0  0  0  0  0  0
  189.0020  177.5480  146.7760 C   0  0  0  0  0  3  0  0  0  0  0  0
  187.8850  178.2390  141.1580 C   0  0  2  0  0  3  0  0  0  0  0  0
  190.1650  177.0540  138.5100 C   0  0  0  0  0  2  0  0  0  0  0  0
  188.6300  178.2530  145.4860 C   0  0  1  0  0  3  0  0  0  0  0  0
  186.7840  177.2880  147.8980 N   0  0  0  0  0  0  0  0  0  0  0  0
  187.7040  177.2280  137.9490 C   0  0  1  0  0  3  0  0  0  0  0  0
  189.2390  177.3110  143.1630 C   0  0  1  0  0  3  0  0  0  0  0  0
  186.2580  178.7590  145.8630 C   0  0  1  0  0  3  0  0  0  0  0  0
  187.9680  177.9080  142.6300 C   0  0  0  0  0  0  0  0  0  0  0  0
  191.7150  176.6060  144.1820 C   0  0  0  0  0  2  0  0  0  0  0  0
  186.3140  178.9390  139.2710 C   0  0  0  0  0  2  0  0  0  0  0  0
  191.1540  177.8770  144.8170 C   0  0  0  0  0  2  0  0  0  0  0  0
  186.4300  178.4120  140.7010 C   0  0  0  0  0  2  0  0  0  0  0  0
  188.8330  177.6210  138.9150 C   0  0  1  0  0  3  0  0  0  0  0  0
  191.6180  176.6420  142.6460 C   0  0  0  0  0  2  0  0  0  0  0  0
  189.8970  176.6500  140.8650 N   0  0  2  0  0  0  0  0  0  0  0  0
  187.7300  175.8710  137.5420 O   0  0  0  0  0  0  0  0  0  0  0  0
  187.7210  175.7960  136.1350 C   0  0  0  0  0  2  0  0  0  0  0  0
  190.9930  174.5920  135.6840 C   0  0  0  0  0  2  0  0  0  0  0  0
  189.0280  173.7430  136.6770 C   0  0  0  0  0  2  0  0  0  0  0  0
  188.7620  174.8040  135.6340 C   0  0  2  0  0  3  0  0  0  0  0  0
  190.5130  173.7510  136.8440 C   0  0  0  0  0  2  0  0  0  0  0  0
  189.9600  175.4670  135.3110 O   0  0  0  0  0  0  0  0  0  0  0  0
  1 26  1  1  0  0  0
  1 18  1  0  0  0  0
  2 27  1  0  0  0  0
  3 16  2  0  0  0  0
  4 23  1  1  0  0  0
  4 15  1  0  0  0  0
  5 11  1  6  0  0  0
  5 15  1  0  0  0  0
  5 19  1  0  0  0  0
  6 19  1  0  0  0  0
  6  7  1  0  0  0  0
  7  3  1  0  0  0  0
  8 16  1  0  0  0  0
  9 27  1  0  0  0  0
  9 13  1  0  0  0  0
 10 22  1  0  0  0  0
 12  8  2  0  0  0  0
 13 20  1  0  0  0  0
 14 25  1  0  0  0  0
 14  2  1  0  0  0  0
 15 12  1  0  0  0  0
 17 10  1  0  0  0  0
 17 25  1  0  0  0  0
 18  4  1  0  0  0  0
 19  3  1  0  0  0  0
 20 18  1  0  0  0  0
 20 11  2  0  0  0  0
 21 23  1  0  0  0  0
 22 24  1  0  0  0  0
 24 13  1  0  0  0  0
 25  9  1  0  0  0  0
 26 21  1  0  0  0  0
 27  1  1  0  0  0  0
 28 17  1  0  0  0  0
 29 28  1  0  0  0  0
 30 33  1  0  0  0  0
 31 33  1  0  0  0  0
 32 29  1  0  0  0  0
 32 31  1  0  0  0  0
 34 32  1  0  0  0  0
 34 30  1  0  0  0  0
M  END
>  <MODEL>
7

>  <REMARK>
 VINA RESULT:      -8.9      2.319      4.156
  Name = 
  3 active torsions:
  status: ('A' for Active; 'I' for Inactive)
    1  A    between atoms: C_17  and  O_28
    2  A    between atoms: O_28  and  C_29
    3  A    between atoms: C_29  and  C_32
                            x       y       z     vdW  Elec       q    Type
                         _______ _______ _______ _____ _____    ______ ____

>  <TORSDO>
F 3

$$$$
=
 OpenBabel11122412023D

 34 41  0  0  1  0  0  0  0  0999 V2000
  188.5930  178.0660  141.1380 C   0  0  1  0  0  3  0  0  0  0  0  0
  187.1950  178.2590  139.2230 C   0  0  0  0  0  2  0  0  0  0  0  0
  189.6140  176.7760  147.5260 C   0  0  0  0  0  0  0  0  0  0  0  0
  189.9380  178.2800  143.2340 C   0  0  2  0  0  3  0  0  0  0  0  0
  188.7860  177.4840  145.4040 C   0  0  1  0  0  3  0  0  0  0  0  0
  187.7520  177.5240  147.6770 C   0  0  0  0  0  2  0  0  0  0  0  0
  188.5100  176.6030  148.4430 O   0  0  0  0  0  0  0  0  0  0  0  0
  191.5880  176.3670  146.1590 C   0  0  0  0  0  3  0  0  0  0  0  0
  186.1160  177.9040  141.2920 C   0  0  1  0  0  3  0  0  0  0  0  0
  183.0800  178.4550  141.9120 C   0  0  0  0  0  2  0  0  0  0  0  0
  187.5600  178.0520  144.7230 C   0  0  0  0  0  3  0  0  0  0  0  0
  191.3130  177.0900  145.0530 C   0  0  0  0  0  3  0  0  0  0  0  0
  186.3120  178.6460  142.6350 C   0  0  2  0  0  3  0  0  0  0  0  0
  185.7260  178.5030  138.9950 C   0  0  0  0  0  2  0  0  0  0  0  0
  190.1030  177.9470  144.7380 C   0  0  1  0  0  3  0  0  0  0  0  0
  190.7380  176.1650  147.3030 N   0  0  0  0  0  0  0  0  0  0  0  0
  183.7170  178.2810  140.5160 C   0  0  1  0  0  3  0  0  0  0  0  0
  188.6960  177.6320  142.6000 C   0  0  1  0  0  3  0  0  0  0  0  0
  188.8770  177.8740  146.8630 C   0  0  1  0  0  3  0  0  0  0  0  0
  187.4840  178.0520  143.3810 C   0  0  0  0  0  0  0  0  0  0  0  0
  191.0530  177.2570  141.1960 C   0  0  0  0  0  2  0  0  0  0  0  0
  183.8730  179.3740  142.8380 C   0  0  0  0  0  2  0  0  0  0  0  0
  191.2070  178.2340  142.3600 C   0  0  0  0  0  2  0  0  0  0  0  0
  185.0290  178.6070  143.4780 C   0  0  0  0  0  2  0  0  0  0  0  0
  185.1920  178.6940  140.3860 C   0  0  1  0  0  3  0  0  0  0  0  0
  189.8170  177.5780  140.3370 C   0  0  0  0  0  2  0  0  0  0  0  0
  187.3460  177.5910  140.5200 N   0  0  2  0  0  0  0  0  0  0  0  0
  183.3920  177.0670  139.8620 O   0  0  0  0  0  0  0  0  0  0  0  0
  182.5750  177.3320  138.7460 C   0  0  0  0  0  2  0  0  0  0  0  0
  180.0360  175.6860  140.5370 C   0  0  0  0  0  2  0  0  0  0  0  0
  180.1830  177.7130  139.3380 C   0  0  0  0  0  2  0  0  0  0  0  0
  181.2050  176.6870  138.9070 C   0  0  2  0  0  3  0  0  0  0  0  0
  179.5450  177.1150  140.5500 C   0  0  0  0  0  2  0  0  0  0  0  0
  181.2580  175.6420  139.8470 O   0  0  0  0  0  0  0  0  0  0  0  0
  1 26  1  6  0  0  0
  1 18  1  0  0  0  0
  2 27  1  0  0  0  0
  3  7  1  0  0  0  0
  4 23  1  6  0  0  0
  4 15  1  0  0  0  0
  5 11  1  6  0  0  0
  5 19  1  0  0  0  0
  6  7  1  0  0  0  0
  8 16  1  0  0  0  0
  9 13  1  0  0  0  0
 10 22  1  0  0  0  0
 12  8  2  0  0  0  0
 13 20  1  0  0  0  0
 13 24  1  0  0  0  0
 14  2  1  0  0  0  0
 14 25  1  0  0  0  0
 15 12  1  0  0  0  0
 15  5  1  0  0  0  0
 16  3  2  0  0  0  0
 17 10  1  0  0  0  0
 18  4  1  0  0  0  0
 18 20  1  0  0  0  0
 19  3  1  0  0  0  0
 19  6  1  0  0  0  0
 20 11  2  0  0  0  0
 21 23  1  0  0  0  0
 22 24  1  0  0  0  0
 25 17  1  0  0  0  0
 25  9  1  0  0  0  0
 26 21  1  0  0  0  0
 27  1  1  0  0  0  0
 27  9  1  0  0  0  0
 28 17  1  0  0  0  0
 29 32  1  0  0  0  0
 29 28  1  0  0  0  0
 30 33  1  0  0  0  0
 31 33  1  0  0  0  0
 32 31  1  0  0  0  0
 32 34  1  0  0  0  0
 34 30  1  0  0  0  0
M  END
>  <MODEL>
8

>  <REMARK>
 VINA RESULT:      -8.9      3.050      5.466
  Name = 
  3 active torsions:
  status: ('A' for Active; 'I' for Inactive)
    1  A    between atoms: C_17  and  O_28
    2  A    between atoms: O_28  and  C_29
    3  A    between atoms: C_29  and  C_32
                            x       y       z     vdW  Elec       q    Type
                         _______ _______ _______ _____ _____    ______ ____

>  <TORSDO>
F 3

$$$$
=
 OpenBabel11122412023D

 34 41  0  0  1  0  0  0  0  0999 V2000
  182.2280  178.9300  142.9870 C   0  0  1  0  0  3  0  0  0  0  0  0
  183.6440  179.0410  144.8960 C   0  0  0  0  0  2  0  0  0  0  0  0
  180.9410  177.1940  136.7550 C   0  0  0  0  0  0  0  0  0  0  0  0
  180.9470  179.1860  140.8560 C   0  0  2  0  0  3  0  0  0  0  0  0
  181.9040  177.9430  138.8050 C   0  0  1  0  0  3  0  0  0  0  0  0
  182.9160  177.5270  136.5600 C   0  0  0  0  0  2  0  0  0  0  0  0
  181.9830  176.7020  135.8820 O   0  0  0  0  0  0  0  0  0  0  0  0
  178.9310  177.3440  138.1210 C   0  0  0  0  0  3  0  0  0  0  0  0
  184.6200  178.2530  142.8960 C   0  0  1  0  0  3  0  0  0  0  0  0
  187.7010  178.1050  142.2780 C   0  0  0  0  0  2  0  0  0  0  0  0
  183.2230  178.3200  139.4430 C   0  0  0  0  0  3  0  0  0  0  0  0
  179.3510  178.1110  139.1490 C   0  0  0  0  0  3  0  0  0  0  0  0
  184.5740  178.8700  141.4780 C   0  0  2  0  0  3  0  0  0  0  0  0
  185.1330  179.0040  145.1240 C   0  0  0  0  0  2  0  0  0  0  0  0
  180.7120  178.7330  139.3930 C   0  0  1  0  0  3  0  0  0  0  0  0
  179.7170  176.8510  137.0210 N   0  0  0  0  0  0  0  0  0  0  0  0
  187.0480  178.2160  143.6710 C   0  0  1  0  0  3  0  0  0  0  0  0
  182.0330  178.3710  141.5780 C   0  0  1  0  0  3  0  0  0  0  0  0
  181.8900  178.1830  137.3100 C   0  0  1  0  0  3  0  0  0  0  0  0
  183.3030  178.4490  140.7790 C   0  0  0  0  0  0  0  0  0  0  0  0
  179.6550  178.6360  142.9700 C   0  0  0  0  0  2  0  0  0  0  0  0
  187.1090  179.0610  141.2440 C   0  0  0  0  0  2  0  0  0  0  0  0
  179.6990  179.4930  141.7060 C   0  0  0  0  0  2  0  0  0  0  0  0
  185.8180  178.4800  140.6680 C   0  0  0  0  0  2  0  0  0  0  0  0
  185.6890  178.9320  143.7300 C   0  0  1  0  0  3  0  0  0  0  0  0
  180.9340  178.7900  143.8130 C   0  0  0  0  0  2  0  0  0  0  0  0
  183.3540  178.2810  143.6750 N   0  0  2  0  0  0  0  0  0  0  0  0
  187.1210  177.0390  144.4570 O   0  0  0  0  0  0  0  0  0  0  0  0
  188.4690  176.7210  144.7130 C   0  0  0  0  0  2  0  0  0  0  0  0
  189.0230  177.8820  147.9850 C   0  0  0  0  0  2  0  0  0  0  0  0
  190.4080  177.1500  146.2210 C   0  0  0  0  0  2  0  0  0  0  0  0
  189.0630  177.6590  145.7550 C   0  0  2  0  0  3  0  0  0  0  0  0
  190.2960  177.1170  147.7100 C   0  0  0  0  0  2  0  0  0  0  0  0
  188.1950  177.7890  146.8540 O   0  0  0  0  0  0  0  0  0  0  0  0
  1 27  1  0  0  0  0
  1 26  1  1  0  0  0
  2 14  1  0  0  0  0
  3 16  2  0  0  0  0
  3 19  1  0  0  0  0
  4 18  1  0  0  0  0
  4 23  1  1  0  0  0
  5 15  1  0  0  0  0
  5 11  1  1  0  0  0
  6 19  1  0  0  0  0
  7  6  1  0  0  0  0
  7  3  1  0  0  0  0
  8 12  2  0  0  0  0
  9 27  1  0  0  0  0
  9 25  1  0  0  0  0
 10 17  1  0  0  0  0
 11 20  2  0  0  0  0
 12 15  1  0  0  0  0
 13  9  1  0  0  0  0
 15  4  1  0  0  0  0
 16  8  1  0  0  0  0
 17 25  1  0  0  0  0
 17 28  1  0  0  0  0
 18  1  1  0  0  0  0
 19  5  1  0  0  0  0
 20 13  1  0  0  0  0
 20 18  1  0  0  0  0
 21 26  1  0  0  0  0
 22 10  1  0  0  0  0
 23 21  1  0  0  0  0
 24 22  1  0  0  0  0
 24 13  1  0  0  0  0
 25 14  1  0  0  0  0
 27  2  1  0  0  0  0
 28 29  1  0  0  0  0
 29 32  1  0  0  0  0
 31 33  1  0  0  0  0
 32 31  1  0  0  0  0
 32 34  1  0  0  0  0
 33 30  1  0  0  0  0
 34 30  1  0  0  0  0
M  END
>  <MODEL>
9

>  <REMARK>
 VINA RESULT:      -8.7      3.999      9.187
  Name = 
  3 active torsions:
  status: ('A' for Active; 'I' for Inactive)
    1  A    between atoms: C_17  and  O_28
    2  A    between atoms: O_28  and  C_29
    3  A    between atoms: C_29  and  C_32
                            x       y       z     vdW  Elec       q    Type
                         _______ _______ _______ _____ _____    ______ ____

>  <TORSDO>
F 3

$$$$
