=
 OpenBabel11122410333D

 30 35  0  0  1  0  0  0  0  0999 V2000
  189.2090  176.6030  143.3890 C   0  0  0  0  0  0  0  0  0  0  0  0
  191.2690  176.1090  144.6170 C   0  0  0  0  0  0  0  0  0  0  0  0
  187.4210  178.1700  146.8800 N   0  0  0  0  0  0  0  0  0  0  0  0
  187.7550  177.0620  143.2960 C   0  0  0  0  0  0  0  0  0  0  0  0
  189.7950  176.2020  142.0760 C   0  0  0  0  0  2  0  0  0  0  0  0
  188.4310  179.0600  140.2720 O   0  0  0  0  0  0  0  0  0  0  0  0
  185.0190  177.9470  142.7070 C   0  0  1  0  0  3  0  0  0  0  0  0
  188.5480  178.1650  141.1540 C   0  0  0  0  0  0  0  0  0  0  0  0
  185.0380  178.3940  144.0870 N   0  0  0  0  0  0  0  0  0  0  0  0
  186.2680  178.5140  146.3930 C   0  0  2  0  0  3  0  0  0  0  0  0
  189.7170  177.3300  141.1610 N   0  0  0  0  0  0  0  0  0  0  0  0
  187.5180  177.9770  142.1560 N   0  0  0  0  0  0  0  0  0  0  0  0
  191.9790  176.1160  145.8200 C   0  0  0  0  0  3  0  0  0  0  0  0
  183.7780  178.9640  144.5150 C   0  0  0  0  0  2  0  0  0  0  0  0
  183.6790  178.3960  142.1450 C   0  0  0  0  0  2  0  0  0  0  0  0
  191.9050  175.6040  143.5310 F   0  0  0  0  0  0  0  0  0  0  0  0
  188.1300  177.6150  145.7730 C   0  0  0  0  0  0  0  0  0  0  0  0
  191.4010  176.6050  146.9860 C   0  0  0  0  0  3  0  0  0  0  0  0
  189.9340  176.5990  144.5600 C   0  0  0  0  0  0  0  0  0  0  0  0
  187.3210  177.6670  144.5950 C   0  0  0  0  0  0  0  0  0  0  0  0
  185.2080  179.1400  147.2290 C   0  0  0  0  0  1  0  0  0  0  0  0
  186.1640  178.1970  144.9560 C   0  0  0  0  0  0  0  0  0  0  0  0
  182.8260  178.7880  143.3450 C   0  0  0  0  0  2  0  0  0  0  0  0
  186.0160  179.5020  141.1790 O   0  0  0  0  0  0  0  0  0  0  0  0
  190.1010  177.1000  146.9620 C   0  0  0  0  0  3  0  0  0  0  0  0
  189.3640  177.1070  145.7730 C   0  0  0  0  0  0  0  0  0  0  0  0
  186.1910  178.5190  141.9500 C   0  0  0  0  0  0  0  0  0  0  0  0
  190.7930  177.5400  140.2000 C   0  0  0  0  0  2  0  0  0  0  0  0
  193.2510  177.2050  139.9210 C   0  0  0  0  0  1  0  0  0  0  0  0
  192.1440  177.5500  140.9000 C   0  0  0  0  0  2  0  0  0  0  0  0
  1 19  1  0  0  0  0
  2 13  1  0  0  0  0
  4  1  2  0  0  0  0
  4 20  1  0  0  0  0
  5  1  1  0  0  0  0
  6  8  2  0  0  0  0
  7 15  1  6  0  0  0
  7  9  1  0  0  0  0
  8 11  1  0  0  0  0
  8 12  1  0  0  0  0
  9 14  1  0  0  0  0
  9 22  1  0  0  0  0
 10  3  1  0  0  0  0
 10 21  1  1  0  0  0
 11  5  1  0  0  0  0
 12  4  1  0  0  0  0
 13 18  2  0  0  0  0
 15 23  1  0  0  0  0
 16  2  1  0  0  0  0
 17 26  1  0  0  0  0
 17  3  2  0  0  0  0
 19  2  2  0  0  0  0
 19 26  1  0  0  0  0
 20 22  2  0  0  0  0
 20 17  1  0  0  0  0
 22 10  1  0  0  0  0
 23 14  1  0  0  0  0
 24 27  2  0  0  0  0
 25 18  1  0  0  0  0
 26 25  2  0  0  0  0
 27 12  1  0  0  0  0
 27  7  1  0  0  0  0
 28 30  1  0  0  0  0
 28 11  1  0  0  0  0
 29 30  1  0  0  0  0
M  END
>  <MODEL>
1

>  <REMARK>
 VINA RESULT:     -11.2      0.000      0.000
  Name = 
  2 active torsions:
  status: ('A' for Active; 'I' for Inactive)
    1  A    between atoms: N_11  and  C_28
    2  A    between atoms: C_28  and  C_30
                            x       y       z     vdW  Elec       q    Type
                         _______ _______ _______ _____ _____    ______ ____

>  <TORSDO>
F 2

$$$$
=
 OpenBabel11122410333D

 30 35  0  0  1  0  0  0  0  0999 V2000
  187.6160  177.2470  143.9800 C   0  0  0  0  0  0  0  0  0  0  0  0
  188.7400  177.3010  146.1540 C   0  0  0  0  0  0  0  0  0  0  0  0
  184.1520  178.9950  145.6490 N   0  0  0  0  0  0  0  0  0  0  0  0
  186.4050  177.4330  143.0670 C   0  0  0  0  0  0  0  0  0  0  0  0
  188.8340  176.7580  143.2680 C   0  0  0  0  0  2  0  0  0  0  0  0
  188.4480  179.0380  140.4510 O   0  0  0  0  0  0  0  0  0  0  0  0
  184.3460  177.7420  140.9980 C   0  0  1  0  0  3  0  0  0  0  0  0
  188.1390  178.3190  141.4400 C   0  0  0  0  0  0  0  0  0  0  0  0
  183.6020  178.3880  142.0620 N   0  0  0  0  0  0  0  0  0  0  0  0
  183.4120  179.0610  144.5840 C   0  0  0  0  0  0  0  0  0  0  0  0
  189.1780  177.7060  142.2190 N   0  0  0  0  0  0  0  0  0  0  0  0
  186.7490  178.1120  141.7960 N   0  0  0  0  0  0  0  0  0  0  0  0
  188.7030  177.6080  147.5160 C   0  0  0  0  0  3  0  0  0  0  0  0
  182.2720  178.7930  141.6580 C   0  0  0  0  0  2  0  0  0  0  0  0
  183.4810  177.8670  139.7530 C   0  0  0  0  0  2  0  0  0  0  0  0
  189.8870  176.7530  145.6790 F   0  0  0  0  0  0  0  0  0  0  0  0
  185.3740  178.4080  145.2040 C   0  0  2  0  0  3  0  0  0  0  0  0
  187.5640  178.1620  148.0910 C   0  0  0  0  0  3  0  0  0  0  0  0
  187.6090  177.5420  145.3240 C   0  0  0  0  0  0  0  0  0  0  0  0
  185.3100  178.1440  143.8000 C   0  0  0  0  0  0  0  0  0  0  0  0
  182.0320  179.6170  144.6090 C   0  0  0  0  0  1  0  0  0  0  0  0
  184.1070  178.5180  143.4010 C   0  0  0  0  0  0  0  0  0  0  0  0
  182.0980  178.2840  140.2380 C   0  0  0  0  0  2  0  0  0  0  0  0
  185.8960  179.1960  139.8900 O   0  0  0  0  0  0  0  0  0  0  0  0
  186.4450  178.4200  147.3060 C   0  0  0  0  0  3  0  0  0  0  0  0
  186.4510  178.1230  145.9390 C   0  0  0  0  0  0  0  0  0  0  0  0
  185.7010  178.3830  140.8350 C   0  0  0  0  0  0  0  0  0  0  0  0
  190.5830  177.9480  141.9160 C   0  0  0  0  0  2  0  0  0  0  0  0
  191.1750  179.3130  143.9200 C   0  0  0  0  0  1  0  0  0  0  0  0
  191.4070  178.0020  143.1940 C   0  0  0  0  0  2  0  0  0  0  0  0
  1 19  1  0  0  0  0
  2 13  1  0  0  0  0
  4 20  1  0  0  0  0
  4  1  2  0  0  0  0
  5  1  1  0  0  0  0
  6  8  2  0  0  0  0
  7 15  1  6  0  0  0
  7  9  1  0  0  0  0
  8 12  1  0  0  0  0
  8 11  1  0  0  0  0
  9 22  1  0  0  0  0
 10 21  1  0  0  0  0
 10  3  2  0  0  0  0
 11  5  1  0  0  0  0
 12  4  1  0  0  0  0
 13 18  2  0  0  0  0
 14  9  1  0  0  0  0
 15 23  1  0  0  0  0
 16  2  1  0  0  0  0
 17 20  1  1  0  0  0
 17  3  1  0  0  0  0
 17 26  1  0  0  0  0
 19 26  1  0  0  0  0
 19  2  2  0  0  0  0
 22 20  2  0  0  0  0
 22 10  1  0  0  0  0
 23 14  1  0  0  0  0
 24 27  2  0  0  0  0
 25 18  1  0  0  0  0
 26 25  2  0  0  0  0
 27  7  1  0  0  0  0
 27 12  1  0  0  0  0
 28 11  1  0  0  0  0
 28 30  1  0  0  0  0
 30 29  1  0  0  0  0
M  END
>  <MODEL>
2

>  <REMARK>
 VINA RESULT:     -10.4      1.771      2.783
  Name = 
  2 active torsions:
  status: ('A' for Active; 'I' for Inactive)
    1  A    between atoms: N_11  and  C_28
    2  A    between atoms: C_28  and  C_30
                            x       y       z     vdW  Elec       q    Type
                         _______ _______ _______ _____ _____    ______ ____

>  <TORSDO>
F 2

$$$$
=
 OpenBabel11122410333D

 30 35  0  0  1  0  0  0  0  0999 V2000
  187.9920  177.2230  143.0520 C   0  0  0  0  0  0  0  0  0  0  0  0
  186.0420  178.0000  144.3120 C   0  0  0  0  0  0  0  0  0  0  0  0
  186.3820  178.7740  139.4690 N   0  0  0  0  0  0  0  0  0  0  0  0
  188.7720  176.9810  141.7610 C   0  0  0  0  0  0  0  0  0  0  0  0
  188.7090  176.7670  144.2800 C   0  0  0  0  0  2  0  0  0  0  0  0
  191.9180  178.1710  143.2720 O   0  0  0  0  0  0  0  0  0  0  0  0
  190.5950  176.4320  139.5270 C   0  0  1  0  0  3  0  0  0  0  0  0
  190.7570  177.6870  143.1760 C   0  0  0  0  0  0  0  0  0  0  0  0
  189.6320  177.2020  138.7620 N   0  0  0  0  0  0  0  0  0  0  0  0
  187.3360  178.4520  138.6490 C   0  0  0  0  0  0  0  0  0  0  0  0
  189.9850  177.4610  144.3650 N   0  0  0  0  0  0  0  0  0  0  0  0
  190.1990  177.3620  141.8780 N   0  0  0  0  0  0  0  0  0  0  0  0
  184.7970  178.6320  144.3260 C   0  0  0  0  0  3  0  0  0  0  0  0
  189.9590  177.2790  137.3540 C   0  0  0  0  0  2  0  0  0  0  0  0
  191.7210  176.1020  138.5600 C   0  0  0  0  0  2  0  0  0  0  0  0
  186.5080  177.5360  145.4990 F   0  0  0  0  0  0  0  0  0  0  0  0
  186.8180  178.2920  140.7390 C   0  0  2  0  0  3  0  0  0  0  0  0
  184.2370  179.1290  143.1530 C   0  0  0  0  0  3  0  0  0  0  0  0
  186.7640  177.8440  143.0950 C   0  0  0  0  0  0  0  0  0  0  0  0
  188.1030  177.6740  140.6160 C   0  0  0  0  0  0  0  0  0  0  0  0
  187.2780  178.7740  137.1970 C   0  0  0  0  0  1  0  0  0  0  0  0
  188.4320  177.7430  139.3370 C   0  0  0  0  0  0  0  0  0  0  0  0
  191.1880  176.4070  137.1660 C   0  0  0  0  0  2  0  0  0  0  0  0
  192.1920  177.7820  140.6990 O   0  0  0  0  0  0  0  0  0  0  0  0
  184.9220  179.0020  141.9490 C   0  0  0  0  0  3  0  0  0  0  0  0
  186.1710  178.3730  141.9020 C   0  0  0  0  0  0  0  0  0  0  0  0
  191.0650  177.2150  140.7270 C   0  0  0  0  0  0  0  0  0  0  0  0
  190.5020  177.8340  145.6760 C   0  0  0  0  0  2  0  0  0  0  0  0
  189.1170  177.9530  147.7490 C   0  0  0  0  0  1  0  0  0  0  0  0
  189.8200  177.0290  146.7720 C   0  0  0  0  0  2  0  0  0  0  0  0
  1 19  1  0  0  0  0
  1  5  1  0  0  0  0
  2 13  1  0  0  0  0
  2 16  1  0  0  0  0
  4 12  1  0  0  0  0
  4  1  2  0  0  0  0
  5 11  1  0  0  0  0
  7 15  1  6  0  0  0
  7 27  1  0  0  0  0
  8  6  2  0  0  0  0
  8 11  1  0  0  0  0
  9 22  1  0  0  0  0
  9  7  1  0  0  0  0
 10 22  1  0  0  0  0
 10  3  2  0  0  0  0
 11 28  1  0  0  0  0
 12  8  1  0  0  0  0
 14  9  1  0  0  0  0
 17  3  1  6  0  0  0
 17 26  1  0  0  0  0
 18 13  2  0  0  0  0
 19  2  2  0  0  0  0
 20 17  1  0  0  0  0
 20  4  1  0  0  0  0
 21 10  1  0  0  0  0
 22 20  2  0  0  0  0
 23 14  1  0  0  0  0
 23 15  1  0  0  0  0
 24 27  2  0  0  0  0
 25 18  1  0  0  0  0
 26 25  2  0  0  0  0
 26 19  1  0  0  0  0
 27 12  1  0  0  0  0
 28 30  1  0  0  0  0
 30 29  1  0  0  0  0
M  END
>  <MODEL>
3

>  <REMARK>
 VINA RESULT:     -10.1      2.524      6.485
  Name = 
  2 active torsions:
  status: ('A' for Active; 'I' for Inactive)
    1  A    between atoms: N_11  and  C_28
    2  A    between atoms: C_28  and  C_30
                            x       y       z     vdW  Elec       q    Type
                         _______ _______ _______ _____ _____    ______ ____

>  <TORSDO>
F 2

$$$$
=
 OpenBabel11122410333D

 30 35  0  0  1  0  0  0  0  0999 V2000
  187.7540  177.2570  143.9830 C   0  0  0  0  0  0  0  0  0  0  0  0
  186.5010  177.8020  146.0140 C   0  0  0  0  0  0  0  0  0  0  0  0
  184.8540  179.1870  141.5930 N   0  0  0  0  0  0  0  0  0  0  0  0
  187.9360  177.2060  142.4660 C   0  0  0  0  0  0  0  0  0  0  0  0
  188.8990  176.6760  144.7430 C   0  0  0  0  0  2  0  0  0  0  0  0
  191.4460  178.3080  142.7090 O   0  0  0  0  0  0  0  0  0  0  0  0
  188.6800  177.0050  139.6340 C   0  0  1  0  0  3  0  0  0  0  0  0
  190.3380  177.7990  143.0310 C   0  0  0  0  0  0  0  0  0  0  0  0
  187.5040  177.8300  139.4330 N   0  0  0  0  0  0  0  0  0  0  0  0
  185.3850  179.0030  140.4230 C   0  0  0  0  0  0  0  0  0  0  0  0
  190.1130  177.3990  144.3920 N   0  0  0  0  0  0  0  0  0  0  0  0
  189.2930  177.6190  142.0410 N   0  0  0  0  0  0  0  0  0  0  0  0
  185.3810  178.3830  146.6130 C   0  0  0  0  0  3  0  0  0  0  0  0
  187.2300  178.0940  138.0350 C   0  0  0  0  0  2  0  0  0  0  0  0
  189.3090  176.8380  138.2590 C   0  0  0  0  0  2  0  0  0  0  0  0
  187.4000  177.2090  146.8390 F   0  0  0  0  0  0  0  0  0  0  0  0
  185.7600  178.5650  142.5030 C   0  0  2  0  0  3  0  0  0  0  0  0
  184.4020  179.0020  145.8430 C   0  0  0  0  0  3  0  0  0  0  0  0
  186.6620  177.8250  144.6000 C   0  0  0  0  0  0  0  0  0  0  0  0
  186.8710  178.0130  141.7910 C   0  0  0  0  0  0  0  0  0  0  0  0
  184.7470  179.5020  139.1740 C   0  0  0  0  0  1  0  0  0  0  0  0
  186.6530  178.2520  140.5090 C   0  0  0  0  0  0  0  0  0  0  0  0
  188.2600  177.2960  137.2540 C   0  0  0  0  0  2  0  0  0  0  0  0
  190.6410  178.2530  140.2190 O   0  0  0  0  0  0  0  0  0  0  0  0
  184.5340  179.0510  144.4590 C   0  0  0  0  0  3  0  0  0  0  0  0
  185.6440  178.4770  143.8290 C   0  0  0  0  0  0  0  0  0  0  0  0
  189.6120  177.6470  140.6290 C   0  0  0  0  0  0  0  0  0  0  0  0
  191.1260  177.6240  145.4150 C   0  0  0  0  0  2  0  0  0  0  0  0
  192.0540  175.9890  147.0570 C   0  0  0  0  0  1  0  0  0  0  0  0
  190.8310  176.7910  146.6550 C   0  0  0  0  0  2  0  0  0  0  0  0
  1 19  1  0  0  0  0
  1  5  1  0  0  0  0
  2 13  1  0  0  0  0
  2 16  1  0  0  0  0
  4  1  2  0  0  0  0
  6  8  2  0  0  0  0
  7 15  1  6  0  0  0
  7 27  1  0  0  0  0
  8 11  1  0  0  0  0
  9  7  1  0  0  0  0
  9 22  1  0  0  0  0
 10 22  1  0  0  0  0
 10  3  2  0  0  0  0
 11  5  1  0  0  0  0
 11 28  1  0  0  0  0
 12  4  1  0  0  0  0
 12  8  1  0  0  0  0
 14  9  1  0  0  0  0
 17  3  1  6  0  0  0
 17 26  1  0  0  0  0
 18 13  2  0  0  0  0
 19  2  2  0  0  0  0
 20  4  1  0  0  0  0
 20 17  1  0  0  0  0
 21 10  1  0  0  0  0
 22 20  2  0  0  0  0
 23 14  1  0  0  0  0
 23 15  1  0  0  0  0
 24 27  2  0  0  0  0
 25 18  1  0  0  0  0
 26 25  2  0  0  0  0
 26 19  1  0  0  0  0
 27 12  1  0  0  0  0
 28 30  1  0  0  0  0
 30 29  1  0  0  0  0
M  END
>  <MODEL>
4

>  <REMARK>
 VINA RESULT:      -9.7      2.255      5.322
  Name = 
  2 active torsions:
  status: ('A' for Active; 'I' for Inactive)
    1  A    between atoms: N_11  and  C_28
    2  A    between atoms: C_28  and  C_30
                            x       y       z     vdW  Elec       q    Type
                         _______ _______ _______ _____ _____    ______ ____

>  <TORSDO>
F 2

$$$$
=
 OpenBabel11122410333D

 30 35  0  0  1  0  0  0  0  0999 V2000
  184.9190  178.9620  142.4930 C   0  0  0  0  0  0  0  0  0  0  0  0
  184.7020  178.7380  144.9210 C   0  0  0  0  0  0  0  0  0  0  0  0
  188.7760  177.2430  142.6090 N   0  0  0  0  0  0  0  0  0  0  0  0
  185.6970  178.8750  141.1810 C   0  0  0  0  0  0  0  0  0  0  0  0
  183.5180  179.4490  142.3270 C   0  0  0  0  0  2  0  0  0  0  0  0
  182.8340  177.3560  139.4220 O   0  0  0  0  0  0  0  0  0  0  0  0
  186.8240  178.7640  138.4730 C   0  0  1  0  0  3  0  0  0  0  0  0
  183.4860  178.0250  140.2700 C   0  0  0  0  0  0  0  0  0  0  0  0
  187.9220  178.0830  139.1310 N   0  0  0  0  0  0  0  0  0  0  0  0
  189.0590  177.2670  141.3430 C   0  0  0  0  0  0  0  0  0  0  0  0
  182.8120  178.5530  141.4230 N   0  0  0  0  0  0  0  0  0  0  0  0
  184.9050  178.2610  140.0890 N   0  0  0  0  0  0  0  0  0  0  0  0
  185.2540  178.3510  146.1440 C   0  0  0  0  0  3  0  0  0  0  0  0
  189.0050  177.7510  138.2290 C   0  0  0  0  0  2  0  0  0  0  0  0
  187.1550  178.7450  136.9880 C   0  0  0  0  0  2  0  0  0  0  0  0
  183.4550  179.2720  144.9520 F   0  0  0  0  0  0  0  0  0  0  0  0
  187.4700  177.8110  142.6990 C   0  0  2  0  0  3  0  0  0  0  0  0
  186.5320  177.8050  146.2080 C   0  0  0  0  0  3  0  0  0  0  0  0
  185.4380  178.5870  143.7120 C   0  0  0  0  0  0  0  0  0  0  0  0
  186.9950  178.1610  141.3960 C   0  0  0  0  0  0  0  0  0  0  0  0
  190.3520  176.7610  140.8080 C   0  0  0  0  0  1  0  0  0  0  0  0
  187.9620  177.8550  140.5490 C   0  0  0  0  0  0  0  0  0  0  0  0
  188.6230  178.3490  136.8870 C   0  0  0  0  0  2  0  0  0  0  0  0
  184.9850  177.3240  137.9320 O   0  0  0  0  0  0  0  0  0  0  0  0
  187.2730  177.6350  145.0440 C   0  0  0  0  0  3  0  0  0  0  0  0
  186.7480  178.0130  143.8030 C   0  0  0  0  0  0  0  0  0  0  0  0
  185.5150  178.0850  138.7880 C   0  0  0  0  0  0  0  0  0  0  0  0
  181.3990  178.2790  141.6550 C   0  0  0  0  0  2  0  0  0  0  0  0
  180.2130  178.3610  143.8500 C   0  0  0  0  0  1  0  0  0  0  0  0
  180.8490  179.1860  142.7460 C   0  0  0  0  0  2  0  0  0  0  0  0
  1 19  1  0  0  0  0
  2 16  1  0  0  0  0
  2 13  1  0  0  0  0
  3 17  1  0  0  0  0
  4 20  1  0  0  0  0
  4  1  2  0  0  0  0
  5  1  1  0  0  0  0
  6  8  2  0  0  0  0
  7 15  1  6  0  0  0
  7 27  1  0  0  0  0
  7  9  1  0  0  0  0
  8 11  1  0  0  0  0
  9 22  1  0  0  0  0
 10  3  2  0  0  0  0
 11 28  1  0  0  0  0
 11  5  1  0  0  0  0
 12  8  1  0  0  0  0
 12  4  1  0  0  0  0
 13 18  2  0  0  0  0
 14  9  1  0  0  0  0
 17 20  1  1  0  0  0
 17 26  1  0  0  0  0
 19 26  1  0  0  0  0
 19  2  2  0  0  0  0
 21 10  1  0  0  0  0
 22 10  1  0  0  0  0
 22 20  2  0  0  0  0
 23 15  1  0  0  0  0
 23 14  1  0  0  0  0
 24 27  2  0  0  0  0
 25 18  1  0  0  0  0
 26 25  2  0  0  0  0
 27 12  1  0  0  0  0
 28 30  1  0  0  0  0
 30 29  1  0  0  0  0
M  END
>  <MODEL>
5

>  <REMARK>
 VINA RESULT:      -8.6      3.082      6.629
  Name = 
  2 active torsions:
  status: ('A' for Active; 'I' for Inactive)
    1  A    between atoms: N_11  and  C_28
    2  A    between atoms: C_28  and  C_30
                            x       y       z     vdW  Elec       q    Type
                         _______ _______ _______ _____ _____    ______ ____

>  <TORSDO>
F 2

$$$$
=
 OpenBabel11122410333D

 30 35  0  0  1  0  0  0  0  0999 V2000
  187.1420  178.5330  140.2140 C   0  0  0  0  0  0  0  0  0  0  0  0
  184.8670  178.7990  139.3490 C   0  0  0  0  0  0  0  0  0  0  0  0
  185.6560  177.8860  144.1150 N   0  0  0  0  0  0  0  0  0  0  0  0
  188.1590  178.3540  141.3400 C   0  0  2  0  0  3  0  0  0  0  0  0
  187.7580  178.6100  138.8570 C   0  0  0  0  0  2  0  0  0  0  0  0
  190.0440  175.8290  139.4260 O   0  0  0  0  0  0  0  0  0  0  0  0
  190.3890  177.9340  143.2020 C   0  0  1  0  0  3  0  0  0  0  0  0
  189.2880  176.8070  139.6760 C   0  0  0  0  0  0  0  0  0  0  0  0
  189.3300  177.7060  144.1670 N   0  0  0  0  0  0  0  0  0  0  0  0
  186.7770  177.7010  144.7430 C   0  0  0  0  0  0  0  0  0  0  0  0
  188.5170  177.3920  138.6150 N   0  0  0  0  0  0  0  0  0  0  0  0
  189.1900  177.3400  141.0200 N   0  0  0  0  0  0  0  0  0  0  0  0
  183.4910  178.8390  139.5840 C   0  0  0  0  0  3  0  0  0  0  0  0
  189.8260  177.4620  145.5050 C   0  0  0  0  0  2  0  0  0  0  0  0
  191.6890  177.6720  143.9460 C   0  0  0  0  0  2  0  0  0  0  0  0
  185.2780  179.0020  138.0720 F   0  0  0  0  0  0  0  0  0  0  0  0
  186.0340  178.1200  142.7600 C   0  0  0  0  0  0  0  0  0  0  0  0
  182.9820  178.6530  140.8650 C   0  0  0  0  0  3  0  0  0  0  0  0
  185.7800  178.5740  140.4170 C   0  0  0  0  0  0  0  0  0  0  0  0
  187.4570  178.0480  142.6270 C   0  0  0  0  0  0  0  0  0  0  0  0
  186.8330  177.4250  146.2040 C   0  0  0  0  0  1  0  0  0  0  0  0
  187.9360  177.8110  143.8360 C   0  0  0  0  0  0  0  0  0  0  0  0
  191.3320  177.6380  145.4260 C   0  0  0  0  0  2  0  0  0  0  0  0
  190.9220  176.0030  141.8860 O   0  0  0  0  0  0  0  0  0  0  0  0
  183.8470  178.4200  141.9290 C   0  0  0  0  0  3  0  0  0  0  0  0
  185.2300  178.3750  141.7260 C   0  0  0  0  0  0  0  0  0  0  0  0
  190.2120  177.0390  142.0010 C   0  0  0  0  0  0  0  0  0  0  0  0
  188.5540  176.8360  137.2680 C   0  0  0  0  0  2  0  0  0  0  0  0
  186.3030  175.8080  136.9420 C   0  0  0  0  0  1  0  0  0  0  0  0
  187.2000  176.9800  136.5890 C   0  0  0  0  0  2  0  0  0  0  0  0
  1 19  2  0  0  0  0
  2 13  2  0  0  0  0
  2 19  1  0  0  0  0
  3 10  2  0  0  0  0
  4  1  1  6  0  0  0
  4 20  1  0  0  0  0
  5  1  1  0  0  0  0
  6  8  2  0  0  0  0
  7 15  1  1  0  0  0
  7  9  1  0  0  0  0
  8 12  1  0  0  0  0
  9 14  1  0  0  0  0
 10 21  1  0  0  0  0
 11  5  1  0  0  0  0
 11  8  1  0  0  0  0
 12  4  1  0  0  0  0
 12 27  1  0  0  0  0
 13 18  1  0  0  0  0
 15 23  1  0  0  0  0
 16  2  1  0  0  0  0
 17  3  1  0  0  0  0
 18 25  2  0  0  0  0
 19 26  1  0  0  0  0
 20 17  1  0  0  0  0
 20 22  2  0  0  0  0
 22  9  1  0  0  0  0
 22 10  1  0  0  0  0
 23 14  1  0  0  0  0
 24 27  2  0  0  0  0
 26 25  1  0  0  0  0
 26 17  2  0  0  0  0
 27  7  1  0  0  0  0
 28 11  1  0  0  0  0
 30 29  1  0  0  0  0
 30 28  1  0  0  0  0
M  END
>  <MODEL>
6

>  <REMARK>
 VINA RESULT:      -8.6      2.881      5.931
  Name = 
  2 active torsions:
  status: ('A' for Active; 'I' for Inactive)
    1  A    between atoms: N_11  and  C_28
    2  A    between atoms: C_28  and  C_30
                            x       y       z     vdW  Elec       q    Type
                         _______ _______ _______ _____ _____    ______ ____

>  <TORSDO>
F 2

$$$$
=
 OpenBabel11122410333D

 30 35  0  0  1  0  0  0  0  0999 V2000
  187.8570  178.4040  140.2470 C   0  0  0  0  0  0  0  0  0  0  0  0
  188.5360  178.0620  137.9210 C   0  0  0  0  0  0  0  0  0  0  0  0
  183.7800  178.2350  139.1560 N   0  0  0  0  0  0  0  0  0  0  0  0
  186.8190  178.6400  141.3430 C   0  0  2  0  0  3  0  0  0  0  0  0
  189.2600  178.3400  140.7550 C   0  0  0  0  0  2  0  0  0  0  0  0
  188.4360  176.2080  143.5940 O   0  0  0  0  0  0  0  0  0  0  0  0
  185.1330  179.0150  143.7170 C   0  0  1  0  0  3  0  0  0  0  0  0
  188.2890  177.0520  142.6680 C   0  0  0  0  0  0  0  0  0  0  0  0
  184.0470  178.7750  142.7850 N   0  0  0  0  0  0  0  0  0  0  0  0
  183.2390  178.3900  140.3260 C   0  0  0  0  0  0  0  0  0  0  0  0
  189.3580  177.2670  141.7320 N   0  0  0  0  0  0  0  0  0  0  0  0
  187.0550  177.8000  142.5410 N   0  0  0  0  0  0  0  0  0  0  0  0
  188.1810  177.8800  136.5820 C   0  0  0  0  0  3  0  0  0  0  0  0
  182.7400  178.8880  143.3980 C   0  0  0  0  0  2  0  0  0  0  0  0
  184.4820  179.1520  145.0840 C   0  0  0  0  0  2  0  0  0  0  0  0
  189.8620  178.0940  138.2050 F   0  0  0  0  0  0  0  0  0  0  0  0
  185.1860  178.2760  139.3990 C   0  0  0  0  0  0  0  0  0  0  0  0
  186.8450  177.8460  136.1970 C   0  0  0  0  0  3  0  0  0  0  0  0
  187.5360  178.2210  138.9210 C   0  0  0  0  0  0  0  0  0  0  0  0
  185.4390  178.4540  140.7950 C   0  0  0  0  0  0  0  0  0  0  0  0
  181.7640  178.4110  140.5220 C   0  0  0  0  0  1  0  0  0  0  0  0
  184.2580  178.5470  141.3830 C   0  0  0  0  0  0  0  0  0  0  0  0
  182.9910  179.3320  144.8280 C   0  0  0  0  0  2  0  0  0  0  0  0
  186.1380  177.0080  144.5580 O   0  0  0  0  0  0  0  0  0  0  0  0
  185.8440  177.9880  137.1520 C   0  0  0  0  0  3  0  0  0  0  0  0
  186.1670  178.1720  138.5010 C   0  0  0  0  0  0  0  0  0  0  0  0
  186.1380  177.8920  143.6580 C   0  0  0  0  0  0  0  0  0  0  0  0
  190.5850  176.4840  141.8050 C   0  0  0  0  0  2  0  0  0  0  0  0
  191.7040  177.8250  143.5880 C   0  0  0  0  0  1  0  0  0  0  0  0
  191.7720  177.3750  142.1410 C   0  0  0  0  0  2  0  0  0  0  0  0
  1  5  1  0  0  0  0
  2 16  1  0  0  0  0
  2 19  1  0  0  0  0
  3 17  1  0  0  0  0
  3 10  2  0  0  0  0
  4  1  1  6  0  0  0
  4 12  1  0  0  0  0
  5 11  1  0  0  0  0
  7 15  1  1  0  0  0
  8  6  2  0  0  0  0
  9 14  1  0  0  0  0
  9  7  1  0  0  0  0
 10 21  1  0  0  0  0
 10 22  1  0  0  0  0
 11 28  1  0  0  0  0
 11  8  1  0  0  0  0
 12  8  1  0  0  0  0
 12 27  1  0  0  0  0
 13  2  2  0  0  0  0
 14 23  1  0  0  0  0
 17 20  1  0  0  0  0
 18 13  1  0  0  0  0
 18 25  2  0  0  0  0
 19  1  2  0  0  0  0
 20  4  1  0  0  0  0
 20 22  2  0  0  0  0
 22  9  1  0  0  0  0
 23 15  1  0  0  0  0
 25 26  1  0  0  0  0
 26 19  1  0  0  0  0
 26 17  2  0  0  0  0
 27  7  1  0  0  0  0
 27 24  2  0  0  0  0
 28 30  1  0  0  0  0
 30 29  1  0  0  0  0
M  END
>  <MODEL>
7

>  <REMARK>
 VINA RESULT:      -8.3      2.815      5.573
  Name = 
  2 active torsions:
  status: ('A' for Active; 'I' for Inactive)
    1  A    between atoms: N_11  and  C_28
    2  A    between atoms: C_28  and  C_30
                            x       y       z     vdW  Elec       q    Type
                         _______ _______ _______ _____ _____    ______ ____

>  <TORSDO>
F 2

$$$$
