=
 OpenBabel11122410303D

 30 35  0  0  1  0  0  0  0  0999 V2000
  188.5030  178.0790  145.4740 C   0  0  2  0  0  3  0  0  0  0  0  0
  186.2950  178.1360  146.7610 C   0  0  0  0  0  0  0  0  0  0  0  0
  186.2420  178.7740  141.8810 N   0  0  0  0  0  2  0  0  0  0  0  0
  189.1660  178.1990  144.0520 C   0  0  1  0  0  3  0  0  0  0  0  0
  188.9530  176.8070  146.2010 C   0  0  0  0  0  2  0  0  0  0  0  0
  191.8310  178.4880  145.3620 O   0  0  0  0  0  1  0  0  0  0  0  0
  190.6640  176.6000  141.4650 C   0  0  1  0  0  3  0  0  0  0  0  0
  191.2560  177.2320  145.1540 C   0  0  1  0  0  3  0  0  0  0  0  0
  189.2380  176.8680  140.9530 C   0  0  2  0  0  3  0  0  0  0  0  0
  187.2220  178.4310  140.9130 C   0  0  0  0  0  0  0  0  0  0  0  0
  190.4730  176.8130  146.4070 C   0  0  2  0  0  3  0  0  0  0  0  0
  190.3730  177.2450  143.9020 C   0  0  2  0  0  3  0  0  0  0  0  0
  184.9060  178.2800  146.8120 C   0  0  0  0  0  3  0  0  0  0  0  0
  189.4280  176.9500  139.4640 C   0  0  0  0  0  2  0  0  0  0  0  0
  191.5680  176.6430  140.3890 O   0  0  0  0  0  0  0  0  0  0  0  0
  186.9660  177.8990  147.9150 F   0  0  0  0  0  0  0  0  0  0  0  0
  186.9840  178.8720  143.1210 C   0  0  2  0  0  3  0  0  0  0  0  0
  184.1820  178.5640  145.6540 C   0  0  0  0  0  3  0  0  0  0  0  0
  186.9790  178.2450  145.5320 C   0  0  0  0  0  0  0  0  0  0  0  0
  188.1440  177.9240  142.9580 C   0  0  1  0  0  3  0  0  0  0  0  0
  186.9730  178.4410  139.6780 O   0  0  0  0  0  0  0  0  0  0  0  0
  188.5680  178.1370  141.5080 C   0  0  1  0  0  3  0  0  0  0  0  0
  190.8020  176.3740  139.2480 C   0  0  0  0  0  2  0  0  0  0  0  0
  191.3190  178.7960  142.2840 O   0  0  0  0  0  1  0  0  0  0  0  0
  184.8470  178.7170  144.4370 C   0  0  0  0  0  3  0  0  0  0  0  0
  186.2340  178.5490  144.3670 C   0  0  0  0  0  0  0  0  0  0  0  0
  191.1940  177.4470  142.6300 C   0  0  2  0  0  3  0  0  0  0  0  0
  190.9470  175.4430  146.8680 C   0  0  0  0  0  2  0  0  0  0  0  0
  192.8460  175.9100  148.4180 C   0  0  0  0  0  1  0  0  0  0  0  0
  192.4580  175.4080  147.0400 C   0  0  0  0  0  2  0  0  0  0  0  0
  1 19  1  0  0  0  0
  1  5  1  6  0  0  0
  2 13  1  0  0  0  0
  2 16  1  0  0  0  0
  3 17  1  0  0  0  0
  4  1  1  0  0  0  0
  5 11  1  0  0  0  0
  7 27  1  0  0  0  0
  8  6  1  0  0  0  0
  8 11  1  0  0  0  0
  9  7  1  0  0  0  0
  9 22  1  0  0  0  0
 10 22  1  0  0  0  0
 10  3  1  0  0  0  0
 11 28  1  0  0  0  0
 12  4  1  0  0  0  0
 12  8  1  0  0  0  0
 14  9  1  0  0  0  0
 15  7  1  0  0  0  0
 17 26  1  0  0  0  0
 18 13  2  0  0  0  0
 19  2  2  0  0  0  0
 20 17  1  0  0  0  0
 20  4  1  0  0  0  0
 21 10  2  0  0  0  0
 22 20  1  0  0  0  0
 23 14  1  0  0  0  0
 23 15  1  0  0  0  0
 24 27  1  0  0  0  0
 25 18  1  0  0  0  0
 26 25  2  0  0  0  0
 26 19  1  0  0  0  0
 27 12  1  0  0  0  0
 28 30  1  0  0  0  0
 30 29  1  0  0  0  0
M  END
>  <MODEL>
1

>  <REMARK>
 VINA RESULT:      -8.9      0.000      0.000
  Name = 
  2 active torsions:
  status: ('A' for Active; 'I' for Inactive)
    1  A    between atoms: C_11  and  C_28
    2  A    between atoms: C_28  and  C_30
                            x       y       z     vdW  Elec       q    Type
                         _______ _______ _______ _____ _____    ______ ____

>  <TORSDO>
F 2

$$$$
=
 OpenBabel11122410303D

 30 35  0  0  1  0  0  0  0  0999 V2000
  187.6870  178.1820  143.0590 C   0  0  2  0  0  3  0  0  0  0  0  0
  186.1510  178.1750  145.1040 C   0  0  0  0  0  0  0  0  0  0  0  0
  184.2640  179.2740  140.6930 N   0  0  0  0  0  2  0  0  0  0  0  0
  187.7570  178.4180  141.5050 C   0  0  1  0  0  3  0  0  0  0  0  0
  188.3030  176.8350  143.4540 C   0  0  0  0  0  2  0  0  0  0  0  0
  190.7330  178.5100  141.6940 O   0  0  0  0  0  1  0  0  0  0  0  0
  188.0430  177.0310  138.4250 C   0  0  1  0  0  3  0  0  0  0  0  0
  190.0460  177.2960  141.6300 C   0  0  1  0  0  3  0  0  0  0  0  0
  186.5480  177.3850  138.5300 C   0  0  2  0  0  3  0  0  0  0  0  0
  184.7720  178.9980  139.3970 C   0  0  0  0  0  0  0  0  0  0  0  0
  189.7820  176.7810  143.0530 C   0  0  2  0  0  3  0  0  0  0  0  0
  188.7520  177.4510  140.8250 C   0  0  2  0  0  3  0  0  0  0  0  0
  184.9010  178.3520  145.7020 C   0  0  0  0  0  3  0  0  0  0  0  0
  186.1550  177.6030  137.0950 C   0  0  0  0  0  2  0  0  0  0  0  0
  188.4630  177.1520  137.0890 O   0  0  0  0  0  0  0  0  0  0  0  0
  187.2000  177.8120  145.8840 F   0  0  0  0  0  0  0  0  0  0  0  0
  185.4310  179.2350  141.5510 C   0  0  2  0  0  3  0  0  0  0  0  0
  183.8060  178.7630  144.9420 C   0  0  0  0  0  3  0  0  0  0  0  0
  186.3150  178.3820  143.7180 C   0  0  0  0  0  0  0  0  0  0  0  0
  186.3780  178.2750  140.8770 C   0  0  1  0  0  3  0  0  0  0  0  0
  184.0690  179.1320  138.3610 O   0  0  0  0  0  0  0  0  0  0  0  0
  186.2230  178.6130  139.3970 C   0  0  1  0  0  3  0  0  0  0  0  0
  187.3030  177.0130  136.3190 C   0  0  0  0  0  2  0  0  0  0  0  0
  189.0960  179.1220  139.0910 O   0  0  0  0  0  1  0  0  0  0  0  0
  183.9590  179.0130  143.5780 C   0  0  0  0  0  3  0  0  0  0  0  0
  185.2000  178.8150  142.9610 C   0  0  0  0  0  0  0  0  0  0  0  0
  189.0310  177.7500  139.3540 C   0  0  2  0  0  3  0  0  0  0  0  0
  190.3120  175.3610  143.1870 C   0  0  0  0  0  2  0  0  0  0  0  0
  191.6350  176.4150  145.0210 C   0  0  0  0  0  1  0  0  0  0  0  0
  191.6190  175.3280  143.9630 C   0  0  0  0  0  2  0  0  0  0  0  0
  1  5  1  6  0  0  0
  1 19  1  0  0  0  0
  2 13  1  0  0  0  0
  2 16  1  0  0  0  0
  3 17  1  0  0  0  0
  4  1  1  0  0  0  0
  7  9  1  0  0  0  0
  7 27  1  0  0  0  0
  8  6  1  0  0  0  0
  8 11  1  0  0  0  0
  9 22  1  0  0  0  0
 10  3  1  0  0  0  0
 11 28  1  0  0  0  0
 11  5  1  0  0  0  0
 12  4  1  0  0  0  0
 12  8  1  0  0  0  0
 14  9  1  0  0  0  0
 15  7  1  0  0  0  0
 17 26  1  0  0  0  0
 18 13  2  0  0  0  0
 19  2  2  0  0  0  0
 20  4  1  0  0  0  0
 20 17  1  0  0  0  0
 21 10  2  0  0  0  0
 22 10  1  0  0  0  0
 22 20  1  0  0  0  0
 23 15  1  0  0  0  0
 23 14  1  0  0  0  0
 24 27  1  0  0  0  0
 25 18  1  0  0  0  0
 26 25  2  0  0  0  0
 26 19  1  0  0  0  0
 27 12  1  0  0  0  0
 28 30  1  0  0  0  0
 30 29  1  0  0  0  0
M  END
>  <MODEL>
2

>  <REMARK>
 VINA RESULT:      -8.7      1.978      3.146
  Name = 
  2 active torsions:
  status: ('A' for Active; 'I' for Inactive)
    1  A    between atoms: C_11  and  C_28
    2  A    between atoms: C_28  and  C_30
                            x       y       z     vdW  Elec       q    Type
                         _______ _______ _______ _____ _____    ______ ____

>  <TORSDO>
F 2

$$$$
=
 OpenBabel11122410303D

 30 35  0  0  1  0  0  0  0  0999 V2000
  189.4430  177.8000  143.3780 C   0  0  2  0  0  3  0  0  0  0  0  0
  191.1960  176.6170  144.8150 C   0  0  0  0  0  0  0  0  0  0  0  0
  186.9840  178.0840  146.8970 N   0  0  0  0  0  2  0  0  0  0  0  0
  188.0210  178.4730  143.3800 C   0  0  1  0  0  3  0  0  0  0  0  0
  189.5700  176.7510  142.2680 C   0  0  0  0  0  2  0  0  0  0  0  0
  188.6260  179.6660  140.7130 O   0  0  0  0  0  1  0  0  0  0  0  0
  184.7600  178.2400  142.4820 C   0  0  1  0  0  3  0  0  0  0  0  0
  188.1700  178.3520  140.8340 C   0  0  1  0  0  3  0  0  0  0  0  0
  184.7470  177.9350  143.9920 C   0  0  2  0  0  3  0  0  0  0  0  0
  185.7410  178.4070  146.2930 C   0  0  0  0  0  0  0  0  0  0  0  0
  189.3710  177.3960  140.8910 C   0  0  2  0  0  3  0  0  0  0  0  0
  187.2620  178.2080  142.0600 C   0  0  2  0  0  3  0  0  0  0  0  0
  191.6450  176.1130  146.0380 C   0  0  0  0  0  3  0  0  0  0  0  0
  183.3720  178.3760  144.4100 C   0  0  0  0  0  2  0  0  0  0  0  0
  183.5650  178.8870  142.1220 O   0  0  0  0  0  0  0  0  0  0  0  0
  191.9950  176.4890  143.7270 F   0  0  0  0  0  0  0  0  0  0  0  0
  187.9550  178.2650  145.8360 C   0  0  2  0  0  3  0  0  0  0  0  0
  190.8710  176.2590  147.1900 C   0  0  0  0  0  3  0  0  0  0  0  0
  189.9400  177.2530  144.7230 C   0  0  0  0  0  0  0  0  0  0  0  0
  187.1970  177.9850  144.5630 C   0  0  1  0  0  3  0  0  0  0  0  0
  184.6860  178.5410  146.9670 O   0  0  0  0  0  0  0  0  0  0  0  0
  185.8410  178.6380  144.8130 C   0  0  1  0  0  3  0  0  0  0  0  0
  182.6360  178.5280  143.1060 C   0  0  0  0  0  2  0  0  0  0  0  0
  186.0610  180.2950  142.4020 O   0  0  0  0  0  1  0  0  0  0  0  0
  189.6450  176.9220  147.1250 C   0  0  0  0  0  3  0  0  0  0  0  0
  189.1720  177.4090  145.9010 C   0  0  0  0  0  0  0  0  0  0  0  0
  185.9630  178.9940  141.8990 C   0  0  2  0  0  3  0  0  0  0  0  0
  189.2180  176.3220  139.8250 C   0  0  0  0  0  2  0  0  0  0  0  0
  189.7630  177.3610  137.6220 C   0  0  0  0  0  1  0  0  0  0  0  0
  188.6450  176.8970  138.5370 C   0  0  0  0  0  2  0  0  0  0  0  0
  1  5  1  6  0  0  0
  1  4  1  0  0  0  0
  1 19  1  0  0  0  0
  2 13  1  0  0  0  0
  4 20  1  0  0  0  0
  6  8  1  0  0  0  0
  7  9  1  0  0  0  0
  8 11  1  0  0  0  0
  8 12  1  0  0  0  0
  9 14  1  0  0  0  0
  9 22  1  0  0  0  0
 10  3  1  0  0  0  0
 10 21  2  0  0  0  0
 11  5  1  0  0  0  0
 12  4  1  0  0  0  0
 13 18  2  0  0  0  0
 15  7  1  0  0  0  0
 15 23  1  0  0  0  0
 16  2  1  0  0  0  0
 17 26  1  0  0  0  0
 17  3  1  0  0  0  0
 19  2  2  0  0  0  0
 19 26  1  0  0  0  0
 20 22  1  0  0  0  0
 20 17  1  0  0  0  0
 22 10  1  0  0  0  0
 23 14  1  0  0  0  0
 25 18  1  0  0  0  0
 26 25  2  0  0  0  0
 27 12  1  0  0  0  0
 27 24  1  0  0  0  0
 27  7  1  0  0  0  0
 28 11  1  0  0  0  0
 29 30  1  0  0  0  0
 30 28  1  0  0  0  0
M  END
>  <MODEL>
3

>  <REMARK>
 VINA RESULT:      -8.6      2.548      6.148
  Name = 
  2 active torsions:
  status: ('A' for Active; 'I' for Inactive)
    1  A    between atoms: C_11  and  C_28
    2  A    between atoms: C_28  and  C_30
                            x       y       z     vdW  Elec       q    Type
                         _______ _______ _______ _____ _____    ______ ____

>  <TORSDO>
F 2

$$$$
=
 OpenBabel11122410303D

 30 35  0  0  1  0  0  0  0  0999 V2000
  188.8820  178.0060  144.1170 C   0  0  2  0  0  3  0  0  0  0  0  0
  186.6720  178.0360  145.4040 C   0  0  0  0  0  0  0  0  0  0  0  0
  186.6060  178.5800  140.5120 N   0  0  0  0  0  2  0  0  0  0  0  0
  189.5420  178.1140  142.6940 C   0  0  1  0  0  3  0  0  0  0  0  0
  189.3610  176.7590  144.8680 C   0  0  0  0  0  2  0  0  0  0  0  0
  192.1990  178.4900  143.9970 O   0  0  0  0  0  1  0  0  0  0  0  0
  191.0790  176.5020  140.1370 C   0  0  1  0  0  3  0  0  0  0  0  0
  191.6540  177.2180  143.8130 C   0  0  1  0  0  3  0  0  0  0  0  0
  189.6460  176.7280  139.6200 C   0  0  2  0  0  3  0  0  0  0  0  0
  187.5940  178.2410  139.5510 C   0  0  0  0  0  0  0  0  0  0  0  0
  190.8810  176.8050  145.0740 C   0  0  2  0  0  3  0  0  0  0  0  0
  190.7710  177.1870  142.5620 C   0  0  2  0  0  3  0  0  0  0  0  0
  185.2810  178.1490  145.4510 C   0  0  0  0  0  3  0  0  0  0  0  0
  189.8350  176.7860  138.1300 C   0  0  0  0  0  2  0  0  0  0  0  0
  191.9810  176.5460  139.0600 O   0  0  0  0  0  0  0  0  0  0  0  0
  187.3490  177.8360  146.5620 F   0  0  0  0  0  0  0  0  0  0  0  0
  187.3460  178.7190  141.7500 C   0  0  2  0  0  3  0  0  0  0  0  0
  184.5500  178.3940  144.2890 C   0  0  0  0  0  3  0  0  0  0  0  0
  187.3540  178.1380  144.1720 C   0  0  0  0  0  0  0  0  0  0  0  0
  188.5270  177.7950  141.6050 C   0  0  1  0  0  3  0  0  0  0  0  0
  187.3460  178.2220  138.3160 O   0  0  0  0  0  0  0  0  0  0  0  0
  188.9470  177.9900  140.1510 C   0  0  1  0  0  3  0  0  0  0  0  0
  191.2220  176.2380  137.9250 C   0  0  0  0  0  2  0  0  0  0  0  0
  191.6810  178.7280  140.9150 O   0  0  0  0  0  1  0  0  0  0  0  0
  185.2120  178.5390  143.0690 C   0  0  0  0  0  3  0  0  0  0  0  0
  186.6030  178.4020  143.0020 C   0  0  0  0  0  0  0  0  0  0  0  0
  191.5880  177.3830  141.2860 C   0  0  2  0  0  3  0  0  0  0  0  0
  191.3860  175.4550  145.5610 C   0  0  0  0  0  2  0  0  0  0  0  0
  191.6190  176.7310  147.6930 C   0  0  0  0  0  1  0  0  0  0  0  0
  192.1710  175.5920  146.8570 C   0  0  0  0  0  2  0  0  0  0  0  0
  1 19  1  0  0  0  0
  1  5  1  6  0  0  0
  2 13  1  0  0  0  0
  2 16  1  0  0  0  0
  3 17  1  0  0  0  0
  4  1  1  0  0  0  0
  5 11  1  0  0  0  0
  7 27  1  0  0  0  0
  8  6  1  0  0  0  0
  8 11  1  0  0  0  0
  9  7  1  0  0  0  0
  9 22  1  0  0  0  0
 10 22  1  0  0  0  0
 10  3  1  0  0  0  0
 11 28  1  0  0  0  0
 12  4  1  0  0  0  0
 12  8  1  0  0  0  0
 14  9  1  0  0  0  0
 15  7  1  0  0  0  0
 17 26  1  0  0  0  0
 18 13  2  0  0  0  0
 19  2  2  0  0  0  0
 20 17  1  0  0  0  0
 20  4  1  0  0  0  0
 21 10  2  0  0  0  0
 22 20  1  0  0  0  0
 23 14  1  0  0  0  0
 23 15  1  0  0  0  0
 24 27  1  0  0  0  0
 25 18  1  0  0  0  0
 26 25  2  0  0  0  0
 26 19  1  0  0  0  0
 27 12  1  0  0  0  0
 28 30  1  0  0  0  0
 30 29  1  0  0  0  0
M  END
>  <MODEL>
4

>  <REMARK>
 VINA RESULT:      -8.2      1.153      1.397
  Name = 
  2 active torsions:
  status: ('A' for Active; 'I' for Inactive)
    1  A    between atoms: C_11  and  C_28
    2  A    between atoms: C_28  and  C_30
                            x       y       z     vdW  Elec       q    Type
                         _______ _______ _______ _____ _____    ______ ____

>  <TORSDO>
F 2

$$$$
=
 OpenBabel11122410303D

 30 35  0  0  1  0  0  0  0  0999 V2000
  186.8630  178.5440  143.1830 C   0  0  2  0  0  3  0  0  0  0  0  0
  187.1240  178.1600  145.6980 C   0  0  0  0  0  0  0  0  0  0  0  0
  182.6240  178.8760  143.8370 N   0  0  0  0  0  2  0  0  0  0  0  0
  185.8340  178.8150  142.0240 C   0  0  1  0  0  3  0  0  0  0  0  0
  187.7850  177.3650  142.8560 C   0  0  0  0  0  2  0  0  0  0  0  0
  188.1030  179.5720  140.2410 O   0  0  0  0  0  1  0  0  0  0  0  0
  184.1910  177.5780  139.3290 C   0  0  1  0  0  3  0  0  0  0  0  0
  187.7530  178.2350  140.4430 C   0  0  1  0  0  3  0  0  0  0  0  0
  183.1230  177.5850  140.4380 C   0  0  2  0  0  3  0  0  0  0  0  0
  182.1660  178.7420  142.5000 C   0  0  0  0  0  0  0  0  0  0  0  0
  188.5960  177.6520  141.5860 C   0  0  2  0  0  3  0  0  0  0  0  0
  186.2500  178.1080  140.7150 C   0  0  2  0  0  3  0  0  0  0  0  0
  186.5910  178.0410  146.9840 C   0  0  0  0  0  3  0  0  0  0  0  0
  181.8410  177.7310  139.6660 C   0  0  0  0  0  2  0  0  0  0  0  0
  183.5800  177.8120  138.0850 O   0  0  0  0  0  0  0  0  0  0  0  0
  188.4640  178.0300  145.5340 F   0  0  0  0  0  0  0  0  0  0  0  0
  184.0520  179.0870  143.7060 C   0  0  2  0  0  3  0  0  0  0  0  0
  185.2230  178.2070  147.2010 C   0  0  0  0  0  3  0  0  0  0  0  0
  186.2800  178.4210  144.5970 C   0  0  0  0  0  0  0  0  0  0  0  0
  184.4360  178.3760  142.4340 C   0  0  1  0  0  3  0  0  0  0  0  0
  180.9400  178.7300  142.2120 O   0  0  0  0  0  0  0  0  0  0  0  0
  183.2770  178.6940  141.4930 C   0  0  1  0  0  3  0  0  0  0  0  0
  182.2440  177.4270  138.2470 C   0  0  0  0  0  2  0  0  0  0  0  0
  185.0740  179.8410  139.4770 O   0  0  0  0  0  1  0  0  0  0  0  0
  184.3800  178.5070  146.1310 C   0  0  0  0  0  3  0  0  0  0  0  0
  184.8960  178.6030  144.8330 C   0  0  0  0  0  0  0  0  0  0  0  0
  185.4180  178.4850  139.4910 C   0  0  2  0  0  3  0  0  0  0  0  0
  189.2920  176.3860  141.1090 C   0  0  0  0  0  2  0  0  0  0  0  0
  191.5270  177.3930  140.6460 C   0  0  0  0  0  1  0  0  0  0  0  0
  190.3270  176.6920  140.0380 C   0  0  0  0  0  2  0  0  0  0  0  0
  1  5  1  6  0  0  0
  1 19  1  0  0  0  0
  2 13  1  0  0  0  0
  4 20  1  0  0  0  0
  4  1  1  0  0  0  0
  6  8  1  0  0  0  0
  7 27  1  0  0  0  0
  7  9  1  0  0  0  0
  8 12  1  0  0  0  0
  8 11  1  0  0  0  0
  9 22  1  0  0  0  0
 10  3  1  0  0  0  0
 11  5  1  0  0  0  0
 12  4  1  0  0  0  0
 13 18  2  0  0  0  0
 14  9  1  0  0  0  0
 15 23  1  0  0  0  0
 15  7  1  0  0  0  0
 16  2  1  0  0  0  0
 17  3  1  0  0  0  0
 17 26  1  0  0  0  0
 19 26  1  0  0  0  0
 19  2  2  0  0  0  0
 20 17  1  0  0  0  0
 21 10  2  0  0  0  0
 22 20  1  0  0  0  0
 22 10  1  0  0  0  0
 23 14  1  0  0  0  0
 24 27  1  0  0  0  0
 25 18  1  0  0  0  0
 26 25  2  0  0  0  0
 27 12  1  0  0  0  0
 28 11  1  0  0  0  0
 30 29  1  0  0  0  0
 30 28  1  0  0  0  0
M  END
>  <MODEL>
5

>  <REMARK>
 VINA RESULT:      -7.9      3.012      5.383
  Name = 
  2 active torsions:
  status: ('A' for Active; 'I' for Inactive)
    1  A    between atoms: C_11  and  C_28
    2  A    between atoms: C_28  and  C_30
                            x       y       z     vdW  Elec       q    Type
                         _______ _______ _______ _____ _____    ______ ____

>  <TORSDO>
F 2

$$$$
=
 OpenBabel11122410303D

 30 35  0  0  1  0  0  0  0  0999 V2000
  188.1430  178.0690  139.9510 C   0  0  2  0  0  3  0  0  0  0  0  0
  190.0120  177.1400  141.4290 C   0  0  0  0  0  0  0  0  0  0  0  0
  185.7380  178.4330  143.5000 N   0  0  0  0  0  2  0  0  0  0  0  0
  186.6720  178.6280  139.9380 C   0  0  1  0  0  3  0  0  0  0  0  0
  188.3310  176.9500  138.9220 C   0  0  0  0  0  2  0  0  0  0  0  0
  187.1290  179.6540  137.1740 O   0  0  0  0  0  1  0  0  0  0  0  0
  183.4230  178.0740  139.1440 C   0  0  1  0  0  3  0  0  0  0  0  0
  186.7810  178.3220  137.4060 C   0  0  1  0  0  3  0  0  0  0  0  0
  183.4640  177.8870  140.6720 C   0  0  2  0  0  3  0  0  0  0  0  0
  184.4610  178.6110  142.9050 C   0  0  0  0  0  0  0  0  0  0  0  0
  188.0550  177.4690  137.5050 C   0  0  2  0  0  3  0  0  0  0  0  0
  185.9120  178.2030  138.6620 C   0  0  2  0  0  3  0  0  0  0  0  0
  190.5220  176.7690  142.6750 C   0  0  0  0  0  3  0  0  0  0  0  0
  182.0670  178.2510  141.0900 C   0  0  0  0  0  2  0  0  0  0  0  0
  182.1740  178.5970  138.7660 O   0  0  0  0  0  0  0  0  0  0  0  0
  190.7970  176.9910  140.3340 F   0  0  0  0  0  0  0  0  0  0  0  0
  186.6700  178.6060  142.4040 C   0  0  2  0  0  3  0  0  0  0  0  0
  189.7620  176.9430  143.8310 C   0  0  0  0  0  3  0  0  0  0  0  0
  188.7070  177.6680  141.3210 C   0  0  0  0  0  0  0  0  0  0  0  0
  185.9130  178.1710  141.1760 C   0  0  1  0  0  3  0  0  0  0  0  0
  183.4120  178.7140  143.5940 O   0  0  0  0  0  0  0  0  0  0  0  0
  184.5140  178.7340  141.4100 C   0  0  1  0  0  3  0  0  0  0  0  0
  181.2950  178.2440  139.7970 C   0  0  0  0  0  2  0  0  0  0  0  0
  184.5550  180.2110  138.8760 O   0  0  0  0  0  1  0  0  0  0  0  0
  188.4860  177.5020  143.7480 C   0  0  0  0  0  3  0  0  0  0  0  0
  187.9520  177.8540  142.5030 C   0  0  0  0  0  0  0  0  0  0  0  0
  184.5510  178.8710  138.4750 C   0  0  2  0  0  3  0  0  0  0  0  0
  187.9670  176.3080  136.5270 C   0  0  0  0  0  2  0  0  0  0  0  0
  186.0680  174.7190  136.8420 C   0  0  0  0  0  1  0  0  0  0  0  0
  187.5040  175.0340  137.2180 C   0  0  0  0  0  2  0  0  0  0  0  0
  1  5  1  6  0  0  0
  1 19  1  0  0  0  0
  2 13  1  0  0  0  0
  4  1  1  0  0  0  0
  4 20  1  0  0  0  0
  6  8  1  0  0  0  0
  7  9  1  0  0  0  0
  8 11  1  0  0  0  0
  8 12  1  0  0  0  0
  9 14  1  0  0  0  0
  9 22  1  0  0  0  0
 10  3  1  0  0  0  0
 10 21  2  0  0  0  0
 11  5  1  0  0  0  0
 12  4  1  0  0  0  0
 13 18  2  0  0  0  0
 15  7  1  0  0  0  0
 15 23  1  0  0  0  0
 16  2  1  0  0  0  0
 17 26  1  0  0  0  0
 17  3  1  0  0  0  0
 19  2  2  0  0  0  0
 19 26  1  0  0  0  0
 20 22  1  0  0  0  0
 20 17  1  0  0  0  0
 22 10  1  0  0  0  0
 23 14  1  0  0  0  0
 25 18  1  0  0  0  0
 26 25  2  0  0  0  0
 27 12  1  0  0  0  0
 27 24  1  0  0  0  0
 27  7  1  0  0  0  0
 28 30  1  0  0  0  0
 28 11  1  0  0  0  0
 29 30  1  0  0  0  0
M  END
>  <MODEL>
6

>  <REMARK>
 VINA RESULT:      -7.8      3.608      7.331
  Name = 
  2 active torsions:
  status: ('A' for Active; 'I' for Inactive)
    1  A    between atoms: C_11  and  C_28
    2  A    between atoms: C_28  and  C_30
                            x       y       z     vdW  Elec       q    Type
                         _______ _______ _______ _____ _____    ______ ____

>  <TORSDO>
F 2

$$$$
=
 OpenBabel11122410303D

 30 35  0  0  1  0  0  0  0  0999 V2000
  187.1380  178.1500  138.4530 C   0  0  2  0  0  3  0  0  0  0  0  0
  188.6950  177.1340  136.6970 C   0  0  0  0  0  0  0  0  0  0  0  0
  190.2970  177.6250  141.3250 N   0  0  0  0  0  2  0  0  0  0  0  0
  187.0020  178.5660  139.9640 C   0  0  1  0  0  3  0  0  0  0  0  0
  185.9700  177.2650  138.0030 C   0  0  0  0  0  2  0  0  0  0  0  0
  184.5560  180.1280  139.2730 O   0  0  0  0  0  1  0  0  0  0  0  0
  185.6490  177.8780  142.9950 C   0  0  1  0  0  3  0  0  0  0  0  0
  184.5000  178.7500  139.4910 C   0  0  1  0  0  3  0  0  0  0  0  0
  187.1100  177.4130  143.1320 C   0  0  2  0  0  3  0  0  0  0  0  0
  189.5580  177.7950  142.5250 C   0  0  0  0  0  0  0  0  0  0  0  0
  184.6390  178.0130  138.1510 C   0  0  2  0  0  3  0  0  0  0  0  0
  185.5730  178.3200  140.4970 C   0  0  2  0  0  3  0  0  0  0  0  0
  189.9210  176.5840  136.3130 C   0  0  0  0  0  3  0  0  0  0  0  0
  187.3720  177.5650  144.6050 C   0  0  0  0  0  2  0  0  0  0  0  0
  185.1850  178.3470  144.2370 O   0  0  0  0  0  0  0  0  0  0  0  0
  187.7200  177.2640  135.7640 F   0  0  0  0  0  0  0  0  0  0  0  0
  189.3980  178.0830  140.2850 C   0  0  2  0  0  3  0  0  0  0  0  0
  190.9630  176.4690  137.2330 C   0  0  0  0  0  3  0  0  0  0  0  0
  188.4860  177.5530  138.0280 C   0  0  0  0  0  0  0  0  0  0  0  0
  188.0150  177.8180  140.8200 C   0  0  1  0  0  3  0  0  0  0  0  0
  190.0900  177.6720  143.6600 O   0  0  0  0  0  0  0  0  0  0  0  0
  188.1320  178.1990  142.2930 C   0  0  1  0  0  3  0  0  0  0  0  0
  185.9970  177.7300  145.1960 C   0  0  0  0  0  2  0  0  0  0  0  0
  185.9250  180.1220  142.0940 O   0  0  0  0  0  1  0  0  0  0  0  0
  190.7880  176.9170  138.5430 C   0  0  0  0  0  3  0  0  0  0  0  0
  189.5570  177.4450  138.9480 C   0  0  0  0  0  0  0  0  0  0  0  0
  185.3030  178.8850  141.8900 C   0  0  2  0  0  3  0  0  0  0  0  0
  183.4740  177.0510  137.9760 C   0  0  0  0  0  2  0  0  0  0  0  0
  181.9260  175.9800  139.6140 C   0  0  0  0  0  1  0  0  0  0  0  0
  182.3920  177.2950  139.0170 C   0  0  0  0  0  2  0  0  0  0  0  0
  1  5  1  1  0  0  0
  1  4  1  0  0  0  0
  2 19  1  0  0  0  0
  3 10  1  0  0  0  0
  4 12  1  0  0  0  0
  4 20  1  0  0  0  0
  5 11  1  0  0  0  0
  6  8  1  0  0  0  0
  7  9  1  0  0  0  0
  7 15  1  0  0  0  0
  8 12  1  0  0  0  0
  9 14  1  0  0  0  0
 10 21  2  0  0  0  0
 11  8  1  0  0  0  0
 12 27  1  0  0  0  0
 13  2  2  0  0  0  0
 13 18  1  0  0  0  0
 14 23  1  0  0  0  0
 15 23  1  0  0  0  0
 16  2  1  0  0  0  0
 17 20  1  0  0  0  0
 17  3  1  0  0  0  0
 18 25  2  0  0  0  0
 19  1  1  0  0  0  0
 19 26  2  0  0  0  0
 20 22  1  0  0  0  0
 22 10  1  0  0  0  0
 22  9  1  0  0  0  0
 25 26  1  0  0  0  0
 26 17  1  0  0  0  0
 27 24  1  0  0  0  0
 27  7  1  0  0  0  0
 28 11  1  0  0  0  0
 28 30  1  0  0  0  0
 30 29  1  0  0  0  0
M  END
>  <MODEL>
7

>  <REMARK>
 VINA RESULT:      -7.8      3.610      8.133
  Name = 
  2 active torsions:
  status: ('A' for Active; 'I' for Inactive)
    1  A    between atoms: C_11  and  C_28
    2  A    between atoms: C_28  and  C_30
                            x       y       z     vdW  Elec       q    Type
                         _______ _______ _______ _____ _____    ______ ____

>  <TORSDO>
F 2

$$$$
=
 OpenBabel11122410303D

 30 35  0  0  1  0  0  0  0  0999 V2000
  186.5330  178.6830  141.6410 C   0  0  2  0  0  3  0  0  0  0  0  0
  185.4670  178.7300  143.9650 C   0  0  0  0  0  0  0  0  0  0  0  0
  182.5580  178.6780  139.9940 N   0  0  0  0  0  2  0  0  0  0  0  0
  186.2440  178.6610  140.0950 C   0  0  1  0  0  3  0  0  0  0  0  0
  187.5000  177.5680  142.0510 C   0  0  0  0  0  2  0  0  0  0  0  0
  189.1020  179.3540  139.5910 O   0  0  0  0  0  1  0  0  0  0  0  0
  186.2280  176.8520  137.2270 C   0  0  1  0  0  3  0  0  0  0  0  0
  188.7060  178.0380  139.8370 C   0  0  1  0  0  3  0  0  0  0  0  0
  184.7420  176.9240  137.6230 C   0  0  2  0  0  3  0  0  0  0  0  0
  182.8540  178.2880  138.6610 C   0  0  0  0  0  0  0  0  0  0  0  0
  188.8470  177.7310  141.3350 C   0  0  2  0  0  3  0  0  0  0  0  0
  187.2790  177.8020  139.3330 C   0  0  2  0  0  3  0  0  0  0  0  0
  184.3500  178.7610  144.8030 C   0  0  0  0  0  3  0  0  0  0  0  0
  184.0390  176.8150  136.2990 C   0  0  0  0  0  2  0  0  0  0  0  0
  186.3430  176.8220  135.8260 O   0  0  0  0  0  0  0  0  0  0  0  0
  186.7010  178.7130  144.5260 F   0  0  0  0  0  0  0  0  0  0  0  0
  183.8490  179.0100  140.5630 C   0  0  2  0  0  3  0  0  0  0  0  0
  183.0640  178.8190  144.2660 C   0  0  0  0  0  3  0  0  0  0  0  0
  185.3070  178.7250  142.5630 C   0  0  0  0  0  0  0  0  0  0  0  0
  184.8370  178.1510  139.8180 C   0  0  1  0  0  3  0  0  0  0  0  0
  181.9500  178.1060  137.8030 O   0  0  0  0  0  0  0  0  0  0  0  0
  184.3250  178.1960  138.3810 C   0  0  1  0  0  3  0  0  0  0  0  0
  185.1150  176.3340  135.3620 C   0  0  0  0  0  2  0  0  0  0  0  0
  186.8950  179.1880  137.3710 O   0  0  0  0  0  1  0  0  0  0  0  0
  182.8880  178.8570  142.8820 C   0  0  0  0  0  3  0  0  0  0  0  0
  183.9970  178.8000  142.0300 C   0  0  0  0  0  0  0  0  0  0  0  0
  187.1920  177.8940  137.8110 C   0  0  2  0  0  3  0  0  0  0  0  0
  189.6970  176.4840  141.5220 C   0  0  0  0  0  2  0  0  0  0  0  0
  190.8490  176.5760  143.7330 C   0  0  0  0  0  1  0  0  0  0  0  0
  189.6710  176.0060  142.9660 C   0  0  0  0  0  2  0  0  0  0  0  0
  1  5  1  1  0  0  0
  1 19  1  0  0  0  0
  2 16  1  0  0  0  0
  2 13  1  0  0  0  0
  3 17  1  0  0  0  0
  4  1  1  0  0  0  0
  6  8  1  0  0  0  0
  7  9  1  0  0  0  0
  7 27  1  0  0  0  0
  8 11  1  0  0  0  0
  9 22  1  0  0  0  0
 10  3  1  0  0  0  0
 11 28  1  0  0  0  0
 11  5  1  0  0  0  0
 12  8  1  0  0  0  0
 12  4  1  0  0  0  0
 14  9  1  0  0  0  0
 15  7  1  0  0  0  0
 17 26  1  0  0  0  0
 18 13  2  0  0  0  0
 19  2  2  0  0  0  0
 20  4  1  0  0  0  0
 20 17  1  0  0  0  0
 21 10  2  0  0  0  0
 22 10  1  0  0  0  0
 22 20  1  0  0  0  0
 23 15  1  0  0  0  0
 23 14  1  0  0  0  0
 24 27  1  0  0  0  0
 25 18  1  0  0  0  0
 26 19  1  0  0  0  0
 26 25  2  0  0  0  0
 27 12  1  0  0  0  0
 28 30  1  0  0  0  0
 30 29  1  0  0  0  0
M  END
>  <MODEL>
8

>  <REMARK>
 VINA RESULT:      -7.8      3.118      5.041
  Name = 
  2 active torsions:
  status: ('A' for Active; 'I' for Inactive)
    1  A    between atoms: C_11  and  C_28
    2  A    between atoms: C_28  and  C_30
                            x       y       z     vdW  Elec       q    Type
                         _______ _______ _______ _____ _____    ______ ____

>  <TORSDO>
F 2

$$$$
=
 OpenBabel11122410303D

 30 35  0  0  1  0  0  0  0  0999 V2000
  187.8410  178.2620  142.4650 C   0  0  2  0  0  3  0  0  0  0  0  0
  188.7860  177.6060  144.7490 C   0  0  0  0  0  0  0  0  0  0  0  0
  183.9850  178.6110  144.3400 N   0  0  0  0  0  2  0  0  0  0  0  0
  186.5400  178.6760  141.6830 C   0  0  1  0  0  3  0  0  0  0  0  0
  188.5700  177.1050  141.7740 C   0  0  0  0  0  2  0  0  0  0  0  0
  188.2440  179.5710  139.4030 O   0  0  0  0  0  1  0  0  0  0  0  0
  184.1380  177.7680  139.4690 C   0  0  1  0  0  3  0  0  0  0  0  0
  187.8980  178.2280  139.5680 C   0  0  1  0  0  3  0  0  0  0  0  0
  183.4310  177.6800  140.8340 C   0  0  2  0  0  3  0  0  0  0  0  0
  183.1590  178.6310  143.1850 C   0  0  0  0  0  0  0  0  0  0  0  0
  189.0010  177.5080  140.3580 C   0  0  2  0  0  3  0  0  0  0  0  0
  186.5300  178.1040  140.2480 C   0  0  2  0  0  3  0  0  0  0  0  0
  188.6350  177.3620  146.1160 C   0  0  0  0  0  3  0  0  0  0  0  0
  181.9920  177.9350  140.4820 C   0  0  0  0  0  2  0  0  0  0  0  0
  183.2110  178.1470  138.4820 O   0  0  0  0  0  0  0  0  0  0  0  0
  190.0150  177.4660  144.1940 F   0  0  0  0  0  0  0  0  0  0  0  0
  185.3250  178.8050  143.8240 C   0  0  2  0  0  3  0  0  0  0  0  0
  187.3960  177.5330  146.7330 C   0  0  0  0  0  3  0  0  0  0  0  0
  187.6780  178.0000  143.9680 C   0  0  0  0  0  0  0  0  0  0  0  0
  185.2950  178.2250  142.4340 C   0  0  1  0  0  3  0  0  0  0  0  0
  181.9030  178.6760  143.2630 O   0  0  0  0  0  0  0  0  0  0  0  0
  183.9350  178.6660  141.9010 C   0  0  1  0  0  3  0  0  0  0  0  0
  181.9590  177.7760  138.9850 C   0  0  0  0  0  2  0  0  0  0  0  0
  185.1410  179.9840  139.5740 O   0  0  0  0  0  1  0  0  0  0  0  0
  186.2990  177.9630  145.9850 C   0  0  0  0  0  3  0  0  0  0  0  0
  186.4300  178.1860  144.6090 C   0  0  0  0  0  0  0  0  0  0  0  0
  185.4050  178.6270  139.3570 C   0  0  2  0  0  3  0  0  0  0  0  0
  189.4670  176.2860  139.5820 C   0  0  0  0  0  2  0  0  0  0  0  0
  191.6960  177.3120  140.0380 C   0  0  0  0  0  1  0  0  0  0  0  0
  190.8900  176.4610  139.0730 C   0  0  0  0  0  2  0  0  0  0  0  0
  1  5  1  6  0  0  0
  1 19  1  0  0  0  0
  2 13  1  0  0  0  0
  4 20  1  0  0  0  0
  4  1  1  0  0  0  0
  6  8  1  0  0  0  0
  7  9  1  0  0  0  0
  8 12  1  0  0  0  0
  8 11  1  0  0  0  0
  9 22  1  0  0  0  0
 10 21  2  0  0  0  0
 10  3  1  0  0  0  0
 11  5  1  0  0  0  0
 12  4  1  0  0  0  0
 13 18  2  0  0  0  0
 14  9  1  0  0  0  0
 15 23  1  0  0  0  0
 15  7  1  0  0  0  0
 16  2  1  0  0  0  0
 17  3  1  0  0  0  0
 17 26  1  0  0  0  0
 19 26  1  0  0  0  0
 19  2  2  0  0  0  0
 20 17  1  0  0  0  0
 22 20  1  0  0  0  0
 22 10  1  0  0  0  0
 23 14  1  0  0  0  0
 25 18  1  0  0  0  0
 26 25  2  0  0  0  0
 27  7  1  0  0  0  0
 27 24  1  0  0  0  0
 27 12  1  0  0  0  0
 28 11  1  0  0  0  0
 30 28  1  0  0  0  0
 30 29  1  0  0  0  0
M  END
>  <MODEL>
9

>  <REMARK>
 VINA RESULT:      -7.8      2.717      5.666
  Name = 
  2 active torsions:
  status: ('A' for Active; 'I' for Inactive)
    1  A    between atoms: C_11  and  C_28
    2  A    between atoms: C_28  and  C_30
                            x       y       z     vdW  Elec       q    Type
                         _______ _______ _______ _____ _____    ______ ____

>  <TORSDO>
F 2

$$$$
