=
 OpenBabel11122411393D

 37 42  0  0  1  0  0  0  0  0999 V2000
  184.8860  179.4000  138.6260 O   0  0  0  0  0  0  0  0  0  0  0  0
  194.5270  174.9280  136.5150 C   0  0  0  0  0  0  0  0  0  0  0  0
  190.6020  173.4750  136.2770 C   0  0  0  0  0  0  0  0  0  0  0  0
  185.5100  178.7670  139.5190 C   0  0  0  0  0  0  0  0  0  0  0  0
  188.7070  176.3330  135.6310 C   0  0  0  0  0  2  0  0  0  0  0  0
  192.9040  173.1290  135.6440 C   0  0  0  0  0  0  0  0  0  0  0  0
  189.8550  174.4640  137.1050 C   0  0  2  0  0  3  0  0  0  0  0  0
  187.5000  178.3020  137.9970 C   0  0  0  0  0  0  0  0  0  0  0  0
  191.9290  173.7420  136.4220 C   0  0  0  0  0  0  0  0  0  0  0  0
  188.5780  175.0490  136.4620 C   0  0  2  0  0  3  0  0  0  0  0  0
  192.5030  172.0960  134.7840 C   0  0  0  0  0  3  0  0  0  0  0  0
  186.7950  178.1910  139.2420 N   0  0  0  0  0  2  0  0  0  0  0  0
  192.1450  174.8690  137.3370 C   0  0  1  0  0  3  0  0  0  0  0  0
  195.5590  175.8280  135.8700 C   0  0  0  0  0  1  0  0  0  0  0  0
  188.7280  172.0350  135.2570 C   0  0  0  0  0  2  0  0  0  0  0  0
  191.1430  171.7290  134.7080 C   0  0  0  0  0  3  0  0  0  0  0  0
  193.2460  175.7570  136.7610 C   0  0  0  0  0  2  0  0  0  0  0  0
  188.7170  177.5640  137.7930 N   0  0  0  0  0  0  0  0  0  0  0  0
  189.2800  177.5080  136.4390 C   0  0  0  0  0  2  0  0  0  0  0  0
  190.1670  172.4180  135.4540 C   0  0  0  0  0  0  0  0  0  0  0  0
  190.8400  175.5310  137.3900 N   0  0  2  0  0  0  0  0  0  0  0  0
  194.2920  173.7130  135.5820 C   0  0  0  0  0  2  0  0  0  0  0  0
  187.4960  174.0880  135.9560 C   0  0  1  0  0  3  0  0  0  0  0  0
  195.0920  174.4370  137.8370 C   0  0  0  0  0  1  0  0  0  0  0  0
  189.2100  176.7130  138.8930 C   0  0  0  0  0  2  0  0  0  0  0  0
  187.0530  179.0410  137.0780 O   0  0  0  0  0  0  0  0  0  0  0  0
  190.6250  176.1220  138.7100 C   0  0  0  0  0  2  0  0  0  0  0  0
  187.7710  172.6240  136.2840 C   0  0  0  0  0  2  0  0  0  0  0  0
  185.4930  173.6720  137.3980 C   0  0  0  0  0  3  0  0  0  0  0  0
  186.1560  174.4980  136.4820 C   0  0  0  0  0  0  0  0  0  0  0  0
  185.5600  175.7050  136.0790 C   0  0  0  0  0  3  0  0  0  0  0  0
  183.6770  177.3460  136.1460 C   0  0  0  0  0  1  0  0  0  0  0  0
  183.6480  175.2400  137.4900 C   0  0  0  0  0  3  0  0  0  0  0  0
  184.3080  176.0710  136.5780 C   0  0  0  0  0  0  0  0  0  0  0  0
  184.2410  174.0430  137.9020 C   0  0  0  0  0  3  0  0  0  0  0  0
  185.6120  178.9960  141.9660 C   0  0  0  0  0  1  0  0  0  0  0  0
  184.9290  178.6230  140.7790 O   0  0  0  0  0  0  0  0  0  0  0  0
  1  4  2  0  0  0  0
  2 17  1  0  0  0  0
  2 24  1  0  0  0  0
  3  9  1  0  0  0  0
  4 37  1  0  0  0  0
  5 19  1  0  0  0  0
  6  9  2  0  0  0  0
  7  3  1  6  0  0  0
  7 21  1  0  0  0  0
  8 12  1  0  0  0  0
  9 13  1  0  0  0  0
 10  5  1  6  0  0  0
 10  7  1  0  0  0  0
 11  6  1  0  0  0  0
 12  4  1  0  0  0  0
 13 17  1  6  0  0  0
 13 21  1  0  0  0  0
 14  2  1  0  0  0  0
 15 20  1  0  0  0  0
 15 28  1  0  0  0  0
 16 11  2  0  0  0  0
 16 20  1  0  0  0  0
 18  8  1  0  0  0  0
 18 25  1  0  0  0  0
 19 18  1  0  0  0  0
 20  3  2  0  0  0  0
 21 27  1  1  0  0  0
 22  6  1  0  0  0  0
 22  2  1  0  0  0  0
 23 28  1  0  0  0  0
 23 10  1  0  0  0  0
 23 30  1  1  0  0  0
 26  8  2  0  0  0  0
 27 25  1  0  0  0  0
 29 35  1  0  0  0  0
 30 29  2  0  0  0  0
 31 30  1  0  0  0  0
 31 34  2  0  0  0  0
 32 34  1  0  0  0  0
 33 35  2  0  0  0  0
 34 33  1  0  0  0  0
 37 36  1  0  0  0  0
M  END
>  <MODEL>
1

>  <REMARK>
 VINA RESULT:      -7.1      0.000      0.000
  Name = 
  2 active torsions:
  status: ('A' for Active; 'I' for Inactive)
    1  A    between atoms: C_4  and  O_37
    2  A    between atoms: C_23  and  C_30
                            x       y       z     vdW  Elec       q    Type
                         _______ _______ _______ _____ _____    ______ ____

>  <TORSDO>
F 2

$$$$
=
 OpenBabel11122411393D

 37 42  0  0  1  0  0  0  0  0999 V2000
  190.2820  177.4940  138.0000 O   0  0  0  0  0  0  0  0  0  0  0  0
  179.4860  177.8610  137.1490 C   0  0  0  0  0  0  0  0  0  0  0  0
  182.0900  178.0380  140.4290 C   0  0  0  0  0  0  0  0  0  0  0  0
  189.5960  176.4400  138.0710 C   0  0  0  0  0  0  0  0  0  0  0  0
  184.9930  179.4440  139.0980 C   0  0  0  0  0  2  0  0  0  0  0  0
  179.8430  178.4140  139.6380 C   0  0  0  0  0  0  0  0  0  0  0  0
  183.3570  177.5080  139.8480 C   0  0  2  0  0  3  0  0  0  0  0  0
  187.4000  177.6740  137.6830 C   0  0  0  0  0  0  0  0  0  0  0  0
  181.1110  177.8650  139.4990 C   0  0  0  0  0  0  0  0  0  0  0  0
  184.6220  178.3550  140.1140 C   0  0  2  0  0  3  0  0  0  0  0  0
  179.5300  179.0440  140.8520 C   0  0  0  0  0  3  0  0  0  0  0  0
  188.1670  176.4890  137.9400 N   0  0  0  0  0  2  0  0  0  0  0  0
  181.6380  177.2150  138.2930 C   0  0  1  0  0  3  0  0  0  0  0  0
  178.9310  178.6190  135.9620 C   0  0  0  0  0  1  0  0  0  0  0  0
  182.8100  178.8330  142.7690 C   0  0  0  0  0  2  0  0  0  0  0  0
  180.5000  179.1290  141.8720 C   0  0  0  0  0  3  0  0  0  0  0  0
  181.0290  177.8990  137.0700 C   0  0  0  0  0  2  0  0  0  0  0  0
  185.9650  177.6200  137.7110 N   0  0  0  0  0  0  0  0  0  0  0  0
  185.2180  178.8840  137.6850 C   0  0  0  0  0  2  0  0  0  0  0  0
  181.8020  178.6280  141.6750 C   0  0  0  0  0  0  0  0  0  0  0  0
  183.0860  177.4040  138.3970 N   0  0  2  0  0  0  0  0  0  0  0  0
  178.9310  178.5090  138.4420 C   0  0  0  0  0  2  0  0  0  0  0  0
  184.9880  178.7050  141.5610 C   0  0  1  0  0  3  0  0  0  0  0  0
  178.9950  176.4260  137.0620 C   0  0  0  0  0  1  0  0  0  0  0  0
  185.3200  176.3250  138.0000 C   0  0  0  0  0  2  0  0  0  0  0  0
  187.9830  178.7660  137.4360 O   0  0  0  0  0  0  0  0  0  0  0  0
  183.7890  176.2710  137.7990 C   0  0  0  0  0  2  0  0  0  0  0  0
  184.0960  178.0360  142.6010 C   0  0  0  0  0  2  0  0  0  0  0  0
  187.3800  178.6280  140.8250 C   0  0  0  0  0  3  0  0  0  0  0  0
  186.4260  178.3790  141.8200 C   0  0  0  0  0  0  0  0  0  0  0  0
  186.8340  177.8390  143.0520 C   0  0  0  0  0  3  0  0  0  0  0  0
  188.6070  176.9630  144.5780 C   0  0  0  0  0  1  0  0  0  0  0  0
  189.1270  177.7860  142.2780 C   0  0  0  0  0  3  0  0  0  0  0  0
  188.1790  177.5390  143.2760 C   0  0  0  0  0  0  0  0  0  0  0  0
  188.7280  178.3320  141.0540 C   0  0  0  0  0  3  0  0  0  0  0  0
  190.6440  174.3840  137.2180 C   0  0  0  0  0  1  0  0  0  0  0  0
  190.2430  175.2230  138.2900 O   0  0  0  0  0  0  0  0  0  0  0  0
  1  4  2  0  0  0  0
  2 22  1  0  0  0  0
  3 20  1  0  0  0  0
  4 37  1  0  0  0  0
  6 11  2  0  0  0  0
  7 10  1  0  0  0  0
  7  3  1  1  0  0  0
  8 18  1  0  0  0  0
  8 12  1  0  0  0  0
  9  6  1  0  0  0  0
  9  3  2  0  0  0  0
 10  5  1  6  0  0  0
 10 23  1  0  0  0  0
 11 16  1  0  0  0  0
 12  4  1  0  0  0  0
 13 17  1  6  0  0  0
 13 21  1  0  0  0  0
 13  9  1  0  0  0  0
 14  2  1  0  0  0  0
 17  2  1  0  0  0  0
 18 25  1  0  0  0  0
 19 18  1  0  0  0  0
 19  5  1  0  0  0  0
 20 16  2  0  0  0  0
 20 15  1  0  0  0  0
 21 27  1  1  0  0  0
 21  7  1  0  0  0  0
 22  6  1  0  0  0  0
 23 30  1  1  0  0  0
 23 28  1  0  0  0  0
 24  2  1  0  0  0  0
 26  8  2  0  0  0  0
 27 25  1  0  0  0  0
 28 15  1  0  0  0  0
 29 35  2  0  0  0  0
 29 30  1  0  0  0  0
 30 31  2  0  0  0  0
 31 34  1  0  0  0  0
 33 34  2  0  0  0  0
 34 32  1  0  0  0  0
 35 33  1  0  0  0  0
 36 37  1  0  0  0  0
M  END
>  <MODEL>
2

>  <REMARK>
 VINA RESULT:      -7.0      3.293      9.814
  Name = 
  2 active torsions:
  status: ('A' for Active; 'I' for Inactive)
    1  A    between atoms: C_4  and  O_37
    2  A    between atoms: C_23  and  C_30
                            x       y       z     vdW  Elec       q    Type
                         _______ _______ _______ _____ _____    ______ ____

>  <TORSDO>
F 2

$$$$
=
 OpenBabel11122411393D

 37 42  0  0  1  0  0  0  0  0999 V2000
  190.8370  175.1980  135.6160 O   0  0  0  0  0  0  0  0  0  0  0  0
  180.2680  172.9250  136.3360 C   0  0  0  0  0  0  0  0  0  0  0  0
  182.6020  176.0950  137.7780 C   0  0  0  0  0  0  0  0  0  0  0  0
  190.3870  174.5380  136.5900 C   0  0  0  0  0  0  0  0  0  0  0  0
  185.2060  176.3130  135.4650 C   0  0  0  0  0  2  0  0  0  0  0  0
  180.3700  175.3000  137.3260 C   0  0  0  0  0  0  0  0  0  0  0  0
  183.9800  175.5360  137.6740 C   0  0  2  0  0  3  0  0  0  0  0  0
  188.0040  174.5660  135.6900 C   0  0  0  0  0  0  0  0  0  0  0  0
  181.7310  175.0860  137.5000 C   0  0  0  0  0  0  0  0  0  0  0  0
  185.0220  176.4450  136.9830 C   0  0  2  0  0  3  0  0  0  0  0  0
  179.8680  176.5830  137.5900 C   0  0  0  0  0  3  0  0  0  0  0  0
  188.9900  174.2230  136.6740 N   0  0  0  0  0  2  0  0  0  0  0  0
  182.4450  173.8330  137.2250 C   0  0  1  0  0  3  0  0  0  0  0  0
  179.6260  172.3130  135.1100 C   0  0  0  0  0  1  0  0  0  0  0  0
  183.0150  178.5490  138.4330 C   0  0  0  0  0  2  0  0  0  0  0  0
  180.7450  177.6130  137.9920 C   0  0  0  0  0  3  0  0  0  0  0  0
  181.7700  173.1400  136.0430 C   0  0  0  0  0  2  0  0  0  0  0  0
  186.6120  174.3180  135.9510 N   0  0  0  0  0  0  0  0  0  0  0  0
  185.6180  174.8950  135.0380 C   0  0  0  0  0  2  0  0  0  0  0  0
  182.1310  177.3850  138.0890 C   0  0  0  0  0  0  0  0  0  0  0  0
  183.8130  174.2660  136.9340 N   0  0  2  0  0  0  0  0  0  0  0  0
  179.5210  174.2420  136.6680 C   0  0  0  0  0  2  0  0  0  0  0  0
  185.2310  177.8680  137.5130 C   0  0  1  0  0  3  0  0  0  0  0  0
  180.0960  171.9530  137.4910 C   0  0  0  0  0  1  0  0  0  0  0  0
  186.2420  173.7020  137.2400 C   0  0  0  0  0  2  0  0  0  0  0  0
  188.3540  175.0880  134.5960 O   0  0  0  0  0  0  0  0  0  0  0  0
  184.7700  173.2550  137.3790 C   0  0  0  0  0  2  0  0  0  0  0  0
  184.4470  178.1720  138.7860 C   0  0  0  0  0  2  0  0  0  0  0  0
  187.4580  178.6370  136.6670 C   0  0  0  0  0  3  0  0  0  0  0  0
  186.6890  178.1300  137.7230 C   0  0  0  0  0  0  0  0  0  0  0  0
  187.2960  177.8860  138.9670 C   0  0  0  0  0  3  0  0  0  0  0  0
  189.2990  177.8700  140.4600 C   0  0  0  0  0  1  0  0  0  0  0  0
  189.4230  178.6360  138.0860 C   0  0  0  0  0  3  0  0  0  0  0  0
  188.6590  178.1340  139.1450 C   0  0  0  0  0  0  0  0  0  0  0  0
  188.8220  178.8900  136.8490 C   0  0  0  0  0  3  0  0  0  0  0  0
  192.6310  174.5120  137.6000 C   0  0  0  0  0  1  0  0  0  0  0  0
  191.2650  174.1260  137.5940 O   0  0  0  0  0  0  0  0  0  0  0  0
  1  4  2  0  0  0  0
  2 22  1  0  0  0  0
  2 24  1  0  0  0  0
  3 20  1  0  0  0  0
  4 12  1  0  0  0  0
  4 37  1  0  0  0  0
  6  9  1  0  0  0  0
  6 11  2  0  0  0  0
  7  3  1  6  0  0  0
  8 18  1  0  0  0  0
  8 12  1  0  0  0  0
  9  3  2  0  0  0  0
 10  5  1  6  0  0  0
 10 23  1  0  0  0  0
 10  7  1  0  0  0  0
 11 16  1  0  0  0  0
 13 17  1  6  0  0  0
 13  9  1  0  0  0  0
 14  2  1  0  0  0  0
 15 28  1  0  0  0  0
 16 20  2  0  0  0  0
 17  2  1  0  0  0  0
 18 25  1  0  0  0  0
 19  5  1  0  0  0  0
 19 18  1  0  0  0  0
 20 15  1  0  0  0  0
 21 13  1  0  0  0  0
 21 27  1  1  0  0  0
 21  7  1  0  0  0  0
 22  6  1  0  0  0  0
 23 30  1  1  0  0  0
 23 28  1  0  0  0  0
 25 27  1  0  0  0  0
 26  8  2  0  0  0  0
 29 35  2  0  0  0  0
 29 30  1  0  0  0  0
 30 31  2  0  0  0  0
 31 34  1  0  0  0  0
 33 34  2  0  0  0  0
 34 32  1  0  0  0  0
 35 33  1  0  0  0  0
 37 36  1  0  0  0  0
M  END
>  <MODEL>
3

>  <REMARK>
 VINA RESULT:      -6.8      3.031      8.836
  Name = 
  2 active torsions:
  status: ('A' for Active; 'I' for Inactive)
    1  A    between atoms: C_4  and  O_37
    2  A    between atoms: C_23  and  C_30
                            x       y       z     vdW  Elec       q    Type
                         _______ _______ _______ _____ _____    ______ ____

>  <TORSDO>
F 2

$$$$
=
 OpenBabel11122411393D

 37 42  0  0  1  0  0  0  0  0999 V2000
  189.9200  177.5420  136.6450 O   0  0  0  0  0  0  0  0  0  0  0  0
  179.7180  179.1280  139.9300 C   0  0  0  0  0  0  0  0  0  0  0  0
  183.2710  178.2830  141.9870 C   0  0  0  0  0  0  0  0  0  0  0  0
  189.1280  176.5710  136.7700 C   0  0  0  0  0  0  0  0  0  0  0  0
  185.7450  179.6780  139.9580 C   0  0  0  0  0  2  0  0  0  0  0  0
  180.9900  179.0460  142.1660 C   0  0  0  0  0  0  0  0  0  0  0  0
  184.1520  177.7860  140.8920 C   0  0  2  0  0  3  0  0  0  0  0  0
  187.1800  178.0660  137.4540 C   0  0  0  0  0  0  0  0  0  0  0  0
  182.0200  178.4270  141.4700 C   0  0  0  0  0  0  0  0  0  0  0  0
  185.5590  178.4220  140.8220 C   0  0  2  0  0  3  0  0  0  0  0  0
  181.2230  179.4020  143.5030 C   0  0  0  0  0  3  0  0  0  0  0  0
  187.7710  176.7860  137.1880 N   0  0  0  0  0  2  0  0  0  0  0  0
  181.9830  178.0290  140.0570 C   0  0  1  0  0  3  0  0  0  0  0  0
  178.9310  180.1910  139.1940 C   0  0  0  0  0  1  0  0  0  0  0  0
  184.8710  178.4380  143.9970 C   0  0  0  0  0  2  0  0  0  0  0  0
  182.4820  179.1540  144.0890 C   0  0  0  0  0  3  0  0  0  0  0  0
  181.1230  179.0350  139.2940 C   0  0  0  0  0  2  0  0  0  0  0  0
  185.8540  178.1450  138.0010 N   0  0  0  0  0  0  0  0  0  0  0  0
  185.3740  179.4450  138.4850 C   0  0  0  0  0  2  0  0  0  0  0  0
  183.5310  178.5910  143.3360 C   0  0  0  0  0  0  0  0  0  0  0  0
  183.3900  178.0500  139.6520 N   0  0  2  0  0  0  0  0  0  0  0  0
  179.7560  179.5050  141.4320 C   0  0  0  0  0  2  0  0  0  0  0  0
  186.4500  178.3870  142.0680 C   0  0  1  0  0  3  0  0  0  0  0  0
  178.9850  177.8060  139.7690 C   0  0  0  0  0  1  0  0  0  0  0  0
  185.1310  176.8850  138.2650 C   0  0  0  0  0  2  0  0  0  0  0  0
  187.8240  179.1240  137.2140 O   0  0  0  0  0  0  0  0  0  0  0  0
  183.6390  177.0250  138.6390 C   0  0  0  0  0  2  0  0  0  0  0  0
  185.8630  177.5830  143.2220 C   0  0  0  0  0  2  0  0  0  0  0  0
  188.4120  178.2850  140.5160 C   0  0  0  0  0  3  0  0  0  0  0  0
  187.8110  177.8750  141.7130 C   0  0  0  0  0  0  0  0  0  0  0  0
  188.4980  176.9960  142.5680 C   0  0  0  0  0  3  0  0  0  0  0  0
  190.4890  175.5920  143.1240 C   0  0  0  0  0  1  0  0  0  0  0  0
  190.3600  176.9360  141.0220 C   0  0  0  0  0  3  0  0  0  0  0  0
  189.7660  176.5250  142.2200 C   0  0  0  0  0  0  0  0  0  0  0  0
  189.6850  177.8180  140.1720 C   0  0  0  0  0  3  0  0  0  0  0  0
  190.1550  174.4660  137.5220 C   0  0  0  0  0  1  0  0  0  0  0  0
  189.5890  175.2810  136.5070 O   0  0  0  0  0  0  0  0  0  0  0  0
  1  4  2  0  0  0  0
  2 22  1  0  0  0  0
  3 20  1  0  0  0  0
  4 12  1  0  0  0  0
  6 11  2  0  0  0  0
  7  3  1  1  0  0  0
  8 18  1  0  0  0  0
  9  3  2  0  0  0  0
  9  6  1  0  0  0  0
 10  5  1  1  0  0  0
 10  7  1  0  0  0  0
 10 23  1  0  0  0  0
 11 16  1  0  0  0  0
 12  8  1  0  0  0  0
 13 17  1  6  0  0  0
 13  9  1  0  0  0  0
 14  2  1  0  0  0  0
 17  2  1  0  0  0  0
 18 25  1  0  0  0  0
 18 19  1  0  0  0  0
 19  5  1  0  0  0  0
 20 15  1  0  0  0  0
 20 16  2  0  0  0  0
 21 27  1  6  0  0  0
 21 13  1  0  0  0  0
 21  7  1  0  0  0  0
 22  6  1  0  0  0  0
 23 30  1  6  0  0  0
 23 28  1  0  0  0  0
 24  2  1  0  0  0  0
 25 27  1  0  0  0  0
 26  8  2  0  0  0  0
 28 15  1  0  0  0  0
 29 30  1  0  0  0  0
 30 31  2  0  0  0  0
 33 34  2  0  0  0  0
 34 31  1  0  0  0  0
 34 32  1  0  0  0  0
 35 29  2  0  0  0  0
 35 33  1  0  0  0  0
 37  4  1  0  0  0  0
 37 36  1  0  0  0  0
M  END
>  <MODEL>
4

>  <REMARK>
 VINA RESULT:      -6.2      3.286      9.913
  Name = 
  2 active torsions:
  status: ('A' for Active; 'I' for Inactive)
    1  A    between atoms: C_4  and  O_37
    2  A    between atoms: C_23  and  C_30
                            x       y       z     vdW  Elec       q    Type
                         _______ _______ _______ _____ _____    ______ ____

>  <TORSDO>
F 2

$$$$
=
 OpenBabel11122411393D

 37 42  0  0  1  0  0  0  0  0999 V2000
  183.1980  179.2120  137.8100 O   0  0  0  0  0  0  0  0  0  0  0  0
  188.3730  177.8290  147.2280 C   0  0  0  0  0  0  0  0  0  0  0  0
  189.5240  177.2590  143.2380 C   0  0  0  0  0  0  0  0  0  0  0  0
  183.1750  178.0980  138.3980 C   0  0  0  0  0  0  0  0  0  0  0  0
  187.5930  179.5790  141.4870 C   0  0  0  0  0  2  0  0  0  0  0  0
  190.2680  177.4720  145.5230 C   0  0  0  0  0  0  0  0  0  0  0  0
  188.2090  177.2320  142.5370 C   0  0  2  0  0  3  0  0  0  0  0  0
  184.5460  178.9510  140.3690 C   0  0  0  0  0  0  0  0  0  0  0  0
  189.2730  177.2630  144.5760 C   0  0  0  0  0  0  0  0  0  0  0  0
  188.0940  178.1410  141.2920 C   0  0  2  0  0  3  0  0  0  0  0  0
  191.5960  177.5330  145.0760 C   0  0  0  0  0  3  0  0  0  0  0  0
  183.8460  177.9230  139.6550 N   0  0  0  0  0  2  0  0  0  0  0  0
  187.8300  177.2210  144.8430 C   0  0  1  0  0  3  0  0  0  0  0  0
  188.0940  178.8550  148.3060 C   0  0  0  0  0  1  0  0  0  0  0  0
  191.2180  177.2470  141.3000 C   0  0  0  0  0  2  0  0  0  0  0  0
  191.8830  177.4140  143.6990 C   0  0  0  0  0  3  0  0  0  0  0  0
  187.5210  178.1840  145.9890 C   0  0  0  0  0  2  0  0  0  0  0  0
  185.2970  178.6210  141.5490 N   0  0  0  0  0  0  0  0  0  0  0  0
  186.1910  179.6390  142.1140 C   0  0  0  0  0  2  0  0  0  0  0  0
  190.8470  177.2770  142.7550 C   0  0  0  0  0  0  0  0  0  0  0  0
  187.2270  177.6270  143.5720 N   0  0  2  0  0  0  0  0  0  0  0  0
  189.8950  177.8320  146.9380 C   0  0  0  0  0  2  0  0  0  0  0  0
  189.1240  177.9890  140.1670 C   0  0  1  0  0  3  0  0  0  0  0  0
  187.9720  176.4650  147.7640 C   0  0  0  0  0  1  0  0  0  0  0  0
  185.3150  177.2150  141.9960 C   0  0  0  0  0  2  0  0  0  0  0  0
  184.5080  180.1450  139.9620 O   0  0  0  0  0  0  0  0  0  0  0  0
  185.9450  176.9520  143.3810 C   0  0  0  0  0  2  0  0  0  0  0  0
  190.0890  176.8260  140.3690 C   0  0  0  0  0  2  0  0  0  0  0  0
  188.7470  178.7610  137.8150 C   0  0  0  0  0  3  0  0  0  0  0  0
  188.4290  177.8680  138.8470 C   0  0  0  0  0  0  0  0  0  0  0  0
  187.4710  176.8650  138.6250 C   0  0  0  0  0  3  0  0  0  0  0  0
  185.8130  175.7080  137.1550 C   0  0  0  0  0  1  0  0  0  0  0  0
  187.1490  177.6640  136.3620 C   0  0  0  0  0  3  0  0  0  0  0  0
  186.8300  176.7680  137.3870 C   0  0  0  0  0  0  0  0  0  0  0  0
  188.1090  178.6580  136.5750 C   0  0  0  0  0  3  0  0  0  0  0  0
  182.2740  175.8110  138.4930 C   0  0  0  0  0  1  0  0  0  0  0  0
  182.4960  177.0330  137.8060 O   0  0  0  0  0  0  0  0  0  0  0  0
  1  4  2  0  0  0  0
  2 24  1  0  0  0  0
  2 14  1  0  0  0  0
  3  9  1  0  0  0  0
  4 12  1  0  0  0  0
  5 19  1  0  0  0  0
  6 22  1  0  0  0  0
  7  3  1  1  0  0  0
  7 21  1  0  0  0  0
  8 18  1  0  0  0  0
  9 13  1  0  0  0  0
  9  6  2  0  0  0  0
 10  5  1  1  0  0  0
 10  7  1  0  0  0  0
 11  6  1  0  0  0  0
 12  8  1  0  0  0  0
 13 17  1  1  0  0  0
 15 20  1  0  0  0  0
 16 11  2  0  0  0  0
 17  2  1  0  0  0  0
 18 25  1  0  0  0  0
 18 19  1  0  0  0  0
 20  3  2  0  0  0  0
 20 16  1  0  0  0  0
 21 27  1  6  0  0  0
 21 13  1  0  0  0  0
 22  2  1  0  0  0  0
 23 30  1  6  0  0  0
 23 28  1  0  0  0  0
 23 10  1  0  0  0  0
 25 27  1  0  0  0  0
 26  8  2  0  0  0  0
 28 15  1  0  0  0  0
 29 30  1  0  0  0  0
 31 30  2  0  0  0  0
 32 34  1  0  0  0  0
 33 35  1  0  0  0  0
 33 34  2  0  0  0  0
 34 31  1  0  0  0  0
 35 29  2  0  0  0  0
 37  4  1  0  0  0  0
 37 36  1  0  0  0  0
M  END
>  <MODEL>
5

>  <REMARK>
 VINA RESULT:      -5.9      4.278      7.731
  Name = 
  2 active torsions:
  status: ('A' for Active; 'I' for Inactive)
    1  A    between atoms: C_4  and  O_37
    2  A    between atoms: C_23  and  C_30
                            x       y       z     vdW  Elec       q    Type
                         _______ _______ _______ _____ _____    ______ ____

>  <TORSDO>
F 2

$$$$
=
 OpenBabel11122411393D

 37 42  0  0  1  0  0  0  0  0999 V2000
  178.9310  176.5480  135.8570 O   0  0  0  0  0  0  0  0  0  0  0  0
  189.7420  175.8370  135.8700 C   0  0  0  0  0  0  0  0  0  0  0  0
  187.0170  177.8150  138.3670 C   0  0  0  0  0  0  0  0  0  0  0  0
  179.6310  177.4010  135.2490 C   0  0  0  0  0  0  0  0  0  0  0  0
  184.1420  175.8480  138.1650 C   0  0  0  0  0  2  0  0  0  0  0  0
  189.2860  177.0400  138.1000 C   0  0  0  0  0  0  0  0  0  0  0  0
  185.7820  177.8230  137.5330 C   0  0  2  0  0  3  0  0  0  0  0  0
  181.8180  176.2370  135.8460 C   0  0  0  0  0  0  0  0  0  0  0  0
  188.0330  177.3500  137.5880 C   0  0  0  0  0  0  0  0  0  0  0  0
  184.4940  177.3400  138.2380 C   0  0  2  0  0  3  0  0  0  0  0  0
  189.5430  177.3580  139.4420 C   0  0  0  0  0  3  0  0  0  0  0  0
  181.0620  177.2940  135.2370 N   0  0  0  0  0  2  0  0  0  0  0  0
  187.5610  177.0490  136.2300 C   0  0  1  0  0  3  0  0  0  0  0  0
  190.3290  174.4950  135.4880 C   0  0  0  0  0  1  0  0  0  0  0  0
  186.1990  178.7310  140.6280 C   0  0  0  0  0  2  0  0  0  0  0  0
  188.5350  177.9490  140.2320 C   0  0  0  0  0  3  0  0  0  0  0  0
  188.2030  175.7390  135.7750 C   0  0  0  0  0  2  0  0  0  0  0  0
  183.2530  176.3130  135.8880 N   0  0  0  0  0  0  0  0  0  0  0  0
  183.9780  175.3470  136.7210 C   0  0  0  0  0  2  0  0  0  0  0  0
  187.2500  178.1840  139.7060 C   0  0  0  0  0  0  0  0  0  0  0  0
  186.1080  176.9580  136.3770 N   0  0  2  0  0  0  0  0  0  0  0  0
  190.2390  176.1970  137.2930 C   0  0  0  0  0  2  0  0  0  0  0  0
  184.0690  178.0160  139.5460 C   0  0  1  0  0  3  0  0  0  0  0  0
  190.2610  176.8730  134.8870 C   0  0  0  0  0  1  0  0  0  0  0  0
  183.9080  177.4900  135.2860 C   0  0  0  0  0  2  0  0  0  0  0  0
  181.2270  175.2430  136.3490 O   0  0  0  0  0  0  0  0  0  0  0  0
  185.4460  177.4180  135.1580 C   0  0  0  0  0  2  0  0  0  0  0  0
  184.9330  179.2110  139.9310 C   0  0  0  0  0  2  0  0  0  0  0  0
  182.1300  178.9940  138.3010 C   0  0  0  0  0  3  0  0  0  0  0  0
  182.6280  178.4150  139.4750 C   0  0  0  0  0  0  0  0  0  0  0  0
  181.7660  178.2070  140.5650 C   0  0  0  0  0  3  0  0  0  0  0  0
  179.5150  178.3710  141.6380 C   0  0  0  0  0  1  0  0  0  0  0  0
  179.9330  179.1700  139.3080 C   0  0  0  0  0  3  0  0  0  0  0  0
  180.4240  178.5880  140.4820 C   0  0  0  0  0  0  0  0  0  0  0  0
  180.7850  179.3700  138.2170 C   0  0  0  0  0  3  0  0  0  0  0  0
  179.4580  179.7960  134.7120 C   0  0  0  0  0  1  0  0  0  0  0  0
  178.9970  178.4580  134.5960 O   0  0  0  0  0  0  0  0  0  0  0  0
  2 22  1  0  0  0  0
  3 20  1  0  0  0  0
  4  1  2  0  0  0  0
  6 11  2  0  0  0  0
  7 10  1  0  0  0  0
  7  3  1  1  0  0  0
  8 18  1  0  0  0  0
  8 26  2  0  0  0  0
  9  6  1  0  0  0  0
  9  3  2  0  0  0  0
 10  5  1  1  0  0  0
 10 23  1  0  0  0  0
 11 16  1  0  0  0  0
 12  4  1  0  0  0  0
 12  8  1  0  0  0  0
 13 17  1  1  0  0  0
 13 21  1  0  0  0  0
 13  9  1  0  0  0  0
 14  2  1  0  0  0  0
 17  2  1  0  0  0  0
 18 19  1  0  0  0  0
 19  5  1  0  0  0  0
 20 16  2  0  0  0  0
 20 15  1  0  0  0  0
 21 27  1  6  0  0  0
 21  7  1  0  0  0  0
 22  6  1  0  0  0  0
 23 30  1  6  0  0  0
 23 28  1  0  0  0  0
 24  2  1  0  0  0  0
 25 18  1  0  0  0  0
 27 25  1  0  0  0  0
 28 15  1  0  0  0  0
 29 30  1  0  0  0  0
 30 31  2  0  0  0  0
 33 34  2  0  0  0  0
 34 31  1  0  0  0  0
 34 32  1  0  0  0  0
 35 29  2  0  0  0  0
 35 33  1  0  0  0  0
 37 36  1  0  0  0  0
 37  4  1  0  0  0  0
M  END
>  <MODEL>
6

>  <REMARK>
 VINA RESULT:      -5.6      3.511      6.561
  Name = 
  2 active torsions:
  status: ('A' for Active; 'I' for Inactive)
    1  A    between atoms: C_4  and  O_37
    2  A    between atoms: C_23  and  C_30
                            x       y       z     vdW  Elec       q    Type
                         _______ _______ _______ _____ _____    ______ ____

>  <TORSDO>
F 2

$$$$
=
 OpenBabel11122411393D

 37 42  0  0  1  0  0  0  0  0999 V2000
  193.1540  176.0510  137.0130 O   0  0  0  0  0  0  0  0  0  0  0  0
  182.4590  177.4080  135.9360 C   0  0  0  0  0  0  0  0  0  0  0  0
  185.0760  177.8850  139.1760 C   0  0  0  0  0  0  0  0  0  0  0  0
  192.3590  175.1050  137.2580 C   0  0  0  0  0  0  0  0  0  0  0  0
  188.1090  178.7160  137.6640 C   0  0  0  0  0  2  0  0  0  0  0  0
  182.8800  178.3520  138.2940 C   0  0  0  0  0  0  0  0  0  0  0  0
  186.2760  177.1290  138.7180 C   0  0  2  0  0  3  0  0  0  0  0  0
  190.3080  176.4770  136.6220 C   0  0  0  0  0  0  0  0  0  0  0  0
  184.0810  177.6550  138.2750 C   0  0  0  0  0  0  0  0  0  0  0  0
  187.6260  177.8710  138.8500 C   0  0  2  0  0  3  0  0  0  0  0  0
  182.6400  179.2170  139.3720 C   0  0  0  0  0  3  0  0  0  0  0  0
  190.9440  175.2820  137.0970 N   0  0  0  0  0  2  0  0  0  0  0  0
  184.5310  176.7490  137.2110 C   0  0  1  0  0  3  0  0  0  0  0  0
  181.9840  177.9980  134.6260 C   0  0  0  0  0  1  0  0  0  0  0  0
  185.8850  179.0020  141.3490 C   0  0  0  0  0  2  0  0  0  0  0  0
  183.6170  179.3780  140.3770 C   0  0  0  0  0  3  0  0  0  0  0  0
  183.9960  177.2670  135.8770 C   0  0  0  0  0  2  0  0  0  0  0  0
  188.8750  176.5830  136.6360 N   0  0  0  0  0  0  0  0  0  0  0  0
  188.2690  177.8940  136.3750 C   0  0  0  0  0  2  0  0  0  0  0  0
  184.8560  178.7150  140.2920 C   0  0  0  0  0  0  0  0  0  0  0  0
  185.9920  176.7990  137.3040 N   0  0  2  0  0  0  0  0  0  0  0  0
  181.9790  178.3300  137.0860 C   0  0  0  0  0  2  0  0  0  0  0  0
  188.0320  178.4300  140.2180 C   0  0  1  0  0  3  0  0  0  0  0  0
  181.8150  176.0410  136.0960 C   0  0  0  0  0  1  0  0  0  0  0  0
  188.0950  175.4350  137.1390 C   0  0  0  0  0  2  0  0  0  0  0  0
  191.0040  177.4400  136.1960 O   0  0  0  0  0  0  0  0  0  0  0  0
  186.5670  175.5090  136.9270 C   0  0  0  0  0  2  0  0  0  0  0  0
  187.0760  178.0550  141.3450 C   0  0  0  0  0  2  0  0  0  0  0  0
  190.3340  177.7340  139.5210 C   0  0  0  0  0  3  0  0  0  0  0  0
  189.4280  178.0050  140.5540 C   0  0  0  0  0  0  0  0  0  0  0  0
  189.8440  177.8840  141.8910 C   0  0  0  0  0  3  0  0  0  0  0  0
  191.5860  177.3520  143.6020 C   0  0  0  0  0  1  0  0  0  0  0  0
  192.0490  177.2110  141.1510 C   0  0  0  0  0  3  0  0  0  0  0  0
  191.1490  177.4830  142.1870 C   0  0  0  0  0  0  0  0  0  0  0  0
  191.6420  177.3390  139.8190 C   0  0  0  0  0  3  0  0  0  0  0  0
  193.5600  173.0020  136.8270 C   0  0  0  0  0  1  0  0  0  0  0  0
  192.8720  173.8850  137.6990 O   0  0  0  0  0  0  0  0  0  0  0  0
  1  4  2  0  0  0  0
  2 24  1  0  0  0  0
  2 22  1  0  0  0  0
  3 20  1  0  0  0  0
  4 37  1  0  0  0  0
  6 11  2  0  0  0  0
  7 10  1  0  0  0  0
  7  3  1  6  0  0  0
  8 18  1  0  0  0  0
  8 12  1  0  0  0  0
  9  6  1  0  0  0  0
  9  3  2  0  0  0  0
 10  5  1  6  0  0  0
 10 23  1  0  0  0  0
 11 16  1  0  0  0  0
 12  4  1  0  0  0  0
 13 17  1  6  0  0  0
 13 21  1  0  0  0  0
 13  9  1  0  0  0  0
 14  2  1  0  0  0  0
 17  2  1  0  0  0  0
 18 25  1  0  0  0  0
 19 18  1  0  0  0  0
 19  5  1  0  0  0  0
 20 16  2  0  0  0  0
 20 15  1  0  0  0  0
 21 27  1  1  0  0  0
 21  7  1  0  0  0  0
 22  6  1  0  0  0  0
 23 30  1  1  0  0  0
 23 28  1  0  0  0  0
 26  8  2  0  0  0  0
 27 25  1  0  0  0  0
 28 15  1  0  0  0  0
 29 35  2  0  0  0  0
 29 30  1  0  0  0  0
 30 31  2  0  0  0  0
 31 34  1  0  0  0  0
 33 34  2  0  0  0  0
 34 32  1  0  0  0  0
 35 33  1  0  0  0  0
 36 37  1  0  0  0  0
M  END
>  <MODEL>
7

>  <REMARK>
 VINA RESULT:      -5.1      2.713      8.616
  Name = 
  2 active torsions:
  status: ('A' for Active; 'I' for Inactive)
    1  A    between atoms: C_4  and  O_37
    2  A    between atoms: C_23  and  C_30
                            x       y       z     vdW  Elec       q    Type
                         _______ _______ _______ _____ _____    ______ ____

>  <TORSDO>
F 2

$$$$
=
 OpenBabel11122411393D

 37 42  0  0  1  0  0  0  0  0999 V2000
  188.9790  178.4960  147.4090 O   0  0  0  0  0  0  0  0  0  0  0  0
  192.2180  176.2260  137.3220 C   0  0  0  0  0  0  0  0  0  0  0  0
  188.4900  177.2260  138.9560 C   0  0  0  0  0  0  0  0  0  0  0  0
  188.9370  177.3150  146.9710 C   0  0  0  0  0  0  0  0  0  0  0  0
  189.3070  179.1960  141.7190 C   0  0  0  0  0  2  0  0  0  0  0  0
  189.7940  177.0050  136.9390 C   0  0  0  0  0  0  0  0  0  0  0  0
  188.7120  176.9770  140.4090 C   0  0  2  0  0  3  0  0  0  0  0  0
  189.9410  177.9640  144.7200 C   0  0  0  0  0  0  0  0  0  0  0  0
  189.5850  176.7660  138.2920 C   0  0  0  0  0  0  0  0  0  0  0  0
  188.2760  178.1170  141.3580 C   0  0  2  0  0  3  0  0  0  0  0  0
  188.7610  177.6180  136.2140 C   0  0  0  0  0  3  0  0  0  0  0  0
  189.3840  177.0150  145.6410 N   0  0  0  0  0  2  0  0  0  0  0  0
  190.5620  176.1850  139.2210 C   0  0  1  0  0  3  0  0  0  0  0  0
  193.5780  176.7530  136.9170 C   0  0  0  0  0  1  0  0  0  0  0  0
  186.1600  178.3170  138.9020 C   0  0  0  0  0  2  0  0  0  0  0  0
  187.5700  177.9960  136.8680 C   0  0  0  0  0  3  0  0  0  0  0  0
  191.9600  176.6250  138.7920 C   0  0  0  0  0  2  0  0  0  0  0  0
  190.2220  177.5720  143.3670 N   0  0  0  0  0  0  0  0  0  0  0  0
  190.5600  178.6170  142.3930 C   0  0  0  0  0  2  0  0  0  0  0  0
  187.4160  177.8090  138.2550 C   0  0  0  0  0  0  0  0  0  0  0  0
  190.1650  176.7200  140.5250 N   0  0  2  0  0  0  0  0  0  0  0  0
  191.1640  176.8040  136.3440 C   0  0  0  0  0  2  0  0  0  0  0  0
  186.8360  178.6340  141.2810 C   0  0  1  0  0  3  0  0  0  0  0  0
  192.2420  174.7130  137.1880 C   0  0  0  0  0  1  0  0  0  0  0  0
  189.9320  176.1810  142.9680 C   0  0  0  0  0  2  0  0  0  0  0  0
  190.1800  179.1450  145.0950 O   0  0  0  0  0  0  0  0  0  0  0  0
  190.4560  175.7510  141.5800 C   0  0  0  0  0  2  0  0  0  0  0  0
  185.9460  177.8400  140.3310 C   0  0  0  0  0  2  0  0  0  0  0  0
  186.9690  178.2150  143.7460 C   0  0  0  0  0  3  0  0  0  0  0  0
  186.2300  178.6780  142.6490 C   0  0  0  0  0  0  0  0  0  0  0  0
  184.9360  179.1870  142.8500 C   0  0  0  0  0  3  0  0  0  0  0  0
  183.0140  179.7530  144.3440 C   0  0  0  0  0  1  0  0  0  0  0  0
  185.1260  178.7510  145.2250 C   0  0  0  0  0  3  0  0  0  0  0  0
  184.3850  179.2180  144.1340 C   0  0  0  0  0  0  0  0  0  0  0  0
  186.4180  178.2530  145.0310 C   0  0  0  0  0  3  0  0  0  0  0  0
  187.5550  176.5800  148.8690 C   0  0  0  0  0  1  0  0  0  0  0  0
  188.4400  176.3040  147.7940 O   0  0  0  0  0  0  0  0  0  0  0  0
  2 17  1  0  0  0  0
  4  1  2  0  0  0  0
  4 37  1  0  0  0  0
  5 19  1  0  0  0  0
  6  9  2  0  0  0  0
  7  3  1  6  0  0  0
  7 21  1  0  0  0  0
  7 10  1  0  0  0  0
  8 26  2  0  0  0  0
  8 12  1  0  0  0  0
  9  3  1  0  0  0  0
  9 13  1  0  0  0  0
 10  5  1  6  0  0  0
 11 16  2  0  0  0  0
 11  6  1  0  0  0  0
 12  4  1  0  0  0  0
 13 17  1  6  0  0  0
 13 21  1  0  0  0  0
 14  2  1  0  0  0  0
 15 28  1  0  0  0  0
 16 20  1  0  0  0  0
 18  8  1  0  0  0  0
 19 18  1  0  0  0  0
 20 15  1  0  0  0  0
 20  3  2  0  0  0  0
 21 27  1  1  0  0  0
 22  6  1  0  0  0  0
 22  2  1  0  0  0  0
 23 10  1  0  0  0  0
 23 30  1  1  0  0  0
 24  2  1  0  0  0  0
 25 18  1  0  0  0  0
 27 25  1  0  0  0  0
 28 23  1  0  0  0  0
 29 35  1  0  0  0  0
 30 31  1  0  0  0  0
 30 29  2  0  0  0  0
 31 34  2  0  0  0  0
 34 32  1  0  0  0  0
 34 33  1  0  0  0  0
 35 33  2  0  0  0  0
 37 36  1  0  0  0  0
M  END
>  <MODEL>
8

>  <REMARK>
 VINA RESULT:      -4.5      3.751      6.503
  Name = 
  2 active torsions:
  status: ('A' for Active; 'I' for Inactive)
    1  A    between atoms: C_4  and  O_37
    2  A    between atoms: C_23  and  C_30
                            x       y       z     vdW  Elec       q    Type
                         _______ _______ _______ _____ _____    ______ ____

>  <TORSDO>
F 2

$$$$
=
 OpenBabel11122411393D

 37 42  0  0  1  0  0  0  0  0999 V2000
  191.9510  177.6310  146.7310 O   0  0  0  0  0  0  0  0  0  0  0  0
  188.6250  177.8200  136.4210 C   0  0  0  0  0  0  0  0  0  0  0  0
  186.5720  177.8910  140.0750 C   0  0  0  0  0  0  0  0  0  0  0  0
  191.6810  176.5610  146.1240 C   0  0  0  0  0  0  0  0  0  0  0  0
  188.8300  179.4180  142.2550 C   0  0  0  0  0  2  0  0  0  0  0  0
  186.4320  178.2590  137.6960 C   0  0  0  0  0  0  0  0  0  0  0  0
  187.6170  177.4160  141.0270 C   0  0  2  0  0  3  0  0  0  0  0  0
  191.1430  177.7680  143.9450 C   0  0  0  0  0  0  0  0  0  0  0  0
  187.0690  177.7430  138.8170 C   0  0  0  0  0  0  0  0  0  0  0  0
  187.8070  178.2750  142.2980 C   0  0  2  0  0  3  0  0  0  0  0  0
  185.1580  178.8230  137.8670 C   0  0  0  0  0  3  0  0  0  0  0  0
  191.2580  176.5880  144.7530 N   0  0  0  0  0  2  0  0  0  0  0  0
  188.4180  177.1630  138.8460 C   0  0  1  0  0  3  0  0  0  0  0  0
  189.4700  178.6220  135.4560 C   0  0  0  0  0  1  0  0  0  0  0  0
  184.6430  178.5880  141.6300 C   0  0  0  0  0  2  0  0  0  0  0  0
  184.5790  178.8790  139.1520 C   0  0  0  0  0  3  0  0  0  0  0  0
  189.2810  177.8930  137.8180 C   0  0  0  0  0  2  0  0  0  0  0  0
  190.5750  177.6840  142.6280 N   0  0  0  0  0  0  0  0  0  0  0  0
  190.2500  178.9320  141.9260 C   0  0  0  0  0  2  0  0  0  0  0  0
  185.2810  178.4150  140.2810 C   0  0  0  0  0  0  0  0  0  0  0  0
  188.8600  177.3760  140.2250 N   0  0  2  0  0  0  0  0  0  0  0  0
  187.1850  178.3930  136.3980 C   0  0  0  0  0  2  0  0  0  0  0  0
  186.5910  178.5620  143.1860 C   0  0  1  0  0  3  0  0  0  0  0  0
  188.5940  176.3810  135.9340 C   0  0  0  0  0  1  0  0  0  0  0  0
  190.1310  176.3630  142.1410 C   0  0  0  0  0  2  0  0  0  0  0  0
  191.5350  178.8820  144.3890 O   0  0  0  0  0  0  0  0  0  0  0  0
  189.7380  176.2870  140.6490 C   0  0  0  0  0  2  0  0  0  0  0  0
  185.3270  177.8260  142.7560 C   0  0  0  0  0  2  0  0  0  0  0  0
  187.8000  177.2110  144.9130 C   0  0  0  0  0  3  0  0  0  0  0  0
  186.9140  178.2540  144.6150 C   0  0  0  0  0  0  0  0  0  0  0  0
  186.3490  179.0030  145.6610 C   0  0  0  0  0  3  0  0  0  0  0  0
  186.0560  179.4910  148.0940 C   0  0  0  0  0  1  0  0  0  0  0  0
  187.5410  177.6550  147.2810 C   0  0  0  0  0  3  0  0  0  0  0  0
  186.6580  178.7000  146.9890 C   0  0  0  0  0  0  0  0  0  0  0  0
  188.1140  176.9130  146.2430 C   0  0  0  0  0  3  0  0  0  0  0  0
  192.4300  175.2530  148.0680 C   0  0  0  0  0  1  0  0  0  0  0  0
  191.7870  175.3490  146.8060 O   0  0  0  0  0  0  0  0  0  0  0  0
  2 17  1  0  0  0  0
  3 20  1  0  0  0  0
  4  1  2  0  0  0  0
  4 37  1  0  0  0  0
  6 11  2  0  0  0  0
  6  9  1  0  0  0  0
  7  3  1  6  0  0  0
  7 10  1  0  0  0  0
  8 26  2  0  0  0  0
  8 12  1  0  0  0  0
  9 13  1  0  0  0  0
  9  3  2  0  0  0  0
 10  5  1  6  0  0  0
 10 23  1  0  0  0  0
 11 16  1  0  0  0  0
 12  4  1  0  0  0  0
 13 17  1  6  0  0  0
 13 21  1  0  0  0  0
 14  2  1  0  0  0  0
 15 28  1  0  0  0  0
 16 20  2  0  0  0  0
 18  8  1  0  0  0  0
 19  5  1  0  0  0  0
 19 18  1  0  0  0  0
 20 15  1  0  0  0  0
 21 27  1  1  0  0  0
 21  7  1  0  0  0  0
 22  2  1  0  0  0  0
 22  6  1  0  0  0  0
 23 30  1  1  0  0  0
 24  2  1  0  0  0  0
 25 18  1  0  0  0  0
 27 25  1  0  0  0  0
 28 23  1  0  0  0  0
 29 35  1  0  0  0  0
 30 29  2  0  0  0  0
 30 31  1  0  0  0  0
 31 34  2  0  0  0  0
 34 33  1  0  0  0  0
 34 32  1  0  0  0  0
 35 33  2  0  0  0  0
 37 36  1  0  0  0  0
M  END
>  <MODEL>
9

>  <REMARK>
 VINA RESULT:      -4.1      4.484      8.235
  Name = 
  2 active torsions:
  status: ('A' for Active; 'I' for Inactive)
    1  A    between atoms: C_4  and  O_37
    2  A    between atoms: C_23  and  C_30
                            x       y       z     vdW  Elec       q    Type
                         _______ _______ _______ _____ _____    ______ ____

>  <TORSDO>
F 2

$$$$
