=
 OpenBabel11122410453D

 32 37  0  0  1  0  0  0  0  0999 V2000
  180.4650  181.0800  139.3460 C   0  0  0  0  0  2  0  0  0  0  0  0
  184.5860  178.9550  141.3380 C   0  0  1  0  0  3  0  0  0  0  0  0
  188.5190  178.4490  138.4040 C   0  0  0  0  0  2  0  0  0  0  0  0
  189.2240  178.8470  139.7030 C   0  0  0  0  0  2  0  0  0  0  0  0
  184.9980  178.8990  143.8670 C   0  0  0  0  0  0  0  0  0  0  0  0
  185.8100  178.5230  144.9410 C   0  0  0  0  0  0  0  0  0  0  0  0
  182.2880  178.8320  140.3070 N   0  0  2  0  0  0  0  0  0  0  0  0
  184.3310  178.9360  138.8480 C   0  0  0  0  0  2  0  0  0  0  0  0
  187.6520  177.6250  145.9640 N   0  0  0  0  0  0  0  0  0  0  0  0
  182.1320  179.6830  137.9870 C   0  0  0  0  0  2  0  0  0  0  0  0
  187.0420  178.1000  138.6280 C   0  0  0  0  0  2  0  0  0  0  0  0
  185.1230  178.3590  140.0380 C   0  0  1  0  0  3  0  0  0  0  0  0
  186.5690  178.5970  139.9270 N   0  0  1  0  0  0  0  0  0  0  0  0
  186.7340  178.0510  142.3480 C   0  0  0  0  0  0  0  0  0  0  0  0
  186.8170  178.0900  147.0640 C   0  0  0  0  0  3  0  0  0  0  0  0
  180.1930  179.8500  139.9550 O   0  0  0  0  0  0  0  0  0  0  0  0
  182.9980  179.5890  139.2460 C   0  0  1  0  0  3  0  0  0  0  0  0
  185.5590  178.7010  146.4040 C   0  0  0  0  0  3  0  0  0  0  0  0
  181.2360  179.6800  140.8720 C   0  0  0  0  0  2  0  0  0  0  0  0
  181.1810  180.8840  138.0030 C   0  0  1  0  0  3  0  0  0  0  0  0
  188.7930  177.9510  140.8670 C   0  0  0  0  0  2  0  0  0  0  0  0
  187.2560  177.7840  140.9500 C   0  0  2  0  0  3  0  0  0  0  0  0
  187.5080  177.6690  143.4610 C   0  0  0  0  0  3  0  0  0  0  0  0
  183.1390  178.4680  141.4570 C   0  0  0  0  0  2  0  0  0  0  0  0
  183.7200  179.6260  144.1420 C   0  0  0  0  0  1  0  0  0  0  0  0
  188.9490  176.9860  146.1230 C   0  0  0  0  0  1  0  0  0  0  0  0
  185.4320  178.5970  142.5460 C   0  0  0  0  0  0  0  0  0  0  0  0
  187.0120  177.9120  144.7390 C   0  0  0  0  0  0  0  0  0  0  0  0
  180.2010  180.7340  136.9360 N   0  0  0  0  0  2  0  0  0  0  0  0
  180.0970  181.6630  135.8520 C   0  0  0  0  0  0  0  0  0  0  0  0
  180.9080  182.6250  135.7480 O   0  0  0  0  0  0  0  0  0  0  0  0
  179.0270  181.4880  134.8330 C   0  0  0  0  0  1  0  0  0  0  0  0
  1 16  1  0  0  0  0
  2 24  1  1  0  0  0
  2 27  1  0  0  0  0
  3 11  1  0  0  0  0
  3  4  1  0  0  0  0
  4 21  1  0  0  0  0
  5 25  1  0  0  0  0
  5  6  1  0  0  0  0
  6 18  1  0  0  0  0
  7 19  1  1  0  0  0
  7 24  1  0  0  0  0
  8 17  1  0  0  0  0
  9 26  1  0  0  0  0
  9 15  1  0  0  0  0
 10 20  1  0  0  0  0
 12  8  1  6  0  0  0
 12  2  1  0  0  0  0
 13 11  1  6  0  0  0
 13 12  1  0  0  0  0
 13 22  1  0  0  0  0
 14 27  1  0  0  0  0
 14 23  2  0  0  0  0
 16 19  1  0  0  0  0
 17 10  1  6  0  0  0
 17  7  1  0  0  0  0
 18 15  2  0  0  0  0
 20 29  1  6  0  0  0
 20  1  1  0  0  0  0
 22 21  1  1  0  0  0
 22 14  1  0  0  0  0
 23 28  1  0  0  0  0
 27  5  2  0  0  0  0
 28  6  2  0  0  0  0
 28  9  1  0  0  0  0
 30 29  1  0  0  0  0
 31 30  2  0  0  0  0
 32 30  1  0  0  0  0
M  END
>  <MODEL>
1

>  <REMARK>
 VINA RESULT:      -9.3      0.000      0.000
  Name = 
  1 active torsions:
  status: ('A' for Active; 'I' for Inactive)
    1  A    between atoms: C_20  and  N_29
                            x       y       z     vdW  Elec       q    Type
                         _______ _______ _______ _____ _____    ______ ____

>  <TORSDO>
F 1

$$$$
=
 OpenBabel11122410453D

 32 37  0  0  1  0  0  0  0  0999 V2000
  185.2610  177.3650  137.6030 C   0  0  0  0  0  2  0  0  0  0  0  0
  186.9380  177.8910  142.3330 C   0  0  1  0  0  3  0  0  0  0  0  0
  183.5940  178.8480  145.8300 C   0  0  0  0  0  2  0  0  0  0  0  0
  184.4940  177.8790  146.6020 C   0  0  0  0  0  2  0  0  0  0  0  0
  189.1820  176.9140  143.0950 C   0  0  0  0  0  0  0  0  0  0  0  0
  190.1200  176.7190  144.1120 C   0  0  0  0  0  0  0  0  0  0  0  0
  186.5270  178.7590  140.0010 N   0  0  2  0  0  0  0  0  0  0  0  0
  184.7230  178.8970  141.7450 C   0  0  0  0  0  2  0  0  0  0  0  0
  190.9730  176.8560  146.2330 N   0  0  0  0  0  0  0  0  0  0  0  0
  184.1460  178.8920  139.3350 C   0  0  0  0  0  2  0  0  0  0  0  0
  184.2330  179.3130  144.5160 C   0  0  0  0  0  2  0  0  0  0  0  0
  185.8410  178.8440  142.8040 C   0  0  1  0  0  3  0  0  0  0  0  0
  185.3500  178.4410  144.1290 N   0  0  1  0  0  0  0  0  0  0  0  0
  187.7160  177.9900  144.7480 C   0  0  0  0  0  0  0  0  0  0  0  0
  191.9950  176.1450  145.4770 C   0  0  0  0  0  3  0  0  0  0  0  0
  186.3000  178.2970  137.7020 O   0  0  0  0  0  0  0  0  0  0  0  0
  185.1450  178.3610  140.3670 C   0  0  1  0  0  3  0  0  0  0  0  0
  191.4490  176.0390  144.0340 C   0  0  0  0  0  3  0  0  0  0  0  0
  186.9750  177.9380  138.8740 C   0  0  0  0  0  2  0  0  0  0  0  0
  183.9490  177.9420  138.1490 C   0  0  1  0  0  3  0  0  0  0  0  0
  185.9590  178.3200  146.5500 C   0  0  0  0  0  2  0  0  0  0  0  0
  186.4190  178.6830  145.1170 C   0  0  2  0  0  3  0  0  0  0  0  0
  188.7010  177.7910  145.7360 C   0  0  0  0  0  3  0  0  0  0  0  0
  187.5220  178.5180  141.0640 C   0  0  0  0  0  2  0  0  0  0  0  0
  189.4540  176.3480  141.7370 C   0  0  0  0  0  1  0  0  0  0  0  0
  191.0620  177.1720  147.6500 C   0  0  0  0  0  1  0  0  0  0  0  0
  187.9850  177.6240  143.3970 C   0  0  0  0  0  0  0  0  0  0  0  0
  189.8900  177.1620  145.3810 C   0  0  0  0  0  0  0  0  0  0  0  0
  183.2330  178.6400  137.0900 N   0  0  0  0  0  2  0  0  0  0  0  0
  181.8080  178.5990  136.9700 C   0  0  0  0  0  0  0  0  0  0  0  0
  181.1050  178.0000  137.8300 O   0  0  0  0  0  0  0  0  0  0  0  0
  181.1470  179.2780  135.8220 C   0  0  0  0  0  1  0  0  0  0  0  0
  1 16  1  0  0  0  0
  1 20  1  0  0  0  0
  2 24  1  6  0  0  0
  2 12  1  0  0  0  0
  2 27  1  0  0  0  0
  3  4  1  0  0  0  0
  5 27  2  0  0  0  0
  5  6  1  0  0  0  0
  6 28  2  0  0  0  0
  7 19  1  6  0  0  0
  7 17  1  0  0  0  0
  7 24  1  0  0  0  0
  9 26  1  0  0  0  0
 11  3  1  0  0  0  0
 12  8  1  6  0  0  0
 12 13  1  0  0  0  0
 13 11  1  1  0  0  0
 13 22  1  0  0  0  0
 14 22  1  0  0  0  0
 14 23  2  0  0  0  0
 15  9  1  0  0  0  0
 16 19  1  0  0  0  0
 17 10  1  6  0  0  0
 17  8  1  0  0  0  0
 18  6  1  0  0  0  0
 18 15  2  0  0  0  0
 20 29  1  6  0  0  0
 20 10  1  0  0  0  0
 21  4  1  0  0  0  0
 22 21  1  1  0  0  0
 25  5  1  0  0  0  0
 27 14  1  0  0  0  0
 28 23  1  0  0  0  0
 28  9  1  0  0  0  0
 30 29  1  0  0  0  0
 30 31  2  0  0  0  0
 32 30  1  0  0  0  0
M  END
>  <MODEL>
2

>  <REMARK>
 VINA RESULT:      -9.1      2.188      4.927
  Name = 
  1 active torsions:
  status: ('A' for Active; 'I' for Inactive)
    1  A    between atoms: C_20  and  N_29
                            x       y       z     vdW  Elec       q    Type
                         _______ _______ _______ _____ _____    ______ ____

>  <TORSDO>
F 1

$$$$
=
 OpenBabel11122410453D

 32 37  0  0  1  0  0  0  0  0999 V2000
  182.4330  178.2990  141.2180 C   0  0  0  0  0  2  0  0  0  0  0  0
  187.4410  177.9590  141.7350 C   0  0  1  0  0  3  0  0  0  0  0  0
  189.2020  177.1670  146.2750 C   0  0  0  0  0  2  0  0  0  0  0  0
  190.1520  176.2700  145.4770 C   0  0  0  0  0  2  0  0  0  0  0  0
  188.9740  177.3710  139.7660 C   0  0  0  0  0  0  0  0  0  0  0  0
  190.2640  177.1450  139.2790 C   0  0  0  0  0  0  0  0  0  0  0  0
  185.3090  179.2810  141.4830 N   0  0  2  0  0  0  0  0  0  0  0  0
  186.0800  178.5360  143.7560 C   0  0  0  0  0  2  0  0  0  0  0  0
  192.5400  176.9230  139.3920 N   0  0  0  0  0  0  0  0  0  0  0  0
  183.6870  179.0210  143.3360 C   0  0  0  0  0  2  0  0  0  0  0  0
  188.3800  178.0940  145.3690 C   0  0  0  0  0  2  0  0  0  0  0  0
  187.5050  178.4730  143.1730 C   0  0  1  0  0  3  0  0  0  0  0  0
  188.4110  177.6370  143.9740 N   0  0  1  0  0  0  0  0  0  0  0  0
  189.9420  177.6090  142.0130 C   0  0  0  0  0  0  0  0  0  0  0  0
  192.2230  176.6930  137.9880 C   0  0  0  0  0  3  0  0  0  0  0  0
  183.1060  179.3900  140.6550 O   0  0  0  0  0  0  0  0  0  0  0  0
  184.9710  178.4900  142.6920 C   0  0  1  0  0  3  0  0  0  0  0  0
  190.6880  176.8390  137.8780 C   0  0  0  0  0  3  0  0  0  0  0  0
  184.3950  178.9080  140.4010 C   0  0  0  0  0  2  0  0  0  0  0  0
  182.4190  178.3910  142.7490 C   0  0  1  0  0  3  0  0  0  0  0  0
  190.8110  177.0390  144.3290 C   0  0  0  0  0  2  0  0  0  0  0  0
  189.7920  177.8590  143.5010 C   0  0  2  0  0  3  0  0  0  0  0  0
  191.2250  177.3970  141.4730 C   0  0  0  0  0  3  0  0  0  0  0  0
  186.6580  179.0130  140.9470 C   0  0  0  0  0  2  0  0  0  0  0  0
  187.8120  177.2570  138.8320 C   0  0  0  0  0  1  0  0  0  0  0  0
  193.8800  176.8730  139.9550 C   0  0  0  0  0  1  0  0  0  0  0  0
  188.8110  177.6780  141.1470 C   0  0  0  0  0  0  0  0  0  0  0  0
  191.3480  177.1780  140.1030 C   0  0  0  0  0  0  0  0  0  0  0  0
  181.2580  179.1530  143.1910 N   0  0  0  0  0  2  0  0  0  0  0  0
  180.1110  178.5320  143.7780 C   0  0  0  0  0  0  0  0  0  0  0  0
  180.0910  177.2890  143.9980 O   0  0  0  0  0  0  0  0  0  0  0  0
  178.9310  179.3630  144.1420 C   0  0  0  0  0  1  0  0  0  0  0  0
  1 20  1  0  0  0  0
  2 24  1  6  0  0  0
  2 12  1  0  0  0  0
  4  3  1  0  0  0  0
  5 27  1  0  0  0  0
  6  5  2  0  0  0  0
  6 28  1  0  0  0  0
  7 19  1  6  0  0  0
  7 17  1  0  0  0  0
  9 26  1  0  0  0  0
  9 28  1  0  0  0  0
 11  3  1  0  0  0  0
 12  8  1  1  0  0  0
 12 13  1  0  0  0  0
 13 11  1  1  0  0  0
 14 22  1  0  0  0  0
 15  9  1  0  0  0  0
 16  1  1  0  0  0  0
 17 10  1  1  0  0  0
 17  8  1  0  0  0  0
 18 15  2  0  0  0  0
 18  6  1  0  0  0  0
 19 16  1  0  0  0  0
 20 29  1  6  0  0  0
 20 10  1  0  0  0  0
 21  4  1  0  0  0  0
 22 13  1  0  0  0  0
 22 21  1  1  0  0  0
 23 14  1  0  0  0  0
 24  7  1  0  0  0  0
 25  5  1  0  0  0  0
 27  2  1  0  0  0  0
 27 14  2  0  0  0  0
 28 23  2  0  0  0  0
 29 30  1  0  0  0  0
 30 31  2  0  0  0  0
 30 32  1  0  0  0  0
M  END
>  <MODEL>
3

>  <REMARK>
 VINA RESULT:      -8.4      3.074      6.287
  Name = 
  1 active torsions:
  status: ('A' for Active; 'I' for Inactive)
    1  A    between atoms: C_20  and  N_29
                            x       y       z     vdW  Elec       q    Type
                         _______ _______ _______ _____ _____    ______ ____

>  <TORSDO>
F 1

$$$$
=
 OpenBabel11122410453D

 32 37  0  0  1  0  0  0  0  0999 V2000
  188.3850  176.6640  147.4810 C   0  0  0  0  0  2  0  0  0  0  0  0
  186.6470  178.0650  142.9550 C   0  0  1  0  0  3  0  0  0  0  0  0
  189.5070  177.1400  139.0440 C   0  0  0  0  0  2  0  0  0  0  0  0
  188.1400  176.8090  138.4390 C   0  0  0  0  0  2  0  0  0  0  0  0
  184.1510  178.4430  142.5160 C   0  0  0  0  0  0  0  0  0  0  0  0
  183.1300  178.7910  141.6270 C   0  0  0  0  0  0  0  0  0  0  0  0
  187.7520  178.5500  145.1690 N   0  0  2  0  0  0  0  0  0  0  0  0
  189.1140  177.7290  143.2230 C   0  0  0  0  0  2  0  0  0  0  0  0
  182.2140  179.3890  139.6150 N   0  0  0  0  0  0  0  0  0  0  0  0
  189.9050  177.3860  145.5450 C   0  0  0  0  0  2  0  0  0  0  0  0
  189.3870  177.8570  140.3940 C   0  0  0  0  0  2  0  0  0  0  0  0
  188.0110  178.2930  142.3050 C   0  0  1  0  0  3  0  0  0  0  0  0
  188.0390  177.7080  140.9570 N   0  0  1  0  0  0  0  0  0  0  0  0
  185.7360  178.5950  140.6440 C   0  0  0  0  0  0  0  0  0  0  0  0
  181.0780  179.3220  140.5250 C   0  0  0  0  0  3  0  0  0  0  0  0
  187.9940  178.0080  147.4490 O   0  0  0  0  0  0  0  0  0  0  0  0
  188.6530  177.4820  144.6690 C   0  0  1  0  0  3  0  0  0  0  0  0
  181.6650  178.9220  141.8970 C   0  0  0  0  0  3  0  0  0  0  0  0
  187.0870  178.0790  146.3850 C   0  0  0  0  0  2  0  0  0  0  0  0
  189.7200  176.4610  146.7530 C   0  0  1  0  0  3  0  0  0  0  0  0
  187.1520  177.9620  138.6350 C   0  0  0  0  0  2  0  0  0  0  0  0
  187.1430  178.4960  140.0880 C   0  0  2  0  0  3  0  0  0  0  0  0
  184.6780  178.9640  139.7900 C   0  0  0  0  0  3  0  0  0  0  0  0
  186.6530  178.8900  144.2440 C   0  0  0  0  0  2  0  0  0  0  0  0
  183.7980  178.0910  143.9260 C   0  0  0  0  0  1  0  0  0  0  0  0
  182.1240  179.7230  138.2020 C   0  0  0  0  0  1  0  0  0  0  0  0
  185.4910  178.4100  142.0360 C   0  0  0  0  0  0  0  0  0  0  0  0
  183.3940  179.0610  140.3170 C   0  0  0  0  0  0  0  0  0  0  0  0
  190.8260  176.6570  147.6800 N   0  0  0  0  0  2  0  0  0  0  0  0
  192.0460  175.9150  147.5880 C   0  0  0  0  0  0  0  0  0  0  0  0
  192.2350  175.0980  146.6440 O   0  0  0  0  0  0  0  0  0  0  0  0
  193.1080  176.1160  148.6110 C   0  0  0  0  0  1  0  0  0  0  0  0
  2 24  1  1  0  0  0
  3 11  1  0  0  0  0
  4 21  1  0  0  0  0
  4  3  1  0  0  0  0
  5 25  1  0  0  0  0
  6 18  1  0  0  0  0
  6  5  2  0  0  0  0
  7 24  1  6  0  0  0
  7 19  1  0  0  0  0
  9 28  1  0  0  0  0
  9 15  1  0  0  0  0
 10 20  1  0  0  0  0
 12  2  1  0  0  0  0
 12  8  1  1  0  0  0
 13 11  1  6  0  0  0
 13 12  1  0  0  0  0
 14 27  2  0  0  0  0
 15 18  2  0  0  0  0
 16  1  1  0  0  0  0
 17  8  1  6  0  0  0
 17  7  1  0  0  0  0
 17 10  1  0  0  0  0
 19 16  1  0  0  0  0
 20  1  1  0  0  0  0
 20 29  1  1  0  0  0
 22 21  1  6  0  0  0
 22 14  1  0  0  0  0
 22 13  1  0  0  0  0
 23 28  2  0  0  0  0
 23 14  1  0  0  0  0
 26  9  1  0  0  0  0
 27  5  1  0  0  0  0
 27  2  1  0  0  0  0
 28  6  1  0  0  0  0
 30 29  1  0  0  0  0
 30 32  1  0  0  0  0
 31 30  2  0  0  0  0
M  END
>  <MODEL>
4

>  <REMARK>
 VINA RESULT:      -8.3      3.628      8.893
  Name = 
  1 active torsions:
  status: ('A' for Active; 'I' for Inactive)
    1  A    between atoms: C_20  and  N_29
                            x       y       z     vdW  Elec       q    Type
                         _______ _______ _______ _____ _____    ______ ____

>  <TORSDO>
F 1

$$$$
=
 OpenBabel11122410453D

 32 37  0  0  1  0  0  0  0  0999 V2000
  192.8460  176.3790  135.4000 C   0  0  0  0  0  2  0  0  0  0  0  0
  189.8060  177.2850  139.3240 C   0  0  1  0  0  3  0  0  0  0  0  0
  191.9340  178.1240  143.6940 C   0  0  0  0  0  2  0  0  0  0  0  0
  190.8020  179.1520  143.7640 C   0  0  0  0  0  2  0  0  0  0  0  0
  187.4000  178.1140  139.0150 C   0  0  0  0  0  0  0  0  0  0  0  0
  186.1860  178.5070  139.5850 C   0  0  0  0  0  0  0  0  0  0  0  0
  190.9530  175.7320  137.7020 N   0  0  2  0  0  0  0  0  0  0  0  0
  192.1310  176.4840  139.7900 C   0  0  0  0  0  2  0  0  0  0  0  0
  184.7230  178.9890  141.2800 N   0  0  0  0  0  0  0  0  0  0  0  0
  193.4260  175.7380  137.8140 C   0  0  0  0  0  2  0  0  0  0  0  0
  191.7530  177.1380  142.5320 C   0  0  0  0  0  2  0  0  0  0  0  0
  190.7390  176.7330  140.4000 C   0  0  1  0  0  3  0  0  0  0  0  0
  190.7780  177.6420  141.5550 N   0  0  1  0  0  0  0  0  0  0  0  0
  188.3210  177.9160  141.2850 C   0  0  0  0  0  0  0  0  0  0  0  0
  183.9590  179.2280  140.0630 C   0  0  0  0  0  3  0  0  0  0  0  0
  191.8640  175.3940  135.5560 O   0  0  0  0  0  0  0  0  0  0  0  0
  192.1370  176.4370  138.2530 C   0  0  1  0  0  3  0  0  0  0  0  0
  184.9210  178.9070  138.8960 C   0  0  0  0  0  3  0  0  0  0  0  0
  190.8450  176.0320  136.2720 C   0  0  0  0  0  2  0  0  0  0  0  0
  193.9450  176.2340  136.4600 C   0  0  1  0  0  3  0  0  0  0  0  0
  189.4440  178.5050  143.4840 C   0  0  0  0  0  2  0  0  0  0  0  0
  189.4650  177.6000  142.2280 C   0  0  2  0  0  3  0  0  0  0  0  0
  187.0710  178.2950  141.8150 C   0  0  0  0  0  3  0  0  0  0  0  0
  189.6680  176.1740  138.2790 C   0  0  0  0  0  2  0  0  0  0  0  0
  187.5410  178.1240  137.5260 C   0  0  0  0  0  1  0  0  0  0  0  0
  184.2100  179.1770  142.6290 C   0  0  0  0  0  1  0  0  0  0  0  0
  188.4700  177.7440  139.8780 C   0  0  0  0  0  0  0  0  0  0  0  0
  186.0270  178.5730  140.9380 C   0  0  0  0  0  0  0  0  0  0  0  0
  194.9800  175.3270  135.9820 N   0  0  0  0  0  2  0  0  0  0  0  0
  196.2690  175.7860  135.5630 C   0  0  0  0  0  0  0  0  0  0  0  0
  196.5810  177.0050  135.6560 O   0  0  0  0  0  0  0  0  0  0  0  0
  197.2550  174.8130  135.0200 C   0  0  0  0  0  1  0  0  0  0  0  0
  1 16  1  0  0  0  0
  1 20  1  0  0  0  0
  2 24  1  6  0  0  0
  2 27  1  0  0  0  0
  2 12  1  0  0  0  0
  3  4  1  0  0  0  0
  5  6  2  0  0  0  0
  5 27  1  0  0  0  0
  6 28  1  0  0  0  0
  7 19  1  6  0  0  0
  7 17  1  0  0  0  0
  7 24  1  0  0  0  0
  9 26  1  0  0  0  0
 11  3  1  0  0  0  0
 12  8  1  6  0  0  0
 12 13  1  0  0  0  0
 13 22  1  0  0  0  0
 13 11  1  1  0  0  0
 14 23  1  0  0  0  0
 14 22  1  0  0  0  0
 15  9  1  0  0  0  0
 16 19  1  0  0  0  0
 17 10  1  1  0  0  0
 17  8  1  0  0  0  0
 18  6  1  0  0  0  0
 18 15  2  0  0  0  0
 20 29  1  6  0  0  0
 20 10  1  0  0  0  0
 21  4  1  0  0  0  0
 22 21  1  1  0  0  0
 25  5  1  0  0  0  0
 27 14  2  0  0  0  0
 28  9  1  0  0  0  0
 28 23  2  0  0  0  0
 30 31  2  0  0  0  0
 30 29  1  0  0  0  0
 32 30  1  0  0  0  0
M  END
>  <MODEL>
5

>  <REMARK>
 VINA RESULT:      -8.0      5.599      9.489
  Name = 
  1 active torsions:
  status: ('A' for Active; 'I' for Inactive)
    1  A    between atoms: C_20  and  N_29
                            x       y       z     vdW  Elec       q    Type
                         _______ _______ _______ _____ _____    ______ ____

>  <TORSDO>
F 1

$$$$
=
 OpenBabel11122410453D

 32 37  0  0  1  0  0  0  0  0999 V2000
  192.1670  175.7430  138.4520 C   0  0  0  0  0  2  0  0  0  0  0  0
  188.4310  177.5230  141.3390 C   0  0  1  0  0  3  0  0  0  0  0  0
  184.0590  178.2730  139.1810 C   0  0  0  0  0  2  0  0  0  0  0  0
  183.5830  177.7100  140.5230 C   0  0  0  0  0  2  0  0  0  0  0  0
  188.4500  177.2740  143.8900 C   0  0  0  0  0  0  0  0  0  0  0  0
  187.8270  177.5030  145.1210 C   0  0  0  0  0  0  0  0  0  0  0  0
  190.5220  177.8200  139.9630 N   0  0  2  0  0  0  0  0  0  0  0  0
  188.2640  177.8380  138.8620 C   0  0  0  0  0  2  0  0  0  0  0  0
  186.1800  178.2320  146.5350 N   0  0  0  0  0  0  0  0  0  0  0  0
  190.2900  177.2490  137.5640 C   0  0  0  0  0  2  0  0  0  0  0  0
  185.5520  178.6280  139.1960 C   0  0  0  0  0  2  0  0  0  0  0  0
  187.6810  178.2530  140.2270 C   0  0  1  0  0  3  0  0  0  0  0  0
  186.2370  177.9950  140.3300 N   0  0  1  0  0  0  0  0  0  0  0  0
  186.4800  178.2520  142.7930 C   0  0  0  0  0  0  0  0  0  0  0  0
  187.1900  177.6620  147.4180 C   0  0  0  0  0  3  0  0  0  0  0  0
  192.5330  176.9000  139.1490 O   0  0  0  0  0  0  0  0  0  0  0  0
  189.6470  177.1750  138.9520 C   0  0  1  0  0  3  0  0  0  0  0  0
  188.3210  177.1620  146.4910 C   0  0  0  0  0  3  0  0  0  0  0  0
  191.6580  176.9380  140.2400 C   0  0  0  0  0  2  0  0  0  0  0  0
  191.2350  176.0770  137.2800 C   0  0  1  0  0  3  0  0  0  0  0  0
  184.2010  178.4740  141.6970 C   0  0  0  0  0  2  0  0  0  0  0  0
  185.7290  178.6670  141.5430 C   0  0  2  0  0  3  0  0  0  0  0  0
  185.9010  178.4830  144.0560 C   0  0  0  0  0  3  0  0  0  0  0  0
  189.8750  178.0270  141.2730 C   0  0  0  0  0  2  0  0  0  0  0  0
  189.7580  176.5500  143.8600 C   0  0  0  0  0  1  0  0  0  0  0  0
  184.9250  178.8160  146.9820 C   0  0  0  0  0  1  0  0  0  0  0  0
  187.7980  177.7180  142.7050 C   0  0  0  0  0  0  0  0  0  0  0  0
  186.6060  178.1050  145.1960 C   0  0  0  0  0  0  0  0  0  0  0  0
  192.0210  176.3740  136.0890 N   0  0  0  0  0  2  0  0  0  0  0  0
  193.2470  175.6990  135.7910 C   0  0  0  0  0  0  0  0  0  0  0  0
  193.6640  174.7620  136.5260 O   0  0  0  0  0  0  0  0  0  0  0  0
  194.0360  176.1020  134.5940 C   0  0  0  0  0  1  0  0  0  0  0  0
  1 16  1  0  0  0  0
  2 24  1  1  0  0  0
  2 27  1  0  0  0  0
  3 11  1  0  0  0  0
  3  4  1  0  0  0  0
  4 21  1  0  0  0  0
  5  6  1  0  0  0  0
  6 28  2  0  0  0  0
  6 18  1  0  0  0  0
  7 19  1  1  0  0  0
  7 24  1  0  0  0  0
  8 17  1  0  0  0  0
  9 26  1  0  0  0  0
  9 15  1  0  0  0  0
 12  8  1  6  0  0  0
 12 13  1  0  0  0  0
 12  2  1  0  0  0  0
 13 11  1  6  0  0  0
 13 22  1  0  0  0  0
 14 23  2  0  0  0  0
 16 19  1  0  0  0  0
 17 10  1  6  0  0  0
 17  7  1  0  0  0  0
 18 15  2  0  0  0  0
 20 29  1  6  0  0  0
 20 10  1  0  0  0  0
 20  1  1  0  0  0  0
 22 21  1  1  0  0  0
 22 14  1  0  0  0  0
 23 28  1  0  0  0  0
 25  5  1  0  0  0  0
 27 14  1  0  0  0  0
 27  5  2  0  0  0  0
 28  9  1  0  0  0  0
 30 29  1  0  0  0  0
 30 31  2  0  0  0  0
 32 30  1  0  0  0  0
M  END
>  <MODEL>
6

>  <REMARK>
 VINA RESULT:      -8.0      4.365      7.679
  Name = 
  1 active torsions:
  status: ('A' for Active; 'I' for Inactive)
    1  A    between atoms: C_20  and  N_29
                            x       y       z     vdW  Elec       q    Type
                         _______ _______ _______ _____ _____    ______ ____

>  <TORSDO>
F 1

$$$$
=
 OpenBabel11122410453D

 32 37  0  0  1  0  0  0  0  0999 V2000
  184.8850  177.8470  146.5220 C   0  0  0  0  0  2  0  0  0  0  0  0
  184.3150  178.4170  141.5410 C   0  0  1  0  0  3  0  0  0  0  0  0
  188.2370  177.5000  138.6920 C   0  0  0  0  0  2  0  0  0  0  0  0
  187.1410  176.8910  137.8140 C   0  0  0  0  0  2  0  0  0  0  0  0
  182.0120  178.3430  140.4200 C   0  0  0  0  0  0  0  0  0  0  0  0
  181.2430  178.4200  139.2540 C   0  0  0  0  0  0  0  0  0  0  0  0
  184.6970  179.3260  143.8610 N   0  0  2  0  0  0  0  0  0  0  0  0
  186.6330  178.5070  142.4840 C   0  0  0  0  0  2  0  0  0  0  0  0
  180.8570  178.6270  137.0070 N   0  0  0  0  0  0  0  0  0  0  0  0
  186.7840  178.5670  144.9560 C   0  0  0  0  0  2  0  0  0  0  0  0
  187.6620  178.3430  139.8380 C   0  0  0  0  0  2  0  0  0  0  0  0
  185.7680  178.7790  141.2380 C   0  0  1  0  0  3  0  0  0  0  0  0
  186.2380  178.0510  140.0500 N   0  0  1  0  0  0  0  0  0  0  0  0
  184.0240  178.5230  139.0200 C   0  0  0  0  0  0  0  0  0  0  0  0
  179.5290  178.4890  137.5920 C   0  0  0  0  0  3  0  0  0  0  0  0
  184.3610  179.0990  146.1820 O   0  0  0  0  0  0  0  0  0  0  0  0
  185.8220  178.3620  143.7820 C   0  0  1  0  0  3  0  0  0  0  0  0
  179.7560  178.3510  139.1140 C   0  0  0  0  0  3  0  0  0  0  0  0
  183.7820  178.9020  144.9230 C   0  0  0  0  0  2  0  0  0  0  0  0
  186.3830  177.7720  146.2040 C   0  0  1  0  0  3  0  0  0  0  0  0
  186.0070  177.8880  137.5670 C   0  0  0  0  0  2  0  0  0  0  0  0
  185.5310  178.5810  138.8670 C   0  0  2  0  0  3  0  0  0  0  0  0
  183.2080  178.6180  137.8750 C   0  0  0  0  0  3  0  0  0  0  0  0
  183.8650  179.3780  142.6440 C   0  0  0  0  0  2  0  0  0  0  0  0
  181.3270  178.1090  141.7280 C   0  0  0  0  0  1  0  0  0  0  0  0
  181.1220  178.7740  135.5840 C   0  0  0  0  0  1  0  0  0  0  0  0
  183.4260  178.4660  140.3120 C   0  0  0  0  0  0  0  0  0  0  0  0
  181.8260  178.5730  138.0310 C   0  0  0  0  0  0  0  0  0  0  0  0
  187.1580  178.2470  147.3430 N   0  0  0  0  0  2  0  0  0  0  0  0
  188.4800  177.7770  147.6230 C   0  0  0  0  0  0  0  0  0  0  0  0
  189.0550  176.9690  146.8420 O   0  0  0  0  0  0  0  0  0  0  0  0
  189.1860  178.2520  148.8430 C   0  0  0  0  0  1  0  0  0  0  0  0
  2 24  1  1  0  0  0
  3 11  1  0  0  0  0
  4  3  1  0  0  0  0
  5 25  1  0  0  0  0
  6  5  2  0  0  0  0
  7 24  1  6  0  0  0
  7 19  1  0  0  0  0
  9 15  1  0  0  0  0
  9 28  1  0  0  0  0
 10 20  1  0  0  0  0
 12  2  1  0  0  0  0
 12  8  1  1  0  0  0
 13 11  1  6  0  0  0
 13 12  1  0  0  0  0
 14 27  2  0  0  0  0
 15 18  2  0  0  0  0
 16  1  1  0  0  0  0
 17  8  1  6  0  0  0
 17  7  1  0  0  0  0
 17 10  1  0  0  0  0
 18  6  1  0  0  0  0
 19 16  1  0  0  0  0
 20  1  1  0  0  0  0
 20 29  1  1  0  0  0
 21  4  1  0  0  0  0
 22 21  1  6  0  0  0
 22 14  1  0  0  0  0
 22 13  1  0  0  0  0
 23 28  2  0  0  0  0
 23 14  1  0  0  0  0
 26  9  1  0  0  0  0
 27  5  1  0  0  0  0
 27  2  1  0  0  0  0
 28  6  1  0  0  0  0
 29 30  1  0  0  0  0
 30 32  1  0  0  0  0
 31 30  2  0  0  0  0
M  END
>  <MODEL>
7

>  <REMARK>
 VINA RESULT:      -7.8      2.972      8.180
  Name = 
  1 active torsions:
  status: ('A' for Active; 'I' for Inactive)
    1  A    between atoms: C_20  and  N_29
                            x       y       z     vdW  Elec       q    Type
                         _______ _______ _______ _____ _____    ______ ____

>  <TORSDO>
F 1

$$$$
=
 OpenBabel11122410453D

 32 37  0  0  1  0  0  0  0  0999 V2000
  194.6000  174.9100  138.7490 C   0  0  0  0  0  2  0  0  0  0  0  0
  190.1810  177.0290  139.9530 C   0  0  1  0  0  3  0  0  0  0  0  0
  186.9190  177.6930  136.3120 C   0  0  0  0  0  2  0  0  0  0  0  0
  185.9650  177.2630  137.4290 C   0  0  0  0  0  2  0  0  0  0  0  0
  189.2720  177.0070  142.3490 C   0  0  0  0  0  0  0  0  0  0  0  0
  188.2640  177.3590  143.2510 C   0  0  0  0  0  0  0  0  0  0  0  0
  192.6390  177.1530  139.4060 N   0  0  2  0  0  0  0  0  0  0  0  0
  190.9290  177.1290  137.5660 C   0  0  0  0  0  2  0  0  0  0  0  0
  186.2620  178.2490  143.9170 N   0  0  0  0  0  0  0  0  0  0  0  0
  193.2500  176.3780  137.1350 C   0  0  0  0  0  2  0  0  0  0  0  0
  188.3240  178.0120  136.8390 C   0  0  0  0  0  2  0  0  0  0  0  0
  189.9200  177.6760  138.5940 C   0  0  1  0  0  3  0  0  0  0  0  0
  188.5230  177.4640  138.1880 N   0  0  1  0  0  0  0  0  0  0  0  0
  187.8820  177.9320  140.5450 C   0  0  0  0  0  0  0  0  0  0  0  0
  186.8560  177.7350  145.1450 C   0  0  0  0  0  3  0  0  0  0  0  0
  194.7540  176.1150  139.4430 O   0  0  0  0  0  0  0  0  0  0  0  0
  192.1500  176.4420  138.1990 C   0  0  1  0  0  3  0  0  0  0  0  0
  188.2150  177.1280  144.7280 C   0  0  0  0  0  3  0  0  0  0  0  0
  193.5500  176.2710  140.1400 C   0  0  0  0  0  2  0  0  0  0  0  0
  194.1690  175.1620  137.2980 C   0  0  1  0  0  3  0  0  0  0  0  0
  186.1620  178.1120  138.6870 C   0  0  0  0  0  2  0  0  0  0  0  0
  187.6520  178.2530  139.0820 C   0  0  2  0  0  3  0  0  0  0  0  0
  186.9030  178.2870  141.4940 C   0  0  0  0  0  3  0  0  0  0  0  0
  191.5790  177.4900  140.3750 C   0  0  0  0  0  2  0  0  0  0  0  0
  190.4630  176.2510  142.8470 C   0  0  0  0  0  1  0  0  0  0  0  0
  184.9640  178.9020  143.8370 C   0  0  0  0  0  1  0  0  0  0  0  0
  189.1130  177.3600  140.9790 C   0  0  0  0  0  0  0  0  0  0  0  0
  187.1320  177.9940  142.8360 C   0  0  0  0  0  0  0  0  0  0  0  0
  195.3440  175.3340  136.4540 N   0  0  0  0  0  2  0  0  0  0  0  0
  195.9800  174.2360  135.7910 C   0  0  0  0  0  0  0  0  0  0  0  0
  195.4990  173.0720  135.8640 O   0  0  0  0  0  0  0  0  0  0  0  0
  197.2190  174.4730  135.0010 C   0  0  0  0  0  1  0  0  0  0  0  0
  1 16  1  0  0  0  0
  2 24  1  1  0  0  0
  2 27  1  0  0  0  0
  3 11  1  0  0  0  0
  3  4  1  0  0  0  0
  4 21  1  0  0  0  0
  5 25  1  0  0  0  0
  5  6  1  0  0  0  0
  6 18  1  0  0  0  0
  7 19  1  1  0  0  0
  7 24  1  0  0  0  0
  8 17  1  0  0  0  0
  9 15  1  0  0  0  0
 10 20  1  0  0  0  0
 12  8  1  6  0  0  0
 12  2  1  0  0  0  0
 13 11  1  6  0  0  0
 13 12  1  0  0  0  0
 13 22  1  0  0  0  0
 14 27  1  0  0  0  0
 14 23  2  0  0  0  0
 16 19  1  0  0  0  0
 17 10  1  6  0  0  0
 17  7  1  0  0  0  0
 18 15  2  0  0  0  0
 20 29  1  6  0  0  0
 20  1  1  0  0  0  0
 22 21  1  6  0  0  0
 22 14  1  0  0  0  0
 23 28  1  0  0  0  0
 26  9  1  0  0  0  0
 27  5  2  0  0  0  0
 28  6  2  0  0  0  0
 28  9  1  0  0  0  0
 30 31  2  0  0  0  0
 30 29  1  0  0  0  0
 32 30  1  0  0  0  0
M  END
>  <MODEL>
8

>  <REMARK>
 VINA RESULT:      -7.6      5.790      9.405
  Name = 
  1 active torsions:
  status: ('A' for Active; 'I' for Inactive)
    1  A    between atoms: C_20  and  N_29
                            x       y       z     vdW  Elec       q    Type
                         _______ _______ _______ _____ _____    ______ ____

>  <TORSDO>
F 1

$$$$
=
 OpenBabel11122410453D

 32 37  0  0  1  0  0  0  0  0999 V2000
  190.0740  176.8210  139.9140 C   0  0  0  0  0  2  0  0  0  0  0  0
  185.1610  177.9430  139.6570 C   0  0  1  0  0  3  0  0  0  0  0  0
  182.7440  176.6140  135.5680 C   0  0  0  0  0  2  0  0  0  0  0  0
  181.6690  176.2930  136.6100 C   0  0  0  0  0  2  0  0  0  0  0  0
  183.7570  178.3850  141.7560 C   0  0  0  0  0  0  0  0  0  0  0  0
  182.5210  178.7040  142.3250 C   0  0  0  0  0  0  0  0  0  0  0  0
  187.6010  178.5510  139.4720 N   0  0  2  0  0  0  0  0  0  0  0  0
  186.3940  177.5320  137.5170 C   0  0  0  0  0  2  0  0  0  0  0  0
  180.2820  179.1840  142.3440 N   0  0  0  0  0  0  0  0  0  0  0  0
  188.8550  177.3350  137.7170 C   0  0  0  0  0  2  0  0  0  0  0  0
  183.8980  177.4350  136.1570 C   0  0  0  0  0  2  0  0  0  0  0  0
  185.0880  178.0680  138.1360 C   0  0  1  0  0  3  0  0  0  0  0  0
  183.8930  177.3820  137.6250 N   0  0  1  0  0  0  0  0  0  0  0  0
  182.6530  178.3330  139.5600 C   0  0  0  0  0  0  0  0  0  0  0  0
  180.6750  179.2310  143.7460 C   0  0  0  0  0  3  0  0  0  0  0  0
  189.8190  178.1730  140.1720 O   0  0  0  0  0  0  0  0  0  0  0  0
  187.5540  177.4130  138.5190 C   0  0  1  0  0  3  0  0  0  0  0  0
  182.1870  178.9130  143.7670 C   0  0  0  0  0  3  0  0  0  0  0  0
  188.4820  178.1990  140.5870 C   0  0  0  0  0  2  0  0  0  0  0  0
  189.9410  176.5110  138.4170 C   0  0  1  0  0  3  0  0  0  0  0  0
  181.3990  177.4950  137.5190 C   0  0  0  0  0  2  0  0  0  0  0  0
  182.7000  178.1370  138.0580 C   0  0  2  0  0  3  0  0  0  0  0  0
  181.4340  178.6780  140.1750 C   0  0  0  0  0  3  0  0  0  0  0  0
  186.3030  178.8630  140.0990 C   0  0  0  0  0  2  0  0  0  0  0  0
  184.9330  178.1540  142.6510 C   0  0  0  0  0  1  0  0  0  0  0  0
  178.9310  179.4140  141.8550 C   0  0  0  0  0  1  0  0  0  0  0  0
  183.8450  178.2640  140.3400 C   0  0  0  0  0  0  0  0  0  0  0  0
  181.4080  178.8640  141.5550 C   0  0  0  0  0  0  0  0  0  0  0  0
  191.2160  176.7330  137.7490 N   0  0  0  0  0  2  0  0  0  0  0  0
  192.1870  175.6950  137.5810 C   0  0  0  0  0  0  0  0  0  0  0  0
  191.9390  174.5150  137.9540 O   0  0  0  0  0  0  0  0  0  0  0  0
  193.4980  176.0080  136.9510 C   0  0  0  0  0  1  0  0  0  0  0  0
  1 16  1  0  0  0  0
  2 24  1  1  0  0  0
  2 27  1  0  0  0  0
  3 11  1  0  0  0  0
  3  4  1  0  0  0  0
  4 21  1  0  0  0  0
  5  6  1  0  0  0  0
  5 25  1  0  0  0  0
  6 18  1  0  0  0  0
  7 24  1  1  0  0  0
  7 19  1  0  0  0  0
  9 15  1  0  0  0  0
 10 20  1  0  0  0  0
 10 17  1  0  0  0  0
 12  8  1  6  0  0  0
 12  2  1  0  0  0  0
 13 11  1  6  0  0  0
 13 22  1  0  0  0  0
 13 12  1  0  0  0  0
 14 23  2  0  0  0  0
 14 27  1  0  0  0  0
 15 18  2  0  0  0  0
 16 19  1  0  0  0  0
 17  8  1  6  0  0  0
 17  7  1  0  0  0  0
 20 29  1  6  0  0  0
 20  1  1  0  0  0  0
 22 21  1  1  0  0  0
 22 14  1  0  0  0  0
 23 28  1  0  0  0  0
 26  9  1  0  0  0  0
 27  5  2  0  0  0  0
 28  6  2  0  0  0  0
 28  9  1  0  0  0  0
 30 29  1  0  0  0  0
 30 31  2  0  0  0  0
 32 30  1  0  0  0  0
M  END
>  <MODEL>
9

>  <REMARK>
 VINA RESULT:      -7.2      3.850      7.724
  Name = 
  1 active torsions:
  status: ('A' for Active; 'I' for Inactive)
    1  A    between atoms: C_20  and  N_29
                            x       y       z     vdW  Elec       q    Type
                         _______ _______ _______ _____ _____    ______ ____

>  <TORSDO>
F 1

$$$$
