=
 OpenBabel11122411213D

 37 44  0  0  1  0  0  0  0  0999 V2000
  187.2940  177.4990  139.7500 C   0  0  0  0  0  2  0  0  0  0  0  0
  190.2500  177.5330  143.3350 C   0  0  0  0  0  0  0  0  0  0  0  0
  186.1430  177.9610  144.2020 C   0  0  0  0  0  0  0  0  0  0  0  0
  187.5770  177.8490  138.2820 C   0  0  2  0  0  3  0  0  0  0  0  0
  183.6140  178.1130  141.5020 O   0  0  0  0  0  0  0  0  0  0  0  0
  188.4050  177.6570  145.0190 C   0  0  0  0  0  0  0  0  0  0  0  0
  185.6110  178.2670  143.0270 C   0  0  0  0  0  0  0  0  0  0  0  0
  185.0690  177.7900  138.0290 C   0  0  0  0  0  0  0  0  0  0  0  0
  187.5520  177.8950  144.0540 C   0  0  0  0  0  0  0  0  0  0  0  0
  184.1280  178.4050  142.7840 C   0  0  0  0  0  0  0  0  0  0  0  0
  187.8630  177.4550  146.3820 C   0  0  0  0  0  3  0  0  0  0  0  0
  186.3540  178.3720  137.5200 C   0  0  0  0  0  2  0  0  0  0  0  0
  187.9010  178.1630  142.7110 C   0  0  0  0  0  0  0  0  0  0  0  0
  190.3400  176.0670  142.9500 C   0  0  0  0  0  1  0  0  0  0  0  0
  184.5970  178.8150  145.8470 C   0  0  0  0  0  3  0  0  0  0  0  0
  186.5260  177.4700  146.6060 C   0  0  0  0  0  3  0  0  0  0  0  0
  189.3400  178.2640  142.3040 C   0  0  0  0  0  2  0  0  0  0  0  0
  184.3170  178.4850  139.1240 C   0  0  1  0  0  3  0  0  0  0  0  0
  184.4820  177.7690  140.4430 C   0  0  1  0  0  3  0  0  0  0  0  0
  185.4820  177.6710  145.5030 C   0  0  2  0  0  3  0  0  0  0  0  0
  186.7670  178.3850  142.0410 C   0  0  0  0  0  0  0  0  0  0  0  0
  189.7730  177.6320  144.7010 O   0  0  0  0  0  0  0  0  0  0  0  0
  183.2550  178.8220  143.7470 C   0  0  0  0  0  0  0  0  0  0  0  0
  191.6400  178.1270  143.2590 C   0  0  0  0  0  1  0  0  0  0  0  0
  185.2590  179.0560  140.1900 C   0  0  1  0  0  3  0  0  0  0  0  0
  184.6390  176.7500  137.5550 O   0  0  0  0  0  0  0  0  0  0  0  0
  186.7010  178.6690  140.5500 C   0  0  2  0  0  3  0  0  0  0  0  0
  183.6540  179.2560  145.0690 N   0  0  0  0  0  0  0  0  0  0  0  0
  180.8540  178.4690  144.3040 C   0  0  0  0  0  3  0  0  0  0  0  0
  181.8150  179.0090  143.4360 C   0  0  0  0  0  0  0  0  0  0  0  0
  181.3840  179.7710  142.3380 C   0  0  0  0  0  3  0  0  0  0  0  0
  179.5990  180.7270  140.9730 N   0  0  0  0  0  1  0  0  0  0  0  0
  179.0740  179.4060  142.9580 C   0  0  0  0  0  3  0  0  0  0  0  0
  180.0210  179.9610  142.0950 C   0  0  0  0  0  0  0  0  0  0  0  0
  179.4900  178.6610  144.0630 C   0  0  0  0  0  3  0  0  0  0  0  0
  189.5870  176.4020  137.9740 C   0  0  0  0  0  1  0  0  0  0  0  0
  188.1460  176.6400  137.5610 C   0  0  0  0  0  2  0  0  0  0  0  0
  1 27  1  0  0  0  0
  2 22  1  0  0  0  0
  3 20  1  0  0  0  0
  4 37  1  6  0  0  0
  4  1  1  0  0  0  0
  5 10  1  0  0  0  0
  6 11  1  0  0  0  0
  7  3  2  0  0  0  0
  9  3  1  0  0  0  0
  9  6  2  0  0  0  0
 10  7  1  0  0  0  0
 10 23  2  0  0  0  0
 11 16  2  0  0  0  0
 12  8  1  0  0  0  0
 12  4  1  0  0  0  0
 13  9  1  0  0  0  0
 14  2  1  0  0  0  0
 17 13  1  0  0  0  0
 17  2  1  0  0  0  0
 18  8  1  6  0  0  0
 18 25  1  0  0  0  0
 18 19  1  0  0  0  0
 19  5  1  1  0  0  0
 20 15  1  1  0  0  0
 20 16  1  0  0  0  0
 21 13  2  0  0  0  0
 21  7  1  0  0  0  0
 22  6  1  0  0  0  0
 23 28  1  0  0  0  0
 24  2  1  0  0  0  0
 25 19  1  0  0  0  0
 25 27  1  0  0  0  0
 26  8  2  0  0  0  0
 27 21  1  0  0  0  0
 28 15  2  0  0  0  0
 30 23  1  0  0  0  0
 30 29  2  0  0  0  0
 31 30  1  0  0  0  0
 32 34  1  0  0  0  0
 33 35  2  0  0  0  0
 34 31  2  0  0  0  0
 34 33  1  0  0  0  0
 35 29  1  0  0  0  0
 37 36  1  0  0  0  0
M  END
>  <MODEL>
1

>  <REMARK>
 VINA RESULT:     -10.5      0.000      0.000
  Name = 
  2 active torsions:
  status: ('A' for Active; 'I' for Inactive)
    1  A    between atoms: C_4  and  C_37
    2  A    between atoms: C_23  and  C_30
                            x       y       z     vdW  Elec       q    Type
                         _______ _______ _______ _____ _____    ______ ____

>  <TORSDO>
F 2

$$$$
=
 OpenBabel11122411213D

 37 44  0  0  1  0  0  0  0  0999 V2000
  186.9810  178.2340  144.8370 C   0  0  0  0  0  2  0  0  0  0  0  0
  191.1110  176.7430  143.3150 C   0  0  0  0  0  0  0  0  0  0  0  0
  188.3070  177.9800  140.4150 C   0  0  0  0  0  0  0  0  0  0  0  0
  186.2800  177.9000  146.1600 C   0  0  2  0  0  3  0  0  0  0  0  0
  184.8990  179.0650  141.3770 O   0  0  0  0  0  0  0  0  0  0  0  0
  190.5670  177.2710  140.9320 C   0  0  0  0  0  0  0  0  0  0  0  0
  187.1620  178.0000  141.0850 C   0  0  0  0  0  0  0  0  0  0  0  0
  184.2720  179.0010  145.1030 C   0  0  0  0  0  0  0  0  0  0  0  0
  189.3170  177.4710  141.2710 C   0  0  2  0  0  3  0  0  0  0  0  0
  185.8590  178.5000  140.5100 C   0  0  0  0  0  0  0  0  0  0  0  0
  190.9600  177.5840  139.5390 C   0  0  0  0  0  3  0  0  0  0  0  0
  184.7500  177.9800  146.0920 C   0  0  0  0  0  2  0  0  0  0  0  0
  188.7640  177.1770  142.5380 C   0  0  0  0  0  0  0  0  0  0  0  0
  191.5330  178.0660  143.9300 C   0  0  0  0  0  1  0  0  0  0  0  0
  187.6890  177.7240  138.0970 C   0  0  0  0  0  3  0  0  0  0  0  0
  190.0630  178.1030  138.6650 C   0  0  0  0  0  3  0  0  0  0  0  0
  189.5960  176.5230  143.5980 C   0  0  0  0  0  2  0  0  0  0  0  0
  184.0220  178.6020  143.6800 C   0  0  1  0  0  3  0  0  0  0  0  0
  185.1230  179.0950  142.7710 C   0  0  1  0  0  3  0  0  0  0  0  0
  188.6100  178.4250  139.0290 C   0  0  0  0  0  0  0  0  0  0  0  0
  187.4650  177.4860  142.4860 C   0  0  0  0  0  0  0  0  0  0  0  0
  191.4410  176.7540  141.9030 O   0  0  0  0  0  0  0  0  0  0  0  0
  185.5540  178.4130  139.1820 C   0  0  0  0  0  0  0  0  0  0  0  0
  191.8940  175.6380  143.9900 C   0  0  0  0  0  1  0  0  0  0  0  0
  185.0840  177.6230  143.1660 C   0  0  1  0  0  3  0  0  0  0  0  0
  184.0920  180.1560  145.4570 O   0  0  0  0  0  0  0  0  0  0  0  0
  186.5130  177.3580  143.6640 C   0  0  2  0  0  3  0  0  0  0  0  0
  186.3930  177.7640  138.1980 N   0  0  0  0  0  0  0  0  0  0  0  0
  183.4030  177.9300  138.0230 C   0  0  0  0  0  3  0  0  0  0  0  0
  184.2280  178.8560  138.6780 C   0  0  0  0  0  0  0  0  0  0  0  0
  183.7450  180.1560  138.9000 C   0  0  0  0  0  3  0  0  0  0  0  0
  182.0050  181.8540  138.6710 N   0  0  0  0  0  1  0  0  0  0  0  0
  181.6710  179.6040  137.7830 C   0  0  0  0  0  3  0  0  0  0  0  0
  182.4770  180.5300  138.4480 C   0  0  0  0  0  0  0  0  0  0  0  0
  182.1330  178.3030  137.5720 C   0  0  0  0  0  3  0  0  0  0  0  0
  187.8430  178.1140  148.0940 C   0  0  0  0  0  1  0  0  0  0  0  0
  186.7870  178.8160  147.2610 C   0  0  0  0  0  2  0  0  0  0  0  0
  1  4  1  0  0  0  0
  2 17  1  0  0  0  0
  2 14  1  0  0  0  0
  2 24  1  0  0  0  0
  3  7  2  0  0  0  0
  4 37  1  1  0  0  0
  6  9  1  0  0  0  0
  6 22  1  0  0  0  0
  7 21  1  0  0  0  0
  8 26  2  0  0  0  0
  8 12  1  0  0  0  0
  9  3  1  6  0  0  0
  9 13  1  0  0  0  0
 10  7  1  0  0  0  0
 10  5  1  0  0  0  0
 11  6  2  0  0  0  0
 12  4  1  0  0  0  0
 13 17  1  0  0  0  0
 15 28  2  0  0  0  0
 15 20  1  0  0  0  0
 16 20  2  0  0  0  0
 16 11  1  0  0  0  0
 18  8  1  1  0  0  0
 19  5  1  6  0  0  0
 19 25  1  0  0  0  0
 19 18  1  0  0  0  0
 20  3  1  0  0  0  0
 21 13  2  0  0  0  0
 21 27  1  0  0  0  0
 22  2  1  0  0  0  0
 23 10  2  0  0  0  0
 25 27  1  0  0  0  0
 25 18  1  0  0  0  0
 27  1  1  0  0  0  0
 28 23  1  0  0  0  0
 29 30  1  0  0  0  0
 30 31  2  0  0  0  0
 30 23  1  0  0  0  0
 33 34  2  0  0  0  0
 34 32  1  0  0  0  0
 34 31  1  0  0  0  0
 35 33  1  0  0  0  0
 35 29  2  0  0  0  0
 37 36  1  0  0  0  0
M  END
>  <MODEL>
2

>  <REMARK>
 VINA RESULT:     -10.1      2.450      5.698
  Name = 
  2 active torsions:
  status: ('A' for Active; 'I' for Inactive)
    1  A    between atoms: C_4  and  C_37
    2  A    between atoms: C_23  and  C_30
                            x       y       z     vdW  Elec       q    Type
                         _______ _______ _______ _____ _____    ______ ____

>  <TORSDO>
F 2

$$$$
=
 OpenBabel11122411213D

 37 44  0  0  1  0  0  0  0  0999 V2000
  188.8430  177.7530  141.1220 C   0  0  0  0  0  2  0  0  0  0  0  0
  184.3630  178.4270  142.1530 C   0  0  0  0  0  0  0  0  0  0  0  0
  187.0490  177.9850  145.3760 C   0  0  0  0  0  0  0  0  0  0  0  0
  189.4450  177.1770  139.8330 C   0  0  2  0  0  3  0  0  0  0  0  0
  190.6410  177.2900  144.8030 O   0  0  0  0  0  0  0  0  0  0  0  0
  184.8090  178.5090  144.6130 C   0  0  0  0  0  0  0  0  0  0  0  0
  188.1300  177.4680  144.8070 C   0  0  0  0  0  0  0  0  0  0  0  0
  191.5940  177.0950  141.1510 C   0  0  0  0  0  0  0  0  0  0  0  0
  186.0280  178.0810  144.3970 C   0  0  0  0  0  0  0  0  0  0  0  0
  189.4330  177.2340  145.5310 C   0  0  0  0  0  0  0  0  0  0  0  0
  184.4560  178.9110  145.9940 C   0  0  0  0  0  3  0  0  0  0  0  0
  190.8010  176.4880  140.0320 C   0  0  0  0  0  2  0  0  0  0  0  0
  186.5150  177.6100  143.1560 C   0  0  0  0  0  0  0  0  0  0  0  0
  184.7120  179.8110  141.6390 C   0  0  0  0  0  1  0  0  0  0  0  0
  187.1860  177.3530  147.7010 C   0  0  0  0  0  3  0  0  0  0  0  0
  185.3820  178.8790  146.9830 C   0  0  0  0  0  3  0  0  0  0  0  0
  185.6020  177.5000  141.9730 C   0  0  0  0  0  2  0  0  0  0  0  0
  191.4480  176.5600  142.5440 C   0  0  1  0  0  3  0  0  0  0  0  0
  190.6270  177.4900  143.4060 C   0  0  1  0  0  3  0  0  0  0  0  0
  186.8390  178.4590  146.7710 C   0  0  2  0  0  3  0  0  0  0  0  0
  187.7840  177.2350  143.3420 C   0  0  0  0  0  0  0  0  0  0  0  0
  183.9160  178.5350  143.5290 O   0  0  0  0  0  0  0  0  0  0  0  0
  189.4980  176.9470  146.8640 C   0  0  0  0  0  0  0  0  0  0  0  0
  183.2270  177.8840  141.3130 C   0  0  0  0  0  1  0  0  0  0  0  0
  189.9920  176.2100  142.8720 C   0  0  1  0  0  3  0  0  0  0  0  0
  192.3530  178.0240  140.9270 O   0  0  0  0  0  0  0  0  0  0  0  0
  188.6850  176.7080  142.2380 C   0  0  2  0  0  3  0  0  0  0  0  0
  188.3400  176.7520  147.7090 N   0  0  0  0  0  0  0  0  0  0  0  0
  191.5130  175.5070  147.1320 C   0  0  0  0  0  3  0  0  0  0  0  0
  190.8020  176.6550  147.5140 C   0  0  0  0  0  0  0  0  0  0  0  0
  191.3790  177.5300  148.4490 C   0  0  0  0  0  3  0  0  0  0  0  0
  193.1930  178.1380  149.9660 N   0  0  0  0  0  1  0  0  0  0  0  0
  193.3170  176.0940  148.6360 C   0  0  0  0  0  3  0  0  0  0  0  0
  192.6260  177.2470  149.0130 C   0  0  0  0  0  0  0  0  0  0  0  0
  192.7620  175.2250  147.6950 C   0  0  0  0  0  3  0  0  0  0  0  0
  188.3780  178.2800  137.8650 C   0  0  0  0  0  1  0  0  0  0  0  0
  189.5810  178.2730  138.7900 C   0  0  0  0  0  2  0  0  0  0  0  0
  1 27  1  0  0  0  0
  2 22  1  0  0  0  0
  3 20  1  0  0  0  0
  4 37  1  6  0  0  0
  4 12  1  0  0  0  0
  4  1  1  0  0  0  0
  5 10  1  0  0  0  0
  6 11  1  0  0  0  0
  7  3  2  0  0  0  0
  7 10  1  0  0  0  0
  9  6  2  0  0  0  0
  9  3  1  0  0  0  0
 10 23  2  0  0  0  0
 11 16  2  0  0  0  0
 12  8  1  0  0  0  0
 13 21  2  0  0  0  0
 13  9  1  0  0  0  0
 14  2  1  0  0  0  0
 15 28  2  0  0  0  0
 17  2  1  0  0  0  0
 17 13  1  0  0  0  0
 18  8  1  6  0  0  0
 18 25  1  0  0  0  0
 18 19  1  0  0  0  0
 19  5  1  1  0  0  0
 20 16  1  6  0  0  0
 20 15  1  0  0  0  0
 21  7  1  0  0  0  0
 22  6  1  0  0  0  0
 23 30  1  0  0  0  0
 23 28  1  0  0  0  0
 24  2  1  0  0  0  0
 25 19  1  0  0  0  0
 26  8  2  0  0  0  0
 27 25  1  0  0  0  0
 27 21  1  0  0  0  0
 29 30  2  0  0  0  0
 29 35  1  0  0  0  0
 30 31  1  0  0  0  0
 31 34  2  0  0  0  0
 33 34  1  0  0  0  0
 34 32  1  0  0  0  0
 35 33  2  0  0  0  0
 36 37  1  0  0  0  0
M  END
>  <MODEL>
3

>  <REMARK>
 VINA RESULT:      -9.3      3.160      7.555
  Name = 
  2 active torsions:
  status: ('A' for Active; 'I' for Inactive)
    1  A    between atoms: C_4  and  C_37
    2  A    between atoms: C_23  and  C_30
                            x       y       z     vdW  Elec       q    Type
                         _______ _______ _______ _____ _____    ______ ____

>  <TORSDO>
F 2

$$$$
=
 OpenBabel11122411213D

 37 44  0  0  1  0  0  0  0  0999 V2000
  189.5350  176.9230  138.7340 C   0  0  0  0  0  2  0  0  0  0  0  0
  190.4770  177.2810  143.2700 C   0  0  0  0  0  0  0  0  0  0  0  0
  186.5210  178.0800  142.0420 C   0  0  0  0  0  0  0  0  0  0  0  0
  190.5050  177.0440  137.5500 C   0  0  2  0  0  3  0  0  0  0  0  0
  185.5660  178.0050  138.4650 O   0  0  0  0  0  0  0  0  0  0  0  0
  188.0930  177.7560  143.8580 C   0  0  0  0  0  0  0  0  0  0  0  0
  186.6340  178.2500  140.7310 C   0  0  0  0  0  0  0  0  0  0  0  0
  188.4110  177.1040  136.1450 C   0  0  0  0  0  0  0  0  0  0  0  0
  187.8190  177.9080  142.5860 C   0  0  0  0  0  0  0  0  0  0  0  0
  185.4610  178.4430  139.8020 C   0  0  0  0  0  0  0  0  0  0  0  0
  186.9620  177.7830  144.8130 C   0  0  0  0  0  3  0  0  0  0  0  0
  189.8460  177.5280  136.2530 C   0  0  0  0  0  2  0  0  0  0  0  0
  188.7790  177.9600  141.5500 C   0  0  0  0  0  0  0  0  0  0  0  0
  190.5570  175.7730  143.1160 C   0  0  0  0  0  1  0  0  0  0  0  0
  184.5060  179.2520  142.6670 C   0  0  0  0  0  3  0  0  0  0  0  0
  185.6860  177.9120  144.3730 C   0  0  0  0  0  3  0  0  0  0  0  0
  190.2430  177.9140  141.8670 C   0  0  0  0  0  2  0  0  0  0  0  0
  187.3290  177.9930  136.6800 C   0  0  1  0  0  3  0  0  0  0  0  0
  186.7770  177.4610  137.9830 C   0  0  1  0  0  3  0  0  0  0  0  0
  185.3030  178.0190  142.8950 C   0  0  2  0  0  3  0  0  0  0  0  0
  188.1190  178.1560  140.4050 C   0  0  0  0  0  0  0  0  0  0  0  0
  189.4390  177.6020  144.2300 O   0  0  0  0  0  0  0  0  0  0  0  0
  184.2990  179.0450  140.1920 C   0  0  0  0  0  0  0  0  0  0  0  0
  191.8050  177.7710  143.8060 C   0  0  0  0  0  1  0  0  0  0  0  0
  187.7320  178.6490  138.0060 C   0  0  1  0  0  3  0  0  0  0  0  0
  188.1270  176.0370  135.6260 O   0  0  0  0  0  0  0  0  0  0  0  0
  188.7860  178.2290  139.0410 C   0  0  2  0  0  3  0  0  0  0  0  0
  184.0910  179.6370  141.4960 N   0  0  0  0  0  0  0  0  0  0  0  0
  182.5400  178.1690  138.6620 C   0  0  0  0  0  3  0  0  0  0  0  0
  183.2000  179.2750  139.2190 C   0  0  0  0  0  0  0  0  0  0  0  0
  182.7530  180.5660  138.8930 C   0  0  0  0  0  3  0  0  0  0  0  0
  181.2540  182.0610  137.6760 N   0  0  0  0  0  1  0  0  0  0  0  0
  181.0500  179.6390  137.4450 C   0  0  0  0  0  3  0  0  0  0  0  0
  181.6900  180.7470  138.0050 C   0  0  0  0  0  0  0  0  0  0  0  0
  181.4740  178.3500  137.7750 C   0  0  0  0  0  3  0  0  0  0  0  0
  192.6230  175.7500  137.8070 C   0  0  0  0  0  1  0  0  0  0  0  0
  191.1920  175.7120  137.3040 C   0  0  0  0  0  2  0  0  0  0  0  0
  1 27  1  0  0  0  0
  2 24  1  0  0  0  0
  2 22  1  0  0  0  0
  3  9  1  0  0  0  0
  3 20  1  0  0  0  0
  4 37  1  6  0  0  0
  4  1  1  0  0  0  0
  5 10  1  0  0  0  0
  6 22  1  0  0  0  0
  6 11  1  0  0  0  0
  7  3  2  0  0  0  0
  8 12  1  0  0  0  0
  9  6  2  0  0  0  0
 10 23  2  0  0  0  0
 10  7  1  0  0  0  0
 12  4  1  0  0  0  0
 13 17  1  0  0  0  0
 13  9  1  0  0  0  0
 14  2  1  0  0  0  0
 16 11  2  0  0  0  0
 17  2  1  0  0  0  0
 18  8  1  1  0  0  0
 18 19  1  0  0  0  0
 18 25  1  0  0  0  0
 19 25  1  0  0  0  0
 19  5  1  6  0  0  0
 20 15  1  1  0  0  0
 20 16  1  0  0  0  0
 21  7  1  0  0  0  0
 21 13  2  0  0  0  0
 23 28  1  0  0  0  0
 25 27  1  0  0  0  0
 26  8  2  0  0  0  0
 27 21  1  0  0  0  0
 28 15  2  0  0  0  0
 29 30  1  0  0  0  0
 30 23  1  0  0  0  0
 31 30  2  0  0  0  0
 32 34  1  0  0  0  0
 33 35  1  0  0  0  0
 33 34  2  0  0  0  0
 34 31  1  0  0  0  0
 35 29  2  0  0  0  0
 37 36  1  0  0  0  0
M  END
>  <MODEL>
4

>  <REMARK>
 VINA RESULT:      -9.2      2.260      3.328
  Name = 
  2 active torsions:
  status: ('A' for Active; 'I' for Inactive)
    1  A    between atoms: C_4  and  C_37
    2  A    between atoms: C_23  and  C_30
                            x       y       z     vdW  Elec       q    Type
                         _______ _______ _______ _____ _____    ______ ____

>  <TORSDO>
F 2

$$$$
=
 OpenBabel11122411213D

 37 44  0  0  1  0  0  0  0  0999 V2000
  184.7450  178.0720  139.0290 C   0  0  0  0  0  2  0  0  0  0  0  0
  188.6030  177.6790  136.4690 C   0  0  0  0  0  0  0  0  0  0  0  0
  189.0100  177.3420  140.6550 C   0  0  0  0  0  0  0  0  0  0  0  0
  183.4340  178.7840  138.6680 C   0  0  2  0  0  3  0  0  0  0  0  0
  186.1040  177.7690  142.9090 O   0  0  0  0  0  0  0  0  0  0  0  0
  190.0260  177.1650  138.4610 C   0  0  0  0  0  0  0  0  0  0  0  0
  187.8680  177.8360  141.1160 C   0  0  2  0  0  3  0  0  0  0  0  0
  182.8560  178.4480  141.0990 C   0  0  0  0  0  0  0  0  0  0  0  0
  189.0320  177.5020  139.2460 C   0  0  0  0  0  0  0  0  0  0  0  0
  187.4730  177.8260  142.5720 C   0  0  0  0  0  0  0  0  0  0  0  0
  191.2340  176.5850  139.0910 C   0  0  0  0  0  3  0  0  0  0  0  0
  182.6500  179.2980  139.8810 C   0  0  0  0  0  2  0  0  0  0  0  0
  187.8320  178.1150  138.8180 C   0  0  0  0  0  0  0  0  0  0  0  0
  187.9310  176.3660  136.1110 C   0  0  0  0  0  1  0  0  0  0  0  0
  190.5870  177.5810  142.4660 C   0  0  0  0  0  3  0  0  0  0  0  0
  191.2830  176.3700  140.4280 C   0  0  0  0  0  3  0  0  0  0  0  0
  187.6440  178.4980  137.3820 C   0  0  0  0  0  2  0  0  0  0  0  0
  183.9680  178.7670  142.0530 C   0  0  1  0  0  3  0  0  0  0  0  0
  185.1150  177.7960  141.9010 C   0  0  1  0  0  3  0  0  0  0  0  0
  190.1240  176.6760  141.3820 C   0  0  0  0  0  0  0  0  0  0  0  0
  187.0870  178.3310  139.9050 C   0  0  0  0  0  0  0  0  0  0  0  0
  189.8870  177.3980  137.0830 O   0  0  0  0  0  0  0  0  0  0  0  0
  188.3830  177.8900  143.5870 C   0  0  0  0  0  0  0  0  0  0  0  0
  188.8340  178.4550  135.1910 C   0  0  0  0  0  1  0  0  0  0  0  0
  185.2430  179.1990  141.3190 C   0  0  1  0  0  3  0  0  0  0  0  0
  182.1210  177.4970  141.3110 O   0  0  0  0  0  0  0  0  0  0  0  0
  185.6930  178.9370  139.8740 C   0  0  2  0  0  3  0  0  0  0  0  0
  189.8070  178.0590  143.3900 N   0  0  0  0  0  0  0  0  0  0  0  0
  188.8780  177.7420  146.0230 C   0  0  0  0  0  3  0  0  0  0  0  0
  187.9380  177.9480  145.0030 C   0  0  0  0  0  0  0  0  0  0  0  0
  186.6170  178.2740  145.3540 C   0  0  0  0  0  3  0  0  0  0  0  0
  184.8950  178.6810  147.0370 N   0  0  0  0  0  1  0  0  0  0  0  0
  187.1810  178.1370  147.7030 C   0  0  0  0  0  3  0  0  0  0  0  0
  186.2390  178.3600  146.6960 C   0  0  0  0  0  0  0  0  0  0  0  0
  188.5010  177.8300  147.3670 C   0  0  0  0  0  3  0  0  0  0  0  0
  183.1410  176.4620  137.8010 C   0  0  0  0  0  1  0  0  0  0  0  0
  182.5510  177.8600  137.8480 C   0  0  0  0  0  2  0  0  0  0  0  0
  1 27  1  0  0  0  0
  2 22  1  0  0  0  0
  2 17  1  0  0  0  0
  3  7  1  0  0  0  0
  3 20  1  0  0  0  0
  4 37  1  1  0  0  0
  4  1  1  0  0  0  0
  4 12  1  0  0  0  0
  6 11  2  0  0  0  0
  6  9  1  0  0  0  0
  7 21  1  6  0  0  0
  7 10  1  0  0  0  0
  8 26  2  0  0  0  0
  9  3  2  0  0  0  0
 10  5  1  0  0  0  0
 10 23  2  0  0  0  0
 11 16  1  0  0  0  0
 12  8  1  0  0  0  0
 13  9  1  0  0  0  0
 13 21  2  0  0  0  0
 14  2  1  0  0  0  0
 15 28  2  0  0  0  0
 16 20  2  0  0  0  0
 17 13  1  0  0  0  0
 18  8  1  6  0  0  0
 19 18  1  0  0  0  0
 19  5  1  1  0  0  0
 20 15  1  0  0  0  0
 22  6  1  0  0  0  0
 23 30  1  0  0  0  0
 24  2  1  0  0  0  0
 25 19  1  0  0  0  0
 25 18  1  0  0  0  0
 27 21  1  0  0  0  0
 27 25  1  0  0  0  0
 28 23  1  0  0  0  0
 29 35  1  0  0  0  0
 30 31  1  0  0  0  0
 30 29  2  0  0  0  0
 31 34  2  0  0  0  0
 34 32  1  0  0  0  0
 34 33  1  0  0  0  0
 35 33  2  0  0  0  0
 36 37  1  0  0  0  0
M  END
>  <MODEL>
5

>  <REMARK>
 VINA RESULT:      -9.1      2.479      5.970
  Name = 
  2 active torsions:
  status: ('A' for Active; 'I' for Inactive)
    1  A    between atoms: C_4  and  C_37
    2  A    between atoms: C_23  and  C_30
                            x       y       z     vdW  Elec       q    Type
                         _______ _______ _______ _____ _____    ______ ____

>  <TORSDO>
F 2

$$$$
=
 OpenBabel11122411213D

 37 44  0  0  1  0  0  0  0  0999 V2000
  187.8770  177.5860  142.0500 C   0  0  0  0  0  2  0  0  0  0  0  0
  184.2920  178.5680  139.2630 C   0  0  0  0  0  0  0  0  0  0  0  0
  187.7140  176.8530  137.4890 C   0  0  0  0  0  0  0  0  0  0  0  0
  188.2280  178.2170  143.4050 C   0  0  2  0  0  3  0  0  0  0  0  0
  190.7490  176.1220  139.4810 O   0  0  0  0  0  0  0  0  0  0  0  0
  185.4100  177.5700  137.2610 C   0  0  0  0  0  0  0  0  0  0  0  0
  188.6530  177.0160  138.4120 C   0  0  2  0  0  3  0  0  0  0  0  0
  190.4170  176.9920  143.1430 C   0  0  0  0  0  0  0  0  0  0  0  0
  186.5300  177.4930  137.9360 C   0  0  0  0  0  0  0  0  0  0  0  0
  190.0490  176.4550  138.3010 C   0  0  0  0  0  0  0  0  0  0  0  0
  185.3750  176.9570  135.9130 C   0  0  0  0  0  3  0  0  0  0  0  0
  189.7240  178.1810  143.7400 C   0  0  0  0  0  2  0  0  0  0  0  0
  186.7510  178.0670  139.2080 C   0  0  0  0  0  0  0  0  0  0  0  0
  183.7050  177.3910  140.0200 C   0  0  0  0  0  1  0  0  0  0  0  0
  188.9010  176.6370  135.3990 C   0  0  0  0  0  3  0  0  0  0  0  0
  186.4540  176.2990  135.4230 C   0  0  0  0  0  3  0  0  0  0  0  0
  185.6900  178.8990  139.8620 C   0  0  0  0  0  2  0  0  0  0  0  0
  191.0250  177.0920  141.7770 C   0  0  1  0  0  3  0  0  0  0  0  0
  190.1800  176.3780  140.7480 C   0  0  1  0  0  3  0  0  0  0  0  0
  187.7620  176.1140  136.1980 C   0  0  0  0  0  0  0  0  0  0  0  0
  188.0150  177.8020  139.5500 C   0  0  0  0  0  0  0  0  0  0  0  0
  184.3290  178.2480  137.8490 O   0  0  0  0  0  0  0  0  0  0  0  0
  190.6810  176.2720  137.1050 C   0  0  0  0  0  0  0  0  0  0  0  0
  183.3830  179.7610  139.4680 C   0  0  0  0  0  1  0  0  0  0  0  0
  190.1450  177.9000  140.8170 C   0  0  1  0  0  3  0  0  0  0  0  0
  190.4820  175.9460  143.7690 O   0  0  0  0  0  0  0  0  0  0  0  0
  188.6420  178.2110  140.8730 C   0  0  2  0  0  3  0  0  0  0  0  0
  190.1290  176.6680  135.8270 N   0  0  0  0  0  0  0  0  0  0  0  0
  192.3850  174.5210  137.5930 C   0  0  0  0  0  3  0  0  0  0  0  0
  192.0830  175.7810  137.0550 C   0  0  0  0  0  0  0  0  0  0  0  0
  193.1030  176.5100  136.4210 C   0  0  0  0  0  3  0  0  0  0  0  0
  195.4280  176.7570  135.7180 N   0  0  0  0  0  1  0  0  0  0  0  0
  194.6950  174.7540  136.9070 C   0  0  0  0  0  3  0  0  0  0  0  0
  194.4030  176.0030  136.3550 C   0  0  0  0  0  0  0  0  0  0  0  0
  193.6850  174.0130  137.5250 C   0  0  0  0  0  3  0  0  0  0  0  0
  188.0590  177.8400  145.8660 C   0  0  0  0  0  1  0  0  0  0  0  0
  187.4430  177.5350  144.5130 C   0  0  0  0  0  2  0  0  0  0  0  0
  1  4  1  0  0  0  0
  2 24  1  0  0  0  0
  2 17  1  0  0  0  0
  2 14  1  0  0  0  0
  3  9  2  0  0  0  0
  4 12  1  0  0  0  0
  4 37  1  1  0  0  0
  6 22  1  0  0  0  0
  6  9  1  0  0  0  0
  7  3  1  1  0  0  0
  7 21  1  0  0  0  0
  8 12  1  0  0  0  0
  8 26  2  0  0  0  0
  9 13  1  0  0  0  0
 10  7  1  0  0  0  0
 10  5  1  0  0  0  0
 11  6  2  0  0  0  0
 13 21  2  0  0  0  0
 13 17  1  0  0  0  0
 15 28  2  0  0  0  0
 15 20  1  0  0  0  0
 16 11  1  0  0  0  0
 16 20  2  0  0  0  0
 18  8  1  1  0  0  0
 19  5  1  6  0  0  0
 19 25  1  0  0  0  0
 19 18  1  0  0  0  0
 20  3  1  0  0  0  0
 21 27  1  0  0  0  0
 22  2  1  0  0  0  0
 23 10  2  0  0  0  0
 25 27  1  0  0  0  0
 25 18  1  0  0  0  0
 27  1  1  0  0  0  0
 28 23  1  0  0  0  0
 30 23  1  0  0  0  0
 30 29  2  0  0  0  0
 31 30  1  0  0  0  0
 32 34  1  0  0  0  0
 33 35  2  0  0  0  0
 34 31  2  0  0  0  0
 34 33  1  0  0  0  0
 35 29  1  0  0  0  0
 37 36  1  0  0  0  0
M  END
>  <MODEL>
6

>  <REMARK>
 VINA RESULT:      -8.6      3.904      9.619
  Name = 
  2 active torsions:
  status: ('A' for Active; 'I' for Inactive)
    1  A    between atoms: C_4  and  C_37
    2  A    between atoms: C_23  and  C_30
                            x       y       z     vdW  Elec       q    Type
                         _______ _______ _______ _____ _____    ______ ____

>  <TORSDO>
F 2

$$$$
=
 OpenBabel11122411213D

 37 44  0  0  1  0  0  0  0  0999 V2000
  189.5120  176.9540  145.3230 C   0  0  0  0  0  2  0  0  0  0  0  0
  185.6090  178.9110  146.9140 C   0  0  0  0  0  0  0  0  0  0  0  0
  185.9040  178.2760  142.7530 C   0  0  0  0  0  0  0  0  0  0  0  0
  190.9020  176.9450  145.9710 C   0  0  2  0  0  3  0  0  0  0  0  0
  188.9750  176.8700  141.2360 O   0  0  0  0  0  0  0  0  0  0  0  0
  184.5440  178.9300  144.6510 C   0  0  0  0  0  0  0  0  0  0  0  0
  187.1980  178.0570  142.5660 C   0  0  0  0  0  0  0  0  0  0  0  0
  191.6760  176.0440  143.7470 C   0  0  0  0  0  0  0  0  0  0  0  0
  185.6970  178.6100  144.1160 C   0  0  2  0  0  3  0  0  0  0  0  0
  187.8030  177.6560  141.2430 C   0  0  0  0  0  0  0  0  0  0  0  0
  183.3600  178.9640  143.7630 C   0  0  0  0  0  3  0  0  0  0  0  0
  192.0570  176.8260  144.9690 C   0  0  0  0  0  2  0  0  0  0  0  0
  186.9310  178.5810  144.8050 C   0  0  0  0  0  0  0  0  0  0  0  0
  185.4120  177.4990  147.4350 C   0  0  0  0  0  1  0  0  0  0  0  0
  185.0690  179.0380  140.6210 C   0  0  0  0  0  3  0  0  0  0  0  0
  183.4650  178.6280  142.4540 C   0  0  0  0  0  3  0  0  0  0  0  0
  187.0100  179.0030  146.2400 C   0  0  0  0  0  2  0  0  0  0  0  0
  191.1040  176.7530  142.5560 C   0  0  1  0  0  3  0  0  0  0  0  0
  189.6140  176.5260  142.4470 C   0  0  1  0  0  3  0  0  0  0  0  0
  184.7700  178.1760  141.7940 C   0  0  0  0  0  0  0  0  0  0  0  0
  187.8730  178.2430  143.9200 C   0  0  0  0  0  0  0  0  0  0  0  0
  184.5150  179.2400  146.0210 O   0  0  0  0  0  0  0  0  0  0  0  0
  187.2770  178.0370  140.0430 C   0  0  0  0  0  0  0  0  0  0  0  0
  185.5780  179.8590  148.0930 C   0  0  0  0  0  1  0  0  0  0  0  0
  190.1300  177.8630  142.9660 C   0  0  1  0  0  3  0  0  0  0  0  0
  191.8300  174.8330  143.7240 O   0  0  0  0  0  0  0  0  0  0  0  0
  189.3400  178.0590  144.2690 C   0  0  2  0  0  3  0  0  0  0  0  0
  186.1450  178.9280  139.9000 N   0  0  0  0  0  0  0  0  0  0  0  0
  189.1100  178.3660  138.3890 C   0  0  0  0  0  3  0  0  0  0  0  0
  187.9500  177.6730  138.7700 C   0  0  0  0  0  0  0  0  0  0  0  0
  187.5030  176.6080  137.9700 C   0  0  0  0  0  3  0  0  0  0  0  0
  187.7120  175.1910  135.9920 N   0  0  0  0  0  1  0  0  0  0  0  0
  189.3270  176.9720  136.4210 C   0  0  0  0  0  3  0  0  0  0  0  0
  188.1830  176.2650  136.7980 C   0  0  0  0  0  0  0  0  0  0  0  0
  189.7910  178.0210  137.2170 C   0  0  0  0  0  3  0  0  0  0  0  0
  192.4290  175.6280  147.4420 C   0  0  0  0  0  1  0  0  0  0  0  0
  190.9940  175.8180  146.9870 C   0  0  0  0  0  2  0  0  0  0  0  0
  1  4  1  0  0  0  0
  2 14  1  0  0  0  0
  2 24  1  0  0  0  0
  4 37  1  1  0  0  0
  5 10  1  0  0  0  0
  6 22  1  0  0  0  0
  7  3  2  0  0  0  0
  7 21  1  0  0  0  0
  8 12  1  0  0  0  0
  9  3  1  6  0  0  0
  9  6  1  0  0  0  0
  9 13  1  0  0  0  0
 10  7  1  0  0  0  0
 11  6  2  0  0  0  0
 12  4  1  0  0  0  0
 13 17  1  0  0  0  0
 15 20  1  0  0  0  0
 16 11  1  0  0  0  0
 17  2  1  0  0  0  0
 18 25  1  0  0  0  0
 18  8  1  1  0  0  0
 19  5  1  6  0  0  0
 19 18  1  0  0  0  0
 19 25  1  0  0  0  0
 20 16  2  0  0  0  0
 20  3  1  0  0  0  0
 21 27  1  0  0  0  0
 21 13  2  0  0  0  0
 22  2  1  0  0  0  0
 23 10  2  0  0  0  0
 25 27  1  0  0  0  0
 26  8  2  0  0  0  0
 27  1  1  0  0  0  0
 28 23  1  0  0  0  0
 28 15  2  0  0  0  0
 29 30  1  0  0  0  0
 30 23  1  0  0  0  0
 31 30  2  0  0  0  0
 32 34  1  0  0  0  0
 33 34  2  0  0  0  0
 33 35  1  0  0  0  0
 34 31  1  0  0  0  0
 35 29  2  0  0  0  0
 37 36  1  0  0  0  0
M  END
>  <MODEL>
7

>  <REMARK>
 VINA RESULT:      -8.6      2.793      7.215
  Name = 
  2 active torsions:
  status: ('A' for Active; 'I' for Inactive)
    1  A    between atoms: C_4  and  C_37
    2  A    between atoms: C_23  and  C_30
                            x       y       z     vdW  Elec       q    Type
                         _______ _______ _______ _____ _____    ______ ____

>  <TORSDO>
F 2

$$$$
=
 OpenBabel11122411213D

 37 44  0  0  1  0  0  0  0  0999 V2000
  189.0150  177.3820  144.1210 C   0  0  0  0  0  2  0  0  0  0  0  0
  184.9140  179.3500  143.1720 C   0  0  0  0  0  0  0  0  0  0  0  0
  187.1920  177.9450  139.9100 C   0  0  0  0  0  0  0  0  0  0  0  0
  189.9050  177.5890  145.3540 C   0  0  2  0  0  3  0  0  0  0  0  0
  190.5560  176.4770  140.4060 O   0  0  0  0  0  0  0  0  0  0  0  0
  185.1020  178.8630  140.7260 C   0  0  0  0  0  0  0  0  0  0  0  0
  188.4020  177.7800  140.4290 C   0  0  0  0  0  0  0  0  0  0  0  0
  191.6380  176.3290  144.0240 C   0  0  0  0  0  0  0  0  0  0  0  0
  186.3550  178.5210  140.8990 C   0  0  2  0  0  3  0  0  0  0  0  0
  189.5630  177.1710  139.6820 C   0  0  0  0  0  0  0  0  0  0  0  0
  184.5100  178.6470  139.3850 C   0  0  0  0  0  3  0  0  0  0  0  0
  191.3970  177.3540  145.0910 C   0  0  0  0  0  2  0  0  0  0  0  0
  187.0880  178.7070  142.0940 C   0  0  0  0  0  0  0  0  0  0  0  0
  184.4310  178.0550  143.8000 C   0  0  0  0  0  1  0  0  0  0  0  0
  187.5450  178.2270  137.5400 C   0  0  0  0  0  3  0  0  0  0  0  0
  185.2320  178.0730  138.3930 C   0  0  0  0  0  3  0  0  0  0  0  0
  186.4670  179.4010  143.2670 C   0  0  0  0  0  2  0  0  0  0  0  0
  191.7530  176.7560  142.5910 C   0  0  1  0  0  3  0  0  0  0  0  0
  190.5020  176.4150  141.8150 C   0  0  1  0  0  3  0  0  0  0  0  0
  186.6750  177.5890  138.5610 C   0  0  0  0  0  0  0  0  0  0  0  0
  188.3300  178.2670  141.8700 C   0  0  0  0  0  0  0  0  0  0  0  0
  184.4140  179.4290  141.8120 O   0  0  0  0  0  0  0  0  0  0  0  0
  189.7110  177.2790  138.3290 C   0  0  0  0  0  0  0  0  0  0  0  0
  184.3430  180.5030  143.9680 C   0  0  0  0  0  1  0  0  0  0  0  0
  190.7480  177.8580  142.2410 C   0  0  1  0  0  3  0  0  0  0  0  0
  191.7350  175.1490  144.3220 O   0  0  0  0  0  0  0  0  0  0  0  0
  189.4270  178.2500  142.9210 C   0  0  2  0  0  3  0  0  0  0  0  0
  188.8320  178.0500  137.4760 N   0  0  0  0  0  0  0  0  0  0  0  0
  190.8630  176.4880  136.2670 C   0  0  0  0  0  3  0  0  0  0  0  0
  190.9090  176.7210  137.6500 C   0  0  0  0  0  0  0  0  0  0  0  0
  192.1120  176.4880  138.3370 C   0  0  0  0  0  3  0  0  0  0  0  0
  194.4420  175.7580  138.3730 N   0  0  0  0  0  1  0  0  0  0  0  0
  193.1710  175.7580  136.2880 C   0  0  0  0  0  3  0  0  0  0  0  0
  193.2340  176.0000  137.6620 C   0  0  0  0  0  0  0  0  0  0  0  0
  191.9870  176.0030  135.5900 C   0  0  0  0  0  3  0  0  0  0  0  0
  188.6870  177.4890  147.5300 C   0  0  0  0  0  1  0  0  0  0  0  0
  189.4410  176.6870  146.4860 C   0  0  0  0  0  2  0  0  0  0  0  0
  1  4  1  0  0  0  0
  2 17  1  0  0  0  0
  2 14  1  0  0  0  0
  2 24  1  0  0  0  0
  3  7  2  0  0  0  0
  4 37  1  1  0  0  0
  6  9  1  0  0  0  0
  6 22  1  0  0  0  0
  7 21  1  0  0  0  0
  8 26  2  0  0  0  0
  8 12  1  0  0  0  0
  9  3  1  6  0  0  0
  9 13  1  0  0  0  0
 10  5  1  0  0  0  0
 10  7  1  0  0  0  0
 11  6  2  0  0  0  0
 12  4  1  0  0  0  0
 13 17  1  0  0  0  0
 15 20  1  0  0  0  0
 16 20  2  0  0  0  0
 16 11  1  0  0  0  0
 18  8  1  1  0  0  0
 19  5  1  6  0  0  0
 19 25  1  0  0  0  0
 19 18  1  0  0  0  0
 20  3  1  0  0  0  0
 21 13  2  0  0  0  0
 21 27  1  0  0  0  0
 22  2  1  0  0  0  0
 23 10  2  0  0  0  0
 25 18  1  0  0  0  0
 25 27  1  0  0  0  0
 27  1  1  0  0  0  0
 28 15  2  0  0  0  0
 28 23  1  0  0  0  0
 29 30  1  0  0  0  0
 30 23  1  0  0  0  0
 30 31  2  0  0  0  0
 33 34  2  0  0  0  0
 34 31  1  0  0  0  0
 34 32  1  0  0  0  0
 35 29  2  0  0  0  0
 35 33  1  0  0  0  0
 37 36  1  0  0  0  0
M  END
>  <MODEL>
8

>  <REMARK>
 VINA RESULT:      -8.5      3.235      8.751
  Name = 
  2 active torsions:
  status: ('A' for Active; 'I' for Inactive)
    1  A    between atoms: C_4  and  C_37
    2  A    between atoms: C_23  and  C_30
                            x       y       z     vdW  Elec       q    Type
                         _______ _______ _______ _____ _____    ______ ____

>  <TORSDO>
F 2

$$$$
=
 OpenBabel11122411213D

 37 44  0  0  1  0  0  0  0  0999 V2000
  184.3390  178.2630  140.6850 C   0  0  0  0  0  2  0  0  0  0  0  0
  187.0380  177.8720  136.9230 C   0  0  0  0  0  0  0  0  0  0  0  0
  188.8610  177.3040  140.6860 C   0  0  0  0  0  0  0  0  0  0  0  0
  183.0220  179.0370  140.8330 C   0  0  2  0  0  3  0  0  0  0  0  0
  186.9480  177.7120  143.8300 O   0  0  0  0  0  0  0  0  0  0  0  0
  189.0380  177.2070  138.2700 C   0  0  0  0  0  0  0  0  0  0  0  0
  187.9770  177.8110  141.5350 C   0  0  2  0  0  3  0  0  0  0  0  0
  183.3110  178.5950  143.2990 C   0  0  0  0  0  0  0  0  0  0  0  0
  188.3990  177.5360  139.3650 C   0  0  0  0  0  0  0  0  0  0  0  0
  188.1140  177.7390  143.0360 C   0  0  0  0  0  0  0  0  0  0  0  0
  190.3590  176.5540  138.4150 C   0  0  0  0  0  3  0  0  0  0  0  0
  182.7370  179.5140  142.2620 C   0  0  0  0  0  2  0  0  0  0  0  0
  187.1570  178.2110  139.4080 C   0  0  0  0  0  0  0  0  0  0  0  0
  186.2180  176.6030  136.7760 C   0  0  0  0  0  1  0  0  0  0  0  0
  190.9800  177.3940  141.8360 C   0  0  0  0  0  3  0  0  0  0  0  0
  190.8600  176.2670  139.6410 C   0  0  0  0  0  3  0  0  0  0  0  0
  186.5000  178.6750  138.1440 C   0  0  0  0  0  2  0  0  0  0  0  0
  184.7010  178.8260  143.8130 C   0  0  1  0  0  3  0  0  0  0  0  0
  185.6730  177.8250  143.2330 C   0  0  1  0  0  3  0  0  0  0  0  0
  190.1240  176.5630  140.9510 C   0  0  0  0  0  0  0  0  0  0  0  0
  186.8490  178.3950  140.6950 C   0  0  0  0  0  0  0  0  0  0  0  0
  188.4390  177.5150  137.0370 O   0  0  0  0  0  0  0  0  0  0  0  0
  189.3230  177.7190  143.6700 C   0  0  0  0  0  0  0  0  0  0  0  0
  186.8470  178.7050  135.6750 C   0  0  0  0  0  1  0  0  0  0  0  0
  185.6590  179.2510  142.6960 C   0  0  1  0  0  3  0  0  0  0  0  0
  182.6490  177.6600  143.7200 O   0  0  0  0  0  0  0  0  0  0  0  0
  185.5650  179.0500  141.1760 C   0  0  2  0  0  3  0  0  0  0  0  0
  190.5960  177.8500  142.9920 N   0  0  0  0  0  0  0  0  0  0  0  0
  188.2630  178.0570  145.8980 C   0  0  0  0  0  3  0  0  0  0  0  0
  189.4030  177.7190  145.1530 C   0  0  0  0  0  0  0  0  0  0  0  0
  190.5640  177.3200  145.8350 C   0  0  0  0  0  3  0  0  0  0  0  0
  191.7810  176.8950  147.9090 N   0  0  0  0  0  1  0  0  0  0  0  0
  189.4580  177.6450  147.9620 C   0  0  0  0  0  3  0  0  0  0  0  0
  190.5940  177.2910  147.2320 C   0  0  0  0  0  0  0  0  0  0  0  0
  188.2910  178.0270  147.2950 C   0  0  0  0  0  3  0  0  0  0  0  0
  182.3600  176.8390  139.8550 C   0  0  0  0  0  1  0  0  0  0  0  0
  181.8630  178.1870  140.3410 C   0  0  0  0  0  2  0  0  0  0  0  0
  1  4  1  0  0  0  0
  1 27  1  0  0  0  0
  2 22  1  0  0  0  0
  2 17  1  0  0  0  0
  3 20  1  0  0  0  0
  4 37  1  1  0  0  0
  4 12  1  0  0  0  0
  6 11  2  0  0  0  0
  6  9  1  0  0  0  0
  7  3  1  6  0  0  0
  7 10  1  0  0  0  0
  8 26  2  0  0  0  0
  9 13  1  0  0  0  0
  9  3  2  0  0  0  0
 10 23  2  0  0  0  0
 10  5  1  0  0  0  0
 11 16  1  0  0  0  0
 12  8  1  0  0  0  0
 13 21  2  0  0  0  0
 14  2  1  0  0  0  0
 15 28  2  0  0  0  0
 16 20  2  0  0  0  0
 17 13  1  0  0  0  0
 18  8  1  6  0  0  0
 19 18  1  0  0  0  0
 19  5  1  1  0  0  0
 20 15  1  0  0  0  0
 21 27  1  0  0  0  0
 21  7  1  0  0  0  0
 22  6  1  0  0  0  0
 23 30  1  0  0  0  0
 24  2  1  0  0  0  0
 25 19  1  0  0  0  0
 25 18  1  0  0  0  0
 27 25  1  0  0  0  0
 28 23  1  0  0  0  0
 29 35  1  0  0  0  0
 30 31  1  0  0  0  0
 30 29  2  0  0  0  0
 31 34  2  0  0  0  0
 34 32  1  0  0  0  0
 34 33  1  0  0  0  0
 35 33  2  0  0  0  0
 36 37  1  0  0  0  0
M  END
>  <MODEL>
9

>  <REMARK>
 VINA RESULT:      -8.4      2.883      7.071
  Name = 
  2 active torsions:
  status: ('A' for Active; 'I' for Inactive)
    1  A    between atoms: C_4  and  C_37
    2  A    between atoms: C_23  and  C_30
                            x       y       z     vdW  Elec       q    Type
                         _______ _______ _______ _____ _____    ______ ____

>  <TORSDO>
F 2

$$$$
