=
 OpenBabel11122411253D

 37 42  0  0  1  0  0  0  0  0999 V2000
  188.2900  177.5260  137.0590 C   0  0  0  0  0  0  0  0  0  0  0  0
  184.9950  178.0320  139.5760 C   0  0  0  0  0  0  0  0  0  0  0  0
  183.3250  180.0400  138.3810 F   0  0  0  0  0  0  0  0  0  0  0  0
  187.3610  178.2780  139.3180 C   0  0  0  0  0  0  0  0  0  0  0  0
  183.8040  177.7150  138.7250 C   0  0  1  0  0  3  0  0  0  0  0  0
  186.1180  177.9200  138.8320 C   0  0  0  0  0  0  0  0  0  0  0  0
  182.7660  178.8390  138.7900 C   0  0  1  0  0  3  0  0  0  0  0  0
  187.4450  178.7400  140.5990 N   0  0  0  0  0  0  0  0  0  0  0  0
  185.8630  177.5750  137.4980 N   0  0  0  0  0  0  0  0  0  0  0  0
  188.4830  176.0400  137.3160 C   0  0  0  0  0  1  0  0  0  0  0  0
  183.8200  178.8370  141.6790 C   0  0  0  0  0  2  0  0  0  0  0  0
  186.3300  178.8630  141.3880 C   0  0  0  0  0  3  0  0  0  0  0  0
  186.8830  177.7690  136.4720 C   0  0  0  0  0  2  0  0  0  0  0  0
  185.0580  178.5140  140.8890 C   0  0  0  0  0  0  0  0  0  0  0  0
  184.4120  177.5400  137.3030 C   0  0  1  0  0  3  0  0  0  0  0  0
  188.5330  178.3120  138.3740 C   0  0  0  0  0  2  0  0  0  0  0  0
  182.2210  178.9780  140.1510 N   0  0  0  0  0  0  0  0  0  0  0  0
  189.3190  177.9670  136.0410 C   0  0  0  0  0  1  0  0  0  0  0  0
  182.6920  178.1820  141.1560 O   0  0  0  0  0  0  0  0  0  0  0  0
  184.1380  174.9660  137.5000 C   0  0  0  0  0  2  0  0  0  0  0  0
  183.5250  173.8390  136.8070 N   0  0  0  0  0  0  0  0  0  0  0  0
  181.3460  175.0350  137.4000 C   0  0  2  0  0  3  0  0  0  0  0  0
  182.1030  173.7110  137.1540 C   0  0  0  0  0  2  0  0  0  0  0  0
  181.4610  176.0580  136.3360 N   0  0  0  0  0  0  0  0  0  0  0  0
  180.9770  177.2460  136.7730 O   0  0  0  0  0  1  0  0  0  0  0  0
  182.7790  176.2850  135.7170 C   0  0  0  0  0  2  0  0  0  0  0  0
  181.5180  175.5580  138.8240 C   0  0  0  0  0  1  0  0  0  0  0  0
  184.0100  176.2210  136.6380 C   0  0  1  0  0  3  0  0  0  0  0  0
  185.3860  172.9870  138.0150 N   0  0  0  0  0  1  0  0  0  0  0  0
  184.1790  172.6330  137.2870 C   0  0  0  0  0  2  0  0  0  0  0  0
  180.4250  179.7810  141.6320 C   0  0  0  0  0  3  0  0  0  0  0  0
  181.1090  179.8560  140.4100 C   0  0  0  0  0  0  0  0  0  0  0  0
  180.6870  180.7890  139.4500 C   0  0  0  0  0  3  0  0  0  0  0  0
  179.2050  182.5300  138.7750 F   0  0  0  0  0  0  0  0  0  0  0  0
  178.9310  181.5510  140.9300 C   0  0  0  0  0  3  0  0  0  0  0  0
  179.6040  181.6330  139.7090 C   0  0  0  0  0  0  0  0  0  0  0  0
  179.3410  180.6240  141.8920 C   0  0  0  0  0  3  0  0  0  0  0  0
  1 10  1  0  0  0  0
  1 16  1  0  0  0  0
  2 14  1  0  0  0  0
  4  8  2  0  0  0  0
  5  7  1  0  0  0  0
  5  2  1  1  0  0  0
  6  4  1  0  0  0  0
  6  2  2  0  0  0  0
  7  3  1  1  0  0  0
  7 17  1  0  0  0  0
  8 12  1  0  0  0  0
  9  6  1  0  0  0  0
 13  1  1  0  0  0  0
 13  9  1  0  0  0  0
 14 12  2  0  0  0  0
 14 11  1  0  0  0  0
 15  9  1  1  0  0  0
 15  5  1  0  0  0  0
 16  4  1  0  0  0  0
 17 32  1  0  0  0  0
 17 19  1  0  0  0  0
 18  1  1  0  0  0  0
 19 11  1  0  0  0  0
 21 23  1  0  0  0  0
 21 30  1  0  0  0  0
 21 20  1  0  0  0  0
 22 27  1  1  0  0  0
 23 22  1  0  0  0  0
 24 25  1  0  0  0  0
 24 22  1  0  0  0  0
 26 24  1  0  0  0  0
 28 26  1  1  0  0  0
 28 15  1  0  0  0  0
 28 20  1  0  0  0  0
 30 29  1  0  0  0  0
 31 37  1  0  0  0  0
 32 31  2  0  0  0  0
 33 36  2  0  0  0  0
 33 32  1  0  0  0  0
 34 36  1  0  0  0  0
 35 37  2  0  0  0  0
 36 35  1  0  0  0  0
M  END
>  <MODEL>
1

>  <REMARK>
 VINA RESULT:      -6.5      0.000      0.000
  Name = 
  3 active torsions:
  status: ('A' for Active; 'I' for Inactive)
    1  A    between atoms: N_4  and  C_37
    2  A    between atoms: C_21  and  C_27
    3  A    between atoms: N_23  and  C_30
                            x       y       z     vdW  Elec       q    Type
                         _______ _______ _______ _____ _____    ______ ____

>  <TORSDO>
F 3

$$$$
=
 OpenBabel11122411253D

 37 42  0  0  1  0  0  0  0  0999 V2000
  188.2030  178.0450  142.7990 C   0  0  0  0  0  0  0  0  0  0  0  0
  184.4950  178.2440  140.8860 C   0  0  0  0  0  0  0  0  0  0  0  0
  184.5260  180.5940  139.2350 F   0  0  0  0  0  0  0  0  0  0  0  0
  185.6710  178.3500  142.9660 C   0  0  0  0  0  0  0  0  0  0  0  0
  184.8110  178.2210  139.4220 C   0  0  1  0  0  3  0  0  0  0  0  0
  185.6470  178.2100  141.5920 C   0  0  0  0  0  0  0  0  0  0  0  0
  184.1300  179.3810  138.6930 C   0  0  1  0  0  3  0  0  0  0  0  0
  184.4850  178.5090  143.6210 N   0  0  0  0  0  0  0  0  0  0  0  0
  186.7900  178.1910  140.7820 N   0  0  0  0  0  0  0  0  0  0  0  0
  188.3050  176.5290  142.8300 C   0  0  0  0  0  1  0  0  0  0  0  0
  181.9910  178.6560  140.7790 C   0  0  0  0  0  2  0  0  0  0  0  0
  183.2940  178.5440  142.9410 C   0  0  0  0  0  3  0  0  0  0  0  0
  188.0990  178.5250  141.3340 C   0  0  0  0  0  2  0  0  0  0  0  0
  183.2670  178.4170  141.5360 C   0  0  0  0  0  0  0  0  0  0  0  0
  186.3640  178.3160  139.3860 C   0  0  1  0  0  3  0  0  0  0  0  0
  186.9980  178.4990  143.6630 C   0  0  0  0  0  2  0  0  0  0  0  0
  182.6630  179.2590  138.7560 N   0  0  0  0  0  0  0  0  0  0  0  0
  189.4670  178.6160  143.4030 C   0  0  0  0  0  1  0  0  0  0  0  0
  182.0970  178.2250  139.4450 O   0  0  0  0  0  0  0  0  0  0  0  0
  186.1560  176.6350  137.4200 C   0  0  0  0  0  2  0  0  0  0  0  0
  186.9760  175.7610  136.5880 N   0  0  0  0  0  0  0  0  0  0  0  0
  188.0070  177.9630  135.8000 C   0  0  2  0  0  3  0  0  0  0  0  0
  187.5980  176.5070  135.4850 C   0  0  0  0  0  2  0  0  0  0  0  0
  188.8440  178.1580  137.0060 N   0  0  0  0  0  0  0  0  0  0  0  0
  188.9210  179.4750  137.3160 O   0  0  0  0  0  1  0  0  0  0  0  0
  188.5060  177.4060  138.2270 C   0  0  0  0  0  2  0  0  0  0  0  0
  186.8500  178.9470  135.6470 C   0  0  0  0  0  1  0  0  0  0  0  0
  187.0120  177.2140  138.5450 C   0  0  1  0  0  3  0  0  0  0  0  0
  185.2700  174.1610  137.0060 N   0  0  0  0  0  1  0  0  0  0  0  0
  186.0850  174.7880  135.9800 C   0  0  0  0  0  2  0  0  0  0  0  0
  181.1690  179.6770  136.8430 C   0  0  0  0  0  3  0  0  0  0  0  0
  181.8200  180.1440  137.9950 C   0  0  0  0  0  0  0  0  0  0  0  0
  181.6410  181.4830  138.3820 C   0  0  0  0  0  3  0  0  0  0  0  0
  180.6580  183.6230  138.0170 F   0  0  0  0  0  0  0  0  0  0  0  0
  180.1800  181.8580  136.4900 C   0  0  0  0  0  3  0  0  0  0  0  0
  180.8240  182.3340  137.6340 C   0  0  0  0  0  0  0  0  0  0  0  0
  180.3530  180.5290  136.0940 C   0  0  0  0  0  3  0  0  0  0  0  0
  1 10  1  0  0  0  0
  1 18  1  0  0  0  0
  1 16  1  0  0  0  0
  2 14  2  0  0  0  0
  2  6  1  0  0  0  0
  4  8  1  0  0  0  0
  4 16  1  0  0  0  0
  5  2  1  1  0  0  0
  6  4  2  0  0  0  0
  7 17  1  0  0  0  0
  7  3  1  1  0  0  0
  7  5  1  0  0  0  0
  9 13  1  0  0  0  0
  9  6  1  0  0  0  0
 11 14  1  0  0  0  0
 12  8  2  0  0  0  0
 13  1  1  0  0  0  0
 14 12  1  0  0  0  0
 15  5  1  0  0  0  0
 15  9  1  1  0  0  0
 17 19  1  0  0  0  0
 19 11  1  0  0  0  0
 21 20  1  0  0  0  0
 22 27  1  1  0  0  0
 22 24  1  0  0  0  0
 23 22  1  0  0  0  0
 23 21  1  0  0  0  0
 24 25  1  0  0  0  0
 24 26  1  0  0  0  0
 26 28  1  0  0  0  0
 28 20  1  6  0  0  0
 28 15  1  0  0  0  0
 30 21  1  0  0  0  0
 30 29  1  0  0  0  0
 31 32  1  0  0  0  0
 32 33  2  0  0  0  0
 32 17  1  0  0  0  0
 35 36  2  0  0  0  0
 36 34  1  0  0  0  0
 36 33  1  0  0  0  0
 37 35  1  0  0  0  0
 37 31  2  0  0  0  0
M  END
>  <MODEL>
2

>  <REMARK>
 VINA RESULT:      -6.4      2.401      4.449
  Name = 
  3 active torsions:
  status: ('A' for Active; 'I' for Inactive)
    1  A    between atoms: N_4  and  C_37
    2  A    between atoms: C_21  and  C_27
    3  A    between atoms: N_23  and  C_30
                            x       y       z     vdW  Elec       q    Type
                         _______ _______ _______ _____ _____    ______ ____

>  <TORSDO>
F 3

$$$$
=
 OpenBabel11122411253D

 37 42  0  0  1  0  0  0  0  0999 V2000
  180.5320  175.4750  135.6790 C   0  0  0  0  0  0  0  0  0  0  0  0
  181.6140  177.9620  138.8560 C   0  0  0  0  0  0  0  0  0  0  0  0
  183.1530  176.3690  140.6840 F   0  0  0  0  0  0  0  0  0  0  0  0
  179.8250  176.8770  137.6950 C   0  0  0  0  0  0  0  0  0  0  0  0
  183.1110  177.9410  138.8740 C   0  0  1  0  0  3  0  0  0  0  0  0
  181.1670  177.1550  137.8670 C   0  0  0  0  0  0  0  0  0  0  0  0
  183.6410  177.5980  140.2680 C   0  0  1  0  0  3  0  0  0  0  0  0
  178.9310  177.4570  138.5470 N   0  0  0  0  0  0  0  0  0  0  0  0
  182.2000  176.5170  137.1680 N   0  0  0  0  0  0  0  0  0  0  0  0
  180.5740  176.5400  134.5970 C   0  0  0  0  0  1  0  0  0  0  0  0
  181.1770  179.2990  140.9710 C   0  0  0  0  0  2  0  0  0  0  0  0
  179.3440  178.2860  139.5590 C   0  0  0  0  0  3  0  0  0  0  0  0
  181.9250  175.3500  136.3360 C   0  0  0  0  0  2  0  0  0  0  0  0
  180.7140  178.5580  139.7480 C   0  0  0  0  0  0  0  0  0  0  0  0
  183.4700  176.8610  137.8120 C   0  0  1  0  0  3  0  0  0  0  0  0
  179.4190  175.8220  136.7020 C   0  0  0  0  0  2  0  0  0  0  0  0
  183.2750  178.6390  141.2440 N   0  0  0  0  0  0  0  0  0  0  0  0
  180.1890  174.1530  135.0280 C   0  0  0  0  0  1  0  0  0  0  0  0
  182.5180  179.7050  140.8490 O   0  0  0  0  0  0  0  0  0  0  0  0
  185.8500  177.7500  137.2810 C   0  0  0  0  0  2  0  0  0  0  0  0
  186.7370  177.9980  136.1500 N   0  0  0  0  0  0  0  0  0  0  0  0
  186.6340  175.4580  135.8860 C   0  0  2  0  0  3  0  0  0  0  0  0
  187.4350  176.7710  135.7430 C   0  0  0  0  0  2  0  0  0  0  0  0
  185.2920  175.4430  135.2590 N   0  0  0  0  0  0  0  0  0  0  0  0
  184.5970  174.3530  135.6650 O   0  0  0  0  0  1  0  0  0  0  0  0
  184.4330  176.6310  135.4080 C   0  0  0  0  0  2  0  0  0  0  0  0
  186.6980  174.8770  137.2960 C   0  0  0  0  0  1  0  0  0  0  0  0
  184.4660  177.3600  136.7630 C   0  0  1  0  0  3  0  0  0  0  0  0
  188.1510  178.5980  137.9640 N   0  0  0  0  0  1  0  0  0  0  0  0
  187.7600  178.9260  136.6030 C   0  0  0  0  0  2  0  0  0  0  0  0
  183.0050  178.9810  143.6680 C   0  0  0  0  0  3  0  0  0  0  0  0
  183.8110  178.6130  142.5800 C   0  0  0  0  0  0  0  0  0  0  0  0
  185.1410  178.2290  142.8190 C   0  0  0  0  0  3  0  0  0  0  0  0
  186.9360  177.8390  144.3380 F   0  0  0  0  0  0  0  0  0  0  0  0
  184.8390  178.5790  145.1940 C   0  0  0  0  0  3  0  0  0  0  0  0
  185.6520  178.2110  144.1190 C   0  0  0  0  0  0  0  0  0  0  0  0
  183.5160  178.9650  144.9680 C   0  0  0  0  0  3  0  0  0  0  0  0
  1 13  1  0  0  0  0
  1 16  1  0  0  0  0
  2 14  1  0  0  0  0
  4  6  1  0  0  0  0
  4  8  2  0  0  0  0
  5  2  1  1  0  0  0
  5  7  1  0  0  0  0
  6  2  2  0  0  0  0
  7  3  1  1  0  0  0
  7 17  1  0  0  0  0
  8 12  1  0  0  0  0
  9  6  1  0  0  0  0
 10  1  1  0  0  0  0
 12 14  2  0  0  0  0
 13  9  1  0  0  0  0
 14 11  1  0  0  0  0
 15  9  1  6  0  0  0
 15  5  1  0  0  0  0
 16  4  1  0  0  0  0
 17 32  1  0  0  0  0
 18  1  1  0  0  0  0
 19 11  1  0  0  0  0
 19 17  1  0  0  0  0
 21 30  1  0  0  0  0
 21 20  1  0  0  0  0
 22 27  1  1  0  0  0
 23 22  1  0  0  0  0
 23 21  1  0  0  0  0
 24 26  1  0  0  0  0
 24 25  1  0  0  0  0
 24 22  1  0  0  0  0
 28 26  1  6  0  0  0
 28 20  1  0  0  0  0
 28 15  1  0  0  0  0
 30 29  1  0  0  0  0
 31 37  1  0  0  0  0
 32 33  1  0  0  0  0
 32 31  2  0  0  0  0
 33 36  2  0  0  0  0
 36 34  1  0  0  0  0
 36 35  1  0  0  0  0
 37 35  2  0  0  0  0
M  END
>  <MODEL>
3

>  <REMARK>
 VINA RESULT:      -6.1      2.552      5.858
  Name = 
  3 active torsions:
  status: ('A' for Active; 'I' for Inactive)
    1  A    between atoms: N_4  and  C_37
    2  A    between atoms: C_21  and  C_27
    3  A    between atoms: N_23  and  C_30
                            x       y       z     vdW  Elec       q    Type
                         _______ _______ _______ _____ _____    ______ ____

>  <TORSDO>
F 3

$$$$
=
 OpenBabel11122411253D

 37 42  0  0  1  0  0  0  0  0999 V2000
  186.3090  177.3710  137.1450 C   0  0  0  0  0  0  0  0  0  0  0  0
  188.6000  178.1600  140.5470 C   0  0  0  0  0  0  0  0  0  0  0  0
  189.2950  175.6230  141.7000 F   0  0  0  0  0  0  0  0  0  0  0  0
  186.4540  178.3400  139.5050 C   0  0  0  0  0  0  0  0  0  0  0  0
  189.9080  177.4730  140.3030 C   0  0  1  0  0  3  0  0  0  0  0  0
  187.7750  177.9360  139.5000 C   0  0  0  0  0  0  0  0  0  0  0  0
  190.2840  176.5690  141.4800 C   0  0  1  0  0  3  0  0  0  0  0  0
  185.9850  179.0020  140.6010 N   0  0  0  0  0  0  0  0  0  0  0  0
  188.3460  177.1200  138.5140 N   0  0  0  0  0  0  0  0  0  0  0  0
  186.7940  178.5550  136.3250 C   0  0  0  0  0  1  0  0  0  0  0  0
  188.9570  178.9260  142.9420 C   0  0  0  0  0  2  0  0  0  0  0  0
  186.7920  179.2540  141.6820 C   0  0  0  0  0  3  0  0  0  0  0  0
  187.5090  176.4700  137.5110 C   0  0  0  0  0  2  0  0  0  0  0  0
  188.1360  178.8290  141.6870 C   0  0  0  0  0  0  0  0  0  0  0  0
  189.6580  176.6770  138.9890 C   0  0  1  0  0  3  0  0  0  0  0  0
  185.5460  177.8850  138.3930 C   0  0  0  0  0  2  0  0  0  0  0  0
  190.5040  177.3590  142.7040 N   0  0  0  0  0  0  0  0  0  0  0  0
  185.3480  176.5690  136.2940 C   0  0  0  0  0  1  0  0  0  0  0  0
  190.3220  178.7120  142.6820 O   0  0  0  0  0  0  0  0  0  0  0  0
  192.0790  176.2890  138.1370 C   0  0  0  0  0  2  0  0  0  0  0  0
  192.8970  176.4610  136.9420 N   0  0  0  0  0  0  0  0  0  0  0  0
  191.2940  174.7360  135.9490 C   0  0  2  0  0  3  0  0  0  0  0  0
  192.7140  175.3430  136.0060 C   0  0  0  0  0  2  0  0  0  0  0  0
  190.1850  175.6920  135.7340 N   0  0  0  0  0  0  0  0  0  0  0  0
  188.9930  175.0860  135.9560 O   0  0  0  0  0  1  0  0  0  0  0  0
  190.2060  176.9710  136.4650 C   0  0  0  0  0  2  0  0  0  0  0  0
  191.0530  173.6970  137.0420 C   0  0  0  0  0  1  0  0  0  0  0  0
  190.7160  176.9450  137.9160 C   0  0  1  0  0  3  0  0  0  0  0  0
  194.5340  175.2120  138.1300 N   0  0  0  0  0  1  0  0  0  0  0  0
  194.2870  176.4230  137.3660 C   0  0  0  0  0  2  0  0  0  0  0  0
  190.9470  177.3980  145.1270 C   0  0  0  0  0  3  0  0  0  0  0  0
  191.0320  176.7380  143.8910 C   0  0  0  0  0  0  0  0  0  0  0  0
  191.6440  175.4750  143.8360 C   0  0  0  0  0  3  0  0  0  0  0  0
  192.7440  173.6650  144.9290 F   0  0  0  0  0  0  0  0  0  0  0  0
  192.0650  175.5500  146.2180 C   0  0  0  0  0  3  0  0  0  0  0  0
  192.1560  174.8840  144.9940 C   0  0  0  0  0  0  0  0  0  0  0  0
  191.4600  176.8080  146.2840 C   0  0  0  0  0  3  0  0  0  0  0  0
  1 13  1  0  0  0  0
  1 16  1  0  0  0  0
  2 14  1  0  0  0  0
  4  8  2  0  0  0  0
  5  2  1  1  0  0  0
  5  7  1  0  0  0  0
  6  4  1  0  0  0  0
  6  2  2  0  0  0  0
  7  3  1  1  0  0  0
  7 17  1  0  0  0  0
  8 12  1  0  0  0  0
  9  6  1  0  0  0  0
 10  1  1  0  0  0  0
 12 14  2  0  0  0  0
 13  9  1  0  0  0  0
 14 11  1  0  0  0  0
 15  9  1  6  0  0  0
 15  5  1  0  0  0  0
 16  4  1  0  0  0  0
 17 32  1  0  0  0  0
 18  1  1  0  0  0  0
 19 17  1  0  0  0  0
 19 11  1  0  0  0  0
 21 30  1  0  0  0  0
 21 20  1  0  0  0  0
 22 23  1  0  0  0  0
 22 27  1  1  0  0  0
 23 21  1  0  0  0  0
 24 22  1  0  0  0  0
 24 25  1  0  0  0  0
 24 26  1  0  0  0  0
 28 26  1  6  0  0  0
 28 20  1  0  0  0  0
 28 15  1  0  0  0  0
 30 29  1  0  0  0  0
 31 37  1  0  0  0  0
 32 31  2  0  0  0  0
 33 32  1  0  0  0  0
 33 36  2  0  0  0  0
 34 36  1  0  0  0  0
 35 37  2  0  0  0  0
 36 35  1  0  0  0  0
M  END
>  <MODEL>
4

>  <REMARK>
 VINA RESULT:      -5.9      5.143      8.620
  Name = 
  3 active torsions:
  status: ('A' for Active; 'I' for Inactive)
    1  A    between atoms: N_4  and  C_37
    2  A    between atoms: C_21  and  C_27
    3  A    between atoms: N_23  and  C_30
                            x       y       z     vdW  Elec       q    Type
                         _______ _______ _______ _____ _____    ______ ____

>  <TORSDO>
F 3

$$$$
=
 OpenBabel11122411253D

 37 42  0  0  1  0  0  0  0  0999 V2000
  180.9210  177.3690  139.0380 C   0  0  0  0  0  0  0  0  0  0  0  0
  183.4730  178.8310  142.0030 C   0  0  0  0  0  0  0  0  0  0  0  0
  185.2340  176.6830  142.7320 F   0  0  0  0  0  0  0  0  0  0  0  0
  181.2270  178.2560  141.4150 C   0  0  0  0  0  0  0  0  0  0  0  0
  184.8530  178.6690  141.4440 C   0  0  1  0  0  3  0  0  0  0  0  0
  182.5720  178.3550  141.1160 C   0  0  0  0  0  0  0  0  0  0  0  0
  185.7620  177.9270  142.4260 C   0  0  1  0  0  3  0  0  0  0  0  0
  180.8060  178.6730  142.6430 N   0  0  0  0  0  0  0  0  0  0  0  0
  183.1630  177.8290  139.9590 N   0  0  0  0  0  0  0  0  0  0  0  0
  180.7780  178.6710  138.2680 C   0  0  0  0  0  1  0  0  0  0  0  0
  184.0500  179.6050  144.3530 C   0  0  0  0  0  2  0  0  0  0  0  0
  181.6880  179.1680  143.5700 C   0  0  0  0  0  3  0  0  0  0  0  0
  182.4070  176.9500  139.0720 C   0  0  0  0  0  2  0  0  0  0  0  0
  183.0640  179.2550  143.2740 C   0  0  0  0  0  0  0  0  0  0  0  0
  184.6170  177.8750  140.1260 C   0  0  1  0  0  3  0  0  0  0  0  0
  180.3150  177.5380  140.4560 C   0  0  0  0  0  2  0  0  0  0  0  0
  185.9540  178.7070  143.6610 N   0  0  0  0  0  0  0  0  0  0  0  0
  180.1380  176.3000  138.3070 C   0  0  0  0  0  1  0  0  0  0  0  0
  185.3150  179.9040  143.8160 O   0  0  0  0  0  0  0  0  0  0  0  0
  186.7730  178.3720  138.7690 C   0  0  0  0  0  2  0  0  0  0  0  0
  187.1980  178.8680  137.4640 N   0  0  0  0  0  0  0  0  0  0  0  0
  186.0500  176.7510  136.6090 C   0  0  2  0  0  3  0  0  0  0  0  0
  187.1740  177.8000  136.4560 C   0  0  0  0  0  2  0  0  0  0  0  0
  184.6750  177.2830  136.7360 N   0  0  0  0  0  0  0  0  0  0  0  0
  183.8240  176.2990  137.1160 O   0  0  0  0  0  1  0  0  0  0  0  0
  184.4510  178.4570  137.5980 C   0  0  0  0  0  2  0  0  0  0  0  0
  186.4100  175.6410  137.5930 C   0  0  0  0  0  1  0  0  0  0  0  0
  185.2590  178.5360  138.9040 C   0  0  1  0  0  3  0  0  0  0  0  0
  189.0550  179.0030  138.9410 N   0  0  0  0  0  1  0  0  0  0  0  0
  188.5840  179.2840  137.5950 C   0  0  0  0  0  2  0  0  0  0  0  0
  188.1770  177.8350  144.2650 C   0  0  0  0  0  3  0  0  0  0  0  0
  186.9070  178.2840  144.6550 C   0  0  0  0  0  0  0  0  0  0  0  0
  186.5830  178.3030  146.0220 C   0  0  0  0  0  3  0  0  0  0  0  0
  187.1900  177.9100  148.2930 F   0  0  0  0  0  0  0  0  0  0  0  0
  188.7760  177.4430  146.5770 C   0  0  0  0  0  3  0  0  0  0  0  0
  187.5130  177.8860  146.9780 C   0  0  0  0  0  0  0  0  0  0  0  0
  189.1070  177.4170  145.2200 C   0  0  0  0  0  3  0  0  0  0  0  0
  1 13  1  0  0  0  0
  1 16  1  0  0  0  0
  2 14  1  0  0  0  0
  4  8  2  0  0  0  0
  5  2  1  1  0  0  0
  5  7  1  0  0  0  0
  6  4  1  0  0  0  0
  6  2  2  0  0  0  0
  7  3  1  1  0  0  0
  7 17  1  0  0  0  0
  8 12  1  0  0  0  0
  9  6  1  0  0  0  0
 10  1  1  0  0  0  0
 13  9  1  0  0  0  0
 14 12  2  0  0  0  0
 14 11  1  0  0  0  0
 15  9  1  6  0  0  0
 15  5  1  0  0  0  0
 16  4  1  0  0  0  0
 17 19  1  0  0  0  0
 17 32  1  0  0  0  0
 18  1  1  0  0  0  0
 19 11  1  0  0  0  0
 20 28  1  0  0  0  0
 21 30  1  0  0  0  0
 21 20  1  0  0  0  0
 22 24  1  0  0  0  0
 22 27  1  1  0  0  0
 23 22  1  0  0  0  0
 23 21  1  0  0  0  0
 24 25  1  0  0  0  0
 24 26  1  0  0  0  0
 28 26  1  6  0  0  0
 28 15  1  0  0  0  0
 30 29  1  0  0  0  0
 31 32  2  0  0  0  0
 31 37  1  0  0  0  0
 32 33  1  0  0  0  0
 33 36  2  0  0  0  0
 35 36  1  0  0  0  0
 36 34  1  0  0  0  0
 37 35  2  0  0  0  0
M  END
>  <MODEL>
5

>  <REMARK>
 VINA RESULT:      -5.3      3.307      6.776
  Name = 
  3 active torsions:
  status: ('A' for Active; 'I' for Inactive)
    1  A    between atoms: N_4  and  C_37
    2  A    between atoms: C_21  and  C_27
    3  A    between atoms: N_23  and  C_30
                            x       y       z     vdW  Elec       q    Type
                         _______ _______ _______ _____ _____    ______ ____

>  <TORSDO>
F 3

$$$$
=
 OpenBabel11122411253D

 37 42  0  0  1  0  0  0  0  0999 V2000
  180.2360  172.6790  136.5330 C   0  0  0  0  0  0  0  0  0  0  0  0
  184.2790  173.5830  137.0630 C   0  0  0  0  0  0  0  0  0  0  0  0
  184.8510  175.8710  135.4240 F   0  0  0  0  0  0  0  0  0  0  0  0
  182.6830  172.0090  136.2290 C   0  0  0  0  0  0  0  0  0  0  0  0
  184.2990  174.9870  137.5840 C   0  0  1  0  0  3  0  0  0  0  0  0
  183.0010  173.2090  136.8340 C   0  0  0  0  0  0  0  0  0  0  0  0
  185.2370  175.8690  136.7560 C   0  0  1  0  0  3  0  0  0  0  0  0
  183.7020  171.1750  135.8730 N   0  0  0  0  0  0  0  0  0  0  0  0
  182.0720  174.2210  137.1130 N   0  0  0  0  0  0  0  0  0  0  0  0
  179.9800  172.1750  137.9440 C   0  0  0  0  0  1  0  0  0  0  0  0
  186.7710  173.2050  136.7530 C   0  0  0  0  0  2  0  0  0  0  0  0
  185.0120  171.5150  136.0930 C   0  0  0  0  0  3  0  0  0  0  0  0
  180.7120  174.1480  136.5890 C   0  0  0  0  0  2  0  0  0  0  0  0
  185.3410  172.7470  136.6960 C   0  0  0  0  0  0  0  0  0  0  0  0
  182.8100  175.4310  137.4820 C   0  0  1  0  0  3  0  0  0  0  0  0
  181.2550  171.7470  135.8290 C   0  0  0  0  0  2  0  0  0  0  0  0
  186.6320  175.4120  136.8720 N   0  0  0  0  0  0  0  0  0  0  0  0
  178.9310  172.6270  135.7690 C   0  0  0  0  0  1  0  0  0  0  0  0
  186.9250  174.3050  137.6150 O   0  0  0  0  0  0  0  0  0  0  0  0
  183.0890  177.0980  139.4520 C   0  0  0  0  0  2  0  0  0  0  0  0
  182.3380  177.6680  140.5650 N   0  0  0  0  0  0  0  0  0  0  0  0
  180.9160  178.6880  138.7030 C   0  0  2  0  0  3  0  0  0  0  0  0
  181.5110  178.7990  140.1240 C   0  0  0  0  0  2  0  0  0  0  0  0
  180.1740  177.4420  138.4030 N   0  0  0  0  0  0  0  0  0  0  0  0
  179.9270  177.3510  137.0740 O   0  0  0  0  0  1  0  0  0  0  0  0
  180.7340  176.1610  138.8660 C   0  0  0  0  0  2  0  0  0  0  0  0
  181.8900  179.1400  137.6180 C   0  0  0  0  0  1  0  0  0  0  0  0
  182.2620  175.9930  138.7960 C   0  0  1  0  0  3  0  0  0  0  0  0
  184.2880  179.0070  140.7950 N   0  0  0  0  0  1  0  0  0  0  0  0
  183.3070  178.2040  141.5060 C   0  0  0  0  0  2  0  0  0  0  0  0
  188.4320  175.7070  135.2170 C   0  0  0  0  0  3  0  0  0  0  0  0
  187.7080  176.1920  136.3160 C   0  0  0  0  0  0  0  0  0  0  0  0
  188.0550  177.4380  136.8630 C   0  0  0  0  0  3  0  0  0  0  0  0
  189.4300  179.3860  136.8540 F   0  0  0  0  0  0  0  0  0  0  0  0
  189.8170  177.6920  135.2230 C   0  0  0  0  0  3  0  0  0  0  0  0
  189.1040  178.1850  136.3190 C   0  0  0  0  0  0  0  0  0  0  0  0
  189.4810  176.4530  134.6730 C   0  0  0  0  0  3  0  0  0  0  0  0
  1 13  1  0  0  0  0
  1 10  1  0  0  0  0
  4  6  2  0  0  0  0
  5  2  1  6  0  0  0
  6  2  1  0  0  0  0
  6  9  1  0  0  0  0
  7  3  1  6  0  0  0
  7 17  1  0  0  0  0
  7  5  1  0  0  0  0
  8 12  2  0  0  0  0
  8  4  1  0  0  0  0
 11 19  1  0  0  0  0
 12 14  1  0  0  0  0
 13  9  1  0  0  0  0
 14 11  1  0  0  0  0
 14  2  2  0  0  0  0
 15  9  1  1  0  0  0
 15  5  1  0  0  0  0
 15 28  1  0  0  0  0
 16  4  1  0  0  0  0
 16  1  1  0  0  0  0
 17 19  1  0  0  0  0
 18  1  1  0  0  0  0
 20 21  1  0  0  0  0
 21 30  1  0  0  0  0
 22 27  1  6  0  0  0
 22 23  1  0  0  0  0
 23 21  1  0  0  0  0
 24 22  1  0  0  0  0
 24 26  1  0  0  0  0
 25 24  1  0  0  0  0
 28 26  1  6  0  0  0
 28 20  1  0  0  0  0
 29 30  1  0  0  0  0
 31 32  1  0  0  0  0
 32 33  2  0  0  0  0
 32 17  1  0  0  0  0
 35 36  2  0  0  0  0
 36 34  1  0  0  0  0
 36 33  1  0  0  0  0
 37 31  2  0  0  0  0
 37 35  1  0  0  0  0
M  END
>  <MODEL>
6

>  <REMARK>
 VINA RESULT:      -5.2      2.757      7.602
  Name = 
  3 active torsions:
  status: ('A' for Active; 'I' for Inactive)
    1  A    between atoms: N_4  and  C_37
    2  A    between atoms: C_21  and  C_27
    3  A    between atoms: N_23  and  C_30
                            x       y       z     vdW  Elec       q    Type
                         _______ _______ _______ _____ _____    ______ ____

>  <TORSDO>
F 3

$$$$
=
 OpenBabel11122411253D

 37 42  0  0  1  0  0  0  0  0999 V2000
  182.7970  176.3480  135.7170 C   0  0  0  0  0  0  0  0  0  0  0  0
  186.3730  174.4040  136.6520 C   0  0  0  0  0  0  0  0  0  0  0  0
  188.2610  175.0810  134.5960 F   0  0  0  0  0  0  0  0  0  0  0  0
  184.0840  174.1590  136.0020 C   0  0  0  0  0  0  0  0  0  0  0  0
  187.3860  175.4990  136.7900 C   0  0  1  0  0  3  0  0  0  0  0  0
  185.1780  174.9410  136.3200 C   0  0  0  0  0  0  0  0  0  0  0  0
  188.6200  175.2190  135.9280 C   0  0  1  0  0  3  0  0  0  0  0  0
  184.2240  172.8030  136.0450 N   0  0  0  0  0  0  0  0  0  0  0  0
  185.2210  176.3330  136.1730 N   0  0  0  0  0  0  0  0  0  0  0  0
  182.3520  176.6000  137.1480 C   0  0  0  0  0  1  0  0  0  0  0  0
  187.8950  172.3810  136.8640 C   0  0  0  0  0  2  0  0  0  0  0  0
  185.4200  172.2200  136.3830 C   0  0  0  0  0  3  0  0  0  0  0  0
  184.1550  177.0400  135.4690 C   0  0  0  0  0  2  0  0  0  0  0  0
  186.5420  173.0150  136.6930 C   0  0  0  0  0  0  0  0  0  0  0  0
  186.6100  176.7690  136.3340 C   0  0  1  0  0  3  0  0  0  0  0  0
  182.8480  174.8210  135.4540 C   0  0  0  0  0  2  0  0  0  0  0  0
  189.3210  174.0070  136.3860 N   0  0  0  0  0  0  0  0  0  0  0  0
  181.7700  176.9600  134.7890 C   0  0  0  0  0  1  0  0  0  0  0  0
  188.8160  173.2820  137.4260 O   0  0  0  0  0  0  0  0  0  0  0  0
  186.4670  177.5250  138.8130 C   0  0  0  0  0  2  0  0  0  0  0  0
  186.7730  178.6700  139.6640 N   0  0  0  0  0  0  0  0  0  0  0  0
  189.1870  178.1420  139.0100 C   0  0  2  0  0  3  0  0  0  0  0  0
  188.1880  178.6730  140.0620 C   0  0  0  0  0  2  0  0  0  0  0  0
  189.0950  178.7450  137.6620 N   0  0  0  0  0  0  0  0  0  0  0  0
  189.8320  178.0300  136.7760 O   0  0  0  0  0  1  0  0  0  0  0  0
  187.7590  178.9770  137.0830 C   0  0  0  0  0  2  0  0  0  0  0  0
  189.3140  176.6200  139.0330 C   0  0  0  0  0  1  0  0  0  0  0  0
  186.6820  177.9110  137.3500 C   0  0  1  0  0  3  0  0  0  0  0  0
  185.7850  179.8130  141.4990 N   0  0  0  0  0  1  0  0  0  0  0  0
  186.0000  178.5140  140.8850 C   0  0  0  0  0  2  0  0  0  0  0  0
  190.7500  172.4400  135.1320 C   0  0  0  0  0  3  0  0  0  0  0  0
  190.6010  173.6470  135.8320 C   0  0  0  0  0  0  0  0  0  0  0  0
  191.7180  174.4840  135.9880 C   0  0  0  0  0  3  0  0  0  0  0  0
  194.0270  174.9390  135.6070 F   0  0  0  0  0  0  0  0  0  0  0  0
  193.0920  172.9200  134.7540 C   0  0  0  0  0  3  0  0  0  0  0  0
  192.9560  174.1240  135.4510 C   0  0  0  0  0  0  0  0  0  0  0  0
  191.9880  172.0780  134.5950 C   0  0  0  0  0  3  0  0  0  0  0  0
  1 10  1  0  0  0  0
  2 14  1  0  0  0  0
  4  8  2  0  0  0  0
  4  6  1  0  0  0  0
  5  2  1  6  0  0  0
  6  2  2  0  0  0  0
  7  3  1  6  0  0  0
  7 17  1  0  0  0  0
  7  5  1  0  0  0  0
  8 12  1  0  0  0  0
  9  6  1  0  0  0  0
 11 19  1  0  0  0  0
 12 14  2  0  0  0  0
 13  1  1  0  0  0  0
 13  9  1  0  0  0  0
 14 11  1  0  0  0  0
 15  9  1  1  0  0  0
 15  5  1  0  0  0  0
 15 28  1  0  0  0  0
 16  1  1  0  0  0  0
 16  4  1  0  0  0  0
 17 19  1  0  0  0  0
 18  1  1  0  0  0  0
 20 21  1  0  0  0  0
 21 23  1  0  0  0  0
 21 30  1  0  0  0  0
 22 27  1  6  0  0  0
 22 23  1  0  0  0  0
 24 22  1  0  0  0  0
 25 24  1  0  0  0  0
 26 24  1  0  0  0  0
 28 26  1  1  0  0  0
 28 20  1  0  0  0  0
 30 29  1  0  0  0  0
 31 32  1  0  0  0  0
 32 33  2  0  0  0  0
 32 17  1  0  0  0  0
 35 36  2  0  0  0  0
 36 34  1  0  0  0  0
 36 33  1  0  0  0  0
 37 35  1  0  0  0  0
 37 31  2  0  0  0  0
M  END
>  <MODEL>
7

>  <REMARK>
 VINA RESULT:      -5.1      4.307      9.126
  Name = 
  3 active torsions:
  status: ('A' for Active; 'I' for Inactive)
    1  A    between atoms: N_4  and  C_37
    2  A    between atoms: C_21  and  C_27
    3  A    between atoms: N_23  and  C_30
                            x       y       z     vdW  Elec       q    Type
                         _______ _______ _______ _____ _____    ______ ____

>  <TORSDO>
F 3

$$$$
=
 OpenBabel11122411253D

 37 42  0  0  1  0  0  0  0  0999 V2000
  190.0960  177.9810  143.1820 C   0  0  0  0  0  0  0  0  0  0  0  0
  186.0840  177.8270  142.0310 C   0  0  0  0  0  0  0  0  0  0  0  0
  185.5320  180.2420  140.5790 F   0  0  0  0  0  0  0  0  0  0  0  0
  187.6300  177.9710  143.8510 C   0  0  0  0  0  0  0  0  0  0  0  0
  186.1040  177.9130  140.5370 C   0  0  1  0  0  3  0  0  0  0  0  0
  187.3490  177.8970  142.5010 C   0  0  0  0  0  0  0  0  0  0  0  0
  185.1710  179.0180  140.0360 C   0  0  1  0  0  3  0  0  0  0  0  0
  186.5870  177.9540  144.7300 N   0  0  0  0  0  0  0  0  0  0  0  0
  188.3040  178.0550  141.4880 N   0  0  0  0  0  0  0  0  0  0  0  0
  190.3670  176.4890  143.0840 C   0  0  0  0  0  1  0  0  0  0  0  0
  183.5780  177.9380  142.4350 C   0  0  0  0  0  2  0  0  0  0  0  0
  185.2880  177.8780  144.2940 C   0  0  0  0  0  3  0  0  0  0  0  0
  189.6530  178.5170  141.8020 C   0  0  0  0  0  2  0  0  0  0  0  0
  184.9980  177.8180  142.9150 C   0  0  0  0  0  0  0  0  0  0  0  0
  187.6000  178.1970  140.2120 C   0  0  1  0  0  3  0  0  0  0  0  0
  189.0440  178.2440  144.2910 C   0  0  0  0  0  2  0  0  0  0  0  0
  183.7680  178.7170  140.3690 N   0  0  0  0  0  0  0  0  0  0  0  0
  191.3850  178.6710  143.5720 C   0  0  0  0  0  1  0  0  0  0  0  0
  183.4650  177.5900  141.0770 O   0  0  0  0  0  0  0  0  0  0  0  0
  187.1730  176.4380  138.3510 C   0  0  0  0  0  2  0  0  0  0  0  0
  187.8730  175.7240  137.2890 N   0  0  0  0  0  0  0  0  0  0  0  0
  188.1370  178.0620  136.2900 C   0  0  2  0  0  3  0  0  0  0  0  0
  187.9670  176.5420  136.0720 C   0  0  0  0  0  2  0  0  0  0  0  0
  189.2340  178.4710  137.1960 N   0  0  0  0  0  0  0  0  0  0  0  0
  189.1220  179.7860  137.5050 O   0  0  0  0  0  1  0  0  0  0  0  0
  189.4400  177.7110  138.4410 C   0  0  0  0  0  2  0  0  0  0  0  0
  186.8080  178.7770  136.5170 C   0  0  0  0  0  1  0  0  0  0  0  0
  188.1840  177.2240  139.1850 C   0  0  1  0  0  3  0  0  0  0  0  0
  186.0280  174.9500  136.0070 N   0  0  0  0  0  1  0  0  0  0  0  0
  187.0660  174.5650  136.9480 C   0  0  0  0  0  2  0  0  0  0  0  0
  182.9580  180.4670  138.8370 C   0  0  0  0  0  3  0  0  0  0  0  0
  182.6990  179.5310  139.8490 C   0  0  0  0  0  0  0  0  0  0  0  0
  181.3910  179.4110  140.3460 C   0  0  0  0  0  3  0  0  0  0  0  0
  179.1040  180.0840  140.3240 F   0  0  0  0  0  0  0  0  0  0  0  0
  180.6320  181.1360  138.8280 C   0  0  0  0  0  3  0  0  0  0  0  0
  180.3630  180.2080  139.8380 C   0  0  0  0  0  0  0  0  0  0  0  0
  181.9300  181.2660  138.3290 C   0  0  0  0  0  3  0  0  0  0  0  0
  1 18  1  0  0  0  0
  1 16  1  0  0  0  0
  2  6  2  0  0  0  0
  2 14  1  0  0  0  0
  4 16  1  0  0  0  0
  4  8  2  0  0  0  0
  5  2  1  1  0  0  0
  6  4  1  0  0  0  0
  7 17  1  0  0  0  0
  7  5  1  0  0  0  0
  7  3  1  1  0  0  0
  9 13  1  0  0  0  0
  9  6  1  0  0  0  0
 10  1  1  0  0  0  0
 11 14  1  0  0  0  0
 12  8  1  0  0  0  0
 13  1  1  0  0  0  0
 14 12  2  0  0  0  0
 15  5  1  0  0  0  0
 15  9  1  1  0  0  0
 17 19  1  0  0  0  0
 19 11  1  0  0  0  0
 21 20  1  0  0  0  0
 22 27  1  1  0  0  0
 22 24  1  0  0  0  0
 23 22  1  0  0  0  0
 23 21  1  0  0  0  0
 24 25  1  0  0  0  0
 24 26  1  0  0  0  0
 26 28  1  0  0  0  0
 28 20  1  6  0  0  0
 28 15  1  0  0  0  0
 29 30  1  0  0  0  0
 30 21  1  0  0  0  0
 31 32  1  0  0  0  0
 32 33  2  0  0  0  0
 32 17  1  0  0  0  0
 35 36  2  0  0  0  0
 36 34  1  0  0  0  0
 36 33  1  0  0  0  0
 37 35  1  0  0  0  0
 37 31  2  0  0  0  0
M  END
>  <MODEL>
8

>  <REMARK>
 VINA RESULT:      -5.0      2.766      4.756
  Name = 
  3 active torsions:
  status: ('A' for Active; 'I' for Inactive)
    1  A    between atoms: N_4  and  C_37
    2  A    between atoms: C_21  and  C_27
    3  A    between atoms: N_23  and  C_30
                            x       y       z     vdW  Elec       q    Type
                         _______ _______ _______ _____ _____    ______ ____

>  <TORSDO>
F 3

$$$$
=
 OpenBabel11122411253D

 37 42  0  0  1  0  0  0  0  0999 V2000
  186.4090  174.3880  136.4860 C   0  0  0  0  0  0  0  0  0  0  0  0
  184.0270  177.3450  138.2260 C   0  0  0  0  0  0  0  0  0  0  0  0
  182.3280  178.3830  136.1560 F   0  0  0  0  0  0  0  0  0  0  0  0
  186.2390  176.6820  137.6000 C   0  0  0  0  0  0  0  0  0  0  0  0
  182.6180  176.8880  138.0080 C   0  0  1  0  0  3  0  0  0  0  0  0
  184.8770  176.4560  137.6670 C   0  0  0  0  0  0  0  0  0  0  0  0
  181.7740  177.9900  137.3640 C   0  0  1  0  0  3  0  0  0  0  0  0
  186.7290  177.8370  138.1350 N   0  0  0  0  0  0  0  0  0  0  0  0
  184.2230  175.3930  137.0310 N   0  0  0  0  0  0  0  0  0  0  0  0
  186.4960  173.4890  137.7080 C   0  0  0  0  0  1  0  0  0  0  0  0
  183.5850  179.6390  139.2230 C   0  0  0  0  0  2  0  0  0  0  0  0
  185.8990  178.7630  138.7160 C   0  0  0  0  0  3  0  0  0  0  0  0
  184.9300  174.5520  136.0710 C   0  0  0  0  0  2  0  0  0  0  0  0
  184.5080  178.5420  138.7710 C   0  0  0  0  0  0  0  0  0  0  0  0
  182.7810  175.6410  137.0900 C   0  0  1  0  0  3  0  0  0  0  0  0
  187.0960  175.7440  136.7930 C   0  0  0  0  0  2  0  0  0  0  0  0
  181.6500  179.1530  138.2600 N   0  0  0  0  0  0  0  0  0  0  0  0
  187.1550  173.7190  135.3530 C   0  0  0  0  0  1  0  0  0  0  0  0
  182.2890  179.1530  139.4660 O   0  0  0  0  0  0  0  0  0  0  0  0
  180.9040  174.6630  138.5920 C   0  0  0  0  0  2  0  0  0  0  0  0
  180.1960  173.4120  138.8460 N   0  0  0  0  0  0  0  0  0  0  0  0
  179.3720  173.7300  136.4480 C   0  0  2  0  0  3  0  0  0  0  0  0
  179.1090  173.2120  137.8790 C   0  0  0  0  0  2  0  0  0  0  0  0
  180.6300  173.2780  135.8130 N   0  0  0  0  0  0  0  0  0  0  0  0
  180.8690  173.9910  134.6840 O   0  0  0  0  0  1  0  0  0  0  0  0
  181.8600  173.2550  136.6240 C   0  0  0  0  0  2  0  0  0  0  0  0
  179.0650  175.2180  136.2940 C   0  0  0  0  0  1  0  0  0  0  0  0
  182.0620  174.4020  137.6290 C   0  0  1  0  0  3  0  0  0  0  0  0
  178.9490  174.8370  140.2820 N   0  0  0  0  0  1  0  0  0  0  0  0
  179.5730  173.5310  140.1530 C   0  0  0  0  0  2  0  0  0  0  0  0
  180.2690  180.3760  136.6270 C   0  0  0  0  0  3  0  0  0  0  0  0
  180.7610  180.2390  137.9340 C   0  0  0  0  0  0  0  0  0  0  0  0
  180.3800  181.1780  138.9060 C   0  0  0  0  0  3  0  0  0  0  0  0
  179.1600  183.1310  139.5230 F   0  0  0  0  0  0  0  0  0  0  0  0
  179.0370  182.3560  137.2730 C   0  0  0  0  0  3  0  0  0  0  0  0
  179.5210  182.2310  138.5780 C   0  0  0  0  0  0  0  0  0  0  0  0
  179.4110  181.4280  136.2980 C   0  0  0  0  0  3  0  0  0  0  0  0
  1 16  1  0  0  0  0
  1 10  1  0  0  0  0
  2 14  1  0  0  0  0
  4  6  1  0  0  0  0
  4  8  2  0  0  0  0
  5  2  1  6  0  0  0
  6  2  2  0  0  0  0
  7  3  1  6  0  0  0
  7  5  1  0  0  0  0
  7 17  1  0  0  0  0
  8 12  1  0  0  0  0
  9  6  1  0  0  0  0
 11 19  1  0  0  0  0
 12 14  2  0  0  0  0
 13  1  1  0  0  0  0
 13  9  1  0  0  0  0
 14 11  1  0  0  0  0
 15  9  1  1  0  0  0
 15 28  1  0  0  0  0
 15  5  1  0  0  0  0
 16  4  1  0  0  0  0
 17 19  1  0  0  0  0
 18  1  1  0  0  0  0
 20 21  1  0  0  0  0
 21 30  1  0  0  0  0
 22 27  1  1  0  0  0
 22 23  1  0  0  0  0
 23 21  1  0  0  0  0
 24 22  1  0  0  0  0
 24 26  1  0  0  0  0
 25 24  1  0  0  0  0
 28 26  1  6  0  0  0
 28 20  1  0  0  0  0
 30 29  1  0  0  0  0
 31 32  1  0  0  0  0
 32 17  1  0  0  0  0
 32 33  2  0  0  0  0
 35 36  2  0  0  0  0
 36 33  1  0  0  0  0
 36 34  1  0  0  0  0
 37 31  2  0  0  0  0
 37 35  1  0  0  0  0
M  END
>  <MODEL>
9

>  <REMARK>
 VINA RESULT:      -4.5      2.293      3.332
  Name = 
  3 active torsions:
  status: ('A' for Active; 'I' for Inactive)
    1  A    between atoms: N_4  and  C_37
    2  A    between atoms: C_21  and  C_27
    3  A    between atoms: N_23  and  C_30
                            x       y       z     vdW  Elec       q    Type
                         _______ _______ _______ _____ _____    ______ ____

>  <TORSDO>
F 3

$$$$
