=
 OpenBabel11122411043D

 31 35  0  0  1  0  0  0  0  0999 V2000
  179.8530  178.2690  142.0850 C   0  0  0  0  0  0  0  0  0  0  0  0
  183.3510  179.1880  140.8990 C   0  0  2  0  0  3  0  0  0  0  0  0
  184.3190  178.7770  141.9920 C   0  0  0  0  0  0  0  0  0  0  0  0
  183.6170  175.0690  137.4710 O   0  0  0  0  0  0  0  0  0  0  0  0
  184.5490  175.8790  137.2210 C   0  0  0  0  0  0  0  0  0  0  0  0
  184.8000  178.4390  144.3530 C   0  0  0  0  0  0  0  0  0  0  0  0
  182.0180  178.4970  141.0170 C   0  0  0  0  0  0  0  0  0  0  0  0
  179.5960  177.1260  141.3230 C   0  0  0  0  0  3  0  0  0  0  0  0
  183.9010  178.7530  143.3310 C   0  0  0  0  0  3  0  0  0  0  0  0
  183.7300  177.6200  138.9060 C   0  0  0  0  0  0  0  0  0  0  0  0
  178.9340  178.7100  142.9770 F   0  0  0  0  0  0  0  0  0  0  0  0
  186.1680  178.5430  140.2830 C   0  0  0  0  0  2  0  0  0  0  0  0
  184.3380  178.4030  145.7640 C   0  0  0  0  0  1  0  0  0  0  0  0
  182.6920  176.9170  139.2540 N   0  0  0  0  0  0  0  0  0  0  0  0
  183.9440  179.0100  139.4810 C   0  0  2  0  0  3  0  0  0  0  0  0
  184.6220  177.1450  137.8910 N   0  0  0  0  0  2  0  0  0  0  0  0
  181.0640  178.9520  141.9370 C   0  0  0  0  0  3  0  0  0  0  0  0
  186.1340  178.1620  144.0480 C   0  0  0  0  0  3  0  0  0  0  0  0
  181.7480  177.3580  140.2380 C   0  0  0  0  0  0  0  0  0  0  0  0
  180.5410  176.6720  140.3990 C   0  0  0  0  0  3  0  0  0  0  0  0
  185.3530  179.4220  139.4420 N   0  0  0  0  0  2  0  0  0  0  0  0
  185.6770  178.5340  141.6970 C   0  0  0  0  0  0  0  0  0  0  0  0
  186.5710  178.2080  142.7210 C   0  0  0  0  0  3  0  0  0  0  0  0
  187.9890  177.2230  136.4070 C   0  0  1  0  0  3  0  0  0  0  0  0
  186.8910  175.0270  136.9260 C   0  0  0  0  0  2  0  0  0  0  0  0
  184.7290  177.0390  134.5940 O   0  0  0  0  0  1  0  0  0  0  0  0
  188.7470  178.3870  137.0080 C   0  0  0  0  0  1  0  0  0  0  0  0
  187.6710  176.2090  137.5020 C   0  0  0  0  0  2  0  0  0  0  0  0
  185.9060  176.5700  135.1780 C   0  0  2  0  0  3  0  0  0  0  0  0
  185.6050  175.4870  136.2290 C   0  0  2  0  0  3  0  0  0  0  0  0
  186.7010  177.7340  135.7670 C   0  0  0  0  0  2  0  0  0  0  0  0
  1 11  1  0  0  0  0
  2  7  1  6  0  0  0
  2  3  1  0  0  0  0
  3  9  1  0  0  0  0
  5  4  2  0  0  0  0
  5 16  1  0  0  0  0
  6 13  1  0  0  0  0
  7 17  2  0  0  0  0
  8  1  2  0  0  0  0
  9  6  2  0  0  0  0
 10 14  2  0  0  0  0
 12 22  1  0  0  0  0
 14 19  1  0  0  0  0
 15 10  1  1  0  0  0
 15  2  1  0  0  0  0
 16 10  1  0  0  0  0
 17  1  1  0  0  0  0
 18  6  1  0  0  0  0
 19 20  2  0  0  0  0
 19  7  1  0  0  0  0
 20  8  1  0  0  0  0
 21 15  1  0  0  0  0
 21 12  1  0  0  0  0
 22  3  2  0  0  0  0
 22 23  1  0  0  0  0
 23 18  2  0  0  0  0
 24 27  1  1  0  0  0
 24 28  1  0  0  0  0
 25 28  1  0  0  0  0
 29 26  1  1  0  0  0
 29 31  1  0  0  0  0
 29 30  1  0  0  0  0
 30 25  1  0  0  0  0
 30  5  1  1  0  0  0
 31 24  1  0  0  0  0
M  END
>  <MODEL>
1

>  <REMARK>
 VINA RESULT:      -8.3      0.000      0.000
  Name = 
  1 active torsions:
  status: ('A' for Active; 'I' for Inactive)
    1  A    between atoms: C_5  and  C_30
                            x       y       z     vdW  Elec       q    Type
                         _______ _______ _______ _____ _____    ______ ____

>  <TORSDO>
F 1

$$$$
=
 OpenBabel11122411043D

 31 35  0  0  1  0  0  0  0  0999 V2000
  192.1270  177.3040  140.9210 C   0  0  0  0  0  0  0  0  0  0  0  0
  189.4120  177.8610  138.3120 C   0  0  2  0  0  3  0  0  0  0  0  0
  189.1610  176.5280  137.6330 C   0  0  0  0  0  0  0  0  0  0  0  0
  185.4950  178.0850  141.9720 O   0  0  0  0  0  0  0  0  0  0  0  0
  185.0580  178.5070  140.8680 C   0  0  0  0  0  0  0  0  0  0  0  0
  189.9910  174.3770  136.8570 C   0  0  0  0  0  0  0  0  0  0  0  0
  190.1100  177.7120  139.6380 C   0  0  0  0  0  0  0  0  0  0  0  0
  191.3780  177.3030  142.1020 C   0  0  0  0  0  3  0  0  0  0  0  0
  190.1910  175.5810  137.5360 C   0  0  0  0  0  3  0  0  0  0  0  0
  187.3430  178.4100  139.7220 C   0  0  0  0  0  0  0  0  0  0  0  0
  193.4650  177.0990  140.9680 F   0  0  0  0  0  0  0  0  0  0  0  0
  186.8040  177.2490  137.0660 C   0  0  0  0  0  2  0  0  0  0  0  0
  191.0870  173.3780  136.7770 C   0  0  0  0  0  1  0  0  0  0  0  0
  187.9560  178.0000  140.7930 N   0  0  0  0  0  0  0  0  0  0  0  0
  188.1260  178.7080  138.4550 C   0  0  2  0  0  3  0  0  0  0  0  0
  185.9390  178.6970  139.7530 N   0  0  0  0  0  2  0  0  0  0  0  0
  191.4940  177.5030  139.6900 C   0  0  0  0  0  3  0  0  0  0  0  0
  188.7610  174.1140  136.2510 C   0  0  0  0  0  3  0  0  0  0  0  0
  189.3630  177.7300  140.8290 C   0  0  0  0  0  0  0  0  0  0  0  0
  189.9980  177.5180  142.0560 C   0  0  0  0  0  3  0  0  0  0  0  0
  187.2960  178.6170  137.2470 N   0  0  0  0  0  2  0  0  0  0  0  0
  187.9350  176.2710  136.9850 C   0  0  0  0  0  0  0  0  0  0  0  0
  187.7340  175.0590  136.3170 C   0  0  0  0  0  3  0  0  0  0  0  0
  182.3740  177.2050  138.5440 C   0  0  1  0  0  3  0  0  0  0  0  0
  182.7510  177.5290  141.0030 C   0  0  0  0  0  2  0  0  0  0  0  0
  184.0120  180.5160  139.0930 O   0  0  0  0  0  1  0  0  0  0  0  0
  182.4670  176.2060  137.4100 C   0  0  0  0  0  1  0  0  0  0  0  0
  182.8200  176.5380  139.8420 C   0  0  0  0  0  2  0  0  0  0  0  0
  183.2010  179.4170  139.3790 C   0  0  2  0  0  3  0  0  0  0  0  0
  183.5890  178.7820  140.7260 C   0  0  2  0  0  3  0  0  0  0  0  0
  183.2590  178.4080  138.2330 C   0  0  0  0  0  2  0  0  0  0  0  0
  1 11  1  0  0  0  0
  1  8  1  0  0  0  0
  2  3  1  1  0  0  0
  2 15  1  0  0  0  0
  2  7  1  0  0  0  0
  5  4  2  0  0  0  0
  6  9  2  0  0  0  0
  7 17  1  0  0  0  0
  7 19  2  0  0  0  0
  9  3  1  0  0  0  0
 10 16  1  0  0  0  0
 10 14  2  0  0  0  0
 12 21  1  0  0  0  0
 13  6  1  0  0  0  0
 14 19  1  0  0  0  0
 15 21  1  6  0  0  0
 15 10  1  0  0  0  0
 16  5  1  0  0  0  0
 17  1  2  0  0  0  0
 18 23  2  0  0  0  0
 18  6  1  0  0  0  0
 19 20  1  0  0  0  0
 20  8  2  0  0  0  0
 22 12  1  0  0  0  0
 22  3  2  0  0  0  0
 23 22  1  0  0  0  0
 24 27  1  6  0  0  0
 24 28  1  0  0  0  0
 28 25  1  0  0  0  0
 29 26  1  6  0  0  0
 29 30  1  0  0  0  0
 30  5  1  6  0  0  0
 30 25  1  0  0  0  0
 31 24  1  0  0  0  0
 31 29  1  0  0  0  0
M  END
>  <MODEL>
2

>  <REMARK>
 VINA RESULT:      -7.5      3.900      7.740
  Name = 
  1 active torsions:
  status: ('A' for Active; 'I' for Inactive)
    1  A    between atoms: C_5  and  C_30
                            x       y       z     vdW  Elec       q    Type
                         _______ _______ _______ _____ _____    ______ ____

>  <TORSDO>
F 1

$$$$
=
 OpenBabel11122411043D

 31 35  0  0  1  0  0  0  0  0999 V2000
  181.8950  178.8670  143.4900 C   0  0  0  0  0  0  0  0  0  0  0  0
  181.6860  178.1860  139.7510 C   0  0  2  0  0  3  0  0  0  0  0  0
  181.1740  179.4520  139.0910 C   0  0  0  0  0  0  0  0  0  0  0  0
  186.9950  178.5600  139.0640 O   0  0  0  0  0  0  0  0  0  0  0  0
  186.4770  178.0490  138.0350 C   0  0  0  0  0  0  0  0  0  0  0  0
  179.8050  181.4610  139.1830 C   0  0  0  0  0  0  0  0  0  0  0  0
  182.2400  178.4360  141.1290 C   0  0  0  0  0  0  0  0  0  0  0  0
  183.2720  179.0320  143.6630 C   0  0  0  0  0  3  0  0  0  0  0  0
  180.3360  180.3260  139.8000 C   0  0  0  0  0  3  0  0  0  0  0  0
  184.1400  177.9010  139.0650 C   0  0  0  0  0  0  0  0  0  0  0  0
  181.0580  179.0030  144.5460 F   0  0  0  0  0  0  0  0  0  0  0  0
  182.3180  178.8030  136.9310 C   0  0  0  0  0  2  0  0  0  0  0  0
  178.9340  182.3850  139.9520 C   0  0  0  0  0  1  0  0  0  0  0  0
  184.5230  178.3880  140.2100 N   0  0  0  0  0  0  0  0  0  0  0  0
  182.7100  177.4290  138.8710 C   0  0  2  0  0  3  0  0  0  0  0  0
  185.0880  177.6950  138.0100 N   0  0  0  0  0  2  0  0  0  0  0  0
  181.3780  178.5740  142.2240 C   0  0  0  0  0  3  0  0  0  0  0  0
  180.0920  181.7250  137.8420 C   0  0  0  0  0  3  0  0  0  0  0  0
  183.6270  178.5830  141.3100 C   0  0  0  0  0  0  0  0  0  0  0  0
  184.1370  178.8880  142.5750 C   0  0  0  0  0  3  0  0  0  0  0  0
  182.3030  177.4370  137.4610 N   0  0  0  0  0  2  0  0  0  0  0  0
  181.4260  179.7050  137.7260 C   0  0  0  0  0  0  0  0  0  0  0  0
  180.9030  180.8480  137.1160 C   0  0  0  0  0  3  0  0  0  0  0  0
  189.8450  176.4260  137.4630 C   0  0  1  0  0  3  0  0  0  0  0  0
  187.5240  176.3500  136.5130 C   0  0  0  0  0  2  0  0  0  0  0  0
  188.5180  179.9090  137.2230 O   0  0  0  0  0  1  0  0  0  0  0  0
  190.7900  175.7700  138.4460 C   0  0  0  0  0  1  0  0  0  0  0  0
  188.5050  175.6980  137.4880 C   0  0  0  0  0  2  0  0  0  0  0  0
  188.6870  178.5680  136.8760 C   0  0  2  0  0  3  0  0  0  0  0  0
  187.3320  177.8400  136.8190 C   0  0  2  0  0  3  0  0  0  0  0  0
  189.6600  177.8930  137.8410 C   0  0  0  0  0  2  0  0  0  0  0  0
  1  8  1  0  0  0  0
  1 11  1  0  0  0  0
  2  3  1  6  0  0  0
  2  7  1  0  0  0  0
  3  9  1  0  0  0  0
  5  4  2  0  0  0  0
  6  9  2  0  0  0  0
  6 13  1  0  0  0  0
  7 19  2  0  0  0  0
  7 17  1  0  0  0  0
 10 14  2  0  0  0  0
 12 21  1  0  0  0  0
 12 22  1  0  0  0  0
 14 19  1  0  0  0  0
 15 21  1  6  0  0  0
 15 10  1  0  0  0  0
 15  2  1  0  0  0  0
 16  5  1  0  0  0  0
 16 10  1  0  0  0  0
 17  1  2  0  0  0  0
 18  6  1  0  0  0  0
 19 20  1  0  0  0  0
 20  8  2  0  0  0  0
 22  3  2  0  0  0  0
 23 22  1  0  0  0  0
 23 18  2  0  0  0  0
 24 28  1  0  0  0  0
 24 31  1  0  0  0  0
 24 27  1  1  0  0  0
 25 30  1  0  0  0  0
 25 28  1  0  0  0  0
 29 26  1  1  0  0  0
 29 31  1  0  0  0  0
 30 29  1  0  0  0  0
 30  5  1  1  0  0  0
M  END
>  <MODEL>
3

>  <REMARK>
 VINA RESULT:      -7.5      2.601      4.500
  Name = 
  1 active torsions:
  status: ('A' for Active; 'I' for Inactive)
    1  A    between atoms: C_5  and  C_30
                            x       y       z     vdW  Elec       q    Type
                         _______ _______ _______ _____ _____    ______ ____

>  <TORSDO>
F 1

$$$$
=
 OpenBabel11122411043D

 31 35  0  0  1  0  0  0  0  0999 V2000
  179.7340  178.5490  142.4590 C   0  0  0  0  0  0  0  0  0  0  0  0
  183.1090  179.3580  140.8960 C   0  0  2  0  0  3  0  0  0  0  0  0
  184.1770  178.9190  141.8800 C   0  0  0  0  0  0  0  0  0  0  0  0
  182.8750  175.2250  137.4810 O   0  0  0  0  0  0  0  0  0  0  0  0
  183.7990  176.0050  137.1280 C   0  0  0  0  0  0  0  0  0  0  0  0
  184.9010  178.5710  144.1770 C   0  0  0  0  0  0  0  0  0  0  0  0
  181.7760  178.7080  141.1620 C   0  0  0  0  0  0  0  0  0  0  0  0
  179.3600  177.4130  141.7360 C   0  0  0  0  0  3  0  0  0  0  0  0
  183.9060  178.9110  143.2570 C   0  0  0  0  0  3  0  0  0  0  0  0
  183.2210  177.7750  138.8830 C   0  0  0  0  0  0  0  0  0  0  0  0
  178.9310  179.0190  143.4430 F   0  0  0  0  0  0  0  0  0  0  0  0
  185.8210  178.6250  139.9810 C   0  0  0  0  0  2  0  0  0  0  0  0
  184.5930  178.5520  145.6300 C   0  0  0  0  0  1  0  0  0  0  0  0
  182.2060  177.1050  139.3450 N   0  0  0  0  0  0  0  0  0  0  0  0
  183.5390  179.1580  139.4230 C   0  0  2  0  0  3  0  0  0  0  0  0
  183.9830  177.2700  137.7790 N   0  0  0  0  0  2  0  0  0  0  0  0
  180.9420  179.1940  142.1770 C   0  0  0  0  0  3  0  0  0  0  0  0
  186.1840  178.2530  143.7300 C   0  0  0  0  0  3  0  0  0  0  0  0
  181.3880  177.5770  140.4230 C   0  0  0  0  0  0  0  0  0  0  0  0
  180.1850  176.9280  140.7170 C   0  0  0  0  0  3  0  0  0  0  0  0
  184.9460  179.5270  139.2290 N   0  0  0  0  0  2  0  0  0  0  0  0
  185.4860  178.6340  141.4400 C   0  0  0  0  0  0  0  0  0  0  0  0
  186.4760  178.2830  142.3640 C   0  0  0  0  0  3  0  0  0  0  0  0
  184.7800  172.6440  135.6990 C   0  0  1  0  0  3  0  0  0  0  0  0
  183.9760  174.8800  134.8920 C   0  0  0  0  0  2  0  0  0  0  0  0
  186.5580  175.3280  137.5930 O   0  0  0  0  0  1  0  0  0  0  0  0
  184.3390  171.2510  136.0940 C   0  0  0  0  0  1  0  0  0  0  0  0
  183.5610  173.4610  135.2820 C   0  0  0  0  0  2  0  0  0  0  0  0
  185.9150  174.7240  136.5120 C   0  0  2  0  0  3  0  0  0  0  0  0
  184.7290  175.5800  136.0300 C   0  0  2  0  0  3  0  0  0  0  0  0
  185.4840  173.3060  136.8800 C   0  0  0  0  0  2  0  0  0  0  0  0
  1 11  1  0  0  0  0
  2  7  1  1  0  0  0
  2  3  1  0  0  0  0
  3  9  1  0  0  0  0
  5  4  2  0  0  0  0
  5 16  1  0  0  0  0
  6 13  1  0  0  0  0
  7 17  2  0  0  0  0
  8  1  2  0  0  0  0
  9  6  2  0  0  0  0
 10 14  2  0  0  0  0
 12 22  1  0  0  0  0
 14 19  1  0  0  0  0
 15 10  1  1  0  0  0
 15  2  1  0  0  0  0
 16 10  1  0  0  0  0
 17  1  1  0  0  0  0
 18  6  1  0  0  0  0
 19 20  2  0  0  0  0
 19  7  1  0  0  0  0
 20  8  1  0  0  0  0
 21 15  1  0  0  0  0
 21 12  1  0  0  0  0
 22  3  2  0  0  0  0
 22 23  1  0  0  0  0
 23 18  2  0  0  0  0
 24 27  1  1  0  0  0
 24 31  1  0  0  0  0
 25 28  1  0  0  0  0
 25 30  1  0  0  0  0
 28 24  1  0  0  0  0
 29 31  1  0  0  0  0
 29 26  1  1  0  0  0
 30 29  1  0  0  0  0
 30  5  1  1  0  0  0
M  END
>  <MODEL>
4

>  <REMARK>
 VINA RESULT:      -7.4      1.482      2.500
  Name = 
  1 active torsions:
  status: ('A' for Active; 'I' for Inactive)
    1  A    between atoms: C_5  and  C_30
                            x       y       z     vdW  Elec       q    Type
                         _______ _______ _______ _____ _____    ______ ____

>  <TORSDO>
F 1

$$$$
=
 OpenBabel11122411043D

 31 35  0  0  1  0  0  0  0  0999 V2000
  190.2310  177.2290  137.8360 C   0  0  0  0  0  0  0  0  0  0  0  0
  186.6660  176.7640  136.5870 C   0  0  2  0  0  3  0  0  0  0  0  0
  186.2810  175.3210  136.8550 C   0  0  0  0  0  0  0  0  0  0  0  0
  184.5240  179.3550  140.7700 O   0  0  0  0  0  0  0  0  0  0  0  0
  183.6500  179.2170  139.8740 C   0  0  0  0  0  0  0  0  0  0  0  0
  186.9150  172.9810  137.0570 C   0  0  0  0  0  0  0  0  0  0  0  0
  187.8430  177.2100  137.4130 C   0  0  0  0  0  0  0  0  0  0  0  0
  190.0170  177.9310  139.0260 C   0  0  0  0  0  3  0  0  0  0  0  0
  187.2650  174.3220  136.8770 C   0  0  0  0  0  3  0  0  0  0  0  0
  185.2890  178.2340  138.1730 C   0  0  0  0  0  0  0  0  0  0  0  0
  191.4900  176.8910  137.4660 F   0  0  0  0  0  0  0  0  0  0  0  0
  183.8400  175.9780  136.9470 C   0  0  0  0  0  2  0  0  0  0  0  0
  187.9710  171.9370  137.0940 C   0  0  0  0  0  1  0  0  0  0  0  0
  186.3110  178.3410  138.9720 N   0  0  0  0  0  0  0  0  0  0  0  0
  185.4740  177.7370  136.7500 C   0  0  2  0  0  3  0  0  0  0  0  0
  183.9940  178.6910  138.5850 N   0  0  0  0  0  2  0  0  0  0  0  0
  189.1470  176.8650  137.0320 C   0  0  0  0  0  3  0  0  0  0  0  0
  185.5740  172.6230  137.2000 C   0  0  0  0  0  3  0  0  0  0  0  0
  187.6330  177.9330  138.6010 C   0  0  0  0  0  0  0  0  0  0  0  0
  188.7200  178.2840  139.4070 C   0  0  0  0  0  3  0  0  0  0  0  0
  184.2440  177.1650  136.1900 N   0  0  0  0  0  2  0  0  0  0  0  0
  184.9250  174.9460  136.9600 C   0  0  0  0  0  0  0  0  0  0  0  0
  184.5800  173.6050  137.1520 C   0  0  0  0  0  3  0  0  0  0  0  0
  180.3090  178.1110  138.4890 C   0  0  1  0  0  3  0  0  0  0  0  0
  181.4360  178.3840  140.7140 C   0  0  0  0  0  2  0  0  0  0  0  0
  182.2410  181.3070  138.4850 O   0  0  0  0  0  1  0  0  0  0  0  0
  179.9890  177.1210  137.3890 C   0  0  0  0  0  1  0  0  0  0  0  0
  181.0860  177.4030  139.5950 C   0  0  0  0  0  2  0  0  0  0  0  0
  181.4880  180.2580  139.0130 C   0  0  2  0  0  3  0  0  0  0  0  0
  182.2280  179.5850  140.1840 C   0  0  2  0  0  3  0  0  0  0  0  0
  181.1310  179.2600  137.9130 C   0  0  0  0  0  2  0  0  0  0  0  0
  1  8  1  0  0  0  0
  2 15  1  0  0  0  0
  2  3  1  1  0  0  0
  2  7  1  0  0  0  0
  3  9  2  0  0  0  0
  3 22  1  0  0  0  0
  5  4  2  0  0  0  0
  6 13  1  0  0  0  0
  6 18  2  0  0  0  0
  7 19  2  0  0  0  0
  8 20  2  0  0  0  0
  9  6  1  0  0  0  0
 10 16  1  0  0  0  0
 10 14  2  0  0  0  0
 11  1  1  0  0  0  0
 12 22  1  0  0  0  0
 15 21  1  1  0  0  0
 15 10  1  0  0  0  0
 16  5  1  0  0  0  0
 17  7  1  0  0  0  0
 17  1  2  0  0  0  0
 19 14  1  0  0  0  0
 19 20  1  0  0  0  0
 21 12  1  0  0  0  0
 22 23  2  0  0  0  0
 23 18  1  0  0  0  0
 24 27  1  6  0  0  0
 24 28  1  0  0  0  0
 28 25  1  0  0  0  0
 29 26  1  6  0  0  0
 29 30  1  0  0  0  0
 30  5  1  6  0  0  0
 30 25  1  0  0  0  0
 31 24  1  0  0  0  0
 31 29  1  0  0  0  0
M  END
>  <MODEL>
5

>  <REMARK>
 VINA RESULT:      -6.9      3.716      7.534
  Name = 
  1 active torsions:
  status: ('A' for Active; 'I' for Inactive)
    1  A    between atoms: C_5  and  C_30
                            x       y       z     vdW  Elec       q    Type
                         _______ _______ _______ _____ _____    ______ ____

>  <TORSDO>
F 1

$$$$
=
 OpenBabel11122411043D

 31 35  0  0  1  0  0  0  0  0999 V2000
  182.0400  178.9540  142.3660 C   0  0  0  0  0  0  0  0  0  0  0  0
  185.6500  179.0330  141.1620 C   0  0  2  0  0  3  0  0  0  0  0  0
  186.4610  178.1760  142.1150 C   0  0  0  0  0  0  0  0  0  0  0  0
  184.6960  175.6820  137.0810 O   0  0  0  0  0  0  0  0  0  0  0  0
  185.8220  176.2230  136.9200 C   0  0  0  0  0  0  0  0  0  0  0  0
  186.8320  177.3030  144.3560 C   0  0  0  0  0  0  0  0  0  0  0  0
  184.1740  178.7410  141.2350 C   0  0  0  0  0  0  0  0  0  0  0  0
  181.4590  178.0850  141.4380 C   0  0  0  0  0  3  0  0  0  0  0  0
  186.0590  178.0360  143.4520 C   0  0  0  0  0  3  0  0  0  0  0  0
  185.5500  177.8000  138.9160 C   0  0  0  0  0  0  0  0  0  0  0  0
  181.2920  179.4730  143.3680 F   0  0  0  0  0  0  0  0  0  0  0  0
  188.1560  177.7310  140.2920 C   0  0  0  0  0  2  0  0  0  0  0  0
  186.3840  177.1520  145.7640 C   0  0  0  0  0  1  0  0  0  0  0  0
  184.3530  177.3720  139.1970 N   0  0  0  0  0  0  0  0  0  0  0  0
  186.1610  178.9460  139.7040 C   0  0  2  0  0  3  0  0  0  0  0  0
  186.2620  177.2770  137.7880 N   0  0  0  0  0  2  0  0  0  0  0  0
  183.3970  179.2780  142.2690 C   0  0  0  0  0  3  0  0  0  0  0  0
  188.0270  176.7160  143.9360 C   0  0  0  0  0  3  0  0  0  0  0  0
  183.5820  177.8820  140.2910 C   0  0  0  0  0  0  0  0  0  0  0  0
  182.2290  177.5520  140.4010 C   0  0  0  0  0  3  0  0  0  0  0  0
  187.6280  178.9400  139.6570 N   0  0  0  0  0  2  0  0  0  0  0  0
  187.6890  177.6130  141.7090 C   0  0  0  0  0  0  0  0  0  0  0  0
  188.4530  176.8700  142.6140 C   0  0  0  0  0  3  0  0  0  0  0  0
  189.5690  176.2110  136.4110 C   0  0  1  0  0  3  0  0  0  0  0  0
  187.6420  174.6080  136.3060 C   0  0  0  0  0  2  0  0  0  0  0  0
  186.6830  177.8920  134.7400 O   0  0  0  0  0  1  0  0  0  0  0  0
  190.6750  176.7430  137.2970 C   0  0  0  0  0  1  0  0  0  0  0  0
  188.7760  175.1530  137.1740 C   0  0  0  0  0  2  0  0  0  0  0  0
  187.5170  176.8400  135.1200 C   0  0  2  0  0  3  0  0  0  0  0  0
  186.7150  175.7280  135.8200 C   0  0  2  0  0  3  0  0  0  0  0  0
  188.6570  177.3600  135.9940 C   0  0  0  0  0  2  0  0  0  0  0  0
  1 11  1  0  0  0  0
  2  7  1  6  0  0  0
  2  3  1  0  0  0  0
  3  9  1  0  0  0  0
  5  4  2  0  0  0  0
  5 16  1  0  0  0  0
  6 13  1  0  0  0  0
  7 17  2  0  0  0  0
  8  1  2  0  0  0  0
  9  6  2  0  0  0  0
 10 14  2  0  0  0  0
 12 22  1  0  0  0  0
 14 19  1  0  0  0  0
 15 10  1  1  0  0  0
 15  2  1  0  0  0  0
 16 10  1  0  0  0  0
 17  1  1  0  0  0  0
 18  6  1  0  0  0  0
 19 20  2  0  0  0  0
 19  7  1  0  0  0  0
 20  8  1  0  0  0  0
 21 15  1  0  0  0  0
 21 12  1  0  0  0  0
 22  3  2  0  0  0  0
 22 23  1  0  0  0  0
 23 18  2  0  0  0  0
 24 28  1  0  0  0  0
 24 27  1  1  0  0  0
 25 28  1  0  0  0  0
 29 26  1  1  0  0  0
 29 30  1  0  0  0  0
 29 31  1  0  0  0  0
 30 25  1  0  0  0  0
 30  5  1  1  0  0  0
 31 24  1  0  0  0  0
M  END
>  <MODEL>
6

>  <REMARK>
 VINA RESULT:      -6.6      1.558      2.050
  Name = 
  1 active torsions:
  status: ('A' for Active; 'I' for Inactive)
    1  A    between atoms: C_5  and  C_30
                            x       y       z     vdW  Elec       q    Type
                         _______ _______ _______ _____ _____    ______ ____

>  <TORSDO>
F 1

$$$$
=
 OpenBabel11122411043D

 31 35  0  0  1  0  0  0  0  0999 V2000
  183.6410  179.3440  143.5310 C   0  0  0  0  0  0  0  0  0  0  0  0
  186.8050  179.0470  141.4340 C   0  0  2  0  0  3  0  0  0  0  0  0
  187.6980  178.0250  142.1120 C   0  0  0  0  0  0  0  0  0  0  0  0
  184.3840  176.1560  137.6160 O   0  0  0  0  0  0  0  0  0  0  0  0
  185.4990  176.5580  137.1900 C   0  0  0  0  0  0  0  0  0  0  0  0
  188.4930  176.9490  144.1440 C   0  0  0  0  0  0  0  0  0  0  0  0
  185.3690  178.9420  141.8770 C   0  0  0  0  0  0  0  0  0  0  0  0
  182.7270  178.6280  142.7530 C   0  0  0  0  0  3  0  0  0  0  0  0
  187.6300  177.8400  143.5010 C   0  0  0  0  0  3  0  0  0  0  0  0
  185.9670  178.0060  139.2470 C   0  0  0  0  0  0  0  0  0  0  0  0
  183.2520  179.8790  144.7120 F   0  0  0  0  0  0  0  0  0  0  0  0
  188.7980  177.5010  139.8950 C   0  0  0  0  0  2  0  0  0  0  0  0
  188.3970  176.7530  145.6130 C   0  0  0  0  0  1  0  0  0  0  0  0
  184.8310  177.7150  139.8120 N   0  0  0  0  0  0  0  0  0  0  0  0
  186.9140  179.0030  139.8920 C   0  0  2  0  0  3  0  0  0  0  0  0
  186.2890  177.4800  137.9530 N   0  0  0  0  0  2  0  0  0  0  0  0
  184.9620  179.4970  143.0970 C   0  0  0  0  0  3  0  0  0  0  0  0
  189.4470  176.2460  143.4060 C   0  0  0  0  0  3  0  0  0  0  0  0
  184.4420  178.2390  141.0870 C   0  0  0  0  0  0  0  0  0  0  0  0
  183.1260  178.0770  141.5320 C   0  0  0  0  0  3  0  0  0  0  0  0
  188.3050  178.8120  139.4660 N   0  0  0  0  0  2  0  0  0  0  0  0
  188.6910  177.3400  141.3800 C   0  0  0  0  0  0  0  0  0  0  0  0
  189.5440  176.4400  142.0260 C   0  0  0  0  0  3  0  0  0  0  0  0
  185.3520  173.1800  135.4970 C   0  0  1  0  0  3  0  0  0  0  0  0
  184.8590  175.5830  134.9680 C   0  0  0  0  0  2  0  0  0  0  0  0
  188.0780  175.3150  136.8980 O   0  0  0  0  0  1  0  0  0  0  0  0
  184.7430  171.8780  135.9710 C   0  0  0  0  0  1  0  0  0  0  0  0
  184.2670  174.2510  135.4310 C   0  0  0  0  0  2  0  0  0  0  0  0
  187.0680  174.9290  136.0150 C   0  0  2  0  0  3  0  0  0  0  0  0
  186.0070  176.0350  135.8770 C   0  0  2  0  0  3  0  0  0  0  0  0
  186.4570  173.6020  136.4600 C   0  0  0  0  0  2  0  0  0  0  0  0
  1 11  1  0  0  0  0
  2  7  1  6  0  0  0
  2  3  1  0  0  0  0
  3  9  1  0  0  0  0
  5  4  2  0  0  0  0
  5 16  1  0  0  0  0
  6 13  1  0  0  0  0
  7 17  2  0  0  0  0
  8  1  2  0  0  0  0
  9  6  2  0  0  0  0
 10 14  2  0  0  0  0
 12 22  1  0  0  0  0
 14 19  1  0  0  0  0
 15 10  1  1  0  0  0
 15  2  1  0  0  0  0
 16 10  1  0  0  0  0
 17  1  1  0  0  0  0
 18  6  1  0  0  0  0
 19 20  2  0  0  0  0
 19  7  1  0  0  0  0
 20  8  1  0  0  0  0
 21 15  1  0  0  0  0
 21 12  1  0  0  0  0
 22 23  1  0  0  0  0
 22  3  2  0  0  0  0
 23 18  2  0  0  0  0
 24 27  1  1  0  0  0
 24 31  1  0  0  0  0
 25 28  1  0  0  0  0
 25 30  1  0  0  0  0
 28 24  1  0  0  0  0
 29 31  1  0  0  0  0
 29 26  1  1  0  0  0
 30 29  1  0  0  0  0
 30  5  1  1  0  0  0
M  END
>  <MODEL>
7

>  <REMARK>
 VINA RESULT:      -6.2      2.286      3.644
  Name = 
  1 active torsions:
  status: ('A' for Active; 'I' for Inactive)
    1  A    between atoms: C_5  and  C_30
                            x       y       z     vdW  Elec       q    Type
                         _______ _______ _______ _____ _____    ______ ____

>  <TORSDO>
F 1

$$$$
=
 OpenBabel11122411043D

 31 35  0  0  1  0  0  0  0  0999 V2000
  188.9830  177.6440  138.1780 C   0  0  0  0  0  0  0  0  0  0  0  0
  185.6590  176.7090  136.5760 C   0  0  2  0  0  3  0  0  0  0  0  0
  185.4520  175.2240  136.8050 C   0  0  0  0  0  0  0  0  0  0  0  0
  182.7720  178.9280  140.5180 O   0  0  0  0  0  0  0  0  0  0  0  0
  182.0200  178.6820  139.5380 C   0  0  0  0  0  0  0  0  0  0  0  0
  186.3800  172.9910  137.0730 C   0  0  0  0  0  0  0  0  0  0  0  0
  186.6760  177.3020  137.5160 C   0  0  0  0  0  0  0  0  0  0  0  0
  188.5560  178.2940  139.3390 C   0  0  0  0  0  3  0  0  0  0  0  0
  186.5580  174.3690  136.9280 C   0  0  0  0  0  3  0  0  0  0  0  0
  183.9410  177.9560  138.0130 C   0  0  0  0  0  0  0  0  0  0  0  0
  190.3070  177.4860  137.9380 F   0  0  0  0  0  0  0  0  0  0  0  0
  182.9480  175.5380  136.6490 C   0  0  0  0  0  2  0  0  0  0  0  0
  187.5600  172.1010  137.2180 C   0  0  0  0  0  1  0  0  0  0  0  0
  184.8530  178.1920  138.9100 N   0  0  0  0  0  0  0  0  0  0  0  0
  184.3350  177.5080  136.6160 C   0  0  2  0  0  3  0  0  0  0  0  0
  182.5610  178.2250  138.2910 N   0  0  0  0  0  2  0  0  0  0  0  0
  188.0460  177.1440  137.2700 C   0  0  0  0  0  3  0  0  0  0  0  0
  185.0930  172.4500  137.0800 C   0  0  0  0  0  3  0  0  0  0  0  0
  186.2490  177.9740  138.6760 C   0  0  0  0  0  0  0  0  0  0  0  0
  187.1910  178.4610  139.5870 C   0  0  0  0  0  3  0  0  0  0  0  0
  183.2580  176.7790  135.9350 N   0  0  0  0  0  2  0  0  0  0  0  0
  184.1570  174.6650  136.7730 C   0  0  0  0  0  0  0  0  0  0  0  0
  183.9830  173.2870  136.9310 C   0  0  0  0  0  3  0  0  0  0  0  0
  179.6920  178.5280  142.5150 C   0  0  1  0  0  3  0  0  0  0  0  0
  180.1980  180.0530  140.5870 C   0  0  0  0  0  2  0  0  0  0  0  0
  180.1820  176.4700  139.4360 O   0  0  0  0  0  1  0  0  0  0  0  0
  179.9920  178.2530  143.9730 C   0  0  0  0  0  1  0  0  0  0  0  0
  180.4700  179.7600  142.0630 C   0  0  0  0  0  2  0  0  0  0  0  0
  179.8180  177.5810  140.1990 C   0  0  2  0  0  3  0  0  0  0  0  0
  180.5370  178.8480  139.7020 C   0  0  2  0  0  3  0  0  0  0  0  0
  180.0880  177.3140  141.6790 C   0  0  0  0  0  2  0  0  0  0  0  0
  1  8  1  0  0  0  0
  2 15  1  0  0  0  0
  2  3  1  1  0  0  0
  2  7  1  0  0  0  0
  3  9  1  0  0  0  0
  5  4  2  0  0  0  0
  6 18  1  0  0  0  0
  6 13  1  0  0  0  0
  7 19  2  0  0  0  0
  8 20  2  0  0  0  0
  9  6  2  0  0  0  0
 10 16  1  0  0  0  0
 10 14  2  0  0  0  0
 11  1  1  0  0  0  0
 12 22  1  0  0  0  0
 15 21  1  1  0  0  0
 15 10  1  0  0  0  0
 16  5  1  0  0  0  0
 17  7  1  0  0  0  0
 17  1  2  0  0  0  0
 19 14  1  0  0  0  0
 19 20  1  0  0  0  0
 21 12  1  0  0  0  0
 22  3  2  0  0  0  0
 22 23  1  0  0  0  0
 23 18  2  0  0  0  0
 24 27  1  1  0  0  0
 25 28  1  0  0  0  0
 28 24  1  0  0  0  0
 29 26  1  6  0  0  0
 29 31  1  0  0  0  0
 30  5  1  1  0  0  0
 30 29  1  0  0  0  0
 30 25  1  0  0  0  0
 31 24  1  0  0  0  0
M  END
>  <MODEL>
8

>  <REMARK>
 VINA RESULT:      -6.1      3.411      7.657
  Name = 
  1 active torsions:
  status: ('A' for Active; 'I' for Inactive)
    1  A    between atoms: C_5  and  C_30
                            x       y       z     vdW  Elec       q    Type
                         _______ _______ _______ _____ _____    ______ ____

>  <TORSDO>
F 1

$$$$
=
 OpenBabel11122411043D

 31 35  0  0  1  0  0  0  0  0999 V2000
  184.8920  179.5280  144.4940 C   0  0  0  0  0  0  0  0  0  0  0  0
  185.8550  179.3530  140.8160 C   0  0  2  0  0  3  0  0  0  0  0  0
  187.1230  178.5250  140.7220 C   0  0  0  0  0  0  0  0  0  0  0  0
  182.0200  175.7860  139.6530 O   0  0  0  0  0  0  0  0  0  0  0  0
  182.4850  176.2600  138.5830 C   0  0  0  0  0  0  0  0  0  0  0  0
  189.2270  177.7880  141.6970 C   0  0  0  0  0  0  0  0  0  0  0  0
  185.1190  179.1380  142.1120 C   0  0  0  0  0  0  0  0  0  0  0  0
  183.8240  178.6280  144.5420 C   0  0  0  0  0  3  0  0  0  0  0  0
  188.0260  178.4950  141.7960 C   0  0  0  0  0  3  0  0  0  0  0  0
  183.9590  177.9790  139.7740 C   0  0  0  0  0  0  0  0  0  0  0  0
  185.3050  180.1490  145.6250 F   0  0  0  0  0  0  0  0  0  0  0  0
  186.5370  177.8780  138.3490 C   0  0  0  0  0  2  0  0  0  0  0  0
  190.1640  177.7530  142.8480 C   0  0  0  0  0  1  0  0  0  0  0  0
  183.5530  177.6280  140.9600 N   0  0  0  0  0  0  0  0  0  0  0  0
  184.9170  179.1450  139.6040 C   0  0  2  0  0  3  0  0  0  0  0  0
  183.4200  177.3480  138.6060 N   0  0  0  0  0  2  0  0  0  0  0  0
  185.5420  179.7800  143.2830 C   0  0  0  0  0  3  0  0  0  0  0  0
  189.5460  177.1180  140.5150 C   0  0  0  0  0  3  0  0  0  0  0  0
  184.0320  178.2470  142.1600 C   0  0  0  0  0  0  0  0  0  0  0  0
  183.3930  177.9900  143.3760 C   0  0  0  0  0  3  0  0  0  0  0  0
  185.6800  179.0660  138.3520 N   0  0  0  0  0  2  0  0  0  0  0  0
  187.4710  177.8780  139.5190 C   0  0  0  0  0  0  0  0  0  0  0  0
  188.6690  177.1610  139.4280 C   0  0  0  0  0  3  0  0  0  0  0  0
  184.2380  175.7360  135.2730 C   0  0  1  0  0  3  0  0  0  0  0  0
  182.9060  174.4120  136.9370 C   0  0  0  0  0  2  0  0  0  0  0  0
  181.3510  177.8020  136.4330 O   0  0  0  0  0  1  0  0  0  0  0  0
  185.6400  176.1090  134.8430 C   0  0  0  0  0  1  0  0  0  0  0  0
  184.3110  174.7950  136.4720 C   0  0  0  0  0  2  0  0  0  0  0  0
  182.0550  176.6440  136.1000 C   0  0  2  0  0  3  0  0  0  0  0  0
  182.0680  175.6510  137.2760 C   0  0  2  0  0  3  0  0  0  0  0  0
  183.4660  177.0010  135.6370 C   0  0  0  0  0  2  0  0  0  0  0  0
  1  8  1  0  0  0  0
  1 11  1  0  0  0  0
  2  3  1  6  0  0  0
  2  7  1  0  0  0  0
  3  9  1  0  0  0  0
  5 16  1  0  0  0  0
  5  4  2  0  0  0  0
  6  9  2  0  0  0  0
  6 13  1  0  0  0  0
  7 19  2  0  0  0  0
  7 17  1  0  0  0  0
 10 14  2  0  0  0  0
 12 21  1  0  0  0  0
 12 22  1  0  0  0  0
 14 19  1  0  0  0  0
 15 21  1  6  0  0  0
 15 10  1  0  0  0  0
 15  2  1  0  0  0  0
 16 10  1  0  0  0  0
 17  1  2  0  0  0  0
 18  6  1  0  0  0  0
 19 20  1  0  0  0  0
 20  8  2  0  0  0  0
 22  3  2  0  0  0  0
 23 22  1  0  0  0  0
 23 18  2  0  0  0  0
 24 27  1  1  0  0  0
 24 31  1  0  0  0  0
 24 28  1  0  0  0  0
 25 30  1  0  0  0  0
 28 25  1  0  0  0  0
 29 26  1  1  0  0  0
 29 30  1  0  0  0  0
 30  5  1  1  0  0  0
 31 29  1  0  0  0  0
M  END
>  <MODEL>
9

>  <REMARK>
 VINA RESULT:      -6.0      2.445      3.942
  Name = 
  1 active torsions:
  status: ('A' for Active; 'I' for Inactive)
    1  A    between atoms: C_5  and  C_30
                            x       y       z     vdW  Elec       q    Type
                         _______ _______ _______ _____ _____    ______ ____

>  <TORSDO>
F 1

$$$$
