=
 OpenBabel11122411583D

 28 32  0  0  1  0  0  0  0  0999 V2000
  185.3570  178.8780  144.2980 C   0  0  0  0  0  0  0  0  0  0  0  0
  189.0060  179.4060  141.8550 O   0  0  0  0  0  0  0  0  0  0  0  0
  181.7510  176.8850  139.9130 O   0  0  0  0  0  0  0  0  0  0  0  0
  187.1400  176.8270  144.9800 C   0  0  0  0  0  3  0  0  0  0  0  0
  183.7080  177.9660  139.1470 N   0  0  0  0  0  0  0  0  0  0  0  0
  184.3930  179.9820  143.9990 C   0  0  0  0  0  2  0  0  0  0  0  0
  188.8490  176.9570  141.5550 O   0  0  0  0  0  0  0  0  0  0  0  0
  188.4640  178.2970  140.9980 S   0  0  0  0  0  0  0  0  0  0  0  0
  188.2070  178.3900  138.2640 C   0  0  0  0  0  0  0  0  0  0  0  0
  186.7470  178.4360  140.8700 N   0  0  0  0  0  0  0  0  0  0  0  0
  181.0740  178.4520  143.9890 O   0  0  0  0  0  0  0  0  0  0  0  0
  184.5480  178.5420  141.2230 C   0  0  0  0  0  0  0  0  0  0  0  0
  186.7800  178.3850  138.4160 N   0  0  0  0  0  2  0  0  0  0  0  0
  189.0840  178.4360  139.3950 N   0  0  0  0  0  2  0  0  0  0  0  0
  182.1040  179.0000  143.5200 C   0  0  0  0  0  0  0  0  0  0  0  0
  186.0170  178.1540  143.2770 C   0  0  0  0  0  0  0  0  0  0  0  0
  182.7900  177.5510  140.1620 C   0  0  0  0  0  0  0  0  0  0  0  0
  188.8470  178.3780  136.7630 S   0  0  0  0  0  0  0  0  0  0  0  0
  182.2900  179.0540  142.0400 C   0  0  0  0  0  2  0  0  0  0  0  0
  186.8970  177.1270  143.6400 C   0  0  0  0  0  3  0  0  0  0  0  0
  185.6130  178.5760  145.6420 C   0  0  0  0  0  3  0  0  0  0  0  0
  186.5000  177.5540  145.9830 C   0  0  0  0  0  3  0  0  0  0  0  0
  183.0560  179.5830  144.4120 N   0  0  0  0  0  2  0  0  0  0  0  0
  184.7620  178.5620  139.8800 C   0  0  0  0  0  0  0  0  0  0  0  0
  183.2140  177.9500  141.5540 C   0  0  2  0  0  3  0  0  0  0  0  0
  186.1180  178.4880  139.6800 C   0  0  0  0  0  0  0  0  0  0  0  0
  183.8300  177.3500  137.8350 C   0  0  0  0  0  1  0  0  0  0  0  0
  185.7900  178.4350  141.8400 C   0  0  0  0  0  0  0  0  0  0  0  0
  1 21  1  0  0  0  0
  3 17  2  0  0  0  0
  4 22  1  0  0  0  0
  5 24  1  0  0  0  0
  5 17  1  0  0  0  0
  6  1  1  0  0  0  0
  6 23  1  0  0  0  0
  8  7  2  0  0  0  0
  8  2  2  0  0  0  0
  9 13  1  0  0  0  0
  9 14  1  0  0  0  0
 10  8  1  0  0  0  0
 10 28  1  0  0  0  0
 12 25  1  0  0  0  0
 12 28  2  0  0  0  0
 13 26  1  0  0  0  0
 14  8  1  0  0  0  0
 15 11  2  0  0  0  0
 15 23  1  0  0  0  0
 16 20  1  0  0  0  0
 16  1  2  0  0  0  0
 17 25  1  0  0  0  0
 18  9  2  0  0  0  0
 19 15  1  0  0  0  0
 20  4  2  0  0  0  0
 21 22  2  0  0  0  0
 24 12  1  0  0  0  0
 25 19  1  6  0  0  0
 26 24  2  0  0  0  0
 26 10  1  0  0  0  0
 27  5  1  0  0  0  0
 28 16  1  0  0  0  0
M  END
>  <MODEL>
1

>  <REMARK>
 VINA RESULT:      -8.9      0.000      0.000
  Name = 
  0 active torsions:
  status: ('A' for Active; 'I' for Inactive)
                            x       y       z     vdW  Elec       q    Type
                         _______ _______ _______ _____ _____    ______ ____

>  <TORSDO>
F 0

$$$$
=
 OpenBabel11122411583D

 28 32  0  0  1  0  0  0  0  0999 V2000
  190.8000  177.0130  139.4420 C   0  0  0  0  0  0  0  0  0  0  0  0
  187.7260  178.9870  136.9480 O   0  0  0  0  0  0  0  0  0  0  0  0
  187.5270  176.4940  144.4650 O   0  0  0  0  0  0  0  0  0  0  0  0
  189.8760  175.1300  137.5840 C   0  0  0  0  0  3  0  0  0  0  0  0
  186.6760  178.0530  142.9060 N   0  0  0  0  0  0  0  0  0  0  0  0
  191.3560  177.9980  140.4210 C   0  0  0  0  0  2  0  0  0  0  0  0
  186.4810  176.8750  137.2650 O   0  0  0  0  0  0  0  0  0  0  0  0
  186.7230  178.2580  137.7960 S   0  0  0  0  0  0  0  0  0  0  0  0
  184.5680  179.4160  139.0460 C   0  0  0  0  0  0  0  0  0  0  0  0
  187.2680  178.1980  139.4340 N   0  0  0  0  0  0  0  0  0  0  0  0
  191.8370  176.1600  143.5430 O   0  0  0  0  0  0  0  0  0  0  0  0
  188.3660  177.8460  141.3420 C   0  0  0  0  0  0  0  0  0  0  0  0
  185.1850  179.1530  140.3150 N   0  0  0  0  0  2  0  0  0  0  0  0
  185.2300  179.1210  137.8120 N   0  0  0  0  0  2  0  0  0  0  0  0
  191.3240  176.9880  142.7470 C   0  0  0  0  0  0  0  0  0  0  0  0
  189.4090  176.8650  139.2260 C   0  0  0  0  0  0  0  0  0  0  0  0
  187.6630  177.1380  143.3910 C   0  0  0  0  0  0  0  0  0  0  0  0
  183.0880  180.1040  139.0100 S   0  0  0  0  0  0  0  0  0  0  0  0
  190.0470  177.6640  143.1230 C   0  0  0  0  0  2  0  0  0  0  0  0
  188.9690  175.9110  138.3000 C   0  0  0  0  0  3  0  0  0  0  0  0
  191.7040  176.2300  138.7140 C   0  0  0  0  0  3  0  0  0  0  0  0
  191.2450  175.2910  137.7880 C   0  0  0  0  0  3  0  0  0  0  0  0
  191.9910  177.2850  141.5190 N   0  0  0  0  0  2  0  0  0  0  0  0
  187.1790  178.4380  141.6410 C   0  0  0  0  0  0  0  0  0  0  0  0
  188.8500  176.9920  142.4720 C   0  0  2  0  0  3  0  0  0  0  0  0
  186.5130  178.6410  140.4580 C   0  0  0  0  0  0  0  0  0  0  0  0
  185.2740  178.0450  143.2950 C   0  0  0  0  0  1  0  0  0  0  0  0
  188.4070  177.6710  139.9630 C   0  0  0  0  0  0  0  0  0  0  0  0
  1  6  1  0  0  0  0
  2  8  2  0  0  0  0
  4 22  2  0  0  0  0
  4 20  1  0  0  0  0
  5 27  1  0  0  0  0
  5 17  1  0  0  0  0
  6 23  1  0  0  0  0
  7  8  2  0  0  0  0
  8 14  1  0  0  0  0
  8 10  1  0  0  0  0
  9 13  1  0  0  0  0
 10 28  1  0  0  0  0
 10 26  1  0  0  0  0
 12 24  1  0  0  0  0
 12 25  1  0  0  0  0
 13 26  1  0  0  0  0
 14  9  1  0  0  0  0
 15 19  1  0  0  0  0
 15 11  2  0  0  0  0
 16  1  1  0  0  0  0
 16 28  1  0  0  0  0
 17  3  2  0  0  0  0
 18  9  2  0  0  0  0
 20 16  2  0  0  0  0
 21  1  2  0  0  0  0
 22 21  1  0  0  0  0
 23 15  1  0  0  0  0
 24  5  1  0  0  0  0
 25 19  1  1  0  0  0
 25 17  1  0  0  0  0
 26 24  2  0  0  0  0
 28 12  2  0  0  0  0
M  END
>  <MODEL>
2

>  <REMARK>
 VINA RESULT:      -7.8      3.164      6.446
  Name = 
  0 active torsions:
  status: ('A' for Active; 'I' for Inactive)
                            x       y       z     vdW  Elec       q    Type
                         _______ _______ _______ _____ _____    ______ ____

>  <TORSDO>
F 0

$$$$
=
 OpenBabel11122411583D

 28 32  0  0  1  0  0  0  0  0999 V2000
  184.3980  177.7640  138.6430 C   0  0  0  0  0  0  0  0  0  0  0  0
  180.2270  178.8280  139.6600 O   0  0  0  0  0  0  0  0  0  0  0  0
  186.5810  177.6790  144.2500 O   0  0  0  0  0  0  0  0  0  0  0  0
  182.8230  175.4760  138.2700 C   0  0  0  0  0  3  0  0  0  0  0  0
  184.5180  178.8090  144.0260 N   0  0  0  0  0  0  0  0  0  0  0  0
  185.2690  178.9720  138.7830 C   0  0  0  0  0  2  0  0  0  0  0  0
  180.2290  176.6520  140.8320 O   0  0  0  0  0  0  0  0  0  0  0  0
  180.4790  178.1260  140.9640 S   0  0  0  0  0  0  0  0  0  0  0  0
  179.9640  179.1740  143.4510 C   0  0  0  0  0  0  0  0  0  0  0  0
  182.0950  178.4290  141.4940 N   0  0  0  0  0  0  0  0  0  0  0  0
  188.4120  177.7900  140.2280 O   0  0  0  0  0  0  0  0  0  0  0  0
  184.3060  178.5690  141.7360 C   0  0  0  0  0  0  0  0  0  0  0  0
  181.3760  179.2240  143.7030 N   0  0  0  0  0  2  0  0  0  0  0  0
  179.4400  178.7630  142.1850 N   0  0  0  0  0  2  0  0  0  0  0  0
  187.3060  178.3880  140.1770 C   0  0  0  0  0  0  0  0  0  0  0  0
  183.4600  177.3900  139.6340 C   0  0  0  0  0  0  0  0  0  0  0  0
  185.6710  178.1390  143.5100 C   0  0  0  0  0  0  0  0  0  0  0  0
  178.9310  179.6340  144.6280 S   0  0  0  0  0  0  0  0  0  0  0  0
  186.7160  178.9350  141.4340 C   0  0  0  0  0  2  0  0  0  0  0  0
  182.6900  176.2370  139.4320 C   0  0  0  0  0  3  0  0  0  0  0  0
  184.5190  176.9990  137.4760 C   0  0  0  0  0  3  0  0  0  0  0  0
  183.7360  175.8590  137.2890 C   0  0  0  0  0  3  0  0  0  0  0  0
  186.6580  178.5560  138.9150 N   0  0  0  0  0  2  0  0  0  0  0  0
  183.7270  179.0350  142.8750 C   0  0  0  0  0  0  0  0  0  0  0  0
  185.6640  178.0010  142.0080 C   0  0  2  0  0  3  0  0  0  0  0  0
  182.3670  178.9340  142.7130 C   0  0  0  0  0  0  0  0  0  0  0  0
  184.0180  178.6750  145.3850 C   0  0  0  0  0  1  0  0  0  0  0  0
  183.2840  178.1640  140.8850 C   0  0  0  0  0  0  0  0  0  0  0  0
  1  6  1  0  0  0  0
  1 16  1  0  0  0  0
  2  8  2  0  0  0  0
  4 20  1  0  0  0  0
  5 27  1  0  0  0  0
  6 23  1  0  0  0  0
  7  8  2  0  0  0  0
  8 10  1  0  0  0  0
  8 14  1  0  0  0  0
  9 13  1  0  0  0  0
  9 18  2  0  0  0  0
 10 26  1  0  0  0  0
 12 25  1  0  0  0  0
 12 24  1  0  0  0  0
 14  9  1  0  0  0  0
 15 11  2  0  0  0  0
 15 19  1  0  0  0  0
 16 28  1  0  0  0  0
 17  5  1  0  0  0  0
 17  3  2  0  0  0  0
 20 16  2  0  0  0  0
 21  1  2  0  0  0  0
 22 21  1  0  0  0  0
 22  4  2  0  0  0  0
 23 15  1  0  0  0  0
 24  5  1  0  0  0  0
 25 19  1  6  0  0  0
 25 17  1  0  0  0  0
 26 24  2  0  0  0  0
 26 13  1  0  0  0  0
 28 10  1  0  0  0  0
 28 12  2  0  0  0  0
M  END
>  <MODEL>
3

>  <REMARK>
 VINA RESULT:      -7.6      3.027      6.985
  Name = 
  0 active torsions:
  status: ('A' for Active; 'I' for Inactive)
                            x       y       z     vdW  Elec       q    Type
                         _______ _______ _______ _____ _____    ______ ____

>  <TORSDO>
F 0

$$$$
=
 OpenBabel11122411583D

 28 32  0  0  1  0  0  0  0  0999 V2000
  186.8720  177.8490  142.4370 C   0  0  0  0  0  0  0  0  0  0  0  0
  190.5840  175.5990  143.2840 O   0  0  0  0  0  0  0  0  0  0  0  0
  186.0550  180.1280  147.9460 O   0  0  0  0  0  0  0  0  0  0  0  0
  188.9920  179.2180  141.2170 C   0  0  0  0  0  3  0  0  0  0  0  0
  187.5440  178.2940  147.8630 N   0  0  0  0  0  0  0  0  0  0  0  0
  185.7050  177.1280  143.0320 C   0  0  0  0  0  2  0  0  0  0  0  0
  191.5350  177.8370  143.7270 O   0  0  0  0  0  0  0  0  0  0  0  0
  190.8520  176.6440  144.3290 S   0  0  0  0  0  0  0  0  0  0  0  0
  191.5050  176.1310  146.9490 C   0  0  0  0  0  0  0  0  0  0  0  0
  189.3740  177.1060  145.0950 N   0  0  0  0  0  0  0  0  0  0  0  0
  183.4930  179.7120  144.3700 O   0  0  0  0  0  0  0  0  0  0  0  0
  187.3390  177.8620  145.6010 C   0  0  0  0  0  0  0  0  0  0  0  0
  190.2390  176.6740  147.3510 N   0  0  0  0  0  2  0  0  0  0  0  0
  191.8580  175.9900  145.5690 N   0  0  0  0  0  2  0  0  0  0  0  0
  184.3070  178.7530  144.3870 C   0  0  0  0  0  0  0  0  0  0  0  0
  188.0660  178.0820  143.1610 C   0  0  0  0  0  0  0  0  0  0  0  0
  186.5910  179.1950  147.2910 C   0  0  0  0  0  0  0  0  0  0  0  0
  192.5530  175.6280  148.0930 S   0  0  0  0  0  0  0  0  0  0  0  0
  184.9350  178.3560  145.6820 C   0  0  0  0  0  2  0  0  0  0  0  0
  189.1090  178.7760  142.5350 C   0  0  0  0  0  3  0  0  0  0  0  0
  186.7660  178.2900  141.1120 C   0  0  0  0  0  3  0  0  0  0  0  0
  187.8200  178.9720  140.5030 C   0  0  0  0  0  3  0  0  0  0  0  0
  184.5870  178.0490  143.1760 N   0  0  0  0  0  2  0  0  0  0  0  0
  187.9600  177.5130  146.7590 C   0  0  0  0  0  0  0  0  0  0  0  0
  186.3290  178.9430  145.8270 C   0  0  2  0  0  3  0  0  0  0  0  0
  189.2130  177.0570  146.4310 C   0  0  0  0  0  0  0  0  0  0  0  0
  188.3310  178.5650  149.0550 C   0  0  0  0  0  1  0  0  0  0  0  0
  188.2370  177.6330  144.5630 C   0  0  0  0  0  0  0  0  0  0  0  0
  1  6  1  0  0  0  0
  1 16  1  0  0  0  0
  2  8  2  0  0  0  0
  4 20  1  0  0  0  0
  5 27  1  0  0  0  0
  6 23  1  0  0  0  0
  7  8  2  0  0  0  0
  8 10  1  0  0  0  0
  8 14  1  0  0  0  0
  9 13  1  0  0  0  0
  9 18  2  0  0  0  0
 10 26  1  0  0  0  0
 11 15  2  0  0  0  0
 12 25  1  0  0  0  0
 12 24  1  0  0  0  0
 14  9  1  0  0  0  0
 15 19  1  0  0  0  0
 16 28  1  0  0  0  0
 17  5  1  0  0  0  0
 17  3  2  0  0  0  0
 20 16  2  0  0  0  0
 21  1  2  0  0  0  0
 22 21  1  0  0  0  0
 22  4  2  0  0  0  0
 23 15  1  0  0  0  0
 24  5  1  0  0  0  0
 25 19  1  1  0  0  0
 25 17  1  0  0  0  0
 26 24  2  0  0  0  0
 26 13  1  0  0  0  0
 28 10  1  0  0  0  0
 28 12  2  0  0  0  0
M  END
>  <MODEL>
4

>  <REMARK>
 VINA RESULT:      -7.4      3.898      6.551
  Name = 
  0 active torsions:
  status: ('A' for Active; 'I' for Inactive)
                            x       y       z     vdW  Elec       q    Type
                         _______ _______ _______ _____ _____    ______ ____

>  <TORSDO>
F 0

$$$$
=
 OpenBabel11122411583D

 28 32  0  0  1  0  0  0  0  0999 V2000
  190.4000  177.2090  144.6140 C   0  0  0  0  0  0  0  0  0  0  0  0
  191.8700  177.8780  140.4960 O   0  0  0  0  0  0  0  0  0  0  0  0
  184.5170  177.6830  143.4380 O   0  0  0  0  0  0  0  0  0  0  0  0
  191.3050  174.7480  143.6250 C   0  0  0  0  0  3  0  0  0  0  0  0
  185.9200  178.5710  141.7560 N   0  0  0  0  0  0  0  0  0  0  0  0
  189.9480  178.5090  145.1990 C   0  0  0  0  0  2  0  0  0  0  0  0
  190.6530  175.7850  139.9960 O   0  0  0  0  0  0  0  0  0  0  0  0
  190.5660  177.2830  140.0480 S   0  0  0  0  0  0  0  0  0  0  0  0
  188.8590  178.4130  138.2140 C   0  0  0  0  0  0  0  0  0  0  0  0
  189.2950  177.7870  141.1040 N   0  0  0  0  0  0  0  0  0  0  0  0
  186.9390  177.7570  147.1340 O   0  0  0  0  0  0  0  0  0  0  0  0
  187.9320  178.1780  142.8240 C   0  0  0  0  0  0  0  0  0  0  0  0
  187.9040  178.6280  139.2630 N   0  0  0  0  0  2  0  0  0  0  0  0
  190.1590  177.8750  138.4800 N   0  0  0  0  0  2  0  0  0  0  0  0
  187.6330  178.2290  146.1960 C   0  0  0  0  0  0  0  0  0  0  0  0
  190.0240  176.7940  143.3140 C   0  0  0  0  0  0  0  0  0  0  0  0
  185.6710  177.9990  143.0430 C   0  0  0  0  0  0  0  0  0  0  0  0
  188.4670  178.8260  136.6850 S   0  0  0  0  0  0  0  0  0  0  0  0
  186.9470  178.7820  144.9910 C   0  0  0  0  0  2  0  0  0  0  0  0
  190.4800  175.5560  142.8440 C   0  0  0  0  0  3  0  0  0  0  0  0
  191.2350  176.3950  145.3890 C   0  0  0  0  0  3  0  0  0  0  0  0
  191.6860  175.1690  144.8990 C   0  0  0  0  0  3  0  0  0  0  0  0
  189.0550  178.2530  146.3200 N   0  0  0  0  0  2  0  0  0  0  0  0
  187.3320  178.6440  141.6970 C   0  0  0  0  0  0  0  0  0  0  0  0
  186.9230  177.7750  143.8530 C   0  0  2  0  0  3  0  0  0  0  0  0
  188.1790  178.3890  140.6470 C   0  0  0  0  0  0  0  0  0  0  0  0
  185.0280  178.4640  140.6120 C   0  0  0  0  0  1  0  0  0  0  0  0
  189.1480  177.6170  142.4470 C   0  0  0  0  0  0  0  0  0  0  0  0
  1  6  1  0  0  0  0
  1 21  1  0  0  0  0
  4 22  1  0  0  0  0
  5 17  1  0  0  0  0
  6 23  1  0  0  0  0
  7  8  2  0  0  0  0
  8  2  2  0  0  0  0
  8 10  1  0  0  0  0
  9 14  1  0  0  0  0
  9 13  1  0  0  0  0
 10 28  1  0  0  0  0
 12 25  1  0  0  0  0
 13 26  1  0  0  0  0
 14  8  1  0  0  0  0
 15 23  1  0  0  0  0
 15 11  2  0  0  0  0
 16  1  2  0  0  0  0
 17  3  2  0  0  0  0
 17 25  1  0  0  0  0
 18  9  2  0  0  0  0
 19 15  1  0  0  0  0
 20 16  1  0  0  0  0
 20  4  2  0  0  0  0
 22 21  2  0  0  0  0
 24  5  1  0  0  0  0
 24 12  1  0  0  0  0
 25 19  1  1  0  0  0
 26 10  1  0  0  0  0
 26 24  2  0  0  0  0
 27  5  1  0  0  0  0
 28 12  2  0  0  0  0
 28 16  1  0  0  0  0
M  END
>  <MODEL>
5

>  <REMARK>
 VINA RESULT:      -7.3      2.992      4.242
  Name = 
  0 active torsions:
  status: ('A' for Active; 'I' for Inactive)
                            x       y       z     vdW  Elec       q    Type
                         _______ _______ _______ _____ _____    ______ ____

>  <TORSDO>
F 0

$$$$
=
 OpenBabel11122411583D

 28 32  0  0  1  0  0  0  0  0999 V2000
  187.3960  178.2700  136.9850 C   0  0  0  0  0  0  0  0  0  0  0  0
  183.9970  180.0640  139.1720 O   0  0  0  0  0  0  0  0  0  0  0  0
  190.2020  175.8560  141.7300 O   0  0  0  0  0  0  0  0  0  0  0  0
  185.1210  176.7330  136.4250 C   0  0  0  0  0  3  0  0  0  0  0  0
  188.6160  177.5190  142.2800 N   0  0  0  0  0  0  0  0  0  0  0  0
  188.6270  179.0880  137.2180 C   0  0  0  0  0  2  0  0  0  0  0  0
  183.4490  177.7180  139.7270 O   0  0  0  0  0  0  0  0  0  0  0  0
  184.1860  178.9510  140.1630 S   0  0  0  0  0  0  0  0  0  0  0  0
  184.4020  179.2750  142.8840 C   0  0  0  0  0  0  0  0  0  0  0  0
  185.8690  178.6200  140.3640 N   0  0  0  0  0  0  0  0  0  0  0  0
  191.3780  176.7040  137.5540 O   0  0  0  0  0  0  0  0  0  0  0  0
  188.0150  178.0680  140.1160 C   0  0  0  0  0  0  0  0  0  0  0  0
  185.7720  178.8560  142.8060 N   0  0  0  0  0  2  0  0  0  0  0  0
  183.5980  179.4370  141.7110 N   0  0  0  0  0  2  0  0  0  0  0  0
  190.5350  177.5670  137.9120 C   0  0  0  0  0  0  0  0  0  0  0  0
  186.5380  177.8780  138.0390 C   0  0  0  0  0  0  0  0  0  0  0  0
  189.3990  176.7530  141.3600 C   0  0  0  0  0  0  0  0  0  0  0  0
  183.7550  179.6110  144.3440 S   0  0  0  0  0  0  0  0  0  0  0  0
  190.3420  177.8360  139.3670 C   0  0  0  0  0  2  0  0  0  0  0  0
  185.4120  177.1020  137.7380 C   0  0  0  0  0  3  0  0  0  0  0  0
  187.0930  177.9010  135.6680 C   0  0  0  0  0  3  0  0  0  0  0  0
  185.9610  177.1360  135.3880 C   0  0  0  0  0  3  0  0  0  0  0  0
  189.8050  178.2880  136.9180 N   0  0  0  0  0  2  0  0  0  0  0  0
  187.7880  178.2980  141.4370 C   0  0  0  0  0  0  0  0  0  0  0  0
  189.1340  177.0960  139.9150 C   0  0  2  0  0  3  0  0  0  0  0  0
  186.4620  178.6280  141.5740 C   0  0  0  0  0  0  0  0  0  0  0  0
  188.2980  177.1120  143.6390 C   0  0  0  0  0  1  0  0  0  0  0  0
  186.8060  178.2430  139.4500 C   0  0  0  0  0  0  0  0  0  0  0  0
  1  6  1  0  0  0  0
  1 16  1  0  0  0  0
  2  8  2  0  0  0  0
  4 20  1  0  0  0  0
  5 27  1  0  0  0  0
  7  8  2  0  0  0  0
  8 10  1  0  0  0  0
  8 14  1  0  0  0  0
  9 18  2  0  0  0  0
 10 26  1  0  0  0  0
 11 15  2  0  0  0  0
 12 24  1  0  0  0  0
 13  9  1  0  0  0  0
 14  9  1  0  0  0  0
 15 19  1  0  0  0  0
 16 28  1  0  0  0  0
 17  3  2  0  0  0  0
 17  5  1  0  0  0  0
 20 16  2  0  0  0  0
 21  1  2  0  0  0  0
 22 21  1  0  0  0  0
 22  4  2  0  0  0  0
 23  6  1  0  0  0  0
 23 15  1  0  0  0  0
 24 26  2  0  0  0  0
 24  5  1  0  0  0  0
 25 19  1  1  0  0  0
 25 12  1  0  0  0  0
 25 17  1  0  0  0  0
 26 13  1  0  0  0  0
 28 12  2  0  0  0  0
 28 10  1  0  0  0  0
M  END
>  <MODEL>
6

>  <REMARK>
 VINA RESULT:      -7.3      2.674      7.221
  Name = 
  0 active torsions:
  status: ('A' for Active; 'I' for Inactive)
                            x       y       z     vdW  Elec       q    Type
                         _______ _______ _______ _____ _____    ______ ____

>  <TORSDO>
F 0

$$$$
=
 OpenBabel11122411583D

 28 32  0  0  1  0  0  0  0  0999 V2000
  190.4300  174.8720  135.9100 C   0  0  0  0  0  0  0  0  0  0  0  0
  186.3210  176.4000  135.3270 O   0  0  0  0  0  0  0  0  0  0  0  0
  191.2720  176.9750  141.4840 O   0  0  0  0  0  0  0  0  0  0  0  0
  188.6840  172.6840  136.0430 C   0  0  0  0  0  3  0  0  0  0  0  0
  189.4840  177.9910  140.3210 N   0  0  0  0  0  0  0  0  0  0  0  0
  191.4030  176.0030  135.8000 C   0  0  0  0  0  2  0  0  0  0  0  0
  185.7670  174.8810  137.1970 O   0  0  0  0  0  0  0  0  0  0  0  0
  186.1780  176.2740  136.8170 S   0  0  0  0  0  0  0  0  0  0  0  0
  185.2660  178.2520  138.4920 C   0  0  0  0  0  0  0  0  0  0  0  0
  187.6600  176.7080  137.5910 N   0  0  0  0  0  0  0  0  0  0  0  0
  193.9540  175.3940  138.3470 O   0  0  0  0  0  0  0  0  0  0  0  0
  189.7590  176.8570  138.3250 C   0  0  0  0  0  0  0  0  0  0  0  0
  186.5790  178.3500  139.0620 N   0  0  0  0  0  2  0  0  0  0  0  0
  184.9880  177.3840  137.3890 N   0  0  0  0  0  2  0  0  0  0  0  0
  192.9790  175.9590  137.7870 C   0  0  0  0  0  0  0  0  0  0  0  0
  189.2530  174.9610  136.6890 C   0  0  0  0  0  0  0  0  0  0  0  0
  190.6220  177.1300  140.4170 C   0  0  0  0  0  0  0  0  0  0  0  0
  184.0680  179.1820  139.0940 S   0  0  0  0  0  0  0  0  0  0  0  0
  192.2020  176.9860  138.5420 C   0  0  0  0  0  2  0  0  0  0  0  0
  188.3990  173.8520  136.7490 C   0  0  0  0  0  3  0  0  0  0  0  0
  190.7050  173.6970  135.1970 C   0  0  0  0  0  3  0  0  0  0  0  0
  189.8370  172.6070  135.2630 C   0  0  0  0  0  3  0  0  0  0  0  0
  192.6580  175.6270  136.4360 N   0  0  0  0  0  2  0  0  0  0  0  0
  189.0080  177.7610  139.0080 C   0  0  0  0  0  0  0  0  0  0  0  0
  190.9320  176.3990  139.1340 C   0  0  2  0  0  3  0  0  0  0  0  0
  187.7180  177.6510  138.5510 C   0  0  0  0  0  0  0  0  0  0  0  0
  188.6790  178.4330  141.4490 C   0  0  0  0  0  1  0  0  0  0  0  0
  188.9080  176.1790  137.4590 C   0  0  0  0  0  0  0  0  0  0  0  0
  1 16  1  0  0  0  0
  2  8  2  0  0  0  0
  4 20  1  0  0  0  0
  5 17  1  0  0  0  0
  5 27  1  0  0  0  0
  6  1  1  0  0  0  0
  6 23  1  0  0  0  0
  8  7  2  0  0  0  0
  8 14  1  0  0  0  0
  8 10  1  0  0  0  0
  9 13  1  0  0  0  0
  9 18  2  0  0  0  0
 10 26  1  0  0  0  0
 12 24  1  0  0  0  0
 12 25  1  0  0  0  0
 14  9  1  0  0  0  0
 15 11  2  0  0  0  0
 15 19  1  0  0  0  0
 16 20  2  0  0  0  0
 16 28  1  0  0  0  0
 17  3  2  0  0  0  0
 21 22  1  0  0  0  0
 21  1  2  0  0  0  0
 22  4  2  0  0  0  0
 23 15  1  0  0  0  0
 24  5  1  0  0  0  0
 25 19  1  6  0  0  0
 25 17  1  0  0  0  0
 26 24  2  0  0  0  0
 26 13  1  0  0  0  0
 28 10  1  0  0  0  0
 28 12  2  0  0  0  0
M  END
>  <MODEL>
7

>  <REMARK>
 VINA RESULT:      -6.9      4.178      8.485
  Name = 
  0 active torsions:
  status: ('A' for Active; 'I' for Inactive)
                            x       y       z     vdW  Elec       q    Type
                         _______ _______ _______ _____ _____    ______ ____

>  <TORSDO>
F 0

$$$$
=
 OpenBabel11122411583D

 28 32  0  0  1  0  0  0  0  0999 V2000
  186.5160  177.8970  136.5440 C   0  0  0  0  0  0  0  0  0  0  0  0
  182.5300  179.0300  138.0910 O   0  0  0  0  0  0  0  0  0  0  0  0
  189.1860  176.9550  141.8540 O   0  0  0  0  0  0  0  0  0  0  0  0
  184.7700  175.7630  136.0390 C   0  0  0  0  0  3  0  0  0  0  0  0
  187.1870  178.2100  141.9780 N   0  0  0  0  0  0  0  0  0  0  0  0
  187.4710  179.0290  136.7510 C   0  0  0  0  0  2  0  0  0  0  0  0
  182.4990  176.7200  138.9700 O   0  0  0  0  0  0  0  0  0  0  0  0
  182.8530  178.1490  139.2640 S   0  0  0  0  0  0  0  0  0  0  0  0
  182.6320  178.8830  141.9030 C   0  0  0  0  0  0  0  0  0  0  0  0
  184.5260  178.2950  139.6680 N   0  0  0  0  0  0  0  0  0  0  0  0
  190.6490  177.5050  137.7200 O   0  0  0  0  0  0  0  0  0  0  0  0
  186.7550  178.2880  139.7090 C   0  0  0  0  0  0  0  0  0  0  0  0
  184.0610  178.8260  142.0190 N   0  0  0  0  0  2  0  0  0  0  0  0
  181.9710  178.6710  140.6510 N   0  0  0  0  0  2  0  0  0  0  0  0
  189.5840  178.1600  137.8530 C   0  0  0  0  0  0  0  0  0  0  0  0
  185.6490  177.4430  137.5660 C   0  0  0  0  0  0  0  0  0  0  0  0
  188.2440  177.5550  141.2710 C   0  0  0  0  0  0  0  0  0  0  0  0
  181.7410  179.2350  143.2230 S   0  0  0  0  0  0  0  0  0  0  0  0
  189.1460  178.5660  139.2220 C   0  0  0  0  0  2  0  0  0  0  0  0
  184.7920  176.3690  137.2950 C   0  0  0  0  0  3  0  0  0  0  0  0
  186.4820  177.2880  135.2830 C   0  0  0  0  0  3  0  0  0  0  0  0
  185.6140  176.2250  135.0300 C   0  0  0  0  0  3  0  0  0  0  0  0
  188.8370  178.5280  136.6930 N   0  0  0  0  0  2  0  0  0  0  0  0
  186.3110  178.6270  140.9480 C   0  0  0  0  0  0  0  0  0  0  0  0
  188.0920  177.6190  139.7720 C   0  0  2  0  0  3  0  0  0  0  0  0
  184.9390  178.6190  140.9090 C   0  0  0  0  0  0  0  0  0  0  0  0
  186.8040  177.9230  143.3520 C   0  0  0  0  0  1  0  0  0  0  0  0
  185.6360  178.0520  138.9160 C   0  0  0  0  0  0  0  0  0  0  0  0
  1  6  1  0  0  0  0
  1 16  1  0  0  0  0
  2  8  2  0  0  0  0
  4 20  1  0  0  0  0
  5 27  1  0  0  0  0
  7  8  2  0  0  0  0
  8 10  1  0  0  0  0
  8 14  1  0  0  0  0
  9 13  1  0  0  0  0
  9 18  2  0  0  0  0
 10 26  1  0  0  0  0
 11 15  2  0  0  0  0
 12 25  1  0  0  0  0
 12 24  1  0  0  0  0
 14  9  1  0  0  0  0
 15 19  1  0  0  0  0
 16 28  1  0  0  0  0
 17  3  2  0  0  0  0
 17  5  1  0  0  0  0
 20 16  2  0  0  0  0
 21  1  2  0  0  0  0
 22 21  1  0  0  0  0
 22  4  2  0  0  0  0
 23  6  1  0  0  0  0
 23 15  1  0  0  0  0
 24  5  1  0  0  0  0
 25 19  1  6  0  0  0
 25 17  1  0  0  0  0
 26 24  2  0  0  0  0
 26 13  1  0  0  0  0
 28 10  1  0  0  0  0
 28 12  2  0  0  0  0
M  END
>  <MODEL>
8

>  <REMARK>
 VINA RESULT:      -6.3      2.681      7.188
  Name = 
  0 active torsions:
  status: ('A' for Active; 'I' for Inactive)
                            x       y       z     vdW  Elec       q    Type
                         _______ _______ _______ _____ _____    ______ ____

>  <TORSDO>
F 0

$$$$
=
 OpenBabel11122411583D

 28 32  0  0  1  0  0  0  0  0999 V2000
  185.8240  177.9590  144.6820 C   0  0  0  0  0  0  0  0  0  0  0  0
  184.4130  177.4670  140.5200 O   0  0  0  0  0  0  0  0  0  0  0  0
  191.6970  178.4640  143.4710 O   0  0  0  0  0  0  0  0  0  0  0  0
  184.5550  180.3420  143.9290 C   0  0  0  0  0  3  0  0  0  0  0  0
  190.4160  177.5400  141.7130 N   0  0  0  0  0  0  0  0  0  0  0  0
  186.4680  176.6900  145.1430 C   0  0  0  0  0  2  0  0  0  0  0  0
  185.3050  179.7530  140.2190 O   0  0  0  0  0  0  0  0  0  0  0  0
  185.6110  178.2860  140.1300 S   0  0  0  0  0  0  0  0  0  0  0  0
  187.4400  177.5940  138.2000 C   0  0  0  0  0  0  0  0  0  0  0  0
  186.9560  177.8780  141.1340 N   0  0  0  0  0  0  0  0  0  0  0  0
  189.3600  177.6930  147.1420 O   0  0  0  0  0  0  0  0  0  0  0  0
  188.3830  177.5330  142.8120 C   0  0  0  0  0  0  0  0  0  0  0  0
  188.4300  177.4250  139.2250 N   0  0  0  0  0  2  0  0  0  0  0  0
  186.0790  177.9080  138.5130 N   0  0  0  0  0  2  0  0  0  0  0  0
  188.7310  177.2140  146.1640 C   0  0  0  0  0  0  0  0  0  0  0  0
  186.1180  178.5430  143.4280 C   0  0  0  0  0  0  0  0  0  0  0  0
  190.5970  178.0200  143.0480 C   0  0  0  0  0  0  0  0  0  0  0  0
  187.8690  177.3860  136.6390 S   0  0  0  0  0  0  0  0  0  0  0  0
  189.4740  176.8820  144.9130 C   0  0  0  0  0  2  0  0  0  0  0  0
  185.4800  179.7390  143.0750 C   0  0  0  0  0  3  0  0  0  0  0  0
  184.8890  178.5660  145.5300 C   0  0  0  0  0  3  0  0  0  0  0  0
  184.2570  179.7530  145.1570 C   0  0  0  0  0  3  0  0  0  0  0  0
  187.3280  176.9700  146.2840 N   0  0  0  0  0  2  0  0  0  0  0  0
  189.0290  177.2670  141.6460 C   0  0  0  0  0  0  0  0  0  0  0  0
  189.3350  177.9820  143.8750 C   0  0  2  0  0  3  0  0  0  0  0  0
  188.1410  177.4920  140.6240 C   0  0  0  0  0  0  0  0  0  0  0  0
  191.2680  177.8830  140.5850 C   0  0  0  0  0  1  0  0  0  0  0  0
  187.0930  177.9420  142.4880 C   0  0  0  0  0  0  0  0  0  0  0  0
  1  6  1  0  0  0  0
  1 21  1  0  0  0  0
  4 22  1  0  0  0  0
  5 17  1  0  0  0  0
  6 23  1  0  0  0  0
  8  7  2  0  0  0  0
  8  2  2  0  0  0  0
  8 10  1  0  0  0  0
  9 14  1  0  0  0  0
  9 13  1  0  0  0  0
 10 28  1  0  0  0  0
 12 25  1  0  0  0  0
 13 26  1  0  0  0  0
 14  8  1  0  0  0  0
 15 23  1  0  0  0  0
 15 11  2  0  0  0  0
 16  1  2  0  0  0  0
 17  3  2  0  0  0  0
 17 25  1  0  0  0  0
 18  9  2  0  0  0  0
 19 15  1  0  0  0  0
 20 16  1  0  0  0  0
 20  4  2  0  0  0  0
 22 21  2  0  0  0  0
 24  5  1  0  0  0  0
 24 12  1  0  0  0  0
 25 19  1  1  0  0  0
 26 10  1  0  0  0  0
 26 24  2  0  0  0  0
 27  5  1  0  0  0  0
 28 12  2  0  0  0  0
 28 16  1  0  0  0  0
M  END
>  <MODEL>
9

>  <REMARK>
 VINA RESULT:      -6.3      2.663      5.180
  Name = 
  0 active torsions:
  status: ('A' for Active; 'I' for Inactive)
                            x       y       z     vdW  Elec       q    Type
                         _______ _______ _______ _____ _____    ______ ____

>  <TORSDO>
F 0

$$$$
